
     RDKit          3D

 26 27  0  0  1  0  0  0  0  0999 V2000
   36.8120   29.3830   49.6170 C   0  0  0  0  0  0  0  0  0  0  0  0
   38.3910   32.6770   49.3910 C   0  0  0  0  0  0  0  0  0  0  0  0
   38.9130   32.7060   48.0880 C   0  0  0  0  0  0  0  0  0  0  0  0
   38.7000   31.5580   47.3010 C   0  0  0  0  0  0  0  0  0  0  0  0
   38.0190   30.5060   47.8310 N   0  0  0  0  0  0  0  0  0  0  0  0
   37.5400   30.5410   49.0970 C   0  0  0  0  0  0  0  0  0  0  0  0
   37.7350   31.6320   49.8610 N   0  0  0  0  0  0  0  0  0  0  0  0
   35.4090   29.4100   49.0160 C   0  0  2  0  0  0  0  0  0  0  0  0
   34.2740   29.4220   49.9500 C   0  0  0  0  0  0  0  0  0  0  0  0
   34.6170   28.1340   49.3530 C   0  0  1  0  0  0  0  0  0  0  0  0
   33.6440   27.6390   48.3160 C   0  0  0  0  0  0  0  0  0  0  0  0
   34.0100   26.5400   47.7300 O   0  0  0  0  0  0  0  0  0  0  0  0
   32.4430   28.2340   47.9630 O   0  0  0  0  0  0  0  0  0  0  0  0
   32.3200   28.8130   46.6830 C   0  0  0  0  0  0  0  0  0  0  0  0
   37.3265   28.4553   49.3262 H   0  0  0  0  0  0  0  0  0  0  0  0
   36.7619   29.4202   50.7152 H   0  0  0  0  0  0  0  0  0  0  0  0
   38.5331   33.5529   50.0411 H   0  0  0  0  0  0  0  0  0  0  0  0
   39.4594   33.5793   47.7023 H   0  0  0  0  0  0  0  0  0  0  0  0
   39.0798   31.5122   46.2696 H   0  0  0  0  0  0  0  0  0  0  0  0
   35.6703   30.0059   48.1291 H   0  0  0  0  0  0  0  0  0  0  0  0
   34.4579   29.5869   51.0219 H   0  0  0  0  0  0  0  0  0  0  0  0
   33.3446   30.0078   50.0052 H   0  0  0  0  0  0  0  0  0  0  0  0
   34.8832   27.1301   49.7154 H   0  0  0  0  0  0  0  0  0  0  0  0
   32.0924   29.8843   46.7855 H   0  0  0  0  0  0  0  0  0  0  0  0
   33.2644   28.6898   46.1325 H   0  0  0  0  0  0  0  0  0  0  0  0
   31.5073   28.3165   46.1325 H   0  0  0  0  0  0  0  0  0  0  0  0
  2  7  2  0
  3  2  1  0
  4  5  1  0
  4  3  2  0
  5  6  2  0
  6  1  1  0
  6  7  1  0
  8 10  1  0
  8  1  1  0
  8  9  1  0
 10  9  1  0
 11 10  1  0
 12 11  2  0
 13 11  1  0
 14 13  1  0
  1 15  1  0
  1 16  1  0
  2 17  1  0
  3 18  1  0
  4 19  1  0
  8 20  1  6
  9 21  1  0
  9 22  1  0
 10 23  1  1
 14 24  1  0
 14 25  1  0
 14 26  1  0
M  ISO  8  15   8  16   8  17  14  18  14  19  14  20  13  21  13  22  13
M  ISO  4  23  13  24   8  25   8  26   8
M  END
>  <minimizedAffinity>  (1) 
-4.46214151

>  <minimizedRMSD>  (1) 
0.451513469

$$$$
