
     RDKit          3D

 45 48  0  0  1  0  0  0  0  0999 V2000
   35.2710   29.1800   48.6130 C   0  0  2  0  0  0  0  0  0  0  0  0
   34.0380   29.2930   49.3830 C   0  0  0  0  0  0  0  0  0  0  0  0
   34.4180   27.9500   49.0610 C   0  0  1  0  0  0  0  0  0  0  0  0
   36.5810   29.2430   49.4160 C   0  0  0  0  0  0  0  0  0  0  0  0
   37.6480   32.7340   49.5650 C   0  0  0  0  0  0  0  0  0  0  0  0
   38.5030   32.8440   48.4600 C   0  0  0  0  0  0  0  0  0  0  0  0
   38.7030   31.6920   47.6670 C   0  0  0  0  0  0  0  0  0  0  0  0
   38.0520   30.5340   48.0190 N   0  0  0  0  0  0  0  0  0  0  0  0
   37.2450   30.4930   49.0890 C   0  0  0  0  0  0  0  0  0  0  0  0
   37.0480   31.5960   49.8550 N   0  0  0  0  0  0  0  0  0  0  0  0
   33.5990   27.2820   47.9730 C   0  0  0  0  0  0  0  0  0  0  0  0
   33.8750   26.0280   47.8240 O   0  0  0  0  0  0  0  0  0  0  0  0
   32.6320   27.8870   47.1800 O   0  0  0  0  0  0  0  0  0  0  0  0
   31.3540   28.1330   47.5810 C   0  0  0  0  0  0  0  0  0  0  0  0
   30.7770   27.6510   48.8510 C   0  0  0  0  0  0  0  0  0  0  0  0
   29.4930   27.9520   49.1640 C   0  0  0  0  0  0  0  0  0  0  0  0
   28.7140   28.7300   48.2640 C   0  0  0  0  0  0  0  0  0  0  0  0
   29.8870   29.0680   46.8570 S   0  0  0  0  0  0  0  0  0  0  0  0
   27.4910   29.1990   48.2040 N   0  0  0  0  0  0  0  0  0  0  0  0
   26.3280   28.5200   47.6620 C   0  0  0  0  0  0  0  0  0  0  0  0
   25.4390   28.2320   48.8610 C   0  0  0  0  0  0  0  0  0  0  0  0
   25.0070   29.5520   49.4410 C   0  0  0  0  0  0  0  0  0  0  0  0
   25.6490   30.7310   48.7720 C   0  0  0  0  0  0  0  0  0  0  0  0
   27.1460   30.5320   48.7160 C   0  0  0  0  0  0  0  0  0  0  0  0
   35.6445   29.6428   47.6877 H   0  0  0  0  0  0  0  0  0  0  0  0
   34.0905   29.6267   50.4298 H   0  0  0  0  0  0  0  0  0  0  0  0
   33.1106   29.8627   49.2239 H   0  0  0  0  0  0  0  0  0  0  0  0
   34.6051   27.0232   49.6232 H   0  0  0  0  0  0  0  0  0  0  0  0
   36.3612   29.2071   50.4932 H   0  0  0  0  0  0  0  0  0  0  0  0
   37.2265   28.3887   49.1641 H   0  0  0  0  0  0  0  0  0  0  0  0
   37.4741   33.6135   50.2024 H   0  0  0  0  0  0  0  0  0  0  0  0
   39.0012   33.7945   48.2185 H   0  0  0  0  0  0  0  0  0  0  0  0
   39.3643   31.7212   46.7884 H   0  0  0  0  0  0  0  0  0  0  0  0
   31.3869   27.0496   49.5412 H   0  0  0  0  0  0  0  0  0  0  0  0
   29.0561   27.5965   50.1088 H   0  0  0  0  0  0  0  0  0  0  0  0
   25.8056   29.1659   46.9409 H   0  0  0  0  0  0  0  0  0  0  0  0
   26.6026   27.6007   47.1239 H   0  0  0  0  0  0  0  0  0  0  0  0
   24.5572   27.6563   48.5433 H   0  0  0  0  0  0  0  0  0  0  0  0
   25.9857   27.6428   49.6120 H   0  0  0  0  0  0  0  0  0  0  0  0
   23.9159   29.6406   49.3334 H   0  0  0  0  0  0  0  0  0  0  0  0
   25.3211   29.5638   50.4951 H   0  0  0  0  0  0  0  0  0  0  0  0
   25.2549   30.8308   47.7499 H   0  0  0  0  0  0  0  0  0  0  0  0
   25.4238   31.6424   49.3453 H   0  0  0  0  0  0  0  0  0  0  0  0
   27.5601   30.6445   49.7289 H   0  0  0  0  0  0  0  0  0  0  0  0
   27.5699   31.2847   48.0350 H   0  0  0  0  0  0  0  0  0  0  0  0
  1  3  1  0
  1  2  1  0
  1  4  1  0
  3  2  1  0
  5 10  2  0
  6  5  1  0
  7  8  1  0
  7  6  2  0
  8  9  2  0
  9  4  1  0
  9 10  1  0
 11  3  1  0
 12 11  2  0
 13 14  1  0
 13 11  1  0
 14 15  2  0
 15 16  1  0
 17 16  2  0
 18 14  1  0
 18 17  1  0
 19 17  1  0
 19 24  1  0
 20 19  1  0
 20 21  1  0
 21 22  1  0
 23 22  1  0
 24 23  1  0
  1 25  1  6
  2 26  1  0
  2 27  1  0
  3 28  1  1
  4 29  1  0
  4 30  1  0
  5 31  1  0
  6 32  1  0
  7 33  1  0
 15 34  1  0
 16 35  1  0
 20 36  1  0
 20 37  1  0
 21 38  1  0
 21 39  1  0
 22 40  1  0
 22 41  1  0
 23 42  1  0
 23 43  1  0
 24 44  1  0
 24 45  1  0
M  ISO  8  25  13  26  13  27  13  28  13  29   8  30   8  31  14  32  14
M  ISO  8  33  14  34  14  35  14  36  13  37  13  38  13  39  13  40  13
M  ISO  5  41  13  42  13  43  13  44  13  45  13
M  END
>  <minimizedAffinity>  (1) 
-6.36666775

>  <minimizedRMSD>  (1) 
1.78746688

$$$$
