
     RDKit          3D

 43 46  0  0  1  0  0  0  0  0999 V2000
   35.3680   29.4330   48.8990 C   0  0  2  0  0  0  0  0  0  0  0  0
   34.2250   29.3670   49.8030 C   0  0  0  0  0  0  0  0  0  0  0  0
   34.6080   28.1060   49.2330 C   0  0  1  0  0  0  0  0  0  0  0  0
   36.7550   29.4350   49.5640 C   0  0  0  0  0  0  0  0  0  0  0  0
   38.1560   32.8070   49.4370 C   0  0  0  0  0  0  0  0  0  0  0  0
   38.8270   32.8150   48.1950 C   0  0  0  0  0  0  0  0  0  0  0  0
   38.7800   31.6360   47.4150 C   0  0  0  0  0  0  0  0  0  0  0  0
   38.0910   30.5590   47.9080 N   0  0  0  0  0  0  0  0  0  0  0  0
   37.4730   30.6080   49.0940 C   0  0  0  0  0  0  0  0  0  0  0  0
   37.5130   31.7390   49.8500 N   0  0  0  0  0  0  0  0  0  0  0  0
   33.6890   27.5890   48.1430 C   0  0  0  0  0  0  0  0  0  0  0  0
   34.0270   26.4220   47.7000 O   0  0  0  0  0  0  0  0  0  0  0  0
   32.5720   28.2290   47.6190 O   0  0  0  0  0  0  0  0  0  0  0  0
   31.2900   27.9810   48.0270 C   0  0  0  0  0  0  0  0  0  0  0  0
   30.9030   27.4900   49.3740 C   0  0  0  0  0  0  0  0  0  0  0  0
   29.5900   27.2960   49.6220 C   0  0  0  0  0  0  0  0  0  0  0  0
   28.6090   27.5470   48.6460 C   0  0  0  0  0  0  0  0  0  0  0  0
   29.5990   28.1270   47.1780 S   0  0  0  0  0  0  0  0  0  0  0  0
   27.2360   27.4450   48.6010 C   0  0  0  0  0  0  0  0  0  0  0  0
   26.5750   28.0580   49.8070 C   0  0  0  0  0  0  0  0  0  0  0  0
   26.3560   29.4790   49.4370 C   0  0  0  0  0  0  0  0  0  0  0  0
   26.1150   29.4740   47.9540 C   0  0  0  0  0  0  0  0  0  0  0  0
   26.5400   28.1200   47.4440 C   0  0  0  0  0  0  0  0  0  0  0  0
   35.6220   30.0495   48.0241 H   0  0  0  0  0  0  0  0  0  0  0  0
   34.3836   29.5375   50.8781 H   0  0  0  0  0  0  0  0  0  0  0  0
   33.2687   29.9097   49.8345 H   0  0  0  0  0  0  0  0  0  0  0  0
   34.8855   27.1131   49.6166 H   0  0  0  0  0  0  0  0  0  0  0  0
   36.6452   29.4771   50.6577 H   0  0  0  0  0  0  0  0  0  0  0  0
   37.3059   28.5188   49.3050 H   0  0  0  0  0  0  0  0  0  0  0  0
   38.1720   33.7081   50.0677 H   0  0  0  0  0  0  0  0  0  0  0  0
   39.3676   33.7071   47.8460 H   0  0  0  0  0  0  0  0  0  0  0  0
   39.2833   31.5850   46.4383 H   0  0  0  0  0  0  0  0  0  0  0  0
   31.6618   27.2907   50.1451 H   0  0  0  0  0  0  0  0  0  0  0  0
   29.2797   26.9324   50.6127 H   0  0  0  0  0  0  0  0  0  0  0  0
   27.1224   26.3537   48.5220 H   0  0  0  0  0  0  0  0  0  0  0  0
   25.6171   27.5605   50.0188 H   0  0  0  0  0  0  0  0  0  0  0  0
   27.1880   27.9546   50.7145 H   0  0  0  0  0  0  0  0  0  0  0  0
   25.4816   29.8842   49.9674 H   0  0  0  0  0  0  0  0  0  0  0  0
   27.2156   30.1091   49.7091 H   0  0  0  0  0  0  0  0  0  0  0  0
   25.0480   29.6392   47.7439 H   0  0  0  0  0  0  0  0  0  0  0  0
   26.6837   30.2760   47.4607 H   0  0  0  0  0  0  0  0  0  0  0  0
   25.6621   27.5356   47.1313 H   0  0  0  0  0  0  0  0  0  0  0  0
   27.2004   28.2060   46.5685 H   0  0  0  0  0  0  0  0  0  0  0  0
  1  3  1  0
  1  4  1  0
  1  2  1  0
  3  2  1  0
  5 10  2  0
  6  5  1  0
  7  8  1  0
  7  6  2  0
  8  9  2  0
  9  4  1  0
  9 10  1  0
 11  3  1  0
 12 11  2  0
 13 14  1  0
 13 11  1  0
 14 15  2  0
 15 16  1  0
 17 16  2  0
 18 14  1  0
 18 17  1  0
 19 17  1  0
 19 20  1  0
 21 20  1  0
 22 21  1  0
 23 22  1  0
 23 19  1  0
  1 24  1  6
  2 25  1  0
  2 26  1  0
  3 27  1  1
  4 28  1  0
  4 29  1  0
  5 30  1  0
  6 31  1  0
  7 32  1  0
 15 33  1  0
 16 34  1  0
 19 35  1  0
 20 36  1  0
 20 37  1  0
 21 38  1  0
 21 39  1  0
 22 40  1  0
 22 41  1  0
 23 42  1  0
 23 43  1  0
M  ISO  8  24  13  25  13  26  13  27  13  28   8  29   8  30  14  31  14
M  ISO  8  32  14  33  14  34  14  35  13  36  13  37  13  38  13  39  13
M  ISO  4  40  13  41  13  42  13  43  13
M  END
>  <minimizedAffinity>  (1) 
-6.23364735

>  <minimizedRMSD>  (1) 
0.733599484

$$$$
