
     RDKit          3D

 37 40  0  0  1  0  0  0  0  0999 V2000
   35.2620   29.4560   48.9920 C   0  0  2  0  0  0  0  0  0  0  0  0
   34.1450   29.3210   49.9210 C   0  0  0  0  0  0  0  0  0  0  0  0
   34.5360   28.1010   49.2760 C   0  0  1  0  0  0  0  0  0  0  0  0
   36.6650   29.4460   49.6220 C   0  0  0  0  0  0  0  0  0  0  0  0
   37.9210   32.8740   49.4460 C   0  0  0  0  0  0  0  0  0  0  0  0
   38.6980   32.8530   48.2670 C   0  0  0  0  0  0  0  0  0  0  0  0
   38.7740   31.6370   47.5480 C   0  0  0  0  0  0  0  0  0  0  0  0
   38.0900   30.5560   48.0360 N   0  0  0  0  0  0  0  0  0  0  0  0
   37.3700   30.6330   49.1580 C   0  0  0  0  0  0  0  0  0  0  0  0
   37.2930   31.7990   49.8570 N   0  0  0  0  0  0  0  0  0  0  0  0
   33.6060   27.6090   48.1890 C   0  0  0  0  0  0  0  0  0  0  0  0
   33.9150   26.4280   47.7560 O   0  0  0  0  0  0  0  0  0  0  0  0
   32.5100   28.2960   47.6670 O   0  0  0  0  0  0  0  0  0  0  0  0
   31.2160   27.9840   47.9540 C   0  0  0  0  0  0  0  0  0  0  0  0
   30.7500   27.5240   49.2760 C   0  0  0  0  0  0  0  0  0  0  0  0
   29.4410   27.2380   49.4750 C   0  0  0  0  0  0  0  0  0  0  0  0
   28.5220   27.3810   48.4000 C   0  0  0  0  0  0  0  0  0  0  0  0
   29.5930   27.9710   46.9940 S   0  0  0  0  0  0  0  0  0  0  0  0
   27.1780   27.2090   48.1740 C   0  0  0  0  0  0  0  0  0  0  0  0
   26.3990   28.1830   47.3540 C   0  0  0  0  0  0  0  0  0  0  0  0
   26.2040   28.2400   48.8220 C   0  0  0  0  0  0  0  0  0  0  0  0
   35.4812   30.1224   48.1447 H   0  0  0  0  0  0  0  0  0  0  0  0
   34.3293   29.4384   50.9991 H   0  0  0  0  0  0  0  0  0  0  0  0
   33.1801   29.8422   50.0061 H   0  0  0  0  0  0  0  0  0  0  0  0
   34.8415   27.0956   49.6014 H   0  0  0  0  0  0  0  0  0  0  0  0
   36.5828   29.4644   50.7188 H   0  0  0  0  0  0  0  0  0  0  0  0
   37.2106   28.5365   49.3303 H   0  0  0  0  0  0  0  0  0  0  0  0
   37.8416   33.8045   50.0272 H   0  0  0  0  0  0  0  0  0  0  0  0
   39.2268   33.7526   47.9191 H   0  0  0  0  0  0  0  0  0  0  0  0
   39.3655   31.5622   46.6236 H   0  0  0  0  0  0  0  0  0  0  0  0
   31.4675   27.4130   50.1024 H   0  0  0  0  0  0  0  0  0  0  0  0
   29.0918   26.8977   50.4610 H   0  0  0  0  0  0  0  0  0  0  0  0
   27.3056   26.1167   48.1507 H   0  0  0  0  0  0  0  0  0  0  0  0
   26.9249   29.0048   46.8460 H   0  0  0  0  0  0  0  0  0  0  0  0
   25.7121   28.0778   46.5013 H   0  0  0  0  0  0  0  0  0  0  0  0
   25.2570   27.9021   49.2681 H   0  0  0  0  0  0  0  0  0  0  0  0
   26.2849   29.0181   49.5953 H   0  0  0  0  0  0  0  0  0  0  0  0
  1  3  1  0
  1  4  1  0
  1  2  1  0
  3  2  1  0
  5 10  2  0
  6  5  1  0
  7  8  1  0
  7  6  2  0
  8  9  2  0
  9  4  1  0
  9 10  1  0
 11  3  1  0
 12 11  2  0
 13 14  1  0
 13 11  1  0
 14 15  2  0
 15 16  1  0
 17 16  2  0
 18 14  1  0
 18 17  1  0
 19 17  1  0
 19 21  1  0
 20 19  1  0
 20 21  1  0
  1 22  1  6
  2 23  1  0
  2 24  1  0
  3 25  1  1
  4 26  1  0
  4 27  1  0
  5 28  1  0
  6 29  1  0
  7 30  1  0
 15 31  1  0
 16 32  1  0
 19 33  1  0
 20 34  1  0
 20 35  1  0
 21 36  1  0
 21 37  1  0
M  ISO  8  22  13  23  13  24  13  25  13  26   8  27   8  28  14  29  14
M  ISO  8  30  14  31  14  32  14  33  13  34  13  35  13  36  13  37  13
M  END
>  <minimizedAffinity>  (1) 
-5.88504791

>  <minimizedRMSD>  (1) 
0.550715625

$$$$
