
     RDKit          3D

 32 34  0  0  1  0  0  0  0  0999 V2000
   35.2500   29.4240   48.9820 C   0  0  2  0  0  0  0  0  0  0  0  0
   34.1310   29.3220   49.9120 C   0  0  0  0  0  0  0  0  0  0  0  0
   34.5110   28.0810   49.3030 C   0  0  1  0  0  0  0  0  0  0  0  0
   36.6570   29.4140   49.5980 C   0  0  0  0  0  0  0  0  0  0  0  0
   37.8930   32.8480   49.4520 C   0  0  0  0  0  0  0  0  0  0  0  0
   38.6720   32.8460   48.2770 C   0  0  0  0  0  0  0  0  0  0  0  0
   38.7540   31.6360   47.5480 C   0  0  0  0  0  0  0  0  0  0  0  0
   38.0760   30.5450   48.0250 N   0  0  0  0  0  0  0  0  0  0  0  0
   37.3480   30.6130   49.1560 C   0  0  0  0  0  0  0  0  0  0  0  0
   37.2710   31.7660   49.8520 N   0  0  0  0  0  0  0  0  0  0  0  0
   33.5760   27.5730   48.2220 C   0  0  0  0  0  0  0  0  0  0  0  0
   33.9340   26.4300   47.7360 O   0  0  0  0  0  0  0  0  0  0  0  0
   32.4290   28.2050   47.7530 O   0  0  0  0  0  0  0  0  0  0  0  0
   31.1610   27.8430   48.1160 C   0  0  0  0  0  0  0  0  0  0  0  0
   30.6840   27.6850   49.5100 C   0  0  0  0  0  0  0  0  0  0  0  0
   29.3980   27.3220   49.7030 C   0  0  0  0  0  0  0  0  0  0  0  0
   28.5220   27.0970   48.6220 C   0  0  0  0  0  0  0  0  0  0  0  0
   29.5940   27.4210   47.1390 S   0  0  0  0  0  0  0  0  0  0  0  0
   27.1830   26.7250   48.5000 C   0  0  0  0  0  0  0  0  0  0  0  0
   26.3660   27.6770   48.4030 O   0  0  0  0  0  0  0  0  0  0  0  0
   35.4737   30.0708   48.1208 H   0  0  0  0  0  0  0  0  0  0  0  0
   34.3149   29.4678   50.9867 H   0  0  0  0  0  0  0  0  0  0  0  0
   33.1702   29.8532   49.9804 H   0  0  0  0  0  0  0  0  0  0  0  0
   34.8057   27.0823   49.6576 H   0  0  0  0  0  0  0  0  0  0  0  0
   36.5841   29.4081   50.6956 H   0  0  0  0  0  0  0  0  0  0  0  0
   37.2074   28.5162   49.2802 H   0  0  0  0  0  0  0  0  0  0  0  0
   37.8059   33.7721   50.0423 H   0  0  0  0  0  0  0  0  0  0  0  0
   39.1968   33.7518   47.9393 H   0  0  0  0  0  0  0  0  0  0  0  0
   39.3462   31.5729   46.6231 H   0  0  0  0  0  0  0  0  0  0  0  0
   31.3576   27.8583   50.3622 H   0  0  0  0  0  0  0  0  0  0  0  0
   29.0243   27.1987   50.7302 H   0  0  0  0  0  0  0  0  0  0  0  0
   26.8636   25.6724   48.4893 H   0  0  0  0  0  0  0  0  0  0  0  0
  1  3  1  0
  1  4  1  0
  1  2  1  0
  3  2  1  0
  5 10  2  0
  6  5  1  0
  7  8  1  0
  7  6  2  0
  8  9  2  0
  9  4  1  0
  9 10  1  0
 11  3  1  0
 12 11  2  0
 13 14  1  0
 13 11  1  0
 14 15  2  0
 15 16  1  0
 17 16  2  0
 18 14  1  0
 18 17  1  0
 19 17  1  0
 20 19  2  0
  1 21  1  6
  2 22  1  0
  2 23  1  0
  3 24  1  1
  4 25  1  0
  4 26  1  0
  5 27  1  0
  6 28  1  0
  7 29  1  0
 15 30  1  0
 16 31  1  0
 19 32  1  0
M  ISO  8  21  13  22  13  23  13  24  13  25   8  26   8  27  14  28  14
M  ISO  4  29  14  30  14  31  14  32   6
M  END
>  <minimizedAffinity>  (1) 
-5.55422163

>  <minimizedRMSD>  (1) 
0.199880183

$$$$
