
     RDKit          3D

 31 33  0  0  1  0  0  0  0  0999 V2000
   35.2760   29.4110   48.9780 C   0  0  2  0  0  0  0  0  0  0  0  0
   34.1670   29.3440   49.9230 C   0  0  0  0  0  0  0  0  0  0  0  0
   34.5140   28.0900   49.3230 C   0  0  1  0  0  0  0  0  0  0  0  0
   36.6880   29.3830   49.5880 C   0  0  0  0  0  0  0  0  0  0  0  0
   38.0630   32.7710   49.4270 C   0  0  0  0  0  0  0  0  0  0  0  0
   38.7370   32.7660   48.2050 C   0  0  0  0  0  0  0  0  0  0  0  0
   38.7170   31.5800   47.4360 C   0  0  0  0  0  0  0  0  0  0  0  0
   38.0310   30.5040   47.9390 N   0  0  0  0  0  0  0  0  0  0  0  0
   37.4000   30.5610   49.1160 C   0  0  0  0  0  0  0  0  0  0  0  0
   37.4200   31.7000   49.8560 N   0  0  0  0  0  0  0  0  0  0  0  0
   33.5570   27.5830   48.2630 C   0  0  0  0  0  0  0  0  0  0  0  0
   33.9150   26.4440   47.7640 O   0  0  0  0  0  0  0  0  0  0  0  0
   32.3960   28.2210   47.8290 O   0  0  0  0  0  0  0  0  0  0  0  0
   31.1400   27.8170   48.1630 C   0  0  0  0  0  0  0  0  0  0  0  0
   30.6290   27.7540   49.5460 C   0  0  0  0  0  0  0  0  0  0  0  0
   29.3600   27.3420   49.7800 C   0  0  0  0  0  0  0  0  0  0  0  0
   28.5250   26.9700   48.6880 C   0  0  0  0  0  0  0  0  0  0  0  0
   29.6280   27.2260   47.2060 S   0  0  0  0  0  0  0  0  0  0  0  0
   27.3330   26.5540   48.5650 O   0  0  0  0  0  0  0  0  0  0  0  0
   35.5039   30.0390   48.1041 H   0  0  0  0  0  0  0  0  0  0  0  0
   34.3674   29.4976   50.9936 H   0  0  0  0  0  0  0  0  0  0  0  0
   33.2185   29.8961   49.9977 H   0  0  0  0  0  0  0  0  0  0  0  0
   34.7930   27.0895   49.6851 H   0  0  0  0  0  0  0  0  0  0  0  0
   36.6217   29.4007   50.6859 H   0  0  0  0  0  0  0  0  0  0  0  0
   37.2183   28.4674   49.2873 H   0  0  0  0  0  0  0  0  0  0  0  0
   38.0673   33.6822   50.0432 H   0  0  0  0  0  0  0  0  0  0  0  0
   39.2694   33.6607   47.8498 H   0  0  0  0  0  0  0  0  0  0  0  0
   39.2342   31.5220   46.4669 H   0  0  0  0  0  0  0  0  0  0  0  0
   31.2781   28.0414   50.3862 H   0  0  0  0  0  0  0  0  0  0  0  0
   28.9759   27.2949   50.8097 H   0  0  0  0  0  0  0  0  0  0  0  0
   26.9676   26.3575   47.6661 H   0  0  0  0  0  0  0  0  0  0  0  0
  1  3  1  0
  1  4  1  0
  1  2  1  0
  3  2  1  0
  5 10  2  0
  6  5  1  0
  7  8  1  0
  7  6  2  0
  8  9  2  0
  9  4  1  0
  9 10  1  0
 11  3  1  0
 12 11  2  0
 13 14  1  0
 13 11  1  0
 14 15  2  0
 15 16  1  0
 17 16  2  0
 18 14  1  0
 18 17  1  0
 19 17  1  0
  1 20  1  6
  2 21  1  0
  2 22  1  0
  3 23  1  1
  4 24  1  0
  4 25  1  0
  5 26  1  0
  6 27  1  0
  7 28  1  0
 15 29  1  0
 16 30  1  0
 19 31  1  0
M  ISO  8  20  13  21  13  22  13  23  13  24   8  25   8  26  14  27  14
M  ISO  4  28  14  29  14  30  14  31   3
M  END
>  <minimizedAffinity>  (1) 
-5.45559311

>  <minimizedRMSD>  (1) 
0.0436333828

$$$$
