
     RDKit          3D

 24 26  0  0  0  0  0  0  0  0999 V2000
   38.2150   31.8430   48.4240 N   0  0  0  0  0  0  0  0  0  0  0  0
   38.7420   33.0600   48.7080 C   0  0  0  0  0  0  0  0  0  0  0  0
   39.4650   33.4730   47.6500 N   0  0  0  0  0  0  0  0  0  0  0  0
   39.3900   32.5240   46.7190 C   0  0  0  0  0  0  0  0  0  0  0  0
   39.9120   32.3730   45.4430 C   0  0  0  0  0  0  0  0  0  0  0  0
   39.6580   31.2680   44.7100 N   0  0  0  0  0  0  0  0  0  0  0  0
   38.8930   30.2610   45.1740 C   0  0  0  0  0  0  0  0  0  0  0  0
   38.3900   30.4160   46.4150 N   0  0  0  0  0  0  0  0  0  0  0  0
   38.6030   31.4810   47.1880 C   0  0  0  0  0  0  0  0  0  0  0  0
   40.7200   33.3930   44.9040 N   0  0  0  0  0  0  0  0  0  0  0  0
   36.0550   30.8580   48.9210 C   0  0  0  0  0  0  0  0  0  0  0  0
   37.3960   31.1050   49.3110 C   0  0  0  0  0  0  0  0  0  0  0  0
   37.8010   30.5940   50.5490 C   0  0  0  0  0  0  0  0  0  0  0  0
   36.8990   29.8980   51.2990 N   0  0  0  0  0  0  0  0  0  0  0  0
   35.6420   29.6840   50.9010 C   0  0  0  0  0  0  0  0  0  0  0  0
   35.2220   30.1620   49.7160 N   0  0  0  0  0  0  0  0  0  0  0  0
   34.9320   28.9560   51.8380 O   0  0  0  0  0  0  0  0  0  0  0  0
   38.6020   33.6168   49.6463 H   0  0  0  0  0  0  0  0  0  0  0  0
   38.6900   29.3620   44.5735 H   0  0  0  0  0  0  0  0  0  0  0  0
   41.1134   33.2923   43.9574 H   0  0  0  0  0  0  0  0  0  0  0  0
   40.9175   34.2396   45.4564 H   0  0  0  0  0  0  0  0  0  0  0  0
   35.6912   31.2404   47.9559 H   0  0  0  0  0  0  0  0  0  0  0  0
   38.8279   30.7507   50.9108 H   0  0  0  0  0  0  0  0  0  0  0  0
   33.9839   28.7251   51.6707 H   0  0  0  0  0  0  0  0  0  0  0  0
  1  2  1  0
  1 12  1  0
  3  2  2  0
  4  9  2  0
  4  3  1  0
  5  4  1  0
  6  7  1  0
  6  5  2  0
  7  8  2  0
  8  9  1  0
  9  1  1  0
 10  5  1  0
 11 12  2  0
 11 16  1  0
 12 13  1  0
 13 14  2  0
 15 14  1  0
 15 17  1  0
 16 15  2  0
  2 18  1  0
  7 19  1  0
 10 20  1  0
 10 21  1  0
 11 22  1  0
 13 23  1  0
 17 24  1  0
M  ISO  5  18  14  19  14  22  14  23  14  24   3
M  END
>  <minimizedAffinity>  (1) 
-4.93180799

>  <minimizedRMSD>  (1) 
0.774595976

$$$$
