
     RDKit          3D

 13 13  0  0  0  0  0  0  0  0999 V2000
   37.6080   30.2090   51.2760 C   0  0  0  0  0  0  0  0  0  0  0  0
   38.1220   31.1140   50.3390 C   0  0  0  0  0  0  0  0  0  0  0  0
   37.3480   31.4080   49.2170 C   0  0  0  0  0  0  0  0  0  0  0  0
   36.1400   30.8040   49.0890 N   0  0  0  0  0  0  0  0  0  0  0  0
   35.6610   29.9320   50.0070 C   0  0  0  0  0  0  0  0  0  0  0  0
   36.4090   29.6450   51.0950 N   0  0  0  0  0  0  0  0  0  0  0  0
   34.3200   29.3010   49.8040 C   0  0  0  0  0  0  0  0  0  0  0  0
   33.8590   29.6100   48.5390 F   0  0  0  0  0  0  0  0  0  0  0  0
   33.4130   29.6600   50.7800 F   0  0  0  0  0  0  0  0  0  0  0  0
   34.5290   27.9320   49.8280 F   0  0  0  0  0  0  0  0  0  0  0  0
   38.1970   29.9593   52.1708 H   0  0  0  0  0  0  0  0  0  0  0  0
   39.1080   31.5796   50.4840 H   0  0  0  0  0  0  0  0  0  0  0  0
   37.7085   32.1131   48.4536 H   0  0  0  0  0  0  0  0  0  0  0  0
  2  1  2  0
  3  2  1  0
  4  3  2  0
  4  5  1  0
  5  6  2  0
  6  1  1  0
  7 10  1  0
  7  5  1  0
  7  9  1  0
  8  7  1  0
  1 11  1  0
  2 12  1  0
  3 13  1  0
M  ISO  3  11  14  12  14  13  14
M  END
>  <minimizedAffinity>  (1) 
-4.00406837

>  <minimizedRMSD>  (1) 
1.08598781

$$$$
