
     RDKit          3D

 23 24  0  0  0  0  0  0  0  0999 V2000
   37.2070   29.7510   50.6650 C   0  0  0  0  0  0  0  0  0  0  0  0
   37.7980   30.2920   49.4970 C   0  0  0  0  0  0  0  0  0  0  0  0
   36.9400   30.6480   48.4710 C   0  0  0  0  0  0  0  0  0  0  0  0
   35.5820   30.4760   48.6010 N   0  0  0  0  0  0  0  0  0  0  0  0
   35.0790   29.9490   49.7540 C   0  0  0  0  0  0  0  0  0  0  0  0
   35.8700   29.5920   50.7670 N   0  0  0  0  0  0  0  0  0  0  0  0
   37.5220   31.1930   47.2980 N   0  0  0  0  0  0  0  0  0  0  0  0
   36.8560   30.7880   46.1730 C   0  0  0  0  0  0  0  0  0  0  0  0
   37.2360   31.1860   44.9100 C   0  0  0  0  0  0  0  0  0  0  0  0
   38.3420   32.0320   44.8090 C   0  0  0  0  0  0  0  0  0  0  0  0
   38.7230   32.4190   43.6810 O   0  0  0  0  0  0  0  0  0  0  0  0
   38.9630   32.4030   45.9420 N   0  0  0  0  0  0  0  0  0  0  0  0
   38.5700   31.9970   47.1630 C   0  0  0  0  0  0  0  0  0  0  0  0
   39.1020   32.3070   48.2330 O   0  0  0  0  0  0  0  0  0  0  0  0
   40.1190   33.2830   45.8640 C   0  0  0  0  0  0  0  0  0  0  0  0
   39.9680   34.2030   44.8470 F   0  0  0  0  0  0  0  0  0  0  0  0
   40.2930   33.9890   47.0500 F   0  0  0  0  0  0  0  0  0  0  0  0
   41.2370   32.5300   45.6160 F   0  0  0  0  0  0  0  0  0  0  0  0
   37.8505   29.4543   51.5064 H   0  0  0  0  0  0  0  0  0  0  0  0
   38.8867   30.4229   49.4095 H   0  0  0  0  0  0  0  0  0  0  0  0
   33.9916   29.8147   49.8512 H   0  0  0  0  0  0  0  0  0  0  0  0
   35.9874   30.1218   46.2810 H   0  0  0  0  0  0  0  0  0  0  0  0
   36.6895   30.8504   44.0163 H   0  0  0  0  0  0  0  0  0  0  0  0
  1  6  2  0
  2  1  1  0
  3  4  1  0
  3  2  2  0
  4  5  2  0
  5  6  1  0
  7  3  1  0
  8  7  1  0
  9  8  2  0
 10  9  1  0
 10 12  1  0
 11 10  2  0
 12 13  1  0
 13  7  1  0
 13 14  2  0
 15 12  1  0
 15 17  1  0
 16 15  1  0
 18 15  1  0
  1 19  1  0
  2 20  1  0
  5 21  1  0
  8 22  1  0
  9 23  1  0
M  ISO  5  19  14  20  14  21  14  22  14  23  14
M  END
>  <minimizedAffinity>  (1) 
-6.29425812

>  <minimizedRMSD>  (1) 
1.8141551

$$$$
