
     RDKit          3D

 25 27  0  0  0  0  0  0  0  0999 V2000
   36.5910   29.3450   50.9140 C   0  0  0  0  0  0  0  0  0  0  0  0
   36.9530   29.7210   49.6090 C   0  0  0  0  0  0  0  0  0  0  0  0
   35.9420   30.0240   48.7140 C   0  0  0  0  0  0  0  0  0  0  0  0
   34.6400   29.9500   49.1190 N   0  0  0  0  0  0  0  0  0  0  0  0
   34.3220   29.5830   50.3860 C   0  0  0  0  0  0  0  0  0  0  0  0
   35.2770   29.2830   51.2770 N   0  0  0  0  0  0  0  0  0  0  0  0
   36.3260   30.4010   47.4040 N   0  0  0  0  0  0  0  0  0  0  0  0
   35.4360   29.9270   46.4870 C   0  0  0  0  0  0  0  0  0  0  0  0
   35.5900   30.1620   45.1270 C   0  0  0  0  0  0  0  0  0  0  0  0
   36.7070   30.9130   44.7330 C   0  0  0  0  0  0  0  0  0  0  0  0
   36.8810   31.1460   43.5130 O   0  0  0  0  0  0  0  0  0  0  0  0
   37.5510   31.3540   45.6860 N   0  0  0  0  0  0  0  0  0  0  0  0
   37.3710   31.1080   46.9890 C   0  0  0  0  0  0  0  0  0  0  0  0
   38.1120   31.4870   47.9020 O   0  0  0  0  0  0  0  0  0  0  0  0
   38.6970   32.1190   45.3230 C   0  0  0  0  0  0  0  0  0  0  0  0
   39.8800   32.0230   45.9620 N   0  0  0  0  0  0  0  0  0  0  0  0
   40.7390   32.8140   45.4410 O   0  0  0  0  0  0  0  0  0  0  0  0
   40.1890   33.4810   44.4320 C   0  0  0  0  0  0  0  0  0  0  0  0
   38.8990   33.0370   44.3640 N   0  0  0  0  0  0  0  0  0  0  0  0
   37.3725   29.0989   51.6480 H   0  0  0  0  0  0  0  0  0  0  0  0
   38.0097   29.7729   49.3077 H   0  0  0  0  0  0  0  0  0  0  0  0
   33.2650   29.5310   50.6861 H   0  0  0  0  0  0  0  0  0  0  0  0
   34.5715   29.3419   46.8339 H   0  0  0  0  0  0  0  0  0  0  0  0
   34.8683   29.7764   44.3918 H   0  0  0  0  0  0  0  0  0  0  0  0
   40.6704   34.2316   43.7880 H   0  0  0  0  0  0  0  0  0  0  0  0
  1  6  2  0
  2  1  1  0
  3  4  1  0
  3  2  2  0
  4  5  2  0
  5  6  1  0
  7  3  1  0
  8  7  1  0
  9  8  2  0
 10  9  1  0
 10 12  1  0
 11 10  2  0
 12 13  1  0
 13  7  1  0
 13 14  2  0
 15 12  1  0
 15 16  2  0
 17 16  1  0
 18 17  1  0
 19 18  2  0
 19 15  1  0
  1 20  1  0
  2 21  1  0
  5 22  1  0
  8 23  1  0
  9 24  1  0
 18 25  1  0
M  ISO  6  20  14  21  14  22  14  23  14  24  14  25  14
M  END
>  <minimizedAffinity>  (1) 
-5.82846642

>  <minimizedRMSD>  (1) 
3.20415854

$$$$
