
     RDKit          3D

 27 29  0  0  0  0  0  0  0  0999 V2000
   36.4500   29.2300   50.9850 C   0  0  0  0  0  0  0  0  0  0  0  0
   36.8700   29.5780   49.6880 C   0  0  0  0  0  0  0  0  0  0  0  0
   35.9060   29.9850   48.7820 C   0  0  0  0  0  0  0  0  0  0  0  0
   34.6000   30.0330   49.1750 N   0  0  0  0  0  0  0  0  0  0  0  0
   34.2200   29.6920   50.4300 C   0  0  0  0  0  0  0  0  0  0  0  0
   35.1470   29.2930   51.3290 N   0  0  0  0  0  0  0  0  0  0  0  0
   36.3460   30.3320   47.4800 N   0  0  0  0  0  0  0  0  0  0  0  0
   35.4220   29.9590   46.5440 C   0  0  0  0  0  0  0  0  0  0  0  0
   35.6210   30.1900   45.1960 C   0  0  0  0  0  0  0  0  0  0  0  0
   36.8090   30.8250   44.8170 C   0  0  0  0  0  0  0  0  0  0  0  0
   37.0320   31.0540   43.6100 O   0  0  0  0  0  0  0  0  0  0  0  0
   37.6820   31.1680   45.7900 N   0  0  0  0  0  0  0  0  0  0  0  0
   37.4590   30.9310   47.0860 C   0  0  0  0  0  0  0  0  0  0  0  0
   38.2270   31.2260   48.0050 O   0  0  0  0  0  0  0  0  0  0  0  0
   38.8940   31.8140   45.4160 C   0  0  0  0  0  0  0  0  0  0  0  0
   40.2440   31.6580   45.6390 C   0  0  0  0  0  0  0  0  0  0  0  0
   40.8640   32.6940   44.9290 C   0  0  0  0  0  0  0  0  0  0  0  0
   39.9060   33.4210   44.3200 N   0  0  0  0  0  0  0  0  0  0  0  0
   38.7280   32.8990   44.6070 N   0  0  0  0  0  0  0  0  0  0  0  0
   37.1929   28.9027   51.7273 H   0  0  0  0  0  0  0  0  0  0  0  0
   37.9313   29.5282   49.4030 H   0  0  0  0  0  0  0  0  0  0  0  0
   33.1591   29.7398   50.7167 H   0  0  0  0  0  0  0  0  0  0  0  0
   34.4969   29.4625   46.8720 H   0  0  0  0  0  0  0  0  0  0  0  0
   34.8732   29.8860   44.4487 H   0  0  0  0  0  0  0  0  0  0  0  0
   40.7328   30.8825   46.2471 H   0  0  0  0  0  0  0  0  0  0  0  0
   41.9466   32.8821   44.8772 H   0  0  0  0  0  0  0  0  0  0  0  0
   40.0668   34.2482   43.7278 H   0  0  0  0  0  0  0  0  0  0  0  0
  1  6  2  0
  2  1  1  0
  3  4  1  0
  3  2  2  0
  4  5  2  0
  5  6  1  0
  7  3  1  0
  8  7  1  0
  9  8  2  0
 10  9  1  0
 10 12  1  0
 11 10  2  0
 12 13  1  0
 13  7  1  0
 13 14  2  0
 15 16  1  0
 15 12  1  0
 17 16  2  0
 18 19  1  0
 18 17  1  0
 19 15  2  0
  1 20  1  0
  2 21  1  0
  5 22  1  0
  8 23  1  0
  9 24  1  0
 16 25  1  0
 17 26  1  0
 18 27  1  0
M  ISO  8  20  14  21  14  22  14  23  14  24  14  25  14  26  14  27   9
M  END
>  <minimizedAffinity>  (1) 
-5.80249643

>  <minimizedRMSD>  (1) 
3.22933745

$$$$
