
     RDKit          3D

 32 34  0  0  1  0  0  0  0  0999 V2000
   36.5680   29.3010   50.6840 C   0  0  0  0  0  0  0  0  0  0  0  0
   36.8740   29.6290   49.3470 C   0  0  0  0  0  0  0  0  0  0  0  0
   35.8160   29.9560   48.5160 C   0  0  0  0  0  0  0  0  0  0  0  0
   34.5310   29.9540   48.9960 N   0  0  0  0  0  0  0  0  0  0  0  0
   34.2800   29.6330   50.2930 C   0  0  0  0  0  0  0  0  0  0  0  0
   35.2860   29.3070   51.1390 N   0  0  0  0  0  0  0  0  0  0  0  0
   36.1250   30.2850   47.1710 N   0  0  0  0  0  0  0  0  0  0  0  0
   35.1540   29.8500   46.3210 C   0  0  0  0  0  0  0  0  0  0  0  0
   35.2370   30.0580   44.9560 C   0  0  0  0  0  0  0  0  0  0  0  0
   36.3570   30.7360   44.4750 C   0  0  0  0  0  0  0  0  0  0  0  0
   36.4510   30.9350   43.2470 O   0  0  0  0  0  0  0  0  0  0  0  0
   37.2940   31.1460   45.3640 N   0  0  0  0  0  0  0  0  0  0  0  0
   37.1720   30.9230   46.6720 C   0  0  0  0  0  0  0  0  0  0  0  0
   38.0050   31.2830   47.5250 O   0  0  0  0  0  0  0  0  0  0  0  0
   38.7010   33.1220   45.4640 N   0  0  0  0  0  0  0  0  0  0  0  0
   40.1090   33.2130   45.6950 C   0  0  0  0  0  0  0  0  0  0  0  0
   40.7330   32.1770   44.7540 C   0  0  0  0  0  0  0  0  0  0  0  0
   39.7320   31.0320   44.9610 C   0  0  0  0  0  0  0  0  0  0  0  0
   38.4390   31.8360   44.8750 C   0  0  1  0  0  0  0  0  0  0  0  0
   37.3829   29.0348   51.3733 H   0  0  0  0  0  0  0  0  0  0  0  0
   37.9108   29.6252   48.9794 H   0  0  0  0  0  0  0  0  0  0  0  0
   33.2434   29.6381   50.6611 H   0  0  0  0  0  0  0  0  0  0  0  0
   34.2815   29.3197   46.7303 H   0  0  0  0  0  0  0  0  0  0  0  0
   34.4494   29.7021   44.2755 H   0  0  0  0  0  0  0  0  0  0  0  0
   38.1924   33.2102   46.3553 H   0  0  0  0  0  0  0  0  0  0  0  0
   40.4755   34.2223   45.4564 H   0  0  0  0  0  0  0  0  0  0  0  0
   40.3681   33.0244   46.7473 H   0  0  0  0  0  0  0  0  0  0  0  0
   41.7503   31.8970   45.0650 H   0  0  0  0  0  0  0  0  0  0  0  0
   40.8688   32.5045   43.7127 H   0  0  0  0  0  0  0  0  0  0  0  0
   39.8011   30.2738   44.1671 H   0  0  0  0  0  0  0  0  0  0  0  0
   39.8659   30.4438   45.8808 H   0  0  0  0  0  0  0  0  0  0  0  0
   38.1465   31.9889   43.8257 H   0  0  0  0  0  0  0  0  0  0  0  0
  1  6  2  0
  2  1  1  0
  3  4  1  0
  3  2  2  0
  4  5  2  0
  5  6  1  0
  7  3  1  0
  8  7  1  0
  9  8  2  0
 10  9  1  0
 10 12  1  0
 11 10  2  0
 12 13  1  0
 13  7  1  0
 13 14  2  0
 15 16  1  0
 17 18  1  0
 17 16  1  0
 19 18  1  0
 19 12  1  0
 19 15  1  0
  1 20  1  0
  2 21  1  0
  5 22  1  0
  8 23  1  0
  9 24  1  0
 15 25  1  0
 16 26  1  0
 16 27  1  0
 17 28  1  0
 17 29  1  0
 18 30  1  0
 18 31  1  0
 19 32  1  6
M  ISO  8  20  14  21  14  22  14  23  14  24  14  25   5  26  13  27  13
M  ISO  5  28  13  29  13  30  13  31  13  32  13
M  END
>  <minimizedAffinity>  (1) 
-5.74757433

>  <minimizedRMSD>  (1) 
3.5634706

$$$$
