
     RDKit          3D

 27 29  0  0  0  0  0  0  0  0999 V2000
   36.4540   29.2070   50.8590 C   0  0  0  0  0  0  0  0  0  0  0  0
   36.8720   29.5420   49.5590 C   0  0  0  0  0  0  0  0  0  0  0  0
   35.9050   29.9750   48.6690 C   0  0  0  0  0  0  0  0  0  0  0  0
   34.5950   30.0620   49.0770 N   0  0  0  0  0  0  0  0  0  0  0  0
   34.2360   29.7280   50.3450 C   0  0  0  0  0  0  0  0  0  0  0  0
   35.1470   29.3060   51.2280 N   0  0  0  0  0  0  0  0  0  0  0  0
   36.3170   30.3130   47.3600 N   0  0  0  0  0  0  0  0  0  0  0  0
   35.3840   29.9450   46.4340 C   0  0  0  0  0  0  0  0  0  0  0  0
   35.5640   30.1720   45.0860 C   0  0  0  0  0  0  0  0  0  0  0  0
   36.7530   30.8020   44.6890 C   0  0  0  0  0  0  0  0  0  0  0  0
   36.9480   31.0240   43.4720 O   0  0  0  0  0  0  0  0  0  0  0  0
   37.6270   31.1380   45.6370 N   0  0  0  0  0  0  0  0  0  0  0  0
   37.4330   30.9080   46.9490 C   0  0  0  0  0  0  0  0  0  0  0  0
   38.2120   31.2000   47.8640 O   0  0  0  0  0  0  0  0  0  0  0  0
   38.8530   31.7800   45.2980 C   0  0  0  0  0  0  0  0  0  0  0  0
   40.1630   31.4040   45.0600 C   0  0  0  0  0  0  0  0  0  0  0  0
   40.8590   32.5400   44.7780 N   0  0  0  0  0  0  0  0  0  0  0  0
   40.0220   33.5890   44.8370 C   0  0  0  0  0  0  0  0  0  0  0  0
   38.7780   33.1350   45.1570 N   0  0  0  0  0  0  0  0  0  0  0  0
   37.1967   28.8584   51.5917 H   0  0  0  0  0  0  0  0  0  0  0  0
   37.9278   29.4629   49.2607 H   0  0  0  0  0  0  0  0  0  0  0  0
   33.1816   29.8060   50.6487 H   0  0  0  0  0  0  0  0  0  0  0  0
   34.4608   29.4526   46.7735 H   0  0  0  0  0  0  0  0  0  0  0  0
   34.8042   29.8706   44.3498 H   0  0  0  0  0  0  0  0  0  0  0  0
   40.5661   30.3810   45.0924 H   0  0  0  0  0  0  0  0  0  0  0  0
   40.2954   34.6392   44.6570 H   0  0  0  0  0  0  0  0  0  0  0  0
   37.9322   33.7115   45.2719 H   0  0  0  0  0  0  0  0  0  0  0  0
  1  6  2  0
  2  1  1  0
  3  4  1  0
  3  2  2  0
  4  5  2  0
  5  6  1  0
  7  3  1  0
  8  7  1  0
  9  8  2  0
 10  9  1  0
 10 12  1  0
 11 10  2  0
 12 13  1  0
 13  7  1  0
 13 14  2  0
 15 12  1  0
 16 15  2  0
 17 18  2  0
 17 16  1  0
 18 19  1  0
 19 15  1  0
  1 20  1  0
  2 21  1  0
  5 22  1  0
  8 23  1  0
  9 24  1  0
 16 25  1  0
 18 26  1  0
 19 27  1  0
M  ISO  8  20  14  21  14  22  14  23  14  24  14  25  14  26  14  27   9
M  END
>  <minimizedAffinity>  (1) 
-5.63093758

>  <minimizedRMSD>  (1) 
3.37402797

$$$$
