
     RDKit          3D

 17 18  0  0  0  0  0  0  0  0999 V2000
   37.4340   30.3300   51.0860 C   0  0  0  0  0  0  0  0  0  0  0  0
   38.3220   31.0940   50.2980 C   0  0  0  0  0  0  0  0  0  0  0  0
   38.0570   31.2010   48.9290 C   0  0  0  0  0  0  0  0  0  0  0  0
   36.9580   30.5650   48.4250 N   0  0  0  0  0  0  0  0  0  0  0  0
   36.1310   29.8440   49.2080 C   0  0  0  0  0  0  0  0  0  0  0  0
   36.3580   29.7210   50.5290 N   0  0  0  0  0  0  0  0  0  0  0  0
   34.9690   29.1910   48.5700 C   0  0  0  0  0  0  0  0  0  0  0  0
   34.3890   27.9640   49.0270 C   0  0  0  0  0  0  0  0  0  0  0  0
   33.3130   27.5290   48.2940 C   0  0  0  0  0  0  0  0  0  0  0  0
   32.8740   28.2400   47.2340 C   0  0  0  0  0  0  0  0  0  0  0  0
   33.9770   29.6620   47.1500 S   0  0  0  0  0  0  0  0  0  0  0  0
   37.6173   30.2274   52.1658 H   0  0  0  0  0  0  0  0  0  0  0  0
   39.1953   31.5898   50.7469 H   0  0  0  0  0  0  0  0  0  0  0  0
   38.7190   31.7845   48.2723 H   0  0  0  0  0  0  0  0  0  0  0  0
   34.7755   27.4132   49.8972 H   0  0  0  0  0  0  0  0  0  0  0  0
   32.8048   26.5941   48.5725 H   0  0  0  0  0  0  0  0  0  0  0  0
   32.0302   28.0037   46.5691 H   0  0  0  0  0  0  0  0  0  0  0  0
  2  1  2  0
  3  2  1  0
  4  3  2  0
  4  5  1  0
  5  6  2  0
  6  1  1  0
  7  8  2  0
  7  5  1  0
  9  8  1  0
 10  9  2  0
 11 10  1  0
 11  7  1  0
  1 12  1  0
  2 13  1  0
  3 14  1  0
  8 15  1  0
  9 16  1  0
 10 17  1  0
M  ISO  6  12  14  13  14  14  14  15  14  16  14  17  14
M  END
>  <minimizedAffinity>  (1) 
-3.95794344

>  <minimizedRMSD>  (1) 
1.39549243

$$$$
