
     RDKit          3D

 27 29  0  0  0  0  0  0  0  0999 V2000
   37.3390   29.5490   51.0410 C   0  0  0  0  0  0  0  0  0  0  0  0
   37.7900   30.0700   49.8060 C   0  0  0  0  0  0  0  0  0  0  0  0
   36.8210   30.3990   48.8730 C   0  0  0  0  0  0  0  0  0  0  0  0
   35.4950   30.2100   49.1830 N   0  0  0  0  0  0  0  0  0  0  0  0
   35.1150   29.7080   50.3800 C   0  0  0  0  0  0  0  0  0  0  0  0
   36.0320   29.3780   51.3100 N   0  0  0  0  0  0  0  0  0  0  0  0
   37.2540   30.9210   47.6330 N   0  0  0  0  0  0  0  0  0  0  0  0
   36.4650   30.4740   46.6130 C   0  0  0  0  0  0  0  0  0  0  0  0
   36.6950   30.8520   45.2970 C   0  0  0  0  0  0  0  0  0  0  0  0
   37.7670   31.7100   45.0480 C   0  0  0  0  0  0  0  0  0  0  0  0
   38.0050   32.0720   43.8720 O   0  0  0  0  0  0  0  0  0  0  0  0
   38.5110   32.1190   46.0950 N   0  0  0  0  0  0  0  0  0  0  0  0
   38.2650   31.7370   47.3550 C   0  0  0  0  0  0  0  0  0  0  0  0
   38.9150   32.0810   48.3520 O   0  0  0  0  0  0  0  0  0  0  0  0
   39.6290   33.0100   45.8540 C   0  0  0  0  0  0  0  0  0  0  0  0
   39.9780   33.3490   44.4130 C   0  0  0  0  0  0  0  0  0  0  0  0
   40.9280   32.5520   45.3510 C   0  0  0  0  0  0  0  0  0  0  0  0
   38.0804   29.2749   51.8059 H   0  0  0  0  0  0  0  0  0  0  0  0
   38.8610   30.2075   49.5962 H   0  0  0  0  0  0  0  0  0  0  0  0
   34.0457   29.5677   50.5965 H   0  0  0  0  0  0  0  0  0  0  0  0
   35.6270   29.7982   46.8389 H   0  0  0  0  0  0  0  0  0  0  0  0
   36.0550   30.4881   44.4797 H   0  0  0  0  0  0  0  0  0  0  0  0
   39.3527   33.5751   46.7564 H   0  0  0  0  0  0  0  0  0  0  0  0
   40.2166   34.3834   44.1249 H   0  0  0  0  0  0  0  0  0  0  0  0
   39.5195   33.1920   43.4255 H   0  0  0  0  0  0  0  0  0  0  0  0
   41.1015   31.4802   45.1746 H   0  0  0  0  0  0  0  0  0  0  0  0
   41.9716   32.6685   45.6788 H   0  0  0  0  0  0  0  0  0  0  0  0
  1  6  2  0
  2  1  1  0
  3  4  1  0
  3  2  2  0
  4  5  2  0
  5  6  1  0
  7  3  1  0
  8  7  1  0
  9  8  2  0
 10  9  1  0
 10 12  1  0
 11 10  2  0
 12 13  1  0
 13  7  1  0
 13 14  2  0
 15 12  1  0
 16 17  1  0
 16 15  1  0
 17 15  1  0
  1 18  1  0
  2 19  1  0
  5 20  1  0
  8 21  1  0
  9 22  1  0
 15 23  1  0
 16 24  1  0
 16 25  1  0
 17 26  1  0
 17 27  1  0
M  ISO  8  18  14  19  14  20  14  21  14  22  14  23  13  24  13  25  13
M  ISO  2  26  13  27  13
M  END
>  <minimizedAffinity>  (1) 
-5.70323992

>  <minimizedRMSD>  (1) 
2.02120137

$$$$
