
     RDKit          3D

 28 30  0  0  1  0  0  0  0  0999 V2000
   37.2310   30.8610   47.6500 N   0  0  0  0  0  0  0  0  0  0  0  0
   36.4080   30.4320   46.6390 C   0  0  0  0  0  0  0  0  0  0  0  0
   36.6320   30.8020   45.3160 C   0  0  0  0  0  0  0  0  0  0  0  0
   37.7250   31.6240   45.0450 C   0  0  0  0  0  0  0  0  0  0  0  0
   37.9410   31.9670   43.8720 O   0  0  0  0  0  0  0  0  0  0  0  0
   38.4980   32.0120   46.0830 N   0  0  0  0  0  0  0  0  0  0  0  0
   38.2550   31.6420   47.3350 C   0  0  0  0  0  0  0  0  0  0  0  0
   38.9230   31.9670   48.3180 O   0  0  0  0  0  0  0  0  0  0  0  0
   37.3290   29.5450   51.0670 C   0  0  0  0  0  0  0  0  0  0  0  0
   37.7720   30.0490   49.8250 C   0  0  0  0  0  0  0  0  0  0  0  0
   36.8050   30.3570   48.8990 C   0  0  0  0  0  0  0  0  0  0  0  0
   35.4720   30.1700   49.2030 N   0  0  0  0  0  0  0  0  0  0  0  0
   35.0960   29.6850   50.4090 C   0  0  0  0  0  0  0  0  0  0  0  0
   36.0140   29.3690   51.3470 N   0  0  0  0  0  0  0  0  0  0  0  0
   39.6180   32.8440   45.7660 C   0  0  2  0  0  0  0  0  0  0  0  0
   40.0910   33.0630   44.3990 C   0  0  0  0  0  0  0  0  0  0  0  0
   40.9680   32.3490   45.4850 C   0  0  2  0  0  0  0  0  0  0  0  0
   41.0660   30.9850   45.5050 O   0  0  0  0  0  0  0  0  0  0  0  0
   35.5535   29.7822   46.8792 H   0  0  0  0  0  0  0  0  0  0  0  0
   35.9678   30.4568   44.5099 H   0  0  0  0  0  0  0  0  0  0  0  0
   38.0751   29.2866   51.8328 H   0  0  0  0  0  0  0  0  0  0  0  0
   38.8415   30.1886   49.6087 H   0  0  0  0  0  0  0  0  0  0  0  0
   34.0270   29.5462   50.6282 H   0  0  0  0  0  0  0  0  0  0  0  0
   39.2193   33.5083   46.5468 H   0  0  0  0  0  0  0  0  0  0  0  0
   40.3474   34.0757   44.0546 H   0  0  0  0  0  0  0  0  0  0  0  0
   39.7302   32.8203   43.3886 H   0  0  0  0  0  0  0  0  0  0  0  0
   41.9982   32.4982   45.8405 H   0  0  0  0  0  0  0  0  0  0  0  0
   41.0887   30.6695   46.4431 H   0  0  0  0  0  0  0  0  0  0  0  0
  1 11  1  0
  2  1  1  0
  3  2  2  0
  4  3  1  0
  4  6  1  0
  5  4  2  0
  6  7  1  0
  7  1  1  0
  7  8  2  0
  9 14  2  0
 10  9  1  0
 11 12  1  0
 11 10  2  0
 12 13  2  0
 13 14  1  0
 15  6  1  0
 16 17  1  0
 16 15  1  0
 17 18  1  0
 17 15  1  0
  2 19  1  0
  3 20  1  0
  9 21  1  0
 10 22  1  0
 13 23  1  0
 15 24  1  1
 16 25  1  0
 16 26  1  0
 17 27  1  1
 18 28  1  0
M  ISO  8  19  14  20  14  21  14  22  14  23  14  24  13  25  13  26  13
M  ISO  2  27  13  28   3
M  END
>  <minimizedAffinity>  (1) 
-5.74434233

>  <minimizedRMSD>  (1) 
0.138502762

$$$$
