
     RDKit          3D

 29 31  0  0  1  0  0  0  0  0999 V2000
   38.1120   31.5110   47.0530 N   0  0  0  0  0  0  0  0  0  0  0  0
   38.8060   32.0890   48.0840 C   0  0  0  0  0  0  0  0  0  0  0  0
   38.3550   32.0080   49.3980 C   0  0  0  0  0  0  0  0  0  0  0  0
   37.1600   31.3120   49.6360 C   0  0  0  0  0  0  0  0  0  0  0  0
   36.7460   31.2360   50.8000 O   0  0  0  0  0  0  0  0  0  0  0  0
   36.5260   30.7660   48.5750 N   0  0  0  0  0  0  0  0  0  0  0  0
   36.9940   30.8700   47.3380 C   0  0  0  0  0  0  0  0  0  0  0  0
   36.4450   30.3890   46.3390 O   0  0  0  0  0  0  0  0  0  0  0  0
   40.5280   31.1840   44.3160 C   0  0  0  0  0  0  0  0  0  0  0  0
   39.8860   30.9650   45.5540 C   0  0  0  0  0  0  0  0  0  0  0  0
   38.7610   31.7200   45.8210 C   0  0  0  0  0  0  0  0  0  0  0  0
   38.3090   32.6390   44.8970 N   0  0  0  0  0  0  0  0  0  0  0  0
   38.9630   32.8120   43.7210 C   0  0  0  0  0  0  0  0  0  0  0  0
   40.0710   32.0930   43.4190 N   0  0  0  0  0  0  0  0  0  0  0  0
   35.3170   30.0580   48.8660 C   0  0  2  0  0  0  0  0  0  0  0  0
   35.2710   28.8430   49.6880 C   0  0  0  0  0  0  0  0  0  0  0  0
   34.8750   28.8460   48.1780 C   0  0  1  0  0  0  0  0  0  0  0  0
   33.4600   28.7040   47.8330 C   0  0  0  0  0  0  0  0  0  0  0  0
   33.1790   29.4470   46.8880 O   0  0  0  0  0  0  0  0  0  0  0  0
   39.7399   32.6287   47.8680 H   0  0  0  0  0  0  0  0  0  0  0  0
   38.9160   32.4736   50.2218 H   0  0  0  0  0  0  0  0  0  0  0  0
   41.4269   30.5992   44.0711 H   0  0  0  0  0  0  0  0  0  0  0  0
   40.2653   30.2253   46.2744 H   0  0  0  0  0  0  0  0  0  0  0  0
   38.5862   33.5507   42.9983 H   0  0  0  0  0  0  0  0  0  0  0  0
   34.8758   31.0608   48.9643 H   0  0  0  0  0  0  0  0  0  0  0  0
   36.2020   28.3590   50.0182 H   0  0  0  0  0  0  0  0  0  0  0  0
   34.7913   28.5434   50.6315 H   0  0  0  0  0  0  0  0  0  0  0  0
   35.1835   28.2980   47.2755 H   0  0  0  0  0  0  0  0  0  0  0  0
   32.7510   28.0338   48.3410 H   0  0  0  0  0  0  0  0  0  0  0  0
  1  7  1  0
  1  2  1  0
  2  3  2  0
  3  4  1  0
  4  5  2  0
  6 15  1  0
  6  4  1  0
  7  6  1  0
  8  7  2  0
  9 10  2  0
 10 11  1  0
 11  1  1  0
 12 11  2  0
 13 12  1  0
 14 13  2  0
 14  9  1  0
 15 16  1  0
 17 15  1  0
 17 16  1  0
 18 17  1  0
 19 18  2  0
  2 20  1  0
  3 21  1  0
  9 22  1  0
 10 23  1  0
 13 24  1  0
 15 25  1  1
 16 26  1  0
 16 27  1  0
 17 28  1  6
 18 29  1  0
M  ISO  8  20  14  21  14  22  14  23  14  24  14  25  13  26  13  27  13
M  ISO  2  28  13  29   6
M  END
>  <minimizedAffinity>  (1) 
-5.60990667

>  <minimizedRMSD>  (1) 
6.38071251

$$$$
