
     RDKit          3D

 40 44  0  0  1  0  0  0  0  0999 V2000
   35.1960   29.6170   48.1950 N   0  0  0  0  0  0  0  0  0  0  0  0
   34.0720   28.9430   48.5950 C   0  0  0  0  0  0  0  0  0  0  0  0
   33.0870   28.5730   47.6880 C   0  0  0  0  0  0  0  0  0  0  0  0
   33.2750   28.9080   46.3420 C   0  0  0  0  0  0  0  0  0  0  0  0
   32.4040   28.5870   45.5230 O   0  0  0  0  0  0  0  0  0  0  0  0
   34.4070   29.5740   46.0080 N   0  0  0  0  0  0  0  0  0  0  0  0
   35.3210   29.9080   46.9100 C   0  0  0  0  0  0  0  0  0  0  0  0
   36.3660   30.5170   46.6510 O   0  0  0  0  0  0  0  0  0  0  0  0
   37.8550   31.1160   50.2210 C   0  0  0  0  0  0  0  0  0  0  0  0
   37.0120   30.8570   49.1180 C   0  0  0  0  0  0  0  0  0  0  0  0
   36.0490   29.8900   49.2800 C   0  0  0  0  0  0  0  0  0  0  0  0
   35.9390   29.2200   50.4840 N   0  0  0  0  0  0  0  0  0  0  0  0
   36.7700   29.5020   51.5140 C   0  0  0  0  0  0  0  0  0  0  0  0
   37.7270   30.4460   51.3900 N   0  0  0  0  0  0  0  0  0  0  0  0
   34.5600   29.8920   44.6220 C   0  0  2  0  0  0  0  0  0  0  0  0
   34.5050   28.8900   43.5530 C   0  0  0  0  0  0  0  0  0  0  0  0
   35.7940   29.7120   43.8610 C   0  0  1  0  0  0  0  0  0  0  0  0
   36.1840   30.7170   42.9260 N   0  0  0  0  0  0  0  0  0  0  0  0
   35.5790   31.1620   41.7850 C   0  0  0  0  0  0  0  0  0  0  0  0
   36.3130   32.1280   41.2220 N   0  0  0  0  0  0  0  0  0  0  0  0
   37.3960   32.3330   41.9710 C   0  0  0  0  0  0  0  0  0  0  0  0
   38.4980   33.1590   41.9340 C   0  0  0  0  0  0  0  0  0  0  0  0
   39.4600   33.1180   42.8860 N   0  0  0  0  0  0  0  0  0  0  0  0
   39.3570   32.2570   43.9030 C   0  0  0  0  0  0  0  0  0  0  0  0
   38.3100   31.4280   43.9970 N   0  0  0  0  0  0  0  0  0  0  0  0
   37.3270   31.4470   43.0500 C   0  0  0  0  0  0  0  0  0  0  0  0
   38.5980   34.0630   40.8580 N   0  0  0  0  0  0  0  0  0  0  0  0
   33.9469   28.6893   49.6580 H   0  0  0  0  0  0  0  0  0  0  0  0
   32.1869   28.0333   48.0175 H   0  0  0  0  0  0  0  0  0  0  0  0
   38.6374   31.8836   50.1275 H   0  0  0  0  0  0  0  0  0  0  0  0
   37.1214   31.4053   48.1707 H   0  0  0  0  0  0  0  0  0  0  0  0
   36.6645   28.9559   52.4630 H   0  0  0  0  0  0  0  0  0  0  0  0
   33.9563   30.7791   44.8642 H   0  0  0  0  0  0  0  0  0  0  0  0
   33.9267   29.0841   42.6376 H   0  0  0  0  0  0  0  0  0  0  0  0
   34.2449   27.8237   43.4804 H   0  0  0  0  0  0  0  0  0  0  0  0
   36.8416   29.4869   44.1097 H   0  0  0  0  0  0  0  0  0  0  0  0
   34.6268   30.7813   41.3871 H   0  0  0  0  0  0  0  0  0  0  0  0
   40.1425   32.2292   44.6726 H   0  0  0  0  0  0  0  0  0  0  0  0
   39.4061   34.6983   40.7925 H   0  0  0  0  0  0  0  0  0  0  0  0
   37.8630   34.0886   40.1368 H   0  0  0  0  0  0  0  0  0  0  0  0
  1  2  1  0
  1 11  1  0
  3  2  2  0
  4  3  1  0
  5  4  2  0
  6  4  1  0
  6  7  1  0
  7  1  1  0
  8  7  2  0
  9 14  2  0
 10 11  2  0
 10  9  1  0
 11 12  1  0
 12 13  2  0
 14 13  1  0
 15  6  1  0
 16 17  1  0
 16 15  1  0
 17 15  1  0
 18 26  1  0
 18 17  1  0
 19 18  1  0
 20 19  2  0
 20 21  1  0
 21 26  2  0
 22 21  1  0
 22 23  2  0
 23 24  1  0
 24 25  2  0
 26 25  1  0
 27 22  1  0
  2 28  1  0
  3 29  1  0
  9 30  1  0
 10 31  1  0
 13 32  1  0
 15 33  1  6
 16 34  1  0
 16 35  1  0
 17 36  1  1
 19 37  1  0
 24 38  1  0
 27 39  1  0
 27 40  1  0
M  ISO  8  28  14  29  14  30  14  31  14  32  14  33  13  34  13  35  13
M  ISO  3  36  13  37  14  38  14
M  END
>  <minimizedAffinity>  (1) 
-5.39670897

>  <minimizedRMSD>  (1) 
5.8685627

$$$$
