
     RDKit          3D

 41 45  0  0  1  0  0  0  0  0999 V2000
   35.8330   30.2190   47.6790 N   0  0  0  0  0  0  0  0  0  0  0  0
   34.4680   30.0760   47.7220 C   0  0  0  0  0  0  0  0  0  0  0  0
   33.7060   30.0430   46.5550 C   0  0  0  0  0  0  0  0  0  0  0  0
   34.3850   30.1610   45.3380 C   0  0  0  0  0  0  0  0  0  0  0  0
   33.7170   30.1360   44.2980 O   0  0  0  0  0  0  0  0  0  0  0  0
   35.7410   30.3000   45.3560 N   0  0  0  0  0  0  0  0  0  0  0  0
   36.4140   30.3270   46.5000 C   0  0  0  0  0  0  0  0  0  0  0  0
   37.6380   30.4560   46.5800 O   0  0  0  0  0  0  0  0  0  0  0  0
   37.2540   31.4200   50.8360 C   0  0  0  0  0  0  0  0  0  0  0  0
   36.7000   31.4410   49.5320 C   0  0  0  0  0  0  0  0  0  0  0  0
   36.3830   30.2240   48.9770 C   0  0  0  0  0  0  0  0  0  0  0  0
   36.6090   29.0640   49.6880 N   0  0  0  0  0  0  0  0  0  0  0  0
   37.1420   29.1080   50.9310 C   0  0  0  0  0  0  0  0  0  0  0  0
   37.4640   30.2710   51.5080 N   0  0  0  0  0  0  0  0  0  0  0  0
   36.3880   30.4170   44.0840 C   0  0  2  0  0  0  0  0  0  0  0  0
   36.1700   29.4530   43.0070 C   0  0  0  0  0  0  0  0  0  0  0  0
   37.5640   29.6800   43.6890 C   0  0  1  0  0  0  0  0  0  0  0  0
   38.5760   29.9580   42.6940 C   0  0  0  0  0  0  0  0  0  0  0  0
   38.8280   31.3030   42.6350 N   0  0  0  0  0  0  0  0  0  0  0  0
   39.7870   31.7700   41.7830 C   0  0  0  0  0  0  0  0  0  0  0  0
   40.5150   30.9720   40.9810 N   0  0  0  0  0  0  0  0  0  0  0  0
   40.2960   29.6500   41.0080 C   0  0  0  0  0  0  0  0  0  0  0  0
   40.9510   28.7110   40.2380 C   0  0  0  0  0  0  0  0  0  0  0  0
   40.6440   27.3540   40.3280 C   0  0  0  0  0  0  0  0  0  0  0  0
   39.6560   26.8930   41.2070 C   0  0  0  0  0  0  0  0  0  0  0  0
   39.0130   27.8320   41.9650 C   0  0  0  0  0  0  0  0  0  0  0  0
   39.3330   29.1670   41.8610 C   0  0  0  0  0  0  0  0  0  0  0  0
   33.9658   29.9857   48.6965 H   0  0  0  0  0  0  0  0  0  0  0  0
   32.6125   29.9285   46.5901 H   0  0  0  0  0  0  0  0  0  0  0  0
   37.5215   32.3731   51.3156 H   0  0  0  0  0  0  0  0  0  0  0  0
   36.5320   32.3839   48.9909 H   0  0  0  0  0  0  0  0  0  0  0  0
   37.3138   28.1690   51.4776 H   0  0  0  0  0  0  0  0  0  0  0  0
   36.2035   31.4963   44.1893 H   0  0  0  0  0  0  0  0  0  0  0  0
   35.9889   29.7965   41.9778 H   0  0  0  0  0  0  0  0  0  0  0  0
   35.5015   28.5983   42.8263 H   0  0  0  0  0  0  0  0  0  0  0  0
   38.3371   29.2501   44.3428 H   0  0  0  0  0  0  0  0  0  0  0  0
   39.9739   32.8535   41.7506 H   0  0  0  0  0  0  0  0  0  0  0  0
   41.7327   29.0403   39.5376 H   0  0  0  0  0  0  0  0  0  0  0  0
   41.1867   26.6336   39.6983 H   0  0  0  0  0  0  0  0  0  0  0  0
   39.4085   25.8240   41.2841 H   0  0  0  0  0  0  0  0  0  0  0  0
   38.2284   27.5161   42.6683 H   0  0  0  0  0  0  0  0  0  0  0  0
  1  2  1  0
  1 11  1  0
  3  2  2  0
  4  6  1  0
  4  3  1  0
  5  4  2  0
  6  7  1  0
  7  8  2  0
  7  1  1  0
  9 14  2  0
 10  9  1  0
 11 10  2  0
 11 12  1  0
 12 13  2  0
 13 14  1  0
 15  6  1  0
 16 17  1  0
 16 15  1  0
 17 15  1  0
 18 17  1  0
 19 18  2  0
 20 19  1  0
 21 22  1  0
 21 20  2  0
 22 27  2  0
 23 24  2  0
 23 22  1  0
 24 25  1  0
 25 26  2  0
 27 26  1  0
 27 18  1  0
  2 28  1  0
  3 29  1  0
  9 30  1  0
 10 31  1  0
 13 32  1  0
 15 33  1  6
 16 34  1  0
 16 35  1  0
 17 36  1  1
 20 37  1  0
 23 38  1  0
 24 39  1  0
 25 40  1  0
 26 41  1  0
M  ISO  8  28  14  29  14  30  14  31  14  32  14  33  13  34  13  35  13
M  ISO  6  36  13  37  14  38  14  39  14  40  14  41  14
M  END
>  <minimizedAffinity>  (1) 
-5.35814524

>  <minimizedRMSD>  (1) 
5.6671319

$$$$
