
     RDKit          3D

 24 26  0  0  0  0  0  0  0  0999 V2000
   37.7350   31.8460   48.9800 N   0  0  0  0  0  0  0  0  0  0  0  0
   38.0580   33.0740   49.4370 C   0  0  0  0  0  0  0  0  0  0  0  0
   38.8980   33.6170   48.5200 N   0  0  0  0  0  0  0  0  0  0  0  0
   39.0820   32.7350   47.5250 C   0  0  0  0  0  0  0  0  0  0  0  0
   39.8480   32.8410   46.3780 C   0  0  0  0  0  0  0  0  0  0  0  0
   40.5110   33.8830   46.1430 O   0  0  0  0  0  0  0  0  0  0  0  0
   39.9030   31.8350   45.4920 N   0  0  0  0  0  0  0  0  0  0  0  0
   39.1700   30.7510   45.8050 C   0  0  0  0  0  0  0  0  0  0  0  0
   39.1810   29.6450   44.9090 N   0  0  0  0  0  0  0  0  0  0  0  0
   38.4040   30.6000   46.9130 N   0  0  0  0  0  0  0  0  0  0  0  0
   38.3370   31.5910   47.8100 C   0  0  0  0  0  0  0  0  0  0  0  0
   35.6220   30.6580   49.0330 C   0  0  0  0  0  0  0  0  0  0  0  0
   36.8670   30.9210   49.6360 C   0  0  0  0  0  0  0  0  0  0  0  0
   37.1550   30.2580   50.8280 C   0  0  0  0  0  0  0  0  0  0  0  0
   36.2270   29.4060   51.3310 N   0  0  0  0  0  0  0  0  0  0  0  0
   35.0350   29.1700   50.7300 C   0  0  0  0  0  0  0  0  0  0  0  0
   34.7450   29.8050   49.5780 N   0  0  0  0  0  0  0  0  0  0  0  0
   37.7091   33.5424   50.3691 H   0  0  0  0  0  0  0  0  0  0  0  0
   40.4672   31.8888   44.6319 H   0  0  0  0  0  0  0  0  0  0  0  0
   38.6289   28.8025   45.1241 H   0  0  0  0  0  0  0  0  0  0  0  0
   39.7411   29.6872   44.0456 H   0  0  0  0  0  0  0  0  0  0  0  0
   35.3635   31.1653   48.0918 H   0  0  0  0  0  0  0  0  0  0  0  0
   38.1107   30.4216   51.3476 H   0  0  0  0  0  0  0  0  0  0  0  0
   34.3143   28.4694   51.1770 H   0  0  0  0  0  0  0  0  0  0  0  0
  1  2  1  0
  1 13  1  0
  3  2  2  0
  4 11  2  0
  4  3  1  0
  5  4  1  0
  6  5  2  0
  7  8  1  0
  7  5  1  0
  8 10  2  0
  9  8  1  0
 10 11  1  0
 11  1  1  0
 12 17  2  0
 12 13  1  0
 13 14  2  0
 14 15  1  0
 16 15  2  0
 17 16  1  0
  2 18  1  0
  7 19  1  0
  9 20  1  0
  9 21  1  0
 12 22  1  0
 14 23  1  0
 16 24  1  0
M  ISO  5  18  14  19   9  22  14  23  14  24  14
M  END
>  <minimizedAffinity>  (1) 
-5.55003834

>  <minimizedRMSD>  (1) 
3.92604065

$$$$
