
     RDKit          3D

 13 13  0  0  0  0  0  0  0  0999 V2000
   37.6090   30.2140   51.2370 C   0  0  0  0  0  0  0  0  0  0  0  0
   38.0980   31.1070   50.2580 C   0  0  0  0  0  0  0  0  0  0  0  0
   37.2680   31.3820   49.1720 C   0  0  0  0  0  0  0  0  0  0  0  0
   36.0400   30.7850   49.1070 N   0  0  0  0  0  0  0  0  0  0  0  0
   35.6190   29.9370   50.0730 C   0  0  0  0  0  0  0  0  0  0  0  0
   36.3960   29.6550   51.1260 N   0  0  0  0  0  0  0  0  0  0  0  0
   34.3100   29.2900   50.0190 C   0  0  0  0  0  0  0  0  0  0  0  0
   34.1000   28.2150   49.3960 O   0  0  0  0  0  0  0  0  0  0  0  0
   33.1660   29.7600   50.6270 O   0  0  0  0  0  0  0  0  0  0  0  0
   38.2362   29.9726   52.1078 H   0  0  0  0  0  0  0  0  0  0  0  0
   39.0932   31.5668   50.3487 H   0  0  0  0  0  0  0  0  0  0  0  0
   37.5967   32.0696   48.3788 H   0  0  0  0  0  0  0  0  0  0  0  0
   32.3171   29.2581   50.5399 H   0  0  0  0  0  0  0  0  0  0  0  0
  2  1  2  0
  3  2  1  0
  4  3  2  0
  4  5  1  0
  5  6  2  0
  6  1  1  0
  7  5  1  0
  7  9  1  0
  8  7  2  0
  1 10  1  0
  2 11  1  0
  3 12  1  0
  9 13  1  0
M  ISO  4  10  14  11  14  12  14  13   3
M  END
>  <minimizedAffinity>  (1) 
-3.71036673

>  <minimizedRMSD>  (1) 
1.09956121

$$$$
