
     RDKit          3D

 23 24  0  0  0  0  0  0  0  0999 V2000
   38.2240   32.8850   48.8310 C   0  0  0  0  0  0  0  0  0  0  0  0
   37.3450   32.5550   49.8310 C   0  0  0  0  0  0  0  0  0  0  0  0
   36.4680   31.4960   49.6630 C   0  0  0  0  0  0  0  0  0  0  0  0
   36.4640   30.7590   48.4940 C   0  0  0  0  0  0  0  0  0  0  0  0
   37.3460   31.0720   47.4610 C   0  0  0  0  0  0  0  0  0  0  0  0
   38.1930   32.1320   47.6820 C   0  0  0  0  0  0  0  0  0  0  0  0
   35.2830   28.7010   49.3750 C   0  0  0  0  0  0  0  0  0  0  0  0
   35.5190   29.6550   48.3770 C   0  0  0  0  0  0  0  0  0  0  0  0
   34.7870   29.5340   47.1820 C   0  0  0  0  0  0  0  0  0  0  0  0
   33.9040   28.5080   47.0640 N   0  0  0  0  0  0  0  0  0  0  0  0
   33.7040   27.6020   48.0550 C   0  0  0  0  0  0  0  0  0  0  0  0
   34.4030   27.7090   49.2110 N   0  0  0  0  0  0  0  0  0  0  0  0
   39.3040   34.2300   49.1010 S   0  0  0  0  0  0  0  0  0  0  0  0
   40.0190   34.0930   50.4180 O   0  0  0  0  0  0  0  0  0  0  0  0
   40.2850   34.3100   47.9610 O   0  0  0  0  0  0  0  0  0  0  0  0
   37.3365   33.1320   50.7675 H   0  0  0  0  0  0  0  0  0  0  0  0
   35.7662   31.2385   50.4700 H   0  0  0  0  0  0  0  0  0  0  0  0
   37.3633   30.5020   46.5204 H   0  0  0  0  0  0  0  0  0  0  0  0
   38.8978   32.3969   46.8800 H   0  0  0  0  0  0  0  0  0  0  0  0
   35.8386   28.7705   50.3218 H   0  0  0  0  0  0  0  0  0  0  0  0
   34.9262   30.2536   46.3617 H   0  0  0  0  0  0  0  0  0  0  0  0
   32.9789   26.7859   47.9204 H   0  0  0  0  0  0  0  0  0  0  0  0
   38.5756   35.3891   49.1532 H   0  0  0  0  0  0  0  0  0  0  0  0
  1 13  1  0
  1  2  2  0
  3  2  1  0
  4  3  2  0
  5  6  2  0
  5  4  1  0
  6  1  1  0
  8  4  1  0
  8  7  2  0
  9  8  1  0
 10  9  2  0
 10 11  1  0
 11 12  2  0
 12  7  1  0
 13 14  2  0
 15 13  2  0
  2 16  1  0
  3 17  1  0
  5 18  1  0
  6 19  1  0
  7 20  1  0
  9 21  1  0
 11 22  1  0
 13 23  1  0
M  ISO  8  16  14  17  14  18  14  19  14  20  14  21  14  22  14  23  11
M  END
>  <minimizedAffinity>  (1) 
-4.99555683

>  <minimizedRMSD>  (1) 
3.66806054

$$$$
