
     RDKit          3D

 21 22  0  0  0  0  0  0  0  0999 V2000
   36.8780   31.3010   48.6440 N   0  0  0  0  0  0  0  0  0  0  0  0
   36.8830   32.0930   49.7110 C   0  0  0  0  0  0  0  0  0  0  0  0
   37.8120   33.1240   49.7360 C   0  0  0  0  0  0  0  0  0  0  0  0
   38.6570   33.2480   48.6510 C   0  0  0  0  0  0  0  0  0  0  0  0
   39.6670   34.2440   48.5080 N   0  0  0  0  0  0  0  0  0  0  0  0
   38.6130   32.4080   47.5760 N   0  0  0  0  0  0  0  0  0  0  0  0
   37.7090   31.4110   47.5650 C   0  0  0  0  0  0  0  0  0  0  0  0
   37.6020   30.5990   46.6200 O   0  0  0  0  0  0  0  0  0  0  0  0
   34.7500   30.3140   47.8450 C   0  0  0  0  0  0  0  0  0  0  0  0
   35.9170   30.2520   48.6430 C   0  0  0  0  0  0  0  0  0  0  0  0
   36.0850   29.1050   49.4380 C   0  0  0  0  0  0  0  0  0  0  0  0
   35.1220   28.1230   49.3980 N   0  0  0  0  0  0  0  0  0  0  0  0
   34.0320   28.2430   48.6160 C   0  0  0  0  0  0  0  0  0  0  0  0
   33.8380   29.3210   47.8440 N   0  0  0  0  0  0  0  0  0  0  0  0
   36.1788   31.9377   50.5416 H   0  0  0  0  0  0  0  0  0  0  0  0
   37.8728   33.8165   50.5885 H   0  0  0  0  0  0  0  0  0  0  0  0
   40.2549   34.2636   47.6625 H   0  0  0  0  0  0  0  0  0  0  0  0
   39.8088   34.9439   49.2502 H   0  0  0  0  0  0  0  0  0  0  0  0
   34.5825   31.1956   47.2088 H   0  0  0  0  0  0  0  0  0  0  0  0
   36.9708   28.9944   50.0808 H   0  0  0  0  0  0  0  0  0  0  0  0
   33.2834   27.4371   48.6109 H   0  0  0  0  0  0  0  0  0  0  0  0
  1  2  1  0
  2  3  2  0
  4  3  1  0
  5  4  1  0
  6  4  2  0
  7  6  1  0
  7  1  1  0
  8  7  2  0
  9 10  2  0
 10  1  1  0
 10 11  1  0
 12 11  2  0
 13 12  1  0
 14  9  1  0
 14 13  2  0
  2 15  1  0
  3 16  1  0
  5 17  1  0
  5 18  1  0
  9 19  1  0
 11 20  1  0
 13 21  1  0
M  ISO  5  15  14  16  14  19  14  20  14  21  14
M  END
>  <minimizedAffinity>  (1) 
-4.8726716

>  <minimizedRMSD>  (1) 
3.46374559

$$$$
