
     RDKit          3D

 17 18  0  0  0  0  0  0  0  0999 V2000
   38.0260   30.6440   50.7840 C   0  0  0  0  0  0  0  0  0  0  0  0
   37.5620   31.3540   49.6670 C   0  0  0  0  0  0  0  0  0  0  0  0
   36.2730   31.0800   49.1920 C   0  0  0  0  0  0  0  0  0  0  0  0
   35.5320   30.1260   49.8520 N   0  0  0  0  0  0  0  0  0  0  0  0
   36.0110   29.4620   50.9260 C   0  0  0  0  0  0  0  0  0  0  0  0
   37.2570   29.7310   51.3790 N   0  0  0  0  0  0  0  0  0  0  0  0
   38.3440   32.3670   48.9620 C   0  0  0  0  0  0  0  0  0  0  0  0
   38.8540   33.4660   49.6220 C   0  0  0  0  0  0  0  0  0  0  0  0
   39.5470   34.2470   48.6980 C   0  0  0  0  0  0  0  0  0  0  0  0
   39.4370   33.6030   47.5250 N   0  0  0  0  0  0  0  0  0  0  0  0
   38.7180   32.4830   47.6890 N   0  0  0  0  0  0  0  0  0  0  0  0
   39.0354   30.8423   51.1737 H   0  0  0  0  0  0  0  0  0  0  0  0
   35.8656   31.6106   48.3188 H   0  0  0  0  0  0  0  0  0  0  0  0
   35.3910   28.7060   51.4300 H   0  0  0  0  0  0  0  0  0  0  0  0
   38.7345   33.6878   50.6927 H   0  0  0  0  0  0  0  0  0  0  0  0
   40.0739   35.1933   48.8900 H   0  0  0  0  0  0  0  0  0  0  0  0
   39.8435   33.9212   46.6337 H   0  0  0  0  0  0  0  0  0  0  0  0
  1  6  2  0
  2  1  1  0
  3  2  2  0
  3  4  1  0
  4  5  2  0
  5  6  1  0
  7  8  1  0
  7  2  1  0
  9  8  2  0
 10 11  1  0
 10  9  1  0
 11  7  2  0
  1 12  1  0
  3 13  1  0
  5 14  1  0
  8 15  1  0
  9 16  1  0
 10 17  1  0
M  ISO  6  12  14  13  14  14  14  15  14  16  14  17   9
M  END
>  <minimizedAffinity>  (1) 
-4.54281235

>  <minimizedRMSD>  (1) 
2.21856141

$$$$
