
     RDKit          3D

 23 24  0  0  0  0  0  0  0  0999 V2000
   36.3110   30.9330   48.3960 N   0  0  0  0  0  0  0  0  0  0  0  0
   35.7260   30.7070   49.5870 C   0  0  0  0  0  0  0  0  0  0  0  0
   34.6630   29.8000   49.6380 C   0  0  0  0  0  0  0  0  0  0  0  0
   33.9400   29.4720   50.9050 C   0  0  0  0  0  0  0  0  0  0  0  0
   34.2550   29.1770   48.4770 C   0  0  0  0  0  0  0  0  0  0  0  0
   33.2970   28.3380   48.4250 O   0  0  0  0  0  0  0  0  0  0  0  0
   34.8720   29.4370   47.3090 N   0  0  0  0  0  0  0  0  0  0  0  0
   35.8980   30.3160   47.2790 C   0  0  0  0  0  0  0  0  0  0  0  0
   36.4650   30.5530   46.2000 O   0  0  0  0  0  0  0  0  0  0  0  0
   38.2730   31.9070   47.3650 C   0  0  0  0  0  0  0  0  0  0  0  0
   37.3750   31.8620   48.4410 C   0  0  0  0  0  0  0  0  0  0  0  0
   37.5980   32.7510   49.5000 C   0  0  0  0  0  0  0  0  0  0  0  0
   38.6540   33.6030   49.4390 N   0  0  0  0  0  0  0  0  0  0  0  0
   39.5050   33.6200   48.3770 C   0  0  0  0  0  0  0  0  0  0  0  0
   39.3130   32.7680   47.3380 N   0  0  0  0  0  0  0  0  0  0  0  0
   36.0744   31.2214   50.4947 H   0  0  0  0  0  0  0  0  0  0  0  0
   34.5630   29.7546   51.7664 H   0  0  0  0  0  0  0  0  0  0  0  0
   32.9915   30.0279   50.9404 H   0  0  0  0  0  0  0  0  0  0  0  0
   33.7336   28.3921   50.9404 H   0  0  0  0  0  0  0  0  0  0  0  0
   34.5642   28.9693   46.4445 H   0  0  0  0  0  0  0  0  0  0  0  0
   38.1260   31.2208   46.5180 H   0  0  0  0  0  0  0  0  0  0  0  0
   36.9259   32.7591   50.3708 H   0  0  0  0  0  0  0  0  0  0  0  0
   40.3493   34.3249   48.3607 H   0  0  0  0  0  0  0  0  0  0  0  0
  1 11  1  0
  1  2  1  0
  2  3  2  0
  3  4  1  0
  5  3  1  0
  6  5  2  0
  7  5  1  0
  8  7  1  0
  8  1  1  0
  9  8  2  0
 10 11  2  0
 11 12  1  0
 13 12  2  0
 14 13  1  0
 15 10  1  0
 15 14  2  0
  2 16  1  0
  4 17  1  0
  4 18  1  0
  4 19  1  0
  7 20  1  0
 10 21  1  0
 12 22  1  0
 14 23  1  0
M  ISO  8  16  14  17   8  18   8  19   8  20   9  21  14  22  14  23  14
M  END
>  <minimizedAffinity>  (1) 
-4.42762709

>  <minimizedRMSD>  (1) 
6.48573828

$$$$
