
     RDKit          3D

 17 18  0  0  0  0  0  0  0  0999 V2000
   37.3360   30.3840   50.9070 C   0  0  0  0  0  0  0  0  0  0  0  0
   37.0070   30.9930   49.6780 C   0  0  0  0  0  0  0  0  0  0  0  0
   35.7850   30.6980   49.0760 C   0  0  0  0  0  0  0  0  0  0  0  0
   34.9620   29.8270   49.7130 N   0  0  0  0  0  0  0  0  0  0  0  0
   35.2890   29.2520   50.8880 C   0  0  0  0  0  0  0  0  0  0  0  0
   36.4670   29.5320   51.4750 N   0  0  0  0  0  0  0  0  0  0  0  0
   37.9130   31.9220   49.0210 C   0  0  0  0  0  0  0  0  0  0  0  0
   38.3480   33.1250   49.5430 C   0  0  0  0  0  0  0  0  0  0  0  0
   39.1910   33.7140   48.6220 C   0  0  0  0  0  0  0  0  0  0  0  0
   39.2280   32.8180   47.5640 C   0  0  0  0  0  0  0  0  0  0  0  0
   38.4670   31.7780   47.8290 O   0  0  0  0  0  0  0  0  0  0  0  0
   38.2962   30.6050   51.3961 H   0  0  0  0  0  0  0  0  0  0  0  0
   35.4976   31.1553   48.1177 H   0  0  0  0  0  0  0  0  0  0  0  0
   34.5902   28.5514   51.3685 H   0  0  0  0  0  0  0  0  0  0  0  0
   38.0707   33.5413   50.5227 H   0  0  0  0  0  0  0  0  0  0  0  0
   39.7153   34.6772   48.7079 H   0  0  0  0  0  0  0  0  0  0  0  0
   39.8080   32.9565   46.6397 H   0  0  0  0  0  0  0  0  0  0  0  0
  1  6  2  0
  2  1  1  0
  3  2  2  0
  3  4  1  0
  4  5  2  0
  5  6  1  0
  7  8  2  0
  7  2  1  0
  9  8  1  0
 10 11  1  0
 10  9  2  0
 11  7  1  0
  1 12  1  0
  3 13  1  0
  5 14  1  0
  8 15  1  0
  9 16  1  0
 10 17  1  0
M  ISO  6  12  14  13  14  14  14  15  14  16  14  17  14
M  END
>  <minimizedAffinity>  (1) 
-4.31858778

>  <minimizedRMSD>  (1) 
2.25599527

$$$$
