
     RDKit          3D

 15 16  0  0  0  0  0  0  0  0999 V2000
   37.4870   30.5350   50.9090 C   0  0  0  0  0  0  0  0  0  0  0  0
   37.0750   31.1570   49.7090 C   0  0  0  0  0  0  0  0  0  0  0  0
   35.8420   30.8030   49.1550 C   0  0  0  0  0  0  0  0  0  0  0  0
   35.0980   29.8690   49.8080 N   0  0  0  0  0  0  0  0  0  0  0  0
   35.5130   29.2880   50.9530 C   0  0  0  0  0  0  0  0  0  0  0  0
   36.6980   29.6150   51.5030 N   0  0  0  0  0  0  0  0  0  0  0  0
   37.9880   32.1290   49.1490 C   0  0  0  0  0  0  0  0  0  0  0  0
   38.5990   32.0610   47.9620 N   0  0  0  0  0  0  0  0  0  0  0  0
   39.3540   33.1220   47.7920 O   0  0  0  0  0  0  0  0  0  0  0  0
   39.2570   33.9120   48.8600 C   0  0  0  0  0  0  0  0  0  0  0  0
   38.4080   33.2930   49.7020 N   0  0  0  0  0  0  0  0  0  0  0  0
   38.4540   30.8015   51.3606 H   0  0  0  0  0  0  0  0  0  0  0  0
   35.4846   31.2638   48.2223 H   0  0  0  0  0  0  0  0  0  0  0  0
   34.8753   28.5378   51.4434 H   0  0  0  0  0  0  0  0  0  0  0  0
   39.7664   34.8735   49.0212 H   0  0  0  0  0  0  0  0  0  0  0  0
  1  6  2  0
  2  1  1  0
  3  2  2  0
  3  4  1  0
  4  5  2  0
  5  6  1  0
  7 11  1  0
  7  2  1  0
  8  7  2  0
  9  8  1  0
  9 10  1  0
 10 11  2  0
  1 12  1  0
  3 13  1  0
  5 14  1  0
 10 15  1  0
M  ISO  4  12  14  13  14  14  14  15  14
M  END
>  <minimizedAffinity>  (1) 
-4.176548

>  <minimizedRMSD>  (1) 
2.18208766

$$$$
