
     RDKit          3D

 16 17  0  0  0  0  0  0  0  0999 V2000
   37.3490   30.3930   50.9440 C   0  0  0  0  0  0  0  0  0  0  0  0
   37.1190   31.0500   49.7270 C   0  0  0  0  0  0  0  0  0  0  0  0
   35.9130   30.7580   49.0500 C   0  0  0  0  0  0  0  0  0  0  0  0
   35.0500   29.8740   49.6010 N   0  0  0  0  0  0  0  0  0  0  0  0
   35.3070   29.2580   50.7810 C   0  0  0  0  0  0  0  0  0  0  0  0
   36.4610   29.5290   51.4400 N   0  0  0  0  0  0  0  0  0  0  0  0
   37.9890   31.9850   49.1050 N   0  0  0  0  0  0  0  0  0  0  0  0
   38.5980   31.9620   47.9250 C   0  0  0  0  0  0  0  0  0  0  0  0
   39.3230   33.0830   47.7880 N   0  0  0  0  0  0  0  0  0  0  0  0
   39.1550   33.8200   48.9190 C   0  0  0  0  0  0  0  0  0  0  0  0
   38.3170   33.1210   49.7360 N   0  0  0  0  0  0  0  0  0  0  0  0
   38.2771   30.5931   51.4995 H   0  0  0  0  0  0  0  0  0  0  0  0
   35.6799   31.2420   48.0901 H   0  0  0  0  0  0  0  0  0  0  0  0
   34.5843   28.5431   51.2012 H   0  0  0  0  0  0  0  0  0  0  0  0
   38.5207   31.1554   47.1811 H   0  0  0  0  0  0  0  0  0  0  0  0
   39.6105   34.7979   49.1342 H   0  0  0  0  0  0  0  0  0  0  0  0
  1  6  2  0
  2  1  1  0
  3  4  1  0
  3  2  2  0
  4  5  2  0
  5  6  1  0
  7  2  1  0
  7 11  1  0
  8  7  1  0
  9  8  2  0
  9 10  1  0
 10 11  2  0
  1 12  1  0
  3 13  1  0
  5 14  1  0
  8 15  1  0
 10 16  1  0
M  ISO  5  12  14  13  14  14  14  15  14  16  14
M  END
>  <minimizedAffinity>  (1) 
-3.91550994

>  <minimizedRMSD>  (1) 
1.98149729

$$$$
