
     RDKit          3D

 13 13  0  0  0  0  0  0  0  0999 V2000
   35.4200   29.0850   50.2700 C   0  0  0  0  0  0  0  0  0  0  0  0
   36.3940   30.0340   49.9310 C   0  0  0  0  0  0  0  0  0  0  0  0
   36.2640   30.7060   48.7170 C   0  0  0  0  0  0  0  0  0  0  0  0
   35.1920   30.3830   47.9520 N   0  0  0  0  0  0  0  0  0  0  0  0
   34.2680   29.4700   48.2920 C   0  0  0  0  0  0  0  0  0  0  0  0
   34.3730   28.8040   49.4690 N   0  0  0  0  0  0  0  0  0  0  0  0
   37.5030   30.2900   50.8460 C   0  0  0  0  0  0  0  0  0  0  0  0
   37.3180   30.0720   52.0530 O   0  0  0  0  0  0  0  0  0  0  0  0
   38.6900   30.7590   50.3000 O   0  0  0  0  0  0  0  0  0  0  0  0
   35.5135   28.5491   51.2261 H   0  0  0  0  0  0  0  0  0  0  0  0
   36.9955   31.4618   48.3950 H   0  0  0  0  0  0  0  0  0  0  0  0
   33.4256   29.2621   47.6158 H   0  0  0  0  0  0  0  0  0  0  0  0
   39.4654   30.9448   50.8868 H   0  0  0  0  0  0  0  0  0  0  0  0
  2  1  2  0
  2  7  1  0
  3  2  1  0
  4  5  1  0
  4  3  2  0
  5  6  2  0
  6  1  1  0
  7  8  2  0
  9  7  1  0
  1 10  1  0
  3 11  1  0
  5 12  1  0
  9 13  1  0
M  ISO  4  10  14  11  14  12  14  13   3
M  END
>  <minimizedAffinity>  (1) 
-3.82041001

>  <minimizedRMSD>  (1) 
2.43601418

$$$$
