
     RDKit          3D

 11 11  0  0  0  0  0  0  0  0999 V2000
   36.8860   29.8880   51.3330 C   0  0  0  0  0  0  0  0  0  0  0  0
   37.5810   30.2190   50.1580 C   0  0  0  0  0  0  0  0  0  0  0  0
   37.0150   29.8820   48.9290 C   0  0  0  0  0  0  0  0  0  0  0  0
   35.8140   29.2470   48.9340 N   0  0  0  0  0  0  0  0  0  0  0  0
   35.1710   28.9410   50.0750 C   0  0  0  0  0  0  0  0  0  0  0  0
   35.7050   29.2610   51.2690 N   0  0  0  0  0  0  0  0  0  0  0  0
   38.7910   30.8660   50.3330 O   0  0  0  0  0  0  0  0  0  0  0  0
   37.3152   30.1458   52.3125 H   0  0  0  0  0  0  0  0  0  0  0  0
   37.5251   30.1228   47.9847 H   0  0  0  0  0  0  0  0  0  0  0  0
   34.2005   28.4249   50.0324 H   0  0  0  0  0  0  0  0  0  0  0  0
   39.3311   31.1272   49.5455 H   0  0  0  0  0  0  0  0  0  0  0  0
  2  7  1  0
  2  1  2  0
  3  4  2  0
  3  2  1  0
  4  5  1  0
  5  6  2  0
  6  1  1  0
  1  8  1  0
  3  9  1  0
  5 10  1  0
  7 11  1  0
M  ISO  4   8  14   9  14  10  14  11   3
M  END
>  <minimizedAffinity>  (1) 
-3.20320892

>  <minimizedRMSD>  (1) 
0.782991469

$$$$
