
     RDKit          3D

 12 12  0  0  0  0  0  0  0  0999 V2000
   36.6980   29.7870   51.3010 C   0  0  0  0  0  0  0  0  0  0  0  0
   37.3860   30.1160   50.1250 C   0  0  0  0  0  0  0  0  0  0  0  0
   36.8320   29.8030   48.8840 C   0  0  0  0  0  0  0  0  0  0  0  0
   35.6250   29.1790   48.8850 N   0  0  0  0  0  0  0  0  0  0  0  0
   34.9760   28.8700   50.0250 C   0  0  0  0  0  0  0  0  0  0  0  0
   35.5040   29.1680   51.2180 N   0  0  0  0  0  0  0  0  0  0  0  0
   38.6430   30.7690   50.2550 N   0  0  0  0  0  0  0  0  0  0  0  0
   37.1289   30.0319   52.2830 H   0  0  0  0  0  0  0  0  0  0  0  0
   37.3495   30.0505   47.9454 H   0  0  0  0  0  0  0  0  0  0  0  0
   33.9995   28.3662   49.9742 H   0  0  0  0  0  0  0  0  0  0  0  0
   39.1788   31.0269   49.4140 H   0  0  0  0  0  0  0  0  0  0  0  0
   39.0174   30.9839   51.1902 H   0  0  0  0  0  0  0  0  0  0  0  0
  2  7  1  0
  2  1  2  0
  3  4  2  0
  3  2  1  0
  4  5  1  0
  5  6  2  0
  6  1  1  0
  1  8  1  0
  3  9  1  0
  5 10  1  0
  7 11  1  0
  7 12  1  0
M  ISO  3   8  14   9  14  10  14
M  END
>  <minimizedAffinity>  (1) 
-3.15175056

>  <minimizedRMSD>  (1) 
0.981573403

$$$$
