
     RDKit          3D

 17 18  0  0  0  0  0  0  0  0999 V2000
   36.4790   30.1780   50.5060 C   0  0  0  0  0  0  0  0  0  0  0  0
   36.4560   30.7740   49.2390 C   0  0  0  0  0  0  0  0  0  0  0  0
   35.4110   30.4320   48.3830 C   0  0  0  0  0  0  0  0  0  0  0  0
   34.4780   29.5400   48.8220 N   0  0  0  0  0  0  0  0  0  0  0  0
   34.5280   28.9840   50.0460 C   0  0  0  0  0  0  0  0  0  0  0  0
   35.5220   29.3000   50.8850 N   0  0  0  0  0  0  0  0  0  0  0  0
   37.4490   31.6820   48.8560 N   0  0  0  0  0  0  0  0  0  0  0  0
   38.1700   31.6000   47.7540 N   0  0  0  0  0  0  0  0  0  0  0  0
   39.0410   32.6040   47.6520 C   0  0  0  0  0  0  0  0  0  0  0  0
   38.8310   33.3590   48.7870 C   0  0  0  0  0  0  0  0  0  0  0  0
   37.8260   32.7680   49.5370 C   0  0  0  0  0  0  0  0  0  0  0  0
   37.2899   30.4283   51.2058 H   0  0  0  0  0  0  0  0  0  0  0  0
   35.3405   30.8713   47.3770 H   0  0  0  0  0  0  0  0  0  0  0  0
   33.7518   28.2695   50.3575 H   0  0  0  0  0  0  0  0  0  0  0  0
   39.7645   32.7888   46.8443 H   0  0  0  0  0  0  0  0  0  0  0  0
   39.3721   34.2789   49.0533 H   0  0  0  0  0  0  0  0  0  0  0  0
   37.4214   33.1211   50.4970 H   0  0  0  0  0  0  0  0  0  0  0  0
  1  6  2  0
  2  1  1  0
  3  4  1  0
  3  2  2  0
  4  5  2  0
  5  6  1  0
  7  2  1  0
  7 11  1  0
  8  7  1  0
  9  8  2  0
  9 10  1  0
 10 11  2  0
  1 12  1  0
  3 13  1  0
  5 14  1  0
  9 15  1  0
 10 16  1  0
 11 17  1  0
M  ISO  6  12  14  13  14  14  14  15  14  16  14  17  14
M  END
>  <minimizedAffinity>  (1) 
-3.98602366

>  <minimizedRMSD>  (1) 
2.42105889

$$$$
