
     RDKit          3D

 20 21  0  0  0  0  0  0  0  0999 V2000
   38.1170   31.1770   47.9130 N   0  0  0  0  0  0  0  0  0  0  0  0
   38.3930   30.6160   46.7400 N   0  0  0  0  0  0  0  0  0  0  0  0
   39.1970   31.4040   46.0150 C   0  0  0  0  0  0  0  0  0  0  0  0
   39.4190   32.5180   46.8120 C   0  0  0  0  0  0  0  0  0  0  0  0
   38.7310   32.3500   47.9940 C   0  0  0  0  0  0  0  0  0  0  0  0
   37.8470   29.8930   49.9540 C   0  0  0  0  0  0  0  0  0  0  0  0
   37.3060   30.5950   48.8840 C   0  0  0  0  0  0  0  0  0  0  0  0
   35.9070   30.6920   48.8300 C   0  0  0  0  0  0  0  0  0  0  0  0
   35.1800   30.0990   49.8150 N   0  0  0  0  0  0  0  0  0  0  0  0
   35.7460   29.4240   50.8390 C   0  0  0  0  0  0  0  0  0  0  0  0
   37.0860   29.3180   50.9120 N   0  0  0  0  0  0  0  0  0  0  0  0
   38.7410   33.3520   49.0880 C   0  0  0  0  0  0  0  0  0  0  0  0
   37.4550   33.7600   49.4460 F   0  0  0  0  0  0  0  0  0  0  0  0
   39.4780   34.4660   48.7900 F   0  0  0  0  0  0  0  0  0  0  0  0
   39.2990   32.7940   50.2410 F   0  0  0  0  0  0  0  0  0  0  0  0
   39.5946   31.2105   45.0078 H   0  0  0  0  0  0  0  0  0  0  0  0
   40.0386   33.3870   46.5456 H   0  0  0  0  0  0  0  0  0  0  0  0
   38.9409   29.8012   50.0246 H   0  0  0  0  0  0  0  0  0  0  0  0
   35.4107   31.2341   48.0115 H   0  0  0  0  0  0  0  0  0  0  0  0
   35.1135   28.9621   51.6114 H   0  0  0  0  0  0  0  0  0  0  0  0
  1  5  1  0
  1  7  1  0
  2  1  1  0
  3  2  2  0
  3  4  1  0
  4  5  2  0
  5 12  1  0
  6 11  2  0
  7  6  1  0
  8  7  2  0
  8  9  1  0
  9 10  2  0
 10 11  1  0
 12 13  1  0
 12 15  1  0
 14 12  1  0
  3 16  1  0
  4 17  1  0
  6 18  1  0
  8 19  1  0
 10 20  1  0
M  ISO  5  16  14  17  14  18  14  19  14  20  14
M  END
>  <minimizedAffinity>  (1) 
-5.38443279

>  <minimizedRMSD>  (1) 
1.81127119

$$$$
