
     RDKit          3D

 31 34  0  0  0  0  0  0  0  0999 V2000
   37.3560   30.7370   43.7540 N   0  0  0  0  0  0  0  0  0  0  0  0
   38.1510   30.1840   42.8240 N   0  0  0  0  0  0  0  0  0  0  0  0
   39.1980   29.5940   43.3910 C   0  0  0  0  0  0  0  0  0  0  0  0
   39.0080   29.8160   44.7560 C   0  0  0  0  0  0  0  0  0  0  0  0
   37.8330   30.5470   44.9680 C   0  0  0  0  0  0  0  0  0  0  0  0
   37.4410   30.9020   46.3040 C   0  0  0  0  0  0  0  0  0  0  0  0
   36.3960   30.3530   47.0060 C   0  0  0  0  0  0  0  0  0  0  0  0
   36.2640   30.8260   48.2500 N   0  0  0  0  0  0  0  0  0  0  0  0
   37.2580   31.7430   48.4190 C   0  0  0  0  0  0  0  0  0  0  0  0
   37.6030   32.5400   49.5060 C   0  0  0  0  0  0  0  0  0  0  0  0
   38.6790   33.3900   49.3970 C   0  0  0  0  0  0  0  0  0  0  0  0
   39.3940   33.4480   48.2410 C   0  0  0  0  0  0  0  0  0  0  0  0
   38.9970   32.6330   47.2100 C   0  0  0  0  0  0  0  0  0  0  0  0
   37.9580   31.7660   47.2170 C   0  0  0  0  0  0  0  0  0  0  0  0
   34.9160   30.7170   43.5370 C   0  0  0  0  0  0  0  0  0  0  0  0
   36.1560   31.3870   43.4300 C   0  0  0  0  0  0  0  0  0  0  0  0
   36.1360   32.7180   42.9880 C   0  0  0  0  0  0  0  0  0  0  0  0
   34.9220   33.2750   42.6930 N   0  0  0  0  0  0  0  0  0  0  0  0
   33.7540   32.5930   42.8120 C   0  0  0  0  0  0  0  0  0  0  0  0
   33.7490   31.3070   43.2360 N   0  0  0  0  0  0  0  0  0  0  0  0
   40.0221   29.0562   42.8994 H   0  0  0  0  0  0  0  0  0  0  0  0
   39.6840   29.4669   45.5505 H   0  0  0  0  0  0  0  0  0  0  0  0
   35.7259   29.5906   46.5820 H   0  0  0  0  0  0  0  0  0  0  0  0
   35.5526   30.5518   48.9426 H   0  0  0  0  0  0  0  0  0  0  0  0
   37.0234   32.4911   50.4396 H   0  0  0  0  0  0  0  0  0  0  0  0
   38.9627   34.0259   50.2486 H   0  0  0  0  0  0  0  0  0  0  0  0
   40.2570   34.1220   48.1364 H   0  0  0  0  0  0  0  0  0  0  0  0
   39.5845   32.6907   46.2818 H   0  0  0  0  0  0  0  0  0  0  0  0
   34.9073   29.6719   43.8802 H   0  0  0  0  0  0  0  0  0  0  0  0
   37.0664   33.2952   42.8820 H   0  0  0  0  0  0  0  0  0  0  0  0
   32.8045   33.0890   42.5621 H   0  0  0  0  0  0  0  0  0  0  0  0
  1  5  1  0
  2  3  2  0
  2  1  1  0
  3  4  1  0
  4  5  2  0
  5  6  1  0
  6  7  2  0
  6 14  1  0
  7  8  1  0
  8  9  1  0
  9 10  2  0
 11 10  1  0
 12 11  2  0
 13 14  2  0
 13 12  1  0
 14  9  1  0
 16 15  2  0
 16  1  1  0
 17 16  1  0
 18 19  1  0
 18 17  2  0
 19 20  2  0
 20 15  1  0
  3 21  1  0
  4 22  1  0
  7 23  1  0
  8 24  1  0
 10 25  1  0
 11 26  1  0
 12 27  1  0
 13 28  1  0
 15 29  1  0
 17 30  1  0
 19 31  1  0
M  ISO  8  21  14  22  14  23  14  24   9  25  14  26  14  27  14  28  14
M  ISO  3  29  14  30  14  31  14
M  END
>  <minimizedAffinity>  (1) 
-5.24089384

>  <minimizedRMSD>  (1) 
5.79716015

$$$$
