
     RDKit          3D

 20 21  0  0  0  0  0  0  0  0999 V2000
   38.1790   31.0530   47.7620 N   0  0  0  0  0  0  0  0  0  0  0  0
   38.5970   30.4610   46.6740 N   0  0  0  0  0  0  0  0  0  0  0  0
   39.3940   31.2250   45.9430 C   0  0  0  0  0  0  0  0  0  0  0  0
   39.4850   32.4010   46.6350 C   0  0  0  0  0  0  0  0  0  0  0  0
   38.7170   32.2660   47.7650 C   0  0  0  0  0  0  0  0  0  0  0  0
   37.8370   29.9580   49.9060 C   0  0  0  0  0  0  0  0  0  0  0  0
   37.3360   30.5120   48.7230 C   0  0  0  0  0  0  0  0  0  0  0  0
   35.9420   30.5030   48.5360 C   0  0  0  0  0  0  0  0  0  0  0  0
   35.1670   29.9570   49.5170 N   0  0  0  0  0  0  0  0  0  0  0  0
   35.6990   29.4320   50.6500 C   0  0  0  0  0  0  0  0  0  0  0  0
   37.0150   29.4330   50.8410 N   0  0  0  0  0  0  0  0  0  0  0  0
   38.6050   33.3660   48.7100 C   0  0  0  0  0  0  0  0  0  0  0  0
   37.7080   33.5180   49.5760 O   0  0  0  0  0  0  0  0  0  0  0  0
   39.4130   34.4720   48.8950 O   0  0  0  0  0  0  0  0  0  0  0  0
   39.8771   30.9697   44.9883 H   0  0  0  0  0  0  0  0  0  0  0  0
   40.0647   33.2885   46.3414 H   0  0  0  0  0  0  0  0  0  0  0  0
   38.9233   29.9497   50.0786 H   0  0  0  0  0  0  0  0  0  0  0  0
   35.4901   30.9238   47.6257 H   0  0  0  0  0  0  0  0  0  0  0  0
   35.0366   29.0025   51.4160 H   0  0  0  0  0  0  0  0  0  0  0  0
   39.1903   35.1363   49.5945 H   0  0  0  0  0  0  0  0  0  0  0  0
  1  5  1  0
  1  7  1  0
  2  1  1  0
  3  4  1  0
  3  2  2  0
  4  5  2  0
  5 12  1  0
  6 11  2  0
  7  6  1  0
  8  7  2  0
  8  9  1  0
  9 10  2  0
 10 11  1  0
 12 14  1  0
 12 13  2  0
  3 15  1  0
  4 16  1  0
  6 17  1  0
  8 18  1  0
 10 19  1  0
 14 20  1  0
M  ISO  6  15  14  16  14  17  14  18  14  19  14  20   3
M  END
>  <minimizedAffinity>  (1) 
-4.89113998

>  <minimizedRMSD>  (1) 
1.87360024

$$$$
