
     RDKit          3D

 23 25  0  0  0  0  0  0  0  0999 V2000
   38.0890   31.8500   47.6250 N   0  0  0  0  0  0  0  0  0  0  0  0
   38.8630   32.8540   47.9910 N   0  0  0  0  0  0  0  0  0  0  0  0
   38.5570   33.2740   49.2280 C   0  0  0  0  0  0  0  0  0  0  0  0
   37.5150   32.4550   49.6310 C   0  0  0  0  0  0  0  0  0  0  0  0
   37.2420   31.5710   48.6090 C   0  0  0  0  0  0  0  0  0  0  0  0
   39.3730   30.6770   45.9210 C   0  0  0  0  0  0  0  0  0  0  0  0
   38.1630   31.1990   46.3990 C   0  0  0  0  0  0  0  0  0  0  0  0
   37.0480   31.0320   45.5840 C   0  0  0  0  0  0  0  0  0  0  0  0
   37.1690   30.3890   44.3940 N   0  0  0  0  0  0  0  0  0  0  0  0
   38.3590   29.9000   43.9710 C   0  0  0  0  0  0  0  0  0  0  0  0
   39.4610   30.0420   44.7320 N   0  0  0  0  0  0  0  0  0  0  0  0
   36.2190   30.5870   48.7050 N   0  0  0  0  0  0  0  0  0  0  0  0
   36.5810   29.4380   49.3390 C   0  0  0  0  0  0  0  0  0  0  0  0
   35.5450   28.5780   49.3740 N   0  0  0  0  0  0  0  0  0  0  0  0
   34.5220   29.2160   48.7460 C   0  0  0  0  0  0  0  0  0  0  0  0
   34.9350   30.4320   48.3420 N   0  0  0  0  0  0  0  0  0  0  0  0
   39.0292   34.0887   49.7965 H   0  0  0  0  0  0  0  0  0  0  0  0
   36.9952   32.5019   50.5993 H   0  0  0  0  0  0  0  0  0  0  0  0
   40.2798   30.7880   46.5337 H   0  0  0  0  0  0  0  0  0  0  0  0
   36.0695   31.4203   45.9031 H   0  0  0  0  0  0  0  0  0  0  0  0
   38.4257   29.3845   43.0015 H   0  0  0  0  0  0  0  0  0  0  0  0
   37.5769   29.2403   49.7621 H   0  0  0  0  0  0  0  0  0  0  0  0
   33.5141   28.8032   48.5920 H   0  0  0  0  0  0  0  0  0  0  0  0
  1  2  1  0
  1  5  1  0
  2  3  2  0
  3  4  1  0
  5 12  1  0
  5  4  2  0
  6  7  2  0
  7  1  1  0
  8  7  1  0
  9  8  2  0
 10  9  1  0
 10 11  2  0
 11  6  1  0
 12 13  1  0
 13 14  2  0
 15 14  1  0
 16 12  1  0
 16 15  2  0
  3 17  1  0
  4 18  1  0
  6 19  1  0
  8 20  1  0
 10 21  1  0
 13 22  1  0
 15 23  1  0
M  ISO  7  17  14  18  14  19  14  20  14  21  14  22  14  23  14
M  END
>  <minimizedAffinity>  (1) 
-4.77753735

>  <minimizedRMSD>  (1) 
4.57077551

$$$$
