
     RDKit          3D

 27 29  0  0  0  0  0  0  0  0999 V2000
   36.4210   30.4090   46.9250 N   0  0  0  0  0  0  0  0  0  0  0  0
   36.0690   29.8840   45.7740 N   0  0  0  0  0  0  0  0  0  0  0  0
   36.6910   30.4710   44.7450 C   0  0  0  0  0  0  0  0  0  0  0  0
   37.4910   31.4390   45.3280 C   0  0  0  0  0  0  0  0  0  0  0  0
   37.3000   31.3750   46.6910 C   0  0  0  0  0  0  0  0  0  0  0  0
   36.7510   29.3340   49.0860 C   0  0  0  0  0  0  0  0  0  0  0  0
   35.9540   30.0220   48.1730 C   0  0  0  0  0  0  0  0  0  0  0  0
   34.6440   30.3080   48.5820 C   0  0  0  0  0  0  0  0  0  0  0  0
   34.2230   29.9140   49.8090 N   0  0  0  0  0  0  0  0  0  0  0  0
   35.0370   29.2470   50.6580 C   0  0  0  0  0  0  0  0  0  0  0  0
   36.2950   28.9570   50.3020 N   0  0  0  0  0  0  0  0  0  0  0  0
   37.9900   32.2520   47.5750 N   0  0  0  0  0  0  0  0  0  0  0  0
   37.6190   32.4840   48.8480 C   0  0  0  0  0  0  0  0  0  0  0  0
   38.3740   33.3640   49.6190 C   0  0  0  0  0  0  0  0  0  0  0  0
   39.4590   33.9460   49.0250 C   0  0  0  0  0  0  0  0  0  0  0  0
   40.1380   34.7390   49.7210 O   0  0  0  0  0  0  0  0  0  0  0  0
   39.8510   33.7320   47.7570 N   0  0  0  0  0  0  0  0  0  0  0  0
   39.0870   32.8700   47.0500 C   0  0  0  0  0  0  0  0  0  0  0  0
   39.4390   32.6570   45.8620 O   0  0  0  0  0  0  0  0  0  0  0  0
   36.5895   30.2368   43.6750 H   0  0  0  0  0  0  0  0  0  0  0  0
   38.1590   32.1341   44.7983 H   0  0  0  0  0  0  0  0  0  0  0  0
   37.7867   29.0892   48.8079 H   0  0  0  0  0  0  0  0  0  0  0  0
   33.9611   30.8494   47.9108 H   0  0  0  0  0  0  0  0  0  0  0  0
   34.6639   28.9409   51.6465 H   0  0  0  0  0  0  0  0  0  0  0  0
   36.7342   31.9867   49.2721 H   0  0  0  0  0  0  0  0  0  0  0  0
   38.1081   33.5821   50.6639 H   0  0  0  0  0  0  0  0  0  0  0  0
   40.6777   34.1938   47.3517 H   0  0  0  0  0  0  0  0  0  0  0  0
  1  7  1  0
  2  1  1  0
  3  4  1  0
  3  2  2  0
  4  5  2  0
  5  1  1  0
  5 12  1  0
  6 11  2  0
  7  8  2  0
  7  6  1  0
  8  9  1  0
  9 10  2  0
 11 10  1  0
 12 13  1  0
 13 14  2  0
 15 14  1  0
 15 16  2  0
 17 15  1  0
 18 12  1  0
 18 17  1  0
 19 18  2  0
  3 20  1  0
  4 21  1  0
  6 22  1  0
  8 23  1  0
 10 24  1  0
 13 25  1  0
 14 26  1  0
 17 27  1  0
M  ISO  8  20  14  21  14  22  14  23  14  24  14  25  14  26  14  27   9
M  END
>  <minimizedAffinity>  (1) 
-4.62795019

>  <minimizedRMSD>  (1) 
3.55007744

$$$$
