
     RDKit          3D

 30 32  0  0  0  0  0  0  0  0999 V2000
   36.7800   30.6910   47.1700 N   0  0  0  0  0  0  0  0  0  0  0  0
   36.3410   30.3630   45.9720 N   0  0  0  0  0  0  0  0  0  0  0  0
   37.0110   30.9820   45.0050 C   0  0  0  0  0  0  0  0  0  0  0  0
   37.9440   31.7580   45.6720 C   0  0  0  0  0  0  0  0  0  0  0  0
   37.7830   31.5610   47.0340 C   0  0  0  0  0  0  0  0  0  0  0  0
   37.0770   29.4800   49.2590 C   0  0  0  0  0  0  0  0  0  0  0  0
   36.2840   30.2100   48.3810 C   0  0  0  0  0  0  0  0  0  0  0  0
   34.9550   30.4470   48.7630 C   0  0  0  0  0  0  0  0  0  0  0  0
   34.5150   29.9570   49.9560 N   0  0  0  0  0  0  0  0  0  0  0  0
   35.3070   29.2580   50.7780 C   0  0  0  0  0  0  0  0  0  0  0  0
   36.5750   29.0210   50.4350 N   0  0  0  0  0  0  0  0  0  0  0  0
   38.6230   32.2410   48.0530 C   0  0  0  0  0  0  0  0  0  0  0  0
   39.4630   33.3500   47.5000 C   0  0  0  0  0  0  0  0  0  0  0  0
   39.8680   34.0660   48.7920 C   0  0  0  0  0  0  0  0  0  0  0  0
   38.5350   34.1710   49.5080 C   0  0  0  0  0  0  0  0  0  0  0  0
   37.7780   32.9080   49.1170 C   0  0  0  0  0  0  0  0  0  0  0  0
   36.8585   30.8969   43.9189 H   0  0  0  0  0  0  0  0  0  0  0  0
   38.6867   32.4185   45.2007 H   0  0  0  0  0  0  0  0  0  0  0  0
   38.1250   29.2712   48.9980 H   0  0  0  0  0  0  0  0  0  0  0  0
   34.2792   31.0190   48.1102 H   0  0  0  0  0  0  0  0  0  0  0  0
   34.9141   28.8800   51.7334 H   0  0  0  0  0  0  0  0  0  0  0  0
   39.2533   31.4305   48.4478 H   0  0  0  0  0  0  0  0  0  0  0  0
   40.3390   32.9642   46.9580 H   0  0  0  0  0  0  0  0  0  0  0  0
   38.9522   33.9879   46.7637 H   0  0  0  0  0  0  0  0  0  0  0  0
   40.5901   33.4720   49.3715 H   0  0  0  0  0  0  0  0  0  0  0  0
   40.3693   35.0320   48.6320 H   0  0  0  0  0  0  0  0  0  0  0  0
   38.6831   34.2116   50.5972 H   0  0  0  0  0  0  0  0  0  0  0  0
   37.9874   35.0839   49.2308 H   0  0  0  0  0  0  0  0  0  0  0  0
   36.7862   33.1634   48.7157 H   0  0  0  0  0  0  0  0  0  0  0  0
   37.6145   32.2471   49.9810 H   0  0  0  0  0  0  0  0  0  0  0  0
  1  7  1  0
  2  1  1  0
  3  4  1  0
  3  2  2  0
  4  5  2  0
  5  1  1  0
  5 12  1  0
  6 11  2  0
  7  8  2  0
  7  6  1  0
  8  9  1  0
  9 10  2  0
 11 10  1  0
 12 16  1  0
 13 12  1  0
 13 14  1  0
 14 15  1  0
 16 15  1  0
  3 17  1  0
  4 18  1  0
  6 19  1  0
  8 20  1  0
 10 21  1  0
 12 22  1  0
 13 23  1  0
 13 24  1  0
 14 25  1  0
 14 26  1  0
 15 27  1  0
 15 28  1  0
 16 29  1  0
 16 30  1  0
M  ISO  8  17  14  18  14  19  14  20  14  21  14  22  13  23  13  24  13
M  ISO  6  25  13  26  13  27  13  28  13  29  13  30  13
M  END
>  <minimizedAffinity>  (1) 
-4.56402969

>  <minimizedRMSD>  (1) 
2.84520864

$$$$
