
     RDKit          3D

 19 20  0  0  0  0  0  0  0  0999 V2000
   37.9850   31.1470   48.1150 N   0  0  0  0  0  0  0  0  0  0  0  0
   38.3360   30.5870   46.9620 N   0  0  0  0  0  0  0  0  0  0  0  0
   39.1000   31.4050   46.2370 C   0  0  0  0  0  0  0  0  0  0  0  0
   39.2220   32.5540   47.0120 C   0  0  0  0  0  0  0  0  0  0  0  0
   38.5150   32.3600   48.1760 C   0  0  0  0  0  0  0  0  0  0  0  0
   35.7870   30.5660   48.9680 C   0  0  0  0  0  0  0  0  0  0  0  0
   37.1920   30.5400   49.0790 C   0  0  0  0  0  0  0  0  0  0  0  0
   37.7170   29.8900   50.1800 C   0  0  0  0  0  0  0  0  0  0  0  0
   36.8900   29.3170   51.0890 N   0  0  0  0  0  0  0  0  0  0  0  0
   35.5420   29.3630   50.9480 C   0  0  0  0  0  0  0  0  0  0  0  0
   34.9890   29.9870   49.8890 N   0  0  0  0  0  0  0  0  0  0  0  0
   38.4310   33.3730   49.2210 C   0  0  0  0  0  0  0  0  0  0  0  0
   39.4220   34.0120   49.6800 O   0  0  0  0  0  0  0  0  0  0  0  0
   39.5369   31.2137   45.2458 H   0  0  0  0  0  0  0  0  0  0  0  0
   39.7853   33.4592   46.7413 H   0  0  0  0  0  0  0  0  0  0  0  0
   35.3283   31.0727   48.1061 H   0  0  0  0  0  0  0  0  0  0  0  0
   38.8069   29.8375   50.3190 H   0  0  0  0  0  0  0  0  0  0  0  0
   34.8965   28.8886   51.7019 H   0  0  0  0  0  0  0  0  0  0  0  0
   37.4385   33.5971   49.6390 H   0  0  0  0  0  0  0  0  0  0  0  0
  1  5  1  0
  1  7  1  0
  2  1  1  0
  3  2  2  0
  3  4  1  0
  4  5  2  0
  5 12  1  0
  6  7  2  0
  6 11  1  0
  7  8  1  0
  8  9  2  0
 10  9  1  0
 11 10  2  0
 12 13  2  0
  3 14  1  0
  4 15  1  0
  6 16  1  0
  8 17  1  0
 10 18  1  0
 12 19  1  0
M  ISO  6  14  14  15  14  16  14  17  14  18  14  19   6
M  END
>  <minimizedAffinity>  (1) 
-4.54690742

>  <minimizedRMSD>  (1) 
2.06566

$$$$
