
     RDKit          3D

 25 27  0  0  0  0  0  0  0  0999 V2000
   38.7750   32.0310   44.6430 N   0  0  0  0  0  0  0  0  0  0  0  0
   39.4960   32.7840   43.8120 N   0  0  0  0  0  0  0  0  0  0  0  0
   40.2840   33.6220   44.5080 C   0  0  0  0  0  0  0  0  0  0  0  0
   40.0130   33.3490   45.8200 C   0  0  0  0  0  0  0  0  0  0  0  0
   39.0530   32.3360   45.8990 C   0  0  0  0  0  0  0  0  0  0  0  0
   38.3160   29.7840   43.8150 C   0  0  0  0  0  0  0  0  0  0  0  0
   37.8700   31.0620   44.2090 C   0  0  0  0  0  0  0  0  0  0  0  0
   36.4900   31.3170   44.1380 C   0  0  0  0  0  0  0  0  0  0  0  0
   35.6660   30.3290   43.6960 N   0  0  0  0  0  0  0  0  0  0  0  0
   36.1230   29.1270   43.3290 C   0  0  0  0  0  0  0  0  0  0  0  0
   37.4410   28.8410   43.3830 N   0  0  0  0  0  0  0  0  0  0  0  0
   38.5490   31.8310   47.1620 C   0  0  0  0  0  0  0  0  0  0  0  0
   38.5170   32.6160   48.2950 C   0  0  0  0  0  0  0  0  0  0  0  0
   38.0690   32.2520   49.5300 C   0  0  0  0  0  0  0  0  0  0  0  0
   37.6030   30.9980   49.6850 N   0  0  0  0  0  0  0  0  0  0  0  0
   37.6150   30.1850   48.5910 C   0  0  0  0  0  0  0  0  0  0  0  0
   38.0680   30.6000   47.4030 N   0  0  0  0  0  0  0  0  0  0  0  0
   40.9913   34.3642   44.1094 H   0  0  0  0  0  0  0  0  0  0  0  0
   40.4790   33.8498   46.6814 H   0  0  0  0  0  0  0  0  0  0  0  0
   39.3894   29.5477   43.8584 H   0  0  0  0  0  0  0  0  0  0  0  0
   36.0842   32.2957   44.4338 H   0  0  0  0  0  0  0  0  0  0  0  0
   35.4154   28.3612   42.9785 H   0  0  0  0  0  0  0  0  0  0  0  0
   38.8926   33.6447   48.1915 H   0  0  0  0  0  0  0  0  0  0  0  0
   38.0875   32.9593   50.3722 H   0  0  0  0  0  0  0  0  0  0  0  0
   37.2404   29.1553   48.6883 H   0  0  0  0  0  0  0  0  0  0  0  0
  1  5  1  0
  2  3  2  0
  2  1  1  0
  3  4  1  0
  4  5  2  0
  5 12  1  0
  6  7  2  0
  7  1  1  0
  8  7  1  0
  9  8  2  0
 10 11  2  0
 10  9  1  0
 11  6  1  0
 12 17  1  0
 12 13  2  0
 13 14  1  0
 14 15  2  0
 16 15  1  0
 17 16  2  0
  3 18  1  0
  4 19  1  0
  6 20  1  0
  8 21  1  0
 10 22  1  0
 13 23  1  0
 14 24  1  0
 16 25  1  0
M  ISO  8  18  14  19  14  20  14  21  14  22  14  23  14  24  14  25  14
M  END
>  <minimizedAffinity>  (1) 
-4.40571213

>  <minimizedRMSD>  (1) 
5.07632256

$$$$
