
     RDKit          3D

 24 26  0  0  0  0  0  0  0  0999 V2000
   36.6020   30.5680   47.0060 N   0  0  0  0  0  0  0  0  0  0  0  0
   36.1430   30.0060   45.8860 N   0  0  0  0  0  0  0  0  0  0  0  0
   36.7420   30.5660   44.8200 C   0  0  0  0  0  0  0  0  0  0  0  0
   37.6090   31.5190   45.3440 C   0  0  0  0  0  0  0  0  0  0  0  0
   37.4960   31.4980   46.7290 C   0  0  0  0  0  0  0  0  0  0  0  0
   37.0760   29.5610   49.1770 C   0  0  0  0  0  0  0  0  0  0  0  0
   36.1960   30.1880   48.2810 C   0  0  0  0  0  0  0  0  0  0  0  0
   34.8840   30.3970   48.7400 C   0  0  0  0  0  0  0  0  0  0  0  0
   34.5520   29.9900   49.9930 N   0  0  0  0  0  0  0  0  0  0  0  0
   35.4450   29.3870   50.8200 C   0  0  0  0  0  0  0  0  0  0  0  0
   36.7160   29.1700   50.4120 N   0  0  0  0  0  0  0  0  0  0  0  0
   38.2790   32.3870   47.4530 C   0  0  0  0  0  0  0  0  0  0  0  0
   38.2550   32.8950   48.7430 C   0  0  0  0  0  0  0  0  0  0  0  0
   39.0670   33.7720   49.2910 C   0  0  0  0  0  0  0  0  0  0  0  0
   40.1080   34.2490   48.3990 C   0  0  0  0  0  0  0  0  0  0  0  0
   39.7480   33.2970   46.7790 S   0  0  0  0  0  0  0  0  0  0  0  0
   36.5806   30.3222   43.7596 H   0  0  0  0  0  0  0  0  0  0  0  0
   38.2710   32.1769   44.7617 H   0  0  0  0  0  0  0  0  0  0  0  0
   38.1115   29.3806   48.8527 H   0  0  0  0  0  0  0  0  0  0  0  0
   34.1374   30.8827   48.0945 H   0  0  0  0  0  0  0  0  0  0  0  0
   35.1327   29.0735   51.8271 H   0  0  0  0  0  0  0  0  0  0  0  0
   37.4524   32.5149   49.3922 H   0  0  0  0  0  0  0  0  0  0  0  0
   38.9665   34.1135   50.3318 H   0  0  0  0  0  0  0  0  0  0  0  0
   40.9063   34.9775   48.6038 H   0  0  0  0  0  0  0  0  0  0  0  0
  1  7  1  0
  2  1  1  0
  3  4  1  0
  3  2  2  0
  4  5  2  0
  5  1  1  0
  5 12  1  0
  6 11  2  0
  7  8  2  0
  7  6  1  0
  8  9  1  0
  9 10  2  0
 11 10  1  0
 12 13  2  0
 13 14  1  0
 15 14  2  0
 16 12  1  0
 16 15  1  0
  3 17  1  0
  4 18  1  0
  6 19  1  0
  8 20  1  0
 10 21  1  0
 13 22  1  0
 14 23  1  0
 15 24  1  0
M  ISO  8  17  14  18  14  19  14  20  14  21  14  22  14  23  14  24  14
M  END
>  <minimizedAffinity>  (1) 
-4.33291006

>  <minimizedRMSD>  (1) 
3.26284957

$$$$
