
     RDKit          3D

 18 19  0  0  0  0  0  0  0  0999 V2000
   37.8690   29.9590   49.9760 C   0  0  0  0  0  0  0  0  0  0  0  0
   37.3120   30.5870   48.8610 C   0  0  0  0  0  0  0  0  0  0  0  0
   35.9300   30.6320   48.7910 C   0  0  0  0  0  0  0  0  0  0  0  0
   35.1900   30.0790   49.7820 N   0  0  0  0  0  0  0  0  0  0  0  0
   35.7690   29.4780   50.8490 C   0  0  0  0  0  0  0  0  0  0  0  0
   37.1050   29.4190   50.9440 N   0  0  0  0  0  0  0  0  0  0  0  0
   38.1190   31.1390   47.8720 N   0  0  0  0  0  0  0  0  0  0  0  0
   38.4050   30.5830   46.7220 N   0  0  0  0  0  0  0  0  0  0  0  0
   39.2020   31.3370   45.9700 C   0  0  0  0  0  0  0  0  0  0  0  0
   39.4260   32.4610   46.7310 C   0  0  0  0  0  0  0  0  0  0  0  0
   38.7410   32.3240   47.9230 C   0  0  0  0  0  0  0  0  0  0  0  0
   38.7140   33.5150   49.2460 S   0  0  0  0  0  0  0  0  0  0  0  0
   38.9639   29.9037   50.0665 H   0  0  0  0  0  0  0  0  0  0  0  0
   35.4353   31.1143   47.9351 H   0  0  0  0  0  0  0  0  0  0  0  0
   35.1422   29.0378   51.6385 H   0  0  0  0  0  0  0  0  0  0  0  0
   39.5934   31.1126   44.9668 H   0  0  0  0  0  0  0  0  0  0  0  0
   40.0452   33.3223   46.4399 H   0  0  0  0  0  0  0  0  0  0  0  0
   38.7288   32.8609   50.4497 H   0  0  0  0  0  0  0  0  0  0  0  0
  1  6  2  0
  2  1  1  0
  3  2  2  0
  3  4  1  0
  4  5  2  0
  5  6  1  0
  7 11  1  0
  7  2  1  0
  8  7  1  0
  9  8  2  0
  9 10  1  0
 10 11  2  0
 11 12  1  0
  1 13  1  0
  3 14  1  0
  5 15  1  0
  9 16  1  0
 10 17  1  0
 12 18  1  0
M  ISO  6  13  14  14  14  15  14  16  14  17  14  18  11
M  END
>  <minimizedAffinity>  (1) 
-4.25721979

>  <minimizedRMSD>  (1) 
1.66656876

$$$$
