
     RDKit          3D

 31 33  0  0  0  0  0  0  0  0999 V2000
   37.8150   30.8220   47.4260 N   0  0  0  0  0  0  0  0  0  0  0  0
   38.4530   30.8720   48.5860 N   0  0  0  0  0  0  0  0  0  0  0  0
   37.6350   30.5070   49.5880 C   0  0  0  0  0  0  0  0  0  0  0  0
   36.4240   30.2170   48.9900 C   0  0  0  0  0  0  0  0  0  0  0  0
   36.5690   30.4240   47.6370 C   0  0  0  0  0  0  0  0  0  0  0  0
   39.1570   30.2480   45.4810 C   0  0  0  0  0  0  0  0  0  0  0  0
   38.3710   31.1410   46.1960 C   0  0  0  0  0  0  0  0  0  0  0  0
   38.1690   32.3980   45.6050 C   0  0  0  0  0  0  0  0  0  0  0  0
   38.7340   32.6720   44.4010 N   0  0  0  0  0  0  0  0  0  0  0  0
   39.4910   31.7650   43.7470 C   0  0  0  0  0  0  0  0  0  0  0  0
   39.6960   30.5660   44.2890 N   0  0  0  0  0  0  0  0  0  0  0  0
   35.4540   30.1880   46.8070 N   0  0  0  0  0  0  0  0  0  0  0  0
   35.3670   29.8880   45.3820 C   0  0  0  0  0  0  0  0  0  0  0  0
   33.9550   30.1080   44.9460 C   0  0  0  0  0  0  0  0  0  0  0  0
   33.0820   29.1450   45.5830 N   0  0  0  0  0  0  0  0  0  0  0  0
   33.4030   28.9800   46.9910 C   0  0  0  0  0  0  0  0  0  0  0  0
   34.1400   30.2430   47.4470 C   0  0  0  0  0  0  0  0  0  0  0  0
   37.8786   30.4510   50.6592 H   0  0  0  0  0  0  0  0  0  0  0  0
   35.5100   29.8816   49.5020 H   0  0  0  0  0  0  0  0  0  0  0  0
   39.3454   29.2491   45.9015 H   0  0  0  0  0  0  0  0  0  0  0  0
   37.5566   33.1567   46.1142 H   0  0  0  0  0  0  0  0  0  0  0  0
   39.9356   32.0150   42.7724 H   0  0  0  0  0  0  0  0  0  0  0  0
   36.0387   30.5530   44.8194 H   0  0  0  0  0  0  0  0  0  0  0  0
   35.6659   28.8464   45.1932 H   0  0  0  0  0  0  0  0  0  0  0  0
   33.6418   31.1244   45.2266 H   0  0  0  0  0  0  0  0  0  0  0  0
   33.8918   29.9847   43.8548 H   0  0  0  0  0  0  0  0  0  0  0  0
   32.1081   29.4695   45.4981 H   0  0  0  0  0  0  0  0  0  0  0  0
   32.4791   28.8532   47.5744 H   0  0  0  0  0  0  0  0  0  0  0  0
   34.0304   28.0894   47.1433 H   0  0  0  0  0  0  0  0  0  0  0  0
   34.2467   30.2505   48.5418 H   0  0  0  0  0  0  0  0  0  0  0  0
   33.5915   31.1553   47.1697 H   0  0  0  0  0  0  0  0  0  0  0  0
  1  5  1  0
  1  2  1  0
  2  3  2  0
  4  3  1  0
  5  4  2  0
  6  7  2  0
  7  1  1  0
  8  7  1  0
  9  8  2  0
 10 11  2  0
 10  9  1  0
 11  6  1  0
 12 17  1  0
 12  5  1  0
 13 12  1  0
 14 13  1  0
 14 15  1  0
 15 16  1  0
 16 17  1  0
  3 18  1  0
  4 19  1  0
  6 20  1  0
  8 21  1  0
 10 22  1  0
 13 23  1  0
 13 24  1  0
 14 25  1  0
 14 26  1  0
 15 27  1  0
 16 28  1  0
 16 29  1  0
 17 30  1  0
 17 31  1  0
M  ISO  8  18  14  19  14  20  14  21  14  22  14  23  13  24  13  25  13
M  ISO  6  26  13  27   5  28  13  29  13  30  13  31  13
M  END
>  <minimizedAffinity>  (1) 
-4.12864685

>  <minimizedRMSD>  (1) 
6.3709507

$$$$
