
     RDKit          3D

 27 29  0  0  0  0  0  0  0  0999 V2000
   37.4120   30.3920   45.4640 N   0  0  0  0  0  0  0  0  0  0  0  0
   38.0480   30.0920   44.3430 N   0  0  0  0  0  0  0  0  0  0  0  0
   39.3720   30.2520   44.5000 C   0  0  0  0  0  0  0  0  0  0  0  0
   39.5410   30.6720   45.7930 C   0  0  0  0  0  0  0  0  0  0  0  0
   38.3010   30.7590   46.3920 C   0  0  0  0  0  0  0  0  0  0  0  0
   35.4700   30.1160   46.9060 C   0  0  0  0  0  0  0  0  0  0  0  0
   36.0280   30.3310   45.6320 C   0  0  0  0  0  0  0  0  0  0  0  0
   35.1490   30.4760   44.5710 C   0  0  0  0  0  0  0  0  0  0  0  0
   33.8120   30.4070   44.7980 N   0  0  0  0  0  0  0  0  0  0  0  0
   33.3090   30.1980   46.0400 C   0  0  0  0  0  0  0  0  0  0  0  0
   34.1310   30.0560   47.0750 N   0  0  0  0  0  0  0  0  0  0  0  0
   38.0020   31.1660   47.7620 C   0  0  0  0  0  0  0  0  0  0  0  0
   37.8470   32.4660   48.2370 C   0  0  0  0  0  0  0  0  0  0  0  0
   37.5700   32.6930   49.5420 C   0  0  0  0  0  0  0  0  0  0  0  0
   37.4260   31.6780   50.4720 C   0  0  0  0  0  0  0  0  0  0  0  0
   37.5820   30.3940   49.9960 C   0  0  0  0  0  0  0  0  0  0  0  0
   37.8630   30.1410   48.6790 C   0  0  0  0  0  0  0  0  0  0  0  0
   40.1565   30.0815   43.7480 H   0  0  0  0  0  0  0  0  0  0  0  0
   40.5037   30.9014   46.2731 H   0  0  0  0  0  0  0  0  0  0  0  0
   36.1328   29.9952   47.7755 H   0  0  0  0  0  0  0  0  0  0  0  0
   35.5309   30.6456   43.5534 H   0  0  0  0  0  0  0  0  0  0  0  0
   32.2206   30.1460   46.1909 H   0  0  0  0  0  0  0  0  0  0  0  0
   37.9506   33.3153   47.5457 H   0  0  0  0  0  0  0  0  0  0  0  0
   37.4538   33.7334   49.8797 H   0  0  0  0  0  0  0  0  0  0  0  0
   37.2004   31.8840   51.5287 H   0  0  0  0  0  0  0  0  0  0  0  0
   37.4781   29.5490   50.6926 H   0  0  0  0  0  0  0  0  0  0  0  0
   37.9805   29.0998   48.3442 H   0  0  0  0  0  0  0  0  0  0  0  0
  1  7  1  0
  1  5  1  0
  2  3  2  0
  2  1  1  0
  3  4  1  0
  4  5  2  0
  5 12  1  0
  6 11  2  0
  7  6  1  0
  8  9  1  0
  8  7  2  0
  9 10  2  0
 10 11  1  0
 12 13  2  0
 12 17  1  0
 13 14  1  0
 14 15  2  0
 16 15  1  0
 17 16  2  0
  3 18  1  0
  4 19  1  0
  6 20  1  0
  8 21  1  0
 10 22  1  0
 13 23  1  0
 14 24  1  0
 15 25  1  0
 16 26  1  0
 17 27  1  0
M  ISO  8  18  14  19  14  20  14  21  14  22  14  23  14  24  14  25  14
M  ISO  2  26  14  27  14
M  END
>  <minimizedAffinity>  (1) 
-4.73900127

>  <minimizedRMSD>  (1) 
3.86581898

$$$$
