
     RDKit          3D

 23 24  0  0  0  0  0  0  0  0999 V2000
   35.3620   29.2740   48.4900 C   0  0  0  0  0  0  0  0  0  0  0  0
   34.8120   29.9690   47.4020 C   0  0  0  0  0  0  0  0  0  0  0  0
   33.5490   29.5790   46.9560 C   0  0  0  0  0  0  0  0  0  0  0  0
   32.9240   28.5500   47.5970 N   0  0  0  0  0  0  0  0  0  0  0  0
   33.4950   27.9030   48.6460 C   0  0  0  0  0  0  0  0  0  0  0  0
   34.7040   28.2600   49.0920 N   0  0  0  0  0  0  0  0  0  0  0  0
   36.6360   29.5580   49.0530 N   0  0  0  0  0  0  0  0  0  0  0  0
   37.6920   30.2930   48.4260 C   0  0  0  0  0  0  0  0  0  0  0  0
   37.9930   31.5290   49.2570 C   0  0  0  0  0  0  0  0  0  0  0  0
   38.4270   31.2040   50.5310 O   0  0  0  0  0  0  0  0  0  0  0  0
   37.5960   30.3290   51.1950 C   0  0  0  0  0  0  0  0  0  0  0  0
   37.1160   29.1720   50.3460 C   0  0  0  0  0  0  0  0  0  0  0  0
   35.3576   30.7924   46.9178 H   0  0  0  0  0  0  0  0  0  0  0  0
   33.0688   30.0890   46.1079 H   0  0  0  0  0  0  0  0  0  0  0  0
   32.9572   27.0767   49.1338 H   0  0  0  0  0  0  0  0  0  0  0  0
   38.5918   29.6637   48.3611 H   0  0  0  0  0  0  0  0  0  0  0  0
   37.3872   30.5911   47.4120 H   0  0  0  0  0  0  0  0  0  0  0  0
   38.7768   32.1136   48.7531 H   0  0  0  0  0  0  0  0  0  0  0  0
   37.0633   32.1092   49.3523 H   0  0  0  0  0  0  0  0  0  0  0  0
   38.1420   29.9213   52.0585 H   0  0  0  0  0  0  0  0  0  0  0  0
   36.7029   30.8997   51.4896 H   0  0  0  0  0  0  0  0  0  0  0  0
   36.2992   28.6657   50.8812 H   0  0  0  0  0  0  0  0  0  0  0  0
   37.9841   28.5170   50.1807 H   0  0  0  0  0  0  0  0  0  0  0  0
  1  7  1  0
  1  6  1  0
  2  1  2  0
  3  2  1  0
  3  4  2  0
  4  5  1  0
  5  6  2  0
  7 12  1  0
  8  7  1  0
  8  9  1  0
  9 10  1  0
 10 11  1  0
 12 11  1  0
  2 13  1  0
  3 14  1  0
  5 15  1  0
  8 16  1  0
  8 17  1  0
  9 18  1  0
  9 19  1  0
 11 20  1  0
 11 21  1  0
 12 22  1  0
 12 23  1  0
M  ISO  8  13  14  14  14  15  14  16  13  17  13  18  13  19  13  20  13
M  ISO  3  21  13  22  13  23  13
M  END
>  <minimizedAffinity>  (1) 
-4.02697086

>  <minimizedRMSD>  (1) 
4.32757998

$$$$
