
     RDKit          3D

 20 21  0  0  0  0  0  0  0  0999 V2000
   38.2710   32.3480   48.6180 C   0  0  0  0  0  0  0  0  0  0  0  0
   38.8510   33.0840   49.4460 O   0  0  0  0  0  0  0  0  0  0  0  0
   37.5620   31.1520   49.0630 C   0  0  0  0  0  0  0  0  0  0  0  0
   37.9960   30.5510   50.2570 C   0  0  0  0  0  0  0  0  0  0  0  0
   37.3070   29.3970   50.6790 C   0  0  0  0  0  0  0  0  0  0  0  0
   36.2810   28.9380   49.9250 N   0  0  0  0  0  0  0  0  0  0  0  0
   35.9000   29.5450   48.7900 C   0  0  0  0  0  0  0  0  0  0  0  0
   36.5370   30.6630   48.3440 N   0  0  0  0  0  0  0  0  0  0  0  0
   38.2900   32.6550   47.2600 O   0  0  0  0  0  0  0  0  0  0  0  0
   41.0260   32.5920   45.1380 N   0  0  0  0  0  0  0  0  0  0  0  0
   40.1380   33.2260   45.8860 N   0  0  0  0  0  0  0  0  0  0  0  0
   39.3200   32.2780   46.4280 C   0  0  0  0  0  0  0  0  0  0  0  0
   39.7050   31.0180   46.0100 C   0  0  0  0  0  0  0  0  0  0  0  0
   40.8010   31.2600   45.1860 C   0  0  0  0  0  0  0  0  0  0  0  0
   38.8357   30.9631   50.8358 H   0  0  0  0  0  0  0  0  0  0  0  0
   37.5976   28.8784   51.6045 H   0  0  0  0  0  0  0  0  0  0  0  0
   35.0602   29.1330   48.2112 H   0  0  0  0  0  0  0  0  0  0  0  0
   41.7773   33.0459   44.5991 H   0  0  0  0  0  0  0  0  0  0  0  0
   39.2513   30.0498   46.2681 H   0  0  0  0  0  0  0  0  0  0  0  0
   41.3879   30.4926   44.6600 H   0  0  0  0  0  0  0  0  0  0  0  0
  1  3  1  0
  1  2  2  0
  3  4  2  0
  4  5  1  0
  6  5  2  0
  7  6  1  0
  8  7  2  0
  8  3  1  0
  9  1  1  0
 10 14  1  0
 10 11  1  0
 11 12  2  0
 12  9  1  0
 13 12  1  0
 14 13  2  0
  4 15  1  0
  5 16  1  0
  7 17  1  0
 10 18  1  0
 13 19  1  0
 14 20  1  0
M  ISO  6  15  14  16  14  17  14  18   9  19  14  20  14
M  END
>  <minimizedAffinity>  (1) 
-4.86319017

>  <minimizedRMSD>  (1) 
6.38321209

$$$$
