
     RDKit          3D

 25 25  0  0  0  0  0  0  0  0999 V2000
   38.3560   31.1010   47.0060 C   0  0  0  0  0  0  0  0  0  0  0  0
   38.7730   32.4070   47.3290 C   0  0  0  0  0  0  0  0  0  0  0  0
   39.8330   32.9370   46.5580 C   0  0  0  0  0  0  0  0  0  0  0  0
   40.3800   32.1810   45.5760 N   0  0  0  0  0  0  0  0  0  0  0  0
   39.9340   30.9260   45.3130 C   0  0  0  0  0  0  0  0  0  0  0  0
   38.9190   30.3920   46.0330 N   0  0  0  0  0  0  0  0  0  0  0  0
   37.2650   30.5350   47.7860 C   0  0  0  0  0  0  0  0  0  0  0  0
   36.1010   30.5060   47.3570 O   0  0  0  0  0  0  0  0  0  0  0  0
   37.5420   30.0090   49.0520 O   0  0  0  0  0  0  0  0  0  0  0  0
   36.8560   30.3990   50.1920 C   0  0  0  0  0  0  0  0  0  0  0  0
   36.5950   31.8990   50.0660 C   0  0  0  0  0  0  0  0  0  0  0  0
   37.5000   30.0570   51.4930 C   0  0  0  0  0  0  0  0  0  0  0  0
   35.4860   29.7420   50.1590 C   0  0  0  0  0  0  0  0  0  0  0  0
   38.2995   32.9835   48.1374 H   0  0  0  0  0  0  0  0  0  0  0  0
   40.2094   33.9520   46.7534 H   0  0  0  0  0  0  0  0  0  0  0  0
   40.4008   30.3383   44.5088 H   0  0  0  0  0  0  0  0  0  0  0  0
   36.5177   32.3433   51.0693 H   0  0  0  0  0  0  0  0  0  0  0  0
   37.4245   32.3708   49.5190 H   0  0  0  0  0  0  0  0  0  0  0  0
   35.6548   32.0629   49.5190 H   0  0  0  0  0  0  0  0  0  0  0  0
   36.8593   30.3972   52.3199 H   0  0  0  0  0  0  0  0  0  0  0  0
   37.6366   28.9675   51.5593 H   0  0  0  0  0  0  0  0  0  0  0  0
   38.4791   30.5540   51.5593 H   0  0  0  0  0  0  0  0  0  0  0  0
   35.1352   29.5738   51.1879 H   0  0  0  0  0  0  0  0  0  0  0  0
   34.7772   30.3982   49.6326 H   0  0  0  0  0  0  0  0  0  0  0  0
   35.5540   28.7785   49.6326 H   0  0  0  0  0  0  0  0  0  0  0  0
  1  2  2  0
  1  7  1  0
  3  2  1  0
  4  3  2  0
  5  4  1  0
  5  6  2  0
  6  1  1  0
  7  9  1  0
  8  7  2  0
  9 10  1  0
 10 12  1  0
 11 10  1  0
 13 10  1  0
  2 14  1  0
  3 15  1  0
  5 16  1  0
 11 17  1  0
 11 18  1  0
 11 19  1  0
 12 20  1  0
 12 21  1  0
 12 22  1  0
 13 23  1  0
 13 24  1  0
 13 25  1  0
M  ISO  8  14  14  15  14  16  14  17   8  18   8  19   8  20   8  21   8
M  ISO  4  22   8  23   8  24   8  25   8
M  END
>  <minimizedAffinity>  (1) 
-4.43014908

>  <minimizedRMSD>  (1) 
3.44832349

$$$$
