
     RDKit          3D

 17 18  0  0  0  0  0  0  0  0999 V2000
   38.2500   32.9060   49.4050 C   0  0  0  0  0  0  0  0  0  0  0  0
   38.9300   32.8820   48.1790 C   0  0  0  0  0  0  0  0  0  0  0  0
   38.5010   31.9790   47.2010 C   0  0  0  0  0  0  0  0  0  0  0  0
   37.4380   31.1670   47.4950 N   0  0  0  0  0  0  0  0  0  0  0  0
   36.8110   31.2200   48.6840 C   0  0  0  0  0  0  0  0  0  0  0  0
   37.2050   32.0790   49.6390 N   0  0  0  0  0  0  0  0  0  0  0  0
   35.7010   30.2830   48.8230 C   0  0  0  0  0  0  0  0  0  0  0  0
   35.8770   29.0590   49.4670 C   0  0  0  0  0  0  0  0  0  0  0  0
   34.6740   28.3760   49.4570 C   0  0  0  0  0  0  0  0  0  0  0  0
   33.8050   29.1850   48.8180 N   0  0  0  0  0  0  0  0  0  0  0  0
   34.4000   30.2980   48.4480 N   0  0  0  0  0  0  0  0  0  0  0  0
   38.5711   33.6080   50.1887 H   0  0  0  0  0  0  0  0  0  0  0  0
   39.7789   33.5559   47.9913 H   0  0  0  0  0  0  0  0  0  0  0  0
   39.0029   31.9226   46.2238 H   0  0  0  0  0  0  0  0  0  0  0  0
   36.8165   28.6965   49.9096 H   0  0  0  0  0  0  0  0  0  0  0  0
   34.4694   27.3819   49.8812 H   0  0  0  0  0  0  0  0  0  0  0  0
   32.8144   28.9626   48.6441 H   0  0  0  0  0  0  0  0  0  0  0  0
  1  6  2  0
  2  1  1  0
  3  4  1  0
  3  2  2  0
  4  5  2  0
  5  7  1  0
  5  6  1  0
  7  8  1  0
  9  8  2  0
 10  9  1  0
 11 10  1  0
 11  7  2  0
  1 12  1  0
  2 13  1  0
  3 14  1  0
  8 15  1  0
  9 16  1  0
 10 17  1  0
M  ISO  6  12  14  13  14  14  14  15  14  16  14  17   9
M  END
>  <minimizedAffinity>  (1) 
-4.23575878

>  <minimizedRMSD>  (1) 
2.64760947

$$$$
