
     RDKit          3D

 16 16  0  0  0  0  0  0  0  0999 V2000
   37.5530   31.3480   48.3890 C   0  0  0  0  0  0  0  0  0  0  0  0
   38.2290   32.5530   48.5690 C   0  0  0  0  0  0  0  0  0  0  0  0
   39.2280   32.8740   47.6200 C   0  0  0  0  0  0  0  0  0  0  0  0
   39.4710   32.0120   46.6040 N   0  0  0  0  0  0  0  0  0  0  0  0
   38.7880   30.8540   46.4710 C   0  0  0  0  0  0  0  0  0  0  0  0
   37.8290   30.5230   47.3660 N   0  0  0  0  0  0  0  0  0  0  0  0
   36.5270   31.0040   49.3530 C   0  0  0  0  0  0  0  0  0  0  0  0
   35.3620   30.6930   48.9650 O   0  0  0  0  0  0  0  0  0  0  0  0
   36.8110   31.0130   50.7040 O   0  0  0  0  0  0  0  0  0  0  0  0
   36.8870   29.7380   51.3390 C   0  0  0  0  0  0  0  0  0  0  0  0
   35.6400   29.2660   51.6830 F   0  0  0  0  0  0  0  0  0  0  0  0
   37.6990   29.8770   52.4650 F   0  0  0  0  0  0  0  0  0  0  0  0
   37.4830   28.8090   50.5150 F   0  0  0  0  0  0  0  0  0  0  0  0
   37.9968   33.2234   49.4096 H   0  0  0  0  0  0  0  0  0  0  0  0
   39.7991   33.8102   47.7061 H   0  0  0  0  0  0  0  0  0  0  0  0
   39.0123   30.1783   45.6325 H   0  0  0  0  0  0  0  0  0  0  0  0
  1  2  2  0
  1  7  1  0
  3  2  1  0
  4  3  2  0
  5  4  1  0
  5  6  2  0
  6  1  1  0
  7  9  1  0
  8  7  2  0
  9 10  1  0
 10 11  1  0
 10 12  1  0
 13 10  1  0
  2 14  1  0
  3 15  1  0
  5 16  1  0
M  ISO  3  14  14  15  14  16  14
M  END
>  <minimizedAffinity>  (1) 
-4.72800589

>  <minimizedRMSD>  (1) 
2.404006

$$$$
