
     RDKit          3D

 29 30  0  0  0  0  0  0  0  0999 V2000
   37.5990   31.6530   48.5660 C   0  0  0  0  0  0  0  0  0  0  0  0
   38.2020   32.8370   48.9690 C   0  0  0  0  0  0  0  0  0  0  0  0
   39.1930   33.3780   48.1210 C   0  0  0  0  0  0  0  0  0  0  0  0
   39.4890   32.7210   46.9840 N   0  0  0  0  0  0  0  0  0  0  0  0
   38.8790   31.5700   46.6250 C   0  0  0  0  0  0  0  0  0  0  0  0
   37.9290   31.0380   47.4250 N   0  0  0  0  0  0  0  0  0  0  0  0
   39.2530   30.9400   45.4040 N   0  0  0  0  0  0  0  0  0  0  0  0
   38.4050   30.1460   44.7620 C   0  0  0  0  0  0  0  0  0  0  0  0
   38.7030   29.4950   43.5590 C   0  0  0  0  0  0  0  0  0  0  0  0
   37.6530   28.6360   42.9510 C   0  0  0  0  0  0  0  0  0  0  0  0
   39.9700   29.7320   43.0640 C   0  0  0  0  0  0  0  0  0  0  0  0
   40.2240   29.1370   41.9770 O   0  0  0  0  0  0  0  0  0  0  0  0
   40.8310   30.5310   43.7080 N   0  0  0  0  0  0  0  0  0  0  0  0
   40.4770   31.1370   44.8790 C   0  0  0  0  0  0  0  0  0  0  0  0
   41.3170   31.8680   45.4330 O   0  0  0  0  0  0  0  0  0  0  0  0
   36.5760   31.0950   49.4430 C   0  0  0  0  0  0  0  0  0  0  0  0
   35.4920   30.6610   48.9580 O   0  0  0  0  0  0  0  0  0  0  0  0
   36.7850   31.0360   50.8090 O   0  0  0  0  0  0  0  0  0  0  0  0
   36.8930   29.7230   51.3700 C   0  0  0  0  0  0  0  0  0  0  0  0
   35.6620   29.2050   51.6920 F   0  0  0  0  0  0  0  0  0  0  0  0
   37.7130   29.8180   52.4950 F   0  0  0  0  0  0  0  0  0  0  0  0
   37.5080   28.8560   50.4940 F   0  0  0  0  0  0  0  0  0  0  0  0
   37.9196   33.3328   49.9094 H   0  0  0  0  0  0  0  0  0  0  0  0
   39.7101   34.3129   48.3829 H   0  0  0  0  0  0  0  0  0  0  0  0
   37.4087   29.9902   45.2014 H   0  0  0  0  0  0  0  0  0  0  0  0
   37.0657   28.1556   43.7474 H   0  0  0  0  0  0  0  0  0  0  0  0
   36.9895   29.2536   42.3278 H   0  0  0  0  0  0  0  0  0  0  0  0
   38.1269   27.8633   42.3278 H   0  0  0  0  0  0  0  0  0  0  0  0
   41.7700   30.6898   43.3156 H   0  0  0  0  0  0  0  0  0  0  0  0
  1  2  2  0
  1 16  1  0
  3  2  1  0
  4  3  2  0
  5  4  1  0
  5  6  2  0
  6  1  1  0
  7  5  1  0
  8  7  1  0
  9  8  2  0
 10  9  1  0
 11  9  1  0
 11 13  1  0
 12 11  2  0
 13 14  1  0
 14  7  1  0
 14 15  2  0
 16 18  1  0
 17 16  2  0
 18 19  1  0
 19 20  1  0
 19 21  1  0
 22 19  1  0
  2 23  1  0
  3 24  1  0
  8 25  1  0
 10 26  1  0
 10 27  1  0
 10 28  1  0
 13 29  1  0
M  ISO  7  23  14  24  14  25  14  26   8  27   8  28   8  29   9
M  END
>  <minimizedAffinity>  (1) 
-6.83095074

>  <minimizedRMSD>  (1) 
0.861646175

$$$$
