
     RDKit          3D

 31 32  0  0  0  0  0  0  0  0999 V2000
   37.7810   32.1170   48.8490 C   0  0  0  0  0  0  0  0  0  0  0  0
   38.3180   33.2050   49.5420 C   0  0  0  0  0  0  0  0  0  0  0  0
   39.3240   33.9590   48.9140 C   0  0  0  0  0  0  0  0  0  0  0  0
   39.7200   33.5890   47.6640 N   0  0  0  0  0  0  0  0  0  0  0  0
   39.1730   32.5270   47.0270 C   0  0  0  0  0  0  0  0  0  0  0  0
   38.2100   31.7960   47.6150 N   0  0  0  0  0  0  0  0  0  0  0  0
   39.6680   32.2290   45.7120 N   0  0  0  0  0  0  0  0  0  0  0  0
   39.8420   33.3070   44.7930 C   0  0  0  0  0  0  0  0  0  0  0  0
   39.4390   32.9240   43.4090 C   0  0  0  0  0  0  0  0  0  0  0  0
   40.1550   31.6600   43.0340 C   0  0  0  0  0  0  0  0  0  0  0  0
   39.8610   30.5140   43.9550 C   0  0  0  0  0  0  0  0  0  0  0  0
   39.9560   30.8640   45.4060 C   0  0  0  0  0  0  0  0  0  0  0  0
   36.7470   31.3430   49.4950 C   0  0  0  0  0  0  0  0  0  0  0  0
   35.8050   30.8370   48.8200 O   0  0  0  0  0  0  0  0  0  0  0  0
   36.7820   31.1480   50.8670 O   0  0  0  0  0  0  0  0  0  0  0  0
   36.9860   29.7940   51.3010 C   0  0  0  0  0  0  0  0  0  0  0  0
   35.8000   29.1340   51.4810 F   0  0  0  0  0  0  0  0  0  0  0  0
   37.7180   29.8470   52.4930 F   0  0  0  0  0  0  0  0  0  0  0  0
   37.7410   29.1010   50.3930 F   0  0  0  0  0  0  0  0  0  0  0  0
   37.9634   33.4640   50.5505 H   0  0  0  0  0  0  0  0  0  0  0  0
   39.7793   34.8243   49.4179 H   0  0  0  0  0  0  0  0  0  0  0  0
   39.2263   34.1576   45.1208 H   0  0  0  0  0  0  0  0  0  0  0  0
   40.9088   33.5747   44.7773 H   0  0  0  0  0  0  0  0  0  0  0  0
   38.3521   32.7591   43.3719 H   0  0  0  0  0  0  0  0  0  0  0  0
   39.7019   33.7275   42.7053 H   0  0  0  0  0  0  0  0  0  0  0  0
   39.8510   31.3759   42.0157 H   0  0  0  0  0  0  0  0  0  0  0  0
   41.2336   31.8645   43.1038 H   0  0  0  0  0  0  0  0  0  0  0  0
   38.8404   30.1581   43.7505 H   0  0  0  0  0  0  0  0  0  0  0  0
   40.6228   29.7446   43.7612 H   0  0  0  0  0  0  0  0  0  0  0  0
   39.2447   30.2320   45.9579 H   0  0  0  0  0  0  0  0  0  0  0  0
   41.0030   30.6950   45.6978 H   0  0  0  0  0  0  0  0  0  0  0  0
  1 13  1  0
  1  2  2  0
  3  2  1  0
  4  3  2  0
  5  6  2  0
  5  4  1  0
  6  1  1  0
  7  5  1  0
  8  7  1  0
  9  8  1  0
 10  9  1  0
 10 11  1  0
 11 12  1  0
 12  7  1  0
 13 15  1  0
 14 13  2  0
 15 16  1  0
 16 17  1  0
 16 18  1  0
 19 16  1  0
  2 20  1  0
  3 21  1  0
  8 22  1  0
  8 23  1  0
  9 24  1  0
  9 25  1  0
 10 26  1  0
 10 27  1  0
 11 28  1  0
 11 29  1  0
 12 30  1  0
 12 31  1  0
M  ISO  8  20  14  21  14  22  13  23  13  24  13  25  13  26  13  27  13
M  ISO  4  28  13  29  13  30  13  31  13
M  END
>  <minimizedAffinity>  (1) 
-6.39737034

>  <minimizedRMSD>  (1) 
1.83597219

$$$$
