
     RDKit          3D

 29 30  0  0  0  0  0  0  0  0999 V2000
   37.6140   31.9380   48.9660 C   0  0  0  0  0  0  0  0  0  0  0  0
   38.1800   33.1030   49.4700 C   0  0  0  0  0  0  0  0  0  0  0  0
   39.1780   33.7270   48.6720 C   0  0  0  0  0  0  0  0  0  0  0  0
   39.5080   33.1490   47.4830 N   0  0  0  0  0  0  0  0  0  0  0  0
   38.9240   32.0150   47.0450 C   0  0  0  0  0  0  0  0  0  0  0  0
   37.9750   31.4080   47.7870 N   0  0  0  0  0  0  0  0  0  0  0  0
   40.0690   30.3630   43.3630 C   0  0  0  0  0  0  0  0  0  0  0  0
   40.6140   31.5680   43.7520 C   0  0  0  0  0  0  0  0  0  0  0  0
   40.2590   32.1380   44.9560 C   0  0  0  0  0  0  0  0  0  0  0  0
   39.3540   31.4820   45.7570 C   0  0  0  0  0  0  0  0  0  0  0  0
   38.8170   30.2760   45.3530 C   0  0  0  0  0  0  0  0  0  0  0  0
   39.1490   29.6660   44.1420 C   0  0  0  0  0  0  0  0  0  0  0  0
   40.5710   29.6950   41.8070 S   0  0  0  0  0  0  0  0  0  0  0  0
   40.7510   30.8350   40.8490 O   0  0  0  0  0  0  0  0  0  0  0  0
   41.8240   28.9060   42.0160 O   0  0  0  0  0  0  0  0  0  0  0  0
   36.5930   31.2950   49.7770 C   0  0  0  0  0  0  0  0  0  0  0  0
   35.4790   30.9660   49.2640 O   0  0  0  0  0  0  0  0  0  0  0  0
   36.8350   31.0360   51.1190 O   0  0  0  0  0  0  0  0  0  0  0  0
   36.9340   29.6590   51.4800 C   0  0  0  0  0  0  0  0  0  0  0  0
   35.6960   29.1100   51.7440 F   0  0  0  0  0  0  0  0  0  0  0  0
   37.7530   29.5910   52.6000 F   0  0  0  0  0  0  0  0  0  0  0  0
   37.5280   28.9310   50.4800 F   0  0  0  0  0  0  0  0  0  0  0  0
   37.8710   33.5220   50.4390 H   0  0  0  0  0  0  0  0  0  0  0  0
   39.6707   34.6521   49.0058 H   0  0  0  0  0  0  0  0  0  0  0  0
   41.3365   32.0778   43.0977 H   0  0  0  0  0  0  0  0  0  0  0  0
   40.6915   33.0994   45.2700 H   0  0  0  0  0  0  0  0  0  0  0  0
   38.0958   29.7736   46.0144 H   0  0  0  0  0  0  0  0  0  0  0  0
   38.7157   28.7054   43.8264 H   0  0  0  0  0  0  0  0  0  0  0  0
   39.6352   28.8468   41.2763 H   0  0  0  0  0  0  0  0  0  0  0  0
  1  2  2  0
  1 16  1  0
  3  2  1  0
  4  3  2  0
  5  4  1  0
  5  6  2  0
  6  1  1  0
  7  8  2  0
  7 12  1  0
  8  9  1  0
  9 10  2  0
 10  5  1  0
 11 10  1  0
 12 11  2  0
 13 15  2  0
 13  7  1  0
 14 13  2  0
 16 18  1  0
 17 16  2  0
 18 19  1  0
 19 20  1  0
 19 21  1  0
 22 19  1  0
  2 23  1  0
  3 24  1  0
  8 25  1  0
  9 26  1  0
 11 27  1  0
 12 28  1  0
 13 29  1  0
M  ISO  7  23  14  24  14  25  14  26  14  27  14  28  14  29  11
M  END
>  <minimizedAffinity>  (1) 
-6.35902834

>  <minimizedRMSD>  (1) 
1.55667675

$$$$
