
     RDKit          3D

 32 34  0  0  0  0  0  0  0  0999 V2000
   37.2770   31.5240   48.5340 C   0  0  0  0  0  0  0  0  0  0  0  0
   38.2430   32.4610   48.8190 C   0  0  0  0  0  0  0  0  0  0  0  0
   39.0720   32.8340   47.7420 C   0  0  0  0  0  0  0  0  0  0  0  0
   38.8940   32.2840   46.5330 N   0  0  0  0  0  0  0  0  0  0  0  0
   37.9480   31.3740   46.2790 C   0  0  0  0  0  0  0  0  0  0  0  0
   37.1690   31.0300   47.3110 N   0  0  0  0  0  0  0  0  0  0  0  0
   37.5920   30.6630   45.0530 C   0  0  0  0  0  0  0  0  0  0  0  0
   36.2980   30.2110   44.7680 C   0  0  0  0  0  0  0  0  0  0  0  0
   35.9550   29.5490   43.6290 C   0  0  0  0  0  0  0  0  0  0  0  0
   36.8970   29.2790   42.6650 C   0  0  0  0  0  0  0  0  0  0  0  0
   38.1790   29.6910   42.8810 C   0  0  0  0  0  0  0  0  0  0  0  0
   39.1000   29.4070   41.9000 C   0  0  0  0  0  0  0  0  0  0  0  0
   40.4030   29.7860   42.0420 C   0  0  0  0  0  0  0  0  0  0  0  0
   40.7410   30.4570   43.1970 C   0  0  0  0  0  0  0  0  0  0  0  0
   39.7900   30.7240   44.1590 C   0  0  0  0  0  0  0  0  0  0  0  0
   38.4770   30.3570   44.0470 C   0  0  0  0  0  0  0  0  0  0  0  0
   36.3780   31.0960   49.5960 C   0  0  0  0  0  0  0  0  0  0  0  0
   35.1610   30.8080   49.3390 O   0  0  0  0  0  0  0  0  0  0  0  0
   36.8500   31.0020   50.8910 O   0  0  0  0  0  0  0  0  0  0  0  0
   36.9220   29.6950   51.4310 C   0  0  0  0  0  0  0  0  0  0  0  0
   35.6870   29.2010   51.7830 F   0  0  0  0  0  0  0  0  0  0  0  0
   37.7830   29.7550   52.5360 F   0  0  0  0  0  0  0  0  0  0  0  0
   37.4860   28.8200   50.5310 F   0  0  0  0  0  0  0  0  0  0  0  0
   38.3610   32.8920   49.8242 H   0  0  0  0  0  0  0  0  0  0  0  0
   39.8673   33.5786   47.8942 H   0  0  0  0  0  0  0  0  0  0  0  0
   35.5094   30.4027   45.5106 H   0  0  0  0  0  0  0  0  0  0  0  0
   34.9140   29.2270   43.4786 H   0  0  0  0  0  0  0  0  0  0  0  0
   36.6239   28.7445   41.7432 H   0  0  0  0  0  0  0  0  0  0  0  0
   38.7837   28.8700   40.9936 H   0  0  0  0  0  0  0  0  0  0  0  0
   41.1520   29.5652   41.2672 H   0  0  0  0  0  0  0  0  0  0  0  0
   41.7799   30.7829   43.3532 H   0  0  0  0  0  0  0  0  0  0  0  0
   40.1042   31.2614   45.0659 H   0  0  0  0  0  0  0  0  0  0  0  0
  1  2  2  0
  1 17  1  0
  3  2  1  0
  4  3  2  0
  5  4  1  0
  5  6  2  0
  6  1  1  0
  7  5  1  0
  8  7  2  0
  9  8  1  0
 10 11  1  0
 10  9  2  0
 11 16  2  0
 12 13  2  0
 12 11  1  0
 13 14  1  0
 14 15  2  0
 16 15  1  0
 16  7  1  0
 17 19  1  0
 18 17  2  0
 19 20  1  0
 20 21  1  0
 20 22  1  0
 23 20  1  0
  2 24  1  0
  3 25  1  0
  8 26  1  0
  9 27  1  0
 10 28  1  0
 12 29  1  0
 13 30  1  0
 14 31  1  0
 15 32  1  0
M  ISO  8  24  14  25  14  26  14  27  14  28  14  29  14  30  14  31  14
M  ISO  1  32  14
M  END
>  <minimizedAffinity>  (1) 
-6.25859547

>  <minimizedRMSD>  (1) 
1.34622085

$$$$
