
     RDKit          3D

 29 30  0  0  0  0  0  0  0  0999 V2000
   37.8560   32.1570   48.7570 C   0  0  0  0  0  0  0  0  0  0  0  0
   38.3480   33.2200   49.5130 C   0  0  0  0  0  0  0  0  0  0  0  0
   39.3650   34.0160   48.9450 C   0  0  0  0  0  0  0  0  0  0  0  0
   39.8090   33.7040   47.6930 N   0  0  0  0  0  0  0  0  0  0  0  0
   39.3010   32.6600   46.9970 C   0  0  0  0  0  0  0  0  0  0  0  0
   38.3330   31.9030   47.5390 N   0  0  0  0  0  0  0  0  0  0  0  0
   39.8240   32.3980   45.6870 N   0  0  0  0  0  0  0  0  0  0  0  0
   39.6790   33.4750   44.7050 C   0  0  0  0  0  0  0  0  0  0  0  0
   39.8010   32.8960   43.3330 C   0  0  0  0  0  0  0  0  0  0  0  0
   39.6210   31.5160   43.2860 O   0  0  0  0  0  0  0  0  0  0  0  0
   40.6240   30.8420   43.9790 C   0  0  0  0  0  0  0  0  0  0  0  0
   40.4470   31.0920   45.4500 C   0  0  0  0  0  0  0  0  0  0  0  0
   36.8150   31.3410   49.3380 C   0  0  0  0  0  0  0  0  0  0  0  0
   35.9630   30.7700   48.6020 O   0  0  0  0  0  0  0  0  0  0  0  0
   36.7370   31.1740   50.7120 O   0  0  0  0  0  0  0  0  0  0  0  0
   36.9920   29.8590   51.2050 C   0  0  0  0  0  0  0  0  0  0  0  0
   35.8250   29.1190   51.2980 F   0  0  0  0  0  0  0  0  0  0  0  0
   37.6190   29.9760   52.4440 F   0  0  0  0  0  0  0  0  0  0  0  0
   37.8540   29.1700   50.3690 F   0  0  0  0  0  0  0  0  0  0  0  0
   37.9563   33.4311   50.5190 H   0  0  0  0  0  0  0  0  0  0  0  0
   39.7895   34.8671   49.4977 H   0  0  0  0  0  0  0  0  0  0  0  0
   38.6932   33.9494   44.8196 H   0  0  0  0  0  0  0  0  0  0  0  0
   40.4619   34.2316   44.8621 H   0  0  0  0  0  0  0  0  0  0  0  0
   39.0429   33.3665   42.6896 H   0  0  0  0  0  0  0  0  0  0  0  0
   40.8272   33.0965   42.9914 H   0  0  0  0  0  0  0  0  0  0  0  0
   40.5530   29.7632   43.7760 H   0  0  0  0  0  0  0  0  0  0  0  0
   41.6109   31.2034   43.6542 H   0  0  0  0  0  0  0  0  0  0  0  0
   39.8065   30.3050   45.8747 H   0  0  0  0  0  0  0  0  0  0  0  0
   41.4367   31.0822   45.9300 H   0  0  0  0  0  0  0  0  0  0  0  0
  1 13  1  0
  1  2  2  0
  3  2  1  0
  4  3  2  0
  5  6  2  0
  5  4  1  0
  6  1  1  0
  7  5  1  0
  8  7  1  0
  9  8  1  0
 10  9  1  0
 10 11  1  0
 11 12  1  0
 12  7  1  0
 13 15  1  0
 14 13  2  0
 15 16  1  0
 16 17  1  0
 16 18  1  0
 19 16  1  0
  2 20  1  0
  3 21  1  0
  8 22  1  0
  8 23  1  0
  9 24  1  0
  9 25  1  0
 11 26  1  0
 11 27  1  0
 12 28  1  0
 12 29  1  0
M  ISO  8  20  14  21  14  22  13  23  13  24  13  25  13  26  13  27  13
M  ISO  2  28  13  29  13
M  END
>  <minimizedAffinity>  (1) 
-6.22951746

>  <minimizedRMSD>  (1) 
1.99857867

$$$$
