
     RDKit          3D

 23 24  0  0  0  0  0  0  0  0999 V2000
   37.8050   32.1600   48.8270 C   0  0  0  0  0  0  0  0  0  0  0  0
   38.3520   33.1900   49.5980 C   0  0  0  0  0  0  0  0  0  0  0  0
   39.3600   33.9840   49.0120 C   0  0  0  0  0  0  0  0  0  0  0  0
   39.7420   33.7130   47.7480 N   0  0  0  0  0  0  0  0  0  0  0  0
   39.1980   32.7150   47.0320 C   0  0  0  0  0  0  0  0  0  0  0  0
   38.2340   31.9410   47.5670 N   0  0  0  0  0  0  0  0  0  0  0  0
   39.5820   32.4050   45.6970 N   0  0  0  0  0  0  0  0  0  0  0  0
   39.3760   32.9580   44.5020 N   0  0  0  0  0  0  0  0  0  0  0  0
   39.9870   32.2250   43.5530 C   0  0  0  0  0  0  0  0  0  0  0  0
   40.6190   31.1450   44.1780 C   0  0  0  0  0  0  0  0  0  0  0  0
   40.3440   31.2890   45.5240 C   0  0  0  0  0  0  0  0  0  0  0  0
   36.7750   31.3410   49.4120 C   0  0  0  0  0  0  0  0  0  0  0  0
   35.9090   30.7780   48.6770 O   0  0  0  0  0  0  0  0  0  0  0  0
   36.7220   31.1600   50.7790 O   0  0  0  0  0  0  0  0  0  0  0  0
   36.9760   29.8320   51.2540 C   0  0  0  0  0  0  0  0  0  0  0  0
   35.8110   29.1050   51.3720 F   0  0  0  0  0  0  0  0  0  0  0  0
   37.6350   29.9440   52.4800 F   0  0  0  0  0  0  0  0  0  0  0  0
   37.8070   29.1460   50.3940 F   0  0  0  0  0  0  0  0  0  0  0  0
   38.0081   33.3749   50.6264 H   0  0  0  0  0  0  0  0  0  0  0  0
   39.8246   34.8071   49.5747 H   0  0  0  0  0  0  0  0  0  0  0  0
   39.9890   32.4381   42.4738 H   0  0  0  0  0  0  0  0  0  0  0  0
   41.2095   30.3499   43.6994 H   0  0  0  0  0  0  0  0  0  0  0  0
   40.6839   30.6144   46.3236 H   0  0  0  0  0  0  0  0  0  0  0  0
  1 12  1  0
  1  2  2  0
  3  2  1  0
  4  3  2  0
  5  6  2  0
  5  4  1  0
  6  1  1  0
  7  5  1  0
  8  7  1  0
  9 10  1  0
  9  8  2  0
 10 11  2  0
 11  7  1  0
 12 14  1  0
 13 12  2  0
 14 15  1  0
 15 16  1  0
 15 17  1  0
 18 15  1  0
  2 19  1  0
  3 20  1  0
  9 21  1  0
 10 22  1  0
 11 23  1  0
M  ISO  5  19  14  20  14  21  14  22  14  23  14
M  END
>  <minimizedAffinity>  (1) 
-6.13639593

>  <minimizedRMSD>  (1) 
1.88066173

$$$$
