
     RDKit          3D

 22 23  0  0  0  0  0  0  0  0999 V2000
   37.8150   32.1250   48.8060 C   0  0  0  0  0  0  0  0  0  0  0  0
   38.2840   33.2100   49.5410 C   0  0  0  0  0  0  0  0  0  0  0  0
   39.3110   33.9810   48.9280 C   0  0  0  0  0  0  0  0  0  0  0  0
   39.7720   33.6330   47.6930 N   0  0  0  0  0  0  0  0  0  0  0  0
   39.2750   32.5720   47.0360 C   0  0  0  0  0  0  0  0  0  0  0  0
   38.3020   31.8190   47.5850 N   0  0  0  0  0  0  0  0  0  0  0  0
   39.7220   32.1680   45.7460 N   0  0  0  0  0  0  0  0  0  0  0  0
   39.4380   32.9890   44.7170 C   0  0  0  0  0  0  0  0  0  0  0  0
   39.9510   32.4180   43.5920 N   0  0  0  0  0  0  0  0  0  0  0  0
   40.5500   31.2440   43.9430 C   0  0  0  0  0  0  0  0  0  0  0  0
   40.3900   31.1200   45.2740 N   0  0  0  0  0  0  0  0  0  0  0  0
   36.7700   31.3200   49.4030 C   0  0  0  0  0  0  0  0  0  0  0  0
   35.8880   30.7650   48.6700 O   0  0  0  0  0  0  0  0  0  0  0  0
   36.7130   31.1460   50.7620 O   0  0  0  0  0  0  0  0  0  0  0  0
   36.9640   29.8230   51.2530 C   0  0  0  0  0  0  0  0  0  0  0  0
   35.7910   29.1010   51.3870 F   0  0  0  0  0  0  0  0  0  0  0  0
   37.6280   29.9460   52.4730 F   0  0  0  0  0  0  0  0  0  0  0  0
   37.7910   29.1390   50.4030 F   0  0  0  0  0  0  0  0  0  0  0  0
   37.8848   33.4566   50.5359 H   0  0  0  0  0  0  0  0  0  0  0  0
   39.7312   34.8542   49.4484 H   0  0  0  0  0  0  0  0  0  0  0  0
   38.8933   33.9429   44.7744 H   0  0  0  0  0  0  0  0  0  0  0  0
   41.0621   30.5387   43.2720 H   0  0  0  0  0  0  0  0  0  0  0  0
  1 12  1  0
  1  2  2  0
  3  2  1  0
  4  3  2  0
  5  6  2  0
  5  4  1  0
  6  1  1  0
  7  5  1  0
  8  7  1  0
  9 10  1  0
  9  8  2  0
 10 11  2  0
 11  7  1  0
 12 14  1  0
 13 12  2  0
 14 15  1  0
 15 16  1  0
 15 17  1  0
 18 15  1  0
  2 19  1  0
  3 20  1  0
  8 21  1  0
 10 22  1  0
M  ISO  4  19  14  20  14  21  14  22  14
M  END
>  <minimizedAffinity>  (1) 
-6.10467196

>  <minimizedRMSD>  (1) 
1.77971411

$$$$
