
     RDKit          3D

 31 34  0  0  0  0  0  0  0  0999 V2000
   34.8610   29.3630   48.0060 C   0  0  0  0  0  0  0  0  0  0  0  0
   35.6820   29.1290   49.1150 C   0  0  0  0  0  0  0  0  0  0  0  0
   36.9000   29.7530   48.8850 C   0  0  0  0  0  0  0  0  0  0  0  0
   36.7850   30.3350   47.6680 N   0  0  0  0  0  0  0  0  0  0  0  0
   35.5930   30.1070   47.1540 N   0  0  0  0  0  0  0  0  0  0  0  0
   37.8590   31.0750   47.1010 C   0  0  0  0  0  0  0  0  0  0  0  0
   38.5770   30.9730   45.9120 C   0  0  0  0  0  0  0  0  0  0  0  0
   39.5120   31.9590   45.8840 N   0  0  0  0  0  0  0  0  0  0  0  0
   39.4280   32.7010   47.0130 C   0  0  0  0  0  0  0  0  0  0  0  0
   40.1460   33.8060   47.4620 C   0  0  0  0  0  0  0  0  0  0  0  0
   39.8670   34.4010   48.6770 C   0  0  0  0  0  0  0  0  0  0  0  0
   38.8410   33.8650   49.4500 C   0  0  0  0  0  0  0  0  0  0  0  0
   38.1450   32.7740   48.9890 C   0  0  0  0  0  0  0  0  0  0  0  0
   38.3950   32.1570   47.7850 C   0  0  0  0  0  0  0  0  0  0  0  0
   31.6800   27.6390   48.8280 C   0  0  0  0  0  0  0  0  0  0  0  0
   30.9440   27.9060   47.6730 C   0  0  0  0  0  0  0  0  0  0  0  0
   31.5350   28.6520   46.6610 C   0  0  0  0  0  0  0  0  0  0  0  0
   32.8180   29.0890   46.8530 N   0  0  0  0  0  0  0  0  0  0  0  0
   33.5110   28.8190   47.9760 C   0  0  0  0  0  0  0  0  0  0  0  0
   32.9380   28.0990   48.9490 N   0  0  0  0  0  0  0  0  0  0  0  0
   35.4098   28.5521   50.0111 H   0  0  0  0  0  0  0  0  0  0  0  0
   37.7750   29.7710   49.5514 H   0  0  0  0  0  0  0  0  0  0  0  0
   38.4145   30.2201   45.1267 H   0  0  0  0  0  0  0  0  0  0  0  0
   40.1833   32.1177   45.1191 H   0  0  0  0  0  0  0  0  0  0  0  0
   40.9529   34.2141   46.8357 H   0  0  0  0  0  0  0  0  0  0  0  0
   40.4395   35.2738   49.0239 H   0  0  0  0  0  0  0  0  0  0  0  0
   38.5893   34.3118   50.4231 H   0  0  0  0  0  0  0  0  0  0  0  0
   37.3399   32.3697   49.6201 H   0  0  0  0  0  0  0  0  0  0  0  0
   31.2302   27.0509   49.6415 H   0  0  0  0  0  0  0  0  0  0  0  0
   29.9149   27.5327   47.5658 H   0  0  0  0  0  0  0  0  0  0  0  0
   30.9892   28.8842   45.7346 H   0  0  0  0  0  0  0  0  0  0  0  0
  1  2  1  0
  3  2  2  0
  4  3  1  0
  5  4  1  0
  5  1  2  0
  6  4  1  0
  6 14  1  0
  7  6  2  0
  8  7  1  0
  8  9  1  0
  9 10  2  0
  9 14  1  0
 10 11  1  0
 11 12  2  0
 13 12  1  0
 14 13  2  0
 15 20  2  0
 16 15  1  0
 17 18  1  0
 17 16  2  0
 18 19  2  0
 19  1  1  0
 19 20  1  0
  2 21  1  0
  3 22  1  0
  7 23  1  0
  8 24  1  0
 10 25  1  0
 11 26  1  0
 12 27  1  0
 13 28  1  0
 15 29  1  0
 16 30  1  0
 17 31  1  0
M  ISO  8  21  14  22  14  23  14  24   9  25  14  26  14  27  14  28  14
M  ISO  3  29  14  30  14  31  14
M  END
>  <minimizedAffinity>  (1) 
-5.87484694

>  <minimizedRMSD>  (1) 
7.32155848

$$$$
