
     RDKit          3D

 25 26  0  0  0  0  0  0  0  0999 V2000
   37.7020   32.0800   48.8500 C   0  0  0  0  0  0  0  0  0  0  0  0
   38.3050   33.0980   49.5880 C   0  0  0  0  0  0  0  0  0  0  0  0
   39.3040   33.8560   48.9310 C   0  0  0  0  0  0  0  0  0  0  0  0
   39.6130   33.5620   47.6560 N   0  0  0  0  0  0  0  0  0  0  0  0
   39.0030   32.5680   46.9840 C   0  0  0  0  0  0  0  0  0  0  0  0
   38.0480   31.8270   47.5810 N   0  0  0  0  0  0  0  0  0  0  0  0
   39.3690   32.2820   45.6010 C   0  0  0  0  0  0  0  0  0  0  0  0
   40.2200   31.2290   45.3220 C   0  0  0  0  0  0  0  0  0  0  0  0
   40.6380   30.8610   44.0390 C   0  0  0  0  0  0  0  0  0  0  0  0
   40.1500   31.6250   42.9790 C   0  0  0  0  0  0  0  0  0  0  0  0
   39.3030   32.6700   43.2820 C   0  0  0  0  0  0  0  0  0  0  0  0
   38.9330   32.9800   44.5360 N   0  0  0  0  0  0  0  0  0  0  0  0
   36.6800   31.2980   49.5100 C   0  0  0  0  0  0  0  0  0  0  0  0
   35.7390   30.7700   48.8280 O   0  0  0  0  0  0  0  0  0  0  0  0
   36.6970   31.1040   50.8740 O   0  0  0  0  0  0  0  0  0  0  0  0
   36.9540   29.7780   51.3200 C   0  0  0  0  0  0  0  0  0  0  0  0
   35.7680   29.0860   51.5090 F   0  0  0  0  0  0  0  0  0  0  0  0
   37.7000   29.8400   52.4890 F   0  0  0  0  0  0  0  0  0  0  0  0
   37.7090   29.0770   50.3950 F   0  0  0  0  0  0  0  0  0  0  0  0
   38.0183   33.3022   50.6302 H   0  0  0  0  0  0  0  0  0  0  0  0
   39.8198   34.6735   49.4560 H   0  0  0  0  0  0  0  0  0  0  0  0
   40.5955   30.6378   46.1702 H   0  0  0  0  0  0  0  0  0  0  0  0
   41.3174   30.0118   43.8742 H   0  0  0  0  0  0  0  0  0  0  0  0
   40.4307   31.4020   41.9391 H   0  0  0  0  0  0  0  0  0  0  0  0
   38.9104   33.2806   42.4555 H   0  0  0  0  0  0  0  0  0  0  0  0
  1 13  1  0
  1  2  2  0
  3  2  1  0
  4  3  2  0
  5  6  2  0
  5  4  1  0
  6  1  1  0
  7  5  1  0
  8  7  2  0
  9  8  1  0
 10 11  1  0
 10  9  2  0
 11 12  2  0
 12  7  1  0
 13 15  1  0
 14 13  2  0
 15 16  1  0
 16 17  1  0
 16 18  1  0
 19 16  1  0
  2 20  1  0
  3 21  1  0
  8 22  1  0
  9 23  1  0
 10 24  1  0
 11 25  1  0
M  ISO  6  20  14  21  14  22  14  23  14  24  14  25  14
M  END
>  <minimizedAffinity>  (1) 
-6.07091093

>  <minimizedRMSD>  (1) 
1.91140604

$$$$
