
     RDKit          3D

 24 25  0  0  0  0  0  0  0  0999 V2000
   37.6860   32.0690   48.8110 C   0  0  0  0  0  0  0  0  0  0  0  0
   38.2850   33.0720   49.5600 C   0  0  0  0  0  0  0  0  0  0  0  0
   39.2900   33.8360   48.9440 C   0  0  0  0  0  0  0  0  0  0  0  0
   39.6300   33.5690   47.6620 N   0  0  0  0  0  0  0  0  0  0  0  0
   39.0220   32.5840   46.9660 C   0  0  0  0  0  0  0  0  0  0  0  0
   38.0580   31.8380   47.5330 N   0  0  0  0  0  0  0  0  0  0  0  0
   39.4010   32.3090   45.5840 C   0  0  0  0  0  0  0  0  0  0  0  0
   40.2190   31.2260   45.3000 C   0  0  0  0  0  0  0  0  0  0  0  0
   40.6510   30.8580   44.0230 C   0  0  0  0  0  0  0  0  0  0  0  0
   40.2010   31.6630   43.0450 N   0  0  0  0  0  0  0  0  0  0  0  0
   39.4070   32.7210   43.2900 C   0  0  0  0  0  0  0  0  0  0  0  0
   39.0040   33.0530   44.5320 N   0  0  0  0  0  0  0  0  0  0  0  0
   36.6510   31.2730   49.4260 C   0  0  0  0  0  0  0  0  0  0  0  0
   35.7590   30.7200   48.7280 O   0  0  0  0  0  0  0  0  0  0  0  0
   36.6330   31.1100   50.8060 O   0  0  0  0  0  0  0  0  0  0  0  0
   36.9050   29.7890   51.2860 C   0  0  0  0  0  0  0  0  0  0  0  0
   35.7360   29.0750   51.4700 F   0  0  0  0  0  0  0  0  0  0  0  0
   37.6240   29.9070   52.4680 F   0  0  0  0  0  0  0  0  0  0  0  0
   37.6760   29.0870   50.3920 F   0  0  0  0  0  0  0  0  0  0  0  0
   37.9831   33.2623   50.6005 H   0  0  0  0  0  0  0  0  0  0  0  0
   39.7945   34.6418   49.4974 H   0  0  0  0  0  0  0  0  0  0  0  0
   40.5541   30.6082   46.1462 H   0  0  0  0  0  0  0  0  0  0  0  0
   41.2996   29.9896   43.8354 H   0  0  0  0  0  0  0  0  0  0  0  0
   39.0738   33.3391   42.4433 H   0  0  0  0  0  0  0  0  0  0  0  0
  1 13  1  0
  1  2  2  0
  3  2  1  0
  4  3  2  0
  5  6  2  0
  5  4  1  0
  6  1  1  0
  7  5  1  0
  8  7  2  0
  9  8  1  0
 10 11  1  0
 10  9  2  0
 11 12  2  0
 12  7  1  0
 13 15  1  0
 14 13  2  0
 15 16  1  0
 16 17  1  0
 16 18  1  0
 19 16  1  0
  2 20  1  0
  3 21  1  0
  8 22  1  0
  9 23  1  0
 11 24  1  0
M  ISO  5  20  14  21  14  22  14  23  14  24  14
M  END
>  <minimizedAffinity>  (1) 
-6.03788853

>  <minimizedRMSD>  (1) 
1.94872558

$$$$
