
     RDKit          3D

 28 28  0  0  0  0  0  0  0  0999 V2000
   37.6880   31.9810   48.7270 C   0  0  0  0  0  0  0  0  0  0  0  0
   38.2800   33.0650   49.3930 C   0  0  0  0  0  0  0  0  0  0  0  0
   39.2860   33.7620   48.7040 C   0  0  0  0  0  0  0  0  0  0  0  0
   39.6350   33.3610   47.4500 N   0  0  0  0  0  0  0  0  0  0  0  0
   39.0330   32.3040   46.8460 C   0  0  0  0  0  0  0  0  0  0  0  0
   38.0610   31.6130   47.4800 N   0  0  0  0  0  0  0  0  0  0  0  0
   39.4750   31.9420   45.4880 C   0  0  0  0  0  0  0  0  0  0  0  0
   38.5220   32.6820   44.5410 C   0  0  0  0  0  0  0  0  0  0  0  0
   39.4280   30.4610   45.2860 C   0  0  0  0  0  0  0  0  0  0  0  0
   40.8680   32.4700   45.2670 C   0  0  0  0  0  0  0  0  0  0  0  0
   36.6540   31.2540   49.4150 C   0  0  0  0  0  0  0  0  0  0  0  0
   35.6920   30.7310   48.7680 O   0  0  0  0  0  0  0  0  0  0  0  0
   36.6880   31.1110   50.7950 O   0  0  0  0  0  0  0  0  0  0  0  0
   36.9210   29.7920   51.2820 C   0  0  0  0  0  0  0  0  0  0  0  0
   35.7380   29.1220   51.4890 F   0  0  0  0  0  0  0  0  0  0  0  0
   37.6410   29.9080   52.4600 F   0  0  0  0  0  0  0  0  0  0  0  0
   37.6800   29.0680   50.3970 F   0  0  0  0  0  0  0  0  0  0  0  0
   37.9705   33.3554   50.4078 H   0  0  0  0  0  0  0  0  0  0  0  0
   39.7866   34.6224   49.1720 H   0  0  0  0  0  0  0  0  0  0  0  0
   37.7884   33.2516   45.1304 H   0  0  0  0  0  0  0  0  0  0  0  0
   39.0979   33.3719   43.9067 H   0  0  0  0  0  0  0  0  0  0  0  0
   37.9962   31.9532   43.9067 H   0  0  0  0  0  0  0  0  0  0  0  0
   39.4120   29.9579   46.2641 H   0  0  0  0  0  0  0  0  0  0  0  0
   38.5210   30.1964   44.7227 H   0  0  0  0  0  0  0  0  0  0  0  0
   40.3164   30.1394   44.7227 H   0  0  0  0  0  0  0  0  0  0  0  0
   41.3495   32.6525   46.2391 H   0  0  0  0  0  0  0  0  0  0  0  0
   41.4543   31.7317   44.7003 H   0  0  0  0  0  0  0  0  0  0  0  0
   40.8177   33.4114   44.7003 H   0  0  0  0  0  0  0  0  0  0  0  0
  1  2  2  0
  1 11  1  0
  3  2  1  0
  4  3  2  0
  5  4  1  0
  5  6  2  0
  6  1  1  0
  7  5  1  0
  8  7  1  0
  9  7  1  0
 10  7  1  0
 11 13  1  0
 12 11  2  0
 13 14  1  0
 14 15  1  0
 14 16  1  0
 17 14  1  0
  2 18  1  0
  3 19  1  0
  8 20  1  0
  8 21  1  0
  8 22  1  0
  9 23  1  0
  9 24  1  0
  9 25  1  0
 10 26  1  0
 10 27  1  0
 10 28  1  0
M  ISO  8  18  14  19  14  20   8  21   8  22   8  23   8  24   8  25   8
M  ISO  3  26   8  27   8  28   8
M  END
>  <minimizedAffinity>  (1) 
-5.79299974

>  <minimizedRMSD>  (1) 
1.33158064

$$$$
