
     RDKit          3D

 23 24  0  0  0  0  0  0  0  0999 V2000
   37.7000   32.0240   48.7920 C   0  0  0  0  0  0  0  0  0  0  0  0
   38.2910   33.0980   49.4320 C   0  0  0  0  0  0  0  0  0  0  0  0
   39.2940   33.8020   48.7380 C   0  0  0  0  0  0  0  0  0  0  0  0
   39.6200   33.3950   47.4990 N   0  0  0  0  0  0  0  0  0  0  0  0
   39.0260   32.3400   46.8930 C   0  0  0  0  0  0  0  0  0  0  0  0
   38.0660   31.6650   47.5550 N   0  0  0  0  0  0  0  0  0  0  0  0
   39.4330   31.9390   45.5150 C   0  0  0  0  0  0  0  0  0  0  0  0
   39.7690   30.7450   45.0390 C   0  0  0  0  0  0  0  0  0  0  0  0
   40.1020   30.6170   43.7510 C   0  0  0  0  0  0  0  0  0  0  0  0
   40.0770   31.7190   43.0090 C   0  0  0  0  0  0  0  0  0  0  0  0
   39.5770   32.9810   44.1110 S   0  0  0  0  0  0  0  0  0  0  0  0
   36.6630   31.2830   49.4930 C   0  0  0  0  0  0  0  0  0  0  0  0
   35.6900   30.7850   48.8740 O   0  0  0  0  0  0  0  0  0  0  0  0
   36.7420   31.1190   50.8700 O   0  0  0  0  0  0  0  0  0  0  0  0
   36.9570   29.7740   51.3220 C   0  0  0  0  0  0  0  0  0  0  0  0
   35.7640   29.1170   51.5290 F   0  0  0  0  0  0  0  0  0  0  0  0
   37.7180   29.8330   52.4900 F   0  0  0  0  0  0  0  0  0  0  0  0
   37.6810   29.0440   50.4120 F   0  0  0  0  0  0  0  0  0  0  0  0
   37.9882   33.3922   50.4478 H   0  0  0  0  0  0  0  0  0  0  0  0
   39.7985   34.6641   49.1987 H   0  0  0  0  0  0  0  0  0  0  0  0
   39.7731   29.8667   45.7013 H   0  0  0  0  0  0  0  0  0  0  0  0
   40.3841   29.6431   43.3244 H   0  0  0  0  0  0  0  0  0  0  0  0
   40.3173   31.8157   41.9399 H   0  0  0  0  0  0  0  0  0  0  0  0
  1  2  2  0
  1 12  1  0
  3  2  1  0
  4  3  2  0
  5  4  1  0
  5  6  2  0
  6  1  1  0
  7  5  1  0
  8  7  2  0
  9  8  1  0
 10  9  2  0
 10 11  1  0
 11  7  1  0
 12 14  1  0
 13 12  2  0
 14 15  1  0
 15 16  1  0
 15 17  1  0
 18 15  1  0
  2 19  1  0
  3 20  1  0
  8 21  1  0
  9 22  1  0
 10 23  1  0
M  ISO  5  19  14  20  14  21  14  22  14  23  14
M  END
>  <minimizedAffinity>  (1) 
-5.73504257

>  <minimizedRMSD>  (1) 
1.55304849

$$$$
