
     RDKit          3D

 19 19  0  0  0  0  0  0  0  0999 V2000
   37.8450   32.0910   48.7480 C   0  0  0  0  0  0  0  0  0  0  0  0
   38.2530   33.2250   49.4650 C   0  0  0  0  0  0  0  0  0  0  0  0
   39.2850   33.9890   48.8790 C   0  0  0  0  0  0  0  0  0  0  0  0
   39.8180   33.6080   47.6910 N   0  0  0  0  0  0  0  0  0  0  0  0
   39.3770   32.5010   47.0490 C   0  0  0  0  0  0  0  0  0  0  0  0
   38.3950   31.7430   47.5710 N   0  0  0  0  0  0  0  0  0  0  0  0
   39.9230   32.0330   45.7440 C   0  0  0  0  0  0  0  0  0  0  0  0
   38.9270   31.7620   44.8420 F   0  0  0  0  0  0  0  0  0  0  0  0
   40.8110   32.9670   45.2430 F   0  0  0  0  0  0  0  0  0  0  0  0
   40.5690   30.8410   46.0290 F   0  0  0  0  0  0  0  0  0  0  0  0
   36.7880   31.2950   49.3310 C   0  0  0  0  0  0  0  0  0  0  0  0
   35.9250   30.7320   48.5930 O   0  0  0  0  0  0  0  0  0  0  0  0
   36.7100   31.1390   50.7070 O   0  0  0  0  0  0  0  0  0  0  0  0
   36.9590   29.8360   51.2040 C   0  0  0  0  0  0  0  0  0  0  0  0
   35.8040   29.1010   51.3290 F   0  0  0  0  0  0  0  0  0  0  0  0
   37.6060   29.9810   52.4350 F   0  0  0  0  0  0  0  0  0  0  0  0
   37.8220   29.1390   50.3770 F   0  0  0  0  0  0  0  0  0  0  0  0
   37.7962   33.5024   50.4264 H   0  0  0  0  0  0  0  0  0  0  0  0
   39.6567   34.8923   49.3849 H   0  0  0  0  0  0  0  0  0  0  0  0
  1 11  1  0
  1  2  2  0
  3  2  1  0
  4  3  2  0
  5  6  2  0
  5  4  1  0
  6  1  1  0
  7 10  1  0
  7  5  1  0
  8  7  1  0
  9  7  1  0
 11 13  1  0
 12 11  2  0
 13 14  1  0
 14 15  1  0
 14 16  1  0
 17 14  1  0
  2 18  1  0
  3 19  1  0
M  ISO  2  18  14  19  14
M  END
>  <minimizedAffinity>  (1) 
-5.66904306

>  <minimizedRMSD>  (1) 
1.54845023

$$$$
