
     RDKit          3D

 19 19  0  0  0  0  0  0  0  0999 V2000
   37.5760   31.4170   48.3770 C   0  0  0  0  0  0  0  0  0  0  0  0
   38.2350   32.6130   48.6560 C   0  0  0  0  0  0  0  0  0  0  0  0
   39.2410   33.0120   47.7430 C   0  0  0  0  0  0  0  0  0  0  0  0
   39.5030   32.2220   46.6670 N   0  0  0  0  0  0  0  0  0  0  0  0
   38.8350   31.0790   46.4500 C   0  0  0  0  0  0  0  0  0  0  0  0
   37.8690   30.6760   47.3070 N   0  0  0  0  0  0  0  0  0  0  0  0
   36.5480   31.0060   49.3050 C   0  0  0  0  0  0  0  0  0  0  0  0
   35.4090   30.6170   48.8790 O   0  0  0  0  0  0  0  0  0  0  0  0
   36.7750   31.0230   50.6680 O   0  0  0  0  0  0  0  0  0  0  0  0
   36.8450   29.7460   51.3040 C   0  0  0  0  0  0  0  0  0  0  0  0
   35.6140   29.2580   51.6450 F   0  0  0  0  0  0  0  0  0  0  0  0
   37.6670   29.8910   52.4340 F   0  0  0  0  0  0  0  0  0  0  0  0
   37.4800   28.8210   50.4880 F   0  0  0  0  0  0  0  0  0  0  0  0
   39.1410   30.2240   45.2560 C   0  0  0  0  0  0  0  0  0  0  0  0
   37.9860   33.2167   49.5412 H   0  0  0  0  0  0  0  0  0  0  0  0
   39.8014   33.9453   47.9012 H   0  0  0  0  0  0  0  0  0  0  0  0
   39.4939   29.2378   45.5920 H   0  0  0  0  0  0  0  0  0  0  0  0
   38.2311   30.1010   44.6502 H   0  0  0  0  0  0  0  0  0  0  0  0
   39.9223   30.7063   44.6502 H   0  0  0  0  0  0  0  0  0  0  0  0
  1  2  2  0
  1  7  1  0
  3  2  1  0
  4  3  2  0
  5  4  1  0
  5  6  2  0
  6  1  1  0
  7  9  1  0
  8  7  2  0
  9 10  1  0
 10 11  1  0
 10 12  1  0
 13 10  1  0
 14  5  1  0
  2 15  1  0
  3 16  1  0
 14 17  1  0
 14 18  1  0
 14 19  1  0
M  ISO  5  15  14  16  14  17   8  18   8  19   8
M  END
>  <minimizedAffinity>  (1) 
-5.05142164

>  <minimizedRMSD>  (1) 
0.150070429

$$$$
