
     RDKit          3D

 17 17  0  0  0  0  0  0  0  0999 V2000
   37.5870   31.4010   48.3700 C   0  0  0  0  0  0  0  0  0  0  0  0
   38.2430   32.6010   48.6050 C   0  0  0  0  0  0  0  0  0  0  0  0
   39.2470   32.9860   47.7040 C   0  0  0  0  0  0  0  0  0  0  0  0
   39.5200   32.1750   46.6620 N   0  0  0  0  0  0  0  0  0  0  0  0
   38.8670   31.0170   46.4600 C   0  0  0  0  0  0  0  0  0  0  0  0
   37.8970   30.6230   47.3130 N   0  0  0  0  0  0  0  0  0  0  0  0
   36.5440   30.9960   49.3050 C   0  0  0  0  0  0  0  0  0  0  0  0
   35.4110   30.6240   48.8710 O   0  0  0  0  0  0  0  0  0  0  0  0
   36.7890   31.0180   50.6530 O   0  0  0  0  0  0  0  0  0  0  0  0
   36.8550   29.7530   51.3040 C   0  0  0  0  0  0  0  0  0  0  0  0
   35.6150   29.2640   51.6340 F   0  0  0  0  0  0  0  0  0  0  0  0
   37.6460   29.9100   52.4370 F   0  0  0  0  0  0  0  0  0  0  0  0
   37.4760   28.8310   50.4970 F   0  0  0  0  0  0  0  0  0  0  0  0
   39.1200   30.1490   45.3960 O   0  0  0  0  0  0  0  0  0  0  0  0
   37.9842   33.2299   49.4696 H   0  0  0  0  0  0  0  0  0  0  0  0
   39.7985   33.9273   47.8443 H   0  0  0  0  0  0  0  0  0  0  0  0
   38.6009   29.3107   45.3068 H   0  0  0  0  0  0  0  0  0  0  0  0
  1  2  2  0
  1  7  1  0
  3  2  1  0
  4  3  2  0
  5  4  1  0
  5  6  2  0
  6  1  1  0
  7  9  1  0
  8  7  2  0
  9 10  1  0
 10 11  1  0
 10 12  1  0
 13 10  1  0
 14  5  1  0
  2 15  1  0
  3 16  1  0
 14 17  1  0
M  ISO  3  15  14  16  14  17   3
M  END
>  <minimizedAffinity>  (1) 
-5.00643969

>  <minimizedRMSD>  (1) 
0.120121643

$$$$
