
     RDKit          3D

 28 31  0  0  0  0  0  0  0  0999 V2000
   34.8550   28.6130   48.4670 C   0  0  0  0  0  0  0  0  0  0  0  0
   35.5410   28.6930   49.6880 C   0  0  0  0  0  0  0  0  0  0  0  0
   36.6600   29.4880   49.4890 C   0  0  0  0  0  0  0  0  0  0  0  0
   36.6230   29.8600   48.1830 N   0  0  0  0  0  0  0  0  0  0  0  0
   35.5720   29.3480   47.5960 N   0  0  0  0  0  0  0  0  0  0  0  0
   39.0940   33.8110   48.4870 N   0  0  0  0  0  0  0  0  0  0  0  0
   38.2240   33.6680   49.5030 C   0  0  0  0  0  0  0  0  0  0  0  0
   37.5800   32.5050   49.3040 N   0  0  0  0  0  0  0  0  0  0  0  0
   38.0060   31.8860   48.1870 C   0  0  0  0  0  0  0  0  0  0  0  0
   37.6250   30.6910   47.6130 C   0  0  0  0  0  0  0  0  0  0  0  0
   38.2810   30.3800   46.4690 N   0  0  0  0  0  0  0  0  0  0  0  0
   39.2240   31.1770   45.9460 C   0  0  0  0  0  0  0  0  0  0  0  0
   39.5760   32.3490   46.5380 N   0  0  0  0  0  0  0  0  0  0  0  0
   38.9720   32.7390   47.6840 C   0  0  0  0  0  0  0  0  0  0  0  0
   32.2810   26.0640   47.6600 C   0  0  0  0  0  0  0  0  0  0  0  0
   31.1940   26.5530   48.3830 C   0  0  0  0  0  0  0  0  0  0  0  0
   31.3660   27.7210   49.1150 C   0  0  0  0  0  0  0  0  0  0  0  0
   32.5920   28.3250   49.0850 N   0  0  0  0  0  0  0  0  0  0  0  0
   33.6270   27.8330   48.3770 C   0  0  0  0  0  0  0  0  0  0  0  0
   33.4730   26.7090   47.6700 N   0  0  0  0  0  0  0  0  0  0  0  0
   35.2451   28.2123   50.6322 H   0  0  0  0  0  0  0  0  0  0  0  0
   37.4208   29.7611   50.2351 H   0  0  0  0  0  0  0  0  0  0  0  0
   39.7394   34.6017   48.3485 H   0  0  0  0  0  0  0  0  0  0  0  0
   38.0692   34.3685   50.3368 H   0  0  0  0  0  0  0  0  0  0  0  0
   39.7253   30.8749   45.0146 H   0  0  0  0  0  0  0  0  0  0  0  0
   32.1696   25.1407   47.0725 H   0  0  0  0  0  0  0  0  0  0  0  0
   30.2271   26.0286   48.3741 H   0  0  0  0  0  0  0  0  0  0  0  0
   30.5393   28.1477   49.7020 H   0  0  0  0  0  0  0  0  0  0  0  0
  1  2  1  0
  3  2  2  0
  4  3  1  0
  5  4  1  0
  5  1  2  0
  6  7  1  0
  8  7  2  0
  9  8  1  0
 10  4  1  0
 10  9  2  0
 11 10  1  0
 12 11  2  0
 12 13  1  0
 13 14  2  0
 14  9  1  0
 14  6  1  0
 15 20  2  0
 15 16  1  0
 16 17  2  0
 18 17  1  0
 19  1  1  0
 19 18  2  0
 20 19  1  0
  2 21  1  0
  3 22  1  0
  6 23  1  0
  7 24  1  0
 12 25  1  0
 15 26  1  0
 16 27  1  0
 17 28  1  0
M  ISO  8  21  14  22  14  23   9  24  14  25  14  26  14  27  14  28  14
M  END
>  <minimizedAffinity>  (1) 
-5.5560565

>  <minimizedRMSD>  (1) 
7.52912092

$$$$
