
     RDKit          3D

 26 26  0  0  0  0  0  0  0  0999 V2000
   37.0710   31.1790   48.1830 C   0  0  0  0  0  0  0  0  0  0  0  0
   37.6850   32.2140   48.8720 C   0  0  0  0  0  0  0  0  0  0  0  0
   38.7460   32.8810   48.2100 C   0  0  0  0  0  0  0  0  0  0  0  0
   39.1030   32.4890   46.9650 N   0  0  0  0  0  0  0  0  0  0  0  0
   38.4690   31.4720   46.3400 C   0  0  0  0  0  0  0  0  0  0  0  0
   37.4560   30.8210   46.9490 N   0  0  0  0  0  0  0  0  0  0  0  0
   38.8590   31.0720   45.0310 N   0  0  0  0  0  0  0  0  0  0  0  0
   40.2500   30.9330   44.7410 C   0  0  0  0  0  0  0  0  0  0  0  0
   41.1030   30.7230   45.6980 N   0  0  0  0  0  0  0  0  0  0  0  0
   40.6210   31.0400   43.3570 N   0  0  0  0  0  0  0  0  0  0  0  0
   42.1250   30.6360   45.4680 H   0  0  0  0  0  0  0  0  0  0  0  0
   35.9830   30.4830   48.8440 C   0  0  0  0  0  0  0  0  0  0  0  0
   35.2170   29.7230   48.1860 O   0  0  0  0  0  0  0  0  0  0  0  0
   35.7680   30.6430   50.1980 O   0  0  0  0  0  0  0  0  0  0  0  0
   36.3320   29.6460   51.0570 C   0  0  0  0  0  0  0  0  0  0  0  0
   35.3360   28.9570   51.7120 F   0  0  0  0  0  0  0  0  0  0  0  0
   37.1740   30.2740   51.9610 F   0  0  0  0  0  0  0  0  0  0  0  0
   37.0780   28.7450   50.3430 F   0  0  0  0  0  0  0  0  0  0  0  0
   39.4450   33.9820   48.8650 C   0  0  0  0  0  0  0  0  0  0  0  0
   39.5280   34.0030   50.1210 O   0  0  0  0  0  0  0  0  0  0  0  0
   40.0030   34.9800   48.0810 O   0  0  0  0  0  0  0  0  0  0  0  0
   37.3641   32.5034   49.8836 H   0  0  0  0  0  0  0  0  0  0  0  0
   38.1509   30.8863   44.3064 H   0  0  0  0  0  0  0  0  0  0  0  0
   41.6089   30.9491   43.0801 H   0  0  0  0  0  0  0  0  0  0  0  0
   39.8990   31.2076   42.6418 H   0  0  0  0  0  0  0  0  0  0  0  0
   40.4811   35.7350   48.5070 H   0  0  0  0  0  0  0  0  0  0  0  0
  1 12  1  0
  1  2  2  0
  3 19  1  0
  3  2  1  0
  4  3  2  0
  5  6  2  0
  5  4  1  0
  6  1  1  0
  7  5  1  0
  8  7  1  0
  8  9  2  0
 10  8  1  0
 11  9  1  0
 12 14  1  0
 13 12  2  0
 14 15  1  0
 15 16  1  0
 15 17  1  0
 18 15  1  0
 19 20  2  0
 21 19  1  0
  2 22  1  0
  7 23  1  0
 10 24  1  0
 10 25  1  0
 21 26  1  0
M  ISO  2  22  14  26   3
M  END
>  <minimizedAffinity>  (1) 
-6.65942526

>  <minimizedRMSD>  (1) 
0.783933997

$$$$
