
     RDKit          3D

 25 25  0  0  0  0  0  0  0  0999 V2000
   37.5330   31.6160   48.5380 C   0  0  0  0  0  0  0  0  0  0  0  0
   38.1480   32.7950   48.9320 C   0  0  0  0  0  0  0  0  0  0  0  0
   39.1210   33.3320   48.0560 C   0  0  0  0  0  0  0  0  0  0  0  0
   39.3930   32.6740   46.8970 N   0  0  0  0  0  0  0  0  0  0  0  0
   38.7700   31.5350   46.5600 C   0  0  0  0  0  0  0  0  0  0  0  0
   37.8530   31.0230   47.3790 N   0  0  0  0  0  0  0  0  0  0  0  0
   39.0940   30.8890   45.3340 N   0  0  0  0  0  0  0  0  0  0  0  0
   40.4620   30.7420   44.9640 C   0  0  0  0  0  0  0  0  0  0  0  0
   41.3990   30.7600   45.8820 N   0  0  0  0  0  0  0  0  0  0  0  0
   40.7540   30.5760   43.5730 N   0  0  0  0  0  0  0  0  0  0  0  0
   42.4040   30.6400   45.6010 H   0  0  0  0  0  0  0  0  0  0  0  0
   39.8130   34.5340   48.3610 N   0  0  0  0  0  0  0  0  0  0  0  0
   36.5350   31.0460   49.4130 C   0  0  0  0  0  0  0  0  0  0  0  0
   35.4630   30.5680   48.9350 O   0  0  0  0  0  0  0  0  0  0  0  0
   36.7380   31.0130   50.7760 O   0  0  0  0  0  0  0  0  0  0  0  0
   36.8750   29.7140   51.3630 C   0  0  0  0  0  0  0  0  0  0  0  0
   35.6500   29.1780   51.6920 F   0  0  0  0  0  0  0  0  0  0  0  0
   37.6950   29.8340   52.4850 F   0  0  0  0  0  0  0  0  0  0  0  0
   37.4920   28.8450   50.5100 F   0  0  0  0  0  0  0  0  0  0  0  0
   37.8915   33.2893   49.8806 H   0  0  0  0  0  0  0  0  0  0  0  0
   38.3476   30.5316   44.7208 H   0  0  0  0  0  0  0  0  0  0  0  0
   41.7295   30.4662   43.2611 H   0  0  0  0  0  0  0  0  0  0  0  0
   39.9887   30.5663   42.8837 H   0  0  0  0  0  0  0  0  0  0  0  0
   40.5168   34.9035   47.7060 H   0  0  0  0  0  0  0  0  0  0  0  0
   39.6111   35.0363   49.2373 H   0  0  0  0  0  0  0  0  0  0  0  0
  1  2  2  0
  1 13  1  0
  3 12  1  0
  3  2  1  0
  4  3  2  0
  5  4  1  0
  5  6  2  0
  6  1  1  0
  7  5  1  0
  8  7  1  0
  8  9  2  0
 10  8  1  0
 11  9  1  0
 13 15  1  0
 14 13  2  0
 15 16  1  0
 16 17  1  0
 16 18  1  0
 19 16  1  0
  2 20  1  0
  7 21  1  0
 10 22  1  0
 10 23  1  0
 12 24  1  0
 12 25  1  0
M  ISO  1  20  14
M  END
>  <minimizedAffinity>  (1) 
-6.58733368

>  <minimizedRMSD>  (1) 
0.0745290816

$$$$
