
     RDKit          3D

 35 36  0  0  0  0  0  0  0  0999 V2000
   35.9470   30.4320   47.9400 C   0  0  0  0  0  0  0  0  0  0  0  0
   37.2060   30.8490   47.5090 C   0  0  0  0  0  0  0  0  0  0  0  0
   37.3910   30.8910   46.1140 C   0  0  0  0  0  0  0  0  0  0  0  0
   36.3840   30.5390   45.2790 N   0  0  0  0  0  0  0  0  0  0  0  0
   35.1830   30.1410   45.7540 C   0  0  0  0  0  0  0  0  0  0  0  0
   34.9860   30.0950   47.0800 N   0  0  0  0  0  0  0  0  0  0  0  0
   34.1420   29.7760   44.8620 N   0  0  0  0  0  0  0  0  0  0  0  0
   34.4490   28.9430   43.7430 C   0  0  0  0  0  0  0  0  0  0  0  0
   35.4960   28.1600   43.7840 N   0  0  0  0  0  0  0  0  0  0  0  0
   33.5720   29.0210   42.6220 N   0  0  0  0  0  0  0  0  0  0  0  0
   35.7130   27.5440   42.9560 H   0  0  0  0  0  0  0  0  0  0  0  0
   38.6610   31.3120   45.6340 N   0  0  0  0  0  0  0  0  0  0  0  0
   39.1100   31.1140   44.2740 C   0  0  0  0  0  0  0  0  0  0  0  0
   40.5590   31.5470   44.2730 C   0  0  0  0  0  0  0  0  0  0  0  0
   40.5280   32.6470   45.3280 C   0  0  0  0  0  0  0  0  0  0  0  0
   39.6870   31.9890   46.4050 C   0  0  0  0  0  0  0  0  0  0  0  0
   35.6960   30.3680   49.3760 C   0  0  0  0  0  0  0  0  0  0  0  0
   34.7750   29.6630   49.8430 O   0  0  0  0  0  0  0  0  0  0  0  0
   36.4970   31.1100   50.2470 O   0  0  0  0  0  0  0  0  0  0  0  0
   37.5460   30.4100   50.8970 C   0  0  0  0  0  0  0  0  0  0  0  0
   37.2850   30.2640   52.2480 F   0  0  0  0  0  0  0  0  0  0  0  0
   38.7260   31.0900   50.6780 F   0  0  0  0  0  0  0  0  0  0  0  0
   37.6890   29.1520   50.3730 F   0  0  0  0  0  0  0  0  0  0  0  0
   38.0034   31.1273   48.2138 H   0  0  0  0  0  0  0  0  0  0  0  0
   33.1792   30.1067   45.0189 H   0  0  0  0  0  0  0  0  0  0  0  0
   32.7616   29.6563   42.6453 H   0  0  0  0  0  0  0  0  0  0  0  0
   33.7487   28.4420   41.7886 H   0  0  0  0  0  0  0  0  0  0  0  0
   39.0227   30.0553   43.9883 H   0  0  0  0  0  0  0  0  0  0  0  0
   38.5075   31.6857   43.5527 H   0  0  0  0  0  0  0  0  0  0  0  0
   41.2278   30.7241   44.5654 H   0  0  0  0  0  0  0  0  0  0  0  0
   40.9384   31.8674   43.2914 H   0  0  0  0  0  0  0  0  0  0  0  0
   41.5379   32.8856   45.6931 H   0  0  0  0  0  0  0  0  0  0  0  0
   40.1344   33.6094   44.9691 H   0  0  0  0  0  0  0  0  0  0  0  0
   39.2475   32.7387   47.0793 H   0  0  0  0  0  0  0  0  0  0  0  0
   40.2607   31.3148   47.0580 H   0  0  0  0  0  0  0  0  0  0  0  0
  1 17  1  0
  2  1  2  0
  3  2  1  0
  4  5  1  0
  4  3  2  0
  5  6  2  0
  6  1  1  0
  7  5  1  0
  8  9  2  0
  8  7  1  0
 10  8  1  0
 11  9  1  0
 12  3  1  0
 12 16  1  0
 13 12  1  0
 14 13  1  0
 14 15  1  0
 15 16  1  0
 17 18  2  0
 17 19  1  0
 19 20  1  0
 20 21  1  0
 22 20  1  0
 23 20  1  0
  2 24  1  0
  7 25  1  0
 10 26  1  0
 10 27  1  0
 13 28  1  0
 13 29  1  0
 14 30  1  0
 14 31  1  0
 15 32  1  0
 15 33  1  0
 16 34  1  0
 16 35  1  0
M  ISO  8  24  14  28  13  29  13  30  13  31  13  32  13  33  13  34  13
M  ISO  1  35  13
M  END
>  <minimizedAffinity>  (1) 
-6.13059092

>  <minimizedRMSD>  (1) 
4.26024723

$$$$
