
     RDKit          3D

 30 31  0  0  0  0  0  0  0  0999 V2000
   36.1450   30.4150   47.8480 C   0  0  0  0  0  0  0  0  0  0  0  0
   37.3680   31.0020   47.5240 C   0  0  0  0  0  0  0  0  0  0  0  0
   37.6130   31.1900   46.1500 C   0  0  0  0  0  0  0  0  0  0  0  0
   36.6710   30.7980   45.2480 N   0  0  0  0  0  0  0  0  0  0  0  0
   35.5160   30.2410   45.6200 C   0  0  0  0  0  0  0  0  0  0  0  0
   35.2440   30.0440   46.9270 N   0  0  0  0  0  0  0  0  0  0  0  0
   34.5660   29.8500   44.6330 N   0  0  0  0  0  0  0  0  0  0  0  0
   35.0210   29.1390   43.4800 C   0  0  0  0  0  0  0  0  0  0  0  0
   36.1350   28.4690   43.5080 N   0  0  0  0  0  0  0  0  0  0  0  0
   34.1820   29.2140   42.3170 N   0  0  0  0  0  0  0  0  0  0  0  0
   36.4590   27.9690   42.6500 H   0  0  0  0  0  0  0  0  0  0  0  0
   38.8500   31.7890   45.7260 C   0  0  0  0  0  0  0  0  0  0  0  0
   40.0840   31.1780   45.7610 C   0  0  0  0  0  0  0  0  0  0  0  0
   40.9790   32.0640   45.2840 N   0  0  0  0  0  0  0  0  0  0  0  0
   40.3110   33.2030   44.9600 C   0  0  0  0  0  0  0  0  0  0  0  0
   39.0160   33.0290   45.2310 N   0  0  0  0  0  0  0  0  0  0  0  0
   35.8500   30.2000   49.2650 C   0  0  0  0  0  0  0  0  0  0  0  0
   35.0200   29.3220   49.6180 O   0  0  0  0  0  0  0  0  0  0  0  0
   36.4770   30.9600   50.2300 O   0  0  0  0  0  0  0  0  0  0  0  0
   37.5950   30.3720   50.8970 C   0  0  0  0  0  0  0  0  0  0  0  0
   37.3340   30.2440   52.2500 F   0  0  0  0  0  0  0  0  0  0  0  0
   38.7060   31.1580   50.6640 F   0  0  0  0  0  0  0  0  0  0  0  0
   37.8410   29.1170   50.4080 F   0  0  0  0  0  0  0  0  0  0  0  0
   38.0956   31.2995   48.2935 H   0  0  0  0  0  0  0  0  0  0  0  0
   33.5678   30.0760   44.7486 H   0  0  0  0  0  0  0  0  0  0  0  0
   33.3084   29.7588   42.3465 H   0  0  0  0  0  0  0  0  0  0  0  0
   34.4538   28.7230   41.4533 H   0  0  0  0  0  0  0  0  0  0  0  0
   40.2982   30.1579   46.1126 H   0  0  0  0  0  0  0  0  0  0  0  0
   40.7627   34.1156   44.5439 H   0  0  0  0  0  0  0  0  0  0  0  0
   38.2708   33.7251   45.0860 H   0  0  0  0  0  0  0  0  0  0  0  0
  1 17  1  0
  2  1  2  0
  3  2  1  0
  4  5  1  0
  4  3  2  0
  5  6  2  0
  6  1  1  0
  7  5  1  0
  8  9  2  0
  8  7  1  0
 10  8  1  0
 11  9  1  0
 12 13  2  0
 12  3  1  0
 14 13  1  0
 15 16  1  0
 15 14  2  0
 16 12  1  0
 17 18  2  0
 17 19  1  0
 19 20  1  0
 20 21  1  0
 22 20  1  0
 23 20  1  0
  2 24  1  0
  7 25  1  0
 10 26  1  0
 10 27  1  0
 13 28  1  0
 15 29  1  0
 16 30  1  0
M  ISO  4  24  14  28  14  29  14  30   9
M  END
>  <minimizedAffinity>  (1) 
-6.03070545

>  <minimizedRMSD>  (1) 
3.89513922

$$$$
