
     RDKit          3D

 27 29  0  0  0  0  0  0  0  0999 V2000
   36.1690   30.2540   49.0170 C   0  0  0  0  0  0  0  0  0  0  0  0
   35.8710   29.8340   50.3200 C   0  0  0  0  0  0  0  0  0  0  0  0
   34.8990   28.8390   50.2370 C   0  0  0  0  0  0  0  0  0  0  0  0
   34.6420   28.6870   48.9120 N   0  0  0  0  0  0  0  0  0  0  0  0
   35.3830   29.5110   48.2200 N   0  0  0  0  0  0  0  0  0  0  0  0
   38.2580   33.2930   49.2480 C   0  0  0  0  0  0  0  0  0  0  0  0
   39.1210   33.1040   48.1450 C   0  0  0  0  0  0  0  0  0  0  0  0
   38.9520   31.9580   47.3800 C   0  0  0  0  0  0  0  0  0  0  0  0
   37.9630   31.0750   47.7310 N   0  0  0  0  0  0  0  0  0  0  0  0
   37.1550   31.2910   48.7950 C   0  0  0  0  0  0  0  0  0  0  0  0
   37.3080   32.3880   49.5390 N   0  0  0  0  0  0  0  0  0  0  0  0
   33.6850   27.7380   48.4570 C   0  0  0  0  0  0  0  0  0  0  0  0
   32.3890   27.9850   48.8780 C   0  0  0  0  0  0  0  0  0  0  0  0
   31.3620   27.1270   48.4980 C   0  0  0  0  0  0  0  0  0  0  0  0
   31.5940   26.0090   47.6950 C   0  0  0  0  0  0  0  0  0  0  0  0
   32.8890   25.8130   47.3080 C   0  0  0  0  0  0  0  0  0  0  0  0
   33.9340   26.6490   47.6690 C   0  0  0  0  0  0  0  0  0  0  0  0
   36.3240   30.2211   51.2446 H   0  0  0  0  0  0  0  0  0  0  0  0
   34.4362   28.2908   51.0709 H   0  0  0  0  0  0  0  0  0  0  0  0
   38.3650   34.1904   49.8751 H   0  0  0  0  0  0  0  0  0  0  0  0
   39.9007   33.8405   47.9008 H   0  0  0  0  0  0  0  0  0  0  0  0
   39.5974   31.7623   46.5110 H   0  0  0  0  0  0  0  0  0  0  0  0
   32.1721   28.8577   49.5115 H   0  0  0  0  0  0  0  0  0  0  0  0
   30.3376   27.3356   48.8402 H   0  0  0  0  0  0  0  0  0  0  0  0
   30.7844   25.3284   47.3928 H   0  0  0  0  0  0  0  0  0  0  0  0
   33.1154   24.9429   46.6743 H   0  0  0  0  0  0  0  0  0  0  0  0
   34.9568   26.4376   47.3237 H   0  0  0  0  0  0  0  0  0  0  0  0
  1  2  1  0
  3  2  2  0
  4  3  1  0
  5  4  1  0
  5  1  2  0
  6 11  2  0
  7  6  1  0
  8  9  1  0
  8  7  2  0
  9 10  2  0
 10  1  1  0
 10 11  1  0
 12 13  2  0
 12  4  1  0
 14 13  1  0
 15 14  2  0
 16 17  2  0
 16 15  1  0
 17 12  1  0
  2 18  1  0
  3 19  1  0
  6 20  1  0
  7 21  1  0
  8 22  1  0
 13 23  1  0
 14 24  1  0
 15 25  1  0
 16 26  1  0
 17 27  1  0
M  ISO  8  18  14  19  14  20  14  21  14  22  14  23  14  24  14  25  14
M  ISO  2  26  14  27  14
M  END
>  <minimizedAffinity>  (1) 
-5.27122259

>  <minimizedRMSD>  (1) 
1.55004489

$$$$
