
     RDKit          3D

 39 40  0  0  0  0  0  0  0  0999 V2000
   35.6980   30.2600   47.1250 C   0  0  0  0  0  0  0  0  0  0  0  0
   36.6440   30.9460   47.8640 C   0  0  0  0  0  0  0  0  0  0  0  0
   37.8040   31.3970   47.1750 C   0  0  0  0  0  0  0  0  0  0  0  0
   37.9030   31.1220   45.8370 N   0  0  0  0  0  0  0  0  0  0  0  0
   36.9580   30.4560   45.1740 C   0  0  0  0  0  0  0  0  0  0  0  0
   35.8640   30.0260   45.8060 N   0  0  0  0  0  0  0  0  0  0  0  0
   37.1150   30.1980   43.7780 N   0  0  0  0  0  0  0  0  0  0  0  0
   38.3600   29.7370   43.2890 C   0  0  0  0  0  0  0  0  0  0  0  0
   39.1930   29.1260   44.0920 N   0  0  0  0  0  0  0  0  0  0  0  0
   38.6420   29.9700   41.9010 N   0  0  0  0  0  0  0  0  0  0  0  0
   40.1210   28.8010   43.7230 H   0  0  0  0  0  0  0  0  0  0  0  0
   38.8620   32.1360   47.8970 C   0  0  0  0  0  0  0  0  0  0  0  0
   38.2140   33.0570   48.8820 C   0  0  0  0  0  0  0  0  0  0  0  0
   39.2780   33.8710   49.5560 C   0  0  0  0  0  0  0  0  0  0  0  0
   40.1820   34.6180   48.6310 C   0  0  0  0  0  0  0  0  0  0  0  0
   40.0320   34.2570   47.1760 C   0  0  0  0  0  0  0  0  0  0  0  0
   39.7680   32.8170   46.9130 C   0  0  0  0  0  0  0  0  0  0  0  0
   34.5080   29.7940   47.8160 C   0  0  0  0  0  0  0  0  0  0  0  0
   33.7800   28.9010   47.2900 O   0  0  0  0  0  0  0  0  0  0  0  0
   34.1600   30.3160   49.0440 O   0  0  0  0  0  0  0  0  0  0  0  0
   34.4140   29.4950   50.1870 C   0  0  0  0  0  0  0  0  0  0  0  0
   33.3690   29.5900   51.0870 F   0  0  0  0  0  0  0  0  0  0  0  0
   35.6200   29.8850   50.7490 F   0  0  0  0  0  0  0  0  0  0  0  0
   34.5240   28.1840   49.8250 F   0  0  0  0  0  0  0  0  0  0  0  0
   36.5056   31.1350   48.9388 H   0  0  0  0  0  0  0  0  0  0  0  0
   36.3270   30.3466   43.1315 H   0  0  0  0  0  0  0  0  0  0  0  0
   39.5349   29.6535   41.4967 H   0  0  0  0  0  0  0  0  0  0  0  0
   37.9514   30.4537   41.3093 H   0  0  0  0  0  0  0  0  0  0  0  0
   39.5095   31.4592   48.4738 H   0  0  0  0  0  0  0  0  0  0  0  0
   37.5139   33.7247   48.3585 H   0  0  0  0  0  0  0  0  0  0  0  0
   37.6601   32.4725   49.6314 H   0  0  0  0  0  0  0  0  0  0  0  0
   38.7837   34.6012   50.2137 H   0  0  0  0  0  0  0  0  0  0  0  0
   39.9149   33.1563   50.0978 H   0  0  0  0  0  0  0  0  0  0  0  0
   39.9726   35.6923   48.7408 H   0  0  0  0  0  0  0  0  0  0  0  0
   41.2096   34.3461   48.9141 H   0  0  0  0  0  0  0  0  0  0  0  0
   39.1944   34.8390   46.7639 H   0  0  0  0  0  0  0  0  0  0  0  0
   40.9967   34.4862   46.6998 H   0  0  0  0  0  0  0  0  0  0  0  0
   39.3102   32.7329   45.9163 H   0  0  0  0  0  0  0  0  0  0  0  0
   40.7410   32.3111   46.9981 H   0  0  0  0  0  0  0  0  0  0  0  0
  1 18  1  0
  1  2  2  0
  3  2  1  0
  3 12  1  0
  4  3  2  0
  5  6  2  0
  5  4  1  0
  6  1  1  0
  7  5  1  0
  8  7  1  0
  8  9  2  0
 10  8  1  0
 11  9  1  0
 12 13  1  0
 13 14  1  0
 15 14  1  0
 16 15  1  0
 17 16  1  0
 17 12  1  0
 18 20  1  0
 19 18  2  0
 20 21  1  0
 21 23  1  0
 21 22  1  0
 24 21  1  0
  2 25  1  0
  7 26  1  0
 10 27  1  0
 10 28  1  0
 12 29  1  0
 13 30  1  0
 13 31  1  0
 14 32  1  0
 14 33  1  0
 15 34  1  0
 15 35  1  0
 16 36  1  0
 16 37  1  0
 17 38  1  0
 17 39  1  0
M  ISO  8  25  14  29  13  30  13  31  13  32  13  33  13  34  13  35  13
M  ISO  4  36  13  37  13  38  13  39  13
M  END
>  <minimizedAffinity>  (1) 
-5.96729279

>  <minimizedRMSD>  (1) 
2.86313987

$$$$
