
     RDKit          3D

 30 31  0  0  0  0  0  0  0  0999 V2000
   35.8620   30.0860   48.0520 C   0  0  0  0  0  0  0  0  0  0  0  0
   37.0200   30.7030   47.6100 C   0  0  0  0  0  0  0  0  0  0  0  0
   37.1380   30.9090   46.2180 C   0  0  0  0  0  0  0  0  0  0  0  0
   36.1340   30.5020   45.4100 N   0  0  0  0  0  0  0  0  0  0  0  0
   35.0340   29.9120   45.8710 C   0  0  0  0  0  0  0  0  0  0  0  0
   34.9130   29.7110   47.1930 N   0  0  0  0  0  0  0  0  0  0  0  0
   34.0040   29.5010   44.9790 N   0  0  0  0  0  0  0  0  0  0  0  0
   34.3490   28.8070   43.7960 C   0  0  0  0  0  0  0  0  0  0  0  0
   35.4920   28.1630   43.7150 N   0  0  0  0  0  0  0  0  0  0  0  0
   33.4130   28.8430   42.7190 N   0  0  0  0  0  0  0  0  0  0  0  0
   35.7440   27.6740   42.8220 H   0  0  0  0  0  0  0  0  0  0  0  0
   38.3020   31.5460   45.6160 C   0  0  0  0  0  0  0  0  0  0  0  0
   38.2990   32.5690   44.7040 C   0  0  0  0  0  0  0  0  0  0  0  0
   39.4640   33.0550   44.2360 C   0  0  0  0  0  0  0  0  0  0  0  0
   40.6570   32.4250   44.7610 C   0  0  0  0  0  0  0  0  0  0  0  0
   39.9350   31.1280   45.9380 S   0  0  0  0  0  0  0  0  0  0  0  0
   35.7150   29.8630   49.4780 C   0  0  0  0  0  0  0  0  0  0  0  0
   35.0310   28.8820   49.9030 O   0  0  0  0  0  0  0  0  0  0  0  0
   36.3200   30.7160   50.3830 O   0  0  0  0  0  0  0  0  0  0  0  0
   37.5010   30.2150   51.0180 C   0  0  0  0  0  0  0  0  0  0  0  0
   37.3210   30.0970   52.3800 F   0  0  0  0  0  0  0  0  0  0  0  0
   38.5420   31.0820   50.7090 F   0  0  0  0  0  0  0  0  0  0  0  0
   37.8390   28.9840   50.5260 F   0  0  0  0  0  0  0  0  0  0  0  0
   37.8092   31.0173   48.3088 H   0  0  0  0  0  0  0  0  0  0  0  0
   33.0177   29.7068   45.1928 H   0  0  0  0  0  0  0  0  0  0  0  0
   33.6222   28.3517   41.8382 H   0  0  0  0  0  0  0  0  0  0  0  0
   32.5283   29.3602   42.8226 H   0  0  0  0  0  0  0  0  0  0  0  0
   37.3458   32.9925   44.3548 H   0  0  0  0  0  0  0  0  0  0  0  0
   39.5065   33.8752   43.5043 H   0  0  0  0  0  0  0  0  0  0  0  0
   41.7111   32.6432   44.5348 H   0  0  0  0  0  0  0  0  0  0  0  0
  1 17  1  0
  2  1  2  0
  3  2  1  0
  4  5  1  0
  4  3  2  0
  5  6  2  0
  6  1  1  0
  7  5  1  0
  8  7  1  0
  9  8  2  0
 10  8  1  0
 11  9  1  0
 12 16  1  0
 12  3  1  0
 13 12  2  0
 14 13  1  0
 14 15  2  0
 15 16  1  0
 17 18  2  0
 17 19  1  0
 19 20  1  0
 20 21  1  0
 22 20  1  0
 23 20  1  0
  2 24  1  0
  7 25  1  0
 10 26  1  0
 10 27  1  0
 13 28  1  0
 14 29  1  0
 15 30  1  0
M  ISO  4  24  14  28  14  29  14  30  14
M  END
>  <minimizedAffinity>  (1) 
-5.7911005

>  <minimizedRMSD>  (1) 
4.38101816

$$$$
