
     RDKit          3D

 38 39  0  0  0  0  0  0  0  0999 V2000
   35.8800   30.2260   47.9590 C   0  0  0  0  0  0  0  0  0  0  0  0
   37.0070   30.8610   47.4750 C   0  0  0  0  0  0  0  0  0  0  0  0
   37.1130   31.0110   46.0610 C   0  0  0  0  0  0  0  0  0  0  0  0
   36.0970   30.5150   45.3010 N   0  0  0  0  0  0  0  0  0  0  0  0
   35.0280   29.9090   45.8090 C   0  0  0  0  0  0  0  0  0  0  0  0
   34.9280   29.7690   47.1430 N   0  0  0  0  0  0  0  0  0  0  0  0
   34.0100   29.4190   44.9540 N   0  0  0  0  0  0  0  0  0  0  0  0
   34.3640   28.6870   43.7860 C   0  0  0  0  0  0  0  0  0  0  0  0
   35.5280   28.0790   43.7140 N   0  0  0  0  0  0  0  0  0  0  0  0
   33.4000   28.6520   42.7220 N   0  0  0  0  0  0  0  0  0  0  0  0
   35.7740   27.5540   42.8470 H   0  0  0  0  0  0  0  0  0  0  0  0
   38.2540   31.6570   45.5140 N   0  0  0  0  0  0  0  0  0  0  0  0
   38.4880   31.5000   44.1160 C   0  0  0  0  0  0  0  0  0  0  0  0
   39.8300   32.0210   43.6690 C   0  0  0  0  0  0  0  0  0  0  0  0
   40.0290   33.3560   44.3940 C   0  0  0  0  0  0  0  0  0  0  0  0
   40.2960   33.0100   45.8360 C   0  0  0  0  0  0  0  0  0  0  0  0
   39.0690   32.4110   46.4230 C   0  0  0  0  0  0  0  0  0  0  0  0
   35.7460   30.0610   49.3990 C   0  0  0  0  0  0  0  0  0  0  0  0
   35.0070   29.1670   49.8800 O   0  0  0  0  0  0  0  0  0  0  0  0
   36.4520   30.9090   50.2570 O   0  0  0  0  0  0  0  0  0  0  0  0
   37.5740   30.3460   50.9100 C   0  0  0  0  0  0  0  0  0  0  0  0
   37.3640   30.2060   52.2610 F   0  0  0  0  0  0  0  0  0  0  0  0
   38.6740   31.1650   50.6470 F   0  0  0  0  0  0  0  0  0  0  0  0
   37.8800   29.1050   50.3920 F   0  0  0  0  0  0  0  0  0  0  0  0
   37.7895   31.2351   48.1516 H   0  0  0  0  0  0  0  0  0  0  0  0
   33.0193   29.5916   45.1765 H   0  0  0  0  0  0  0  0  0  0  0  0
   33.6080   28.1357   41.8554 H   0  0  0  0  0  0  0  0  0  0  0  0
   32.5006   29.1432   42.8256 H   0  0  0  0  0  0  0  0  0  0  0  0
   38.4312   30.4290   43.8715 H   0  0  0  0  0  0  0  0  0  0  0  0
   37.7211   32.0888   43.5913 H   0  0  0  0  0  0  0  0  0  0  0  0
   40.6258   31.3137   43.9456 H   0  0  0  0  0  0  0  0  0  0  0  0
   39.8695   32.1464   42.5769 H   0  0  0  0  0  0  0  0  0  0  0  0
   40.8847   33.8992   43.9666 H   0  0  0  0  0  0  0  0  0  0  0  0
   39.1468   34.0051   44.2922 H   0  0  0  0  0  0  0  0  0  0  0  0
   41.1239   32.2881   45.8952 H   0  0  0  0  0  0  0  0  0  0  0  0
   40.5699   33.9185   46.3925 H   0  0  0  0  0  0  0  0  0  0  0  0
   38.4551   33.2275   46.8311 H   0  0  0  0  0  0  0  0  0  0  0  0
   39.4161   31.6950   47.1825 H   0  0  0  0  0  0  0  0  0  0  0  0
  1 18  1  0
  2  1  2  0
  3  2  1  0
  4  5  1  0
  4  3  2  0
  5  6  2  0
  6  1  1  0
  7  5  1  0
  8  7  1  0
  9  8  2  0
 10  8  1  0
 11  9  1  0
 12  3  1  0
 12 17  1  0
 13 12  1  0
 14 13  1  0
 14 15  1  0
 15 16  1  0
 16 17  1  0
 18 19  2  0
 18 20  1  0
 20 21  1  0
 21 22  1  0
 23 21  1  0
 24 21  1  0
  2 25  1  0
  7 26  1  0
 10 27  1  0
 10 28  1  0
 13 29  1  0
 13 30  1  0
 14 31  1  0
 14 32  1  0
 15 33  1  0
 15 34  1  0
 16 35  1  0
 16 36  1  0
 17 37  1  0
 17 38  1  0
M  ISO  8  25  14  29  13  30  13  31  13  32  13  33  13  34  13  35  13
M  ISO  3  36  13  37  13  38  13
M  END
>  <minimizedAffinity>  (1) 
-6.36643982

>  <minimizedRMSD>  (1) 
4.39281368

$$$$
