
     RDKit          3D

 18 19  0  0  0  0  0  0  0  0999 V2000
   36.0040   29.2470   49.5370 C   0  0  0  0  0  0  0  0  0  0  0  0
   35.9350   30.2520   48.5620 C   0  0  0  0  0  0  0  0  0  0  0  0
   34.8730   30.2320   47.6650 C   0  0  0  0  0  0  0  0  0  0  0  0
   33.9460   29.2440   47.7700 N   0  0  0  0  0  0  0  0  0  0  0  0
   34.0330   28.2820   48.7220 C   0  0  0  0  0  0  0  0  0  0  0  0
   35.0510   28.2830   49.5960 N   0  0  0  0  0  0  0  0  0  0  0  0
   36.9890   31.2590   48.5490 C   0  0  0  0  0  0  0  0  0  0  0  0
   37.2460   32.0830   49.6090 C   0  0  0  0  0  0  0  0  0  0  0  0
   38.2800   33.0010   49.4680 C   0  0  0  0  0  0  0  0  0  0  0  0
   39.0250   33.1130   48.3540 N   0  0  0  0  0  0  0  0  0  0  0  0
   38.7340   32.2730   47.3220 C   0  0  0  0  0  0  0  0  0  0  0  0
   37.7260   31.3610   47.4320 N   0  0  0  0  0  0  0  0  0  0  0  0
   36.8349   29.2399   50.2578 H   0  0  0  0  0  0  0  0  0  0  0  0
   34.7847   31.0020   46.8844 H   0  0  0  0  0  0  0  0  0  0  0  0
   33.2648   27.4967   48.7779 H   0  0  0  0  0  0  0  0  0  0  0  0
   36.6579   32.0220   50.5366 H   0  0  0  0  0  0  0  0  0  0  0  0
   38.5006   33.6711   50.3120 H   0  0  0  0  0  0  0  0  0  0  0  0
   39.3174   32.3308   46.3913 H   0  0  0  0  0  0  0  0  0  0  0  0
  1  6  2  0
  2  1  1  0
  3  4  1  0
  3  2  2  0
  4  5  2  0
  5  6  1  0
  7  2  1  0
  7  8  2  0
  9  8  1  0
 10  9  2  0
 11 12  2  0
 11 10  1  0
 12  7  1  0
  1 13  1  0
  3 14  1  0
  5 15  1  0
  8 16  1  0
  9 17  1  0
 11 18  1  0
M  ISO  6  13  14  14  14  15  14  16  14  17  14  18  14
M  END
>  <minimizedAffinity>  (1) 
-4.42882204

>  <minimizedRMSD>  (1) 
3.33426356

$$$$
