
     RDKit          3D

 31 33  0  0  0  0  0  0  0  0999 V2000
   37.5800   31.6630   48.9460 C   0  0  0  0  0  0  0  0  0  0  0  0
   38.0880   32.7980   49.4890 C   0  0  0  0  0  0  0  0  0  0  0  0
   39.0010   33.5220   48.7400 C   0  0  0  0  0  0  0  0  0  0  0  0
   39.4030   33.1580   47.5180 N   0  0  0  0  0  0  0  0  0  0  0  0
   38.8730   32.0140   47.0020 C   0  0  0  0  0  0  0  0  0  0  0  0
   37.9700   31.2760   47.7120 N   0  0  0  0  0  0  0  0  0  0  0  0
   39.3000   31.6270   45.7000 N   0  0  0  0  0  0  0  0  0  0  0  0
   38.9330   30.3870   45.3300 C   0  0  0  0  0  0  0  0  0  0  0  0
   39.2910   29.9020   44.0870 C   0  0  0  0  0  0  0  0  0  0  0  0
   38.9330   28.5410   43.5830 C   0  0  0  0  0  0  0  0  0  0  0  0
   40.0240   30.7480   43.2820 C   0  0  0  0  0  0  0  0  0  0  0  0
   40.4150   30.4160   42.1120 O   0  0  0  0  0  0  0  0  0  0  0  0
   40.4020   32.0090   43.6470 N   0  0  0  0  0  0  0  0  0  0  0  0
   40.0150   32.4090   44.8730 C   0  0  0  0  0  0  0  0  0  0  0  0
   40.3250   33.5670   45.2910 O   0  0  0  0  0  0  0  0  0  0  0  0
   37.0010   30.2090   50.8270 C   0  0  0  0  0  0  0  0  0  0  0  0
   36.6120   30.8070   49.6210 C   0  0  0  0  0  0  0  0  0  0  0  0
   35.3400   30.5480   49.1500 C   0  0  0  0  0  0  0  0  0  0  0  0
   34.5090   29.7380   49.8460 N   0  0  0  0  0  0  0  0  0  0  0  0
   34.9190   29.1690   51.0190 C   0  0  0  0  0  0  0  0  0  0  0  0
   36.1420   29.4020   51.4990 N   0  0  0  0  0  0  0  0  0  0  0  0
   37.7845   33.1325   50.4920 H   0  0  0  0  0  0  0  0  0  0  0  0
   39.4167   34.4439   49.1729 H   0  0  0  0  0  0  0  0  0  0  0  0
   38.3475   29.7588   46.0175 H   0  0  0  0  0  0  0  0  0  0  0  0
   38.7562   27.8690   44.4357 H   0  0  0  0  0  0  0  0  0  0  0  0
   38.0211   28.6047   42.9712 H   0  0  0  0  0  0  0  0  0  0  0  0
   39.7583   28.1478   42.9712 H   0  0  0  0  0  0  0  0  0  0  0  0
   40.9501   32.6171   43.0219 H   0  0  0  0  0  0  0  0  0  0  0  0
   38.0073   30.3947   51.2307 H   0  0  0  0  0  0  0  0  0  0  0  0
   35.0014   31.0013   48.2067 H   0  0  0  0  0  0  0  0  0  0  0  0
   34.2332   28.5117   51.5736 H   0  0  0  0  0  0  0  0  0  0  0  0
  1  2  2  0
  1 17  1  0
  3  2  1  0
  4  3  2  0
  5  4  1  0
  5  6  2  0
  6  1  1  0
  7  5  1  0
  8  7  1  0
  9  8  2  0
 10  9  1  0
 11 13  1  0
 11  9  1  0
 12 11  2  0
 13 14  1  0
 14 15  2  0
 14  7  1  0
 16 21  2  0
 17 16  1  0
 18 17  2  0
 18 19  1  0
 19 20  2  0
 20 21  1  0
  2 22  1  0
  3 23  1  0
  8 24  1  0
 10 25  1  0
 10 26  1  0
 10 27  1  0
 13 28  1  0
 16 29  1  0
 18 30  1  0
 20 31  1  0
M  ISO  8  22  14  23  14  24  14  25   8  26   8  27   8  28   9  29  14
M  ISO  2  30  14  31  14
M  END
>  <minimizedAffinity>  (1) 
-6.73592901

>  <minimizedRMSD>  (1) 
1.68119979

$$$$
