
     RDKit          3D

 34 37  0  0  0  0  0  0  0  0999 V2000
   36.7990   31.1120   48.7250 C   0  0  0  0  0  0  0  0  0  0  0  0
   37.2590   31.7190   49.8370 C   0  0  0  0  0  0  0  0  0  0  0  0
   38.3160   32.6120   49.6780 C   0  0  0  0  0  0  0  0  0  0  0  0
   38.8770   32.8840   48.4970 N   0  0  0  0  0  0  0  0  0  0  0  0
   38.4000   32.2650   47.3960 C   0  0  0  0  0  0  0  0  0  0  0  0
   37.3770   31.4030   47.5690 N   0  0  0  0  0  0  0  0  0  0  0  0
   38.8270   32.3750   45.9950 C   0  0  0  0  0  0  0  0  0  0  0  0
   39.9100   33.1460   45.6470 C   0  0  0  0  0  0  0  0  0  0  0  0
   40.3630   33.2910   44.3580 C   0  0  0  0  0  0  0  0  0  0  0  0
   39.7390   32.6590   43.3260 C   0  0  0  0  0  0  0  0  0  0  0  0
   38.6480   31.8740   43.6250 C   0  0  0  0  0  0  0  0  0  0  0  0
   38.0070   31.2240   42.5920 C   0  0  0  0  0  0  0  0  0  0  0  0
   36.9010   30.4150   42.8150 C   0  0  0  0  0  0  0  0  0  0  0  0
   36.4750   30.2950   44.1440 C   0  0  0  0  0  0  0  0  0  0  0  0
   37.1520   30.9650   45.1330 C   0  0  0  0  0  0  0  0  0  0  0  0
   38.2430   31.7650   44.9170 C   0  0  0  0  0  0  0  0  0  0  0  0
   35.7620   29.1140   49.6800 C   0  0  0  0  0  0  0  0  0  0  0  0
   35.7060   30.1420   48.7160 C   0  0  0  0  0  0  0  0  0  0  0  0
   34.6440   30.1600   47.8370 C   0  0  0  0  0  0  0  0  0  0  0  0
   33.6880   29.2030   47.9170 N   0  0  0  0  0  0  0  0  0  0  0  0
   33.7640   28.2200   48.8580 C   0  0  0  0  0  0  0  0  0  0  0  0
   34.7840   28.1740   49.7270 N   0  0  0  0  0  0  0  0  0  0  0  0
   36.8196   31.5183   50.8252 H   0  0  0  0  0  0  0  0  0  0  0  0
   38.7090   33.1194   50.5714 H   0  0  0  0  0  0  0  0  0  0  0  0
   40.4455   33.6781   46.4471 H   0  0  0  0  0  0  0  0  0  0  0  0
   41.2395   33.9247   44.1576 H   0  0  0  0  0  0  0  0  0  0  0  0
   40.0936   32.7715   42.2908 H   0  0  0  0  0  0  0  0  0  0  0  0
   38.3812   31.3495   41.5653 H   0  0  0  0  0  0  0  0  0  0  0  0
   36.3870   29.8962   41.9924 H   0  0  0  0  0  0  0  0  0  0  0  0
   35.6054   29.6692   44.3933 H   0  0  0  0  0  0  0  0  0  0  0  0
   36.7947   30.8519   46.1672 H   0  0  0  0  0  0  0  0  0  0  0  0
   36.5981   29.0740   50.3936 H   0  0  0  0  0  0  0  0  0  0  0  0
   34.5730   30.9485   47.0733 H   0  0  0  0  0  0  0  0  0  0  0  0
   32.9769   27.4530   48.9052 H   0  0  0  0  0  0  0  0  0  0  0  0
  1  2  2  0
  3  2  1  0
  4  3  2  0
  5  6  2  0
  5  4  1  0
  6  1  1  0
  7  5  1  0
  8  7  2  0
  9  8  1  0
 10 11  1  0
 10  9  2  0
 11 16  2  0
 12 13  2  0
 12 11  1  0
 13 14  1  0
 14 15  2  0
 16 15  1  0
 16  7  1  0
 17 22  2  0
 18  1  1  0
 18 17  1  0
 19 20  1  0
 19 18  2  0
 20 21  2  0
 21 22  1  0
  2 23  1  0
  3 24  1  0
  8 25  1  0
  9 26  1  0
 10 27  1  0
 12 28  1  0
 13 29  1  0
 14 30  1  0
 15 31  1  0
 17 32  1  0
 19 33  1  0
 21 34  1  0
M  ISO  8  23  14  24  14  25  14  26  14  27  14  28  14  29  14  30  14
M  ISO  4  31  14  32  14  33  14  34  14
M  END
>  <minimizedAffinity>  (1) 
-6.57607651

>  <minimizedRMSD>  (1) 
0.833587825

$$$$
