
     RDKit          3D

 29 31  0  0  0  0  0  0  0  0999 V2000
   37.6560   31.7780   49.0220 C   0  0  0  0  0  0  0  0  0  0  0  0
   38.1280   32.8990   49.6300 C   0  0  0  0  0  0  0  0  0  0  0  0
   39.0460   33.6730   48.9300 C   0  0  0  0  0  0  0  0  0  0  0  0
   39.4820   33.3640   47.6920 N   0  0  0  0  0  0  0  0  0  0  0  0
   38.9830   32.2290   47.1140 C   0  0  0  0  0  0  0  0  0  0  0  0
   38.0870   31.4730   47.7960 N   0  0  0  0  0  0  0  0  0  0  0  0
   39.3400   31.7610   45.8120 N   0  0  0  0  0  0  0  0  0  0  0  0
   39.1040   30.5010   45.4170 C   0  0  0  0  0  0  0  0  0  0  0  0
   39.4680   30.1110   44.1580 C   0  0  0  0  0  0  0  0  0  0  0  0
   40.0760   31.0230   43.3050 C   0  0  0  0  0  0  0  0  0  0  0  0
   40.4530   30.6080   41.9930 N   0  0  0  0  0  0  0  0  0  0  0  0
   40.2930   32.2920   43.7550 N   0  0  0  0  0  0  0  0  0  0  0  0
   39.9340   32.6780   44.9970 C   0  0  0  0  0  0  0  0  0  0  0  0
   40.1520   33.8690   45.3850 O   0  0  0  0  0  0  0  0  0  0  0  0
   37.0430   30.2870   50.8560 C   0  0  0  0  0  0  0  0  0  0  0  0
   36.6860   30.8730   49.6440 C   0  0  0  0  0  0  0  0  0  0  0  0
   35.4430   30.5820   49.0750 C   0  0  0  0  0  0  0  0  0  0  0  0
   34.6250   29.7240   49.7480 N   0  0  0  0  0  0  0  0  0  0  0  0
   34.9800   29.1630   50.9200 C   0  0  0  0  0  0  0  0  0  0  0  0
   36.1630   29.4380   51.4630 N   0  0  0  0  0  0  0  0  0  0  0  0
   37.7953   33.1830   50.6393 H   0  0  0  0  0  0  0  0  0  0  0  0
   39.4362   34.5827   49.4097 H   0  0  0  0  0  0  0  0  0  0  0  0
   38.6214   29.7870   46.1006 H   0  0  0  0  0  0  0  0  0  0  0  0
   39.2803   29.0804   43.8225 H   0  0  0  0  0  0  0  0  0  0  0  0
   40.2734   29.6410   41.6872 H   0  0  0  0  0  0  0  0  0  0  0  0
   40.9048   31.2754   41.3517 H   0  0  0  0  0  0  0  0  0  0  0  0
   38.0179   30.5047   51.3165 H   0  0  0  0  0  0  0  0  0  0  0  0
   35.1358   31.0294   48.1182 H   0  0  0  0  0  0  0  0  0  0  0  0
   34.2894   28.4751   51.4299 H   0  0  0  0  0  0  0  0  0  0  0  0
  1  2  2  0
  1 16  1  0
  3  2  1  0
  4  3  2  0
  5  4  1  0
  5  6  2  0
  6  1  1  0
  7  5  1  0
  8  7  1  0
  9  8  2  0
 10 12  2  0
 10  9  1  0
 11 10  1  0
 12 13  1  0
 13 14  2  0
 13  7  1  0
 15 20  2  0
 16 15  1  0
 17 16  2  0
 17 18  1  0
 18 19  2  0
 19 20  1  0
  2 21  1  0
  3 22  1  0
  8 23  1  0
  9 24  1  0
 11 25  1  0
 11 26  1  0
 15 27  1  0
 17 28  1  0
 19 29  1  0
M  ISO  7  21  14  22  14  23  14  24  14  27  14  28  14  29  14
M  END
>  <minimizedAffinity>  (1) 
-6.55264091

>  <minimizedRMSD>  (1) 
1.50542939

$$$$
