
     RDKit          3D

 31 34  0  0  0  0  0  0  0  0999 V2000
   37.5750   31.8450   49.1200 C   0  0  0  0  0  0  0  0  0  0  0  0
   38.1250   32.8930   49.7840 C   0  0  0  0  0  0  0  0  0  0  0  0
   39.0400   33.6890   49.1130 C   0  0  0  0  0  0  0  0  0  0  0  0
   39.4080   33.4720   47.8320 N   0  0  0  0  0  0  0  0  0  0  0  0
   38.8370   32.4160   47.2040 C   0  0  0  0  0  0  0  0  0  0  0  0
   37.9380   31.6290   47.8570 N   0  0  0  0  0  0  0  0  0  0  0  0
   39.2380   32.2020   45.8550 N   0  0  0  0  0  0  0  0  0  0  0  0
   40.5600   32.2780   45.5340 C   0  0  0  0  0  0  0  0  0  0  0  0
   40.7550   32.0490   44.2210 N   0  0  0  0  0  0  0  0  0  0  0  0
   39.5450   31.8210   43.6780 C   0  0  0  0  0  0  0  0  0  0  0  0
   39.0330   31.5290   42.4130 C   0  0  0  0  0  0  0  0  0  0  0  0
   37.6930   31.3600   42.2580 N   0  0  0  0  0  0  0  0  0  0  0  0
   36.8390   31.4700   43.3050 C   0  0  0  0  0  0  0  0  0  0  0  0
   37.2960   31.7540   44.5470 N   0  0  0  0  0  0  0  0  0  0  0  0
   38.6170   31.9180   44.6960 C   0  0  0  0  0  0  0  0  0  0  0  0
   36.9780   30.2630   50.8840 C   0  0  0  0  0  0  0  0  0  0  0  0
   36.6090   30.9360   49.7000 C   0  0  0  0  0  0  0  0  0  0  0  0
   35.3470   30.6890   49.1650 C   0  0  0  0  0  0  0  0  0  0  0  0
   34.5220   29.8130   49.7980 N   0  0  0  0  0  0  0  0  0  0  0  0
   34.8920   29.1790   50.9280 C   0  0  0  0  0  0  0  0  0  0  0  0
   36.1070   29.3970   51.4710 N   0  0  0  0  0  0  0  0  0  0  0  0
   39.9790   31.4280   41.3660 N   0  0  0  0  0  0  0  0  0  0  0  0
   37.8516   33.1053   50.8281 H   0  0  0  0  0  0  0  0  0  0  0  0
   39.4879   34.5383   49.6497 H   0  0  0  0  0  0  0  0  0  0  0  0
   41.3630   32.4976   46.2530 H   0  0  0  0  0  0  0  0  0  0  0  0
   35.7605   31.3266   43.1431 H   0  0  0  0  0  0  0  0  0  0  0  0
   37.9674   30.4377   51.3318 H   0  0  0  0  0  0  0  0  0  0  0  0
   35.0225   31.1952   48.2439 H   0  0  0  0  0  0  0  0  0  0  0  0
   34.1967   28.4773   51.4119 H   0  0  0  0  0  0  0  0  0  0  0  0
   39.6662   31.2146   40.4081 H   0  0  0  0  0  0  0  0  0  0  0  0
   40.9805   31.5679   41.5616 H   0  0  0  0  0  0  0  0  0  0  0  0
  1 17  1  0
  1  2  2  0
  3  2  1  0
  4  3  2  0
  5  4  1  0
  5  6  2  0
  6  1  1  0
  7  5  1  0
  8  7  1  0
  9  8  2  0
 10  9  1  0
 10 15  2  0
 11 10  1  0
 12 11  2  0
 12 13  1  0
 13 14  2  0
 14 15  1  0
 15  7  1  0
 16 21  2  0
 17 16  1  0
 18 17  2  0
 18 19  1  0
 19 20  2  0
 20 21  1  0
 22 11  1  0
  2 23  1  0
  3 24  1  0
  8 25  1  0
 13 26  1  0
 16 27  1  0
 18 28  1  0
 20 29  1  0
 22 30  1  0
 22 31  1  0
M  ISO  7  23  14  24  14  25  14  26  14  27  14  28  14  29  14
M  END
>  <minimizedAffinity>  (1) 
-6.50553322

>  <minimizedRMSD>  (1) 
1.5219872

$$$$
