
     RDKit          3D

 32 34  0  0  0  0  0  0  0  0999 V2000
   38.0630   32.0420   49.0050 C   0  0  0  0  0  0  0  0  0  0  0  0
   38.5820   33.1520   49.5890 C   0  0  0  0  0  0  0  0  0  0  0  0
   39.4160   33.9590   48.8300 C   0  0  0  0  0  0  0  0  0  0  0  0
   39.7310   33.6860   47.5410 N   0  0  0  0  0  0  0  0  0  0  0  0
   39.1920   32.5640   46.9910 C   0  0  0  0  0  0  0  0  0  0  0  0
   38.3740   31.7700   47.7290 N   0  0  0  0  0  0  0  0  0  0  0  0
   39.5140   32.2570   45.6260 N   0  0  0  0  0  0  0  0  0  0  0  0
   40.6770   31.4360   45.3970 C   0  0  0  0  0  0  0  0  0  0  0  0
   40.6650   30.7880   44.0350 C   0  0  0  0  0  0  0  0  0  0  0  0
   40.1610   31.6680   43.0090 N   0  0  0  0  0  0  0  0  0  0  0  0
   38.8460   32.1670   43.2630 C   0  0  0  0  0  0  0  0  0  0  0  0
   38.6430   32.7990   44.5990 C   0  0  0  0  0  0  0  0  0  0  0  0
   37.6360   30.5330   50.8790 C   0  0  0  0  0  0  0  0  0  0  0  0
   37.1790   31.1140   49.6820 C   0  0  0  0  0  0  0  0  0  0  0  0
   35.9140   30.7630   49.2240 C   0  0  0  0  0  0  0  0  0  0  0  0
   35.1650   29.8830   49.9360 N   0  0  0  0  0  0  0  0  0  0  0  0
   35.6410   29.3390   51.0930 C   0  0  0  0  0  0  0  0  0  0  0  0
   36.8650   29.6600   51.5600 N   0  0  0  0  0  0  0  0  0  0  0  0
   38.3478   33.4040   50.6338 H   0  0  0  0  0  0  0  0  0  0  0  0
   39.8406   34.8608   49.2952 H   0  0  0  0  0  0  0  0  0  0  0  0
   41.5754   32.0651   45.4809 H   0  0  0  0  0  0  0  0  0  0  0  0
   40.6745   30.6339   46.1498 H   0  0  0  0  0  0  0  0  0  0  0  0
   41.6928   30.4949   43.7747 H   0  0  0  0  0  0  0  0  0  0  0  0
   39.9963   29.9161   44.0856 H   0  0  0  0  0  0  0  0  0  0  0  0
   40.1443   31.1506   42.1185 H   0  0  0  0  0  0  0  0  0  0  0  0
   38.6152   32.9192   42.4943 H   0  0  0  0  0  0  0  0  0  0  0  0
   38.1821   31.2902   43.2410 H   0  0  0  0  0  0  0  0  0  0  0  0
   38.8380   33.8778   44.5087 H   0  0  0  0  0  0  0  0  0  0  0  0
   37.6072   32.5907   44.9053 H   0  0  0  0  0  0  0  0  0  0  0  0
   38.6330   30.7934   51.2640 H   0  0  0  0  0  0  0  0  0  0  0  0
   35.5230   31.1954   48.2912 H   0  0  0  0  0  0  0  0  0  0  0  0
   35.0169   28.6276   51.6537 H   0  0  0  0  0  0  0  0  0  0  0  0
  1  2  2  0
  1 14  1  0
  3  2  1  0
  4  3  2  0
  5  4  1  0
  5  6  2  0
  6  1  1  0
  7  5  1  0
  8  7  1  0
  9  8  1  0
 10 11  1  0
 10  9  1  0
 11 12  1  0
 12  7  1  0
 13 18  2  0
 14 13  1  0
 15 14  2  0
 15 16  1  0
 16 17  2  0
 17 18  1  0
  2 19  1  0
  3 20  1  0
  8 21  1  0
  8 22  1  0
  9 23  1  0
  9 24  1  0
 10 25  1  0
 11 26  1  0
 11 27  1  0
 12 28  1  0
 12 29  1  0
 13 30  1  0
 15 31  1  0
 17 32  1  0
M  ISO  8  19  14  20  14  21  13  22  13  23  13  24  13  25   5  26  13
M  ISO  6  27  13  28  13  29  13  30  14  31  14  32  14
M  END
>  <minimizedAffinity>  (1) 
-6.12684774

>  <minimizedRMSD>  (1) 
1.74486184

$$$$
