
     RDKit          3D

 25 27  0  0  0  0  0  0  0  0999 V2000
   36.8790   31.2230   48.7060 C   0  0  0  0  0  0  0  0  0  0  0  0
   37.0780   32.1640   49.6900 C   0  0  0  0  0  0  0  0  0  0  0  0
   38.1320   33.0460   49.5110 C   0  0  0  0  0  0  0  0  0  0  0  0
   38.9500   33.0150   48.4300 N   0  0  0  0  0  0  0  0  0  0  0  0
   38.7090   32.0680   47.4920 C   0  0  0  0  0  0  0  0  0  0  0  0
   37.6840   31.1820   47.6280 N   0  0  0  0  0  0  0  0  0  0  0  0
   39.5760   32.0470   46.3630 N   0  0  0  0  0  0  0  0  0  0  0  0
   40.0710   30.9640   45.7660 C   0  0  0  0  0  0  0  0  0  0  0  0
   40.8490   31.4590   44.7290 C   0  0  0  0  0  0  0  0  0  0  0  0
   40.7830   32.8020   44.7570 N   0  0  0  0  0  0  0  0  0  0  0  0
   39.9930   33.1900   45.7690 C   0  0  0  0  0  0  0  0  0  0  0  0
   35.7890   29.3500   49.8430 C   0  0  0  0  0  0  0  0  0  0  0  0
   35.8070   30.2390   48.7730 C   0  0  0  0  0  0  0  0  0  0  0  0
   34.7920   30.1380   47.8130 C   0  0  0  0  0  0  0  0  0  0  0  0
   33.8370   29.1850   47.9640 N   0  0  0  0  0  0  0  0  0  0  0  0
   33.8460   28.3360   49.0160 C   0  0  0  0  0  0  0  0  0  0  0  0
   34.8060   28.4140   49.9430 N   0  0  0  0  0  0  0  0  0  0  0  0
   36.4304   32.2139   50.5778 H   0  0  0  0  0  0  0  0  0  0  0  0
   38.3137   33.8080   50.2832 H   0  0  0  0  0  0  0  0  0  0  0  0
   39.9009   29.9111   46.0352 H   0  0  0  0  0  0  0  0  0  0  0  0
   41.4212   30.8566   44.0081 H   0  0  0  0  0  0  0  0  0  0  0  0
   39.7375   34.2206   46.0562 H   0  0  0  0  0  0  0  0  0  0  0  0
   36.5734   29.4039   50.6123 H   0  0  0  0  0  0  0  0  0  0  0  0
   34.7691   30.8201   46.9503 H   0  0  0  0  0  0  0  0  0  0  0  0
   33.0572   27.5751   49.1099 H   0  0  0  0  0  0  0  0  0  0  0  0
  1 13  1  0
  1  2  2  0
  3  2  1  0
  4  3  2  0
  5  6  2  0
  5  4  1  0
  6  1  1  0
  7  5  1  0
  8  7  1  0
  9 10  1  0
  9  8  2  0
 10 11  2  0
 11  7  1  0
 12 17  2  0
 13 12  1  0
 14 15  1  0
 14 13  2  0
 15 16  2  0
 16 17  1  0
  2 18  1  0
  3 19  1  0
  8 20  1  0
  9 21  1  0
 11 22  1  0
 12 23  1  0
 14 24  1  0
 16 25  1  0
M  ISO  8  18  14  19  14  20  14  21  14  22  14  23  14  24  14  25  14
M  END
>  <minimizedAffinity>  (1) 
-6.07451773

>  <minimizedRMSD>  (1) 
0.374790102

$$$$
