
     RDKit          3D

 25 27  0  0  0  0  0  0  0  0999 V2000
   36.7510   31.0980   48.6630 C   0  0  0  0  0  0  0  0  0  0  0  0
   37.0150   31.9360   49.7170 C   0  0  0  0  0  0  0  0  0  0  0  0
   38.0640   32.8300   49.6050 C   0  0  0  0  0  0  0  0  0  0  0  0
   38.8340   32.9060   48.4980 N   0  0  0  0  0  0  0  0  0  0  0  0
   38.5390   32.0550   47.4730 C   0  0  0  0  0  0  0  0  0  0  0  0
   37.5070   31.1680   47.5680 N   0  0  0  0  0  0  0  0  0  0  0  0
   35.7380   29.0890   49.6360 C   0  0  0  0  0  0  0  0  0  0  0  0
   35.6750   30.1250   48.6790 C   0  0  0  0  0  0  0  0  0  0  0  0
   34.5940   30.1440   47.8190 C   0  0  0  0  0  0  0  0  0  0  0  0
   33.6470   29.1820   47.9250 N   0  0  0  0  0  0  0  0  0  0  0  0
   33.7220   28.2000   48.8440 C   0  0  0  0  0  0  0  0  0  0  0  0
   34.7540   28.1560   49.6880 N   0  0  0  0  0  0  0  0  0  0  0  0
   39.3910   32.1740   46.3100 C   0  0  0  0  0  0  0  0  0  0  0  0
   40.2340   31.1860   45.7910 C   0  0  0  0  0  0  0  0  0  0  0  0
   40.8830   31.6960   44.6670 C   0  0  0  0  0  0  0  0  0  0  0  0
   40.3850   32.9960   44.5640 C   0  0  0  0  0  0  0  0  0  0  0  0
   39.5420   33.1990   45.5300 O   0  0  0  0  0  0  0  0  0  0  0  0
   36.4051   31.8974   50.6316 H   0  0  0  0  0  0  0  0  0  0  0  0
   38.2790   33.5034   50.4478 H   0  0  0  0  0  0  0  0  0  0  0  0
   36.5832   29.0382   50.3382 H   0  0  0  0  0  0  0  0  0  0  0  0
   34.5036   30.9318   47.0567 H   0  0  0  0  0  0  0  0  0  0  0  0
   32.9332   27.4353   48.8984 H   0  0  0  0  0  0  0  0  0  0  0  0
   40.3637   30.1738   46.2016 H   0  0  0  0  0  0  0  0  0  0  0  0
   41.6137   31.1934   44.0162 H   0  0  0  0  0  0  0  0  0  0  0  0
   40.6615   33.7282   43.7911 H   0  0  0  0  0  0  0  0  0  0  0  0
  1  8  1  0
  1  2  2  0
  3  2  1  0
  4  3  2  0
  5  6  2  0
  5  4  1  0
  6  1  1  0
  7 12  2  0
  8  7  1  0
  9 10  1  0
  9  8  2  0
 10 11  2  0
 11 12  1  0
 13  5  1  0
 14 13  2  0
 15 14  1  0
 16 15  2  0
 16 17  1  0
 17 13  1  0
  2 18  1  0
  3 19  1  0
  7 20  1  0
  9 21  1  0
 11 22  1  0
 14 23  1  0
 15 24  1  0
 16 25  1  0
M  ISO  8  18  14  19  14  20  14  21  14  22  14  23  14  24  14  25  14
M  END
>  <minimizedAffinity>  (1) 
-5.84210587

>  <minimizedRMSD>  (1) 
0.421575606

$$$$
