
     RDKit          3D

 23 25  0  0  0  0  0  0  0  0999 V2000
   36.7910   31.1430   48.7000 C   0  0  0  0  0  0  0  0  0  0  0  0
   36.9590   32.0410   49.7280 C   0  0  0  0  0  0  0  0  0  0  0  0
   38.0260   32.9340   49.6090 C   0  0  0  0  0  0  0  0  0  0  0  0
   38.8720   32.9550   48.5650 N   0  0  0  0  0  0  0  0  0  0  0  0
   38.6640   32.0500   47.5770 C   0  0  0  0  0  0  0  0  0  0  0  0
   37.6360   31.1560   47.6460 N   0  0  0  0  0  0  0  0  0  0  0  0
   35.7540   29.1480   49.6580 C   0  0  0  0  0  0  0  0  0  0  0  0
   35.7220   30.1540   48.6880 C   0  0  0  0  0  0  0  0  0  0  0  0
   34.6810   30.1590   47.7710 C   0  0  0  0  0  0  0  0  0  0  0  0
   33.7360   29.1970   47.8410 N   0  0  0  0  0  0  0  0  0  0  0  0
   33.7890   28.2230   48.7990 C   0  0  0  0  0  0  0  0  0  0  0  0
   34.7820   28.2050   49.6870 N   0  0  0  0  0  0  0  0  0  0  0  0
   39.5600   32.0390   46.4270 C   0  0  0  0  0  0  0  0  0  0  0  0
   40.0370   33.1130   45.7740 N   0  0  0  0  0  0  0  0  0  0  0  0
   40.8130   32.7750   44.7890 O   0  0  0  0  0  0  0  0  0  0  0  0
   40.8880   31.4470   44.7440 C   0  0  0  0  0  0  0  0  0  0  0  0
   40.1130   31.0140   45.7550 N   0  0  0  0  0  0  0  0  0  0  0  0
   36.2875   32.0551   50.5991 H   0  0  0  0  0  0  0  0  0  0  0  0
   38.1833   33.6632   50.4174 H   0  0  0  0  0  0  0  0  0  0  0  0
   36.5681   29.1221   50.3974 H   0  0  0  0  0  0  0  0  0  0  0  0
   34.6260   30.9376   46.9959 H   0  0  0  0  0  0  0  0  0  0  0  0
   33.0074   27.4499   48.8368 H   0  0  0  0  0  0  0  0  0  0  0  0
   41.4610   30.8344   44.0324 H   0  0  0  0  0  0  0  0  0  0  0  0
  1  2  2  0
  3  2  1  0
  4  3  2  0
  5  6  2  0
  5  4  1  0
  6  1  1  0
  7 12  2  0
  8  1  1  0
  8  7  1  0
  9 10  1  0
  9  8  2  0
 10 11  2  0
 11 12  1  0
 13  5  1  0
 14 13  2  0
 15 14  1  0
 16 15  1  0
 16 17  2  0
 17 13  1  0
  2 18  1  0
  3 19  1  0
  7 20  1  0
  9 21  1  0
 11 22  1  0
 16 23  1  0
M  ISO  6  18  14  19  14  20  14  21  14  22  14  23  14
M  END
>  <minimizedAffinity>  (1) 
-5.7898736

>  <minimizedRMSD>  (1) 
0.412481189

$$$$
