
     RDKit          3D

 30 31  0  0  0  0  0  0  0  0999 V2000
   36.9640   31.2460   48.5690 C   0  0  0  0  0  0  0  0  0  0  0  0
   37.2640   32.0630   49.6280 C   0  0  0  0  0  0  0  0  0  0  0  0
   38.3060   32.9660   49.4460 C   0  0  0  0  0  0  0  0  0  0  0  0
   39.0150   33.0720   48.3080 N   0  0  0  0  0  0  0  0  0  0  0  0
   38.6770   32.2350   47.2770 C   0  0  0  0  0  0  0  0  0  0  0  0
   37.6630   31.3440   47.4320 N   0  0  0  0  0  0  0  0  0  0  0  0
   35.9430   29.2980   49.6500 C   0  0  0  0  0  0  0  0  0  0  0  0
   35.8930   30.2450   48.6110 C   0  0  0  0  0  0  0  0  0  0  0  0
   34.8570   30.1870   47.6960 C   0  0  0  0  0  0  0  0  0  0  0  0
   33.9200   29.2140   47.8340 N   0  0  0  0  0  0  0  0  0  0  0  0
   33.9720   28.3090   48.8310 C   0  0  0  0  0  0  0  0  0  0  0  0
   34.9710   28.3450   49.7340 N   0  0  0  0  0  0  0  0  0  0  0  0
   39.3800   32.2620   45.9900 C   0  0  0  0  0  0  0  0  0  0  0  0
   38.2980   32.4410   44.9220 C   0  0  0  0  0  0  0  0  0  0  0  0
   40.2610   33.4870   45.9190 C   0  0  0  0  0  0  0  0  0  0  0  0
   40.1930   31.0160   45.7250 C   0  0  0  0  0  0  0  0  0  0  0  0
   36.7078   32.0072   50.5754 H   0  0  0  0  0  0  0  0  0  0  0  0
   38.5655   33.6325   50.2817 H   0  0  0  0  0  0  0  0  0  0  0  0
   36.7584   29.3259   50.3878 H   0  0  0  0  0  0  0  0  0  0  0  0
   34.7936   30.9144   46.8733 H   0  0  0  0  0  0  0  0  0  0  0  0
   33.1935   27.5357   48.9080 H   0  0  0  0  0  0  0  0  0  0  0  0
   37.3250   32.6020   45.4092 H   0  0  0  0  0  0  0  0  0  0  0  0
   38.5423   33.3109   44.2947 H   0  0  0  0  0  0  0  0  0  0  0  0
   38.2492   31.5387   44.2947 H   0  0  0  0  0  0  0  0  0  0  0  0
   40.5033   33.8239   46.9377 H   0  0  0  0  0  0  0  0  0  0  0  0
   41.1898   33.2402   45.3838 H   0  0  0  0  0  0  0  0  0  0  0  0
   39.7315   34.2890   45.3838 H   0  0  0  0  0  0  0  0  0  0  0  0
   40.4896   30.5614   46.6817 H   0  0  0  0  0  0  0  0  0  0  0  0
   39.5884   30.2990   45.1502 H   0  0  0  0  0  0  0  0  0  0  0  0
   41.0928   31.2806   45.1502 H   0  0  0  0  0  0  0  0  0  0  0  0
  1  8  1  0
  1  2  2  0
  3  2  1  0
  4  3  2  0
  5  6  2  0
  5  4  1  0
  6  1  1  0
  7 12  2  0
  8  7  1  0
  9 10  1  0
  9  8  2  0
 10 11  2  0
 11 12  1  0
 13  5  1  0
 14 13  1  0
 15 13  1  0
 16 13  1  0
  2 17  1  0
  3 18  1  0
  7 19  1  0
  9 20  1  0
 11 21  1  0
 14 22  1  0
 14 23  1  0
 14 24  1  0
 15 25  1  0
 15 26  1  0
 15 27  1  0
 16 28  1  0
 16 29  1  0
 16 30  1  0
M  ISO  8  17  14  18  14  19  14  20  14  21  14  22   8  23   8  24   8
M  ISO  6  25   8  26   8  27   8  28   8  29   8  30   8
M  END
>  <minimizedAffinity>  (1) 
-5.75135517

>  <minimizedRMSD>  (1) 
0.245648891

$$$$
