
     RDKit          3D

 25 27  0  0  0  0  0  0  0  0999 V2000
   36.9470   31.2100   48.5330 C   0  0  0  0  0  0  0  0  0  0  0  0
   37.3400   31.9930   49.5660 C   0  0  0  0  0  0  0  0  0  0  0  0
   38.3860   32.8760   49.3360 C   0  0  0  0  0  0  0  0  0  0  0  0
   39.0210   32.9870   48.1450 N   0  0  0  0  0  0  0  0  0  0  0  0
   38.5960   32.1810   47.1310 C   0  0  0  0  0  0  0  0  0  0  0  0
   37.5720   31.3130   47.3470 N   0  0  0  0  0  0  0  0  0  0  0  0
   35.9170   29.3190   49.6970 C   0  0  0  0  0  0  0  0  0  0  0  0
   35.8600   30.2290   48.6200 C   0  0  0  0  0  0  0  0  0  0  0  0
   34.8090   30.1610   47.7100 C   0  0  0  0  0  0  0  0  0  0  0  0
   33.8670   29.2000   47.9020 N   0  0  0  0  0  0  0  0  0  0  0  0
   33.9240   28.3320   48.9300 C   0  0  0  0  0  0  0  0  0  0  0  0
   34.9340   28.3810   49.8250 N   0  0  0  0  0  0  0  0  0  0  0  0
   39.2430   32.2440   45.7940 C   0  0  0  0  0  0  0  0  0  0  0  0
   40.5200   33.0050   45.5980 C   0  0  0  0  0  0  0  0  0  0  0  0
   40.5070   31.5220   45.5260 C   0  0  0  0  0  0  0  0  0  0  0  0
   36.8495   31.9315   50.5487 H   0  0  0  0  0  0  0  0  0  0  0  0
   38.7165   33.5194   50.1647 H   0  0  0  0  0  0  0  0  0  0  0  0
   36.7420   29.3650   50.4231 H   0  0  0  0  0  0  0  0  0  0  0  0
   34.7429   30.8612   46.8642 H   0  0  0  0  0  0  0  0  0  0  0  0
   33.1366   27.5722   49.0423 H   0  0  0  0  0  0  0  0  0  0  0  0
   38.2447   32.2618   45.3323 H   0  0  0  0  0  0  0  0  0  0  0  0
   40.6728   33.6001   44.6856 H   0  0  0  0  0  0  0  0  0  0  0  0
   41.0797   33.7538   46.1777 H   0  0  0  0  0  0  0  0  0  0  0  0
   40.6563   31.0191   44.5592 H   0  0  0  0  0  0  0  0  0  0  0  0
   41.0610   30.7183   46.0331 H   0  0  0  0  0  0  0  0  0  0  0  0
  1  8  1  0
  1  2  2  0
  3  2  1  0
  4  3  2  0
  5  6  2  0
  5  4  1  0
  6  1  1  0
  7 12  2  0
  8  7  1  0
  9 10  1  0
  9  8  2  0
 10 11  2  0
 11 12  1  0
 13  5  1  0
 14 13  1  0
 15 14  1  0
 15 13  1  0
  2 16  1  0
  3 17  1  0
  7 18  1  0
  9 19  1  0
 11 20  1  0
 13 21  1  0
 14 22  1  0
 14 23  1  0
 15 24  1  0
 15 25  1  0
M  ISO  8  16  14  17  14  18  14  19  14  20  14  21  13  22  13  23  13
M  ISO  2  24  13  25  13
M  END
>  <minimizedAffinity>  (1) 
-5.39088583

>  <minimizedRMSD>  (1) 
0.267245293

$$$$
