
     RDKit          3D

 24 25  0  0  0  0  0  0  0  0999 V2000
   37.0350   31.2260   48.5320 C   0  0  0  0  0  0  0  0  0  0  0  0
   37.2120   32.1720   49.4960 C   0  0  0  0  0  0  0  0  0  0  0  0
   38.2640   33.0600   49.3400 C   0  0  0  0  0  0  0  0  0  0  0  0
   39.1070   33.0290   48.2920 N   0  0  0  0  0  0  0  0  0  0  0  0
   38.8980   32.0640   47.3430 C   0  0  0  0  0  0  0  0  0  0  0  0
   37.8710   31.1840   47.4780 N   0  0  0  0  0  0  0  0  0  0  0  0
   36.0390   29.2530   49.5680 C   0  0  0  0  0  0  0  0  0  0  0  0
   35.9660   30.2320   48.5770 C   0  0  0  0  0  0  0  0  0  0  0  0
   34.8910   30.2150   47.6920 C   0  0  0  0  0  0  0  0  0  0  0  0
   33.9540   29.2420   47.8290 N   0  0  0  0  0  0  0  0  0  0  0  0
   34.0420   28.2990   48.7960 C   0  0  0  0  0  0  0  0  0  0  0  0
   35.0760   28.3010   49.6620 N   0  0  0  0  0  0  0  0  0  0  0  0
   39.7390   31.8920   46.1210 C   0  0  0  0  0  0  0  0  0  0  0  0
   40.1380   33.2040   45.5230 C   0  0  0  0  0  0  0  0  0  0  0  0
   36.5433   32.2289   50.3676 H   0  0  0  0  0  0  0  0  0  0  0  0
   38.4176   33.8288   50.1116 H   0  0  0  0  0  0  0  0  0  0  0  0
   36.8806   29.2525   50.2763 H   0  0  0  0  0  0  0  0  0  0  0  0
   34.8029   30.9729   46.8996 H   0  0  0  0  0  0  0  0  0  0  0  0
   33.2643   27.5252   48.8762 H   0  0  0  0  0  0  0  0  0  0  0  0
   40.6478   31.3345   46.3915 H   0  0  0  0  0  0  0  0  0  0  0  0
   39.1435   31.3465   45.3741 H   0  0  0  0  0  0  0  0  0  0  0  0
   40.3564   33.9222   46.3271 H   0  0  0  0  0  0  0  0  0  0  0  0
   41.0348   33.0659   44.9011 H   0  0  0  0  0  0  0  0  0  0  0  0
   39.3162   33.5886   44.9011 H   0  0  0  0  0  0  0  0  0  0  0  0
  1  8  1  0
  1  2  2  0
  3  2  1  0
  4  3  2  0
  5  6  2  0
  5  4  1  0
  6  1  1  0
  7 12  2  0
  8  7  1  0
  9 10  1  0
  9  8  2  0
 10 11  2  0
 11 12  1  0
 13  5  1  0
 14 13  1  0
  2 15  1  0
  3 16  1  0
  7 17  1  0
  9 18  1  0
 11 19  1  0
 13 20  1  0
 13 21  1  0
 14 22  1  0
 14 23  1  0
 14 24  1  0
M  ISO  8  15  14  16  14  17  14  18  14  19  14  20   8  21   8  22   8
M  ISO  2  23   8  24   8
M  END
>  <minimizedAffinity>  (1) 
-5.03360796

>  <minimizedRMSD>  (1) 
0.286926717

$$$$
