
     RDKit          3D

 40 44  0  0  0  0  0  0  0  0999 V2000
   35.8510   29.2710   49.4720 C   0  0  0  0  0  0  0  0  0  0  0  0
   35.8600   30.3150   48.5740 C   0  0  0  0  0  0  0  0  0  0  0  0
   34.8400   30.3620   47.6440 C   0  0  0  0  0  0  0  0  0  0  0  0
   33.8990   29.3690   47.6860 N   0  0  0  0  0  0  0  0  0  0  0  0
   33.9070   28.3610   48.5660 C   0  0  0  0  0  0  0  0  0  0  0  0
   34.8930   28.3390   49.4450 N   0  0  0  0  0  0  0  0  0  0  0  0
   36.9330   31.2950   48.6410 C   0  0  0  0  0  0  0  0  0  0  0  0
   37.1360   32.0850   49.7360 C   0  0  0  0  0  0  0  0  0  0  0  0
   38.2140   32.9780   49.6630 C   0  0  0  0  0  0  0  0  0  0  0  0
   39.0270   33.0850   48.5980 N   0  0  0  0  0  0  0  0  0  0  0  0
   38.7790   32.2750   47.5380 C   0  0  0  0  0  0  0  0  0  0  0  0
   37.7430   31.3870   47.5580 N   0  0  0  0  0  0  0  0  0  0  0  0
   39.6170   32.3480   46.3860 N   0  0  0  0  0  0  0  0  0  0  0  0
   40.0820   33.3320   45.5930 C   0  0  0  0  0  0  0  0  0  0  0  0
   40.8500   32.7430   44.6420 N   0  0  0  0  0  0  0  0  0  0  0  0
   40.8350   31.3990   44.8810 C   0  0  0  0  0  0  0  0  0  0  0  0
   40.0610   31.1440   45.9770 N   0  0  0  0  0  0  0  0  0  0  0  0
   32.7750   27.4720   48.3480 C   0  0  0  0  0  0  0  0  0  0  0  0
   31.5200   27.7340   48.8310 C   0  0  0  0  0  0  0  0  0  0  0  0
   30.4240   26.9230   48.6490 C   0  0  0  0  0  0  0  0  0  0  0  0
   30.5430   25.7500   47.9380 C   0  0  0  0  0  0  0  0  0  0  0  0
   31.7690   25.4320   47.4310 C   0  0  0  0  0  0  0  0  0  0  0  0
   31.8630   24.2660   46.7300 C   0  0  0  0  0  0  0  0  0  0  0  0
   33.0650   23.8690   46.1840 C   0  0  0  0  0  0  0  0  0  0  0  0
   34.1640   24.7130   46.3830 C   0  0  0  0  0  0  0  0  0  0  0  0
   34.0060   25.8640   47.0910 C   0  0  0  0  0  0  0  0  0  0  0  0
   32.8230   26.2880   47.6490 C   0  0  0  0  0  0  0  0  0  0  0  0
   36.6482   29.2026   50.2268 H   0  0  0  0  0  0  0  0  0  0  0  0
   34.7859   31.1678   46.8971 H   0  0  0  0  0  0  0  0  0  0  0  0
   36.4905   32.0241   50.6246 H   0  0  0  0  0  0  0  0  0  0  0  0
   38.4059   33.6296   50.5282 H   0  0  0  0  0  0  0  0  0  0  0  0
   39.8781   34.4080   45.6964 H   0  0  0  0  0  0  0  0  0  0  0  0
   41.3633   30.6406   44.2846 H   0  0  0  0  0  0  0  0  0  0  0  0
   31.3785   28.6607   49.4065 H   0  0  0  0  0  0  0  0  0  0  0  0
   29.4507   27.2121   49.0723 H   0  0  0  0  0  0  0  0  0  0  0  0
   29.6767   25.0899   47.7836 H   0  0  0  0  0  0  0  0  0  0  0  0
   30.9709   23.6360   46.5989 H   0  0  0  0  0  0  0  0  0  0  0  0
   33.1565   22.9307   45.6172 H   0  0  0  0  0  0  0  0  0  0  0  0
   35.1483   24.4475   45.9699 H   0  0  0  0  0  0  0  0  0  0  0  0
   34.8908   26.5032   47.2272 H   0  0  0  0  0  0  0  0  0  0  0  0
  2  7  1  0
  2  1  2  0
  3  4  2  0
  3  2  1  0
  4  5  1  0
  5  6  2  0
  6  1  1  0
  7  8  2  0
  9  8  1  0
 10  9  2  0
 11 12  2  0
 11 10  1  0
 12  7  1  0
 13 11  1  0
 14 13  1  0
 15 16  1  0
 15 14  2  0
 16 17  2  0
 17 13  1  0
 18  5  1  0
 18 19  2  0
 20 19  1  0
 21 20  2  0
 22 27  2  0
 22 21  1  0
 23 22  1  0
 24 25  1  0
 24 23  2  0
 25 26  2  0
 26 27  1  0
 27 18  1  0
  1 28  1  0
  3 29  1  0
  8 30  1  0
  9 31  1  0
 14 32  1  0
 16 33  1  0
 19 34  1  0
 20 35  1  0
 21 36  1  0
 23 37  1  0
 24 38  1  0
 25 39  1  0
 26 40  1  0
M  ISO  8  28  14  29  14  30  14  31  14  32  14  33  14  34  14  35  14
M  ISO  5  36  14  37  14  38  14  39  14  40  14
M  END
>  <minimizedAffinity>  (1) 
-7.43161106

>  <minimizedRMSD>  (1) 
0.764172792

$$$$
