
     RDKit          3D

 31 34  0  0  0  0  0  0  0  0999 V2000
   36.8660   31.3900   48.6280 C   0  0  0  0  0  0  0  0  0  0  0  0
   37.1080   32.1790   49.7400 C   0  0  0  0  0  0  0  0  0  0  0  0
   38.2300   33.0190   49.6650 C   0  0  0  0  0  0  0  0  0  0  0  0
   39.0420   33.0840   48.6010 N   0  0  0  0  0  0  0  0  0  0  0  0
   38.7530   32.2930   47.5530 C   0  0  0  0  0  0  0  0  0  0  0  0
   37.6740   31.4550   47.5690 N   0  0  0  0  0  0  0  0  0  0  0  0
   39.5940   32.3240   46.3870 N   0  0  0  0  0  0  0  0  0  0  0  0
   40.1030   33.2840   45.6090 C   0  0  0  0  0  0  0  0  0  0  0  0
   40.8320   32.6790   44.6470 N   0  0  0  0  0  0  0  0  0  0  0  0
   40.7480   31.3350   44.8650 C   0  0  0  0  0  0  0  0  0  0  0  0
   39.9640   31.1060   45.9670 N   0  0  0  0  0  0  0  0  0  0  0  0
   35.1850   30.0390   49.7580 C   0  0  0  0  0  0  0  0  0  0  0  0
   35.7490   30.4840   48.5730 C   0  0  0  0  0  0  0  0  0  0  0  0
   35.1910   30.0170   47.3710 C   0  0  0  0  0  0  0  0  0  0  0  0
   34.1280   29.1550   47.4440 N   0  0  0  0  0  0  0  0  0  0  0  0
   33.6130   28.7490   48.6200 C   0  0  0  0  0  0  0  0  0  0  0  0
   34.1300   29.1820   49.7820 N   0  0  0  0  0  0  0  0  0  0  0  0
   32.4810   27.8310   48.6050 C   0  0  0  0  0  0  0  0  0  0  0  0
   32.3790   26.6190   47.9560 C   0  0  0  0  0  0  0  0  0  0  0  0
   31.1450   26.0960   48.2120 N   0  0  0  0  0  0  0  0  0  0  0  0
   30.4960   26.9870   49.0120 C   0  0  0  0  0  0  0  0  0  0  0  0
   31.3120   28.0300   49.2420 N   0  0  0  0  0  0  0  0  0  0  0  0
   36.4601   32.1492   50.6284 H   0  0  0  0  0  0  0  0  0  0  0  0
   38.4557   33.6609   50.5293 H   0  0  0  0  0  0  0  0  0  0  0  0
   39.9553   34.3673   45.7301 H   0  0  0  0  0  0  0  0  0  0  0  0
   41.2319   30.5585   44.2543 H   0  0  0  0  0  0  0  0  0  0  0  0
   35.6052   30.3912   50.7116 H   0  0  0  0  0  0  0  0  0  0  0  0
   35.5960   30.3343   46.3987 H   0  0  0  0  0  0  0  0  0  0  0  0
   33.1597   26.1528   47.3370 H   0  0  0  0  0  0  0  0  0  0  0  0
   29.4748   26.8722   49.4043 H   0  0  0  0  0  0  0  0  0  0  0  0
   31.0792   28.8529   49.8160 H   0  0  0  0  0  0  0  0  0  0  0  0
  1  2  2  0
  3  2  1  0
  4  3  2  0
  5  6  2  0
  5  4  1  0
  6  1  1  0
  7  5  1  0
  8  7  1  0
  9 10  1  0
  9  8  2  0
 10 11  2  0
 11  7  1  0
 12 17  2  0
 13  1  1  0
 13 12  1  0
 14 15  1  0
 14 13  2  0
 15 16  2  0
 16 17  1  0
 18 16  1  0
 18 22  1  0
 19 20  1  0
 19 18  2  0
 20 21  2  0
 21 22  1  0
  2 23  1  0
  3 24  1  0
  8 25  1  0
 10 26  1  0
 12 27  1  0
 14 28  1  0
 19 29  1  0
 21 30  1  0
 22 31  1  0
M  ISO  8  23  14  24  14  25  14  26  14  27  14  28  14  29  14  30  14
M  ISO  1  31   9
M  END
>  <minimizedAffinity>  (1) 
-6.8899436

>  <minimizedRMSD>  (1) 
0.808544457

$$$$
