
     RDKit          3D

 29 31  0  0  1  0  0  0  0  0999 V2000
   35.8670   30.1320   48.7850 C   0  0  0  0  0  0  0  0  0  0  0  0
   35.9400   29.1400   49.7750 C   0  0  0  0  0  0  0  0  0  0  0  0
   34.8550   28.2980   49.6180 C   0  0  0  0  0  0  0  0  0  0  0  0
   34.1630   28.7780   48.5670 N   0  0  0  0  0  0  0  0  0  0  0  0
   34.7570   29.8570   48.0760 N   0  0  0  0  0  0  0  0  0  0  0  0
   38.0380   33.0680   49.4060 C   0  0  0  0  0  0  0  0  0  0  0  0
   38.9210   32.9800   48.3260 C   0  0  0  0  0  0  0  0  0  0  0  0
   38.7470   31.9290   47.4270 C   0  0  0  0  0  0  0  0  0  0  0  0
   37.7270   31.0480   47.6530 N   0  0  0  0  0  0  0  0  0  0  0  0
   36.8920   31.1650   48.7100 C   0  0  0  0  0  0  0  0  0  0  0  0
   37.0430   32.1640   49.5810 N   0  0  0  0  0  0  0  0  0  0  0  0
   31.8660   28.1690   49.0330 N   0  0  0  0  0  0  0  0  0  0  0  0
   30.8130   27.5470   48.2170 C   0  0  0  0  0  0  0  0  0  0  0  0
   31.0380   28.0640   46.8010 C   0  0  0  0  0  0  0  0  0  0  0  0
   32.3740   28.7740   46.8770 C   0  0  0  0  0  0  0  0  0  0  0  0
   32.9610   28.1490   48.1100 C   0  0  1  0  0  0  0  0  0  0  0  0
   36.7235   29.0485   50.5417 H   0  0  0  0  0  0  0  0  0  0  0  0
   34.6074   27.4161   50.2270 H   0  0  0  0  0  0  0  0  0  0  0  0
   38.1530   33.8885   50.1296 H   0  0  0  0  0  0  0  0  0  0  0  0
   39.7270   33.7162   48.1899 H   0  0  0  0  0  0  0  0  0  0  0  0
   39.4127   31.8119   46.5592 H   0  0  0  0  0  0  0  0  0  0  0  0
   31.6169   29.1304   49.3060 H   0  0  0  0  0  0  0  0  0  0  0  0
   30.9018   26.4509   48.2449 H   0  0  0  0  0  0  0  0  0  0  0  0
   29.8079   27.7962   48.5880 H   0  0  0  0  0  0  0  0  0  0  0  0
   30.2402   28.7626   46.5086 H   0  0  0  0  0  0  0  0  0  0  0  0
   31.0285   27.2598   46.0506 H   0  0  0  0  0  0  0  0  0  0  0  0
   32.9903   28.5712   45.9887 H   0  0  0  0  0  0  0  0  0  0  0  0
   32.3030   29.8711   46.9146 H   0  0  0  0  0  0  0  0  0  0  0  0
   33.3320   27.1271   47.9423 H   0  0  0  0  0  0  0  0  0  0  0  0
  1  2  1  0
  3  2  2  0
  4  3  1  0
  5  4  1  0
  5  1  2  0
  6 11  2  0
  7  6  1  0
  8  9  1  0
  8  7  2  0
  9 10  2  0
 10  1  1  0
 10 11  1  0
 13 12  1  0
 14 15  1  0
 14 13  1  0
 16 15  1  0
 16  4  1  0
 16 12  1  0
  2 17  1  0
  3 18  1  0
  6 19  1  0
  7 20  1  0
  8 21  1  0
 12 22  1  0
 13 23  1  0
 13 24  1  0
 14 25  1  0
 14 26  1  0
 15 27  1  0
 15 28  1  0
 16 29  1  6
M  ISO  8  17  14  18  14  19  14  20  14  21  14  22   5  23  13  24  13
M  ISO  5  25  13  26  13  27  13  28  13  29  13
M  END
>  <minimizedAffinity>  (1) 
-5.01178598

>  <minimizedRMSD>  (1) 
0.741761744

$$$$
