
     RDKit          3D

 29 32  0  0  0  0  0  0  0  0999 V2000
   36.8470   31.1680   48.5980 C   0  0  0  0  0  0  0  0  0  0  0  0
   37.0380   31.9300   49.7210 C   0  0  0  0  0  0  0  0  0  0  0  0
   38.1240   32.8220   49.6910 C   0  0  0  0  0  0  0  0  0  0  0  0
   38.9480   32.9510   48.6490 N   0  0  0  0  0  0  0  0  0  0  0  0
   38.7090   32.1670   47.5630 C   0  0  0  0  0  0  0  0  0  0  0  0
   37.6650   31.2880   47.5510 N   0  0  0  0  0  0  0  0  0  0  0  0
   39.5610   32.2690   46.4270 N   0  0  0  0  0  0  0  0  0  0  0  0
   40.0600   33.2530   45.6700 C   0  0  0  0  0  0  0  0  0  0  0  0
   40.8240   32.7010   44.7160 N   0  0  0  0  0  0  0  0  0  0  0  0
   40.7850   31.3510   44.9030 C   0  0  0  0  0  0  0  0  0  0  0  0
   39.9920   31.0780   45.9780 N   0  0  0  0  0  0  0  0  0  0  0  0
   35.7400   29.1360   49.3720 C   0  0  0  0  0  0  0  0  0  0  0  0
   35.7580   30.2070   48.5030 C   0  0  0  0  0  0  0  0  0  0  0  0
   34.7180   30.3130   47.5710 C   0  0  0  0  0  0  0  0  0  0  0  0
   33.7500   29.3570   47.5720 N   0  0  0  0  0  0  0  0  0  0  0  0
   33.7720   28.3170   48.4440 C   0  0  0  0  0  0  0  0  0  0  0  0
   34.7650   28.2020   49.3460 N   0  0  0  0  0  0  0  0  0  0  0  0
   32.6690   27.3680   48.3290 C   0  0  0  0  0  0  0  0  0  0  0  0
   32.5380   26.1450   47.7850 N   0  0  0  0  0  0  0  0  0  0  0  0
   31.3000   25.7300   47.9660 O   0  0  0  0  0  0  0  0  0  0  0  0
   30.6060   26.6440   48.6170 C   0  0  0  0  0  0  0  0  0  0  0  0
   31.4470   27.6720   48.8500 N   0  0  0  0  0  0  0  0  0  0  0  0
   36.3781   31.8481   50.5972 H   0  0  0  0  0  0  0  0  0  0  0  0
   38.3050   33.4492   50.5764 H   0  0  0  0  0  0  0  0  0  0  0  0
   39.8755   34.3288   45.8066 H   0  0  0  0  0  0  0  0  0  0  0  0
   41.3078   30.6043   44.2873 H   0  0  0  0  0  0  0  0  0  0  0  0
   36.5481   29.0393   50.1121 H   0  0  0  0  0  0  0  0  0  0  0  0
   34.6846   31.1483   46.8561 H   0  0  0  0  0  0  0  0  0  0  0  0
   29.5482   26.5800   48.9120 H   0  0  0  0  0  0  0  0  0  0  0  0
  1  2  2  0
  3  2  1  0
  4  3  2  0
  5  4  1  0
  6  5  2  0
  6  1  1  0
  7  5  1  0
  8  7  1  0
  9 10  1  0
  9  8  2  0
 10 11  2  0
 11  7  1  0
 13  1  1  0
 13 12  2  0
 14 15  2  0
 14 13  1  0
 15 16  1  0
 16 17  2  0
 17 12  1  0
 18 16  1  0
 18 22  1  0
 19 20  1  0
 19 18  2  0
 20 21  1  0
 21 22  2  0
  2 23  1  0
  3 24  1  0
  8 25  1  0
 10 26  1  0
 12 27  1  0
 14 28  1  0
 21 29  1  0
M  ISO  7  23  14  24  14  25  14  26  14  27  14  28  14  29  14
M  END
>  <minimizedAffinity>  (1) 
-6.77785206

>  <minimizedRMSD>  (1) 
0.403579026

$$$$
