
     RDKit          3D

 32 35  0  0  0  0  0  0  0  0999 V2000
   36.8820   31.3900   48.6050 C   0  0  0  0  0  0  0  0  0  0  0  0
   37.1130   32.1700   49.7110 C   0  0  0  0  0  0  0  0  0  0  0  0
   38.2160   33.0200   49.6710 C   0  0  0  0  0  0  0  0  0  0  0  0
   39.0420   33.1040   48.6170 N   0  0  0  0  0  0  0  0  0  0  0  0
   38.7770   32.3170   47.5460 C   0  0  0  0  0  0  0  0  0  0  0  0
   37.7010   31.4660   47.5430 N   0  0  0  0  0  0  0  0  0  0  0  0
   39.6260   32.3730   46.4080 N   0  0  0  0  0  0  0  0  0  0  0  0
   40.1440   33.3380   45.6320 C   0  0  0  0  0  0  0  0  0  0  0  0
   40.8940   32.7400   44.6840 N   0  0  0  0  0  0  0  0  0  0  0  0
   40.8210   31.4010   44.8960 C   0  0  0  0  0  0  0  0  0  0  0  0
   40.0250   31.1670   45.9800 N   0  0  0  0  0  0  0  0  0  0  0  0
   35.1920   30.0160   49.7030 C   0  0  0  0  0  0  0  0  0  0  0  0
   35.7740   30.4670   48.5150 C   0  0  0  0  0  0  0  0  0  0  0  0
   35.2520   29.9970   47.3060 C   0  0  0  0  0  0  0  0  0  0  0  0
   34.2010   29.1240   47.3590 N   0  0  0  0  0  0  0  0  0  0  0  0
   33.6610   28.7100   48.5210 C   0  0  0  0  0  0  0  0  0  0  0  0
   34.1490   29.1490   49.6930 N   0  0  0  0  0  0  0  0  0  0  0  0
   32.5400   27.7760   48.5000 C   0  0  0  0  0  0  0  0  0  0  0  0
   32.6160   26.6220   47.7480 C   0  0  0  0  0  0  0  0  0  0  0  0
   31.5110   25.7670   47.7660 C   0  0  0  0  0  0  0  0  0  0  0  0
   30.4360   26.0840   48.4960 N   0  0  0  0  0  0  0  0  0  0  0  0
   30.3660   27.2100   49.2270 C   0  0  0  0  0  0  0  0  0  0  0  0
   31.4310   28.0420   49.2140 N   0  0  0  0  0  0  0  0  0  0  0  0
   36.4550   32.1256   50.5914 H   0  0  0  0  0  0  0  0  0  0  0  0
   38.4198   33.6536   50.5468 H   0  0  0  0  0  0  0  0  0  0  0  0
   39.9855   34.4203   45.7482 H   0  0  0  0  0  0  0  0  0  0  0  0
   41.3219   30.6299   44.2923 H   0  0  0  0  0  0  0  0  0  0  0  0
   35.5879   30.3715   50.6658 H   0  0  0  0  0  0  0  0  0  0  0  0
   35.6736   30.3194   46.3425 H   0  0  0  0  0  0  0  0  0  0  0  0
   33.5125   26.3839   47.1567 H   0  0  0  0  0  0  0  0  0  0  0  0
   31.5251   24.8354   47.1812 H   0  0  0  0  0  0  0  0  0  0  0  0
   29.4690   27.4471   49.8179 H   0  0  0  0  0  0  0  0  0  0  0  0
  1  2  2  0
  3  2  1  0
  4  3  2  0
  5  4  1  0
  6  5  2  0
  6  1  1  0
  7  5  1  0
  8  7  1  0
  9 10  1  0
  9  8  2  0
 10 11  2  0
 11  7  1  0
 13  1  1  0
 13 12  2  0
 14 15  2  0
 14 13  1  0
 15 16  1  0
 16 17  2  0
 17 12  1  0
 18 16  1  0
 18 23  2  0
 19 20  2  0
 19 18  1  0
 20 21  1  0
 21 22  2  0
 23 22  1  0
  2 24  1  0
  3 25  1  0
  8 26  1  0
 10 27  1  0
 12 28  1  0
 14 29  1  0
 19 30  1  0
 20 31  1  0
 22 32  1  0
M  ISO  8  24  14  25  14  26  14  27  14  28  14  29  14  30  14  31  14
M  ISO  1  32  14
M  END
>  <minimizedAffinity>  (1) 
-6.48632574

>  <minimizedRMSD>  (1) 
0.634004831

$$$$
