
     RDKit          3D

 31 34  0  0  0  0  0  0  0  0999 V2000
   36.7770   31.0920   48.5540 C   0  0  0  0  0  0  0  0  0  0  0  0
   36.9690   31.8610   49.6670 C   0  0  0  0  0  0  0  0  0  0  0  0
   38.0490   32.7470   49.6390 C   0  0  0  0  0  0  0  0  0  0  0  0
   38.8820   32.8670   48.5930 N   0  0  0  0  0  0  0  0  0  0  0  0
   38.6480   32.0830   47.5180 C   0  0  0  0  0  0  0  0  0  0  0  0
   37.5980   31.2000   47.5030 N   0  0  0  0  0  0  0  0  0  0  0  0
   39.4990   32.1710   46.3850 N   0  0  0  0  0  0  0  0  0  0  0  0
   40.0000   33.1760   45.6340 C   0  0  0  0  0  0  0  0  0  0  0  0
   40.7640   32.5980   44.6740 N   0  0  0  0  0  0  0  0  0  0  0  0
   40.7170   31.2580   44.8530 C   0  0  0  0  0  0  0  0  0  0  0  0
   39.9230   31.0010   45.9240 N   0  0  0  0  0  0  0  0  0  0  0  0
   35.6710   29.0550   49.3120 C   0  0  0  0  0  0  0  0  0  0  0  0
   35.6970   30.1340   48.4500 C   0  0  0  0  0  0  0  0  0  0  0  0
   34.6540   30.2330   47.5130 C   0  0  0  0  0  0  0  0  0  0  0  0
   33.6910   29.2680   47.5110 N   0  0  0  0  0  0  0  0  0  0  0  0
   33.7080   28.2320   48.3730 C   0  0  0  0  0  0  0  0  0  0  0  0
   34.7040   28.1170   49.2850 N   0  0  0  0  0  0  0  0  0  0  0  0
   32.6060   27.2260   48.2910 C   0  0  0  0  0  0  0  0  0  0  0  0
   31.4650   27.4630   47.3720 C   0  0  0  0  0  0  0  0  0  0  0  0
   31.3050   27.6500   48.8560 C   0  0  0  0  0  0  0  0  0  0  0  0
   36.3062   31.7863   50.5417 H   0  0  0  0  0  0  0  0  0  0  0  0
   38.2262   33.3800   50.5210 H   0  0  0  0  0  0  0  0  0  0  0  0
   39.8229   34.2526   45.7738 H   0  0  0  0  0  0  0  0  0  0  0  0
   41.2329   30.5065   44.2373 H   0  0  0  0  0  0  0  0  0  0  0  0
   36.4766   28.9570   50.0545 H   0  0  0  0  0  0  0  0  0  0  0  0
   34.6157   31.0687   46.7988 H   0  0  0  0  0  0  0  0  0  0  0  0
   33.2945   26.3793   48.4292 H   0  0  0  0  0  0  0  0  0  0  0  0
   31.4676   28.3362   46.7030 H   0  0  0  0  0  0  0  0  0  0  0  0
   30.9495   26.8749   46.5984 H   0  0  0  0  0  0  0  0  0  0  0  0
   30.6997   26.9401   49.4387 H   0  0  0  0  0  0  0  0  0  0  0  0
   30.9674   28.4699   49.5069 H   0  0  0  0  0  0  0  0  0  0  0  0
  1  2  2  0
  3  2  1  0
  4  3  2  0
  5  4  1  0
  6  5  2  0
  6  1  1  0
  7  5  1  0
  8  7  1  0
  9 10  1  0
  9  8  2  0
 10 11  2  0
 11  7  1  0
 13  1  1  0
 13 12  2  0
 14 13  1  0
 15 14  2  0
 15 16  1  0
 16 17  2  0
 17 12  1  0
 18 16  1  0
 18 20  1  0
 19 18  1  0
 19 20  1  0
  2 21  1  0
  3 22  1  0
  8 23  1  0
 10 24  1  0
 12 25  1  0
 14 26  1  0
 18 27  1  0
 19 28  1  0
 19 29  1  0
 20 30  1  0
 20 31  1  0
M  ISO  8  21  14  22  14  23  14  24  14  25  14  26  14  27  13  28  13
M  ISO  3  29  13  30  13  31  13
M  END
>  <minimizedAffinity>  (1) 
-6.47594786

>  <minimizedRMSD>  (1) 
0.512457311

$$$$
