
     RDKit          3D

 30 32  0  0  0  0  0  0  0  0999 V2000
   36.8310   31.0270   48.4980 C   0  0  0  0  0  0  0  0  0  0  0  0
   36.9810   31.8260   49.6210 C   0  0  0  0  0  0  0  0  0  0  0  0
   38.0250   32.7550   49.5970 C   0  0  0  0  0  0  0  0  0  0  0  0
   38.8660   32.9080   48.5730 N   0  0  0  0  0  0  0  0  0  0  0  0
   38.6730   32.0990   47.4970 C   0  0  0  0  0  0  0  0  0  0  0  0
   37.6680   31.1740   47.4660 N   0  0  0  0  0  0  0  0  0  0  0  0
   39.5450   32.2170   46.3640 N   0  0  0  0  0  0  0  0  0  0  0  0
   39.9990   33.2290   45.6040 C   0  0  0  0  0  0  0  0  0  0  0  0
   40.8070   32.6910   44.6690 N   0  0  0  0  0  0  0  0  0  0  0  0
   40.8290   31.3350   44.8830 C   0  0  0  0  0  0  0  0  0  0  0  0
   40.0330   31.0360   45.9500 N   0  0  0  0  0  0  0  0  0  0  0  0
   35.7010   29.0640   49.3780 C   0  0  0  0  0  0  0  0  0  0  0  0
   35.7940   30.0350   48.4040 C   0  0  0  0  0  0  0  0  0  0  0  0
   34.8620   29.9940   47.3700 C   0  0  0  0  0  0  0  0  0  0  0  0
   33.9230   29.0200   47.3660 N   0  0  0  0  0  0  0  0  0  0  0  0
   33.8620   28.0750   48.3510 C   0  0  0  0  0  0  0  0  0  0  0  0
   34.7560   28.0970   49.3620 N   0  0  0  0  0  0  0  0  0  0  0  0
   32.7520   27.0870   48.1670 C   0  0  0  0  0  0  0  0  0  0  0  0
   31.4460   27.6630   48.7180 C   0  0  0  0  0  0  0  0  0  0  0  0
   36.3111   31.7333   50.4885 H   0  0  0  0  0  0  0  0  0  0  0  0
   38.1616   33.4002   50.4774 H   0  0  0  0  0  0  0  0  0  0  0  0
   39.7566   34.2953   45.7230 H   0  0  0  0  0  0  0  0  0  0  0  0
   41.3982   30.6053   44.2884 H   0  0  0  0  0  0  0  0  0  0  0  0
   36.4271   29.0763   50.2042 H   0  0  0  0  0  0  0  0  0  0  0  0
   34.8890   30.7445   46.5662 H   0  0  0  0  0  0  0  0  0  0  0  0
   32.6313   26.8693   47.0955 H   0  0  0  0  0  0  0  0  0  0  0  0
   32.9970   26.1617   48.7090 H   0  0  0  0  0  0  0  0  0  0  0  0
   31.4747   27.6503   49.8176 H   0  0  0  0  0  0  0  0  0  0  0  0
   31.3246   28.6982   48.3663 H   0  0  0  0  0  0  0  0  0  0  0  0
   30.5997   27.0546   48.3663 H   0  0  0  0  0  0  0  0  0  0  0  0
  1  2  2  0
  3  2  1  0
  4  3  2  0
  5  4  1  0
  6  5  2  0
  6  1  1  0
  7  5  1  0
  8  7  1  0
  9 10  1  0
  9  8  2  0
 10 11  2  0
 11  7  1  0
 13  1  1  0
 13 12  2  0
 14 13  1  0
 15 14  2  0
 15 16  1  0
 16 17  2  0
 17 12  1  0
 18 16  1  0
 18 19  1  0
  2 20  1  0
  3 21  1  0
  8 22  1  0
 10 23  1  0
 12 24  1  0
 14 25  1  0
 18 26  1  0
 18 27  1  0
 19 28  1  0
 19 29  1  0
 19 30  1  0
M  ISO  8  20  14  21  14  22  14  23  14  24  14  25  14  26   8  27   8
M  ISO  3  28   8  29   8  30   8
M  END
>  <minimizedAffinity>  (1) 
-6.31956244

>  <minimizedRMSD>  (1) 
0.490250915

$$$$
