
     RDKit          3D

 36 38  0  0  0  0  0  0  0  0999 V2000
   36.5760   30.9250   48.4300 C   0  0  0  0  0  0  0  0  0  0  0  0
   36.7760   31.5560   49.6450 C   0  0  0  0  0  0  0  0  0  0  0  0
   37.9060   32.3690   49.7570 C   0  0  0  0  0  0  0  0  0  0  0  0
   38.7770   32.5500   48.7530 N   0  0  0  0  0  0  0  0  0  0  0  0
   38.5380   31.9130   47.5890 C   0  0  0  0  0  0  0  0  0  0  0  0
   37.4480   31.1110   47.4360 N   0  0  0  0  0  0  0  0  0  0  0  0
   39.4410   32.0790   46.4940 N   0  0  0  0  0  0  0  0  0  0  0  0
   40.0270   33.1050   45.8660 C   0  0  0  0  0  0  0  0  0  0  0  0
   40.7920   32.6200   44.8810 N   0  0  0  0  0  0  0  0  0  0  0  0
   40.6650   31.2530   44.9170 C   0  0  0  0  0  0  0  0  0  0  0  0
   39.8150   30.9150   45.9310 N   0  0  0  0  0  0  0  0  0  0  0  0
   35.2880   28.9400   49.0000 C   0  0  0  0  0  0  0  0  0  0  0  0
   35.4440   30.0610   48.1960 C   0  0  0  0  0  0  0  0  0  0  0  0
   34.4920   30.2940   47.2000 C   0  0  0  0  0  0  0  0  0  0  0  0
   33.4610   29.4120   47.0650 N   0  0  0  0  0  0  0  0  0  0  0  0
   33.3350   28.3300   47.8610 C   0  0  0  0  0  0  0  0  0  0  0  0
   34.2410   28.0910   48.8240 N   0  0  0  0  0  0  0  0  0  0  0  0
   32.2140   27.3770   47.7100 C   0  0  0  0  0  0  0  0  0  0  0  0
   31.4360   27.6940   46.4280 C   0  0  0  0  0  0  0  0  0  0  0  0
   32.6280   25.9420   47.6580 C   0  0  0  0  0  0  0  0  0  0  0  0
   31.1950   27.5490   48.8350 C   0  0  0  0  0  0  0  0  0  0  0  0
   36.0772   31.4234   50.4841 H   0  0  0  0  0  0  0  0  0  0  0  0
   38.0901   32.8841   50.7114 H   0  0  0  0  0  0  0  0  0  0  0  0
   39.9010   34.1685   46.1172 H   0  0  0  0  0  0  0  0  0  0  0  0
   41.1661   30.5458   44.2397 H   0  0  0  0  0  0  0  0  0  0  0  0
   36.0234   28.7355   49.7921 H   0  0  0  0  0  0  0  0  0  0  0  0
   34.5726   31.1698   46.5393 H   0  0  0  0  0  0  0  0  0  0  0  0
   30.4466   28.0971   46.6898 H   0  0  0  0  0  0  0  0  0  0  0  0
   31.9904   28.4379   45.8371 H   0  0  0  0  0  0  0  0  0  0  0  0
   31.3126   26.7744   45.8371 H   0  0  0  0  0  0  0  0  0  0  0  0
   32.7396   25.5552   48.6817 H   0  0  0  0  0  0  0  0  0  0  0  0
   31.8616   25.3583   47.1270 H   0  0  0  0  0  0  0  0  0  0  0  0
   33.5875   25.8562   47.1270 H   0  0  0  0  0  0  0  0  0  0  0  0
   31.7035   27.4632   49.8066 H   0  0  0  0  0  0  0  0  0  0  0  0
   30.7233   28.5395   48.7542 H   0  0  0  0  0  0  0  0  0  0  0  0
   30.4244   26.7682   48.7542 H   0  0  0  0  0  0  0  0  0  0  0  0
  1  2  2  0
  2  3  1  0
  4  3  2  0
  5  4  1  0
  6  5  2  0
  6  1  1  0
  7  5  1  0
  8  7  1  0
  9 10  1  0
  9  8  2  0
 10 11  2  0
 11  7  1  0
 13  1  1  0
 13 12  2  0
 14 13  1  0
 15 14  2  0
 15 16  1  0
 16 17  2  0
 17 12  1  0
 18 16  1  0
 18 21  1  0
 19 18  1  0
 20 18  1  0
  2 22  1  0
  3 23  1  0
  8 24  1  0
 10 25  1  0
 12 26  1  0
 14 27  1  0
 19 28  1  0
 19 29  1  0
 19 30  1  0
 20 31  1  0
 20 32  1  0
 20 33  1  0
 21 34  1  0
 21 35  1  0
 21 36  1  0
M  ISO  8  22  14  23  14  24  14  25  14  26  14  27  14  28   8  29   8
M  ISO  7  30   8  31   8  32   8  33   8  34   8  35   8  36   8
M  END
>  <minimizedAffinity>  (1) 
-6.3058157

>  <minimizedRMSD>  (1) 
1.046507

$$$$
