
     RDKit          3D

 27 29  0  0  0  0  0  0  0  0999 V2000
   36.0710   30.3250   48.7670 C   0  0  0  0  0  0  0  0  0  0  0  0
   36.2320   29.2500   49.6490 C   0  0  0  0  0  0  0  0  0  0  0  0
   35.1380   28.4090   49.5050 C   0  0  0  0  0  0  0  0  0  0  0  0
   34.3670   28.9770   48.5690 N   0  0  0  0  0  0  0  0  0  0  0  0
   34.9070   30.0870   48.1420 N   0  0  0  0  0  0  0  0  0  0  0  0
   38.1910   33.2880   49.4500 C   0  0  0  0  0  0  0  0  0  0  0  0
   39.0510   33.2420   48.3360 C   0  0  0  0  0  0  0  0  0  0  0  0
   38.8820   32.2220   47.4070 C   0  0  0  0  0  0  0  0  0  0  0  0
   37.8840   31.3040   47.6180 N   0  0  0  0  0  0  0  0  0  0  0  0
   37.0790   31.3820   48.6980 C   0  0  0  0  0  0  0  0  0  0  0  0
   37.2320   32.3550   49.5960 N   0  0  0  0  0  0  0  0  0  0  0  0
   33.1220   28.6010   47.9880 C   0  0  0  0  0  0  0  0  0  0  0  0
   32.7730   29.0600   46.7140 C   0  0  0  0  0  0  0  0  0  0  0  0
   31.5740   28.7220   46.1050 C   0  0  0  0  0  0  0  0  0  0  0  0
   30.6800   27.9040   46.7710 C   0  0  0  0  0  0  0  0  0  0  0  0
   31.0080   27.4370   48.0400 C   0  0  0  0  0  0  0  0  0  0  0  0
   32.2190   27.7870   48.6350 C   0  0  0  0  0  0  0  0  0  0  0  0
   37.0777   29.0986   50.3359 H   0  0  0  0  0  0  0  0  0  0  0  0
   34.9444   27.4714   50.0466 H   0  0  0  0  0  0  0  0  0  0  0  0
   38.3028   34.0852   50.1997 H   0  0  0  0  0  0  0  0  0  0  0  0
   39.8398   33.9972   48.2038 H   0  0  0  0  0  0  0  0  0  0  0  0
   39.5331   32.1522   46.5232 H   0  0  0  0  0  0  0  0  0  0  0  0
   33.4753   29.7131   46.1753 H   0  0  0  0  0  0  0  0  0  0  0  0
   31.3360   29.1015   45.1003 H   0  0  0  0  0  0  0  0  0  0  0  0
   29.7233   27.6265   46.3044 H   0  0  0  0  0  0  0  0  0  0  0  0
   30.3047   26.7852   48.5790 H   0  0  0  0  0  0  0  0  0  0  0  0
   32.4576   27.4063   49.6391 H   0  0  0  0  0  0  0  0  0  0  0  0
  1  2  1  0
  3  2  2  0
  4  3  1  0
  5  4  1  0
  5  1  2  0
  6 11  2  0
  7  6  1  0
  8  9  1  0
  8  7  2  0
  9 10  2  0
 10  1  1  0
 10 11  1  0
 12  4  1  0
 12 17  1  0
 13 12  2  0
 14 13  1  0
 14 15  2  0
 15 16  1  0
 16 17  2  0
  2 18  1  0
  3 19  1  0
  6 20  1  0
  7 21  1  0
  8 22  1  0
 13 23  1  0
 14 24  1  0
 15 25  1  0
 16 26  1  0
 17 27  1  0
M  ISO  8  18  14  19  14  20  14  21  14  22  14  23  14  24  14  25  14
M  ISO  2  26  14  27  14
M  END
>  <minimizedAffinity>  (1) 
-4.9892602

>  <minimizedRMSD>  (1) 
0.916491628

$$$$
