
     RDKit          3D

 26 28  0  0  0  0  0  0  0  0999 V2000
   36.7970   31.1170   48.5740 C   0  0  0  0  0  0  0  0  0  0  0  0
   36.9940   31.9010   49.6830 C   0  0  0  0  0  0  0  0  0  0  0  0
   38.0740   32.7920   49.6320 C   0  0  0  0  0  0  0  0  0  0  0  0
   38.8930   32.9030   48.5770 N   0  0  0  0  0  0  0  0  0  0  0  0
   38.6490   32.1070   47.5210 C   0  0  0  0  0  0  0  0  0  0  0  0
   37.6140   31.2210   47.5110 N   0  0  0  0  0  0  0  0  0  0  0  0
   39.5030   32.1930   46.3680 N   0  0  0  0  0  0  0  0  0  0  0  0
   39.9950   33.1750   45.6060 C   0  0  0  0  0  0  0  0  0  0  0  0
   40.7530   32.6120   44.6490 N   0  0  0  0  0  0  0  0  0  0  0  0
   40.7140   31.2640   44.8460 C   0  0  0  0  0  0  0  0  0  0  0  0
   39.9270   30.9960   45.9280 N   0  0  0  0  0  0  0  0  0  0  0  0
   35.7150   29.0870   49.3720 C   0  0  0  0  0  0  0  0  0  0  0  0
   35.7230   30.1560   48.4900 C   0  0  0  0  0  0  0  0  0  0  0  0
   34.6800   30.2270   47.5730 C   0  0  0  0  0  0  0  0  0  0  0  0
   33.7200   29.2600   47.5880 N   0  0  0  0  0  0  0  0  0  0  0  0
   33.7500   28.2340   48.4650 C   0  0  0  0  0  0  0  0  0  0  0  0
   34.7580   28.1350   49.3760 N   0  0  0  0  0  0  0  0  0  0  0  0
   32.7090   27.2620   48.4160 N   0  0  0  0  0  0  0  0  0  0  0  0
   36.3393   31.8335   50.5644 H   0  0  0  0  0  0  0  0  0  0  0  0
   38.2597   33.4351   50.5049 H   0  0  0  0  0  0  0  0  0  0  0  0
   39.8122   34.2516   45.7384 H   0  0  0  0  0  0  0  0  0  0  0  0
   41.2331   30.5133   44.2320 H   0  0  0  0  0  0  0  0  0  0  0  0
   36.5303   29.0104   50.1064 H   0  0  0  0  0  0  0  0  0  0  0  0
   34.6306   31.0514   46.8464 H   0  0  0  0  0  0  0  0  0  0  0  0
   32.7117   26.4708   49.0755 H   0  0  0  0  0  0  0  0  0  0  0  0
   31.9539   27.3507   47.7211 H   0  0  0  0  0  0  0  0  0  0  0  0
  1  2  2  0
  3  2  1  0
  4  3  2  0
  5  4  1  0
  6  5  2  0
  6  1  1  0
  7  5  1  0
  8  7  1  0
  9 10  1  0
  9  8  2  0
 10 11  2  0
 11  7  1  0
 12 17  2  0
 13  1  1  0
 13 12  1  0
 14 15  1  0
 14 13  2  0
 15 16  2  0
 16 17  1  0
 18 16  1  0
  2 19  1  0
  3 20  1  0
  8 21  1  0
 10 22  1  0
 12 23  1  0
 14 24  1  0
 18 25  1  0
 18 26  1  0
M  ISO  6  19  14  20  14  21  14  22  14  23  14  24  14
M  END
>  <minimizedAffinity>  (1) 
-6.2761097

>  <minimizedRMSD>  (1) 
0.29500109

$$$$
