
     RDKit          3D

 35 37  0  0  0  0  0  0  0  0999 V2000
   36.9490   29.1510   50.4210 C   0  0  0  0  0  0  0  0  0  0  0  0
   37.8350   30.1660   50.0170 C   0  0  0  0  0  0  0  0  0  0  0  0
   37.3870   31.1070   49.0500 C   0  0  0  0  0  0  0  0  0  0  0  0
   36.1160   30.9310   48.6000 N   0  0  0  0  0  0  0  0  0  0  0  0
   35.2850   29.9680   48.9890 C   0  0  0  0  0  0  0  0  0  0  0  0
   35.6990   29.0720   49.9020 N   0  0  0  0  0  0  0  0  0  0  0  0
   38.1960   32.1640   48.5680 N   0  0  0  0  0  0  0  0  0  0  0  0
   38.3870   33.3490   49.4350 C   0  0  0  0  0  0  0  0  0  0  0  0
   39.6520   34.0480   49.0590 C   0  0  0  0  0  0  0  0  0  0  0  0
   39.8020   34.2240   47.6430 N   0  0  0  0  0  0  0  0  0  0  0  0
   39.6310   33.1020   46.8170 C   0  0  0  0  0  0  0  0  0  0  0  0
   38.7770   31.9960   47.2780 C   0  0  0  0  0  0  0  0  0  0  0  0
   38.6460   30.8730   46.3650 C   0  0  0  0  0  0  0  0  0  0  0  0
   39.8220   30.7720   45.4240 C   0  0  0  0  0  0  0  0  0  0  0  0
   39.3130   29.6650   44.4840 C   0  0  0  0  0  0  0  0  0  0  0  0
   37.9810   30.2950   44.0910 C   0  0  0  0  0  0  0  0  0  0  0  0
   37.4910   30.8580   45.4400 C   0  0  0  0  0  0  0  0  0  0  0  0
   37.2745   28.4118   51.1677 H   0  0  0  0  0  0  0  0  0  0  0  0
   38.8490   30.2301   50.4386 H   0  0  0  0  0  0  0  0  0  0  0  0
   34.2705   29.9054   48.5685 H   0  0  0  0  0  0  0  0  0  0  0  0
   37.5376   34.0362   49.3076 H   0  0  0  0  0  0  0  0  0  0  0  0
   38.4466   33.0268   50.4851 H   0  0  0  0  0  0  0  0  0  0  0  0
   39.6592   35.0387   49.5370 H   0  0  0  0  0  0  0  0  0  0  0  0
   40.4869   33.4182   49.4000 H   0  0  0  0  0  0  0  0  0  0  0  0
   40.0285   35.1463   47.2444 H   0  0  0  0  0  0  0  0  0  0  0  0
   40.1291   33.0502   45.8376 H   0  0  0  0  0  0  0  0  0  0  0  0
   38.5418   30.0556   47.0937 H   0  0  0  0  0  0  0  0  0  0  0  0
   39.9979   31.7156   44.8868 H   0  0  0  0  0  0  0  0  0  0  0  0
   40.7876   30.5632   45.9077 H   0  0  0  0  0  0  0  0  0  0  0  0
   39.9748   29.5209   43.6173 H   0  0  0  0  0  0  0  0  0  0  0  0
   39.2537   28.6575   44.9215 H   0  0  0  0  0  0  0  0  0  0  0  0
   38.1194   31.0953   43.3491 H   0  0  0  0  0  0  0  0  0  0  0  0
   37.2778   29.5937   43.6181 H   0  0  0  0  0  0  0  0  0  0  0  0
   37.1071   31.8797   45.3028 H   0  0  0  0  0  0  0  0  0  0  0  0
   36.6792   30.2365   45.8459 H   0  0  0  0  0  0  0  0  0  0  0  0
  2  1  2  0
  3  2  1  0
  4  5  1  0
  4  3  2  0
  5  6  2  0
  6  1  1  0
  7  3  1  0
  7  8  1  0
  9  8  1  0
 10  9  1  0
 11 12  2  0
 11 10  1  0
 12  7  1  0
 13 12  1  0
 14 13  1  0
 15 14  1  0
 16 15  1  0
 16 17  1  0
 17 13  1  0
  1 18  1  0
  2 19  1  0
  5 20  1  0
  8 21  1  0
  8 22  1  0
  9 23  1  0
  9 24  1  0
 10 25  1  0
 11 26  1  0
 13 27  1  0
 14 28  1  0
 14 29  1  0
 15 30  1  0
 15 31  1  0
 16 32  1  0
 16 33  1  0
 17 34  1  0
 17 35  1  0
M  ISO  8  18  14  19  14  20  14  21  13  22  13  23  13  24  13  26  13
M  ISO  8  27  13  28  13  29  13  30  13  31  13  32  13  33  13  34  13
M  ISO  1  35  13
M  END
>  <minimizedAffinity>  (1) 
-5.9170413

>  <minimizedRMSD>  (1) 
1.08599782

$$$$
