
     RDKit          3D

 28 29  0  0  0  0  0  0  0  0999 V2000
   36.9440   29.1190   50.1490 C   0  0  0  0  0  0  0  0  0  0  0  0
   37.8210   30.1910   49.8840 C   0  0  0  0  0  0  0  0  0  0  0  0
   37.4650   31.0830   48.8380 C   0  0  0  0  0  0  0  0  0  0  0  0
   36.3000   30.8170   48.1810 N   0  0  0  0  0  0  0  0  0  0  0  0
   35.4940   29.7890   48.4620 C   0  0  0  0  0  0  0  0  0  0  0  0
   35.8080   28.9370   49.4430 N   0  0  0  0  0  0  0  0  0  0  0  0
   38.2660   32.2020   48.4730 N   0  0  0  0  0  0  0  0  0  0  0  0
   38.2420   33.4000   49.3400 C   0  0  0  0  0  0  0  0  0  0  0  0
   39.5110   34.1670   49.1470 C   0  0  0  0  0  0  0  0  0  0  0  0
   39.8600   34.3630   47.7670 N   0  0  0  0  0  0  0  0  0  0  0  0
   39.8770   33.2320   46.9390 C   0  0  0  0  0  0  0  0  0  0  0  0
   39.0400   32.0820   47.2890 C   0  0  0  0  0  0  0  0  0  0  0  0
   39.0730   30.9410   46.4020 C   0  0  0  0  0  0  0  0  0  0  0  0
   40.2890   31.0060   45.5090 C   0  0  0  0  0  0  0  0  0  0  0  0
   37.1926   28.4113   50.9536 H   0  0  0  0  0  0  0  0  0  0  0  0
   38.7447   30.3308   50.4648 H   0  0  0  0  0  0  0  0  0  0  0  0
   34.5693   29.6434   47.8843 H   0  0  0  0  0  0  0  0  0  0  0  0
   37.3839   34.0332   49.0703 H   0  0  0  0  0  0  0  0  0  0  0  0
   38.1491   33.0947   50.3927 H   0  0  0  0  0  0  0  0  0  0  0  0
   39.3967   35.1533   49.6204 H   0  0  0  0  0  0  0  0  0  0  0  0
   40.3183   33.5753   49.6032 H   0  0  0  0  0  0  0  0  0  0  0  0
   40.0887   35.2980   47.4005 H   0  0  0  0  0  0  0  0  0  0  0  0
   40.5097   33.2085   46.0395 H   0  0  0  0  0  0  0  0  0  0  0  0
   39.1104   30.0181   46.9993 H   0  0  0  0  0  0  0  0  0  0  0  0
   38.1686   30.9484   45.7759 H   0  0  0  0  0  0  0  0  0  0  0  0
   41.1967   31.0545   46.1285 H   0  0  0  0  0  0  0  0  0  0  0  0
   40.3260   30.1086   44.8740 H   0  0  0  0  0  0  0  0  0  0  0  0
   40.2301   31.9023   44.8740 H   0  0  0  0  0  0  0  0  0  0  0  0
  2  1  2  0
  3  2  1  0
  4  5  1  0
  4  3  2  0
  5  6  2  0
  6  1  1  0
  7  3  1  0
  7  8  1  0
  9  8  1  0
 10  9  1  0
 11 12  2  0
 11 10  1  0
 12  7  1  0
 13 12  1  0
 14 13  1  0
  1 15  1  0
  2 16  1  0
  5 17  1  0
  8 18  1  0
  8 19  1  0
  9 20  1  0
  9 21  1  0
 10 22  1  0
 11 23  1  0
 13 24  1  0
 13 25  1  0
 14 26  1  0
 14 27  1  0
 14 28  1  0
M  ISO  8  15  14  16  14  17  14  18  13  19  13  20  13  21  13  23  13
M  ISO  5  24   8  25   8  26   8  27   8  28   8
M  END
>  <minimizedAffinity>  (1) 
-5.39515781

>  <minimizedRMSD>  (1) 
1.43099785

$$$$
