
     RDKit          3D

 25 26  0  0  0  0  0  0  0  0999 V2000
   36.2910   29.4670   51.2350 C   0  0  0  0  0  0  0  0  0  0  0  0
   37.2250   30.3630   50.7040 C   0  0  0  0  0  0  0  0  0  0  0  0
   36.8700   31.1400   49.5710 C   0  0  0  0  0  0  0  0  0  0  0  0
   35.6120   30.9520   49.0670 N   0  0  0  0  0  0  0  0  0  0  0  0
   34.7460   30.0790   49.6090 C   0  0  0  0  0  0  0  0  0  0  0  0
   35.0700   29.3430   50.6760 N   0  0  0  0  0  0  0  0  0  0  0  0
   37.7620   32.0670   48.9770 N   0  0  0  0  0  0  0  0  0  0  0  0
   38.0030   33.3570   49.6450 C   0  0  0  0  0  0  0  0  0  0  0  0
   39.3320   33.9050   49.2060 C   0  0  0  0  0  0  0  0  0  0  0  0
   39.4820   33.8850   47.7630 N   0  0  0  0  0  0  0  0  0  0  0  0
   39.2770   32.6440   47.1200 C   0  0  0  0  0  0  0  0  0  0  0  0
   38.3750   31.6810   47.7500 C   0  0  0  0  0  0  0  0  0  0  0  0
   38.1450   30.3890   47.1060 C   0  0  0  0  0  0  0  0  0  0  0  0
   36.5541   28.8600   52.1138 H   0  0  0  0  0  0  0  0  0  0  0  0
   38.2215   30.4638   51.1588 H   0  0  0  0  0  0  0  0  0  0  0  0
   33.7464   29.9677   49.1635 H   0  0  0  0  0  0  0  0  0  0  0  0
   37.2062   34.0653   49.3740 H   0  0  0  0  0  0  0  0  0  0  0  0
   38.0072   33.2114   50.7353 H   0  0  0  0  0  0  0  0  0  0  0  0
   39.4207   34.9436   49.5573 H   0  0  0  0  0  0  0  0  0  0  0  0
   40.1192   33.2688   49.6368 H   0  0  0  0  0  0  0  0  0  0  0  0
   39.7260   34.7341   47.2334 H   0  0  0  0  0  0  0  0  0  0  0  0
   39.7820   32.4086   46.1715 H   0  0  0  0  0  0  0  0  0  0  0  0
   38.0072   29.6151   47.8755 H   0  0  0  0  0  0  0  0  0  0  0  0
   37.2431   30.4472   46.4790 H   0  0  0  0  0  0  0  0  0  0  0  0
   39.0116   30.1324   46.4790 H   0  0  0  0  0  0  0  0  0  0  0  0
  2  1  2  0
  3  2  1  0
  4  3  2  0
  4  5  1  0
  5  6  2  0
  6  1  1  0
  7  3  1  0
  7  8  1  0
  9  8  1  0
 10  9  1  0
 11 12  2  0
 11 10  1  0
 12  7  1  0
 13 12  1  0
  1 14  1  0
  2 15  1  0
  5 16  1  0
  8 17  1  0
  8 18  1  0
  9 19  1  0
  9 20  1  0
 10 21  1  0
 11 22  1  0
 13 23  1  0
 13 24  1  0
 13 25  1  0
M  ISO  8  14  14  15  14  16  14  17  13  18  13  19  13  20  13  22  13
M  ISO  3  23   8  24   8  25   8
M  END
>  <minimizedAffinity>  (1) 
-5.14834452

>  <minimizedRMSD>  (1) 
0.218764812

$$$$
