
     RDKit          3D

 23 24  0  0  0  0  0  0  0  0999 V2000
   36.7360   29.0720   49.8640 C   0  0  0  0  0  0  0  0  0  0  0  0
   37.6350   30.1370   49.6650 C   0  0  0  0  0  0  0  0  0  0  0  0
   37.3240   31.0910   48.6600 C   0  0  0  0  0  0  0  0  0  0  0  0
   36.1720   30.9000   47.9580 N   0  0  0  0  0  0  0  0  0  0  0  0
   35.3370   29.8760   48.1710 C   0  0  0  0  0  0  0  0  0  0  0  0
   35.6170   28.9590   49.1250 N   0  0  0  0  0  0  0  0  0  0  0  0
   38.1610   32.1980   48.3800 N   0  0  0  0  0  0  0  0  0  0  0  0
   38.1610   33.3630   49.2710 C   0  0  0  0  0  0  0  0  0  0  0  0
   39.4710   34.0890   49.1510 C   0  0  0  0  0  0  0  0  0  0  0  0
   39.8490   34.3400   47.7880 N   0  0  0  0  0  0  0  0  0  0  0  0
   39.8600   33.2350   46.9090 C   0  0  0  0  0  0  0  0  0  0  0  0
   38.9800   32.0960   47.1980 C   0  0  0  0  0  0  0  0  0  0  0  0
   38.9630   30.7010   46.1300 S   0  0  0  0  0  0  0  0  0  0  0  0
   36.9519   28.3194   50.6367 H   0  0  0  0  0  0  0  0  0  0  0  0
   38.5498   30.2274   50.2691 H   0  0  0  0  0  0  0  0  0  0  0  0
   34.4213   29.7800   47.5691 H   0  0  0  0  0  0  0  0  0  0  0  0
   37.3405   34.0393   48.9894 H   0  0  0  0  0  0  0  0  0  0  0  0
   38.0224   33.0286   50.3097 H   0  0  0  0  0  0  0  0  0  0  0  0
   39.3874   35.0525   49.6750 H   0  0  0  0  0  0  0  0  0  0  0  0
   40.2458   33.4468   49.5952 H   0  0  0  0  0  0  0  0  0  0  0  0
   40.1011   35.2853   47.4658 H   0  0  0  0  0  0  0  0  0  0  0  0
   40.5149   33.2277   46.0252 H   0  0  0  0  0  0  0  0  0  0  0  0
   38.9490   29.5533   46.8780 H   0  0  0  0  0  0  0  0  0  0  0  0
  2  1  2  0
  3  2  1  0
  4  5  1  0
  4  3  2  0
  5  6  2  0
  6  1  1  0
  7  3  1  0
  7  8  1  0
  9  8  1  0
 10  9  1  0
 11 12  2  0
 11 10  1  0
 12  7  1  0
 13 12  1  0
  1 14  1  0
  2 15  1  0
  5 16  1  0
  8 17  1  0
  8 18  1  0
  9 19  1  0
  9 20  1  0
 10 21  1  0
 11 22  1  0
 13 23  1  0
M  ISO  8  14  14  15  14  16  14  17  13  18  13  19  13  20  13  22  13
M  ISO  1  23  11
M  END
>  <minimizedAffinity>  (1) 
-5.01031399

>  <minimizedRMSD>  (1) 
1.17607319

$$$$
