
     RDKit          3D

 37 39  0  0  0  0  0  0  0  0999 V2000
   36.7830   29.0910   49.4740 C   0  0  0  0  0  0  0  0  0  0  0  0
   37.7330   30.1380   49.3680 C   0  0  0  0  0  0  0  0  0  0  0  0
   37.3340   31.2650   48.6000 C   0  0  0  0  0  0  0  0  0  0  0  0
   36.0890   31.2270   48.0470 N   0  0  0  0  0  0  0  0  0  0  0  0
   35.2230   30.2160   48.1730 C   0  0  0  0  0  0  0  0  0  0  0  0
   35.5800   29.1370   48.8970 N   0  0  0  0  0  0  0  0  0  0  0  0
   38.1820   32.3900   48.4040 N   0  0  0  0  0  0  0  0  0  0  0  0
   38.3670   33.3480   49.4920 C   0  0  0  0  0  0  0  0  0  0  0  0
   39.6900   34.0450   49.3220 C   0  0  0  0  0  0  0  0  0  0  0  0
   39.8510   34.5770   47.9960 N   0  0  0  0  0  0  0  0  0  0  0  0
   39.6920   33.6710   46.9250 C   0  0  0  0  0  0  0  0  0  0  0  0
   38.8110   32.5090   47.1230 C   0  0  0  0  0  0  0  0  0  0  0  0
   38.6610   31.6290   46.0630 N   0  0  0  0  0  0  0  0  0  0  0  0
   37.7150   32.1370   45.0850 C   0  0  0  0  0  0  0  0  0  0  0  0
   37.4560   31.1590   43.9570 C   0  0  0  0  0  0  0  0  0  0  0  0
   38.8380   30.6620   43.5490 C   0  0  0  0  0  0  0  0  0  0  0  0
   39.2490   29.7080   44.6440 C   0  0  0  0  0  0  0  0  0  0  0  0
   39.3850   30.3520   45.9760 C   0  0  0  0  0  0  0  0  0  0  0  0
   37.0497   28.1986   50.0593 H   0  0  0  0  0  0  0  0  0  0  0  0
   38.7196   30.0813   49.8512 H   0  0  0  0  0  0  0  0  0  0  0  0
   34.2344   30.2643   47.6931 H   0  0  0  0  0  0  0  0  0  0  0  0
   37.5553   34.0901   49.4701 H   0  0  0  0  0  0  0  0  0  0  0  0
   38.3510   32.8182   50.4559 H   0  0  0  0  0  0  0  0  0  0  0  0
   39.7522   34.8707   50.0461 H   0  0  0  0  0  0  0  0  0  0  0  0
   40.4877   33.3068   49.4915 H   0  0  0  0  0  0  0  0  0  0  0  0
   40.0715   35.5702   47.8354 H   0  0  0  0  0  0  0  0  0  0  0  0
   40.2123   33.8293   45.9689 H   0  0  0  0  0  0  0  0  0  0  0  0
   36.7626   32.3476   45.5934 H   0  0  0  0  0  0  0  0  0  0  0  0
   38.1506   33.0453   44.6430 H   0  0  0  0  0  0  0  0  0  0  0  0
   36.8305   30.3235   44.3043 H   0  0  0  0  0  0  0  0  0  0  0  0
   36.9175   31.6248   43.1185 H   0  0  0  0  0  0  0  0  0  0  0  0
   38.7916   30.1422   42.5807 H   0  0  0  0  0  0  0  0  0  0  0  0
   39.5552   31.4874   43.4294 H   0  0  0  0  0  0  0  0  0  0  0  0
   38.4899   28.9153   44.7172 H   0  0  0  0  0  0  0  0  0  0  0  0
   40.2403   29.3154   44.3736 H   0  0  0  0  0  0  0  0  0  0  0  0
   38.9867   29.6684   46.7402 H   0  0  0  0  0  0  0  0  0  0  0  0
   40.4526   30.5625   46.1370 H   0  0  0  0  0  0  0  0  0  0  0  0
  2  1  2  0
  3  2  1  0
  4  5  1  0
  4  3  2  0
  5  6  2  0
  6  1  1  0
  7  3  1  0
  7  8  1  0
  9  8  1  0
 10  9  1  0
 11 12  2  0
 11 10  1  0
 12  7  1  0
 13 12  1  0
 14 13  1  0
 15 14  1  0
 16 15  1  0
 16 17  1  0
 17 18  1  0
 18 13  1  0
  1 19  1  0
  2 20  1  0
  5 21  1  0
  8 22  1  0
  8 23  1  0
  9 24  1  0
  9 25  1  0
 10 26  1  0
 11 27  1  0
 14 28  1  0
 14 29  1  0
 15 30  1  0
 15 31  1  0
 16 32  1  0
 16 33  1  0
 17 34  1  0
 17 35  1  0
 18 36  1  0
 18 37  1  0
M  ISO  8  19  14  20  14  21  14  22  13  23  13  24  13  25  13  27  13
M  ISO  8  28  13  29  13  30  13  31  13  32  13  33  13  34  13  35  13
M  ISO  2  36  13  37  13
M  END
>  <minimizedAffinity>  (1) 
-4.83991003

>  <minimizedRMSD>  (1) 
1.89085197

$$$$
