
     RDKit          3D

 25 27  0  0  0  0  0  0  0  0999 V2000
   36.0230   30.3340   48.7210 C   0  0  0  0  0  0  0  0  0  0  0  0
   36.1550   29.2310   49.5510 C   0  0  0  0  0  0  0  0  0  0  0  0
   35.0620   28.4090   49.4130 C   0  0  0  0  0  0  0  0  0  0  0  0
   34.2810   29.0180   48.5050 N   0  0  0  0  0  0  0  0  0  0  0  0
   34.8380   30.1410   48.0990 N   0  0  0  0  0  0  0  0  0  0  0  0
   38.1950   33.2320   49.4680 C   0  0  0  0  0  0  0  0  0  0  0  0
   39.0420   33.2100   48.3410 C   0  0  0  0  0  0  0  0  0  0  0  0
   38.8440   32.2140   47.3730 C   0  0  0  0  0  0  0  0  0  0  0  0
   37.8310   31.3270   47.5950 N   0  0  0  0  0  0  0  0  0  0  0  0
   37.0400   31.3660   48.6700 C   0  0  0  0  0  0  0  0  0  0  0  0
   37.2140   32.3150   49.6120 N   0  0  0  0  0  0  0  0  0  0  0  0
   33.0210   28.6090   47.9810 C   0  0  0  0  0  0  0  0  0  0  0  0
   32.2060   27.7270   48.6510 C   0  0  0  0  0  0  0  0  0  0  0  0
   30.9900   27.3890   48.0540 C   0  0  0  0  0  0  0  0  0  0  0  0
   30.6740   27.9340   46.8640 N   0  0  0  0  0  0  0  0  0  0  0  0
   31.4800   28.8000   46.2140 C   0  0  0  0  0  0  0  0  0  0  0  0
   32.6650   29.1390   46.7800 N   0  0  0  0  0  0  0  0  0  0  0  0
   37.0074   29.0420   50.2201 H   0  0  0  0  0  0  0  0  0  0  0  0
   34.8687   27.4591   49.9329 H   0  0  0  0  0  0  0  0  0  0  0  0
   38.3348   34.0046   50.2385 H   0  0  0  0  0  0  0  0  0  0  0  0
   39.8405   33.9574   48.2233 H   0  0  0  0  0  0  0  0  0  0  0  0
   39.4768   32.1509   46.4755 H   0  0  0  0  0  0  0  0  0  0  0  0
   32.5014   27.3031   49.6221 H   0  0  0  0  0  0  0  0  0  0  0  0
   30.3008   26.6884   48.5481 H   0  0  0  0  0  0  0  0  0  0  0  0
   31.1813   29.2228   45.2434 H   0  0  0  0  0  0  0  0  0  0  0  0
  1  2  1  0
  3  2  2  0
  4  3  1  0
  5  4  1  0
  5  1  2  0
  6 11  2  0
  7  6  1  0
  8  9  1  0
  8  7  2  0
  9 10  2  0
 10  1  1  0
 10 11  1  0
 12  4  1  0
 12 13  2  0
 14 13  1  0
 15 14  2  0
 16 17  2  0
 16 15  1  0
 17 12  1  0
  2 18  1  0
  3 19  1  0
  6 20  1  0
  7 21  1  0
  8 22  1  0
 13 23  1  0
 14 24  1  0
 16 25  1  0
M  ISO  8  18  14  19  14  20  14  21  14  22  14  23  14  24  14  25  14
M  END
>  <minimizedAffinity>  (1) 
-4.94819689

>  <minimizedRMSD>  (1) 
0.795970023

$$$$
