
     RDKit          3D

 32 34  0  0  0  0  0  0  0  0999 V2000
   37.0860   29.1110   49.9470 C   0  0  0  0  0  0  0  0  0  0  0  0
   37.9810   30.1380   49.6020 C   0  0  0  0  0  0  0  0  0  0  0  0
   37.4810   31.2530   48.8580 C   0  0  0  0  0  0  0  0  0  0  0  0
   36.1400   31.2190   48.5390 N   0  0  0  0  0  0  0  0  0  0  0  0
   35.3180   30.2290   48.8810 C   0  0  0  0  0  0  0  0  0  0  0  0
   35.7810   29.1750   49.5820 N   0  0  0  0  0  0  0  0  0  0  0  0
   38.3080   32.3330   48.4680 N   0  0  0  0  0  0  0  0  0  0  0  0
   38.6730   33.3320   49.4920 C   0  0  0  0  0  0  0  0  0  0  0  0
   39.9200   34.0300   49.1030 C   0  0  0  0  0  0  0  0  0  0  0  0
   39.8970   34.4720   47.7080 N   0  0  0  0  0  0  0  0  0  0  0  0
   39.5570   33.4980   46.7330 C   0  0  0  0  0  0  0  0  0  0  0  0
   38.7190   32.3680   47.1250 C   0  0  0  0  0  0  0  0  0  0  0  0
   38.4720   31.5040   46.0700 N   0  0  0  0  0  0  0  0  0  0  0  0
   37.2890   30.9670   45.7430 C   0  0  0  0  0  0  0  0  0  0  0  0
   37.3420   30.1490   44.6420 C   0  0  0  0  0  0  0  0  0  0  0  0
   38.6480   30.1720   44.2480 N   0  0  0  0  0  0  0  0  0  0  0  0
   39.2900   31.0000   45.1380 C   0  0  0  0  0  0  0  0  0  0  0  0
   40.7650   31.3020   45.0580 C   0  0  0  0  0  0  0  0  0  0  0  0
   41.3070   30.5660   43.9990 F   0  0  0  0  0  0  0  0  0  0  0  0
   40.9900   32.6270   44.7720 F   0  0  0  0  0  0  0  0  0  0  0  0
   41.4180   30.8890   46.1860 F   0  0  0  0  0  0  0  0  0  0  0  0
   37.4480   28.2446   50.5200 H   0  0  0  0  0  0  0  0  0  0  0  0
   39.0395   30.0859   49.8966 H   0  0  0  0  0  0  0  0  0  0  0  0
   34.2579   30.2714   48.5906 H   0  0  0  0  0  0  0  0  0  0  0  0
   37.8602   34.0668   49.5889 H   0  0  0  0  0  0  0  0  0  0  0  0
   38.8325   32.8201   50.4525 H   0  0  0  0  0  0  0  0  0  0  0  0
   40.0499   34.9096   49.7507 H   0  0  0  0  0  0  0  0  0  0  0  0
   40.7527   33.3204   49.2175 H   0  0  0  0  0  0  0  0  0  0  0  0
   40.1170   35.4436   47.4462 H   0  0  0  0  0  0  0  0  0  0  0  0
   39.9190   33.5928   45.6986 H   0  0  0  0  0  0  0  0  0  0  0  0
   36.3631   31.1630   46.3036 H   0  0  0  0  0  0  0  0  0  0  0  0
   36.5122   29.5955   44.1783 H   0  0  0  0  0  0  0  0  0  0  0  0
  2  1  2  0
  3  2  1  0
  4  3  2  0
  4  5  1  0
  5  6  2  0
  6  1  1  0
  7  3  1  0
  7  8  1  0
  9  8  1  0
 10  9  1  0
 11 12  2  0
 11 10  1  0
 12  7  1  0
 13 12  1  0
 14 13  1  0
 15 14  2  0
 16 15  1  0
 16 17  2  0
 17 13  1  0
 18 17  1  0
 18 21  1  0
 19 18  1  0
 20 18  1  0
  1 22  1  0
  2 23  1  0
  5 24  1  0
  8 25  1  0
  8 26  1  0
  9 27  1  0
  9 28  1  0
 10 29  1  0
 11 30  1  0
 14 31  1  0
 15 32  1  0
M  ISO  8  22  14  23  14  24  14  25  13  26  13  27  13  28  13  30  13
M  ISO  2  31  14  32  14
M  END
>  <minimizedAffinity>  (1) 
-5.6331892

>  <minimizedRMSD>  (1) 
1.17777932

$$$$
