
     RDKit          3D

 39 42  0  0  0  0  0  0  0  0999 V2000
   36.7850   28.9950   50.0190 C   0  0  0  0  0  0  0  0  0  0  0  0
   37.5940   29.7130   49.1100 C   0  0  0  0  0  0  0  0  0  0  0  0
   37.0100   30.8220   48.4450 C   0  0  0  0  0  0  0  0  0  0  0  0
   35.6780   31.1050   48.7490 N   0  0  0  0  0  0  0  0  0  0  0  0
   34.9660   30.3880   49.6160 C   0  0  0  0  0  0  0  0  0  0  0  0
   35.5040   29.3460   50.2470 N   0  0  0  0  0  0  0  0  0  0  0  0
   37.7210   31.6130   47.5180 N   0  0  0  0  0  0  0  0  0  0  0  0
   38.6970   32.5870   48.0300 C   0  0  0  0  0  0  0  0  0  0  0  0
   39.7070   32.9030   46.9960 C   0  0  0  0  0  0  0  0  0  0  0  0
   39.1070   33.1990   45.6980 N   0  0  0  0  0  0  0  0  0  0  0  0
   38.1620   32.2630   45.2260 C   0  0  0  0  0  0  0  0  0  0  0  0
   37.4360   31.4120   46.1470 C   0  0  0  0  0  0  0  0  0  0  0  0
   36.5860   30.5390   45.5210 N   0  0  0  0  0  0  0  0  0  0  0  0
   35.3890   30.1600   45.9560 C   0  0  0  0  0  0  0  0  0  0  0  0
   34.7300   29.2970   45.1260 C   0  0  0  0  0  0  0  0  0  0  0  0
   35.5800   29.1140   44.0780 N   0  0  0  0  0  0  0  0  0  0  0  0
   36.6790   29.8720   44.3510 C   0  0  0  0  0  0  0  0  0  0  0  0
   37.8520   29.9490   43.4450 C   0  0  0  0  0  0  0  0  0  0  0  0
   37.9630   30.8340   42.3910 C   0  0  0  0  0  0  0  0  0  0  0  0
   39.0450   30.8860   41.5790 C   0  0  0  0  0  0  0  0  0  0  0  0
   40.0700   29.9800   41.8590 C   0  0  0  0  0  0  0  0  0  0  0  0
   40.0480   29.0660   42.8800 C   0  0  0  0  0  0  0  0  0  0  0  0
   38.9040   29.0610   43.6870 C   0  0  0  0  0  0  0  0  0  0  0  0
   37.2097   28.1314   50.5518 H   0  0  0  0  0  0  0  0  0  0  0  0
   38.6387   29.4227   48.9246 H   0  0  0  0  0  0  0  0  0  0  0  0
   33.9187   30.6602   49.8138 H   0  0  0  0  0  0  0  0  0  0  0  0
   38.1711   33.5099   48.3160 H   0  0  0  0  0  0  0  0  0  0  0  0
   39.2064   32.1538   48.9034 H   0  0  0  0  0  0  0  0  0  0  0  0
   40.2858   33.7788   47.3247 H   0  0  0  0  0  0  0  0  0  0  0  0
   40.3472   32.0169   46.8733 H   0  0  0  0  0  0  0  0  0  0  0  0
   39.3583   34.0402   45.1594 H   0  0  0  0  0  0  0  0  0  0  0  0
   37.9743   32.1785   44.1454 H   0  0  0  0  0  0  0  0  0  0  0  0
   34.9630   30.5123   46.9070 H   0  0  0  0  0  0  0  0  0  0  0  0
   33.7355   28.8502   45.2719 H   0  0  0  0  0  0  0  0  0  0  0  0
   37.1325   31.5301   42.2020 H   0  0  0  0  0  0  0  0  0  0  0  0
   39.1128   31.6013   40.7461 H   0  0  0  0  0  0  0  0  0  0  0  0
   40.9600   30.0015   41.2130 H   0  0  0  0  0  0  0  0  0  0  0  0
   40.8843   28.3735   43.0560 H   0  0  0  0  0  0  0  0  0  0  0  0
   38.8321   28.3490   44.5224 H   0  0  0  0  0  0  0  0  0  0  0  0
  1  6  2  0
  2  1  1  0
  3  4  1  0
  3  2  2  0
  4  5  2  0
  5  6  1  0
  7  8  1  0
  7  3  1  0
  9  8  1  0
 10  9  1  0
 11 10  1  0
 11 12  2  0
 12  7  1  0
 13 14  1  0
 13 12  1  0
 15 14  2  0
 16 17  2  0
 16 15  1  0
 17 13  1  0
 18 23  1  0
 18 17  1  0
 19 18  2  0
 20 21  2  0
 20 19  1  0
 21 22  1  0
 22 23  2  0
  1 24  1  0
  2 25  1  0
  5 26  1  0
  8 27  1  0
  8 28  1  0
  9 29  1  0
  9 30  1  0
 10 31  1  0
 11 32  1  0
 14 33  1  0
 15 34  1  0
 19 35  1  0
 20 36  1  0
 21 37  1  0
 22 38  1  0
 23 39  1  0
M  ISO  8  24  14  25  14  26  14  27  13  28  13  29  13  30  13  32  13
M  ISO  7  33  14  34  14  35  14  36  14  37  14  38  14  39  14
M  END
>  <minimizedAffinity>  (1) 
-5.34672546

>  <minimizedRMSD>  (1) 
3.53038049

$$$$
