
     RDKit          3D

 23 25  0  0  0  0  0  0  0  0999 V2000
   35.9850   30.3180   48.7050 C   0  0  0  0  0  0  0  0  0  0  0  0
   36.1170   29.2270   49.5680 C   0  0  0  0  0  0  0  0  0  0  0  0
   35.0240   28.3940   49.4240 C   0  0  0  0  0  0  0  0  0  0  0  0
   34.2600   28.9850   48.4910 N   0  0  0  0  0  0  0  0  0  0  0  0
   34.8150   30.1110   48.0640 N   0  0  0  0  0  0  0  0  0  0  0  0
   38.1840   33.1990   49.4590 C   0  0  0  0  0  0  0  0  0  0  0  0
   39.0190   33.1820   48.3430 C   0  0  0  0  0  0  0  0  0  0  0  0
   38.8150   32.1970   47.3660 C   0  0  0  0  0  0  0  0  0  0  0  0
   37.8040   31.3080   47.5680 N   0  0  0  0  0  0  0  0  0  0  0  0
   37.0070   31.3460   48.6620 C   0  0  0  0  0  0  0  0  0  0  0  0
   37.1990   32.2810   49.5940 N   0  0  0  0  0  0  0  0  0  0  0  0
   32.9960   28.5260   47.9660 C   0  0  0  0  0  0  0  0  0  0  0  0
   32.5490   28.8400   46.7100 C   0  0  0  0  0  0  0  0  0  0  0  0
   30.9320   27.9780   46.6590 S   0  0  0  0  0  0  0  0  0  0  0  0
   31.1840   27.3200   48.4480 C   0  0  0  0  0  0  0  0  0  0  0  0
   32.2460   27.7660   48.7490 N   0  0  0  0  0  0  0  0  0  0  0  0
   36.9594   29.0577   50.2547 H   0  0  0  0  0  0  0  0  0  0  0  0
   34.8236   27.4528   49.9569 H   0  0  0  0  0  0  0  0  0  0  0  0
   38.3268   33.9645   50.2359 H   0  0  0  0  0  0  0  0  0  0  0  0
   39.8215   33.9260   48.2310 H   0  0  0  0  0  0  0  0  0  0  0  0
   39.4491   32.1445   46.4687 H   0  0  0  0  0  0  0  0  0  0  0  0
   33.0340   29.4504   45.9340 H   0  0  0  0  0  0  0  0  0  0  0  0
   30.5121   26.6871   49.0463 H   0  0  0  0  0  0  0  0  0  0  0  0
  1  2  1  0
  3  2  2  0
  4  3  1  0
  5  4  1  0
  5  1  2  0
  6 11  2  0
  7  6  1  0
  8  9  1  0
  8  7  2  0
  9 10  2  0
 10  1  1  0
 10 11  1  0
 12  4  1  0
 12 16  1  0
 13 12  2  0
 14 13  1  0
 14 15  1  0
 15 16  2  0
  2 17  1  0
  3 18  1  0
  6 19  1  0
  7 20  1  0
  8 21  1  0
 13 22  1  0
 15 23  1  0
M  ISO  7  17  14  18  14  19  14  20  14  21  14  22  14  23  14
M  END
>  <minimizedAffinity>  (1) 
-4.81994772

>  <minimizedRMSD>  (1) 
0.775343239

$$$$
