
     RDKit          3D

 38 41  0  0  0  0  0  0  0  0999 V2000
   36.8270   29.0310   49.7540 C   0  0  0  0  0  0  0  0  0  0  0  0
   37.6550   29.7850   48.8940 C   0  0  0  0  0  0  0  0  0  0  0  0
   37.0530   30.8810   48.1930 C   0  0  0  0  0  0  0  0  0  0  0  0
   35.7080   31.0970   48.4270 N   0  0  0  0  0  0  0  0  0  0  0  0
   34.9700   30.3570   49.2490 C   0  0  0  0  0  0  0  0  0  0  0  0
   35.5080   29.3330   49.9110 N   0  0  0  0  0  0  0  0  0  0  0  0
   37.7920   31.6930   47.3120 N   0  0  0  0  0  0  0  0  0  0  0  0
   38.6980   32.7050   47.8840 C   0  0  0  0  0  0  0  0  0  0  0  0
   39.7680   33.0550   46.9160 C   0  0  0  0  0  0  0  0  0  0  0  0
   39.2330   33.3270   45.5810 N   0  0  0  0  0  0  0  0  0  0  0  0
   38.3720   32.3410   45.0310 C   0  0  0  0  0  0  0  0  0  0  0  0
   37.6060   31.4740   45.9300 C   0  0  0  0  0  0  0  0  0  0  0  0
   36.8140   30.5660   45.2450 N   0  0  0  0  0  0  0  0  0  0  0  0
   35.5240   30.3120   45.4900 C   0  0  0  0  0  0  0  0  0  0  0  0
   34.9930   29.3650   44.6460 C   0  0  0  0  0  0  0  0  0  0  0  0
   36.0190   29.0050   43.8210 N   0  0  0  0  0  0  0  0  0  0  0  0
   37.0970   29.7560   44.2200 C   0  0  0  0  0  0  0  0  0  0  0  0
   38.4040   29.6450   43.5600 C   0  0  0  0  0  0  0  0  0  0  0  0
   38.8660   28.3830   43.1990 C   0  0  0  0  0  0  0  0  0  0  0  0
   40.0870   28.1440   42.5670 C   0  0  0  0  0  0  0  0  0  0  0  0
   40.8590   29.2580   42.2990 C   0  0  0  0  0  0  0  0  0  0  0  0
   40.3950   30.5060   42.6590 C   0  0  0  0  0  0  0  0  0  0  0  0
   39.2090   30.6820   43.2670 N   0  0  0  0  0  0  0  0  0  0  0  0
   37.2556   28.1829   50.3082 H   0  0  0  0  0  0  0  0  0  0  0  0
   38.7200   29.5410   48.7669 H   0  0  0  0  0  0  0  0  0  0  0  0
   33.9040   30.5925   49.3841 H   0  0  0  0  0  0  0  0  0  0  0  0
   38.1216   33.6094   48.1284 H   0  0  0  0  0  0  0  0  0  0  0  0
   39.1622   32.2928   48.7921 H   0  0  0  0  0  0  0  0  0  0  0  0
   40.2941   33.9511   47.2770 H   0  0  0  0  0  0  0  0  0  0  0  0
   40.4509   32.1960   46.8395 H   0  0  0  0  0  0  0  0  0  0  0  0
   39.4687   34.1883   45.0676 H   0  0  0  0  0  0  0  0  0  0  0  0
   38.2809   32.2291   43.9405 H   0  0  0  0  0  0  0  0  0  0  0  0
   34.9476   30.8090   46.2842 H   0  0  0  0  0  0  0  0  0  0  0  0
   33.9625   28.9802   44.6376 H   0  0  0  0  0  0  0  0  0  0  0  0
   38.2269   27.5171   43.4267 H   0  0  0  0  0  0  0  0  0  0  0  0
   40.4153   27.1291   42.2982 H   0  0  0  0  0  0  0  0  0  0  0  0
   41.8349   29.1506   41.8030 H   0  0  0  0  0  0  0  0  0  0  0  0
   41.0164   31.3871   42.4412 H   0  0  0  0  0  0  0  0  0  0  0  0
  1  6  2  0
  2  1  1  0
  3  4  1  0
  3  2  2  0
  4  5  2  0
  5  6  1  0
  7  8  1  0
  7  3  1  0
  9  8  1  0
 10  9  1  0
 11 10  1  0
 11 12  2  0
 12  7  1  0
 13 14  1  0
 13 12  1  0
 15 14  2  0
 16 17  2  0
 16 15  1  0
 17 13  1  0
 18 17  1  0
 19 18  2  0
 20 19  1  0
 21 20  2  0
 21 22  1  0
 22 23  2  0
 23 18  1  0
  1 24  1  0
  2 25  1  0
  5 26  1  0
  8 27  1  0
  8 28  1  0
  9 29  1  0
  9 30  1  0
 10 31  1  0
 11 32  1  0
 14 33  1  0
 15 34  1  0
 19 35  1  0
 20 36  1  0
 21 37  1  0
 22 38  1  0
M  ISO  8  24  14  25  14  26  14  27  13  28  13  29  13  30  13  32  13
M  ISO  6  33  14  34  14  35  14  36  14  37  14  38  14
M  END
>  <minimizedAffinity>  (1) 
-5.29473162

>  <minimizedRMSD>  (1) 
3.17825222

$$$$
