
     RDKit          3D

 36 39  0  0  0  0  0  0  0  0999 V2000
   36.8030   28.9960   49.9750 C   0  0  0  0  0  0  0  0  0  0  0  0
   37.6100   29.7330   49.0820 C   0  0  0  0  0  0  0  0  0  0  0  0
   37.0060   30.8490   48.4100 C   0  0  0  0  0  0  0  0  0  0  0  0
   35.6790   31.0980   48.7030 N   0  0  0  0  0  0  0  0  0  0  0  0
   34.9650   30.3670   49.5560 C   0  0  0  0  0  0  0  0  0  0  0  0
   35.5140   29.3220   50.1930 N   0  0  0  0  0  0  0  0  0  0  0  0
   37.7280   31.6470   47.4980 N   0  0  0  0  0  0  0  0  0  0  0  0
   38.6810   32.6350   48.0370 C   0  0  0  0  0  0  0  0  0  0  0  0
   39.7210   32.9590   47.0310 C   0  0  0  0  0  0  0  0  0  0  0  0
   39.1360   33.2500   45.7180 N   0  0  0  0  0  0  0  0  0  0  0  0
   38.2290   32.2880   45.2010 C   0  0  0  0  0  0  0  0  0  0  0  0
   37.4810   31.4360   46.1310 C   0  0  0  0  0  0  0  0  0  0  0  0
   36.6400   30.5510   45.4760 N   0  0  0  0  0  0  0  0  0  0  0  0
   35.3810   30.2610   45.8410 C   0  0  0  0  0  0  0  0  0  0  0  0
   34.7810   29.3470   44.9970 C   0  0  0  0  0  0  0  0  0  0  0  0
   35.7240   29.0550   44.0550 N   0  0  0  0  0  0  0  0  0  0  0  0
   36.8220   29.8040   44.3870 C   0  0  0  0  0  0  0  0  0  0  0  0
   38.0260   29.7560   43.6110 N   0  0  0  0  0  0  0  0  0  0  0  0
   38.9350   28.7870   43.6270 N   0  0  0  0  0  0  0  0  0  0  0  0
   39.9340   29.0540   42.7870 C   0  0  0  0  0  0  0  0  0  0  0  0
   39.6640   30.2810   42.1770 C   0  0  0  0  0  0  0  0  0  0  0  0
   38.4520   30.6820   42.7300 C   0  0  0  0  0  0  0  0  0  0  0  0
   37.2365   28.1353   50.5054 H   0  0  0  0  0  0  0  0  0  0  0  0
   38.6619   29.4627   48.9074 H   0  0  0  0  0  0  0  0  0  0  0  0
   33.9113   30.6231   49.7409 H   0  0  0  0  0  0  0  0  0  0  0  0
   38.1375   33.5534   48.3039 H   0  0  0  0  0  0  0  0  0  0  0  0
   39.1682   32.2093   48.9266 H   0  0  0  0  0  0  0  0  0  0  0  0
   40.2850   33.8394   47.3727 H   0  0  0  0  0  0  0  0  0  0  0  0
   40.3796   32.0843   46.9259 H   0  0  0  0  0  0  0  0  0  0  0  0
   39.3709   34.1076   45.1981 H   0  0  0  0  0  0  0  0  0  0  0  0
   38.0889   32.1829   44.1150 H   0  0  0  0  0  0  0  0  0  0  0  0
   34.8821   30.7028   46.7161 H   0  0  0  0  0  0  0  0  0  0  0  0
   33.7611   28.9413   45.0689 H   0  0  0  0  0  0  0  0  0  0  0  0
   40.8149   28.4206   42.6060 H   0  0  0  0  0  0  0  0  0  0  0  0
   40.2720   30.8105   41.4287 H   0  0  0  0  0  0  0  0  0  0  0  0
   37.9218   31.6141   42.4850 H   0  0  0  0  0  0  0  0  0  0  0  0
  1  6  2  0
  2  1  1  0
  3  4  1  0
  3  2  2  0
  4  5  2  0
  5  6  1  0
  7  8  1  0
  7  3  1  0
  9  8  1  0
 10  9  1  0
 11 10  1  0
 11 12  2  0
 12  7  1  0
 13 14  1  0
 13 12  1  0
 15 14  2  0
 16 17  2  0
 16 15  1  0
 17 13  1  0
 18 19  1  0
 18 17  1  0
 20 19  2  0
 21 22  2  0
 21 20  1  0
 22 18  1  0
  1 23  1  0
  2 24  1  0
  5 25  1  0
  8 26  1  0
  8 27  1  0
  9 28  1  0
  9 29  1  0
 10 30  1  0
 11 31  1  0
 14 32  1  0
 15 33  1  0
 20 34  1  0
 21 35  1  0
 22 36  1  0
M  ISO  8  23  14  24  14  25  14  26  13  27  13  28  13  29  13  31  13
M  ISO  5  32  14  33  14  34  14  35  14  36  14
M  END
>  <minimizedAffinity>  (1) 
-5.28802443

>  <minimizedRMSD>  (1) 
3.13366818

$$$$
