
     RDKit          3D

 45 48  0  0  0  0  0  0  0  0999 V2000
   36.6810   28.9720   49.9310 C   0  0  0  0  0  0  0  0  0  0  0  0
   37.5190   29.7190   49.0760 C   0  0  0  0  0  0  0  0  0  0  0  0
   36.9360   30.8340   48.3830 C   0  0  0  0  0  0  0  0  0  0  0  0
   35.5880   31.0780   48.6200 N   0  0  0  0  0  0  0  0  0  0  0  0
   34.8500   30.3290   49.4440 C   0  0  0  0  0  0  0  0  0  0  0  0
   35.3800   29.2870   50.0970 N   0  0  0  0  0  0  0  0  0  0  0  0
   37.6810   31.6430   47.5090 N   0  0  0  0  0  0  0  0  0  0  0  0
   38.6030   32.6400   48.0940 C   0  0  0  0  0  0  0  0  0  0  0  0
   39.6750   32.9910   47.1390 C   0  0  0  0  0  0  0  0  0  0  0  0
   39.1570   33.2690   45.7970 N   0  0  0  0  0  0  0  0  0  0  0  0
   38.2730   32.3010   45.2420 C   0  0  0  0  0  0  0  0  0  0  0  0
   37.4970   31.4450   46.1310 C   0  0  0  0  0  0  0  0  0  0  0  0
   36.6900   30.5610   45.4450 N   0  0  0  0  0  0  0  0  0  0  0  0
   35.4750   30.1440   45.8250 C   0  0  0  0  0  0  0  0  0  0  0  0
   34.9000   29.2620   44.9300 C   0  0  0  0  0  0  0  0  0  0  0  0
   35.8140   29.1190   43.9220 N   0  0  0  0  0  0  0  0  0  0  0  0
   36.8670   29.9150   44.2760 C   0  0  0  0  0  0  0  0  0  0  0  0
   38.1010   30.0390   43.4200 C   0  0  0  0  0  0  0  0  0  0  0  0
   37.7310   30.0200   41.9620 C   0  0  0  0  0  0  0  0  0  0  0  0
   38.2500   28.8470   41.1940 C   0  0  0  0  0  0  0  0  0  0  0  0
   38.1440   27.5820   41.9920 C   0  0  0  0  0  0  0  0  0  0  0  0
   38.9230   27.6490   43.2680 C   0  0  0  0  0  0  0  0  0  0  0  0
   39.1260   29.0290   43.8120 C   0  0  0  0  0  0  0  0  0  0  0  0
   37.0988   28.1122   50.4752 H   0  0  0  0  0  0  0  0  0  0  0  0
   38.5793   29.4572   48.9451 H   0  0  0  0  0  0  0  0  0  0  0  0
   33.7872   30.5728   49.5888 H   0  0  0  0  0  0  0  0  0  0  0  0
   38.0368   33.5478   48.3495 H   0  0  0  0  0  0  0  0  0  0  0  0
   39.0626   32.2076   48.9950 H   0  0  0  0  0  0  0  0  0  0  0  0
   40.1984   33.8853   47.5081 H   0  0  0  0  0  0  0  0  0  0  0  0
   40.3543   32.1290   47.0649 H   0  0  0  0  0  0  0  0  0  0  0  0
   39.4191   34.1213   45.2814 H   0  0  0  0  0  0  0  0  0  0  0  0
   38.1762   32.1997   44.1510 H   0  0  0  0  0  0  0  0  0  0  0  0
   34.9852   30.4703   46.7543 H   0  0  0  0  0  0  0  0  0  0  0  0
   33.9158   28.7775   45.0109 H   0  0  0  0  0  0  0  0  0  0  0  0
   38.5781   31.0146   43.5948 H   0  0  0  0  0  0  0  0  0  0  0  0
   36.6335   30.0176   41.8884 H   0  0  0  0  0  0  0  0  0  0  0  0
   38.1966   30.9107   41.5149 H   0  0  0  0  0  0  0  0  0  0  0  0
   37.6647   28.7371   40.2691 H   0  0  0  0  0  0  0  0  0  0  0  0
   39.3111   29.0246   40.9649 H   0  0  0  0  0  0  0  0  0  0  0  0
   37.0856   27.4030   42.2326 H   0  0  0  0  0  0  0  0  0  0  0  0
   38.5615   26.7651   41.3851 H   0  0  0  0  0  0  0  0  0  0  0  0
   38.3880   27.0583   44.0262 H   0  0  0  0  0  0  0  0  0  0  0  0
   39.9251   27.2580   43.0380 H   0  0  0  0  0  0  0  0  0  0  0  0
   40.1050   29.3888   43.4626 H   0  0  0  0  0  0  0  0  0  0  0  0
   39.0482   28.9334   44.9051 H   0  0  0  0  0  0  0  0  0  0  0  0
  1  6  2  0
  2  1  1  0
  3  4  1  0
  3  2  2  0
  4  5  2  0
  5  6  1  0
  7  8  1  0
  7  3  1  0
  9  8  1  0
 10  9  1  0
 11 10  1  0
 11 12  2  0
 12  7  1  0
 13 14  1  0
 13 12  1  0
 15 14  2  0
 16 17  2  0
 16 15  1  0
 17 13  1  0
 18 23  1  0
 18 17  1  0
 19 18  1  0
 20 19  1  0
 20 21  1  0
 21 22  1  0
 22 23  1  0
  1 24  1  0
  2 25  1  0
  5 26  1  0
  8 27  1  0
  8 28  1  0
  9 29  1  0
  9 30  1  0
 10 31  1  0
 11 32  1  0
 14 33  1  0
 15 34  1  0
 18 35  1  0
 19 36  1  0
 19 37  1  0
 20 38  1  0
 20 39  1  0
 21 40  1  0
 21 41  1  0
 22 42  1  0
 22 43  1  0
 23 44  1  0
 23 45  1  0
M  ISO  8  24  14  25  14  26  14  27  13  28  13  29  13  30  13  32  13
M  ISO  8  33  14  34  14  35  13  36  13  37  13  38  13  39  13  40  13
M  ISO  5  41  13  42  13  43  13  44  13  45  13
M  END
>  <minimizedAffinity>  (1) 
-5.27088118

>  <minimizedRMSD>  (1) 
3.5994873

$$$$
