
     RDKit          3D

 36 39  0  0  0  0  0  0  0  0999 V2000
   36.8050   28.9920   49.9780 C   0  0  0  0  0  0  0  0  0  0  0  0
   37.6050   29.7280   49.0800 C   0  0  0  0  0  0  0  0  0  0  0  0
   37.0070   30.8370   48.4120 C   0  0  0  0  0  0  0  0  0  0  0  0
   35.6730   31.1010   48.7070 N   0  0  0  0  0  0  0  0  0  0  0  0
   34.9670   30.3650   49.5690 C   0  0  0  0  0  0  0  0  0  0  0  0
   35.5110   29.3260   50.2010 N   0  0  0  0  0  0  0  0  0  0  0  0
   37.7220   31.6340   47.4960 N   0  0  0  0  0  0  0  0  0  0  0  0
   38.6820   32.6240   48.0330 C   0  0  0  0  0  0  0  0  0  0  0  0
   39.7090   32.9580   47.0180 C   0  0  0  0  0  0  0  0  0  0  0  0
   39.1290   33.2410   45.7160 N   0  0  0  0  0  0  0  0  0  0  0  0
   38.2150   32.2820   45.1980 C   0  0  0  0  0  0  0  0  0  0  0  0
   37.4680   31.4300   46.1300 C   0  0  0  0  0  0  0  0  0  0  0  0
   36.6210   30.5500   45.4780 N   0  0  0  0  0  0  0  0  0  0  0  0
   35.3580   30.2720   45.8530 C   0  0  0  0  0  0  0  0  0  0  0  0
   34.7570   29.3610   45.0060 C   0  0  0  0  0  0  0  0  0  0  0  0
   35.6970   29.0570   44.0580 N   0  0  0  0  0  0  0  0  0  0  0  0
   36.7950   29.8020   44.3930 C   0  0  0  0  0  0  0  0  0  0  0  0
   38.0190   29.7390   43.5940 C   0  0  0  0  0  0  0  0  0  0  0  0
   38.4190   30.2490   42.3780 C   0  0  0  0  0  0  0  0  0  0  0  0
   39.7110   29.8570   42.1220 C   0  0  0  0  0  0  0  0  0  0  0  0
   40.0980   29.1080   43.1800 N   0  0  0  0  0  0  0  0  0  0  0  0
   39.0970   29.0370   44.0510 N   0  0  0  0  0  0  0  0  0  0  0  0
   37.2394   28.1310   50.5071 H   0  0  0  0  0  0  0  0  0  0  0  0
   38.6556   29.4558   48.9006 H   0  0  0  0  0  0  0  0  0  0  0  0
   33.9148   30.6218   49.7612 H   0  0  0  0  0  0  0  0  0  0  0  0
   38.1393   33.5389   48.3129 H   0  0  0  0  0  0  0  0  0  0  0  0
   39.1806   32.1931   48.9137 H   0  0  0  0  0  0  0  0  0  0  0  0
   40.2657   33.8441   47.3570 H   0  0  0  0  0  0  0  0  0  0  0  0
   40.3692   32.0849   46.9087 H   0  0  0  0  0  0  0  0  0  0  0  0
   39.3684   34.0955   45.1930 H   0  0  0  0  0  0  0  0  0  0  0  0
   38.0701   32.1805   44.1123 H   0  0  0  0  0  0  0  0  0  0  0  0
   34.8638   30.7171   46.7291 H   0  0  0  0  0  0  0  0  0  0  0  0
   33.7344   28.9622   45.0783 H   0  0  0  0  0  0  0  0  0  0  0  0
   37.8006   30.8726   41.7156 H   0  0  0  0  0  0  0  0  0  0  0  0
   40.3111   30.1032   41.2336 H   0  0  0  0  0  0  0  0  0  0  0  0
   41.0206   28.6640   43.2924 H   0  0  0  0  0  0  0  0  0  0  0  0
  1  6  2  0
  2  1  1  0
  3  4  1  0
  3  2  2  0
  4  5  2  0
  5  6  1  0
  7  8  1  0
  7  3  1  0
  9  8  1  0
 10  9  1  0
 11 10  1  0
 11 12  2  0
 12  7  1  0
 13 14  1  0
 13 12  1  0
 15 14  2  0
 16 17  2  0
 16 15  1  0
 17 13  1  0
 18 22  2  0
 18 17  1  0
 19 18  1  0
 20 19  2  0
 20 21  1  0
 21 22  1  0
  1 23  1  0
  2 24  1  0
  5 25  1  0
  8 26  1  0
  8 27  1  0
  9 28  1  0
  9 29  1  0
 10 30  1  0
 11 31  1  0
 14 32  1  0
 15 33  1  0
 19 34  1  0
 20 35  1  0
 21 36  1  0
M  ISO  8  23  14  24  14  25  14  26  13  27  13  28  13  29  13  31  13
M  ISO  5  32  14  33  14  34  14  35  14  36   9
M  END
>  <minimizedAffinity>  (1) 
-5.18787813

>  <minimizedRMSD>  (1) 
3.11981511

$$$$
