
     RDKit          3D

 34 37  0  0  0  0  0  0  0  0999 V2000
   34.9460   27.9290   49.3480 C   0  0  0  0  0  0  0  0  0  0  0  0
   35.9890   28.8800   49.2860 C   0  0  0  0  0  0  0  0  0  0  0  0
   35.6870   30.1600   48.7450 C   0  0  0  0  0  0  0  0  0  0  0  0
   34.3790   30.3600   48.3220 N   0  0  0  0  0  0  0  0  0  0  0  0
   33.4330   29.4280   48.4040 C   0  0  0  0  0  0  0  0  0  0  0  0
   33.6970   28.2240   48.9070 N   0  0  0  0  0  0  0  0  0  0  0  0
   36.6540   31.1820   48.6360 N   0  0  0  0  0  0  0  0  0  0  0  0
   37.0270   31.9200   49.8560 C   0  0  0  0  0  0  0  0  0  0  0  0
   38.3720   32.5260   49.6950 C   0  0  0  0  0  0  0  0  0  0  0  0
   38.5350   33.2220   48.4330 N   0  0  0  0  0  0  0  0  0  0  0  0
   38.1780   32.4980   47.2720 C   0  0  0  0  0  0  0  0  0  0  0  0
   37.1900   31.4200   47.3540 C   0  0  0  0  0  0  0  0  0  0  0  0
   36.9540   30.8140   46.1310 N   0  0  0  0  0  0  0  0  0  0  0  0
   35.8260   30.1950   45.7790 C   0  0  0  0  0  0  0  0  0  0  0  0
   35.8640   29.6890   44.5070 C   0  0  0  0  0  0  0  0  0  0  0  0
   37.1100   30.0170   44.0260 N   0  0  0  0  0  0  0  0  0  0  0  0
   37.7270   30.6960   45.0470 C   0  0  0  0  0  0  0  0  0  0  0  0
   39.0980   31.2260   44.9330 C   0  0  0  0  0  0  0  0  0  0  0  0
   39.5910   32.2680   44.2510 N   0  0  0  0  0  0  0  0  0  0  0  0
   40.8750   32.3510   44.4550 O   0  0  0  0  0  0  0  0  0  0  0  0
   41.2390   31.3820   45.2610 C   0  0  0  0  0  0  0  0  0  0  0  0
   40.1400   30.6710   45.5680 N   0  0  0  0  0  0  0  0  0  0  0  0
   35.1503   26.9304   49.7616 H   0  0  0  0  0  0  0  0  0  0  0  0
   37.0006   28.6384   49.6442 H   0  0  0  0  0  0  0  0  0  0  0  0
   32.4166   29.6559   48.0506 H   0  0  0  0  0  0  0  0  0  0  0  0
   36.2895   32.7151   50.0399 H   0  0  0  0  0  0  0  0  0  0  0  0
   37.0460   31.2227   50.7066 H   0  0  0  0  0  0  0  0  0  0  0  0
   38.5333   33.2429   50.5136 H   0  0  0  0  0  0  0  0  0  0  0  0
   39.1055   31.7065   49.7148 H   0  0  0  0  0  0  0  0  0  0  0  0
   38.8902   34.1876   48.3852 H   0  0  0  0  0  0  0  0  0  0  0  0
   38.6429   32.7448   46.3061 H   0  0  0  0  0  0  0  0  0  0  0  0
   34.9540   30.1006   46.4429 H   0  0  0  0  0  0  0  0  0  0  0  0
   35.0689   29.1386   43.9827 H   0  0  0  0  0  0  0  0  0  0  0  0
   42.2599   31.1864   45.6209 H   0  0  0  0  0  0  0  0  0  0  0  0
  2  1  2  0
  3  2  1  0
  4  5  1  0
  4  3  2  0
  5  6  2  0
  6  1  1  0
  7  3  1  0
  7  8  1  0
  9  8  1  0
 10  9  1  0
 11 12  2  0
 11 10  1  0
 12  7  1  0
 13 12  1  0
 14 13  1  0
 15 14  2  0
 16 15  1  0
 16 17  2  0
 17 13  1  0
 18 17  1  0
 18 22  1  0
 19 20  1  0
 19 18  2  0
 20 21  1  0
 21 22  2  0
  1 23  1  0
  2 24  1  0
  5 25  1  0
  8 26  1  0
  8 27  1  0
  9 28  1  0
  9 29  1  0
 10 30  1  0
 11 31  1  0
 14 32  1  0
 15 33  1  0
 21 34  1  0
M  ISO  8  23  14  24  14  25  14  26  13  27  13  28  13  29  13  31  13
M  ISO  3  32  14  33  14  34  14
M  END
>  <minimizedAffinity>  (1) 
-5.16687202

>  <minimizedRMSD>  (1) 
2.4762218

$$$$
