
     RDKit          3D

 36 39  0  0  0  0  0  0  0  0999 V2000
   36.9270   28.9620   50.4810 C   0  0  0  0  0  0  0  0  0  0  0  0
   37.7910   30.0040   50.1060 C   0  0  0  0  0  0  0  0  0  0  0  0
   37.2440   31.1330   49.4190 C   0  0  0  0  0  0  0  0  0  0  0  0
   35.8780   31.0970   49.1780 N   0  0  0  0  0  0  0  0  0  0  0  0
   35.0990   30.0850   49.5540 C   0  0  0  0  0  0  0  0  0  0  0  0
   35.5970   29.0280   50.1950 N   0  0  0  0  0  0  0  0  0  0  0  0
   38.0390   32.2190   49.0080 N   0  0  0  0  0  0  0  0  0  0  0  0
   38.4680   33.1880   50.0290 C   0  0  0  0  0  0  0  0  0  0  0  0
   39.6740   33.9270   49.5730 C   0  0  0  0  0  0  0  0  0  0  0  0
   39.5730   34.3920   48.1910 N   0  0  0  0  0  0  0  0  0  0  0  0
   39.1700   33.4380   47.2220 C   0  0  0  0  0  0  0  0  0  0  0  0
   38.3630   32.2920   47.6400 C   0  0  0  0  0  0  0  0  0  0  0  0
   38.0530   31.4550   46.5810 N   0  0  0  0  0  0  0  0  0  0  0  0
   36.8190   31.0420   46.2410 C   0  0  0  0  0  0  0  0  0  0  0  0
   36.8150   30.2180   45.1330 C   0  0  0  0  0  0  0  0  0  0  0  0
   38.1360   30.1120   44.7600 N   0  0  0  0  0  0  0  0  0  0  0  0
   38.8320   30.8720   45.6600 C   0  0  0  0  0  0  0  0  0  0  0  0
   40.3280   31.0350   45.6190 C   0  0  0  0  0  0  0  0  0  0  0  0
   41.0100   30.9020   44.3080 C   0  0  0  0  0  0  0  0  0  0  0  0
   40.9330   32.2150   44.9800 C   0  0  0  0  0  0  0  0  0  0  0  0
   37.3280   28.0850   51.0103 H   0  0  0  0  0  0  0  0  0  0  0  0
   38.8655   29.9529   50.3358 H   0  0  0  0  0  0  0  0  0  0  0  0
   34.0225   30.1220   49.3311 H   0  0  0  0  0  0  0  0  0  0  0  0
   37.6533   33.9038   50.2133 H   0  0  0  0  0  0  0  0  0  0  0  0
   38.7128   32.6447   50.9536 H   0  0  0  0  0  0  0  0  0  0  0  0
   39.8175   34.8001   50.2265 H   0  0  0  0  0  0  0  0  0  0  0  0
   40.5240   33.2306   49.6235 H   0  0  0  0  0  0  0  0  0  0  0  0
   39.7845   35.3665   47.9330 H   0  0  0  0  0  0  0  0  0  0  0  0
   39.4610   33.5586   46.1681 H   0  0  0  0  0  0  0  0  0  0  0  0
   35.9091   31.3302   46.7878 H   0  0  0  0  0  0  0  0  0  0  0  0
   35.9445   29.7479   44.6522 H   0  0  0  0  0  0  0  0  0  0  0  0
   40.4227   30.5706   46.6117 H   0  0  0  0  0  0  0  0  0  0  0  0
   40.4221   30.7136   43.3976 H   0  0  0  0  0  0  0  0  0  0  0  0
   41.8223   30.2752   43.9113 H   0  0  0  0  0  0  0  0  0  0  0  0
   41.8401   32.6664   45.4082 H   0  0  0  0  0  0  0  0  0  0  0  0
   40.5699   33.2129   44.6929 H   0  0  0  0  0  0  0  0  0  0  0  0
  2  1  2  0
  3  2  1  0
  4  3  2  0
  4  5  1  0
  5  6  2  0
  6  1  1  0
  7  3  1  0
  7  8  1  0
  9  8  1  0
 10  9  1  0
 11 12  2  0
 11 10  1  0
 12  7  1  0
 13 12  1  0
 14 13  1  0
 15 14  2  0
 16 15  1  0
 16 17  2  0
 17 13  1  0
 18 17  1  0
 19 20  1  0
 19 18  1  0
 20 18  1  0
  1 21  1  0
  2 22  1  0
  5 23  1  0
  8 24  1  0
  8 25  1  0
  9 26  1  0
  9 27  1  0
 10 28  1  0
 11 29  1  0
 14 30  1  0
 15 31  1  0
 18 32  1  0
 19 33  1  0
 19 34  1  0
 20 35  1  0
 20 36  1  0
M  ISO  8  21  14  22  14  23  14  24  13  25  13  26  13  27  13  29  13
M  ISO  7  30  14  31  14  32  13  33  13  34  13  35  13  36  13
M  END
>  <minimizedAffinity>  (1) 
-5.02626657

>  <minimizedRMSD>  (1) 
1.06767988

$$$$
