
     RDKit          3D

 31 33  0  0  0  0  0  0  0  0999 V2000
   37.0640   29.0610   49.9920 C   0  0  0  0  0  0  0  0  0  0  0  0
   37.9320   30.1330   49.7330 C   0  0  0  0  0  0  0  0  0  0  0  0
   37.4520   31.2120   48.9140 C   0  0  0  0  0  0  0  0  0  0  0  0
   36.1510   31.1040   48.4380 N   0  0  0  0  0  0  0  0  0  0  0  0
   35.3710   30.0590   48.7180 C   0  0  0  0  0  0  0  0  0  0  0  0
   35.8000   29.0490   49.4770 N   0  0  0  0  0  0  0  0  0  0  0  0
   38.2630   32.3290   48.6050 N   0  0  0  0  0  0  0  0  0  0  0  0
   38.4610   33.3470   49.6570 C   0  0  0  0  0  0  0  0  0  0  0  0
   39.6850   34.1310   49.3880 C   0  0  0  0  0  0  0  0  0  0  0  0
   39.8100   34.5460   47.9940 N   0  0  0  0  0  0  0  0  0  0  0  0
   39.6270   33.5450   47.0020 C   0  0  0  0  0  0  0  0  0  0  0  0
   38.8160   32.3770   47.3160 C   0  0  0  0  0  0  0  0  0  0  0  0
   38.7310   31.4990   46.2560 N   0  0  0  0  0  0  0  0  0  0  0  0
   37.6300   30.8640   45.8280 C   0  0  0  0  0  0  0  0  0  0  0  0
   37.8530   30.0520   44.7390 C   0  0  0  0  0  0  0  0  0  0  0  0
   39.1800   30.1820   44.4610 N   0  0  0  0  0  0  0  0  0  0  0  0
   39.6660   31.0580   45.3970 C   0  0  0  0  0  0  0  0  0  0  0  0
   41.0870   31.4540   45.4210 C   0  0  0  0  0  0  0  0  0  0  0  0
   41.9760   30.7620   45.9810 O   0  0  0  0  0  0  0  0  0  0  0  0
   37.4057   28.2222   50.6162 H   0  0  0  0  0  0  0  0  0  0  0  0
   38.9516   30.1470   50.1455 H   0  0  0  0  0  0  0  0  0  0  0  0
   34.3487   30.0291   48.3131 H   0  0  0  0  0  0  0  0  0  0  0  0
   37.5936   34.0232   49.6755 H   0  0  0  0  0  0  0  0  0  0  0  0
   38.5657   32.8420   50.6286 H   0  0  0  0  0  0  0  0  0  0  0  0
   39.6691   35.0311   50.0202 H   0  0  0  0  0  0  0  0  0  0  0  0
   40.5439   33.4817   49.6130 H   0  0  0  0  0  0  0  0  0  0  0  0
   40.0216   35.5216   47.7405 H   0  0  0  0  0  0  0  0  0  0  0  0
   40.0916   33.6510   46.0106 H   0  0  0  0  0  0  0  0  0  0  0  0
   36.6440   30.9807   46.3014 H   0  0  0  0  0  0  0  0  0  0  0  0
   37.1170   29.4311   44.2072 H   0  0  0  0  0  0  0  0  0  0  0  0
   41.3813   32.3928   44.9291 H   0  0  0  0  0  0  0  0  0  0  0  0
  2  1  2  0
  3  2  1  0
  4  5  1  0
  4  3  2  0
  5  6  2  0
  6  1  1  0
  7  3  1  0
  7  8  1  0
  9  8  1  0
 10  9  1  0
 11 12  2  0
 11 10  1  0
 12  7  1  0
 13 12  1  0
 14 13  1  0
 15 14  2  0
 16 15  1  0
 16 17  2  0
 17 18  1  0
 17 13  1  0
 18 19  2  0
  1 20  1  0
  2 21  1  0
  5 22  1  0
  8 23  1  0
  8 24  1  0
  9 25  1  0
  9 26  1  0
 10 27  1  0
 11 28  1  0
 14 29  1  0
 15 30  1  0
 18 31  1  0
M  ISO  8  20  14  21  14  22  14  23  13  24  13  25  13  26  13  28  13
M  ISO  3  29  14  30  14  31   6
M  END
>  <minimizedAffinity>  (1) 
-5.01538134

>  <minimizedRMSD>  (1) 
0.661313415

$$$$
