
     RDKit          3D

 36 39  0  0  0  0  0  0  0  0999 V2000
   36.5960   28.8980   49.9840 C   0  0  0  0  0  0  0  0  0  0  0  0
   37.3930   29.6220   49.0790 C   0  0  0  0  0  0  0  0  0  0  0  0
   36.8120   30.7350   48.4110 C   0  0  0  0  0  0  0  0  0  0  0  0
   35.4810   31.0200   48.7150 N   0  0  0  0  0  0  0  0  0  0  0  0
   34.7680   30.3000   49.5830 C   0  0  0  0  0  0  0  0  0  0  0  0
   35.3040   29.2500   50.2160 N   0  0  0  0  0  0  0  0  0  0  0  0
   37.5340   31.5170   47.4900 N   0  0  0  0  0  0  0  0  0  0  0  0
   38.5120   32.4950   48.0170 C   0  0  0  0  0  0  0  0  0  0  0  0
   39.5340   32.8160   47.0010 C   0  0  0  0  0  0  0  0  0  0  0  0
   38.9540   33.0880   45.6900 N   0  0  0  0  0  0  0  0  0  0  0  0
   38.0230   32.1400   45.1860 C   0  0  0  0  0  0  0  0  0  0  0  0
   37.2720   31.3110   46.1260 C   0  0  0  0  0  0  0  0  0  0  0  0
   36.4090   30.4480   45.4910 N   0  0  0  0  0  0  0  0  0  0  0  0
   35.1340   30.2320   45.8150 C   0  0  0  0  0  0  0  0  0  0  0  0
   34.5010   29.3180   44.9960 C   0  0  0  0  0  0  0  0  0  0  0  0
   35.4500   28.9360   44.0940 N   0  0  0  0  0  0  0  0  0  0  0  0
   36.5660   29.6380   44.4350 C   0  0  0  0  0  0  0  0  0  0  0  0
   37.8260   29.5060   43.7020 C   0  0  0  0  0  0  0  0  0  0  0  0
   39.1140   29.0640   43.7630 C   0  0  0  0  0  0  0  0  0  0  0  0
   39.9390   29.2000   42.7010 C   0  0  0  0  0  0  0  0  0  0  0  0
   39.4040   29.8450   41.4670 C   0  0  0  0  0  0  0  0  0  0  0  0
   37.6540   30.2030   42.0210 S   0  0  0  0  0  0  0  0  0  0  0  0
   37.0250   28.0337   50.5121 H   0  0  0  0  0  0  0  0  0  0  0  0
   38.4384   29.3348   48.8928 H   0  0  0  0  0  0  0  0  0  0  0  0
   33.7214   30.5743   49.7817 H   0  0  0  0  0  0  0  0  0  0  0  0
   37.9830   33.4170   48.2998 H   0  0  0  0  0  0  0  0  0  0  0  0
   39.0121   32.0557   48.8927 H   0  0  0  0  0  0  0  0  0  0  0  0
   40.0921   33.7047   47.3309 H   0  0  0  0  0  0  0  0  0  0  0  0
   40.1910   31.9396   46.9000 H   0  0  0  0  0  0  0  0  0  0  0  0
   39.2081   33.9298   45.1536 H   0  0  0  0  0  0  0  0  0  0  0  0
   37.8697   32.0317   44.1021 H   0  0  0  0  0  0  0  0  0  0  0  0
   34.6333   30.7346   46.6557 H   0  0  0  0  0  0  0  0  0  0  0  0
   33.4583   28.9731   45.0577 H   0  0  0  0  0  0  0  0  0  0  0  0
   39.4853   28.5924   44.6848 H   0  0  0  0  0  0  0  0  0  0  0  0
   40.9788   28.8440   42.7456 H   0  0  0  0  0  0  0  0  0  0  0  0
   39.8977   30.0512   40.5059 H   0  0  0  0  0  0  0  0  0  0  0  0
  1  6  2  0
  2  1  1  0
  3  4  1  0
  3  2  2  0
  4  5  2  0
  5  6  1  0
  7  8  1  0
  7  3  1  0
  9  8  1  0
 10  9  1  0
 11 10  1  0
 11 12  2  0
 12  7  1  0
 13 14  1  0
 13 12  1  0
 15 14  2  0
 16 17  2  0
 16 15  1  0
 17 13  1  0
 18 19  2  0
 18 17  1  0
 20 19  1  0
 21 22  1  0
 21 20  2  0
 22 18  1  0
  1 23  1  0
  2 24  1  0
  5 25  1  0
  8 26  1  0
  8 27  1  0
  9 28  1  0
  9 29  1  0
 10 30  1  0
 11 31  1  0
 14 32  1  0
 15 33  1  0
 19 34  1  0
 20 35  1  0
 21 36  1  0
M  ISO  8  23  14  24  14  25  14  26  13  27  13  28  13  29  13  31  13
M  ISO  5  32  14  33  14  34  14  35  14  36  14
M  END
>  <minimizedAffinity>  (1) 
-4.96206284

>  <minimizedRMSD>  (1) 
3.48566556

$$$$
