
     RDKit          3D

 29 30  0  0  0  0  0  0  0  0999 V2000
   36.0210   30.1020   48.6890 C   0  0  0  0  0  0  0  0  0  0  0  0
   35.9100   29.2660   49.8030 C   0  0  0  0  0  0  0  0  0  0  0  0
   34.8910   28.3550   49.5780 C   0  0  0  0  0  0  0  0  0  0  0  0
   34.4140   28.6470   48.3610 N   0  0  0  0  0  0  0  0  0  0  0  0
   35.0610   29.6620   47.8300 N   0  0  0  0  0  0  0  0  0  0  0  0
   38.0330   33.1140   49.4220 C   0  0  0  0  0  0  0  0  0  0  0  0
   38.9770   33.0530   48.3810 C   0  0  0  0  0  0  0  0  0  0  0  0
   38.8890   31.9930   47.4770 C   0  0  0  0  0  0  0  0  0  0  0  0
   37.8950   31.0730   47.6460 N   0  0  0  0  0  0  0  0  0  0  0  0
   37.0160   31.1620   48.6460 C   0  0  0  0  0  0  0  0  0  0  0  0
   37.0750   32.1740   49.5360 N   0  0  0  0  0  0  0  0  0  0  0  0
   33.3330   27.9150   47.7610 C   0  0  0  0  0  0  0  0  0  0  0  0
   33.7970   26.5040   47.4960 C   0  0  0  0  0  0  0  0  0  0  0  0
   32.8650   28.5630   46.4700 C   0  0  0  0  0  0  0  0  0  0  0  0
   32.1360   27.8080   48.6730 C   0  0  0  0  0  0  0  0  0  0  0  0
   36.5300   29.3220   50.7099 H   0  0  0  0  0  0  0  0  0  0  0  0
   34.5464   27.5599   50.2556 H   0  0  0  0  0  0  0  0  0  0  0  0
   38.0775   33.9374   50.1501 H   0  0  0  0  0  0  0  0  0  0  0  0
   39.7613   33.8179   48.2822 H   0  0  0  0  0  0  0  0  0  0  0  0
   39.6048   31.9012   46.6469 H   0  0  0  0  0  0  0  0  0  0  0  0
   33.9667   25.9881   48.4526 H   0  0  0  0  0  0  0  0  0  0  0  0
   33.0281   25.9670   46.9211 H   0  0  0  0  0  0  0  0  0  0  0  0
   34.7345   26.5282   46.9211 H   0  0  0  0  0  0  0  0  0  0  0  0
   32.2357   29.4343   46.7042 H   0  0  0  0  0  0  0  0  0  0  0  0
   33.7382   28.8879   45.8853 H   0  0  0  0  0  0  0  0  0  0  0  0
   32.2820   27.8362   45.8853 H   0  0  0  0  0  0  0  0  0  0  0  0
   32.4695   27.8378   49.7208 H   0  0  0  0  0  0  0  0  0  0  0  0
   31.4529   28.6487   48.4816 H   0  0  0  0  0  0  0  0  0  0  0  0
   31.6128   26.8595   48.4816 H   0  0  0  0  0  0  0  0  0  0  0  0
  1  2  1  0
  3  2  2  0
  4  3  1  0
  5  4  1  0
  5  1  2  0
  6 11  2  0
  7  6  1  0
  8  9  1  0
  8  7  2  0
  9 10  2  0
 10  1  1  0
 10 11  1  0
 12  4  1  0
 12 15  1  0
 13 12  1  0
 14 12  1  0
  2 16  1  0
  3 17  1  0
  6 18  1  0
  7 19  1  0
  8 20  1  0
 13 21  1  0
 13 22  1  0
 13 23  1  0
 14 24  1  0
 14 25  1  0
 14 26  1  0
 15 27  1  0
 15 28  1  0
 15 29  1  0
M  ISO  8  16  14  17  14  18  14  19  14  20  14  21   8  22   8  23   8
M  ISO  6  24   8  25   8  26   8  27   8  28   8  29   8
M  END
>  <minimizedAffinity>  (1) 
-4.7941432

>  <minimizedRMSD>  (1) 
1.02142596

$$$$
