
     RDKit          3D

 42 45  0  0  0  0  0  0  0  0999 V2000
   36.8440   28.9780   49.6770 C   0  0  0  0  0  0  0  0  0  0  0  0
   37.5760   29.6980   48.7150 C   0  0  0  0  0  0  0  0  0  0  0  0
   36.9580   30.8580   48.1320 C   0  0  0  0  0  0  0  0  0  0  0  0
   35.6870   31.1620   48.5750 N   0  0  0  0  0  0  0  0  0  0  0  0
   35.0370   30.4400   49.4940 C   0  0  0  0  0  0  0  0  0  0  0  0
   35.6050   29.3560   50.0440 N   0  0  0  0  0  0  0  0  0  0  0  0
   37.6130   31.6420   47.1610 N   0  0  0  0  0  0  0  0  0  0  0  0
   38.6660   32.5750   47.6080 C   0  0  0  0  0  0  0  0  0  0  0  0
   39.5990   32.8700   46.4870 C   0  0  0  0  0  0  0  0  0  0  0  0
   38.8910   33.2020   45.2500 N   0  0  0  0  0  0  0  0  0  0  0  0
   37.8840   32.2990   44.8280 C   0  0  0  0  0  0  0  0  0  0  0  0
   37.2030   31.4710   45.8230 C   0  0  0  0  0  0  0  0  0  0  0  0
   36.2480   30.6420   45.2570 N   0  0  0  0  0  0  0  0  0  0  0  0
   34.9320   30.6640   45.5350 C   0  0  0  0  0  0  0  0  0  0  0  0
   34.2180   29.7280   44.8130 C   0  0  0  0  0  0  0  0  0  0  0  0
   35.1460   29.0870   44.0400 N   0  0  0  0  0  0  0  0  0  0  0  0
   36.3450   29.6710   44.3430 C   0  0  0  0  0  0  0  0  0  0  0  0
   37.5680   29.2560   43.7190 N   0  0  0  0  0  0  0  0  0  0  0  0
   37.8500   27.9440   43.4760 C   0  0  0  0  0  0  0  0  0  0  0  0
   39.0440   27.6000   42.8730 C   0  0  0  0  0  0  0  0  0  0  0  0
   39.3880   26.1790   42.5910 C   0  0  0  0  0  0  0  0  0  0  0  0
   39.9810   28.5410   42.4990 C   0  0  0  0  0  0  0  0  0  0  0  0
   41.0800   28.2610   41.9450 O   0  0  0  0  0  0  0  0  0  0  0  0
   39.6490   29.8390   42.7650 N   0  0  0  0  0  0  0  0  0  0  0  0
   38.4810   30.1760   43.3550 C   0  0  0  0  0  0  0  0  0  0  0  0
   38.3130   31.4110   43.5360 O   0  0  0  0  0  0  0  0  0  0  0  0
   37.2938   28.0869   50.1393 H   0  0  0  0  0  0  0  0  0  0  0  0
   38.5877   29.3838   48.4187 H   0  0  0  0  0  0  0  0  0  0  0  0
   34.0243   30.7385   49.8028 H   0  0  0  0  0  0  0  0  0  0  0  0
   38.2009   33.5114   47.9500 H   0  0  0  0  0  0  0  0  0  0  0  0
   39.2292   32.1132   48.4324 H   0  0  0  0  0  0  0  0  0  0  0  0
   40.2349   33.7216   46.7704 H   0  0  0  0  0  0  0  0  0  0  0  0
   40.1984   31.9667   46.3005 H   0  0  0  0  0  0  0  0  0  0  0  0
   39.1141   34.0515   44.7119 H   0  0  0  0  0  0  0  0  0  0  0  0
   37.6173   32.2215   43.7636 H   0  0  0  0  0  0  0  0  0  0  0  0
   34.4739   31.3534   46.2595 H   0  0  0  0  0  0  0  0  0  0  0  0
   33.1351   29.5387   44.8515 H   0  0  0  0  0  0  0  0  0  0  0  0
   37.1293   27.1627   43.7592 H   0  0  0  0  0  0  0  0  0  0  0  0
   39.5189   25.6382   43.5399 H   0  0  0  0  0  0  0  0  0  0  0  0
   38.5767   25.7132   42.0124 H   0  0  0  0  0  0  0  0  0  0  0  0
   40.3225   26.1358   42.0124 H   0  0  0  0  0  0  0  0  0  0  0  0
   40.3106   30.5853   42.5074 H   0  0  0  0  0  0  0  0  0  0  0  0
  1  6  2  0
  2  1  1  0
  3  4  1  0
  3  2  2  0
  4  5  2  0
  5  6  1  0
  7  8  1  0
  7  3  1  0
  9  8  1  0
 10  9  1  0
 11 10  1  0
 11 12  2  0
 12  7  1  0
 13 14  1  0
 13 12  1  0
 15 14  2  0
 16 17  2  0
 16 15  1  0
 17 13  1  0
 18 17  1  0
 19 18  1  0
 20 19  2  0
 21 20  1  0
 22 24  1  0
 22 20  1  0
 23 22  2  0
 24 25  1  0
 25 26  2  0
 25 18  1  0
  1 27  1  0
  2 28  1  0
  5 29  1  0
  8 30  1  0
  8 31  1  0
  9 32  1  0
  9 33  1  0
 10 34  1  0
 11 35  1  0
 14 36  1  0
 15 37  1  0
 19 38  1  0
 21 39  1  0
 21 40  1  0
 21 41  1  0
 24 42  1  0
M  ISO  8  27  14  28  14  29  14  30  13  31  13  32  13  33  13  35  13
M  ISO  7  36  14  37  14  38  14  39   8  40   8  41   8  42   9
M  END
>  <minimizedAffinity>  (1) 
-4.76694536

>  <minimizedRMSD>  (1) 
3.9556396

$$$$
