
     RDKit          3D

 30 32  0  0  0  0  0  0  0  0999 V2000
   37.0630   29.0770   49.9980 C   0  0  0  0  0  0  0  0  0  0  0  0
   37.9420   30.1500   49.7410 C   0  0  0  0  0  0  0  0  0  0  0  0
   37.4710   31.2110   48.9050 C   0  0  0  0  0  0  0  0  0  0  0  0
   36.1740   31.0950   48.4100 N   0  0  0  0  0  0  0  0  0  0  0  0
   35.3850   30.0560   48.6860 C   0  0  0  0  0  0  0  0  0  0  0  0
   35.8050   29.0560   49.4630 N   0  0  0  0  0  0  0  0  0  0  0  0
   38.2750   32.3230   48.5920 N   0  0  0  0  0  0  0  0  0  0  0  0
   38.4580   33.3670   49.6210 C   0  0  0  0  0  0  0  0  0  0  0  0
   39.6900   34.1440   49.3670 C   0  0  0  0  0  0  0  0  0  0  0  0
   39.8320   34.5490   47.9700 N   0  0  0  0  0  0  0  0  0  0  0  0
   39.6630   33.5350   46.9980 C   0  0  0  0  0  0  0  0  0  0  0  0
   38.8490   32.3610   47.3100 C   0  0  0  0  0  0  0  0  0  0  0  0
   38.7870   31.4660   46.2540 N   0  0  0  0  0  0  0  0  0  0  0  0
   37.6990   31.1550   45.5520 C   0  0  0  0  0  0  0  0  0  0  0  0
   37.9310   30.2410   44.5560 C   0  0  0  0  0  0  0  0  0  0  0  0
   39.2560   29.9570   44.6370 N   0  0  0  0  0  0  0  0  0  0  0  0
   39.7440   30.7170   45.6770 C   0  0  0  0  0  0  0  0  0  0  0  0
   41.0920   30.6980   46.0740 O   0  0  0  0  0  0  0  0  0  0  0  0
   37.3943   28.2457   50.6377 H   0  0  0  0  0  0  0  0  0  0  0  0
   38.9552   30.1702   50.1689 H   0  0  0  0  0  0  0  0  0  0  0  0
   34.3692   30.0228   48.2653 H   0  0  0  0  0  0  0  0  0  0  0  0
   37.5930   34.0464   49.6033 H   0  0  0  0  0  0  0  0  0  0  0  0
   38.5436   32.8817   50.6045 H   0  0  0  0  0  0  0  0  0  0  0  0
   39.6698   35.0478   49.9936 H   0  0  0  0  0  0  0  0  0  0  0  0
   40.5442   33.4949   49.6098 H   0  0  0  0  0  0  0  0  0  0  0  0
   40.0441   35.5220   47.7068 H   0  0  0  0  0  0  0  0  0  0  0  0
   40.1417   33.6293   46.0121 H   0  0  0  0  0  0  0  0  0  0  0  0
   36.7085   31.5897   45.7519 H   0  0  0  0  0  0  0  0  0  0  0  0
   37.2008   29.8273   43.8449 H   0  0  0  0  0  0  0  0  0  0  0  0
   41.3938   31.2633   46.8286 H   0  0  0  0  0  0  0  0  0  0  0  0
  2  1  2  0
  3  2  1  0
  4  5  1  0
  4  3  2  0
  5  6  2  0
  6  1  1  0
  7  3  1  0
  7  8  1  0
  9  8  1  0
 10  9  1  0
 11 12  2  0
 11 10  1  0
 12  7  1  0
 13 12  1  0
 14 13  1  0
 15 16  1  0
 15 14  2  0
 16 17  2  0
 17 18  1  0
 17 13  1  0
  1 19  1  0
  2 20  1  0
  5 21  1  0
  8 22  1  0
  8 23  1  0
  9 24  1  0
  9 25  1  0
 10 26  1  0
 11 27  1  0
 14 28  1  0
 15 29  1  0
 18 30  1  0
M  ISO  8  19  14  20  14  21  14  22  13  23  13  24  13  25  13  27  13
M  ISO  3  28  14  29  14  30   3
M  END
>  <minimizedAffinity>  (1) 
-5.95027971

>  <minimizedRMSD>  (1) 
0.211788416

$$$$
