
     RDKit          3D

 22 23  0  0  0  0  0  0  0  0999 V2000
   36.1460   29.9290   50.3390 C   0  0  0  0  0  0  0  0  0  0  0  0
   36.3800   30.4410   49.0410 C   0  0  0  0  0  0  0  0  0  0  0  0
   35.5130   30.0510   48.0030 C   0  0  0  0  0  0  0  0  0  0  0  0
   34.4920   29.1910   48.3310 N   0  0  0  0  0  0  0  0  0  0  0  0
   34.3040   28.7260   49.5790 C   0  0  0  0  0  0  0  0  0  0  0  0
   35.1290   29.0950   50.5760 N   0  0  0  0  0  0  0  0  0  0  0  0
   37.4410   31.3270   48.7270 N   0  0  0  0  0  0  0  0  0  0  0  0
   38.3760   31.9730   49.6550 C   0  0  0  0  0  0  0  0  0  0  0  0
   38.6980   33.2280   48.8410 C   0  0  0  0  0  0  0  0  0  0  0  0
   39.0540   32.5320   47.5230 C   0  0  0  0  0  0  0  0  0  0  0  0
   37.7590   31.7350   47.3550 C   0  0  0  0  0  0  0  0  0  0  0  0
   36.8108   30.2216   51.1651 H   0  0  0  0  0  0  0  0  0  0  0  0
   35.6466   30.4182   46.9747 H   0  0  0  0  0  0  0  0  0  0  0  0
   33.4700   28.0393   49.7861 H   0  0  0  0  0  0  0  0  0  0  0  0
   37.9000   32.2165   50.6163 H   0  0  0  0  0  0  0  0  0  0  0  0
   39.2447   31.3654   49.9486 H   0  0  0  0  0  0  0  0  0  0  0  0
   37.8291   33.8950   48.7400 H   0  0  0  0  0  0  0  0  0  0  0  0
   39.4652   33.8954   49.2605 H   0  0  0  0  0  0  0  0  0  0  0  0
   39.2138   33.2472   46.7027 H   0  0  0  0  0  0  0  0  0  0  0  0
   39.9868   31.9490   47.5185 H   0  0  0  0  0  0  0  0  0  0  0  0
   36.9601   32.3633   46.9344 H   0  0  0  0  0  0  0  0  0  0  0  0
   37.8599   30.8858   46.6631 H   0  0  0  0  0  0  0  0  0  0  0  0
  1  6  2  0
  2  1  1  0
  3  4  1  0
  3  2  2  0
  4  5  2  0
  5  6  1  0
  7  2  1  0
  7  8  1  0
  9  8  1  0
 10  9  1  0
 11 10  1  0
 11  7  1  0
  1 12  1  0
  3 13  1  0
  5 14  1  0
  8 15  1  0
  8 16  1  0
  9 17  1  0
  9 18  1  0
 10 19  1  0
 10 20  1  0
 11 21  1  0
 11 22  1  0
M  ISO  8  12  14  13  14  14  14  15  13  16  13  17  13  18  13  19  13
M  ISO  3  20  13  21  13  22  13
M  END
>  <minimizedAffinity>  (1) 
-3.99227262

>  <minimizedRMSD>  (1) 
2.55187273

$$$$
