
     RDKit          3D

 35 38  0  0  1  0  0  0  0  0999 V2000
   37.3020   31.2770   48.9400 N   0  0  0  0  0  0  0  0  0  0  0  0
   38.2240   31.5620   50.0540 C   0  0  0  0  0  0  0  0  0  0  0  0
   38.5780   32.9980   49.7270 C   0  0  0  0  0  0  0  0  0  0  0  0
   38.8830   32.8520   48.2480 C   0  0  0  0  0  0  0  0  0  0  0  0
   37.6030   32.1600   47.8220 C   0  0  1  0  0  0  0  0  0  0  0  0
   36.4190   28.9950   49.4250 C   0  0  0  0  0  0  0  0  0  0  0  0
   36.2820   30.3060   48.9250 C   0  0  0  0  0  0  0  0  0  0  0  0
   35.0410   30.6880   48.3540 C   0  0  0  0  0  0  0  0  0  0  0  0
   34.0390   29.7600   48.3190 N   0  0  0  0  0  0  0  0  0  0  0  0
   34.2200   28.5090   48.8140 C   0  0  0  0  0  0  0  0  0  0  0  0
   35.3850   28.1390   49.3540 N   0  0  0  0  0  0  0  0  0  0  0  0
   37.7950   31.4330   46.5780 N   0  0  0  0  0  0  0  0  0  0  0  0
   36.8080   30.7280   45.9650 C   0  0  0  0  0  0  0  0  0  0  0  0
   37.2900   30.1730   44.8400 N   0  0  0  0  0  0  0  0  0  0  0  0
   38.5680   30.4910   44.6940 C   0  0  0  0  0  0  0  0  0  0  0  0
   39.5070   30.1890   43.7390 C   0  0  0  0  0  0  0  0  0  0  0  0
   40.7590   30.7030   43.9160 N   0  0  0  0  0  0  0  0  0  0  0  0
   41.0210   31.4650   44.9900 C   0  0  0  0  0  0  0  0  0  0  0  0
   40.1160   31.7710   45.9350 N   0  0  0  0  0  0  0  0  0  0  0  0
   38.8690   31.2720   45.7790 C   0  0  0  0  0  0  0  0  0  0  0  0
   39.1770   29.3750   42.6190 N   0  0  0  0  0  0  0  0  0  0  0  0
   37.7260   31.4747   51.0309 H   0  0  0  0  0  0  0  0  0  0  0  0
   39.0806   30.8771   50.1388 H   0  0  0  0  0  0  0  0  0  0  0  0
   37.7334   33.6796   49.9062 H   0  0  0  0  0  0  0  0  0  0  0  0
   39.3898   33.4287   50.3315 H   0  0  0  0  0  0  0  0  0  0  0  0
   39.0121   33.8260   47.7533 H   0  0  0  0  0  0  0  0  0  0  0  0
   39.8161   32.3238   48.0025 H   0  0  0  0  0  0  0  0  0  0  0  0
   36.7777   32.8572   47.6151 H   0  0  0  0  0  0  0  0  0  0  0  0
   37.3708   28.6730   49.8726 H   0  0  0  0  0  0  0  0  0  0  0  0
   34.8900   31.7006   47.9516 H   0  0  0  0  0  0  0  0  0  0  0  0
   33.3920   27.7862   48.7698 H   0  0  0  0  0  0  0  0  0  0  0  0
   35.7760   30.6274   46.3322 H   0  0  0  0  0  0  0  0  0  0  0  0
   42.0399   31.8636   45.1034 H   0  0  0  0  0  0  0  0  0  0  0  0
   38.2220   29.0032   42.5161 H   0  0  0  0  0  0  0  0  0  0  0  0
   39.8932   29.1577   41.9114 H   0  0  0  0  0  0  0  0  0  0  0  0
  1  2  1  0
  3  2  1  0
  4  3  1  0
  5  4  1  0
  5  1  1  0
  7  1  1  0
  7  6  2  0
  8  7  1  0
  9  8  2  0
  9 10  1  0
 10 11  2  0
 11  6  1  0
 12  5  1  0
 13 12  1  0
 14 13  2  0
 15 14  1  0
 15 20  2  0
 16 17  2  0
 16 15  1  0
 17 18  1  0
 18 19  2  0
 20 19  1  0
 20 12  1  0
 21 16  1  0
  2 22  1  0
  2 23  1  0
  3 24  1  0
  3 25  1  0
  4 26  1  0
  4 27  1  0
  5 28  1  6
  6 29  1  0
  8 30  1  0
 10 31  1  0
 13 32  1  0
 18 33  1  0
 21 34  1  0
 21 35  1  0
M  ISO  8  22  13  23  13  24  13  25  13  26  13  27  13  28  13  29  14
M  ISO  4  30  14  31  14  32  14  33  14
M  END
>  <minimizedAffinity>  (1) 
-5.34386921

>  <minimizedRMSD>  (1) 
1.17673993

$$$$
