
     RDKit          3D

 36 39  0  0  1  0  0  0  0  0999 V2000
   37.4400   31.3630   49.1890 N   0  0  0  0  0  0  0  0  0  0  0  0
   38.6220   31.5300   50.0440 C   0  0  0  0  0  0  0  0  0  0  0  0
   38.9270   33.0030   49.7800 C   0  0  0  0  0  0  0  0  0  0  0  0
   38.8720   32.9920   48.2730 C   0  0  0  0  0  0  0  0  0  0  0  0
   37.5360   32.2980   48.0630 C   0  0  1  0  0  0  0  0  0  0  0  0
   37.5630   31.4670   46.8270 C   0  0  0  0  0  0  0  0  0  0  0  0
   36.6130   30.6740   46.2150 C   0  0  0  0  0  0  0  0  0  0  0  0
   37.1890   30.1510   45.1130 N   0  0  0  0  0  0  0  0  0  0  0  0
   38.4690   30.5880   45.0090 C   0  0  0  0  0  0  0  0  0  0  0  0
   39.3890   30.2870   44.0330 C   0  0  0  0  0  0  0  0  0  0  0  0
   40.6540   30.8520   44.1260 C   0  0  0  0  0  0  0  0  0  0  0  0
   40.9530   31.6920   45.1840 C   0  0  0  0  0  0  0  0  0  0  0  0
   39.9910   31.9710   46.1530 C   0  0  0  0  0  0  0  0  0  0  0  0
   38.7320   31.4180   46.0740 C   0  0  0  0  0  0  0  0  0  0  0  0
   36.4800   29.0750   49.3960 C   0  0  0  0  0  0  0  0  0  0  0  0
   36.3600   30.4730   49.3620 C   0  0  0  0  0  0  0  0  0  0  0  0
   35.0730   31.0260   49.5120 C   0  0  0  0  0  0  0  0  0  0  0  0
   34.0230   30.1640   49.6810 N   0  0  0  0  0  0  0  0  0  0  0  0
   34.1810   28.8340   49.7080 C   0  0  0  0  0  0  0  0  0  0  0  0
   35.4140   28.2900   49.5640 N   0  0  0  0  0  0  0  0  0  0  0  0
   38.3906   31.3435   51.1031 H   0  0  0  0  0  0  0  0  0  0  0  0
   39.4506   30.8380   49.8331 H   0  0  0  0  0  0  0  0  0  0  0  0
   38.1647   33.6660   50.2152 H   0  0  0  0  0  0  0  0  0  0  0  0
   39.8659   33.3759   50.2153 H   0  0  0  0  0  0  0  0  0  0  0  0
   38.8730   34.0103   47.8570 H   0  0  0  0  0  0  0  0  0  0  0  0
   39.7284   32.5071   47.7815 H   0  0  0  0  0  0  0  0  0  0  0  0
   36.7156   33.0269   47.9879 H   0  0  0  0  0  0  0  0  0  0  0  0
   35.5829   30.5015   46.5601 H   0  0  0  0  0  0  0  0  0  0  0  0
   36.7257   29.5143   44.4490 H   0  0  0  0  0  0  0  0  0  0  0  0
   39.1300   29.6164   43.2004 H   0  0  0  0  0  0  0  0  0  0  0  0
   41.4147   30.6328   43.3623 H   0  0  0  0  0  0  0  0  0  0  0  0
   41.9541   32.1414   45.2606 H   0  0  0  0  0  0  0  0  0  0  0  0
   40.2398   32.6401   46.9899 H   0  0  0  0  0  0  0  0  0  0  0  0
   37.4735   28.6169   49.2818 H   0  0  0  0  0  0  0  0  0  0  0  0
   34.9169   32.1147   49.4939 H   0  0  0  0  0  0  0  0  0  0  0  0
   33.3068   28.1810   49.8476 H   0  0  0  0  0  0  0  0  0  0  0  0
  1 16  1  0
  1  2  1  0
  3  2  1  0
  4  3  1  0
  5  4  1  0
  5  1  1  0
  6  5  1  0
  7  6  2  0
  8  7  1  0
  9  8  1  0
  9 14  2  0
 10 11  2  0
 10  9  1  0
 11 12  1  0
 12 13  2  0
 14 13  1  0
 14  6  1  0
 15 20  2  0
 16 15  1  0
 16 17  2  0
 17 18  1  0
 18 19  2  0
 20 19  1  0
  2 21  1  0
  2 22  1  0
  3 23  1  0
  3 24  1  0
  4 25  1  0
  4 26  1  0
  5 27  1  6
  7 28  1  0
  8 29  1  0
 10 30  1  0
 11 31  1  0
 12 32  1  0
 13 33  1  0
 15 34  1  0
 17 35  1  0
 19 36  1  0
M  ISO  8  21  13  22  13  23  13  24  13  25  13  26  13  27  13  28  14
M  ISO  8  29   9  30  14  31  14  32  14  33  14  34  14  35  14  36  14
M  END
>  <minimizedAffinity>  (1) 
-5.29407787

>  <minimizedRMSD>  (1) 
1.36069918

$$$$
