
     RDKit          3D

 31 33  0  0  1  0  0  0  0  0999 V2000
   37.5200   31.3960   48.6390 N   0  0  0  0  0  0  0  0  0  0  0  0
   38.3820   31.6740   49.8070 C   0  0  0  0  0  0  0  0  0  0  0  0
   38.7500   33.1050   49.5350 C   0  0  0  0  0  0  0  0  0  0  0  0
   39.0800   33.0380   48.0680 C   0  0  0  0  0  0  0  0  0  0  0  0
   37.8590   32.3070   47.5620 C   0  0  1  0  0  0  0  0  0  0  0  0
   36.4510   29.2860   49.4280 C   0  0  0  0  0  0  0  0  0  0  0  0
   36.5280   30.4020   48.5750 C   0  0  0  0  0  0  0  0  0  0  0  0
   35.5450   30.5430   47.5700 C   0  0  0  0  0  0  0  0  0  0  0  0
   34.5690   29.5890   47.4760 N   0  0  0  0  0  0  0  0  0  0  0  0
   34.5380   28.5300   48.3230 C   0  0  0  0  0  0  0  0  0  0  0  0
   35.4760   28.3860   49.2910 N   0  0  0  0  0  0  0  0  0  0  0  0
   38.2260   31.5970   46.3010 C   0  0  0  0  0  0  0  0  0  0  0  0
   39.0000   30.4550   46.0980 C   0  0  0  0  0  0  0  0  0  0  0  0
   39.1930   29.9920   44.8150 C   0  0  0  0  0  0  0  0  0  0  0  0
   38.6450   30.6250   43.7260 C   0  0  0  0  0  0  0  0  0  0  0  0
   37.8920   31.7470   43.9920 C   0  0  0  0  0  0  0  0  0  0  0  0
   37.6860   32.2210   45.2270 N   0  0  0  0  0  0  0  0  0  0  0  0
   37.8314   31.5683   50.7534 H   0  0  0  0  0  0  0  0  0  0  0  0
   39.2378   30.9922   49.9202 H   0  0  0  0  0  0  0  0  0  0  0  0
   37.9066   33.7838   49.7295 H   0  0  0  0  0  0  0  0  0  0  0  0
   39.5619   33.4942   50.1669 H   0  0  0  0  0  0  0  0  0  0  0  0
   39.1704   34.0399   47.6230 H   0  0  0  0  0  0  0  0  0  0  0  0
   40.0409   32.5589   47.8290 H   0  0  0  0  0  0  0  0  0  0  0  0
   37.0028   32.9534   47.3191 H   0  0  0  0  0  0  0  0  0  0  0  0
   37.2046   29.1538   50.2183 H   0  0  0  0  0  0  0  0  0  0  0  0
   35.5640   31.3993   46.8797 H   0  0  0  0  0  0  0  0  0  0  0  0
   33.7413   27.7782   48.2231 H   0  0  0  0  0  0  0  0  0  0  0  0
   39.4513   29.9298   46.9527 H   0  0  0  0  0  0  0  0  0  0  0  0
   39.8030   29.0902   44.6582 H   0  0  0  0  0  0  0  0  0  0  0  0
   38.7987   30.2570   42.7008 H   0  0  0  0  0  0  0  0  0  0  0  0
   37.4361   32.2816   43.1456 H   0  0  0  0  0  0  0  0  0  0  0  0
  1  2  1  0
  3  2  1  0
  4  3  1  0
  5  4  1  0
  5  1  1  0
  7  1  1  0
  7  6  2  0
  8  7  1  0
  9  8  2  0
  9 10  1  0
 10 11  2  0
 11  6  1  0
 12  5  1  0
 13 12  2  0
 14 13  1  0
 15 16  1  0
 15 14  2  0
 16 17  2  0
 17 12  1  0
  2 18  1  0
  2 19  1  0
  3 20  1  0
  3 21  1  0
  4 22  1  0
  4 23  1  0
  5 24  1  6
  6 25  1  0
  8 26  1  0
 10 27  1  0
 13 28  1  0
 14 29  1  0
 15 30  1  0
 16 31  1  0
M  ISO  8  18  13  19  13  20  13  21  13  22  13  23  13  24  13  25  14
M  ISO  6  26  14  27  14  28  14  29  14  30  14  31  14
M  END
>  <minimizedAffinity>  (1) 
-5.05197144

>  <minimizedRMSD>  (1) 
1.45120144

$$$$
