
     RDKit          3D

 29 31  0  0  1  0  0  0  0  0999 V2000
   37.1090   31.2800   48.6810 N   0  0  0  0  0  0  0  0  0  0  0  0
   37.5880   31.9170   49.8980 C   0  0  0  0  0  0  0  0  0  0  0  0
   38.0190   33.2640   49.2900 C   0  0  0  0  0  0  0  0  0  0  0  0
   38.8890   32.6950   48.1460 C   0  0  0  0  0  0  0  0  0  0  0  0
   37.8140   31.8250   47.5010 C   0  0  1  0  0  0  0  0  0  0  0  0
   36.0690   29.1270   49.3780 C   0  0  0  0  0  0  0  0  0  0  0  0
   36.1130   30.2710   48.5400 C   0  0  0  0  0  0  0  0  0  0  0  0
   35.1450   30.4130   47.5100 C   0  0  0  0  0  0  0  0  0  0  0  0
   34.2190   29.4180   47.3920 N   0  0  0  0  0  0  0  0  0  0  0  0
   34.2060   28.3460   48.2030 C   0  0  0  0  0  0  0  0  0  0  0  0
   35.1200   28.1970   49.1870 N   0  0  0  0  0  0  0  0  0  0  0  0
   38.4930   30.6570   46.8360 C   0  0  0  0  0  0  0  0  0  0  0  0
   38.2660   30.3880   45.3950 C   0  0  0  0  0  0  0  0  0  0  0  0
   39.5840   30.8940   45.8330 C   0  0  0  0  0  0  0  0  0  0  0  0
   36.7905   32.0354   50.6463 H   0  0  0  0  0  0  0  0  0  0  0  0
   38.3655   31.3700   50.4515 H   0  0  0  0  0  0  0  0  0  0  0  0
   37.1649   33.8481   48.9167 H   0  0  0  0  0  0  0  0  0  0  0  0
   38.5107   33.9734   49.9719 H   0  0  0  0  0  0  0  0  0  0  0  0
   39.2567   33.4795   47.4682 H   0  0  0  0  0  0  0  0  0  0  0  0
   39.8178   32.1862   48.4434 H   0  0  0  0  0  0  0  0  0  0  0  0
   37.1825   32.3593   46.7760 H   0  0  0  0  0  0  0  0  0  0  0  0
   36.8100   29.0025   50.1814 H   0  0  0  0  0  0  0  0  0  0  0  0
   35.1422   31.2845   46.8389 H   0  0  0  0  0  0  0  0  0  0  0  0
   33.4352   27.5739   48.0626 H   0  0  0  0  0  0  0  0  0  0  0  0
   38.3977   30.0743   47.7641 H   0  0  0  0  0  0  0  0  0  0  0  0
   37.5946   31.0389   44.8157 H   0  0  0  0  0  0  0  0  0  0  0  0
   37.9266   29.5165   44.8159 H   0  0  0  0  0  0  0  0  0  0  0  0
   40.4632   30.2334   45.8092 H   0  0  0  0  0  0  0  0  0  0  0  0
   40.2204   31.7490   45.5609 H   0  0  0  0  0  0  0  0  0  0  0  0
  1  2  1  0
  3  2  1  0
  4  3  1  0
  5  4  1  0
  5  1  1  0
  7  1  1  0
  7  6  2  0
  8  7  1  0
  9  8  2  0
  9 10  1  0
 10 11  2  0
 11  6  1  0
 12  5  1  0
 13 14  1  0
 13 12  1  0
 14 12  1  0
  2 15  1  0
  2 16  1  0
  3 17  1  0
  3 18  1  0
  4 19  1  0
  4 20  1  0
  5 21  1  6
  6 22  1  0
  8 23  1  0
 10 24  1  0
 12 25  1  0
 13 26  1  0
 13 27  1  0
 14 28  1  0
 14 29  1  0
M  ISO  8  15  13  16  13  17  13  18  13  19  13  20  13  21  13  22  14
M  ISO  7  23  14  24  14  25  13  26  13  27  13  28  13  29  13
M  END
>  <minimizedAffinity>  (1) 
-4.66847134

>  <minimizedRMSD>  (1) 
0.947068453

$$$$
