
     RDKit          3D

 24 25  0  0  1  0  0  0  0  0999 V2000
   37.5570   31.3550   48.5970 N   0  0  0  0  0  0  0  0  0  0  0  0
   38.3510   32.0210   49.6210 C   0  0  0  0  0  0  0  0  0  0  0  0
   38.7280   33.2810   48.8730 C   0  0  0  0  0  0  0  0  0  0  0  0
   39.1740   32.6940   47.5610 C   0  0  0  0  0  0  0  0  0  0  0  0
   37.9680   31.8110   47.2660 C   0  0  1  0  0  0  0  0  0  0  0  0
   36.5860   29.3550   49.7280 C   0  0  0  0  0  0  0  0  0  0  0  0
   36.5260   30.4000   48.7900 C   0  0  0  0  0  0  0  0  0  0  0  0
   35.3700   30.4980   47.9970 C   0  0  0  0  0  0  0  0  0  0  0  0
   34.3810   29.5730   48.1900 N   0  0  0  0  0  0  0  0  0  0  0  0
   34.4800   28.5890   49.0980 C   0  0  0  0  0  0  0  0  0  0  0  0
   35.5790   28.4870   49.8590 N   0  0  0  0  0  0  0  0  0  0  0  0
   38.5230   30.6200   46.6160 N   0  0  0  0  0  0  0  0  0  0  0  0
   37.7574   32.2411   50.5206 H   0  0  0  0  0  0  0  0  0  0  0  0
   39.1994   31.4364   50.0063 H   0  0  0  0  0  0  0  0  0  0  0  0
   37.8656   33.9520   48.7461 H   0  0  0  0  0  0  0  0  0  0  0  0
   39.4801   33.9066   49.3760 H   0  0  0  0  0  0  0  0  0  0  0  0
   39.3161   33.4670   46.7914 H   0  0  0  0  0  0  0  0  0  0  0  0
   40.1436   32.1750   47.5827 H   0  0  0  0  0  0  0  0  0  0  0  0
   37.1744   32.2962   46.6788 H   0  0  0  0  0  0  0  0  0  0  0  0
   37.4768   29.2501   50.3647 H   0  0  0  0  0  0  0  0  0  0  0  0
   35.2638   31.2935   47.2448 H   0  0  0  0  0  0  0  0  0  0  0  0
   33.6593   27.8664   49.2176 H   0  0  0  0  0  0  0  0  0  0  0  0
   38.8349   29.9508   47.3342 H   0  0  0  0  0  0  0  0  0  0  0  0
   37.7998   30.1810   46.0286 H   0  0  0  0  0  0  0  0  0  0  0  0
  1  7  1  0
  1  2  1  0
  3  2  1  0
  4  3  1  0
  5  4  1  0
  5  1  1  0
  6 11  2  0
  7  6  1  0
  8  9  1  0
  8  7  2  0
  9 10  2  0
 10 11  1  0
 12  5  1  0
  2 13  1  0
  2 14  1  0
  3 15  1  0
  3 16  1  0
  4 17  1  0
  4 18  1  0
  5 19  1  6
  6 20  1  0
  8 21  1  0
 10 22  1  0
 12 23  1  0
 12 24  1  0
M  ISO  8  13  13  14  13  15  13  16  13  17  13  18  13  19  13  20  14
M  ISO  4  21  14  22  14  23   5  24   5
M  END
>  <minimizedAffinity>  (1) 
-4.20084381

>  <minimizedRMSD>  (1) 
0.512171865

$$$$
