
     RDKit          3D

 44 48  0  0  1  0  0  0  0  0999 V2000
   38.2710   31.6490   46.2920 C   0  0  0  0  0  0  0  0  0  0  0  0
   38.9680   30.4460   46.0860 C   0  0  0  0  0  0  0  0  0  0  0  0
   39.2340   30.0230   44.8130 C   0  0  0  0  0  0  0  0  0  0  0  0
   38.8320   30.7490   43.7900 N   0  0  0  0  0  0  0  0  0  0  0  0
   38.1610   31.9070   43.9420 C   0  0  0  0  0  0  0  0  0  0  0  0
   37.9030   32.3180   45.2050 N   0  0  0  0  0  0  0  0  0  0  0  0
   37.7440   32.6630   42.7910 N   0  0  0  0  0  0  0  0  0  0  0  0
   38.6560   33.0990   41.8770 C   0  0  0  0  0  0  0  0  0  0  0  0
   37.9830   33.7660   40.9290 N   0  0  0  0  0  0  0  0  0  0  0  0
   36.6710   33.7490   41.2430 C   0  0  0  0  0  0  0  0  0  0  0  0
   35.5160   34.2470   40.6760 C   0  0  0  0  0  0  0  0  0  0  0  0
   35.6590   34.8820   39.6040 O   0  0  0  0  0  0  0  0  0  0  0  0
   34.3030   34.0600   41.2500 N   0  0  0  0  0  0  0  0  0  0  0  0
   34.2040   33.3680   42.4060 C   0  0  0  0  0  0  0  0  0  0  0  0
   32.8710   33.2500   42.8920 N   0  0  0  0  0  0  0  0  0  0  0  0
   35.3180   32.8550   43.0060 N   0  0  0  0  0  0  0  0  0  0  0  0
   36.5270   33.0420   42.4360 C   0  0  0  0  0  0  0  0  0  0  0  0
   37.5400   31.3960   48.6060 N   0  0  0  0  0  0  0  0  0  0  0  0
   38.3940   31.6800   49.7560 C   0  0  0  0  0  0  0  0  0  0  0  0
   38.7180   33.1280   49.5270 C   0  0  0  0  0  0  0  0  0  0  0  0
   39.0710   33.0930   48.0530 C   0  0  0  0  0  0  0  0  0  0  0  0
   37.8890   32.3000   47.5430 C   0  0  1  0  0  0  0  0  0  0  0  0
   36.4350   29.2990   49.3770 C   0  0  0  0  0  0  0  0  0  0  0  0
   36.5420   30.4120   48.5290 C   0  0  0  0  0  0  0  0  0  0  0  0
   35.5720   30.5690   47.5040 C   0  0  0  0  0  0  0  0  0  0  0  0
   34.5840   29.6380   47.3920 N   0  0  0  0  0  0  0  0  0  0  0  0
   34.5220   28.5750   48.2390 C   0  0  0  0  0  0  0  0  0  0  0  0
   35.4440   28.4070   49.2280 N   0  0  0  0  0  0  0  0  0  0  0  0
   39.2988   29.8461   46.9467 H   0  0  0  0  0  0  0  0  0  0  0  0
   39.7799   29.0830   44.6445 H   0  0  0  0  0  0  0  0  0  0  0  0
   39.7430   32.9341   41.9110 H   0  0  0  0  0  0  0  0  0  0  0  0
   33.4574   34.4450   40.8055 H   0  0  0  0  0  0  0  0  0  0  0  0
   32.6853   32.7406   43.7677 H   0  0  0  0  0  0  0  0  0  0  0  0
   32.0923   33.6740   42.3679 H   0  0  0  0  0  0  0  0  0  0  0  0
   37.8561   31.5322   50.7040 H   0  0  0  0  0  0  0  0  0  0  0  0
   39.2756   31.0270   49.8363 H   0  0  0  0  0  0  0  0  0  0  0  0
   37.8508   33.7757   49.7232 H   0  0  0  0  0  0  0  0  0  0  0  0
   39.5040   33.5343   50.1806 H   0  0  0  0  0  0  0  0  0  0  0  0
   39.1108   34.1012   47.6148 H   0  0  0  0  0  0  0  0  0  0  0  0
   40.0594   32.6736   47.8140 H   0  0  0  0  0  0  0  0  0  0  0  0
   37.0045   32.9071   47.2998 H   0  0  0  0  0  0  0  0  0  0  0  0
   37.1760   29.1555   50.1772 H   0  0  0  0  0  0  0  0  0  0  0  0
   35.6175   31.4249   46.8145 H   0  0  0  0  0  0  0  0  0  0  0  0
   33.7133   27.8383   48.1233 H   0  0  0  0  0  0  0  0  0  0  0  0
  1 22  1  0
  2  1  2  0
  3  2  1  0
  4  5  1  0
  4  3  2  0
  5  6  2  0
  6  1  1  0
  7  5  1  0
  8  7  1  0
  9 10  1  0
  9  8  2  0
 10 17  2  0
 11 10  1  0
 11 13  1  0
 12 11  2  0
 13 14  1  0
 14 15  1  0
 14 16  2  0
 17  7  1  0
 17 16  1  0
 18 19  1  0
 20 19  1  0
 21 20  1  0
 22 21  1  0
 22 18  1  0
 24 18  1  0
 24 23  2  0
 25 24  1  0
 26 25  2  0
 26 27  1  0
 27 28  2  0
 28 23  1  0
  2 29  1  0
  3 30  1  0
  8 31  1  0
 13 32  1  0
 15 33  1  0
 15 34  1  0
 19 35  1  0
 19 36  1  0
 20 37  1  0
 20 38  1  0
 21 39  1  0
 21 40  1  0
 22 41  1  6
 23 42  1  0
 25 43  1  0
 27 44  1  0
M  ISO  8  29  14  30  14  31  14  32   9  35  13  36  13  37  13  38  13
M  ISO  6  39  13  40  13  41  13  42  14  43  14  44  14
M  END
>  <minimizedAffinity>  (1) 
-6.8124485

>  <minimizedRMSD>  (1) 
0.410184592

$$$$
