
     RDKit          3D

 43 46  0  0  1  0  0  0  0  0999 V2000
   37.5000   31.3060   48.7120 N   0  0  0  0  0  0  0  0  0  0  0  0
   38.3580   31.5360   49.8650 C   0  0  0  0  0  0  0  0  0  0  0  0
   38.7130   32.9890   49.6880 C   0  0  0  0  0  0  0  0  0  0  0  0
   39.0450   33.0040   48.2120 C   0  0  0  0  0  0  0  0  0  0  0  0
   37.8580   32.2410   47.6790 C   0  0  1  0  0  0  0  0  0  0  0  0
   38.2250   31.6410   46.4010 C   0  0  0  0  0  0  0  0  0  0  0  0
   39.0040   30.5010   46.1430 C   0  0  0  0  0  0  0  0  0  0  0  0
   39.2340   30.0960   44.8560 C   0  0  0  0  0  0  0  0  0  0  0  0
   38.7040   30.8010   43.8570 N   0  0  0  0  0  0  0  0  0  0  0  0
   37.9600   31.8890   44.0740 C   0  0  0  0  0  0  0  0  0  0  0  0
   37.7330   32.2910   45.3480 N   0  0  0  0  0  0  0  0  0  0  0  0
   37.4260   32.5910   42.9430 N   0  0  0  0  0  0  0  0  0  0  0  0
   36.1020   32.8270   42.8670 C   0  0  0  0  0  0  0  0  0  0  0  0
   35.6080   33.5130   41.7530 C   0  0  0  0  0  0  0  0  0  0  0  0
   34.1700   33.8340   41.5530 C   0  0  0  0  0  0  0  0  0  0  0  0
   36.5090   33.9150   40.7890 C   0  0  0  0  0  0  0  0  0  0  0  0
   36.1320   34.5370   39.7630 O   0  0  0  0  0  0  0  0  0  0  0  0
   37.8200   33.6440   40.9340 N   0  0  0  0  0  0  0  0  0  0  0  0
   38.3200   32.9760   42.0130 C   0  0  0  0  0  0  0  0  0  0  0  0
   39.5530   32.7520   42.0940 O   0  0  0  0  0  0  0  0  0  0  0  0
   36.3680   29.2060   49.4300 C   0  0  0  0  0  0  0  0  0  0  0  0
   36.4870   30.3360   48.5960 C   0  0  0  0  0  0  0  0  0  0  0  0
   35.5330   30.5130   47.5740 C   0  0  0  0  0  0  0  0  0  0  0  0
   34.5410   29.5910   47.4330 N   0  0  0  0  0  0  0  0  0  0  0  0
   34.4630   28.5190   48.2550 C   0  0  0  0  0  0  0  0  0  0  0  0
   35.3730   28.3250   49.2520 N   0  0  0  0  0  0  0  0  0  0  0  0
   37.8182   31.3660   50.8082 H   0  0  0  0  0  0  0  0  0  0  0  0
   39.2276   30.8645   49.9188 H   0  0  0  0  0  0  0  0  0  0  0  0
   37.8634   33.6476   49.9215 H   0  0  0  0  0  0  0  0  0  0  0  0
   39.5164   33.3518   50.3460 H   0  0  0  0  0  0  0  0  0  0  0  0
   39.0875   34.0278   47.8118 H   0  0  0  0  0  0  0  0  0  0  0  0
   40.0269   32.5830   47.9498 H   0  0  0  0  0  0  0  0  0  0  0  0
   36.9761   32.8613   47.4608 H   0  0  0  0  0  0  0  0  0  0  0  0
   39.4318   29.9303   46.9804 H   0  0  0  0  0  0  0  0  0  0  0  0
   39.8451   29.2049   44.6500 H   0  0  0  0  0  0  0  0  0  0  0  0
   35.4241   32.4875   43.6639 H   0  0  0  0  0  0  0  0  0  0  0  0
   33.6793   33.9435   42.5313 H   0  0  0  0  0  0  0  0  0  0  0  0
   34.0791   34.7745   40.9898 H   0  0  0  0  0  0  0  0  0  0  0  0
   33.6878   33.0214   40.9898 H   0  0  0  0  0  0  0  0  0  0  0  0
   38.4723   33.9540   40.1996 H   0  0  0  0  0  0  0  0  0  0  0  0
   37.0994   29.0451   50.2357 H   0  0  0  0  0  0  0  0  0  0  0  0
   35.5888   31.3816   46.9013 H   0  0  0  0  0  0  0  0  0  0  0  0
   33.6505   27.7905   48.1165 H   0  0  0  0  0  0  0  0  0  0  0  0
  1  2  1  0
  3  2  1  0
  4  3  1  0
  5  4  1  0
  5  1  1  0
  6  5  1  0
  7  6  2  0
  8  7  1  0
  9 10  1  0
  9  8  2  0
 10 11  2  0
 11  6  1  0
 12 10  1  0
 13 12  1  0
 14 13  2  0
 15 14  1  0
 16 18  1  0
 16 14  1  0
 17 16  2  0
 18 19  1  0
 19 20  2  0
 19 12  1  0
 22  1  1  0
 22 21  2  0
 23 22  1  0
 24 23  2  0
 24 25  1  0
 25 26  2  0
 26 21  1  0
  2 27  1  0
  2 28  1  0
  3 29  1  0
  3 30  1  0
  4 31  1  0
  4 32  1  0
  5 33  1  6
  7 34  1  0
  8 35  1  0
 13 36  1  0
 15 37  1  0
 15 38  1  0
 15 39  1  0
 18 40  1  0
 21 41  1  0
 23 42  1  0
 25 43  1  0
M  ISO  8  27  13  28  13  29  13  30  13  31  13  32  13  33  13  34  14
M  ISO  8  35  14  36  14  37   8  38   8  39   8  40   9  41  14  42  14
M  ISO  1  43  14
M  END
>  <minimizedAffinity>  (1) 
-6.56216145

>  <minimizedRMSD>  (1) 
0.15668115

$$$$
