
     RDKit          3D

 40 43  0  0  1  0  0  0  0  0999 V2000
   37.4890   31.2740   48.7320 N   0  0  0  0  0  0  0  0  0  0  0  0
   38.3800   31.5020   49.8650 C   0  0  0  0  0  0  0  0  0  0  0  0
   38.7290   32.9520   49.6850 C   0  0  0  0  0  0  0  0  0  0  0  0
   39.0140   32.9830   48.2070 C   0  0  0  0  0  0  0  0  0  0  0  0
   37.8250   32.2110   47.6940 C   0  0  1  0  0  0  0  0  0  0  0  0
   38.1720   31.6020   46.4130 C   0  0  0  0  0  0  0  0  0  0  0  0
   38.9530   30.4670   46.1400 C   0  0  0  0  0  0  0  0  0  0  0  0
   39.1660   30.0670   44.8520 C   0  0  0  0  0  0  0  0  0  0  0  0
   38.6250   30.7650   43.8640 N   0  0  0  0  0  0  0  0  0  0  0  0
   37.8750   31.8490   44.0820 C   0  0  0  0  0  0  0  0  0  0  0  0
   37.6690   32.2400   45.3600 N   0  0  0  0  0  0  0  0  0  0  0  0
   37.3350   32.5370   42.9630 N   0  0  0  0  0  0  0  0  0  0  0  0
   36.0040   32.6030   42.7430 C   0  0  0  0  0  0  0  0  0  0  0  0
   35.6060   33.3100   41.6050 C   0  0  0  0  0  0  0  0  0  0  0  0
   36.5420   33.8910   40.7800 C   0  0  0  0  0  0  0  0  0  0  0  0
   36.1870   34.5230   39.7630 O   0  0  0  0  0  0  0  0  0  0  0  0
   37.8680   33.7820   41.0670 N   0  0  0  0  0  0  0  0  0  0  0  0
   38.2330   33.1000   42.1630 C   0  0  0  0  0  0  0  0  0  0  0  0
   39.4850   33.0610   42.3360 O   0  0  0  0  0  0  0  0  0  0  0  0
   36.3600   29.1840   49.4660 C   0  0  0  0  0  0  0  0  0  0  0  0
   36.4660   30.3150   48.6320 C   0  0  0  0  0  0  0  0  0  0  0  0
   35.4940   30.5020   47.6370 C   0  0  0  0  0  0  0  0  0  0  0  0
   34.4900   29.5950   47.5080 N   0  0  0  0  0  0  0  0  0  0  0  0
   34.4190   28.5110   48.3350 C   0  0  0  0  0  0  0  0  0  0  0  0
   35.3520   28.3100   49.3080 N   0  0  0  0  0  0  0  0  0  0  0  0
   37.8658   31.3283   50.8218 H   0  0  0  0  0  0  0  0  0  0  0  0
   39.2513   30.8312   49.8922 H   0  0  0  0  0  0  0  0  0  0  0  0
   37.8872   33.6085   49.9503 H   0  0  0  0  0  0  0  0  0  0  0  0
   39.5547   33.3073   50.3190 H   0  0  0  0  0  0  0  0  0  0  0  0
   39.0324   34.0112   47.8164 H   0  0  0  0  0  0  0  0  0  0  0  0
   39.9925   32.5737   47.9155 H   0  0  0  0  0  0  0  0  0  0  0  0
   36.9407   32.8319   47.4879 H   0  0  0  0  0  0  0  0  0  0  0  0
   39.3961   29.8964   46.9695 H   0  0  0  0  0  0  0  0  0  0  0  0
   39.7778   29.1783   44.6376 H   0  0  0  0  0  0  0  0  0  0  0  0
   35.2770   32.1289   43.4188 H   0  0  0  0  0  0  0  0  0  0  0  0
   34.5361   33.4028   41.3668 H   0  0  0  0  0  0  0  0  0  0  0  0
   38.5758   34.2138   40.4559 H   0  0  0  0  0  0  0  0  0  0  0  0
   37.1093   29.0153   50.2534 H   0  0  0  0  0  0  0  0  0  0  0  0
   35.5442   31.3739   46.9682 H   0  0  0  0  0  0  0  0  0  0  0  0
   33.5973   27.7897   48.2143 H   0  0  0  0  0  0  0  0  0  0  0  0
  1  2  1  0
  3  2  1  0
  4  3  1  0
  5  4  1  0
  5  1  1  0
  6  5  1  0
  7  6  2  0
  8  7  1  0
  9 10  1  0
  9  8  2  0
 10 11  2  0
 11  6  1  0
 12 10  1  0
 13 12  1  0
 14 13  2  0
 15 17  1  0
 15 14  1  0
 16 15  2  0
 17 18  1  0
 18 19  2  0
 18 12  1  0
 21  1  1  0
 21 20  2  0
 22 21  1  0
 23 22  2  0
 23 24  1  0
 24 25  2  0
 25 20  1  0
  2 26  1  0
  2 27  1  0
  3 28  1  0
  3 29  1  0
  4 30  1  0
  4 31  1  0
  5 32  1  6
  7 33  1  0
  8 34  1  0
 13 35  1  0
 14 36  1  0
 17 37  1  0
 20 38  1  0
 22 39  1  0
 24 40  1  0
M  ISO  8  26  13  27  13  28  13  29  13  30  13  31  13  32  13  33  14
M  ISO  7  34  14  35  14  36  14  37   9  38  14  39  14  40  14
M  END
>  <minimizedAffinity>  (1) 
-6.44584703

>  <minimizedRMSD>  (1) 
0.163007513

$$$$
