
     RDKit          3D

 44 48  0  0  1  0  0  0  0  0999 V2000
   37.5860   31.4530   48.5810 N   0  0  0  0  0  0  0  0  0  0  0  0
   38.4390   31.7770   49.7180 C   0  0  0  0  0  0  0  0  0  0  0  0
   38.7640   33.2150   49.4590 C   0  0  0  0  0  0  0  0  0  0  0  0
   39.0940   33.1540   47.9860 C   0  0  0  0  0  0  0  0  0  0  0  0
   37.9290   32.3310   47.4930 C   0  0  1  0  0  0  0  0  0  0  0  0
   36.5210   29.3550   49.3830 C   0  0  0  0  0  0  0  0  0  0  0  0
   36.5970   30.4620   48.5260 C   0  0  0  0  0  0  0  0  0  0  0  0
   35.6010   30.6050   47.5220 C   0  0  0  0  0  0  0  0  0  0  0  0
   34.6210   29.6640   47.4340 N   0  0  0  0  0  0  0  0  0  0  0  0
   34.5900   28.6010   48.2930 C   0  0  0  0  0  0  0  0  0  0  0  0
   35.5350   28.4500   49.2610 N   0  0  0  0  0  0  0  0  0  0  0  0
   38.3170   31.6540   46.2610 C   0  0  0  0  0  0  0  0  0  0  0  0
   38.9410   30.4070   46.0830 C   0  0  0  0  0  0  0  0  0  0  0  0
   39.2320   29.9590   44.8250 C   0  0  0  0  0  0  0  0  0  0  0  0
   38.9200   30.7080   43.7860 N   0  0  0  0  0  0  0  0  0  0  0  0
   38.3180   31.9150   43.9080 C   0  0  0  0  0  0  0  0  0  0  0  0
   38.0380   32.3440   45.1590 N   0  0  0  0  0  0  0  0  0  0  0  0
   37.9780   32.7370   42.7330 C   0  0  0  0  0  0  0  0  0  0  0  0
   38.8680   33.3640   41.8850 C   0  0  0  0  0  0  0  0  0  0  0  0
   38.1250   34.0020   40.9520 N   0  0  0  0  0  0  0  0  0  0  0  0
   36.8280   33.7800   41.2120 C   0  0  0  0  0  0  0  0  0  0  0  0
   35.6870   34.2060   40.5630 C   0  0  0  0  0  0  0  0  0  0  0  0
   34.4090   33.8670   40.9890 C   0  0  0  0  0  0  0  0  0  0  0  0
   34.3010   33.0720   42.1080 C   0  0  0  0  0  0  0  0  0  0  0  0
   35.4200   32.6480   42.7520 C   0  0  0  0  0  0  0  0  0  0  0  0
   36.6940   32.9780   42.3380 C   0  0  0  0  0  0  0  0  0  0  0  0
   37.9015   31.6533   50.6697 H   0  0  0  0  0  0  0  0  0  0  0  0
   39.3241   31.1302   49.8087 H   0  0  0  0  0  0  0  0  0  0  0  0
   37.9021   33.8694   49.6566 H   0  0  0  0  0  0  0  0  0  0  0  0
   39.5614   33.6291   50.0935 H   0  0  0  0  0  0  0  0  0  0  0  0
   39.1100   34.1545   47.5290 H   0  0  0  0  0  0  0  0  0  0  0  0
   40.0863   32.7426   47.7492 H   0  0  0  0  0  0  0  0  0  0  0  0
   37.0384   32.9199   47.2283 H   0  0  0  0  0  0  0  0  0  0  0  0
   37.2807   29.2251   50.1679 H   0  0  0  0  0  0  0  0  0  0  0  0
   35.6216   31.4594   46.8295 H   0  0  0  0  0  0  0  0  0  0  0  0
   33.7873   27.8546   48.2003 H   0  0  0  0  0  0  0  0  0  0  0  0
   39.1955   29.7906   46.9578 H   0  0  0  0  0  0  0  0  0  0  0  0
   39.7211   28.9843   44.6811 H   0  0  0  0  0  0  0  0  0  0  0  0
   39.9657   33.3481   41.9542 H   0  0  0  0  0  0  0  0  0  0  0  0
   38.4937   34.5645   40.1719 H   0  0  0  0  0  0  0  0  0  0  0  0
   35.7940   34.8406   39.6709 H   0  0  0  0  0  0  0  0  0  0  0  0
   33.5163   34.2206   40.4522 H   0  0  0  0  0  0  0  0  0  0  0  0
   33.3082   32.7799   42.4809 H   0  0  0  0  0  0  0  0  0  0  0  0
   35.3049   32.0134   43.6431 H   0  0  0  0  0  0  0  0  0  0  0  0
  1  2  1  0
  3  2  1  0
  4  3  1  0
  5  4  1  0
  5  1  1  0
  7  1  1  0
  7  6  2  0
  8  7  1  0
  9  8  2  0
  9 10  1  0
 10 11  2  0
 11  6  1  0
 12  5  1  0
 13 12  2  0
 14 13  1  0
 15 16  1  0
 15 14  2  0
 16 17  2  0
 17 12  1  0
 18 16  1  0
 19 18  2  0
 20 21  1  0
 20 19  1  0
 21 26  2  0
 22 23  2  0
 22 21  1  0
 23 24  1  0
 24 25  2  0
 26 18  1  0
 26 25  1  0
  2 27  1  0
  2 28  1  0
  3 29  1  0
  3 30  1  0
  4 31  1  0
  4 32  1  0
  5 33  1  6
  6 34  1  0
  8 35  1  0
 10 36  1  0
 13 37  1  0
 14 38  1  0
 19 39  1  0
 20 40  1  0
 22 41  1  0
 23 42  1  0
 24 43  1  0
 25 44  1  0
M  ISO  8  27  13  28  13  29  13  30  13  31  13  32  13  33  13  34  14
M  ISO  8  35  14  36  14  37  14  38  14  39  14  40   9  41  14  42  14
M  ISO  2  43  14  44  14
M  END
>  <minimizedAffinity>  (1) 
-6.2171936

>  <minimizedRMSD>  (1) 
0.921008527

$$$$
