
     RDKit          3D

 45 48  0  0  1  0  0  0  0  0999 V2000
   37.5200   31.3690   48.6480 N   0  0  0  0  0  0  0  0  0  0  0  0
   38.3680   31.6330   49.8070 C   0  0  0  0  0  0  0  0  0  0  0  0
   38.7050   33.0740   49.6100 C   0  0  0  0  0  0  0  0  0  0  0  0
   39.0620   33.0680   48.1340 C   0  0  0  0  0  0  0  0  0  0  0  0
   37.8810   32.2890   47.6040 C   0  0  1  0  0  0  0  0  0  0  0  0
   38.2640   31.6660   46.3440 C   0  0  0  0  0  0  0  0  0  0  0  0
   38.9730   30.4800   46.1090 C   0  0  0  0  0  0  0  0  0  0  0  0
   39.2360   30.0660   44.8360 C   0  0  0  0  0  0  0  0  0  0  0  0
   38.8050   30.8110   43.8160 N   0  0  0  0  0  0  0  0  0  0  0  0
   38.1270   31.9460   44.0060 C   0  0  0  0  0  0  0  0  0  0  0  0
   37.8710   32.3520   45.2710 N   0  0  0  0  0  0  0  0  0  0  0  0
   37.6990   32.6900   42.8650 N   0  0  0  0  0  0  0  0  0  0  0  0
   36.3050   32.9180   42.6840 C   0  0  0  0  0  0  0  0  0  0  0  0
   35.8820   33.1230   41.2710 C   0  0  0  0  0  0  0  0  0  0  0  0
   37.0010   33.0150   40.2610 C   0  0  0  0  0  0  0  0  0  0  0  0
   38.1420   33.8550   40.7490 C   0  0  0  0  0  0  0  0  0  0  0  0
   38.7200   33.1680   41.9570 C   0  0  0  0  0  0  0  0  0  0  0  0
   36.4010   29.2660   49.3850 C   0  0  0  0  0  0  0  0  0  0  0  0
   36.5200   30.3870   48.5490 C   0  0  0  0  0  0  0  0  0  0  0  0
   35.5630   30.5530   47.5160 C   0  0  0  0  0  0  0  0  0  0  0  0
   34.5780   29.6230   47.3830 N   0  0  0  0  0  0  0  0  0  0  0  0
   34.5050   28.5520   48.2200 C   0  0  0  0  0  0  0  0  0  0  0  0
   35.4210   28.3820   49.2170 N   0  0  0  0  0  0  0  0  0  0  0  0
   37.8221   31.4735   50.7485 H   0  0  0  0  0  0  0  0  0  0  0  0
   39.2457   30.9738   49.8789 H   0  0  0  0  0  0  0  0  0  0  0  0
   37.8437   33.7258   49.8180 H   0  0  0  0  0  0  0  0  0  0  0  0
   39.4938   33.4580   50.2736 H   0  0  0  0  0  0  0  0  0  0  0  0
   39.1053   34.0848   47.7167 H   0  0  0  0  0  0  0  0  0  0  0  0
   40.0500   32.6508   47.8896 H   0  0  0  0  0  0  0  0  0  0  0  0
   36.9990   32.9026   47.3682 H   0  0  0  0  0  0  0  0  0  0  0  0
   39.3211   29.8765   46.9602 H   0  0  0  0  0  0  0  0  0  0  0  0
   39.7931   29.1352   44.6536 H   0  0  0  0  0  0  0  0  0  0  0  0
   35.7620   32.0474   43.0805 H   0  0  0  0  0  0  0  0  0  0  0  0
   36.0738   33.8536   43.2143 H   0  0  0  0  0  0  0  0  0  0  0  0
   35.1233   32.3652   41.0259 H   0  0  0  0  0  0  0  0  0  0  0  0
   35.4985   34.1518   41.2049 H   0  0  0  0  0  0  0  0  0  0  0  0
   36.6582   33.3818   39.2823 H   0  0  0  0  0  0  0  0  0  0  0  0
   37.3164   31.9673   40.1479 H   0  0  0  0  0  0  0  0  0  0  0  0
   38.9074   33.9427   39.9638 H   0  0  0  0  0  0  0  0  0  0  0  0
   37.7978   34.8679   41.0049 H   0  0  0  0  0  0  0  0  0  0  0  0
   39.3223   32.3111   41.6209 H   0  0  0  0  0  0  0  0  0  0  0  0
   39.3312   33.9043   42.4994 H   0  0  0  0  0  0  0  0  0  0  0  0
   37.1312   29.1155   50.1938 H   0  0  0  0  0  0  0  0  0  0  0  0
   35.6155   31.4159   46.8358 H   0  0  0  0  0  0  0  0  0  0  0  0
   33.6984   27.8152   48.0912 H   0  0  0  0  0  0  0  0  0  0  0  0
  1  2  1  0
  3  2  1  0
  4  3  1  0
  5  4  1  0
  5  1  1  0
  6  5  1  0
  7  6  2  0
  8  7  1  0
  9 10  1  0
  9  8  2  0
 10 11  2  0
 11  6  1  0
 12 10  1  0
 13 12  1  0
 14 13  1  0
 15 16  1  0
 15 14  1  0
 16 17  1  0
 17 12  1  0
 19  1  1  0
 19 18  2  0
 20 19  1  0
 21 20  2  0
 21 22  1  0
 22 23  2  0
 23 18  1  0
  2 24  1  0
  2 25  1  0
  3 26  1  0
  3 27  1  0
  4 28  1  0
  4 29  1  0
  5 30  1  6
  7 31  1  0
  8 32  1  0
 13 33  1  0
 13 34  1  0
 14 35  1  0
 14 36  1  0
 15 37  1  0
 15 38  1  0
 16 39  1  0
 16 40  1  0
 17 41  1  0
 17 42  1  0
 18 43  1  0
 20 44  1  0
 22 45  1  0
M  ISO  8  24  13  25  13  26  13  27  13  28  13  29  13  30  13  31  14
M  ISO  8  32  14  33  13  34  13  35  13  36  13  37  13  38  13  39  13
M  ISO  6  40  13  41  13  42  13  43  14  44  14  45  14
M  END
>  <minimizedAffinity>  (1) 
-6.07327843

>  <minimizedRMSD>  (1) 
0.272776753

$$$$
