
     RDKit          3D

 37 40  0  0  1  0  0  0  0  0999 V2000
   37.5430   31.3830   48.6360 N   0  0  0  0  0  0  0  0  0  0  0  0
   38.4050   31.6520   49.7800 C   0  0  0  0  0  0  0  0  0  0  0  0
   38.7290   33.1090   49.5720 C   0  0  0  0  0  0  0  0  0  0  0  0
   39.0630   33.0920   48.0970 C   0  0  0  0  0  0  0  0  0  0  0  0
   37.8880   32.2980   47.5830 C   0  0  1  0  0  0  0  0  0  0  0  0
   38.2660   31.6640   46.3230 C   0  0  0  0  0  0  0  0  0  0  0  0
   38.9560   30.4620   46.0970 C   0  0  0  0  0  0  0  0  0  0  0  0
   39.2200   30.0520   44.8190 C   0  0  0  0  0  0  0  0  0  0  0  0
   38.8190   30.7980   43.8010 N   0  0  0  0  0  0  0  0  0  0  0  0
   38.1590   31.9480   43.9810 C   0  0  0  0  0  0  0  0  0  0  0  0
   37.9000   32.3500   45.2450 N   0  0  0  0  0  0  0  0  0  0  0  0
   37.7640   32.6900   42.8320 N   0  0  0  0  0  0  0  0  0  0  0  0
   36.6350   33.0490   42.2590 N   0  0  0  0  0  0  0  0  0  0  0  0
   36.8920   33.7750   41.1480 C   0  0  0  0  0  0  0  0  0  0  0  0
   38.2730   33.8780   41.0170 C   0  0  0  0  0  0  0  0  0  0  0  0
   38.8020   33.1790   42.1000 C   0  0  0  0  0  0  0  0  0  0  0  0
   36.4370   29.2880   49.3960 C   0  0  0  0  0  0  0  0  0  0  0  0
   36.5350   30.4060   48.5410 C   0  0  0  0  0  0  0  0  0  0  0  0
   35.5730   30.5680   47.5220 C   0  0  0  0  0  0  0  0  0  0  0  0
   34.5850   29.6370   47.4050 N   0  0  0  0  0  0  0  0  0  0  0  0
   34.5220   28.5680   48.2520 C   0  0  0  0  0  0  0  0  0  0  0  0
   35.4440   28.3980   49.2400 N   0  0  0  0  0  0  0  0  0  0  0  0
   37.8751   31.4893   50.7301 H   0  0  0  0  0  0  0  0  0  0  0  0
   39.2882   30.9991   49.8409 H   0  0  0  0  0  0  0  0  0  0  0  0
   37.8652   33.7548   49.7882 H   0  0  0  0  0  0  0  0  0  0  0  0
   39.5214   33.5064   50.2233 H   0  0  0  0  0  0  0  0  0  0  0  0
   39.0906   34.1058   47.6711 H   0  0  0  0  0  0  0  0  0  0  0  0
   40.0515   32.6797   47.8462 H   0  0  0  0  0  0  0  0  0  0  0  0
   37.0003   32.9039   47.3486 H   0  0  0  0  0  0  0  0  0  0  0  0
   39.2848   29.8491   46.9492 H   0  0  0  0  0  0  0  0  0  0  0  0
   39.7605   29.1111   44.6385 H   0  0  0  0  0  0  0  0  0  0  0  0
   36.1426   34.2073   40.4686 H   0  0  0  0  0  0  0  0  0  0  0  0
   38.8299   34.4009   40.2255 H   0  0  0  0  0  0  0  0  0  0  0  0
   39.8707   33.0458   42.3240 H   0  0  0  0  0  0  0  0  0  0  0  0
   37.1788   29.1446   50.1954 H   0  0  0  0  0  0  0  0  0  0  0  0
   35.6195   31.4272   46.8368 H   0  0  0  0  0  0  0  0  0  0  0  0
   33.7132   27.8318   48.1345 H   0  0  0  0  0  0  0  0  0  0  0  0
  1  2  1  0
  3  2  1  0
  4  3  1  0
  5  4  1  0
  5  1  1  0
  6  5  1  0
  7  6  2  0
  8  7  1  0
  9 10  1  0
  9  8  2  0
 10 11  2  0
 11  6  1  0
 12 10  1  0
 13 12  1  0
 14 13  2  0
 15 14  1  0
 15 16  2  0
 16 12  1  0
 18  1  1  0
 18 17  2  0
 19 18  1  0
 20 19  2  0
 20 21  1  0
 21 22  2  0
 22 17  1  0
  2 23  1  0
  2 24  1  0
  3 25  1  0
  3 26  1  0
  4 27  1  0
  4 28  1  0
  5 29  1  6
  7 30  1  0
  8 31  1  0
 14 32  1  0
 15 33  1  0
 16 34  1  0
 17 35  1  0
 19 36  1  0
 21 37  1  0
M  ISO  8  23  13  24  13  25  13  26  13  27  13  28  13  29  13  30  14
M  ISO  7  31  14  32  14  33  14  34  14  35  14  36  14  37  14
M  END
>  <minimizedAffinity>  (1) 
-6.06318665

>  <minimizedRMSD>  (1) 
0.274015725

$$$$
