
     RDKit          3D

 37 40  0  0  1  0  0  0  0  0999 V2000
   37.5370   31.3860   48.6370 N   0  0  0  0  0  0  0  0  0  0  0  0
   38.3860   31.6670   49.7860 C   0  0  0  0  0  0  0  0  0  0  0  0
   38.7100   33.1250   49.5690 C   0  0  0  0  0  0  0  0  0  0  0  0
   39.0650   33.0890   48.1000 C   0  0  0  0  0  0  0  0  0  0  0  0
   37.8930   32.2940   47.5820 C   0  0  1  0  0  0  0  0  0  0  0  0
   38.2790   31.6520   46.3280 C   0  0  0  0  0  0  0  0  0  0  0  0
   38.9810   30.4550   46.1140 C   0  0  0  0  0  0  0  0  0  0  0  0
   39.2510   30.0380   44.8410 C   0  0  0  0  0  0  0  0  0  0  0  0
   38.8480   30.7690   43.8190 N   0  0  0  0  0  0  0  0  0  0  0  0
   38.1740   31.9190   43.9820 C   0  0  0  0  0  0  0  0  0  0  0  0
   37.9100   32.3280   45.2440 N   0  0  0  0  0  0  0  0  0  0  0  0
   37.7560   32.6800   42.8310 N   0  0  0  0  0  0  0  0  0  0  0  0
   38.7640   33.1520   42.0490 C   0  0  0  0  0  0  0  0  0  0  0  0
   38.1430   33.8490   41.0080 C   0  0  0  0  0  0  0  0  0  0  0  0
   36.8110   33.7730   41.1960 N   0  0  0  0  0  0  0  0  0  0  0  0
   36.5720   33.0590   42.3110 C   0  0  0  0  0  0  0  0  0  0  0  0
   36.4330   29.2930   49.3920 C   0  0  0  0  0  0  0  0  0  0  0  0
   36.5330   30.4060   48.5400 C   0  0  0  0  0  0  0  0  0  0  0  0
   35.5720   30.5620   47.5180 C   0  0  0  0  0  0  0  0  0  0  0  0
   34.5880   29.6300   47.3980 N   0  0  0  0  0  0  0  0  0  0  0  0
   34.5240   28.5610   48.2460 C   0  0  0  0  0  0  0  0  0  0  0  0
   35.4440   28.3970   49.2360 N   0  0  0  0  0  0  0  0  0  0  0  0
   37.8468   31.5114   50.7321 H   0  0  0  0  0  0  0  0  0  0  0  0
   39.2700   31.0167   49.8610 H   0  0  0  0  0  0  0  0  0  0  0  0
   37.8418   33.7714   49.7651 H   0  0  0  0  0  0  0  0  0  0  0  0
   39.4903   33.5331   50.2282 H   0  0  0  0  0  0  0  0  0  0  0  0
   39.1030   34.0973   47.6619 H   0  0  0  0  0  0  0  0  0  0  0  0
   40.0552   32.6704   47.8670 H   0  0  0  0  0  0  0  0  0  0  0  0
   37.0085   32.9006   47.3376 H   0  0  0  0  0  0  0  0  0  0  0  0
   39.3139   29.8523   46.9719 H   0  0  0  0  0  0  0  0  0  0  0  0
   39.8000   29.1003   44.6696 H   0  0  0  0  0  0  0  0  0  0  0  0
   39.8443   33.0139   42.2036 H   0  0  0  0  0  0  0  0  0  0  0  0
   38.6518   34.3675   40.1820 H   0  0  0  0  0  0  0  0  0  0  0  0
   35.5808   32.8249   42.7266 H   0  0  0  0  0  0  0  0  0  0  0  0
   37.1720   29.1539   50.1949 H   0  0  0  0  0  0  0  0  0  0  0  0
   35.6177   31.4205   46.8318 H   0  0  0  0  0  0  0  0  0  0  0  0
   33.7177   27.8222   48.1273 H   0  0  0  0  0  0  0  0  0  0  0  0
  1  2  1  0
  3  2  1  0
  4  3  1  0
  5  4  1  0
  5  1  1  0
  6  5  1  0
  7  6  2  0
  8  7  1  0
  9 10  1  0
  9  8  2  0
 10 11  2  0
 11  6  1  0
 12 10  1  0
 13 12  1  0
 14 15  1  0
 14 13  2  0
 15 16  2  0
 16 12  1  0
 18  1  1  0
 18 17  2  0
 19 18  1  0
 20 19  2  0
 20 21  1  0
 21 22  2  0
 22 17  1  0
  2 23  1  0
  2 24  1  0
  3 25  1  0
  3 26  1  0
  4 27  1  0
  4 28  1  0
  5 29  1  6
  7 30  1  0
  8 31  1  0
 13 32  1  0
 14 33  1  0
 16 34  1  0
 17 35  1  0
 19 36  1  0
 21 37  1  0
M  ISO  8  23  13  24  13  25  13  26  13  27  13  28  13  29  13  30  14
M  ISO  7  31  14  32  14  33  14  34  14  35  14  36  14  37  14
M  END
>  <minimizedAffinity>  (1) 
-6.03453302

>  <minimizedRMSD>  (1) 
0.270351261

$$$$
