
     RDKit          3D

 38 41  0  0  1  0  0  0  0  0999 V2000
   37.5280   31.3660   48.6520 N   0  0  0  0  0  0  0  0  0  0  0  0
   38.3930   31.6300   49.7950 C   0  0  0  0  0  0  0  0  0  0  0  0
   38.7150   33.0790   49.5980 C   0  0  0  0  0  0  0  0  0  0  0  0
   39.0500   33.0760   48.1210 C   0  0  0  0  0  0  0  0  0  0  0  0
   37.8740   32.2820   47.6000 C   0  0  1  0  0  0  0  0  0  0  0  0
   36.4110   29.2770   49.4040 C   0  0  0  0  0  0  0  0  0  0  0  0
   36.5190   30.3920   48.5500 C   0  0  0  0  0  0  0  0  0  0  0  0
   35.5630   30.5480   47.5320 C   0  0  0  0  0  0  0  0  0  0  0  0
   34.5760   29.6180   47.4110 N   0  0  0  0  0  0  0  0  0  0  0  0
   34.5030   28.5540   48.2520 C   0  0  0  0  0  0  0  0  0  0  0  0
   35.4160   28.3860   49.2430 N   0  0  0  0  0  0  0  0  0  0  0  0
   38.2590   31.6490   46.3410 C   0  0  0  0  0  0  0  0  0  0  0  0
   38.9710   30.4590   46.1170 C   0  0  0  0  0  0  0  0  0  0  0  0
   39.2410   30.0390   44.8460 C   0  0  0  0  0  0  0  0  0  0  0  0
   38.8130   30.7860   43.8230 N   0  0  0  0  0  0  0  0  0  0  0  0
   38.1330   31.9230   43.9970 C   0  0  0  0  0  0  0  0  0  0  0  0
   37.8760   32.3220   45.2630 N   0  0  0  0  0  0  0  0  0  0  0  0
   37.6900   32.6990   42.8280 C   0  0  0  0  0  0  0  0  0  0  0  0
   36.3600   32.8930   42.5670 C   0  0  0  0  0  0  0  0  0  0  0  0
   36.0680   33.6440   41.4350 C   0  0  0  0  0  0  0  0  0  0  0  0
   37.0740   34.1330   40.6670 N   0  0  0  0  0  0  0  0  0  0  0  0
   38.3730   33.9290   40.9450 C   0  0  0  0  0  0  0  0  0  0  0  0
   38.6410   33.1950   42.0530 N   0  0  0  0  0  0  0  0  0  0  0  0
   37.8655   31.4613   50.7454 H   0  0  0  0  0  0  0  0  0  0  0  0
   39.2770   30.9776   49.8483 H   0  0  0  0  0  0  0  0  0  0  0  0
   37.8510   33.7229   49.8192 H   0  0  0  0  0  0  0  0  0  0  0  0
   39.5082   33.4702   50.2520 H   0  0  0  0  0  0  0  0  0  0  0  0
   39.0752   34.0935   47.7039 H   0  0  0  0  0  0  0  0  0  0  0  0
   40.0396   32.6688   47.8662 H   0  0  0  0  0  0  0  0  0  0  0  0
   36.9864   32.8865   47.3619 H   0  0  0  0  0  0  0  0  0  0  0  0
   37.1464   29.1336   50.2093 H   0  0  0  0  0  0  0  0  0  0  0  0
   35.6112   31.4060   46.8453 H   0  0  0  0  0  0  0  0  0  0  0  0
   33.6939   27.8190   48.1288 H   0  0  0  0  0  0  0  0  0  0  0  0
   39.3142   29.8599   46.9733 H   0  0  0  0  0  0  0  0  0  0  0  0
   39.7979   29.1073   44.6678 H   0  0  0  0  0  0  0  0  0  0  0  0
   35.5716   32.4800   43.2134 H   0  0  0  0  0  0  0  0  0  0  0  0
   35.0211   33.8421   41.1614 H   0  0  0  0  0  0  0  0  0  0  0  0
   39.1738   34.3348   40.3093 H   0  0  0  0  0  0  0  0  0  0  0  0
  1  2  1  0
  3  2  1  0
  4  3  1  0
  5  4  1  0
  5  1  1  0
  7  1  1  0
  7  6  2  0
  8  7  1  0
  9  8  2  0
  9 10  1  0
 10 11  2  0
 11  6  1  0
 12  5  1  0
 13 12  2  0
 14 13  1  0
 15 16  1  0
 15 14  2  0
 16 17  2  0
 17 12  1  0
 18 16  1  0
 19 18  2  0
 20 19  1  0
 21 22  1  0
 21 20  2  0
 22 23  2  0
 23 18  1  0
  2 24  1  0
  2 25  1  0
  3 26  1  0
  3 27  1  0
  4 28  1  0
  4 29  1  0
  5 30  1  6
  6 31  1  0
  8 32  1  0
 10 33  1  0
 13 34  1  0
 14 35  1  0
 19 36  1  0
 20 37  1  0
 22 38  1  0
M  ISO  8  24  13  25  13  26  13  27  13  28  13  29  13  30  13  31  14
M  ISO  7  32  14  33  14  34  14  35  14  36  14  37  14  38  14
M  END
>  <minimizedAffinity>  (1) 
-5.93740129

>  <minimizedRMSD>  (1) 
0.483344793

$$$$
