
     RDKit          3D

 35 38  0  0  1  0  0  0  0  0999 V2000
   37.5400   31.3860   48.6420 N   0  0  0  0  0  0  0  0  0  0  0  0
   38.3920   31.6650   49.7910 C   0  0  0  0  0  0  0  0  0  0  0  0
   38.7130   33.1110   49.5810 C   0  0  0  0  0  0  0  0  0  0  0  0
   39.0720   33.0880   48.1060 C   0  0  0  0  0  0  0  0  0  0  0  0
   37.8950   32.2950   47.5890 C   0  0  1  0  0  0  0  0  0  0  0  0
   36.4320   29.2880   49.3930 C   0  0  0  0  0  0  0  0  0  0  0  0
   36.5360   30.4060   48.5460 C   0  0  0  0  0  0  0  0  0  0  0  0
   35.5740   30.5640   47.5290 C   0  0  0  0  0  0  0  0  0  0  0  0
   34.5890   29.6330   47.4070 N   0  0  0  0  0  0  0  0  0  0  0  0
   34.5260   28.5650   48.2500 C   0  0  0  0  0  0  0  0  0  0  0  0
   35.4390   28.3950   49.2320 N   0  0  0  0  0  0  0  0  0  0  0  0
   38.2750   31.6600   46.3310 C   0  0  0  0  0  0  0  0  0  0  0  0
   38.9520   30.4500   46.1100 C   0  0  0  0  0  0  0  0  0  0  0  0
   39.2230   30.0390   44.8340 C   0  0  0  0  0  0  0  0  0  0  0  0
   38.8430   30.7870   43.8190 N   0  0  0  0  0  0  0  0  0  0  0  0
   38.1940   31.9500   43.9860 C   0  0  0  0  0  0  0  0  0  0  0  0
   37.9300   32.3510   45.2510 N   0  0  0  0  0  0  0  0  0  0  0  0
   37.8060   32.7240   42.8090 C   0  0  0  0  0  0  0  0  0  0  0  0
   36.6610   33.1230   42.2210 N   0  0  0  0  0  0  0  0  0  0  0  0
   36.9430   33.8140   41.1560 O   0  0  0  0  0  0  0  0  0  0  0  0
   38.2390   33.9010   40.9980 C   0  0  0  0  0  0  0  0  0  0  0  0
   38.7960   33.2160   42.0360 N   0  0  0  0  0  0  0  0  0  0  0  0
   37.8546   31.5062   50.7376 H   0  0  0  0  0  0  0  0  0  0  0  0
   39.2767   31.0151   49.8613 H   0  0  0  0  0  0  0  0  0  0  0  0
   37.8440   33.7554   49.7799 H   0  0  0  0  0  0  0  0  0  0  0  0
   39.4943   33.5136   50.2424 H   0  0  0  0  0  0  0  0  0  0  0  0
   39.1095   34.0992   47.6748 H   0  0  0  0  0  0  0  0  0  0  0  0
   40.0629   32.6747   47.8666 H   0  0  0  0  0  0  0  0  0  0  0  0
   37.0094   32.9022   47.3500 H   0  0  0  0  0  0  0  0  0  0  0  0
   37.1703   29.1424   50.1953 H   0  0  0  0  0  0  0  0  0  0  0  0
   35.6183   31.4248   46.8456 H   0  0  0  0  0  0  0  0  0  0  0  0
   33.7182   27.8282   48.1295 H   0  0  0  0  0  0  0  0  0  0  0  0
   39.2649   29.8317   46.9643 H   0  0  0  0  0  0  0  0  0  0  0  0
   39.7537   29.0919   44.6571 H   0  0  0  0  0  0  0  0  0  0  0  0
   38.7720   34.4225   40.1894 H   0  0  0  0  0  0  0  0  0  0  0  0
  1  2  1  0
  3  2  1  0
  4  3  1  0
  5  4  1  0
  5  1  1  0
  7  1  1  0
  7  6  2  0
  8  7  1  0
  9  8  2  0
  9 10  1  0
 10 11  2  0
 11  6  1  0
 12  5  1  0
 13 12  2  0
 14 13  1  0
 15 16  1  0
 15 14  2  0
 16 17  2  0
 17 12  1  0
 18 16  1  0
 19 18  2  0
 20 19  1  0
 21 20  1  0
 21 22  2  0
 22 18  1  0
  2 23  1  0
  2 24  1  0
  3 25  1  0
  3 26  1  0
  4 27  1  0
  4 28  1  0
  5 29  1  6
  6 30  1  0
  8 31  1  0
 10 32  1  0
 13 33  1  0
 14 34  1  0
 21 35  1  0
M  ISO  8  23  13  24  13  25  13  26  13  27  13  28  13  29  13  30  14
M  ISO  5  31  14  32  14  33  14  34  14  35  14
M  END
>  <minimizedAffinity>  (1) 
-5.74997187

>  <minimizedRMSD>  (1) 
0.310504794

$$$$
