
     RDKit          3D

 39 41  0  0  1  0  0  0  0  0999 V2000
   37.5390   31.3790   48.6560 N   0  0  0  0  0  0  0  0  0  0  0  0
   38.4010   31.6550   49.7980 C   0  0  0  0  0  0  0  0  0  0  0  0
   38.7290   33.1020   49.5890 C   0  0  0  0  0  0  0  0  0  0  0  0
   39.0580   33.0890   48.1110 C   0  0  0  0  0  0  0  0  0  0  0  0
   37.8810   32.2920   47.5990 C   0  0  1  0  0  0  0  0  0  0  0  0
   36.4350   29.2850   49.4160 C   0  0  0  0  0  0  0  0  0  0  0  0
   36.5380   30.3990   48.5650 C   0  0  0  0  0  0  0  0  0  0  0  0
   35.5720   30.5540   47.5460 C   0  0  0  0  0  0  0  0  0  0  0  0
   34.5860   29.6210   47.4300 N   0  0  0  0  0  0  0  0  0  0  0  0
   34.5270   28.5520   48.2810 C   0  0  0  0  0  0  0  0  0  0  0  0
   35.4480   28.3900   49.2660 N   0  0  0  0  0  0  0  0  0  0  0  0
   38.2590   31.6570   46.3410 C   0  0  0  0  0  0  0  0  0  0  0  0
   38.9950   30.4840   46.1150 C   0  0  0  0  0  0  0  0  0  0  0  0
   39.2490   30.0660   44.8390 C   0  0  0  0  0  0  0  0  0  0  0  0
   38.7930   30.7810   43.8230 N   0  0  0  0  0  0  0  0  0  0  0  0
   38.0870   31.9040   43.9960 C   0  0  0  0  0  0  0  0  0  0  0  0
   37.8410   32.3100   45.2620 N   0  0  0  0  0  0  0  0  0  0  0  0
   37.6110   32.6480   42.7970 C   0  0  0  0  0  0  0  0  0  0  0  0
   38.7790   33.1610   42.0000 C   0  0  0  0  0  0  0  0  0  0  0  0
   36.8440   31.6570   41.9380 C   0  0  0  0  0  0  0  0  0  0  0  0
   37.8700   31.4975   50.7484 H   0  0  0  0  0  0  0  0  0  0  0  0
   39.2838   31.0016   49.8591 H   0  0  0  0  0  0  0  0  0  0  0  0
   37.8688   33.7511   49.8096 H   0  0  0  0  0  0  0  0  0  0  0  0
   39.5272   33.4933   50.2369 H   0  0  0  0  0  0  0  0  0  0  0  0
   39.0816   34.1038   47.6872 H   0  0  0  0  0  0  0  0  0  0  0  0
   40.0465   32.6797   47.8556 H   0  0  0  0  0  0  0  0  0  0  0  0
   36.9916   32.8950   47.3637 H   0  0  0  0  0  0  0  0  0  0  0  0
   37.1755   29.1454   50.2173 H   0  0  0  0  0  0  0  0  0  0  0  0
   35.6151   31.4120   46.8590 H   0  0  0  0  0  0  0  0  0  0  0  0
   33.7213   27.8120   48.1659 H   0  0  0  0  0  0  0  0  0  0  0  0
   39.3689   29.8987   46.9680 H   0  0  0  0  0  0  0  0  0  0  0  0
   39.8253   29.1466   44.6586 H   0  0  0  0  0  0  0  0  0  0  0  0
   36.9884   33.5018   43.1025 H   0  0  0  0  0  0  0  0  0  0  0  0
   39.5668   33.5070   42.6853 H   0  0  0  0  0  0  0  0  0  0  0  0
   39.1733   32.3532   41.3659 H   0  0  0  0  0  0  0  0  0  0  0  0
   38.4510   33.9979   41.3659 H   0  0  0  0  0  0  0  0  0  0  0  0
   36.3000   30.9541   42.5861 H   0  0  0  0  0  0  0  0  0  0  0  0
   36.1281   32.1994   41.3030 H   0  0  0  0  0  0  0  0  0  0  0  0
   37.5486   31.1000   41.3030 H   0  0  0  0  0  0  0  0  0  0  0  0
  1  2  1  0
  3  2  1  0
  4  3  1  0
  5  4  1  0
  5  1  1  0
  7  1  1  0
  7  6  2  0
  8  7  1  0
  9  8  2  0
  9 10  1  0
 10 11  2  0
 11  6  1  0
 12  5  1  0
 13 12  2  0
 14 13  1  0
 15 16  1  0
 15 14  2  0
 16 17  2  0
 17 12  1  0
 18 16  1  0
 19 18  1  0
 20 18  1  0
  2 21  1  0
  2 22  1  0
  3 23  1  0
  3 24  1  0
  4 25  1  0
  4 26  1  0
  5 27  1  6
  6 28  1  0
  8 29  1  0
 10 30  1  0
 13 31  1  0
 14 32  1  0
 18 33  1  0
 19 34  1  0
 19 35  1  0
 19 36  1  0
 20 37  1  0
 20 38  1  0
 20 39  1  0
M  ISO  8  21  13  22  13  23  13  24  13  25  13  26  13  27  13  28  14
M  ISO  8  29  14  30  14  31  14  32  14  33   8  34   8  35   8  36   8
M  ISO  3  37   8  38   8  39   8
M  END
>  <minimizedAffinity>  (1) 
-5.28287697

>  <minimizedRMSD>  (1) 
0.41000253

$$$$
