
     RDKit          3D

 31 33  0  0  1  0  0  0  0  0999 V2000
   37.5400   31.3660   48.6500 N   0  0  0  0  0  0  0  0  0  0  0  0
   38.4080   31.6480   49.7800 C   0  0  0  0  0  0  0  0  0  0  0  0
   38.7450   33.0980   49.5530 C   0  0  0  0  0  0  0  0  0  0  0  0
   39.0570   33.0700   48.0800 C   0  0  0  0  0  0  0  0  0  0  0  0
   37.8750   32.2710   47.5890 C   0  0  1  0  0  0  0  0  0  0  0  0
   36.4480   29.2780   49.4340 C   0  0  0  0  0  0  0  0  0  0  0  0
   36.5370   30.3870   48.5730 C   0  0  0  0  0  0  0  0  0  0  0  0
   35.5590   30.5350   47.5630 C   0  0  0  0  0  0  0  0  0  0  0  0
   34.5760   29.5980   47.4680 N   0  0  0  0  0  0  0  0  0  0  0  0
   34.5280   28.5350   48.3270 C   0  0  0  0  0  0  0  0  0  0  0  0
   35.4530   28.3800   49.2960 N   0  0  0  0  0  0  0  0  0  0  0  0
   38.2320   31.6340   46.3220 C   0  0  0  0  0  0  0  0  0  0  0  0
   39.0280   30.5030   46.0860 C   0  0  0  0  0  0  0  0  0  0  0  0
   39.2550   30.0690   44.8110 C   0  0  0  0  0  0  0  0  0  0  0  0
   38.7120   30.7330   43.8040 N   0  0  0  0  0  0  0  0  0  0  0  0
   37.9480   31.8150   43.9870 C   0  0  0  0  0  0  0  0  0  0  0  0
   37.7270   32.2400   45.2520 N   0  0  0  0  0  0  0  0  0  0  0  0
   37.2640   32.6360   42.5520 S   0  0  0  0  0  0  0  0  0  0  0  0
   37.8821   31.5035   50.7353 H   0  0  0  0  0  0  0  0  0  0  0  0
   39.2873   30.9900   49.8422 H   0  0  0  0  0  0  0  0  0  0  0  0
   37.8913   33.7548   49.7765 H   0  0  0  0  0  0  0  0  0  0  0  0
   39.5526   33.4897   50.1889 H   0  0  0  0  0  0  0  0  0  0  0  0
   39.0778   34.0805   47.6459 H   0  0  0  0  0  0  0  0  0  0  0  0
   40.0422   32.6566   47.8183 H   0  0  0  0  0  0  0  0  0  0  0  0
   36.9829   32.8745   47.3656 H   0  0  0  0  0  0  0  0  0  0  0  0
   37.1978   29.1427   50.2274 H   0  0  0  0  0  0  0  0  0  0  0  0
   35.5916   31.3882   46.8694 H   0  0  0  0  0  0  0  0  0  0  0  0
   33.7214   27.7940   48.2259 H   0  0  0  0  0  0  0  0  0  0  0  0
   39.4726   29.9617   46.9342 H   0  0  0  0  0  0  0  0  0  0  0  0
   39.8788   29.1823   44.6247 H   0  0  0  0  0  0  0  0  0  0  0  0
   36.4263   33.6415   42.9572 H   0  0  0  0  0  0  0  0  0  0  0  0
  1  2  1  0
  3  2  1  0
  4  3  1  0
  5  4  1  0
  5  1  1  0
  7  1  1  0
  7  6  2  0
  8  7  1  0
  9  8  2  0
  9 10  1  0
 10 11  2  0
 11  6  1  0
 12  5  1  0
 13 12  2  0
 14 13  1  0
 15 16  1  0
 15 14  2  0
 16 17  2  0
 17 12  1  0
 18 16  1  0
  2 19  1  0
  2 20  1  0
  3 21  1  0
  3 22  1  0
  4 23  1  0
  4 24  1  0
  5 25  1  6
  6 26  1  0
  8 27  1  0
 10 28  1  0
 13 29  1  0
 14 30  1  0
 18 31  1  0
M  ISO  8  19  13  20  13  21  13  22  13  23  13  24  13  25  13  26  14
M  ISO  5  27  14  28  14  29  14  30  14  31  11
M  END
>  <minimizedAffinity>  (1) 
-5.22730207

>  <minimizedRMSD>  (1) 
0.0114055797

$$$$
