
     RDKit          3D

 36 38  0  0  1  0  0  0  0  0999 V2000
   37.5370   31.3780   48.6520 N   0  0  0  0  0  0  0  0  0  0  0  0
   38.3980   31.6500   49.7960 C   0  0  0  0  0  0  0  0  0  0  0  0
   38.7160   33.1050   49.5880 C   0  0  0  0  0  0  0  0  0  0  0  0
   39.0690   33.0780   48.1120 C   0  0  0  0  0  0  0  0  0  0  0  0
   37.8810   32.2920   47.5980 C   0  0  1  0  0  0  0  0  0  0  0  0
   36.4290   29.2840   49.4100 C   0  0  0  0  0  0  0  0  0  0  0  0
   36.5320   30.4000   48.5550 C   0  0  0  0  0  0  0  0  0  0  0  0
   35.5710   30.5530   47.5390 C   0  0  0  0  0  0  0  0  0  0  0  0
   34.5850   29.6210   47.4230 N   0  0  0  0  0  0  0  0  0  0  0  0
   34.5220   28.5530   48.2710 C   0  0  0  0  0  0  0  0  0  0  0  0
   35.4450   28.3890   49.2620 N   0  0  0  0  0  0  0  0  0  0  0  0
   38.2560   31.6600   46.3370 C   0  0  0  0  0  0  0  0  0  0  0  0
   38.9880   30.4820   46.1100 C   0  0  0  0  0  0  0  0  0  0  0  0
   39.2400   30.0710   44.8310 C   0  0  0  0  0  0  0  0  0  0  0  0
   38.7890   30.7920   43.8150 N   0  0  0  0  0  0  0  0  0  0  0  0
   38.0900   31.9160   43.9930 C   0  0  0  0  0  0  0  0  0  0  0  0
   37.8430   32.3190   45.2600 N   0  0  0  0  0  0  0  0  0  0  0  0
   37.6250   32.6580   42.7950 C   0  0  0  0  0  0  0  0  0  0  0  0
   38.8080   33.1680   41.9640 C   0  0  0  0  0  0  0  0  0  0  0  0
   37.8687   31.4856   50.7462 H   0  0  0  0  0  0  0  0  0  0  0  0
   39.2835   31.0002   49.8572 H   0  0  0  0  0  0  0  0  0  0  0  0
   37.8464   33.7477   49.7899 H   0  0  0  0  0  0  0  0  0  0  0  0
   39.4964   33.5118   50.2479 H   0  0  0  0  0  0  0  0  0  0  0  0
   39.1129   34.0887   47.6800 H   0  0  0  0  0  0  0  0  0  0  0  0
   40.0556   32.6564   47.8694 H   0  0  0  0  0  0  0  0  0  0  0  0
   36.9941   32.9003   47.3669 H   0  0  0  0  0  0  0  0  0  0  0  0
   37.1694   29.1465   50.2118 H   0  0  0  0  0  0  0  0  0  0  0  0
   35.6153   31.4100   46.8508 H   0  0  0  0  0  0  0  0  0  0  0  0
   33.7155   27.8142   48.1535 H   0  0  0  0  0  0  0  0  0  0  0  0
   39.3579   29.8912   46.9610 H   0  0  0  0  0  0  0  0  0  0  0  0
   39.8122   29.1498   44.6468 H   0  0  0  0  0  0  0  0  0  0  0  0
   37.0125   31.9881   42.1736 H   0  0  0  0  0  0  0  0  0  0  0  0
   37.0355   33.5244   43.1294 H   0  0  0  0  0  0  0  0  0  0  0  0
   39.6072   33.5125   42.6367 H   0  0  0  0  0  0  0  0  0  0  0  0
   39.1884   32.3539   41.3295 H   0  0  0  0  0  0  0  0  0  0  0  0
   38.4773   34.0035   41.3295 H   0  0  0  0  0  0  0  0  0  0  0  0
  1  2  1  0
  3  2  1  0
  4  3  1  0
  5  4  1  0
  5  1  1  0
  7  1  1  0
  7  6  2  0
  8  7  1  0
  9  8  2  0
  9 10  1  0
 10 11  2  0
 11  6  1  0
 12  5  1  0
 13 12  2  0
 14 13  1  0
 15 16  1  0
 15 14  2  0
 16 17  2  0
 17 12  1  0
 18 16  1  0
 19 18  1  0
  2 20  1  0
  2 21  1  0
  3 22  1  0
  3 23  1  0
  4 24  1  0
  4 25  1  0
  5 26  1  6
  6 27  1  0
  8 28  1  0
 10 29  1  0
 13 30  1  0
 14 31  1  0
 18 32  1  0
 18 33  1  0
 19 34  1  0
 19 35  1  0
 19 36  1  0
M  ISO  8  20  13  21  13  22  13  23  13  24  13  25  13  26  13  27  14
M  ISO  8  28  14  29  14  30  14  31  14  32   8  33   8  34   8  35   8
M  ISO  1  36   8
M  END
>  <minimizedAffinity>  (1) 
-5.19644356

>  <minimizedRMSD>  (1) 
0.255473763

$$$$
