
     RDKit          3D

 32 34  0  0  1  0  0  0  0  0999 V2000
   37.5420   31.3640   48.6530 N   0  0  0  0  0  0  0  0  0  0  0  0
   38.4200   31.6440   49.7840 C   0  0  0  0  0  0  0  0  0  0  0  0
   38.7440   33.0890   49.5680 C   0  0  0  0  0  0  0  0  0  0  0  0
   39.0480   33.0760   48.0850 C   0  0  0  0  0  0  0  0  0  0  0  0
   37.8710   32.2740   47.5890 C   0  0  1  0  0  0  0  0  0  0  0  0
   36.4490   29.2730   49.4370 C   0  0  0  0  0  0  0  0  0  0  0  0
   36.5390   30.3820   48.5820 C   0  0  0  0  0  0  0  0  0  0  0  0
   35.5620   30.5370   47.5750 C   0  0  0  0  0  0  0  0  0  0  0  0
   34.5720   29.6060   47.4730 N   0  0  0  0  0  0  0  0  0  0  0  0
   34.5200   28.5420   48.3240 C   0  0  0  0  0  0  0  0  0  0  0  0
   35.4560   28.3770   49.3030 N   0  0  0  0  0  0  0  0  0  0  0  0
   38.2320   31.6340   46.3280 C   0  0  0  0  0  0  0  0  0  0  0  0
   39.0400   30.5090   46.0950 C   0  0  0  0  0  0  0  0  0  0  0  0
   39.2670   30.0720   44.8210 C   0  0  0  0  0  0  0  0  0  0  0  0
   38.7040   30.7360   43.8060 N   0  0  0  0  0  0  0  0  0  0  0  0
   37.9260   31.8130   43.9890 C   0  0  0  0  0  0  0  0  0  0  0  0
   37.7160   32.2290   45.2570 N   0  0  0  0  0  0  0  0  0  0  0  0
   37.3250   32.5150   42.8370 C   0  0  0  0  0  0  0  0  0  0  0  0
   36.1240   32.8400   42.9910 O   0  0  0  0  0  0  0  0  0  0  0  0
   37.9018   31.4883   50.7417 H   0  0  0  0  0  0  0  0  0  0  0  0
   39.3041   30.9914   49.8345 H   0  0  0  0  0  0  0  0  0  0  0  0
   37.8876   33.7382   49.8027 H   0  0  0  0  0  0  0  0  0  0  0  0
   39.5535   33.4803   50.2017 H   0  0  0  0  0  0  0  0  0  0  0  0
   39.0595   34.0909   47.6608 H   0  0  0  0  0  0  0  0  0  0  0  0
   40.0343   32.6702   47.8157 H   0  0  0  0  0  0  0  0  0  0  0  0
   36.9792   32.8761   47.3606 H   0  0  0  0  0  0  0  0  0  0  0  0
   37.2013   29.1350   50.2276 H   0  0  0  0  0  0  0  0  0  0  0  0
   35.5991   31.3933   46.8855 H   0  0  0  0  0  0  0  0  0  0  0  0
   33.7104   27.8047   48.2196 H   0  0  0  0  0  0  0  0  0  0  0  0
   39.4930   29.9763   46.9442 H   0  0  0  0  0  0  0  0  0  0  0  0
   39.8999   29.1920   44.6338 H   0  0  0  0  0  0  0  0  0  0  0  0
   37.8864   32.7352   41.9171 H   0  0  0  0  0  0  0  0  0  0  0  0
  1  2  1  0
  3  2  1  0
  4  3  1  0
  5  4  1  0
  5  1  1  0
  7  1  1  0
  7  6  2  0
  8  7  1  0
  9  8  2  0
  9 10  1  0
 10 11  2  0
 11  6  1  0
 12  5  1  0
 13 12  2  0
 14 13  1  0
 15 16  1  0
 15 14  2  0
 16 17  2  0
 17 12  1  0
 18 19  2  0
 18 16  1  0
  2 20  1  0
  2 21  1  0
  3 22  1  0
  3 23  1  0
  4 24  1  0
  4 25  1  0
  5 26  1  6
  6 27  1  0
  8 28  1  0
 10 29  1  0
 13 30  1  0
 14 31  1  0
 18 32  1  0
M  ISO  8  20  13  21  13  22  13  23  13  24  13  25  13  26  13  27  14
M  ISO  5  28  14  29  14  30  14  31  14  32   6
M  END
>  <minimizedAffinity>  (1) 
-5.16743565

>  <minimizedRMSD>  (1) 
0.142777592

$$$$
