
     RDKit          3D

 21 23  0  0  0  0  0  0  0  0999 V2000
   37.8870   31.7770   48.9930 N   0  0  0  0  0  0  0  0  0  0  0  0
   38.3450   32.9750   49.3950 C   0  0  0  0  0  0  0  0  0  0  0  0
   39.1330   33.5450   48.4760 N   0  0  0  0  0  0  0  0  0  0  0  0
   39.1950   32.6950   47.4370 C   0  0  0  0  0  0  0  0  0  0  0  0
   39.8170   32.6860   46.2130 C   0  0  0  0  0  0  0  0  0  0  0  0
   39.7250   31.6900   45.3170 N   0  0  0  0  0  0  0  0  0  0  0  0
   38.9520   30.6390   45.6870 C   0  0  0  0  0  0  0  0  0  0  0  0
   38.3390   30.6310   46.8730 N   0  0  0  0  0  0  0  0  0  0  0  0
   38.4070   31.5950   47.7840 C   0  0  0  0  0  0  0  0  0  0  0  0
   35.7320   30.6970   49.2860 C   0  0  0  0  0  0  0  0  0  0  0  0
   37.0430   30.9310   49.7210 C   0  0  0  0  0  0  0  0  0  0  0  0
   37.4770   30.3030   50.8850 C   0  0  0  0  0  0  0  0  0  0  0  0
   36.5770   29.4890   51.5350 N   0  0  0  0  0  0  0  0  0  0  0  0
   35.3250   29.2890   51.0880 C   0  0  0  0  0  0  0  0  0  0  0  0
   34.9030   29.8890   49.9700 N   0  0  0  0  0  0  0  0  0  0  0  0
   38.1009   33.4328   50.3650 H   0  0  0  0  0  0  0  0  0  0  0  0
   40.4346   33.5566   45.9474 H   0  0  0  0  0  0  0  0  0  0  0  0
   38.8290   29.7856   45.0040 H   0  0  0  0  0  0  0  0  0  0  0  0
   35.3738   31.1838   48.3669 H   0  0  0  0  0  0  0  0  0  0  0  0
   38.4969   30.4510   51.2695 H   0  0  0  0  0  0  0  0  0  0  0  0
   34.6442   28.6284   51.6448 H   0  0  0  0  0  0  0  0  0  0  0  0
  1  2  1  0
  1 11  1  0
  3  2  2  0
  4  9  2  0
  4  3  1  0
  5  4  1  0
  6  7  1  0
  6  5  2  0
  7  8  2  0
  8  9  1  0
  9  1  1  0
 10 11  2  0
 10 15  1  0
 11 12  1  0
 12 13  2  0
 14 13  1  0
 15 14  2  0
  2 16  1  0
  5 17  1  0
  7 18  1  0
 10 19  1  0
 12 20  1  0
 14 21  1  0
M  ISO  6  16  14  17  14  18  14  19  14  20  14  21  14
M  END
>  <minimizedAffinity>  (1) 
-5.07087564

>  <minimizedRMSD>  (1) 
3.19033384

$$$$
