
     RDKit          3D

 28 30  0  0  0  0  0  0  0  0999 V2000
   34.7030   30.3170   47.6430 C   0  0  0  0  0  0  0  0  0  0  0  0
   35.8210   30.1480   48.4640 C   0  0  0  0  0  0  0  0  0  0  0  0
   35.8630   29.0430   49.3050 C   0  0  0  0  0  0  0  0  0  0  0  0
   34.7930   28.1830   49.2740 N   0  0  0  0  0  0  0  0  0  0  0  0
   33.7290   28.3670   48.4760 C   0  0  0  0  0  0  0  0  0  0  0  0
   33.6980   29.4230   47.6770 N   0  0  0  0  0  0  0  0  0  0  0  0
   32.6950   27.3930   48.5460 N   0  0  0  0  0  0  0  0  0  0  0  0
   32.5550   26.4450   47.4960 C   0  0  0  0  0  0  0  0  0  0  0  0
   32.7450   26.7870   46.2710 N   0  0  0  0  0  0  0  0  0  0  0  0
   32.1980   25.0880   47.7710 N   0  0  0  0  0  0  0  0  0  0  0  0
   33.0010   27.7110   45.9100 H   0  0  0  0  0  0  0  0  0  0  0  0
   36.8670   31.0770   48.4300 N   0  0  0  0  0  0  0  0  0  0  0  0
   37.1410   31.9830   49.3970 C   0  0  0  0  0  0  0  0  0  0  0  0
   38.2110   32.7300   49.0630 N   0  0  0  0  0  0  0  0  0  0  0  0
   38.6370   32.3080   47.8710 C   0  0  0  0  0  0  0  0  0  0  0  0
   39.6510   32.6560   47.0240 C   0  0  0  0  0  0  0  0  0  0  0  0
   39.8880   32.0620   45.8320 N   0  0  0  0  0  0  0  0  0  0  0  0
   39.0330   31.0580   45.5000 C   0  0  0  0  0  0  0  0  0  0  0  0
   38.0420   30.7130   46.3200 N   0  0  0  0  0  0  0  0  0  0  0  0
   37.7810   31.2690   47.4890 C   0  0  0  0  0  0  0  0  0  0  0  0
   34.6444   31.1830   46.9673 H   0  0  0  0  0  0  0  0  0  0  0  0
   36.7206   28.8639   49.9702 H   0  0  0  0  0  0  0  0  0  0  0  0
   32.0527   27.3746   49.3510 H   0  0  0  0  0  0  0  0  0  0  0  0
   32.1009   24.4143   46.9980 H   0  0  0  0  0  0  0  0  0  0  0  0
   32.0380   24.7842   48.7421 H   0  0  0  0  0  0  0  0  0  0  0  0
   36.5678   32.0944   50.3292 H   0  0  0  0  0  0  0  0  0  0  0  0
   40.3192   33.4737   47.3319 H   0  0  0  0  0  0  0  0  0  0  0  0
   39.1611   30.5261   44.5457 H   0  0  0  0  0  0  0  0  0  0  0  0
  1  6  2  0
  1  2  1  0
  2  3  2  0
  4  3  1  0
  5  7  1  0
  5  4  2  0
  6  5  1  0
  8 10  1  0
  8  7  1  0
  9  8  2  0
 11  9  1  0
 12  2  1  0
 12 13  1  0
 14 13  2  0
 15 14  1  0
 16 15  2  0
 17 16  1  0
 18 17  2  0
 18 19  1  0
 19 20  2  0
 20 15  1  0
 20 12  1  0
  1 21  1  0
  3 22  1  0
  7 23  1  0
 10 24  1  0
 10 25  1  0
 13 26  1  0
 16 27  1  0
 18 28  1  0
M  ISO  5  21  14  22  14  26  14  27  14  28  14
M  END
>  <minimizedAffinity>  (1) 
-5.22161627

>  <minimizedRMSD>  (1) 
2.57905126

$$$$
