
     RDKit          3D

 27 29  0  0  0  0  0  0  0  0999 V2000
   38.3810   31.5170   47.3750 N   0  0  0  0  0  0  0  0  0  0  0  0
   38.8580   32.6660   47.9080 C   0  0  0  0  0  0  0  0  0  0  0  0
   39.7790   33.2320   47.1090 N   0  0  0  0  0  0  0  0  0  0  0  0
   39.9090   32.4350   46.0310 C   0  0  0  0  0  0  0  0  0  0  0  0
   40.6620   32.4510   44.8860 C   0  0  0  0  0  0  0  0  0  0  0  0
   40.6100   31.5070   43.9250 N   0  0  0  0  0  0  0  0  0  0  0  0
   39.7440   30.5010   44.1530 C   0  0  0  0  0  0  0  0  0  0  0  0
   38.9990   30.4600   45.2570 N   0  0  0  0  0  0  0  0  0  0  0  0
   39.0190   31.3690   46.2280 C   0  0  0  0  0  0  0  0  0  0  0  0
   36.1740   30.5220   47.3250 C   0  0  0  0  0  0  0  0  0  0  0  0
   37.4190   30.7000   47.9530 C   0  0  0  0  0  0  0  0  0  0  0  0
   37.6410   30.0400   49.1460 C   0  0  0  0  0  0  0  0  0  0  0  0
   36.6270   29.2490   49.6490 N   0  0  0  0  0  0  0  0  0  0  0  0
   35.4430   29.1090   49.0060 C   0  0  0  0  0  0  0  0  0  0  0  0
   35.2160   29.7370   47.8580 N   0  0  0  0  0  0  0  0  0  0  0  0
   34.3880   28.2400   49.6000 C   0  0  0  0  0  0  0  0  0  0  0  0
   33.4200   27.7470   48.5580 C   0  0  0  0  0  0  0  0  0  0  0  0
   38.5333   33.0836   48.8725 H   0  0  0  0  0  0  0  0  0  0  0  0
   41.3564   33.2917   44.7412 H   0  0  0  0  0  0  0  0  0  0  0  0
   39.6496   29.6947   43.4108 H   0  0  0  0  0  0  0  0  0  0  0  0
   35.9760   31.0369   46.3733 H   0  0  0  0  0  0  0  0  0  0  0  0
   38.5975   30.1415   49.6797 H   0  0  0  0  0  0  0  0  0  0  0  0
   34.8678   27.3737   50.0789 H   0  0  0  0  0  0  0  0  0  0  0  0
   33.8266   28.8361   50.3345 H   0  0  0  0  0  0  0  0  0  0  0  0
   32.5445   27.3011   49.0526 H   0  0  0  0  0  0  0  0  0  0  0  0
   33.0965   28.5901   47.9300 H   0  0  0  0  0  0  0  0  0  0  0  0
   33.9117   26.9895   47.9300 H   0  0  0  0  0  0  0  0  0  0  0  0
  1  2  1  0
  1 11  1  0
  3  2  2  0
  4  9  2  0
  4  3  1  0
  5  4  1  0
  6  7  1  0
  6  5  2  0
  7  8  2  0
  8  9  1  0
  9  1  1  0
 10 15  2  0
 10 11  1  0
 11 12  2  0
 12 13  1  0
 14 16  1  0
 14 13  2  0
 15 14  1  0
 17 16  1  0
  2 18  1  0
  5 19  1  0
  7 20  1  0
 10 21  1  0
 12 22  1  0
 16 23  1  0
 16 24  1  0
 17 25  1  0
 17 26  1  0
 17 27  1  0
M  ISO  8  18  14  19  14  20  14  21  14  22  14  23   8  24   8  25   8
M  ISO  2  26   8  27   8
M  END
>  <minimizedAffinity>  (1) 
-5.21532249

>  <minimizedRMSD>  (1) 
1.85338712

$$$$
