
     RDKit          3D

 23 25  0  0  0  0  0  0  0  0999 V2000
   38.7030   32.1590   47.9750 N   0  0  0  0  0  0  0  0  0  0  0  0
   39.1810   33.3810   48.2200 C   0  0  0  0  0  0  0  0  0  0  0  0
   39.9580   33.8200   47.2250 N   0  0  0  0  0  0  0  0  0  0  0  0
   39.9930   32.8590   46.2990 C   0  0  0  0  0  0  0  0  0  0  0  0
   40.5920   32.6880   45.0720 C   0  0  0  0  0  0  0  0  0  0  0  0
   40.4650   31.5850   44.3070 N   0  0  0  0  0  0  0  0  0  0  0  0
   39.6910   30.6070   44.8140 C   0  0  0  0  0  0  0  0  0  0  0  0
   39.1010   30.7550   46.0000 N   0  0  0  0  0  0  0  0  0  0  0  0
   39.1930   31.8120   46.7870 C   0  0  0  0  0  0  0  0  0  0  0  0
   36.6100   30.9900   48.3630 C   0  0  0  0  0  0  0  0  0  0  0  0
   37.8580   31.4100   48.8130 C   0  0  0  0  0  0  0  0  0  0  0  0
   38.2550   31.0740   50.1140 C   0  0  0  0  0  0  0  0  0  0  0  0
   37.3710   30.3390   50.8690 N   0  0  0  0  0  0  0  0  0  0  0  0
   36.1760   29.9520   50.4000 C   0  0  0  0  0  0  0  0  0  0  0  0
   35.7980   30.2710   49.1660 N   0  0  0  0  0  0  0  0  0  0  0  0
   35.3750   29.1950   51.3110 N   0  0  0  0  0  0  0  0  0  0  0  0
   38.9619   33.9573   49.1310 H   0  0  0  0  0  0  0  0  0  0  0  0
   41.2176   33.5077   44.6889 H   0  0  0  0  0  0  0  0  0  0  0  0
   39.5442   29.6775   44.2444 H   0  0  0  0  0  0  0  0  0  0  0  0
   36.2827   31.2461   47.3445 H   0  0  0  0  0  0  0  0  0  0  0  0
   39.2314   31.3846   50.5142 H   0  0  0  0  0  0  0  0  0  0  0  0
   34.4438   28.8617   51.0236 H   0  0  0  0  0  0  0  0  0  0  0  0
   35.7293   28.9830   52.2546 H   0  0  0  0  0  0  0  0  0  0  0  0
  1  2  1  0
  1 11  1  0
  3  2  2  0
  4  9  2  0
  4  3  1  0
  5  4  1  0
  6  7  1  0
  6  5  2  0
  7  8  2  0
  8  9  1  0
  9  1  1  0
 10 11  2  0
 10 15  1  0
 11 12  1  0
 12 13  2  0
 14 13  1  0
 14 16  1  0
 15 14  2  0
  2 17  1  0
  5 18  1  0
  7 19  1  0
 10 20  1  0
 12 21  1  0
 16 22  1  0
 16 23  1  0
M  ISO  5  17  14  18  14  19  14  20  14  21  14
M  END
>  <minimizedAffinity>  (1) 
-5.12183762

>  <minimizedRMSD>  (1) 
1.32463229

$$$$
