
     RDKit          3D

 28 31  0  0  0  0  0  0  0  0999 V2000
   38.0960   31.4600   47.4930 N   0  0  0  0  0  0  0  0  0  0  0  0
   38.5010   32.5710   48.1520 C   0  0  0  0  0  0  0  0  0  0  0  0
   39.4880   33.2060   47.5140 N   0  0  0  0  0  0  0  0  0  0  0  0
   39.7430   32.4910   46.3950 C   0  0  0  0  0  0  0  0  0  0  0  0
   40.6140   32.6090   45.3520 C   0  0  0  0  0  0  0  0  0  0  0  0
   40.6810   31.7400   44.3190 N   0  0  0  0  0  0  0  0  0  0  0  0
   39.8110   30.7010   44.3640 C   0  0  0  0  0  0  0  0  0  0  0  0
   38.9570   30.5820   45.3850 N   0  0  0  0  0  0  0  0  0  0  0  0
   38.8590   31.4080   46.4090 C   0  0  0  0  0  0  0  0  0  0  0  0
   35.9200   30.4560   47.1610 C   0  0  0  0  0  0  0  0  0  0  0  0
   37.0880   30.5880   47.9040 C   0  0  0  0  0  0  0  0  0  0  0  0
   37.2160   29.8290   49.0570 C   0  0  0  0  0  0  0  0  0  0  0  0
   36.1690   28.9970   49.3820 N   0  0  0  0  0  0  0  0  0  0  0  0
   35.0620   28.8950   48.6450 C   0  0  0  0  0  0  0  0  0  0  0  0
   34.9340   29.6220   47.5360 N   0  0  0  0  0  0  0  0  0  0  0  0
   33.9860   27.9580   49.0930 C   0  0  0  0  0  0  0  0  0  0  0  0
   33.6820   26.8460   48.0440 C   0  0  0  0  0  0  0  0  0  0  0  0
   32.6950   27.8960   48.3660 C   0  0  0  0  0  0  0  0  0  0  0  0
   38.0671   32.9118   49.1036 H   0  0  0  0  0  0  0  0  0  0  0  0
   41.3050   33.4648   45.3516 H   0  0  0  0  0  0  0  0  0  0  0  0
   39.8081   29.9533   43.5572 H   0  0  0  0  0  0  0  0  0  0  0  0
   35.7995   31.0493   46.2426 H   0  0  0  0  0  0  0  0  0  0  0  0
   38.1166   29.8892   49.6857 H   0  0  0  0  0  0  0  0  0  0  0  0
   34.2384   28.0518   50.1595 H   0  0  0  0  0  0  0  0  0  0  0  0
   33.5137   25.8086   48.3688 H   0  0  0  0  0  0  0  0  0  0  0  0
   34.1654   26.4744   47.1284 H   0  0  0  0  0  0  0  0  0  0  0  0
   32.4607   28.6651   47.6153 H   0  0  0  0  0  0  0  0  0  0  0  0
   31.6444   27.8723   48.6911 H   0  0  0  0  0  0  0  0  0  0  0  0
  1 11  1  0
  1  2  1  0
  3  2  2  0
  4  9  2  0
  4  3  1  0
  5  4  1  0
  6  7  1  0
  6  5  2  0
  7  8  2  0
  8  9  1  0
  9  1  1  0
 10 15  2  0
 10 11  1  0
 11 12  2  0
 12 13  1  0
 14 16  1  0
 14 13  2  0
 15 14  1  0
 17 18  1  0
 17 16  1  0
 18 16  1  0
  2 19  1  0
  5 20  1  0
  7 21  1  0
 10 22  1  0
 12 23  1  0
 16 24  1  0
 17 25  1  0
 17 26  1  0
 18 27  1  0
 18 28  1  0
M  ISO  8  19  14  20  14  21  14  22  14  23  14  24  13  25  13  26  13
M  ISO  2  27  13  28  13
M  END
>  <minimizedAffinity>  (1) 
-5.43392038

>  <minimizedRMSD>  (1) 
2.32202959

$$$$
