
     RDKit          3D

 23 25  0  0  0  0  0  0  0  0999 V2000
   37.9500   33.0390   49.3540 C   0  0  0  0  0  0  0  0  0  0  0  0
   38.9010   32.8640   48.3390 C   0  0  0  0  0  0  0  0  0  0  0  0
   38.8110   31.7040   47.5520 C   0  0  0  0  0  0  0  0  0  0  0  0
   37.8120   30.8280   47.8200 N   0  0  0  0  0  0  0  0  0  0  0  0
   36.9060   31.0180   48.8030 C   0  0  0  0  0  0  0  0  0  0  0  0
   36.9780   32.1220   49.5660 N   0  0  0  0  0  0  0  0  0  0  0  0
   35.9440   29.9720   48.9100 N   0  0  0  0  0  0  0  0  0  0  0  0
   35.9910   28.9800   49.8460 C   0  0  0  0  0  0  0  0  0  0  0  0
   34.9160   28.1600   49.6500 N   0  0  0  0  0  0  0  0  0  0  0  0
   34.2210   28.6380   48.6120 C   0  0  0  0  0  0  0  0  0  0  0  0
   33.0750   28.2980   47.9220 C   0  0  0  0  0  0  0  0  0  0  0  0
   32.5870   28.9870   46.8750 N   0  0  0  0  0  0  0  0  0  0  0  0
   33.2320   30.0960   46.4370 C   0  0  0  0  0  0  0  0  0  0  0  0
   34.3410   30.4410   47.0900 N   0  0  0  0  0  0  0  0  0  0  0  0
   34.8500   29.7700   48.1390 C   0  0  0  0  0  0  0  0  0  0  0  0
   32.3510   27.1460   48.3310 N   0  0  0  0  0  0  0  0  0  0  0  0
   37.9948   33.9365   49.9884 H   0  0  0  0  0  0  0  0  0  0  0  0
   39.6907   33.6096   48.1648 H   0  0  0  0  0  0  0  0  0  0  0  0
   39.5301   31.5122   46.7420 H   0  0  0  0  0  0  0  0  0  0  0  0
   36.7605   28.8613   50.6230 H   0  0  0  0  0  0  0  0  0  0  0  0
   32.8582   30.6822   45.5845 H   0  0  0  0  0  0  0  0  0  0  0  0
   31.4929   26.8727   47.8312 H   0  0  0  0  0  0  0  0  0  0  0  0
   32.6843   26.5841   49.1273 H   0  0  0  0  0  0  0  0  0  0  0  0
  1  6  2  0
  2  1  1  0
  3  4  1  0
  3  2  2  0
  4  5  2  0
  5  7  1  0
  5  6  1  0
  7  8  1  0
  9  8  2  0
 10  9  1  0
 11 16  1  0
 11 10  2  0
 12 11  1  0
 13 12  2  0
 13 14  1  0
 14 15  2  0
 15 10  1  0
 15  7  1  0
  1 17  1  0
  2 18  1  0
  3 19  1  0
  8 20  1  0
 13 21  1  0
 16 22  1  0
 16 23  1  0
M  ISO  5  17  14  18  14  19  14  20  14  21  14
M  END
>  <minimizedAffinity>  (1) 
-5.17890501

>  <minimizedRMSD>  (1) 
2.3205564

$$$$
