
     RDKit          3D

 30 32  0  0  0  0  0  0  0  0999 V2000
   35.6920   30.0100   48.6980 C   0  0  0  0  0  0  0  0  0  0  0  0
   35.8250   28.8890   49.5250 C   0  0  0  0  0  0  0  0  0  0  0  0
   34.7060   28.1030   49.3810 C   0  0  0  0  0  0  0  0  0  0  0  0
   33.9240   28.7310   48.4930 N   0  0  0  0  0  0  0  0  0  0  0  0
   34.4990   29.8360   48.0990 N   0  0  0  0  0  0  0  0  0  0  0  0
   37.9360   32.8600   49.4210 C   0  0  0  0  0  0  0  0  0  0  0  0
   38.7570   32.8300   48.2950 C   0  0  0  0  0  0  0  0  0  0  0  0
   38.5300   31.8540   47.3320 C   0  0  0  0  0  0  0  0  0  0  0  0
   37.5120   30.9760   47.5430 N   0  0  0  0  0  0  0  0  0  0  0  0
   36.7310   31.0260   48.6410 C   0  0  0  0  0  0  0  0  0  0  0  0
   36.9280   31.9600   49.5890 N   0  0  0  0  0  0  0  0  0  0  0  0
   30.1090   27.7660   47.0480 C   0  0  0  0  0  0  0  0  0  0  0  0
   30.9530   28.4860   46.2490 C   0  0  0  0  0  0  0  0  0  0  0  0
   32.2250   28.8370   46.6660 C   0  0  0  0  0  0  0  0  0  0  0  0
   32.6510   28.4510   47.9190 C   0  0  0  0  0  0  0  0  0  0  0  0
   31.7750   27.7210   48.7090 C   0  0  0  0  0  0  0  0  0  0  0  0
   30.5070   27.3610   48.3150 C   0  0  0  0  0  0  0  0  0  0  0  0
   28.4960   27.3120   46.5390 S   0  0  0  0  0  0  0  0  0  0  0  0
   28.3010   25.8490   46.7280 O   0  0  0  0  0  0  0  0  0  0  0  0
   27.5210   28.1110   47.3580 O   0  0  0  0  0  0  0  0  0  0  0  0
   36.6814   28.6728   50.1806 H   0  0  0  0  0  0  0  0  0  0  0  0
   34.4956   27.1516   49.8914 H   0  0  0  0  0  0  0  0  0  0  0  0
   38.1060   33.6273   50.1906 H   0  0  0  0  0  0  0  0  0  0  0  0
   39.5675   33.5633   48.1712 H   0  0  0  0  0  0  0  0  0  0  0  0
   39.1535   31.7932   46.4278 H   0  0  0  0  0  0  0  0  0  0  0  0
   30.6124   28.7941   45.2495 H   0  0  0  0  0  0  0  0  0  0  0  0
   32.8875   29.4165   46.0063 H   0  0  0  0  0  0  0  0  0  0  0  0
   32.1140   27.4120   49.7088 H   0  0  0  0  0  0  0  0  0  0  0  0
   29.8414   26.7810   48.9713 H   0  0  0  0  0  0  0  0  0  0  0  0
   28.3006   27.5779   45.2093 H   0  0  0  0  0  0  0  0  0  0  0  0
  1  2  1  0
  3  2  2  0
  4  3  1  0
  5  4  1  0
  5  1  2  0
  6 11  2  0
  7  6  1  0
  8  9  1  0
  8  7  2  0
  9 10  2  0
 10  1  1  0
 10 11  1  0
 12 17  2  0
 13 14  2  0
 13 12  1  0
 14 15  1  0
 15  4  1  0
 15 16  2  0
 17 16  1  0
 18 19  2  0
 18 12  1  0
 18 20  2  0
  2 21  1  0
  3 22  1  0
  6 23  1  0
  7 24  1  0
  8 25  1  0
 13 26  1  0
 14 27  1  0
 16 28  1  0
 17 29  1  0
 18 30  1  0
M  ISO  8  21  14  22  14  23  14  24  14  25  14  26  14  27  14  28  14
M  ISO  2  29  14  30  11
M  END
>  <minimizedAffinity>  (1) 
-5.23268032

>  <minimizedRMSD>  (1) 
1.09368217

$$$$
