
     RDKit          3D

 36 40  0  0  1  0  0  0  0  0999 V2000
   35.7730   30.4470   47.0020 C   0  0  0  0  0  0  0  0  0  0  0  0
   36.9050   30.5350   47.7880 C   0  0  0  0  0  0  0  0  0  0  0  0
   36.9680   29.7740   48.9550 C   0  0  0  0  0  0  0  0  0  0  0  0
   35.8790   28.9820   49.2380 N   0  0  0  0  0  0  0  0  0  0  0  0
   34.8090   28.9180   48.4650 C   0  0  0  0  0  0  0  0  0  0  0  0
   34.7520   29.6450   47.3520 N   0  0  0  0  0  0  0  0  0  0  0  0
   37.9650   31.3690   47.4260 N   0  0  0  0  0  0  0  0  0  0  0  0
   38.3940   32.4630   48.1160 C   0  0  0  0  0  0  0  0  0  0  0  0
   39.4250   33.0550   47.5240 N   0  0  0  0  0  0  0  0  0  0  0  0
   39.6950   32.3360   46.3980 C   0  0  0  0  0  0  0  0  0  0  0  0
   40.6080   32.4340   45.4040 C   0  0  0  0  0  0  0  0  0  0  0  0
   40.6800   31.5790   44.3720 N   0  0  0  0  0  0  0  0  0  0  0  0
   39.7610   30.5690   44.3660 C   0  0  0  0  0  0  0  0  0  0  0  0
   38.8640   30.4810   45.3550 N   0  0  0  0  0  0  0  0  0  0  0  0
   38.7680   31.3020   46.3770 C   0  0  0  0  0  0  0  0  0  0  0  0
   33.6650   28.0370   48.8700 C   0  0  2  0  0  0  0  0  0  0  0  0
   33.5620   26.7560   47.9740 C   0  0  0  0  0  0  0  0  0  0  0  0
   32.5390   27.8050   47.9500 C   0  0  1  0  0  0  0  0  0  0  0  0
   31.1600   27.6020   48.4180 C   0  0  0  0  0  0  0  0  0  0  0  0
   30.1830   27.1120   47.5500 C   0  0  0  0  0  0  0  0  0  0  0  0
   28.8820   26.9010   47.9230 C   0  0  0  0  0  0  0  0  0  0  0  0
   28.5320   27.1860   49.2090 N   0  0  0  0  0  0  0  0  0  0  0  0
   29.4820   27.6630   50.0600 C   0  0  0  0  0  0  0  0  0  0  0  0
   30.7760   27.8730   49.6850 N   0  0  0  0  0  0  0  0  0  0  0  0
   35.7057   31.0403   46.0782 H   0  0  0  0  0  0  0  0  0  0  0  0
   37.8458   29.8054   49.6172 H   0  0  0  0  0  0  0  0  0  0  0  0
   37.9394   32.8147   49.0539 H   0  0  0  0  0  0  0  0  0  0  0  0
   41.3320   33.2611   45.4441 H   0  0  0  0  0  0  0  0  0  0  0  0
   39.7581   29.8303   43.5510 H   0  0  0  0  0  0  0  0  0  0  0  0
   33.7140   28.3179   49.9324 H   0  0  0  0  0  0  0  0  0  0  0  0
   34.2394   26.6210   47.1179 H   0  0  0  0  0  0  0  0  0  0  0  0
   33.5747   25.6695   48.1455 H   0  0  0  0  0  0  0  0  0  0  0  0
   32.0937   28.3958   47.1360 H   0  0  0  0  0  0  0  0  0  0  0  0
   30.4725   26.8836   46.5136 H   0  0  0  0  0  0  0  0  0  0  0  0
   28.1425   26.5135   47.2067 H   0  0  0  0  0  0  0  0  0  0  0  0
   29.1924   27.8891   51.0968 H   0  0  0  0  0  0  0  0  0  0  0  0
  1  6  2  0
  1  2  1  0
  2  3  2  0
  3  4  1  0
  5 16  1  0
  5  4  2  0
  6  5  1  0
  7  2  1  0
  7  8  1  0
  9  8  2  0
 10  9  1  0
 11 10  2  0
 12 11  1  0
 13 12  2  0
 13 14  1  0
 14 15  2  0
 15 10  1  0
 15  7  1  0
 17 16  1  0
 18 17  1  0
 18 19  1  0
 18 16  1  0
 19 24  2  0
 20 21  2  0
 20 19  1  0
 21 22  1  0
 22 23  2  0
 24 23  1  0
  1 25  1  0
  3 26  1  0
  8 27  1  0
 11 28  1  0
 13 29  1  0
 16 30  1  1
 17 31  1  0
 17 32  1  0
 18 33  1  6
 20 34  1  0
 21 35  1  0
 23 36  1  0
M  ISO  8  25  14  26  14  27  14  28  14  29  14  30  13  31  13  32  13
M  ISO  4  33  13  34  14  35  14  36  14
M  END
>  <minimizedAffinity>  (1) 
-6.42484617

>  <minimizedRMSD>  (1) 
0.570694149

$$$$
