
     RDKit          3D

 43 47  0  0  1  0  0  0  0  0999 V2000
   35.3470   30.4030   47.3120 C   0  0  0  0  0  0  0  0  0  0  0  0
   36.4970   30.3800   48.0830 C   0  0  0  0  0  0  0  0  0  0  0  0
   36.5680   29.4740   49.1410 C   0  0  0  0  0  0  0  0  0  0  0  0
   35.4760   28.6670   49.3370 N   0  0  0  0  0  0  0  0  0  0  0  0
   34.3860   28.7140   48.5780 C   0  0  0  0  0  0  0  0  0  0  0  0
   34.3110   29.5840   47.5570 N   0  0  0  0  0  0  0  0  0  0  0  0
   37.5690   31.2420   47.8150 N   0  0  0  0  0  0  0  0  0  0  0  0
   37.9580   32.2890   48.5620 C   0  0  0  0  0  0  0  0  0  0  0  0
   39.0160   32.9190   48.0440 N   0  0  0  0  0  0  0  0  0  0  0  0
   39.3350   32.2600   46.9150 C   0  0  0  0  0  0  0  0  0  0  0  0
   40.2910   32.3920   45.9470 C   0  0  0  0  0  0  0  0  0  0  0  0
   40.4160   31.5890   44.8780 N   0  0  0  0  0  0  0  0  0  0  0  0
   39.5050   30.5760   44.7830 C   0  0  0  0  0  0  0  0  0  0  0  0
   38.5680   30.4390   45.7250 N   0  0  0  0  0  0  0  0  0  0  0  0
   38.4130   31.2100   46.7890 C   0  0  0  0  0  0  0  0  0  0  0  0
   33.2490   27.7750   48.8950 C   0  0  2  0  0  0  0  0  0  0  0  0
   33.0760   26.6770   47.7990 C   0  0  0  0  0  0  0  0  0  0  0  0
   32.0640   27.7460   48.0270 C   0  0  1  0  0  0  0  0  0  0  0  0
   30.7440   27.4770   48.4470 N   0  0  0  0  0  0  0  0  0  0  0  0
   29.7870   27.9700   47.4780 C   0  0  0  0  0  0  0  0  0  0  0  0
   28.4830   27.1800   47.5760 C   0  0  0  0  0  0  0  0  0  0  0  0
   27.9720   27.3870   48.9760 C   0  0  0  0  0  0  0  0  0  0  0  0
   28.8500   28.2600   49.8080 C   0  0  0  0  0  0  0  0  0  0  0  0
   30.3280   27.8900   49.7340 C   0  0  0  0  0  0  0  0  0  0  0  0
   35.2799   31.1128   46.4743 H   0  0  0  0  0  0  0  0  0  0  0  0
   37.4562   29.4096   49.7867 H   0  0  0  0  0  0  0  0  0  0  0  0
   37.4612   32.5931   49.4951 H   0  0  0  0  0  0  0  0  0  0  0  0
   41.0111   33.2169   46.0514 H   0  0  0  0  0  0  0  0  0  0  0  0
   39.5427   29.8764   43.9350 H   0  0  0  0  0  0  0  0  0  0  0  0
   33.3677   27.8480   49.9861 H   0  0  0  0  0  0  0  0  0  0  0  0
   32.8601   25.6364   48.0827 H   0  0  0  0  0  0  0  0  0  0  0  0
   33.6637   26.3120   46.9438 H   0  0  0  0  0  0  0  0  0  0  0  0
   31.5902   28.5108   47.3941 H   0  0  0  0  0  0  0  0  0  0  0  0
   30.2041   27.8588   46.4662 H   0  0  0  0  0  0  0  0  0  0  0  0
   29.5807   29.0306   47.6845 H   0  0  0  0  0  0  0  0  0  0  0  0
   27.7532   27.5562   46.8440 H   0  0  0  0  0  0  0  0  0  0  0  0
   28.6431   26.1132   47.3610 H   0  0  0  0  0  0  0  0  0  0  0  0
   26.9757   27.8497   48.9179 H   0  0  0  0  0  0  0  0  0  0  0  0
   27.9464   26.3995   49.4599 H   0  0  0  0  0  0  0  0  0  0  0  0
   28.7341   29.2983   49.4638 H   0  0  0  0  0  0  0  0  0  0  0  0
   28.5370   28.1278   50.8542 H   0  0  0  0  0  0  0  0  0  0  0  0
   30.5168   27.0686   50.4408 H   0  0  0  0  0  0  0  0  0  0  0  0
   30.9004   28.7957   49.9831 H   0  0  0  0  0  0  0  0  0  0  0  0
  1  6  2  0
  1  2  1  0
  2  3  2  0
  3  4  1  0
  5 16  1  0
  5  4  2  0
  6  5  1  0
  7  2  1  0
  7  8  1  0
  9  8  2  0
 10  9  1  0
 11 10  2  0
 12 11  1  0
 13 12  2  0
 13 14  1  0
 14 15  2  0
 15 10  1  0
 15  7  1  0
 17 18  1  0
 17 16  1  0
 18 19  1  0
 18 16  1  0
 19 24  1  0
 20 21  1  0
 20 19  1  0
 21 22  1  0
 22 23  1  0
 24 23  1  0
  1 25  1  0
  3 26  1  0
  8 27  1  0
 11 28  1  0
 13 29  1  0
 16 30  1  1
 17 31  1  0
 17 32  1  0
 18 33  1  6
 20 34  1  0
 20 35  1  0
 21 36  1  0
 21 37  1  0
 22 38  1  0
 22 39  1  0
 23 40  1  0
 23 41  1  0
 24 42  1  0
 24 43  1  0
M  ISO  8  25  14  26  14  27  14  28  14  29  14  30  13  31  13  32  13
M  ISO  8  33  13  34  13  35  13  36  13  37  13  38  13  39  13  40  13
M  ISO  3  41  13  42  13  43  13
M  END
>  <minimizedAffinity>  (1) 
-6.2809763

>  <minimizedRMSD>  (1) 
0.908331096

$$$$
