
     RDKit          3D

 34 38  0  0  1  0  0  0  0  0999 V2000
   35.2820   30.4310   47.2760 C   0  0  0  0  0  0  0  0  0  0  0  0
   36.4430   30.3510   48.0550 C   0  0  0  0  0  0  0  0  0  0  0  0
   36.4570   29.4500   49.0970 C   0  0  0  0  0  0  0  0  0  0  0  0
   35.3290   28.6830   49.3100 N   0  0  0  0  0  0  0  0  0  0  0  0
   34.2460   28.7830   48.5540 C   0  0  0  0  0  0  0  0  0  0  0  0
   34.2180   29.6560   47.5350 N   0  0  0  0  0  0  0  0  0  0  0  0
   37.5340   31.1560   47.7770 N   0  0  0  0  0  0  0  0  0  0  0  0
   37.9790   32.1930   48.5360 C   0  0  0  0  0  0  0  0  0  0  0  0
   39.0540   32.7790   48.0030 N   0  0  0  0  0  0  0  0  0  0  0  0
   39.3330   32.1110   46.8560 C   0  0  0  0  0  0  0  0  0  0  0  0
   40.2830   32.2260   45.8870 C   0  0  0  0  0  0  0  0  0  0  0  0
   40.3610   31.4260   44.8110 N   0  0  0  0  0  0  0  0  0  0  0  0
   39.4050   30.4530   44.7280 C   0  0  0  0  0  0  0  0  0  0  0  0
   38.4810   30.3470   45.6750 N   0  0  0  0  0  0  0  0  0  0  0  0
   38.3730   31.1130   46.7460 C   0  0  0  0  0  0  0  0  0  0  0  0
   33.0610   27.9200   48.8640 C   0  0  2  0  0  0  0  0  0  0  0  0
   32.9300   26.7140   47.8740 C   0  0  0  0  0  0  0  0  0  0  0  0
   31.9440   27.7950   47.9160 C   0  0  1  0  0  0  0  0  0  0  0  0
   30.5860   27.6190   48.4890 C   0  0  0  0  0  0  0  0  0  0  0  0
   29.5080   27.2000   47.6310 C   0  0  0  0  0  0  0  0  0  0  0  0
   28.1410   27.1420   48.7980 S   0  0  0  0  0  0  0  0  0  0  0  0
   29.2370   27.6920   50.2710 C   0  0  0  0  0  0  0  0  0  0  0  0
   30.4020   27.8470   49.7730 N   0  0  0  0  0  0  0  0  0  0  0  0
   35.2418   31.1416   46.4373 H   0  0  0  0  0  0  0  0  0  0  0  0
   37.3423   29.3446   49.7414 H   0  0  0  0  0  0  0  0  0  0  0  0
   37.5088   32.5115   49.4780 H   0  0  0  0  0  0  0  0  0  0  0  0
   41.0331   33.0237   45.9921 H   0  0  0  0  0  0  0  0  0  0  0  0
   39.4012   29.7573   43.8760 H   0  0  0  0  0  0  0  0  0  0  0  0
   33.0992   28.1233   49.9444 H   0  0  0  0  0  0  0  0  0  0  0  0
   32.6728   25.7125   48.2493 H   0  0  0  0  0  0  0  0  0  0  0  0
   33.5643   26.2533   47.1024 H   0  0  0  0  0  0  0  0  0  0  0  0
   31.5269   28.4162   47.1097 H   0  0  0  0  0  0  0  0  0  0  0  0
   29.5180   26.9762   46.5541 H   0  0  0  0  0  0  0  0  0  0  0  0
   28.9294   27.8414   51.3165 H   0  0  0  0  0  0  0  0  0  0  0  0
  1  6  2  0
  1  2  1  0
  2  3  2  0
  3  4  1  0
  5 16  1  0
  5  4  2  0
  6  5  1  0
  7  2  1  0
  7  8  1  0
  9  8  2  0
 10  9  1  0
 11 10  2  0
 12 11  1  0
 13 12  2  0
 13 14  1  0
 14 15  2  0
 15 10  1  0
 15  7  1  0
 17 18  1  0
 17 16  1  0
 18 19  1  0
 18 16  1  0
 19 23  1  0
 20 19  2  0
 20 21  1  0
 21 22  1  0
 23 22  2  0
  1 24  1  0
  3 25  1  0
  8 26  1  0
 11 27  1  0
 13 28  1  0
 16 29  1  1
 17 30  1  0
 17 31  1  0
 18 32  1  6
 20 33  1  0
 22 34  1  0
M  ISO  8  24  14  25  14  26  14  27  14  28  14  29  13  30  13  31  13
M  ISO  3  32  13  33  14  34  14
M  END
>  <minimizedAffinity>  (1) 
-6.1303463

>  <minimizedRMSD>  (1) 
0.992982924

$$$$
