
     RDKit          3D

 35 39  0  0  1  0  0  0  0  0999 V2000
   35.7020   30.4100   47.0220 C   0  0  0  0  0  0  0  0  0  0  0  0
   36.8470   30.4770   47.8260 C   0  0  0  0  0  0  0  0  0  0  0  0
   36.8800   29.7090   48.9680 C   0  0  0  0  0  0  0  0  0  0  0  0
   35.7830   28.9210   49.2470 N   0  0  0  0  0  0  0  0  0  0  0  0
   34.7130   28.8760   48.4700 C   0  0  0  0  0  0  0  0  0  0  0  0
   34.6670   29.6210   47.3530 N   0  0  0  0  0  0  0  0  0  0  0  0
   37.9050   31.2970   47.4720 N   0  0  0  0  0  0  0  0  0  0  0  0
   38.3410   32.3770   48.1580 C   0  0  0  0  0  0  0  0  0  0  0  0
   39.3850   32.9730   47.5680 N   0  0  0  0  0  0  0  0  0  0  0  0
   39.6490   32.2520   46.4420 C   0  0  0  0  0  0  0  0  0  0  0  0
   40.5660   32.3460   45.4450 C   0  0  0  0  0  0  0  0  0  0  0  0
   40.6260   31.4870   44.4110 N   0  0  0  0  0  0  0  0  0  0  0  0
   39.7070   30.4870   44.3950 C   0  0  0  0  0  0  0  0  0  0  0  0
   38.8080   30.4020   45.3830 N   0  0  0  0  0  0  0  0  0  0  0  0
   38.7140   31.2200   46.4130 C   0  0  0  0  0  0  0  0  0  0  0  0
   33.5630   28.0010   48.8610 C   0  0  2  0  0  0  0  0  0  0  0  0
   33.4140   26.7640   47.9160 C   0  0  0  0  0  0  0  0  0  0  0  0
   32.4070   27.8280   47.9700 C   0  0  1  0  0  0  0  0  0  0  0  0
   31.0810   27.5980   48.4990 N   0  0  0  0  0  0  0  0  0  0  0  0
   30.6530   27.9820   49.7120 C   0  0  0  0  0  0  0  0  0  0  0  0
   29.3190   27.5840   49.8610 C   0  0  0  0  0  0  0  0  0  0  0  0
   28.9670   26.9520   48.7030 N   0  0  0  0  0  0  0  0  0  0  0  0
   30.0490   26.9740   47.8970 C   0  0  0  0  0  0  0  0  0  0  0  0
   35.6497   31.0138   46.1040 H   0  0  0  0  0  0  0  0  0  0  0  0
   37.7534   29.7233   49.6366 H   0  0  0  0  0  0  0  0  0  0  0  0
   37.8882   32.7276   49.0972 H   0  0  0  0  0  0  0  0  0  0  0  0
   41.2975   33.1666   45.4846 H   0  0  0  0  0  0  0  0  0  0  0  0
   39.7016   29.7525   43.5762 H   0  0  0  0  0  0  0  0  0  0  0  0
   33.6457   28.2370   49.9322 H   0  0  0  0  0  0  0  0  0  0  0  0
   33.1947   25.7698   48.3325 H   0  0  0  0  0  0  0  0  0  0  0  0
   34.0230   26.2920   47.1309 H   0  0  0  0  0  0  0  0  0  0  0  0
   31.9473   28.4618   47.1974 H   0  0  0  0  0  0  0  0  0  0  0  0
   31.2504   28.5194   50.4632 H   0  0  0  0  0  0  0  0  0  0  0  0
   28.6788   27.7485   50.7402 H   0  0  0  0  0  0  0  0  0  0  0  0
   30.0841   26.5415   46.8862 H   0  0  0  0  0  0  0  0  0  0  0  0
  1  6  2  0
  1  2  1  0
  2  3  2  0
  3  4  1  0
  5 16  1  0
  5  4  2  0
  6  5  1  0
  7  2  1  0
  7  8  1  0
  9  8  2  0
 10  9  1  0
 11 10  2  0
 12 11  1  0
 13 12  2  0
 13 14  1  0
 14 15  2  0
 15 10  1  0
 15  7  1  0
 17 18  1  0
 17 16  1  0
 18 19  1  0
 18 16  1  0
 19 20  1  0
 20 21  2  0
 22 21  1  0
 23 19  1  0
 23 22  2  0
  1 24  1  0
  3 25  1  0
  8 26  1  0
 11 27  1  0
 13 28  1  0
 16 29  1  1
 17 30  1  0
 17 31  1  0
 18 32  1  6
 20 33  1  0
 21 34  1  0
 23 35  1  0
M  ISO  8  24  14  25  14  26  14  27  14  28  14  29  13  30  13  31  13
M  ISO  4  32  13  33  14  34  14  35  14
M  END
>  <minimizedAffinity>  (1) 
-6.04012203

>  <minimizedRMSD>  (1) 
0.528781891

$$$$
