
     RDKit          3D

 40 44  0  0  1  0  0  0  0  0999 V2000
   35.6330   30.4390   47.1810 C   0  0  0  0  0  0  0  0  0  0  0  0
   36.7780   30.4980   47.9830 C   0  0  0  0  0  0  0  0  0  0  0  0
   36.8510   29.6640   49.0830 C   0  0  0  0  0  0  0  0  0  0  0  0
   35.7820   28.8260   49.3160 N   0  0  0  0  0  0  0  0  0  0  0  0
   34.7100   28.7880   48.5420 C   0  0  0  0  0  0  0  0  0  0  0  0
   34.6300   29.5950   47.4720 N   0  0  0  0  0  0  0  0  0  0  0  0
   37.8180   31.3830   47.6650 N   0  0  0  0  0  0  0  0  0  0  0  0
   38.2030   32.4480   48.3890 C   0  0  0  0  0  0  0  0  0  0  0  0
   39.2250   33.0990   47.8270 N   0  0  0  0  0  0  0  0  0  0  0  0
   39.5200   32.4410   46.6960 C   0  0  0  0  0  0  0  0  0  0  0  0
   40.4350   32.5790   45.6800 C   0  0  0  0  0  0  0  0  0  0  0  0
   40.5360   31.7600   44.6140 N   0  0  0  0  0  0  0  0  0  0  0  0
   39.6590   30.7390   44.5700 C   0  0  0  0  0  0  0  0  0  0  0  0
   38.7590   30.5840   45.5440 N   0  0  0  0  0  0  0  0  0  0  0  0
   38.6240   31.3640   46.6090 C   0  0  0  0  0  0  0  0  0  0  0  0
   33.6010   27.8450   48.8860 C   0  0  2  0  0  0  0  0  0  0  0  0
   33.4740   26.6750   47.8490 C   0  0  0  0  0  0  0  0  0  0  0  0
   32.4370   27.6990   47.9970 C   0  0  1  0  0  0  0  0  0  0  0  0
   31.1490   27.3190   48.4310 N   0  0  0  0  0  0  0  0  0  0  0  0
   30.0740   27.4980   47.4810 C   0  0  0  0  0  0  0  0  0  0  0  0
   28.8800   27.1450   48.3780 C   0  0  0  0  0  0  0  0  0  0  0  0
   29.2060   27.8700   49.6580 C   0  0  0  0  0  0  0  0  0  0  0  0
   30.7000   27.9480   49.6600 C   0  0  0  0  0  0  0  0  0  0  0  0
   35.5534   31.0929   46.3001 H   0  0  0  0  0  0  0  0  0  0  0  0
   37.7283   29.6690   49.7466 H   0  0  0  0  0  0  0  0  0  0  0  0
   37.7306   32.7489   49.3357 H   0  0  0  0  0  0  0  0  0  0  0  0
   41.1388   33.4222   45.7413 H   0  0  0  0  0  0  0  0  0  0  0  0
   39.6842   30.0305   43.7290 H   0  0  0  0  0  0  0  0  0  0  0  0
   33.6956   28.0008   49.9708 H   0  0  0  0  0  0  0  0  0  0  0  0
   33.2916   25.6459   48.1920 H   0  0  0  0  0  0  0  0  0  0  0  0
   34.0843   26.2828   47.0221 H   0  0  0  0  0  0  0  0  0  0  0  0
   31.9505   28.4205   47.3242 H   0  0  0  0  0  0  0  0  0  0  0  0
   30.0192   28.5335   47.1140 H   0  0  0  0  0  0  0  0  0  0  0  0
   30.1595   26.9022   46.5603 H   0  0  0  0  0  0  0  0  0  0  0  0
   27.9365   27.5085   47.9448 H   0  0  0  0  0  0  0  0  0  0  0  0
   28.7379   26.0625   48.5119 H   0  0  0  0  0  0  0  0  0  0  0  0
   28.7620   28.8764   49.6612 H   0  0  0  0  0  0  0  0  0  0  0  0
   28.8078   27.3590   50.5470 H   0  0  0  0  0  0  0  0  0  0  0  0
   31.1070   27.4133   50.5309 H   0  0  0  0  0  0  0  0  0  0  0  0
   31.0430   28.9914   49.7203 H   0  0  0  0  0  0  0  0  0  0  0  0
  1  6  2  0
  1  2  1  0
  2  3  2  0
  3  4  1  0
  5 16  1  0
  5  4  2  0
  6  5  1  0
  7  2  1  0
  7  8  1  0
  9  8  2  0
 10  9  1  0
 11 10  2  0
 12 11  1  0
 13 12  2  0
 13 14  1  0
 14 15  2  0
 15 10  1  0
 15  7  1  0
 17 18  1  0
 17 16  1  0
 18 19  1  0
 18 16  1  0
 19 20  1  0
 19 23  1  0
 20 21  1  0
 21 22  1  0
 22 23  1  0
  1 24  1  0
  3 25  1  0
  8 26  1  0
 11 27  1  0
 13 28  1  0
 16 29  1  1
 17 30  1  0
 17 31  1  0
 18 32  1  6
 20 33  1  0
 20 34  1  0
 21 35  1  0
 21 36  1  0
 22 37  1  0
 22 38  1  0
 23 39  1  0
 23 40  1  0
M  ISO  8  24  14  25  14  26  14  27  14  28  14  29  13  30  13  31  13
M  ISO  8  32  13  33  13  34  13  35  13  36  13  37  13  38  13  39  13
M  ISO  1  40  13
M  END
>  <minimizedAffinity>  (1) 
-6.03264332

>  <minimizedRMSD>  (1) 
0.447938561

$$$$
