
     RDKit          3D

 41 45  0  0  1  0  0  0  0  0999 V2000
   35.4840   30.4420   47.6100 C   0  0  0  0  0  0  0  0  0  0  0  0
   36.5800   30.5160   48.4450 C   0  0  0  0  0  0  0  0  0  0  0  0
   36.7260   29.5280   49.4110 C   0  0  0  0  0  0  0  0  0  0  0  0
   35.7610   28.5450   49.4630 N   0  0  0  0  0  0  0  0  0  0  0  0
   34.7230   28.5120   48.6430 C   0  0  0  0  0  0  0  0  0  0  0  0
   34.5750   29.4600   47.7090 N   0  0  0  0  0  0  0  0  0  0  0  0
   37.5150   31.5430   48.3290 N   0  0  0  0  0  0  0  0  0  0  0  0
   37.7340   32.5320   49.2210 C   0  0  0  0  0  0  0  0  0  0  0  0
   38.6930   33.3710   48.8390 N   0  0  0  0  0  0  0  0  0  0  0  0
   39.1300   32.9170   47.6370 C   0  0  0  0  0  0  0  0  0  0  0  0
   40.0740   33.3230   46.7460 C   0  0  0  0  0  0  0  0  0  0  0  0
   40.3350   32.6880   45.5820 N   0  0  0  0  0  0  0  0  0  0  0  0
   39.5820   31.5770   45.3270 C   0  0  0  0  0  0  0  0  0  0  0  0
   38.6570   31.1800   46.2020 N   0  0  0  0  0  0  0  0  0  0  0  0
   38.3740   31.7800   47.3550 C   0  0  0  0  0  0  0  0  0  0  0  0
   33.7270   27.3920   48.7940 C   0  0  2  0  0  0  0  0  0  0  0  0
   33.5830   26.5510   47.4820 C   0  0  0  0  0  0  0  0  0  0  0  0
   32.4910   27.3890   47.9840 C   0  0  1  0  0  0  0  0  0  0  0  0
   31.1970   26.8440   48.4660 C   0  0  0  0  0  0  0  0  0  0  0  0
   30.2630   26.5710   47.2970 C   0  0  0  0  0  0  0  0  0  0  0  0
   29.3280   27.7380   47.2460 C   0  0  0  0  0  0  0  0  0  0  0  0
   29.4150   28.4480   48.5600 C   0  0  0  0  0  0  0  0  0  0  0  0
   30.4000   27.6950   49.3800 C   0  0  0  0  0  0  0  0  0  0  0  0
   35.3510   31.2137   46.8375 H   0  0  0  0  0  0  0  0  0  0  0  0
   37.5780   29.5302   50.1068 H   0  0  0  0  0  0  0  0  0  0  0  0
   37.1779   32.6336   50.1646 H   0  0  0  0  0  0  0  0  0  0  0  0
   40.6601   34.2220   46.9873 H   0  0  0  0  0  0  0  0  0  0  0  0
   39.7389   31.0088   44.3983 H   0  0  0  0  0  0  0  0  0  0  0  0
   33.9198   27.2447   49.8669 H   0  0  0  0  0  0  0  0  0  0  0  0
   33.5086   25.4546   47.5312 H   0  0  0  0  0  0  0  0  0  0  0  0
   34.1390   26.4642   46.5368 H   0  0  0  0  0  0  0  0  0  0  0  0
   31.8854   28.1882   47.5318 H   0  0  0  0  0  0  0  0  0  0  0  0
   31.5246   25.9535   49.0226 H   0  0  0  0  0  0  0  0  0  0  0  0
   30.8336   26.4952   46.3596 H   0  0  0  0  0  0  0  0  0  0  0  0
   29.7216   25.6217   47.4225 H   0  0  0  0  0  0  0  0  0  0  0  0
   29.6214   28.4179   46.4326 H   0  0  0  0  0  0  0  0  0  0  0  0
   28.2985   27.3990   47.0586 H   0  0  0  0  0  0  0  0  0  0  0  0
   29.7562   29.4831   48.4112 H   0  0  0  0  0  0  0  0  0  0  0  0
   28.4339   28.4911   49.0555 H   0  0  0  0  0  0  0  0  0  0  0  0
   29.8733   27.0657   50.1125 H   0  0  0  0  0  0  0  0  0  0  0  0
   31.0553   28.3898   49.9258 H   0  0  0  0  0  0  0  0  0  0  0  0
  1  6  2  0
  1  2  1  0
  2  3  2  0
  3  4  1  0
  5 16  1  0
  5  4  2  0
  6  5  1  0
  7  2  1  0
  7  8  1  0
  9  8  2  0
 10  9  1  0
 11 10  2  0
 12 11  1  0
 13 12  2  0
 13 14  1  0
 14 15  2  0
 15 10  1  0
 15  7  1  0
 17 18  1  0
 17 16  1  0
 18 19  1  0
 18 16  1  0
 19 23  1  0
 20 19  1  0
 21 20  1  0
 21 22  1  0
 22 23  1  0
  1 24  1  0
  3 25  1  0
  8 26  1  0
 11 27  1  0
 13 28  1  0
 16 29  1  1
 17 30  1  0
 17 31  1  0
 18 32  1  6
 19 33  1  0
 20 34  1  0
 20 35  1  0
 21 36  1  0
 21 37  1  0
 22 38  1  0
 22 39  1  0
 23 40  1  0
 23 41  1  0
M  ISO  8  24  14  25  14  26  14  27  14  28  14  29  13  30  13  31  13
M  ISO  8  32  13  33  13  34  13  35  13  36  13  37  13  38  13  39  13
M  ISO  2  40  13  41  13
M  END
>  <minimizedAffinity>  (1) 
-5.97591829

>  <minimizedRMSD>  (1) 
1.02711117

$$$$
