
     RDKit          3D

 44 49  0  0  1  0  0  0  0  0999 V2000
   35.7700   30.5690   47.1030 C   0  0  0  0  0  0  0  0  0  0  0  0
   36.9560   30.5840   47.8370 C   0  0  0  0  0  0  0  0  0  0  0  0
   37.0360   29.7690   48.9420 C   0  0  0  0  0  0  0  0  0  0  0  0
   35.9360   28.9940   49.2420 N   0  0  0  0  0  0  0  0  0  0  0  0
   34.8230   28.9980   48.5280 C   0  0  0  0  0  0  0  0  0  0  0  0
   34.7460   29.7810   47.4670 N   0  0  0  0  0  0  0  0  0  0  0  0
   38.0150   31.4040   47.4540 N   0  0  0  0  0  0  0  0  0  0  0  0
   38.4680   32.4830   48.1160 C   0  0  0  0  0  0  0  0  0  0  0  0
   39.4970   33.0640   47.4990 N   0  0  0  0  0  0  0  0  0  0  0  0
   39.7380   32.3480   46.3900 C   0  0  0  0  0  0  0  0  0  0  0  0
   40.6250   32.4130   45.3610 C   0  0  0  0  0  0  0  0  0  0  0  0
   40.6640   31.5440   44.3280 N   0  0  0  0  0  0  0  0  0  0  0  0
   39.7440   30.5500   44.3450 C   0  0  0  0  0  0  0  0  0  0  0  0
   38.8660   30.4720   45.3430 N   0  0  0  0  0  0  0  0  0  0  0  0
   38.7970   31.3040   46.3740 C   0  0  0  0  0  0  0  0  0  0  0  0
   33.6990   28.1160   48.9680 C   0  0  2  0  0  0  0  0  0  0  0  0
   33.7960   26.6910   48.3250 C   0  0  0  0  0  0  0  0  0  0  0  0
   32.7180   27.6070   47.9650 C   0  0  2  0  0  0  0  0  0  0  0  0
   32.7030   28.1710   46.6020 C   0  0  0  0  0  0  0  0  0  0  0  0
   32.1080   29.3700   46.2720 C   0  0  0  0  0  0  0  0  0  0  0  0
   32.0860   29.8660   44.9920 C   0  0  0  0  0  0  0  0  0  0  0  0
   32.6890   29.1160   44.0150 C   0  0  0  0  0  0  0  0  0  0  0  0
   33.2950   27.9050   44.3250 C   0  0  0  0  0  0  0  0  0  0  0  0
   33.8630   27.2790   43.2500 C   0  0  0  0  0  0  0  0  0  0  0  0
   34.5050   26.0800   43.4200 C   0  0  0  0  0  0  0  0  0  0  0  0
   34.5430   25.5620   44.6960 C   0  0  0  0  0  0  0  0  0  0  0  0
   33.9730   26.1860   45.7830 C   0  0  0  0  0  0  0  0  0  0  0  0
   33.3240   27.3930   45.6220 C   0  0  0  0  0  0  0  0  0  0  0  0
   35.6726   31.2108   46.2150 H   0  0  0  0  0  0  0  0  0  0  0  0
   37.9434   29.7368   49.5629 H   0  0  0  0  0  0  0  0  0  0  0  0
   38.0376   32.8458   49.0611 H   0  0  0  0  0  0  0  0  0  0  0  0
   41.3616   33.2299   45.3709 H   0  0  0  0  0  0  0  0  0  0  0  0
   39.7222   29.8070   43.5341 H   0  0  0  0  0  0  0  0  0  0  0  0
   33.5869   28.5895   49.9545 H   0  0  0  0  0  0  0  0  0  0  0  0
   34.5931   26.4639   47.6018 H   0  0  0  0  0  0  0  0  0  0  0  0
   33.8546   25.6611   48.7070 H   0  0  0  0  0  0  0  0  0  0  0  0
   31.6206   27.5311   47.9692 H   0  0  0  0  0  0  0  0  0  0  0  0
   31.6292   29.9559   47.0704 H   0  0  0  0  0  0  0  0  0  0  0  0
   31.6038   30.8269   44.7593 H   0  0  0  0  0  0  0  0  0  0  0  0
   32.6929   29.4768   42.9759 H   0  0  0  0  0  0  0  0  0  0  0  0
   33.8048   27.7366   42.2514 H   0  0  0  0  0  0  0  0  0  0  0  0
   34.9702   25.5537   42.5735 H   0  0  0  0  0  0  0  0  0  0  0  0
   35.0546   24.6012   44.8545 H   0  0  0  0  0  0  0  0  0  0  0  0
   34.0349   25.7228   46.7788 H   0  0  0  0  0  0  0  0  0  0  0  0
  1  6  2  0
  1  2  1  0
  2  3  2  0
  3  4  1  0
  5 16  1  0
  5  4  2  0
  6  5  1  0
  7  2  1  0
  7  8  1  0
  9  8  2  0
 10  9  1  0
 11 10  2  0
 12 13  2  0
 12 11  1  0
 13 14  1  0
 14 15  2  0
 15 10  1  0
 15  7  1  0
 17 16  1  0
 18 17  1  0
 18 16  1  0
 19 18  1  0
 20 19  2  0
 21 20  1  0
 22 23  1  0
 22 21  2  0
 23 28  2  0
 24 25  2  0
 24 23  1  0
 25 26  1  0
 26 27  2  0
 28 27  1  0
 28 19  1  0
  1 29  1  0
  3 30  1  0
  8 31  1  0
 11 32  1  0
 13 33  1  0
 16 34  1  1
 17 35  1  0
 17 36  1  0
 18 37  1  1
 20 38  1  0
 21 39  1  0
 22 40  1  0
 24 41  1  0
 25 42  1  0
 26 43  1  0
 27 44  1  0
M  ISO  8  29  14  30  14  31  14  32  14  33  14  34  13  35  13  36  13
M  ISO  8  37  13  38  14  39  14  40  14  41  14  42  14  43  14  44  14
M  END
>  <minimizedAffinity>  (1) 
-5.92192602

>  <minimizedRMSD>  (1) 
2.11745119

$$$$
