
     RDKit          3D

 35 39  0  0  1  0  0  0  0  0999 V2000
   35.9610   30.3490   47.0750 C   0  0  0  0  0  0  0  0  0  0  0  0
   37.0580   30.5790   47.9130 C   0  0  0  0  0  0  0  0  0  0  0  0
   37.1140   29.8940   49.1050 C   0  0  0  0  0  0  0  0  0  0  0  0
   36.0860   29.0240   49.3940 N   0  0  0  0  0  0  0  0  0  0  0  0
   35.0610   28.8230   48.5860 C   0  0  0  0  0  0  0  0  0  0  0  0
   35.0100   29.4800   47.4460 N   0  0  0  0  0  0  0  0  0  0  0  0
   38.0560   31.4780   47.5440 N   0  0  0  0  0  0  0  0  0  0  0  0
   38.4310   32.5790   48.2300 C   0  0  0  0  0  0  0  0  0  0  0  0
   39.4190   33.2420   47.6180 N   0  0  0  0  0  0  0  0  0  0  0  0
   39.7070   32.5480   46.4840 C   0  0  0  0  0  0  0  0  0  0  0  0
   40.5950   32.7180   45.4760 C   0  0  0  0  0  0  0  0  0  0  0  0
   40.6900   31.8610   44.4210 N   0  0  0  0  0  0  0  0  0  0  0  0
   39.8440   30.8120   44.4260 C   0  0  0  0  0  0  0  0  0  0  0  0
   38.9740   30.6620   45.4300 N   0  0  0  0  0  0  0  0  0  0  0  0
   38.8430   31.4590   46.4670 C   0  0  0  0  0  0  0  0  0  0  0  0
   33.9820   27.8780   48.9660 C   0  0  2  0  0  0  0  0  0  0  0  0
   33.6910   26.7980   47.8660 C   0  0  0  0  0  0  0  0  0  0  0  0
   32.6970   27.8000   48.2650 C   0  0  2  0  0  0  0  0  0  0  0  0
   32.2130   28.7360   47.2490 C   0  0  0  0  0  0  0  0  0  0  0  0
   30.9420   28.5770   46.6740 C   0  0  0  0  0  0  0  0  0  0  0  0
   30.7040   29.5870   45.7320 C   0  0  0  0  0  0  0  0  0  0  0  0
   31.8710   30.3170   45.7920 C   0  0  0  0  0  0  0  0  0  0  0  0
   32.6980   29.8020   46.6620 O   0  0  0  0  0  0  0  0  0  0  0  0
   35.8793   30.8796   46.1149 H   0  0  0  0  0  0  0  0  0  0  0  0
   37.9516   30.0364   49.8037 H   0  0  0  0  0  0  0  0  0  0  0  0
   37.9771   32.8941   49.1811 H   0  0  0  0  0  0  0  0  0  0  0  0
   41.2695   33.5863   45.5104 H   0  0  0  0  0  0  0  0  0  0  0  0
   39.8692   30.0802   43.6051 H   0  0  0  0  0  0  0  0  0  0  0  0
   34.2313   27.9560   50.0345 H   0  0  0  0  0  0  0  0  0  0  0  0
   33.5592   25.7419   48.1441 H   0  0  0  0  0  0  0  0  0  0  0  0
   34.1615   26.4816   46.9234 H   0  0  0  0  0  0  0  0  0  0  0  0
   31.6753   27.7921   48.6724 H   0  0  0  0  0  0  0  0  0  0  0  0
   30.2339   27.7741   46.9269 H   0  0  0  0  0  0  0  0  0  0  0  0
   29.8149   29.7539   45.1062 H   0  0  0  0  0  0  0  0  0  0  0  0
   32.0783   31.2130   45.1884 H   0  0  0  0  0  0  0  0  0  0  0  0
  1  6  2  0
  1  2  1  0
  2  3  2  0
  3  4  1  0
  5 16  1  0
  5  4  2  0
  6  5  1  0
  7  2  1  0
  7  8  1  0
  9  8  2  0
 10  9  1  0
 11 10  2  0
 12 13  2  0
 12 11  1  0
 13 14  1  0
 14 15  2  0
 15 10  1  0
 15  7  1  0
 17 18  1  0
 17 16  1  0
 18 16  1  0
 19 18  1  0
 20 19  2  0
 21 22  2  0
 21 20  1  0
 22 23  1  0
 23 19  1  0
  1 24  1  0
  3 25  1  0
  8 26  1  0
 11 27  1  0
 13 28  1  0
 16 29  1  1
 17 30  1  0
 17 31  1  0
 18 32  1  1
 20 33  1  0
 21 34  1  0
 22 35  1  0
M  ISO  8  24  14  25  14  26  14  27  14  28  14  29  13  30  13  31  13
M  ISO  4  32  13  33  14  34  14  35  14
M  END
>  <minimizedAffinity>  (1) 
-5.89871407

>  <minimizedRMSD>  (1) 
0.113292091

$$$$
