
     RDKit          3D

 34 37  0  0  1  0  0  0  0  0999 V2000
   35.8360   30.4900   47.1210 C   0  0  0  0  0  0  0  0  0  0  0  0
   37.0020   30.5770   47.8610 C   0  0  0  0  0  0  0  0  0  0  0  0
   37.0940   29.8050   49.0100 C   0  0  0  0  0  0  0  0  0  0  0  0
   36.0200   29.0050   49.3350 N   0  0  0  0  0  0  0  0  0  0  0  0
   34.9180   28.9470   48.6040 C   0  0  0  0  0  0  0  0  0  0  0  0
   34.8220   29.6900   47.4930 N   0  0  0  0  0  0  0  0  0  0  0  0
   38.0440   31.4090   47.4640 N   0  0  0  0  0  0  0  0  0  0  0  0
   38.4800   32.5050   48.1190 C   0  0  0  0  0  0  0  0  0  0  0  0
   39.5020   33.0960   47.4790 N   0  0  0  0  0  0  0  0  0  0  0  0
   39.7410   32.3600   46.3680 C   0  0  0  0  0  0  0  0  0  0  0  0
   40.6300   32.4520   45.3500 C   0  0  0  0  0  0  0  0  0  0  0  0
   40.6750   31.5650   44.3170 N   0  0  0  0  0  0  0  0  0  0  0  0
   39.7620   30.5590   44.3620 C   0  0  0  0  0  0  0  0  0  0  0  0
   38.8960   30.4780   45.3640 N   0  0  0  0  0  0  0  0  0  0  0  0
   38.8150   31.3100   46.3830 C   0  0  0  0  0  0  0  0  0  0  0  0
   33.8000   28.0580   49.0430 C   0  0  2  0  0  0  0  0  0  0  0  0
   33.5510   26.8790   48.0340 C   0  0  0  0  0  0  0  0  0  0  0  0
   32.5630   27.9460   48.2580 C   0  0  1  0  0  0  0  0  0  0  0  0
   31.2770   27.5600   48.9150 C   0  0  0  0  0  0  0  0  0  0  0  0
   30.5350   26.6160   47.9710 C   0  0  0  0  0  0  0  0  0  0  0  0
   35.7364   31.0908   46.2050 H   0  0  0  0  0  0  0  0  0  0  0  0
   37.9947   29.8306   49.6409 H   0  0  0  0  0  0  0  0  0  0  0  0
   38.0502   32.8704   49.0633 H   0  0  0  0  0  0  0  0  0  0  0  0
   41.3505   33.2832   45.3579 H   0  0  0  0  0  0  0  0  0  0  0  0
   39.7409   29.8056   43.5608 H   0  0  0  0  0  0  0  0  0  0  0  0
   33.9838   28.2267   50.1143 H   0  0  0  0  0  0  0  0  0  0  0  0
   33.3633   25.8602   48.4040 H   0  0  0  0  0  0  0  0  0  0  0  0
   34.0766   26.4568   47.1648 H   0  0  0  0  0  0  0  0  0  0  0  0
   32.0452   28.6654   47.6066 H   0  0  0  0  0  0  0  0  0  0  0  0
   31.4820   27.0509   49.8683 H   0  0  0  0  0  0  0  0  0  0  0  0
   30.6685   28.4526   49.1222 H   0  0  0  0  0  0  0  0  0  0  0  0
   29.9608   25.8854   48.5597 H   0  0  0  0  0  0  0  0  0  0  0  0
   29.8488   27.1964   47.3367 H   0  0  0  0  0  0  0  0  0  0  0  0
   31.2610   26.0863   47.3367 H   0  0  0  0  0  0  0  0  0  0  0  0
  1  6  2  0
  1  2  1  0
  2  3  2  0
  3  4  1  0
  5 16  1  0
  5  4  2  0
  6  5  1  0
  7  2  1  0
  7  8  1  0
  9  8  2  0
 10 15  2  0
 10  9  1  0
 11 10  1  0
 12 13  1  0
 12 11  2  0
 13 14  2  0
 14 15  1  0
 15  7  1  0
 17 18  1  0
 17 16  1  0
 18 19  1  0
 18 16  1  0
 20 19  1  0
  1 21  1  0
  3 22  1  0
  8 23  1  0
 11 24  1  0
 13 25  1  0
 16 26  1  1
 17 27  1  0
 17 28  1  0
 18 29  1  6
 19 30  1  0
 19 31  1  0
 20 32  1  0
 20 33  1  0
 20 34  1  0
M  ISO  8  21  14  22  14  23  14  24  14  25  14  26  13  27  13  28  13
M  ISO  6  29  13  30   8  31   8  32   8  33   8  34   8
M  END
>  <minimizedAffinity>  (1) 
-5.62420177

>  <minimizedRMSD>  (1) 
0.549963951

$$$$
