
     RDKit          3D

 29 32  0  0  1  0  0  0  0  0999 V2000
   35.8160   30.4360   47.0550 C   0  0  0  0  0  0  0  0  0  0  0  0
   36.9590   30.5400   47.8240 C   0  0  0  0  0  0  0  0  0  0  0  0
   37.0420   29.7790   48.9850 C   0  0  0  0  0  0  0  0  0  0  0  0
   35.9670   28.9700   49.2860 N   0  0  0  0  0  0  0  0  0  0  0  0
   34.8860   28.8940   48.5270 C   0  0  0  0  0  0  0  0  0  0  0  0
   34.8090   29.6230   47.4150 N   0  0  0  0  0  0  0  0  0  0  0  0
   38.0010   31.3860   47.4450 N   0  0  0  0  0  0  0  0  0  0  0  0
   38.4150   32.4930   48.1240 C   0  0  0  0  0  0  0  0  0  0  0  0
   39.4370   33.0970   47.5090 N   0  0  0  0  0  0  0  0  0  0  0  0
   39.7040   32.3690   46.3920 C   0  0  0  0  0  0  0  0  0  0  0  0
   40.6060   32.4730   45.3860 C   0  0  0  0  0  0  0  0  0  0  0  0
   40.6840   31.6080   44.3570 N   0  0  0  0  0  0  0  0  0  0  0  0
   39.7820   30.5890   44.3770 C   0  0  0  0  0  0  0  0  0  0  0  0
   38.8970   30.4890   45.3660 N   0  0  0  0  0  0  0  0  0  0  0  0
   38.7900   31.3140   46.3880 C   0  0  0  0  0  0  0  0  0  0  0  0
   33.7660   27.9970   48.9470 C   0  0  2  0  0  0  0  0  0  0  0  0
   33.6050   26.7640   47.9880 C   0  0  0  0  0  0  0  0  0  0  0  0
   32.5800   27.8110   48.0980 C   0  0  1  0  0  0  0  0  0  0  0  0
   30.9440   27.5020   48.7880 S   0  0  0  0  0  0  0  0  0  0  0  0
   35.7290   31.0288   46.1325 H   0  0  0  0  0  0  0  0  0  0  0  0
   37.9279   29.8208   49.6357 H   0  0  0  0  0  0  0  0  0  0  0  0
   37.9636   32.8461   49.0629 H   0  0  0  0  0  0  0  0  0  0  0  0
   41.3158   33.3130   45.4115 H   0  0  0  0  0  0  0  0  0  0  0  0
   39.7845   29.8422   43.5694 H   0  0  0  0  0  0  0  0  0  0  0  0
   33.8826   28.2241   50.0170 H   0  0  0  0  0  0  0  0  0  0  0  0
   33.4210   25.7603   48.3987 H   0  0  0  0  0  0  0  0  0  0  0  0
   34.1914   26.3138   47.1734 H   0  0  0  0  0  0  0  0  0  0  0  0
   32.0788   28.4476   47.3540 H   0  0  0  0  0  0  0  0  0  0  0  0
   31.0154   27.5155   50.1561 H   0  0  0  0  0  0  0  0  0  0  0  0
  1  6  2  0
  1  2  1  0
  2  3  2  0
  3  4  1  0
  5 16  1  0
  5  4  2  0
  6  5  1  0
  7  2  1  0
  7  8  1  0
  9  8  2  0
 10  9  1  0
 11 10  2  0
 12 13  2  0
 12 11  1  0
 13 14  1  0
 14 15  2  0
 15 10  1  0
 15  7  1  0
 17 18  1  0
 17 16  1  0
 18 19  1  0
 18 16  1  0
  1 20  1  0
  3 21  1  0
  8 22  1  0
 11 23  1  0
 13 24  1  0
 16 25  1  1
 17 26  1  0
 17 27  1  0
 18 28  1  6
 19 29  1  0
M  ISO  8  20  14  21  14  22  14  23  14  24  14  25  13  26  13  27  13
M  ISO  2  28  13  29  11
M  END
>  <minimizedAffinity>  (1) 
-5.56587315

>  <minimizedRMSD>  (1) 
0.203819841

$$$$
