
     RDKit          3D

 30 32  0  0  0  0  0  0  0  0999 V2000
   37.4090   31.4500   48.4930 C   0  0  0  0  0  0  0  0  0  0  0  0
   37.8240   32.3150   49.5120 C   0  0  0  0  0  0  0  0  0  0  0  0
   38.7870   33.2730   49.2010 C   0  0  0  0  0  0  0  0  0  0  0  0
   39.2680   33.3100   47.9250 N   0  0  0  0  0  0  0  0  0  0  0  0
   38.8390   32.4570   46.9720 C   0  0  0  0  0  0  0  0  0  0  0  0
   37.9050   31.5170   47.2450 N   0  0  0  0  0  0  0  0  0  0  0  0
   39.3440   32.5010   45.6390 N   0  0  0  0  0  0  0  0  0  0  0  0
   39.8880   33.5180   44.9330 C   0  0  0  0  0  0  0  0  0  0  0  0
   40.2030   33.0190   43.7060 N   0  0  0  0  0  0  0  0  0  0  0  0
   39.8560   31.7170   43.6640 C   0  0  0  0  0  0  0  0  0  0  0  0
   39.9420   30.7370   42.6950 C   0  0  0  0  0  0  0  0  0  0  0  0
   39.5180   29.4750   42.8910 N   0  0  0  0  0  0  0  0  0  0  0  0
   38.9860   29.1670   44.0970 C   0  0  0  0  0  0  0  0  0  0  0  0
   38.9000   30.1090   45.0400 N   0  0  0  0  0  0  0  0  0  0  0  0
   39.3100   31.3770   44.8850 C   0  0  0  0  0  0  0  0  0  0  0  0
   40.4890   31.0160   41.4260 N   0  0  0  0  0  0  0  0  0  0  0  0
   36.3980   30.4460   48.8210 C   0  0  0  0  0  0  0  0  0  0  0  0
   35.2350   30.5190   48.3480 O   0  0  0  0  0  0  0  0  0  0  0  0
   36.7420   29.4030   49.6680 O   0  0  0  0  0  0  0  0  0  0  0  0
   36.6050   29.4400   51.0490 C   0  0  0  0  0  0  0  0  0  0  0  0
   37.6900   29.7070   51.9240 N   0  0  0  0  0  0  0  0  0  0  0  0
   35.4290   29.2140   51.4200 O   0  0  0  0  0  0  0  0  0  0  0  0
   37.4035   32.2410   50.5258 H   0  0  0  0  0  0  0  0  0  0  0  0
   39.1490   33.9792   49.9627 H   0  0  0  0  0  0  0  0  0  0  0  0
   40.0456   34.5490   45.2825 H   0  0  0  0  0  0  0  0  0  0  0  0
   38.6267   28.1472   44.2992 H   0  0  0  0  0  0  0  0  0  0  0  0
   40.8325   31.9627   41.2101 H   0  0  0  0  0  0  0  0  0  0  0  0
   40.5451   30.2731   40.7147 H   0  0  0  0  0  0  0  0  0  0  0  0
   37.5381   29.7237   52.9426 H   0  0  0  0  0  0  0  0  0  0  0  0
   38.6294   29.8841   51.5404 H   0  0  0  0  0  0  0  0  0  0  0  0
  1 17  1  0
  1  2  2  0
  3  2  1  0
  4  3  2  0
  5  6  2  0
  5  4  1  0
  6  1  1  0
  7  5  1  0
  8  7  1  0
  9  8  2  0
 10  9  1  0
 10 15  2  0
 11 12  2  0
 11 10  1  0
 12 13  1  0
 13 14  2  0
 15 14  1  0
 15  7  1  0
 16 11  1  0
 17 19  1  0
 18 17  2  0
 19 20  1  0
 20 22  2  0
 20 21  1  0
  2 23  1  0
  3 24  1  0
  8 25  1  0
 13 26  1  0
 16 27  1  0
 16 28  1  0
 21 29  1  0
 21 30  1  0
M  ISO  4  23  14  24  14  25  14  26  14
M  END
>  <minimizedAffinity>  (1) 
-6.44493532

>  <minimizedRMSD>  (1) 
1.72838545

$$$$
