
     RDKit          3D

 35 38  0  0  0  0  0  0  0  0999 V2000
   30.0270   27.8190   47.0980 C   0  0  0  0  0  0  0  0  0  0  0  0
   30.8710   28.5340   46.2990 C   0  0  0  0  0  0  0  0  0  0  0  0
   32.1490   28.8730   46.6750 C   0  0  0  0  0  0  0  0  0  0  0  0
   32.5990   28.4790   47.9060 C   0  0  0  0  0  0  0  0  0  0  0  0
   31.7320   27.7600   48.6960 C   0  0  0  0  0  0  0  0  0  0  0  0
   30.4490   27.4060   48.3430 C   0  0  0  0  0  0  0  0  0  0  0  0
   35.6690   29.9930   48.6500 C   0  0  0  0  0  0  0  0  0  0  0  0
   35.8050   28.8730   49.4610 C   0  0  0  0  0  0  0  0  0  0  0  0
   34.6760   28.0960   49.3300 C   0  0  0  0  0  0  0  0  0  0  0  0
   33.8860   28.7370   48.4640 N   0  0  0  0  0  0  0  0  0  0  0  0
   34.4640   29.8410   48.0690 N   0  0  0  0  0  0  0  0  0  0  0  0
   38.0340   32.7370   49.4240 C   0  0  0  0  0  0  0  0  0  0  0  0
   38.7080   32.8400   48.1960 C   0  0  0  0  0  0  0  0  0  0  0  0
   38.3440   31.9860   47.1590 C   0  0  0  0  0  0  0  0  0  0  0  0
   37.3460   31.0910   47.3920 N   0  0  0  0  0  0  0  0  0  0  0  0
   36.7170   31.0130   48.5760 C   0  0  0  0  0  0  0  0  0  0  0  0
   37.0420   31.8260   49.6100 N   0  0  0  0  0  0  0  0  0  0  0  0
   28.3940   27.4190   46.6130 S   0  0  0  0  0  0  0  0  0  0  0  0
   28.2060   27.8230   45.1810 O   0  0  0  0  0  0  0  0  0  0  0  0
   28.2010   25.9540   46.7850 O   0  0  0  0  0  0  0  0  0  0  0  0
   27.2740   28.2580   47.6550 C   0  0  0  0  0  0  0  0  0  0  0  0
   27.1750   29.5960   47.8040 N   0  0  0  0  0  0  0  0  0  0  0  0
   26.2130   29.8110   48.6770 O   0  0  0  0  0  0  0  0  0  0  0  0
   25.7100   28.6660   49.0750 C   0  0  0  0  0  0  0  0  0  0  0  0
   26.3550   27.6510   48.4520 N   0  0  0  0  0  0  0  0  0  0  0  0
   30.5125   28.8535   45.3094 H   0  0  0  0  0  0  0  0  0  0  0  0
   32.7976   29.4499   45.9994 H   0  0  0  0  0  0  0  0  0  0  0  0
   32.0915   27.4434   49.6862 H   0  0  0  0  0  0  0  0  0  0  0  0
   29.7989   26.8273   49.0156 H   0  0  0  0  0  0  0  0  0  0  0  0
   36.6702   28.6452   50.1009 H   0  0  0  0  0  0  0  0  0  0  0  0
   34.4670   27.1417   49.8355 H   0  0  0  0  0  0  0  0  0  0  0  0
   38.3141   33.4061   50.2510 H   0  0  0  0  0  0  0  0  0  0  0  0
   39.5084   33.5816   48.0565 H   0  0  0  0  0  0  0  0  0  0  0  0
   38.8472   32.0331   46.1820 H   0  0  0  0  0  0  0  0  0  0  0  0
   24.8922   28.5489   49.8013 H   0  0  0  0  0  0  0  0  0  0  0  0
  1  6  2  0
  2  3  2  0
  2  1  1  0
  3  4  1  0
  4 10  1  0
  4  5  2  0
  6  5  1  0
  7  8  1  0
  9  8  2  0
 10  9  1  0
 11 10  1  0
 11  7  2  0
 12 17  2  0
 13 12  1  0
 14 15  1  0
 14 13  2  0
 15 16  2  0
 16  7  1  0
 16 17  1  0
 18 20  2  0
 18  1  1  0
 18 21  1  0
 19 18  2  0
 21 22  2  0
 21 25  1  0
 22 23  1  0
 23 24  1  0
 25 24  2  0
  2 26  1  0
  3 27  1  0
  5 28  1  0
  6 29  1  0
  8 30  1  0
  9 31  1  0
 12 32  1  0
 13 33  1  0
 14 34  1  0
 24 35  1  0
M  ISO  8  26  14  27  14  28  14  29  14  30  14  31  14  32  14  33  14
M  ISO  2  34  14  35  14
M  END
>  <minimizedAffinity>  (1) 
-6.31922722

>  <minimizedRMSD>  (1) 
2.39851356

$$$$
