
     RDKit          3D

 33 35  0  0  0  0  0  0  0  0999 V2000
   37.2890   31.4730   48.6180 C   0  0  0  0  0  0  0  0  0  0  0  0
   37.8050   32.2700   49.6320 C   0  0  0  0  0  0  0  0  0  0  0  0
   38.7640   33.2070   49.2540 C   0  0  0  0  0  0  0  0  0  0  0  0
   39.1310   33.2860   47.9470 N   0  0  0  0  0  0  0  0  0  0  0  0
   38.6210   32.5130   47.0060 C   0  0  0  0  0  0  0  0  0  0  0  0
   37.6990   31.6120   47.3670 N   0  0  0  0  0  0  0  0  0  0  0  0
   38.9030   32.4720   45.5760 C   0  0  0  0  0  0  0  0  0  0  0  0
   39.8450   33.2950   44.9930 C   0  0  0  0  0  0  0  0  0  0  0  0
   40.1660   33.3120   43.6540 C   0  0  0  0  0  0  0  0  0  0  0  0
   39.5140   32.4540   42.7990 C   0  0  0  0  0  0  0  0  0  0  0  0
   38.5620   31.6060   43.3170 C   0  0  0  0  0  0  0  0  0  0  0  0
   37.9270   30.7580   42.4390 C   0  0  0  0  0  0  0  0  0  0  0  0
   36.9620   29.8790   42.8850 C   0  0  0  0  0  0  0  0  0  0  0  0
   36.6860   29.9140   44.2520 C   0  0  0  0  0  0  0  0  0  0  0  0
   37.3420   30.7710   45.0790 C   0  0  0  0  0  0  0  0  0  0  0  0
   38.2940   31.6440   44.6640 C   0  0  0  0  0  0  0  0  0  0  0  0
   36.2820   30.4650   48.9740 C   0  0  0  0  0  0  0  0  0  0  0  0
   35.1050   30.5530   48.5470 O   0  0  0  0  0  0  0  0  0  0  0  0
   36.6210   29.4130   49.7790 O   0  0  0  0  0  0  0  0  0  0  0  0
   36.5670   29.4300   51.1750 C   0  0  0  0  0  0  0  0  0  0  0  0
   37.6960   29.6670   52.0200 N   0  0  0  0  0  0  0  0  0  0  0  0
   35.4060   29.2130   51.5800 O   0  0  0  0  0  0  0  0  0  0  0  0
   37.4745   32.1669   50.6761 H   0  0  0  0  0  0  0  0  0  0  0  0
   39.2179   33.8735   50.0021 H   0  0  0  0  0  0  0  0  0  0  0  0
   40.3827   33.9936   45.6509 H   0  0  0  0  0  0  0  0  0  0  0  0
   40.9333   34.0022   43.2733 H   0  0  0  0  0  0  0  0  0  0  0  0
   39.7486   32.4459   41.7243 H   0  0  0  0  0  0  0  0  0  0  0  0
   38.1913   30.7812   41.3715 H   0  0  0  0  0  0  0  0  0  0  0  0
   36.4409   29.1910   42.2030 H   0  0  0  0  0  0  0  0  0  0  0  0
   35.9251   29.2371   44.6677 H   0  0  0  0  0  0  0  0  0  0  0  0
   37.0855   30.7556   46.1486 H   0  0  0  0  0  0  0  0  0  0  0  0
   37.5825   29.6650   53.0437 H   0  0  0  0  0  0  0  0  0  0  0  0
   38.6227   29.8397   51.6049 H   0  0  0  0  0  0  0  0  0  0  0  0
  1 17  1  0
  1  2  2  0
  3  2  1  0
  4  3  2  0
  5  6  2  0
  5  4  1  0
  6  1  1  0
  7  5  1  0
  8  7  2  0
  9  8  1  0
 10 11  1  0
 10  9  2  0
 11 16  2  0
 12 13  2  0
 12 11  1  0
 13 14  1  0
 14 15  2  0
 16 15  1  0
 16  7  1  0
 17 19  1  0
 18 17  2  0
 19 20  1  0
 20 22  2  0
 20 21  1  0
  2 23  1  0
  3 24  1  0
  8 25  1  0
  9 26  1  0
 10 27  1  0
 12 28  1  0
 13 29  1  0
 14 30  1  0
 15 31  1  0
 21 32  1  0
 21 33  1  0
M  ISO  8  23  14  24  14  25  14  26  14  27  14  28  14  29  14  30  14
M  ISO  1  31  14
M  END
>  <minimizedAffinity>  (1) 
-5.92822456

>  <minimizedRMSD>  (1) 
1.44566691

$$$$
