
     RDKit          3D

 31 33  0  0  0  0  0  0  0  0999 V2000
   37.2130   31.1940   48.0740 C   0  0  0  0  0  0  0  0  0  0  0  0
   37.9340   32.0440   48.9010 C   0  0  0  0  0  0  0  0  0  0  0  0
   38.9210   32.8360   48.3250 C   0  0  0  0  0  0  0  0  0  0  0  0
   39.1210   32.7310   46.9790 N   0  0  0  0  0  0  0  0  0  0  0  0
   38.4060   31.8980   46.1990 C   0  0  0  0  0  0  0  0  0  0  0  0
   37.4760   31.1600   46.7810 N   0  0  0  0  0  0  0  0  0  0  0  0
   38.8210   31.9790   44.8080 C   0  0  0  0  0  0  0  0  0  0  0  0
   39.0500   33.1380   44.1620 N   0  0  0  0  0  0  0  0  0  0  0  0
   39.4260   33.2850   42.9090 C   0  0  0  0  0  0  0  0  0  0  0  0
   39.6240   32.1990   42.1130 N   0  0  0  0  0  0  0  0  0  0  0  0
   39.4240   30.9590   42.6470 C   0  0  0  0  0  0  0  0  0  0  0  0
   39.6180   29.8490   41.8610 C   0  0  0  0  0  0  0  0  0  0  0  0
   39.4250   28.5890   42.3720 C   0  0  0  0  0  0  0  0  0  0  0  0
   39.0270   28.4910   43.7050 C   0  0  0  0  0  0  0  0  0  0  0  0
   38.8490   29.6380   44.4420 C   0  0  0  0  0  0  0  0  0  0  0  0
   39.0330   30.9140   43.9640 C   0  0  0  0  0  0  0  0  0  0  0  0
   36.1880   30.3480   48.6530 C   0  0  0  0  0  0  0  0  0  0  0  0
   34.9710   30.5080   48.3900 O   0  0  0  0  0  0  0  0  0  0  0  0
   36.5440   29.3330   49.5210 O   0  0  0  0  0  0  0  0  0  0  0  0
   36.5110   29.4580   50.9180 C   0  0  0  0  0  0  0  0  0  0  0  0
   37.6460   29.8300   51.7010 N   0  0  0  0  0  0  0  0  0  0  0  0
   35.3770   29.2060   51.3810 O   0  0  0  0  0  0  0  0  0  0  0  0
   37.7304   32.0898   49.9810 H   0  0  0  0  0  0  0  0  0  0  0  0
   39.5222   33.5260   48.9354 H   0  0  0  0  0  0  0  0  0  0  0  0
   39.5816   34.2949   42.5016 H   0  0  0  0  0  0  0  0  0  0  0  0
   39.9306   29.9706   40.8134 H   0  0  0  0  0  0  0  0  0  0  0  0
   39.5784   27.6920   41.7540 H   0  0  0  0  0  0  0  0  0  0  0  0
   38.8571   27.5052   44.1625 H   0  0  0  0  0  0  0  0  0  0  0  0
   38.5365   29.5267   45.4908 H   0  0  0  0  0  0  0  0  0  0  0  0
   37.5628   29.9062   52.7248 H   0  0  0  0  0  0  0  0  0  0  0  0
   38.5478   30.0221   51.2419 H   0  0  0  0  0  0  0  0  0  0  0  0
  1 17  1  0
  1  2  2  0
  3  2  1  0
  4  3  2  0
  5  6  2  0
  5  4  1  0
  6  1  1  0
  7  5  1  0
  8  7  2  0
  9  8  1  0
 10 11  1  0
 10  9  2  0
 11 16  2  0
 12 13  2  0
 12 11  1  0
 13 14  1  0
 14 15  2  0
 16 15  1  0
 16  7  1  0
 17 19  1  0
 18 17  2  0
 19 20  1  0
 20 22  2  0
 20 21  1  0
  2 23  1  0
  3 24  1  0
  9 25  1  0
 12 26  1  0
 13 27  1  0
 14 28  1  0
 15 29  1  0
 21 30  1  0
 21 31  1  0
M  ISO  7  23  14  24  14  25  14  26  14  27  14  28  14  29  14
M  END
>  <minimizedAffinity>  (1) 
-5.85287952

>  <minimizedRMSD>  (1) 
0.763599336

$$$$
