
     RDKit          3D

 30 31  0  0  0  0  0  0  0  0999 V2000
   37.3180   31.0200   48.2290 C   0  0  0  0  0  0  0  0  0  0  0  0
   37.8430   32.1340   48.9100 C   0  0  0  0  0  0  0  0  0  0  0  0
   38.8600   32.8630   48.3040 C   0  0  0  0  0  0  0  0  0  0  0  0
   39.2940   32.4530   47.0760 N   0  0  0  0  0  0  0  0  0  0  0  0
   38.7670   31.3800   46.4530 C   0  0  0  0  0  0  0  0  0  0  0  0
   37.7800   30.6700   47.0350 N   0  0  0  0  0  0  0  0  0  0  0  0
   40.1660   30.1370   42.6150 C   0  0  0  0  0  0  0  0  0  0  0  0
   39.3620   29.3400   43.4030 C   0  0  0  0  0  0  0  0  0  0  0  0
   38.9030   29.7220   44.6390 C   0  0  0  0  0  0  0  0  0  0  0  0
   39.2540   30.9610   45.1280 C   0  0  0  0  0  0  0  0  0  0  0  0
   40.0630   31.7980   44.3710 C   0  0  0  0  0  0  0  0  0  0  0  0
   40.5000   31.3680   43.1320 C   0  0  0  0  0  0  0  0  0  0  0  0
   40.7380   29.6390   41.0560 S   0  0  0  0  0  0  0  0  0  0  0  0
   41.8520   28.6450   41.2450 O   0  0  0  0  0  0  0  0  0  0  0  0
   41.2130   30.7990   40.2300 O   0  0  0  0  0  0  0  0  0  0  0  0
   36.2570   30.2740   48.8780 C   0  0  0  0  0  0  0  0  0  0  0  0
   35.0510   30.5110   48.6230 O   0  0  0  0  0  0  0  0  0  0  0  0
   36.5840   29.2840   49.7940 O   0  0  0  0  0  0  0  0  0  0  0  0
   36.5570   29.4640   51.1720 C   0  0  0  0  0  0  0  0  0  0  0  0
   37.7000   29.8710   51.9120 N   0  0  0  0  0  0  0  0  0  0  0  0
   35.4240   29.2280   51.6750 O   0  0  0  0  0  0  0  0  0  0  0  0
   37.4575   32.4215   49.8993 H   0  0  0  0  0  0  0  0  0  0  0  0
   39.3007   33.7416   48.7978 H   0  0  0  0  0  0  0  0  0  0  0  0
   39.0743   28.3490   43.0220 H   0  0  0  0  0  0  0  0  0  0  0  0
   38.2646   29.0489   45.2300 H   0  0  0  0  0  0  0  0  0  0  0  0
   40.3519   32.7888   44.7517 H   0  0  0  0  0  0  0  0  0  0  0  0
   41.1396   32.0357   42.5361 H   0  0  0  0  0  0  0  0  0  0  0  0
   39.6960   29.0662   40.3755 H   0  0  0  0  0  0  0  0  0  0  0  0
   37.6361   29.9926   52.9328 H   0  0  0  0  0  0  0  0  0  0  0  0
   38.5923   30.0444   51.4275 H   0  0  0  0  0  0  0  0  0  0  0  0
  1 16  1  0
  1  2  2  0
  3  2  1  0
  4  3  2  0
  5  6  2  0
  5  4  1  0
  6  1  1  0
  7 12  2  0
  7  8  1  0
  8  9  2  0
  9 10  1  0
 10  5  1  0
 11 10  2  0
 12 11  1  0
 13 14  2  0
 13  7  1  0
 15 13  2  0
 16 18  1  0
 17 16  2  0
 18 19  1  0
 19 21  2  0
 19 20  1  0
  2 22  1  0
  3 23  1  0
  8 24  1  0
  9 25  1  0
 11 26  1  0
 12 27  1  0
 13 28  1  0
 20 29  1  0
 20 30  1  0
M  ISO  7  22  14  23  14  24  14  25  14  26  14  27  14  28  11
M  END
>  <minimizedAffinity>  (1) 
-5.58735895

>  <minimizedRMSD>  (1) 
1.73313546

$$$$
