
     RDKit          3D

 24 25  0  0  0  0  0  0  0  0999 V2000
   37.2820   31.4220   48.5290 C   0  0  0  0  0  0  0  0  0  0  0  0
   37.6860   32.4120   49.4240 C   0  0  0  0  0  0  0  0  0  0  0  0
   38.6770   33.2980   48.9980 C   0  0  0  0  0  0  0  0  0  0  0  0
   39.1920   33.1440   47.7430 N   0  0  0  0  0  0  0  0  0  0  0  0
   38.7710   32.1700   46.9090 C   0  0  0  0  0  0  0  0  0  0  0  0
   37.8130   31.3030   47.3000 N   0  0  0  0  0  0  0  0  0  0  0  0
   39.3620   32.0820   45.6170 N   0  0  0  0  0  0  0  0  0  0  0  0
   38.9830   32.8280   44.5600 C   0  0  0  0  0  0  0  0  0  0  0  0
   39.8000   32.4360   43.5100 C   0  0  0  0  0  0  0  0  0  0  0  0
   40.6510   31.4690   43.9460 N   0  0  0  0  0  0  0  0  0  0  0  0
   40.3690   31.2570   45.2630 C   0  0  0  0  0  0  0  0  0  0  0  0
   36.2470   30.4910   48.9640 C   0  0  0  0  0  0  0  0  0  0  0  0
   35.0500   30.6340   48.6060 O   0  0  0  0  0  0  0  0  0  0  0  0
   36.5930   29.4300   49.7880 O   0  0  0  0  0  0  0  0  0  0  0  0
   36.5600   29.4720   51.1730 C   0  0  0  0  0  0  0  0  0  0  0  0
   37.6980   29.7780   51.9670 N   0  0  0  0  0  0  0  0  0  0  0  0
   35.4300   29.2140   51.6320 O   0  0  0  0  0  0  0  0  0  0  0  0
   37.2410   32.4917   50.4268 H   0  0  0  0  0  0  0  0  0  0  0  0
   39.0348   34.1018   49.6583 H   0  0  0  0  0  0  0  0  0  0  0  0
   38.1900   33.5899   44.5354 H   0  0  0  0  0  0  0  0  0  0  0  0
   39.7652   32.8422   42.4883 H   0  0  0  0  0  0  0  0  0  0  0  0
   40.8753   30.5373   45.9231 H   0  0  0  0  0  0  0  0  0  0  0  0
   37.6197   29.7960   52.9939 H   0  0  0  0  0  0  0  0  0  0  0  0
   38.6012   29.9818   51.5157 H   0  0  0  0  0  0  0  0  0  0  0  0
  1 12  1  0
  1  2  2  0
  3  2  1  0
  4  3  2  0
  5  6  2  0
  5  4  1  0
  6  1  1  0
  7  5  1  0
  8  7  1  0
  9 10  1  0
  9  8  2  0
 10 11  2  0
 11  7  1  0
 12 14  1  0
 13 12  2  0
 14 15  1  0
 15 17  2  0
 15 16  1  0
  2 18  1  0
  3 19  1  0
  8 20  1  0
  9 21  1  0
 11 22  1  0
 16 23  1  0
 16 24  1  0
M  ISO  5  18  14  19  14  20  14  21  14  22  14
M  END
>  <minimizedAffinity>  (1) 
-5.58700848

>  <minimizedRMSD>  (1) 
1.22001815

$$$$
