
     RDKit          3D

 25 26  0  0  0  0  0  0  0  0999 V2000
   37.2730   31.3870   48.4770 C   0  0  0  0  0  0  0  0  0  0  0  0
   37.7620   32.3630   49.3610 C   0  0  0  0  0  0  0  0  0  0  0  0
   38.7490   33.2380   48.9060 C   0  0  0  0  0  0  0  0  0  0  0  0
   39.1840   33.0950   47.6180 N   0  0  0  0  0  0  0  0  0  0  0  0
   38.6910   32.1490   46.8010 C   0  0  0  0  0  0  0  0  0  0  0  0
   37.7380   31.3000   47.2350 N   0  0  0  0  0  0  0  0  0  0  0  0
   39.1900   32.0390   45.4340 C   0  0  0  0  0  0  0  0  0  0  0  0
   40.0880   31.0460   45.1040 C   0  0  0  0  0  0  0  0  0  0  0  0
   40.5770   30.9200   43.8150 C   0  0  0  0  0  0  0  0  0  0  0  0
   40.1550   31.7930   42.8820 N   0  0  0  0  0  0  0  0  0  0  0  0
   39.2730   32.7590   43.2320 C   0  0  0  0  0  0  0  0  0  0  0  0
   38.7770   32.9030   44.4940 N   0  0  0  0  0  0  0  0  0  0  0  0
   36.2470   30.4860   48.9700 C   0  0  0  0  0  0  0  0  0  0  0  0
   35.0380   30.6590   48.6610 O   0  0  0  0  0  0  0  0  0  0  0  0
   36.5990   29.4370   49.7810 O   0  0  0  0  0  0  0  0  0  0  0  0
   36.5790   29.4820   51.1710 C   0  0  0  0  0  0  0  0  0  0  0  0
   37.6910   29.7890   51.9800 N   0  0  0  0  0  0  0  0  0  0  0  0
   35.4610   29.2170   51.6450 O   0  0  0  0  0  0  0  0  0  0  0  0
   37.3757   32.4358   50.3884 H   0  0  0  0  0  0  0  0  0  0  0  0
   39.1635   34.0174   49.5623 H   0  0  0  0  0  0  0  0  0  0  0  0
   40.4220   30.3409   45.8794 H   0  0  0  0  0  0  0  0  0  0  0  0
   41.2934   30.1253   43.5596 H   0  0  0  0  0  0  0  0  0  0  0  0
   38.9390   33.4649   42.4573 H   0  0  0  0  0  0  0  0  0  0  0  0
   37.5941   29.8017   53.0054 H   0  0  0  0  0  0  0  0  0  0  0  0
   38.6008   30.0008   51.5460 H   0  0  0  0  0  0  0  0  0  0  0  0
  1 13  1  0
  1  2  2  0
  3  2  1  0
  4  3  2  0
  5  6  2  0
  5  4  1  0
  6  1  1  0
  7  5  1  0
  8  7  2  0
  9  8  1  0
 10 11  1  0
 10  9  2  0
 11 12  2  0
 12  7  1  0
 13 15  1  0
 14 13  2  0
 15 16  1  0
 16 18  2  0
 16 17  1  0
  2 19  1  0
  3 20  1  0
  8 21  1  0
  9 22  1  0
 11 23  1  0
 17 24  1  0
 17 25  1  0
M  ISO  5  19  14  20  14  21  14  22  14  23  14
M  END
>  <minimizedAffinity>  (1) 
-5.55539703

>  <minimizedRMSD>  (1) 
1.1776619

$$$$
