
     RDKit          3D

 24 25  0  0  0  0  0  0  0  0999 V2000
   37.2320   31.4710   48.6900 C   0  0  0  0  0  0  0  0  0  0  0  0
   37.4350   32.4310   49.6830 C   0  0  0  0  0  0  0  0  0  0  0  0
   38.3930   33.4250   49.4450 C   0  0  0  0  0  0  0  0  0  0  0  0
   39.0730   33.3920   48.2480 N   0  0  0  0  0  0  0  0  0  0  0  0
   38.8350   32.4510   47.3410 C   0  0  0  0  0  0  0  0  0  0  0  0
   37.9180   31.4890   47.5560 N   0  0  0  0  0  0  0  0  0  0  0  0
   39.5470   32.3990   46.0640 C   0  0  0  0  0  0  0  0  0  0  0  0
   40.0840   31.1500   45.7550 C   0  0  0  0  0  0  0  0  0  0  0  0
   40.7200   31.2590   44.5300 C   0  0  0  0  0  0  0  0  0  0  0  0
   40.5490   32.5500   44.1420 N   0  0  0  0  0  0  0  0  0  0  0  0
   39.8520   33.2340   45.0490 N   0  0  0  0  0  0  0  0  0  0  0  0
   36.2340   30.4390   48.9450 C   0  0  0  0  0  0  0  0  0  0  0  0
   35.0660   30.5510   48.4510 O   0  0  0  0  0  0  0  0  0  0  0  0
   36.5700   29.3410   49.7270 O   0  0  0  0  0  0  0  0  0  0  0  0
   36.5660   29.4050   51.1290 C   0  0  0  0  0  0  0  0  0  0  0  0
   37.7150   29.6470   51.9310 N   0  0  0  0  0  0  0  0  0  0  0  0
   35.4320   29.2240   51.6090 O   0  0  0  0  0  0  0  0  0  0  0  0
   36.8616   32.4077   50.6214 H   0  0  0  0  0  0  0  0  0  0  0  0
   38.5957   34.2075   50.1910 H   0  0  0  0  0  0  0  0  0  0  0  0
   40.0149   30.2424   46.3726 H   0  0  0  0  0  0  0  0  0  0  0  0
   41.2526   30.4660   43.9846 H   0  0  0  0  0  0  0  0  0  0  0  0
   40.9103   32.9474   43.2631 H   0  0  0  0  0  0  0  0  0  0  0  0
   37.6295   29.6791   52.9569 H   0  0  0  0  0  0  0  0  0  0  0  0
   38.6328   29.7902   51.4860 H   0  0  0  0  0  0  0  0  0  0  0  0
  1 12  1  0
  1  2  2  0
  3  2  1  0
  4  3  2  0
  5  6  2  0
  5  4  1  0
  6  1  1  0
  7  5  1  0
  8  7  1  0
  9  8  2  0
 10  9  1  0
 10 11  1  0
 11  7  2  0
 12 14  1  0
 13 12  2  0
 14 15  1  0
 15 17  2  0
 15 16  1  0
  2 18  1  0
  3 19  1  0
  8 20  1  0
  9 21  1  0
 10 22  1  0
 16 23  1  0
 16 24  1  0
M  ISO  5  18  14  19  14  20  14  21  14  22   9
M  END
>  <minimizedAffinity>  (1) 
-5.54228926

>  <minimizedRMSD>  (1) 
1.77285612

$$$$
