
     RDKit          3D

 27 28  0  0  0  0  0  0  0  0999 V2000
   37.2800   31.3440   48.4230 C   0  0  0  0  0  0  0  0  0  0  0  0
   37.8130   32.3190   49.2980 C   0  0  0  0  0  0  0  0  0  0  0  0
   38.8060   33.1650   48.7820 C   0  0  0  0  0  0  0  0  0  0  0  0
   39.1940   32.9980   47.4830 N   0  0  0  0  0  0  0  0  0  0  0  0
   38.6560   32.0550   46.6950 C   0  0  0  0  0  0  0  0  0  0  0  0
   37.7000   31.2310   47.1650 N   0  0  0  0  0  0  0  0  0  0  0  0
   39.1430   31.9640   45.3230 C   0  0  0  0  0  0  0  0  0  0  0  0
   39.0070   32.9770   44.4000 C   0  0  0  0  0  0  0  0  0  0  0  0
   39.4760   32.8720   43.1050 C   0  0  0  0  0  0  0  0  0  0  0  0
   40.0970   31.6870   42.7690 C   0  0  0  0  0  0  0  0  0  0  0  0
   40.2770   30.6130   43.6420 C   0  0  0  0  0  0  0  0  0  0  0  0
   39.7720   30.8180   44.9140 C   0  0  0  0  0  0  0  0  0  0  0  0
   36.2540   30.4730   48.9630 C   0  0  0  0  0  0  0  0  0  0  0  0
   35.0440   30.6550   48.6770 O   0  0  0  0  0  0  0  0  0  0  0  0
   36.5970   29.4360   49.7950 O   0  0  0  0  0  0  0  0  0  0  0  0
   36.5780   29.4870   51.1810 C   0  0  0  0  0  0  0  0  0  0  0  0
   37.7020   29.8090   51.9730 N   0  0  0  0  0  0  0  0  0  0  0  0
   35.4430   29.2120   51.6450 O   0  0  0  0  0  0  0  0  0  0  0  0
   37.4643   32.4099   50.3373 H   0  0  0  0  0  0  0  0  0  0  0  0
   39.2619   33.9452   49.4093 H   0  0  0  0  0  0  0  0  0  0  0  0
   38.5050   33.9066   44.7062 H   0  0  0  0  0  0  0  0  0  0  0  0
   39.3603   33.6907   42.3795 H   0  0  0  0  0  0  0  0  0  0  0  0
   40.4766   31.5812   41.7420 H   0  0  0  0  0  0  0  0  0  0  0  0
   40.7788   29.6807   43.3436 H   0  0  0  0  0  0  0  0  0  0  0  0
   39.8833   30.0051   45.6467 H   0  0  0  0  0  0  0  0  0  0  0  0
   37.6199   29.8292   52.9995 H   0  0  0  0  0  0  0  0  0  0  0  0
   38.6039   30.0236   51.5241 H   0  0  0  0  0  0  0  0  0  0  0  0
  1 13  1  0
  1  2  2  0
  3  2  1  0
  4  3  2  0
  5  6  2  0
  5  4  1  0
  6  1  1  0
  7  5  1  0
  8  7  2  0
  9  8  1  0
 10  9  2  0
 10 11  1  0
 11 12  2  0
 12  7  1  0
 13 15  1  0
 14 13  2  0
 15 16  1  0
 16 18  2  0
 16 17  1  0
  2 19  1  0
  3 20  1  0
  8 21  1  0
  9 22  1  0
 10 23  1  0
 11 24  1  0
 12 25  1  0
 17 26  1  0
 17 27  1  0
M  ISO  7  19  14  20  14  21  14  22  14  23  14  24  14  25  14
M  END
>  <minimizedAffinity>  (1) 
-5.53390884

>  <minimizedRMSD>  (1) 
1.03278148

$$$$
