
     RDKit          3D

 24 25  0  0  0  0  0  0  0  0999 V2000
   37.0060   31.3150   48.6270 C   0  0  0  0  0  0  0  0  0  0  0  0
   37.2110   32.2430   49.6740 C   0  0  0  0  0  0  0  0  0  0  0  0
   38.1960   33.2180   49.5140 C   0  0  0  0  0  0  0  0  0  0  0  0
   38.9130   33.2200   48.3450 N   0  0  0  0  0  0  0  0  0  0  0  0
   38.6840   32.3150   47.3700 C   0  0  0  0  0  0  0  0  0  0  0  0
   37.7350   31.3740   47.5220 N   0  0  0  0  0  0  0  0  0  0  0  0
   39.4890   32.3800   46.1500 C   0  0  0  0  0  0  0  0  0  0  0  0
   40.3040   31.3830   45.6520 C   0  0  0  0  0  0  0  0  0  0  0  0
   40.8290   31.9190   44.5110 N   0  0  0  0  0  0  0  0  0  0  0  0
   40.3700   33.1510   44.3270 C   0  0  0  0  0  0  0  0  0  0  0  0
   39.5390   33.4490   45.3340 N   0  0  0  0  0  0  0  0  0  0  0  0
   35.9710   30.3110   48.8180 C   0  0  0  0  0  0  0  0  0  0  0  0
   34.8100   30.5380   48.3390 O   0  0  0  0  0  0  0  0  0  0  0  0
   36.2460   29.1560   49.4970 O   0  0  0  0  0  0  0  0  0  0  0  0
   36.5360   29.1440   50.8730 C   0  0  0  0  0  0  0  0  0  0  0  0
   37.8400   29.0230   51.4030 N   0  0  0  0  0  0  0  0  0  0  0  0
   35.5180   29.2510   51.5900 O   0  0  0  0  0  0  0  0  0  0  0  0
   36.6081   32.1973   50.5929 H   0  0  0  0  0  0  0  0  0  0  0  0
   38.3913   33.9616   50.3007 H   0  0  0  0  0  0  0  0  0  0  0  0
   40.4882   30.3853   46.0770 H   0  0  0  0  0  0  0  0  0  0  0  0
   40.6286   33.8149   43.4889 H   0  0  0  0  0  0  0  0  0  0  0  0
   39.0304   34.3356   45.4610 H   0  0  0  0  0  0  0  0  0  0  0  0
   37.9832   29.0211   52.4230 H   0  0  0  0  0  0  0  0  0  0  0  0
   38.6475   28.9367   50.7694 H   0  0  0  0  0  0  0  0  0  0  0  0
  1 12  1  0
  1  2  2  0
  3  2  1  0
  4  3  2  0
  5  6  2  0
  5  4  1  0
  6  1  1  0
  7  5  1  0
  8  7  2  0
  9  8  1  0
 10  9  2  0
 10 11  1  0
 11  7  1  0
 12 14  1  0
 13 12  2  0
 14 15  1  0
 15 16  1  0
 15 17  2  0
  2 18  1  0
  3 19  1  0
  8 20  1  0
 10 21  1  0
 11 22  1  0
 16 23  1  0
 16 24  1  0
M  ISO  5  18  14  19  14  20  14  21  14  22   9
M  END
>  <minimizedAffinity>  (1) 
-5.50620413

>  <minimizedRMSD>  (1) 
1.78331017

$$$$
