
     RDKit          3D

 45 48  0  0  0  0  0  0  0  0999 V2000
   29.5860   27.6610   47.3280 C   0  0  0  0  0  0  0  0  0  0  0  0
   30.4010   28.3360   46.4810 C   0  0  0  0  0  0  0  0  0  0  0  0
   31.7040   28.6550   46.7890 C   0  0  0  0  0  0  0  0  0  0  0  0
   32.2170   28.2830   48.0020 C   0  0  0  0  0  0  0  0  0  0  0  0
   31.3780   27.5950   48.8610 C   0  0  0  0  0  0  0  0  0  0  0  0
   30.0780   27.2760   48.5560 C   0  0  0  0  0  0  0  0  0  0  0  0
   35.3360   29.7650   48.5600 C   0  0  0  0  0  0  0  0  0  0  0  0
   35.5090   28.6420   49.3630 C   0  0  0  0  0  0  0  0  0  0  0  0
   34.3690   27.8830   49.2980 C   0  0  0  0  0  0  0  0  0  0  0  0
   33.5330   28.5320   48.4780 N   0  0  0  0  0  0  0  0  0  0  0  0
   34.0940   29.6290   48.0470 N   0  0  0  0  0  0  0  0  0  0  0  0
   37.7650   32.4880   49.1820 C   0  0  0  0  0  0  0  0  0  0  0  0
   38.3730   32.5730   47.9270 C   0  0  0  0  0  0  0  0  0  0  0  0
   37.9540   31.7240   46.9220 C   0  0  0  0  0  0  0  0  0  0  0  0
   36.9590   30.8360   47.2040 N   0  0  0  0  0  0  0  0  0  0  0  0
   36.3840   30.7700   48.4240 C   0  0  0  0  0  0  0  0  0  0  0  0
   36.7760   31.5910   49.4290 N   0  0  0  0  0  0  0  0  0  0  0  0
   27.9340   27.2640   46.9670 S   0  0  0  0  0  0  0  0  0  0  0  0
   27.8580   26.5900   45.6280 O   0  0  0  0  0  0  0  0  0  0  0  0
   27.4150   26.3690   48.0380 O   0  0  0  0  0  0  0  0  0  0  0  0
   26.8500   31.6560   46.5810 N   0  0  0  0  0  0  0  0  0  0  0  0
   27.5870   30.8090   45.6790 C   0  0  0  0  0  0  0  0  0  0  0  0
   26.9390   29.4270   45.6070 C   0  0  0  0  0  0  0  0  0  0  0  0
   26.9060   28.7270   46.9260 C   0  0  0  0  0  0  0  0  0  0  0  0
   27.4280   29.7370   47.9590 C   0  0  0  0  0  0  0  0  0  0  0  0
   26.5850   30.9800   47.8220 C   0  0  0  0  0  0  0  0  0  0  0  0
   30.0028   28.6429   45.5026 H   0  0  0  0  0  0  0  0  0  0  0  0
   32.3269   29.2036   46.0672 H   0  0  0  0  0  0  0  0  0  0  0  0
   31.7737   27.2874   49.8402 H   0  0  0  0  0  0  0  0  0  0  0  0
   29.4471   26.7286   49.2717 H   0  0  0  0  0  0  0  0  0  0  0  0
   36.4079   28.4035   49.9504 H   0  0  0  0  0  0  0  0  0  0  0  0
   34.1792   26.9313   49.8159 H   0  0  0  0  0  0  0  0  0  0  0  0
   38.0943   33.1617   49.9867 H   0  0  0  0  0  0  0  0  0  0  0  0
   39.1731   33.3050   47.7424 H   0  0  0  0  0  0  0  0  0  0  0  0
   38.4103   31.7631   45.9219 H   0  0  0  0  0  0  0  0  0  0  0  0
   25.9556   31.9176   46.1423 H   0  0  0  0  0  0  0  0  0  0  0  0
   27.5906   31.2616   44.6764 H   0  0  0  0  0  0  0  0  0  0  0  0
   28.6184   30.7038   46.0465 H   0  0  0  0  0  0  0  0  0  0  0  0
   25.9064   29.5427   45.2459 H   0  0  0  0  0  0  0  0  0  0  0  0
   27.5470   28.8143   44.9251 H   0  0  0  0  0  0  0  0  0  0  0  0
   25.8795   28.3893   47.1317 H   0  0  0  0  0  0  0  0  0  0  0  0
   27.3309   29.3242   48.9740 H   0  0  0  0  0  0  0  0  0  0  0  0
   28.4910   29.9616   47.7873 H   0  0  0  0  0  0  0  0  0  0  0  0
   26.8113   31.6603   48.6562 H   0  0  0  0  0  0  0  0  0  0  0  0
   25.5255   30.6848   47.8375 H   0  0  0  0  0  0  0  0  0  0  0  0
  1  6  2  0
  2  3  2  0
  2  1  1  0
  3  4  1  0
  4 10  1  0
  4  5  2  0
  6  5  1  0
  7  8  1  0
  9  8  2  0
 10  9  1  0
 11 10  1  0
 11  7  2  0
 12 17  2  0
 13 12  1  0
 14 15  1  0
 14 13  2  0
 15 16  2  0
 16  7  1  0
 16 17  1  0
 18  1  1  0
 18 20  2  0
 19 18  2  0
 21 26  1  0
 22 21  1  0
 23 22  1  0
 23 24  1  0
 24 18  1  0
 24 25  1  0
 26 25  1  0
  2 27  1  0
  3 28  1  0
  5 29  1  0
  6 30  1  0
  8 31  1  0
  9 32  1  0
 12 33  1  0
 13 34  1  0
 14 35  1  0
 21 36  1  0
 22 37  1  0
 22 38  1  0
 23 39  1  0
 23 40  1  0
 24 41  1  0
 25 42  1  0
 25 43  1  0
 26 44  1  0
 26 45  1  0
M  ISO  8  27  14  28  14  29  14  30  14  31  14  32  14  33  14  34  14
M  ISO  8  35  14  36   5  37  13  38  13  39  13  40  13  41  13  42  13
M  ISO  3  43  13  44  13  45  13
M  END
>  <minimizedAffinity>  (1) 
-6.22193146

>  <minimizedRMSD>  (1) 
2.41960335

$$$$
