
     RDKit          3D

 20 20  0  0  0  0  0  0  0  0999 V2000
   37.4070   31.3480   48.5150 C   0  0  0  0  0  0  0  0  0  0  0  0
   37.5760   32.4290   49.3890 C   0  0  0  0  0  0  0  0  0  0  0  0
   38.5480   33.3940   49.1090 C   0  0  0  0  0  0  0  0  0  0  0  0
   39.2940   33.2150   47.9650 N   0  0  0  0  0  0  0  0  0  0  0  0
   39.0950   32.1720   47.1680 C   0  0  0  0  0  0  0  0  0  0  0  0
   38.1560   31.2230   47.4220 N   0  0  0  0  0  0  0  0  0  0  0  0
   39.9180   31.9940   45.9240 C   0  0  0  0  0  0  0  0  0  0  0  0
   40.7490   30.9020   46.0640 F   0  0  0  0  0  0  0  0  0  0  0  0
   39.1420   31.9470   44.7970 F   0  0  0  0  0  0  0  0  0  0  0  0
   40.7110   33.1410   45.8490 F   0  0  0  0  0  0  0  0  0  0  0  0
   36.3860   30.3720   48.8460 C   0  0  0  0  0  0  0  0  0  0  0  0
   35.2190   30.4820   48.3510 O   0  0  0  0  0  0  0  0  0  0  0  0
   36.7000   29.3240   49.7010 O   0  0  0  0  0  0  0  0  0  0  0  0
   36.6150   29.4470   51.0940 C   0  0  0  0  0  0  0  0  0  0  0  0
   37.7020   29.7820   51.9300 N   0  0  0  0  0  0  0  0  0  0  0  0
   35.4720   29.2320   51.5340 O   0  0  0  0  0  0  0  0  0  0  0  0
   36.9491   32.5181   50.2885 H   0  0  0  0  0  0  0  0  0  0  0  0
   38.7097   34.2568   49.7719 H   0  0  0  0  0  0  0  0  0  0  0  0
   37.5652   29.8548   52.9483 H   0  0  0  0  0  0  0  0  0  0  0  0
   38.6319   29.9537   51.5217 H   0  0  0  0  0  0  0  0  0  0  0  0
  1 11  1  0
  1  2  2  0
  3  2  1  0
  4  3  2  0
  5  6  2  0
  5  4  1  0
  6  1  1  0
  7  8  1  0
  7  5  1  0
  9  7  1  0
 10  7  1  0
 11 13  1  0
 12 11  2  0
 13 14  1  0
 14 16  2  0
 14 15  1  0
  2 17  1  0
  3 18  1  0
 15 19  1  0
 15 20  1  0
M  ISO  2  17  14  18  14
M  END
>  <minimizedAffinity>  (1) 
-5.35373592

>  <minimizedRMSD>  (1) 
1.45585477

$$$$
