
     RDKit          3D

 23 23  0  0  0  0  0  0  0  0999 V2000
   37.4850   31.5560   48.5170 C   0  0  0  0  0  0  0  0  0  0  0  0
   37.6630   32.5410   49.4880 C   0  0  0  0  0  0  0  0  0  0  0  0
   38.6290   33.5240   49.2410 C   0  0  0  0  0  0  0  0  0  0  0  0
   39.3310   33.4570   48.0730 N   0  0  0  0  0  0  0  0  0  0  0  0
   39.1270   32.4870   47.1600 C   0  0  0  0  0  0  0  0  0  0  0  0
   38.1970   31.5240   47.3780 N   0  0  0  0  0  0  0  0  0  0  0  0
   36.4820   30.5250   48.7650 C   0  0  0  0  0  0  0  0  0  0  0  0
   35.3400   30.5870   48.2440 O   0  0  0  0  0  0  0  0  0  0  0  0
   36.8010   29.4560   49.5930 O   0  0  0  0  0  0  0  0  0  0  0  0
   36.6380   29.4810   50.9730 C   0  0  0  0  0  0  0  0  0  0  0  0
   37.7150   29.7830   51.8580 N   0  0  0  0  0  0  0  0  0  0  0  0
   35.4720   29.2140   51.3530 O   0  0  0  0  0  0  0  0  0  0  0  0
   39.9660   32.5380   45.9310 C   0  0  0  0  0  0  0  0  0  0  0  0
   40.6040   31.2270   45.6110 C   0  0  0  0  0  0  0  0  0  0  0  0
   37.0672   32.5455   50.4127 H   0  0  0  0  0  0  0  0  0  0  0  0
   38.8167   34.3277   49.9682 H   0  0  0  0  0  0  0  0  0  0  0  0
   37.5579   29.7925   52.8759 H   0  0  0  0  0  0  0  0  0  0  0  0
   38.6498   29.9916   51.4792 H   0  0  0  0  0  0  0  0  0  0  0  0
   39.3306   32.8357   45.0839 H   0  0  0  0  0  0  0  0  0  0  0  0
   40.7729   33.2637   46.1109 H   0  0  0  0  0  0  0  0  0  0  0  0
   40.8580   30.7051   46.5454 H   0  0  0  0  0  0  0  0  0  0  0  0
   39.9045   30.6119   45.0259 H   0  0  0  0  0  0  0  0  0  0  0  0
   41.5197   31.3979   45.0259 H   0  0  0  0  0  0  0  0  0  0  0  0
  1  7  1  0
  1  2  2  0
  3  2  1  0
  4  3  2  0
  5  6  2  0
  5  4  1  0
  6  1  1  0
  7  9  1  0
  8  7  2  0
  9 10  1  0
 10 12  2  0
 10 11  1  0
 13  5  1  0
 14 13  1  0
  2 15  1  0
  3 16  1  0
 11 17  1  0
 11 18  1  0
 13 19  1  0
 13 20  1  0
 14 21  1  0
 14 22  1  0
 14 23  1  0
M  ISO  7  15  14  16  14  19   8  20   8  21   8  22   8  23   8
M  END
>  <minimizedAffinity>  (1) 
-4.90439367

>  <minimizedRMSD>  (1) 
1.28837633

$$$$
