
     RDKit          3D

 19 19  0  0  0  0  0  0  0  0999 V2000
   37.1860   31.0970   47.9510 C   0  0  0  0  0  0  0  0  0  0  0  0
   38.0480   31.9210   48.6900 C   0  0  0  0  0  0  0  0  0  0  0  0
   38.9870   32.6950   48.0170 C   0  0  0  0  0  0  0  0  0  0  0  0
   39.0090   32.6010   46.6380 N   0  0  0  0  0  0  0  0  0  0  0  0
   38.1760   31.8090   45.9710 C   0  0  0  0  0  0  0  0  0  0  0  0
   37.2520   31.0450   46.6160 N   0  0  0  0  0  0  0  0  0  0  0  0
   38.1860   31.7000   44.5520 N   0  0  0  0  0  0  0  0  0  0  0  0
   36.2180   30.3010   48.6780 C   0  0  0  0  0  0  0  0  0  0  0  0
   34.9780   30.4940   48.4980 O   0  0  0  0  0  0  0  0  0  0  0  0
   36.6460   29.3300   49.5690 O   0  0  0  0  0  0  0  0  0  0  0  0
   36.6330   29.5040   50.9490 C   0  0  0  0  0  0  0  0  0  0  0  0
   37.7510   29.9370   51.7050 N   0  0  0  0  0  0  0  0  0  0  0  0
   35.5200   29.2310   51.4440 O   0  0  0  0  0  0  0  0  0  0  0  0
   37.9820   31.9544   49.7875 H   0  0  0  0  0  0  0  0  0  0  0  0
   39.6821   33.3535   48.5585 H   0  0  0  0  0  0  0  0  0  0  0  0
   38.8586   32.2492   43.9980 H   0  0  0  0  0  0  0  0  0  0  0  0
   37.5206   31.0720   44.0790 H   0  0  0  0  0  0  0  0  0  0  0  0
   37.6716   30.0448   52.7263 H   0  0  0  0  0  0  0  0  0  0  0  0
   38.6429   30.1438   51.2331 H   0  0  0  0  0  0  0  0  0  0  0  0
  1  8  1  0
  1  2  2  0
  3  2  1  0
  4  3  2  0
  5  6  2  0
  5  4  1  0
  6  1  1  0
  7  5  1  0
  8 10  1  0
  9  8  2  0
 10 11  1  0
 11 13  2  0
 11 12  1  0
  2 14  1  0
  3 15  1  0
  7 16  1  0
  7 17  1  0
 12 18  1  0
 12 19  1  0
M  ISO  2  14  14  15  14
M  END
>  <minimizedAffinity>  (1) 
-4.28690577

>  <minimizedRMSD>  (1) 
0.0244292393

$$$$
