
     RDKit          3D

 34 36  0  0  0  0  0  0  0  0999 V2000
   37.2090   31.2490   48.4850 C   0  0  0  0  0  0  0  0  0  0  0  0
   37.6130   32.3390   49.3060 C   0  0  0  0  0  0  0  0  0  0  0  0
   38.6240   33.1630   48.8260 C   0  0  0  0  0  0  0  0  0  0  0  0
   39.1700   32.8740   47.5880 N   0  0  0  0  0  0  0  0  0  0  0  0
   38.7560   31.8490   46.8680 C   0  0  0  0  0  0  0  0  0  0  0  0
   37.7680   31.0200   47.3060 N   0  0  0  0  0  0  0  0  0  0  0  0
   39.3470   31.5560   45.5550 C   0  0  0  0  0  0  0  0  0  0  0  0
   40.0350   32.4820   44.8040 C   0  0  0  0  0  0  0  0  0  0  0  0
   40.4480   31.8600   43.6330 C   0  0  0  0  0  0  0  0  0  0  0  0
   39.9760   30.5700   43.7460 C   0  0  0  0  0  0  0  0  0  0  0  0
   39.3320   30.4280   44.8960 O   0  0  0  0  0  0  0  0  0  0  0  0
   40.1580   29.5240   42.7560 C   0  0  0  0  0  0  0  0  0  0  0  0
   39.3730   28.3970   42.6840 C   0  0  0  0  0  0  0  0  0  0  0  0
   39.5850   27.4160   41.7130 C   0  0  0  0  0  0  0  0  0  0  0  0
   40.6140   27.5530   40.7780 C   0  0  0  0  0  0  0  0  0  0  0  0
   41.4120   28.6740   40.8330 C   0  0  0  0  0  0  0  0  0  0  0  0
   41.1610   29.6130   41.8120 C   0  0  0  0  0  0  0  0  0  0  0  0
   36.1460   30.3960   49.0070 C   0  0  0  0  0  0  0  0  0  0  0  0
   34.9390   30.6370   48.7080 O   0  0  0  0  0  0  0  0  0  0  0  0
   36.4760   29.3230   49.8310 O   0  0  0  0  0  0  0  0  0  0  0  0
   36.5050   29.4330   51.2190 C   0  0  0  0  0  0  0  0  0  0  0  0
   37.6660   29.7540   51.9450 N   0  0  0  0  0  0  0  0  0  0  0  0
   35.4090   29.2240   51.7740 O   0  0  0  0  0  0  0  0  0  0  0  0
   37.1429   32.5224   50.2834 H   0  0  0  0  0  0  0  0  0  0  0  0
   38.9804   34.0215   49.4143 H   0  0  0  0  0  0  0  0  0  0  0  0
   40.2242   33.5293   45.0821 H   0  0  0  0  0  0  0  0  0  0  0  0
   41.0220   32.2978   42.8030 H   0  0  0  0  0  0  0  0  0  0  0  0
   38.5572   28.2650   43.4099 H   0  0  0  0  0  0  0  0  0  0  0  0
   38.9364   26.5280   41.6841 H   0  0  0  0  0  0  0  0  0  0  0  0
   40.7834   26.7808   40.0131 H   0  0  0  0  0  0  0  0  0  0  0  0
   42.2309   28.8174   40.1127 H   0  0  0  0  0  0  0  0  0  0  0  0
   41.8099   30.5007   41.8426 H   0  0  0  0  0  0  0  0  0  0  0  0
   37.6288   29.8219   52.9721 H   0  0  0  0  0  0  0  0  0  0  0  0
   38.5534   29.9212   51.4496 H   0  0  0  0  0  0  0  0  0  0  0  0
  1 18  1  0
  1  2  2  0
  3  2  1  0
  4  3  2  0
  5  6  2  0
  5  4  1  0
  6  1  1  0
  7  5  1  0
  8  7  2  0
  9 10  2  0
  9  8  1  0
 10 11  1  0
 11  7  1  0
 12 10  1  0
 13 12  2  0
 14 13  1  0
 15 16  1  0
 15 14  2  0
 16 17  2  0
 17 12  1  0
 18 20  1  0
 19 18  2  0
 20 21  1  0
 21 23  2  0
 21 22  1  0
  2 24  1  0
  3 25  1  0
  8 26  1  0
  9 27  1  0
 13 28  1  0
 14 29  1  0
 15 30  1  0
 16 31  1  0
 17 32  1  0
 22 33  1  0
 22 34  1  0
M  ISO  8  24  14  25  14  26  14  27  14  28  14  29  14  30  14  31  14
M  ISO  1  32  14
M  END
>  <minimizedAffinity>  (1) 
-5.95957088

>  <minimizedRMSD>  (1) 
3.01920915

$$$$
