
     RDKit          3D

 29 30  0  0  0  0  0  0  0  0999 V2000
   46.9030   33.1680   42.9060 C   0  0  0  0  0  0  0  0  0  0  0  0
   45.7340   35.3550   42.9590 C   0  0  0  0  0  0  0  0  0  0  0  0
   46.0830   34.1390   43.6010 C   0  0  0  0  0  0  0  0  0  0  0  0
   45.5880   33.9760   44.8910 C   0  0  0  0  0  0  0  0  0  0  0  0
   44.8300   34.9380   45.4540 N   0  0  0  0  0  0  0  0  0  0  0  0
   44.5240   36.0830   44.7980 C   0  0  0  0  0  0  0  0  0  0  0  0
   44.9790   36.2920   43.5450 N   0  0  0  0  0  0  0  0  0  0  0  0
   48.3500   33.4490   43.2270 C   0  0  0  0  0  0  0  0  0  0  0  0
   49.1380   33.9410   42.0530 C   0  0  0  0  0  0  0  0  0  0  0  0
   48.9900   33.1590   40.8020 C   0  0  0  0  0  0  0  0  0  0  0  0
   49.8540   31.9300   40.9440 C   0  0  0  0  0  0  0  0  0  0  0  0
   51.0220   32.4510   41.7240 C   0  0  0  0  0  0  0  0  0  0  0  0
   50.6140   33.7300   42.4040 C   0  0  0  0  0  0  0  0  0  0  0  0
   46.7400   33.2526   41.8214 H   0  0  0  0  0  0  0  0  0  0  0  0
   46.6359   32.1500   43.2260 H   0  0  0  0  0  0  0  0  0  0  0  0
   46.0991   35.5353   41.9371 H   0  0  0  0  0  0  0  0  0  0  0  0
   45.8161   33.0587   45.4536 H   0  0  0  0  0  0  0  0  0  0  0  0
   43.9018   36.8458   45.2890 H   0  0  0  0  0  0  0  0  0  0  0  0
   48.3892   34.2131   44.0174 H   0  0  0  0  0  0  0  0  0  0  0  0
   48.8017   32.4973   43.5436 H   0  0  0  0  0  0  0  0  0  0  0  0
   48.7889   34.9693   41.8775 H   0  0  0  0  0  0  0  0  0  0  0  0
   49.3230   33.7573   39.9411 H   0  0  0  0  0  0  0  0  0  0  0  0
   47.9387   32.8821   40.6347 H   0  0  0  0  0  0  0  0  0  0  0  0
   49.3294   31.1354   41.4948 H   0  0  0  0  0  0  0  0  0  0  0  0
   50.1337   31.4741   39.9828 H   0  0  0  0  0  0  0  0  0  0  0  0
   51.3235   31.7099   42.4789 H   0  0  0  0  0  0  0  0  0  0  0  0
   51.8705   32.6384   41.0495 H   0  0  0  0  0  0  0  0  0  0  0  0
   51.2192   34.5703   42.0330 H   0  0  0  0  0  0  0  0  0  0  0  0
   50.7660   33.6747   43.4920 H   0  0  0  0  0  0  0  0  0  0  0  0
  1  8  1  0
  1  3  1  0
  2  7  2  0
  2  3  1  0
  3  4  2  0
  4  5  1  0
  6  5  2  0
  7  6  1  0
  9 13  1  0
  9  8  1  0
 10 11  1  0
 10  9  1  0
 11 12  1  0
 12 13  1  0
  1 14  1  0
  1 15  1  0
  2 16  1  0
  4 17  1  0
  6 18  1  0
  8 19  1  0
  8 20  1  0
  9 21  1  0
 10 22  1  0
 10 23  1  0
 11 24  1  0
 11 25  1  0
 12 26  1  0
 12 27  1  0
 13 28  1  0
 13 29  1  0
M  ISO  8  14   8  15   8  16  14  17  14  18  14  19   8  20   8  21  13
M  ISO  8  22  13  23  13  24  13  25  13  26  13  27  13  28  13  29  13
M  END
>  <minimizedAffinity>  (1) 
-4.00979757

>  <minimizedRMSD>  (1) 
2.42819977

$$$$
