
     RDKit          3D

 35 37  0  0  1  0  0  0  0  0999 V2000
   46.4960   33.2820   40.8860 C   0  0  0  0  0  0  0  0  0  0  0  0
   45.4140   33.2510   39.9040 C   0  0  0  0  0  0  0  0  0  0  0  0
   44.1010   33.2940   40.2480 C   0  0  0  0  0  0  0  0  0  0  0  0
   43.3770   33.2470   39.1120 N   0  0  0  0  0  0  0  0  0  0  0  0
   44.2250   33.1760   38.0690 C   0  0  0  0  0  0  0  0  0  0  0  0
   45.4730   33.1790   38.5680 N   0  0  0  0  0  0  0  0  0  0  0  0
   47.4420   34.3260   37.7660 N   0  0  0  0  0  0  0  0  0  0  0  0
   48.7210   33.9260   37.2200 C   0  0  0  0  0  0  0  0  0  0  0  0
   48.8980   32.4520   37.4770 C   0  0  0  0  0  0  0  0  0  0  0  0
   47.6950   32.1510   38.3720 C   0  0  0  0  0  0  0  0  0  0  0  0
   46.6780   33.1140   37.7660 C   0  0  1  0  0  0  0  0  0  0  0  0
   46.7910   34.6860   41.3970 C   0  0  0  0  0  0  0  0  0  0  0  0
   46.2730   33.9080   43.6550 C   0  0  0  0  0  0  0  0  0  0  0  0
   46.1150   34.8670   42.6580 C   0  0  0  0  0  0  0  0  0  0  0  0
   45.2930   35.9590   42.9610 C   0  0  0  0  0  0  0  0  0  0  0  0
   44.7090   36.0160   44.1910 N   0  0  0  0  0  0  0  0  0  0  0  0
   44.9000   35.0480   45.1270 C   0  0  0  0  0  0  0  0  0  0  0  0
   45.6810   33.9940   44.8610 N   0  0  0  0  0  0  0  0  0  0  0  0
   47.4067   32.8801   40.4179 H   0  0  0  0  0  0  0  0  0  0  0  0
   46.1779   32.6767   41.7476 H   0  0  0  0  0  0  0  0  0  0  0  0
   43.7001   33.3561   41.2705 H   0  0  0  0  0  0  0  0  0  0  0  0
   43.9480   33.1250   37.0057 H   0  0  0  0  0  0  0  0  0  0  0  0
   47.5495   34.6923   38.7227 H   0  0  0  0  0  0  0  0  0  0  0  0
   49.5285   34.4897   37.7100 H   0  0  0  0  0  0  0  0  0  0  0  0
   48.7561   34.1319   36.1400 H   0  0  0  0  0  0  0  0  0  0  0  0
   48.8579   31.8736   36.5422 H   0  0  0  0  0  0  0  0  0  0  0  0
   49.8673   32.1885   37.9254 H   0  0  0  0  0  0  0  0  0  0  0  0
   47.3706   31.1036   38.2838 H   0  0  0  0  0  0  0  0  0  0  0  0
   47.8723   32.2771   39.4503 H   0  0  0  0  0  0  0  0  0  0  0  0
   46.2931   32.8424   36.7720 H   0  0  0  0  0  0  0  0  0  0  0  0
   47.8751   34.8097   41.5364 H   0  0  0  0  0  0  0  0  0  0  0  0
   46.4382   35.4327   40.6704 H   0  0  0  0  0  0  0  0  0  0  0  0
   46.9127   33.0377   43.4471 H   0  0  0  0  0  0  0  0  0  0  0  0
   45.1220   36.7549   42.2212 H   0  0  0  0  0  0  0  0  0  0  0  0
   44.4099   35.1317   46.1082 H   0  0  0  0  0  0  0  0  0  0  0  0
  1 12  1  0
  2  3  2  0
  2  1  1  0
  4  3  1  0
  5  6  1  0
  5  4  2  0
  6  2  1  0
  8  9  1  0
  8  7  1  0
  9 10  1  0
 11  7  1  0
 11 10  1  0
 11  6  1  0
 12 14  1  0
 13 18  2  0
 14 15  2  0
 14 13  1  0
 15 16  1  0
 16 17  2  0
 18 17  1  0
  1 19  1  0
  1 20  1  0
  3 21  1  0
  5 22  1  0
  7 23  1  0
  8 24  1  0
  8 25  1  0
  9 26  1  0
  9 27  1  0
 10 28  1  0
 10 29  1  0
 11 30  1  6
 12 31  1  0
 12 32  1  0
 13 33  1  0
 15 34  1  0
 17 35  1  0
M  ISO  8  19   8  20   8  21  14  22  14  23   5  24  13  25  13  26  13
M  ISO  8  27  13  28  13  29  13  30  13  31   8  32   8  33  14  34  14
M  ISO  1  35  14
M  END
>  <minimizedAffinity>  (1) 
-4.20232105

>  <minimizedRMSD>  (1) 
5.54220772

$$$$
