
     RDKit          3D

 47 50  0  0  1  0  0  0  0  0999 V2000
   45.7280   35.1220   41.9580 C   0  0  0  0  0  0  0  0  0  0  0  0
   44.6970   34.6150   41.0480 C   0  0  0  0  0  0  0  0  0  0  0  0
   43.3850   34.9790   41.1340 C   0  0  0  0  0  0  0  0  0  0  0  0
   42.7290   34.3620   40.1490 N   0  0  0  0  0  0  0  0  0  0  0  0
   43.5930   33.6240   39.4540 C   0  0  0  0  0  0  0  0  0  0  0  0
   44.7950   33.7850   40.0120 N   0  0  0  0  0  0  0  0  0  0  0  0
   47.0800   34.0300   39.2370 N   0  0  0  0  0  0  0  0  0  0  0  0
   48.2480   33.1660   39.2210 C   0  0  0  0  0  0  0  0  0  0  0  0
   48.0050   32.0420   40.2120 C   0  0  0  0  0  0  0  0  0  0  0  0
   46.5700   32.2800   40.6300 C   0  0  0  0  0  0  0  0  0  0  0  0
   46.0350   33.1530   39.6010 C   0  0  1  0  0  0  0  0  0  0  0  0
   45.1040   35.8010   43.1620 C   0  0  0  0  0  0  0  0  0  0  0  0
   46.2090   33.8980   44.2620 C   0  0  0  0  0  0  0  0  0  0  0  0
   45.3160   34.9610   44.3120 C   0  0  0  0  0  0  0  0  0  0  0  0
   44.6180   35.1920   45.5140 C   0  0  0  0  0  0  0  0  0  0  0  0
   44.8670   34.3460   46.5560 N   0  0  0  0  0  0  0  0  0  0  0  0
   45.7440   33.3240   46.4580 C   0  0  0  0  0  0  0  0  0  0  0  0
   46.4200   33.0920   45.3160 N   0  0  0  0  0  0  0  0  0  0  0  0
   45.9440   32.4890   47.5940 N   0  0  0  0  0  0  0  0  0  0  0  0
   44.9150   31.7030   48.2490 C   0  0  0  0  0  0  0  0  0  0  0  0
   45.6370   30.3870   48.4450 C   0  0  0  0  0  0  0  0  0  0  0  0
   47.0260   30.8270   48.8360 C   0  0  0  0  0  0  0  0  0  0  0  0
   47.1850   32.2600   48.3100 C   0  0  0  0  0  0  0  0  0  0  0  0
   46.3563   35.8480   41.4211 H   0  0  0  0  0  0  0  0  0  0  0  0
   46.3337   34.2735   42.3090 H   0  0  0  0  0  0  0  0  0  0  0  0
   42.9470   35.6582   41.8802 H   0  0  0  0  0  0  0  0  0  0  0  0
   43.3591   32.9972   38.5809 H   0  0  0  0  0  0  0  0  0  0  0  0
   46.9111   34.4400   38.3073 H   0  0  0  0  0  0  0  0  0  0  0  0
   48.3933   32.7513   38.2126 H   0  0  0  0  0  0  0  0  0  0  0  0
   49.1500   33.7328   39.4952 H   0  0  0  0  0  0  0  0  0  0  0  0
   48.1221   31.0582   39.7341 H   0  0  0  0  0  0  0  0  0  0  0  0
   48.7127   32.0386   41.0541 H   0  0  0  0  0  0  0  0  0  0  0  0
   46.0125   31.3324   40.6652 H   0  0  0  0  0  0  0  0  0  0  0  0
   46.4933   32.7201   41.6352 H   0  0  0  0  0  0  0  0  0  0  0  0
   45.7245   32.5970   38.7041 H   0  0  0  0  0  0  0  0  0  0  0  0
   45.5774   36.7806   43.3240 H   0  0  0  0  0  0  0  0  0  0  0  0
   44.0274   35.9540   42.9964 H   0  0  0  0  0  0  0  0  0  0  0  0
   46.7612   33.7101   43.3294 H   0  0  0  0  0  0  0  0  0  0  0  0
   43.9011   36.0209   45.6089 H   0  0  0  0  0  0  0  0  0  0  0  0
   44.6177   32.1476   49.2102 H   0  0  0  0  0  0  0  0  0  0  0  0
   43.9753   31.6245   47.6826 H   0  0  0  0  0  0  0  0  0  0  0  0
   45.1693   29.7929   49.2440 H   0  0  0  0  0  0  0  0  0  0  0  0
   45.6177   29.7412   47.5547 H   0  0  0  0  0  0  0  0  0  0  0  0
   47.1383   30.8077   49.9301 H   0  0  0  0  0  0  0  0  0  0  0  0
   47.7916   30.1584   48.4155 H   0  0  0  0  0  0  0  0  0  0  0  0
   48.0502   32.3390   47.6353 H   0  0  0  0  0  0  0  0  0  0  0  0
   47.3650   32.9953   49.1080 H   0  0  0  0  0  0  0  0  0  0  0  0
  1 12  1  0
  2  3  2  0
  2  1  1  0
  4  3  1  0
  5  6  1  0
  5  4  2  0
  6  2  1  0
  7 11  1  0
  8  7  1  0
  8  9  1  0
  9 10  1  0
 11  6  1  0
 11 10  1  0
 12 14  1  0
 13 14  2  0
 13 18  1  0
 14 15  1  0
 15 16  2  0
 17 16  1  0
 17 19  1  0
 18 17  2  0
 19 20  1  0
 19 23  1  0
 20 21  1  0
 21 22  1  0
 23 22  1  0
  1 24  1  0
  1 25  1  0
  3 26  1  0
  5 27  1  0
  7 28  1  0
  8 29  1  0
  8 30  1  0
  9 31  1  0
  9 32  1  0
 10 33  1  0
 10 34  1  0
 11 35  1  6
 12 36  1  0
 12 37  1  0
 13 38  1  0
 15 39  1  0
 20 40  1  0
 20 41  1  0
 21 42  1  0
 21 43  1  0
 22 44  1  0
 22 45  1  0
 23 46  1  0
 23 47  1  0
M  ISO  8  24   8  25   8  26  14  27  14  28   5  29  13  30  13  31  13
M  ISO  8  32  13  33  13  34  13  35  13  36   8  37   8  38  14  39  14
M  ISO  8  40  13  41  13  42  13  43  13  44  13  45  13  46  13  47  13
M  END
>  <minimizedAffinity>  (1) 
-5.67212248

>  <minimizedRMSD>  (1) 
2.7252717

$$$$
