
     RDKit          3D

 42 45  0  0  1  0  0  0  0  0999 V2000
   45.7490   35.0160   42.0140 C   0  0  0  0  0  0  0  0  0  0  0  0
   44.7190   34.6160   41.0820 C   0  0  0  0  0  0  0  0  0  0  0  0
   43.4350   35.0900   41.1670 C   0  0  0  0  0  0  0  0  0  0  0  0
   42.7320   34.5350   40.1640 N   0  0  0  0  0  0  0  0  0  0  0  0
   43.5370   33.7360   39.4640 C   0  0  0  0  0  0  0  0  0  0  0  0
   44.7500   33.7940   40.0350 N   0  0  0  0  0  0  0  0  0  0  0  0
   46.9910   33.9560   39.1260 N   0  0  0  0  0  0  0  0  0  0  0  0
   48.1230   33.0810   39.0230 C   0  0  0  0  0  0  0  0  0  0  0  0
   47.8490   31.8860   39.8580 C   0  0  0  0  0  0  0  0  0  0  0  0
   46.5300   32.2500   40.5830 C   0  0  0  0  0  0  0  0  0  0  0  0
   45.9470   33.1060   39.6240 C   0  0  1  0  0  0  0  0  0  0  0  0
   45.1820   35.7850   43.1960 C   0  0  0  0  0  0  0  0  0  0  0  0
   46.2550   33.8880   44.3290 C   0  0  0  0  0  0  0  0  0  0  0  0
   45.3550   34.9690   44.3780 C   0  0  0  0  0  0  0  0  0  0  0  0
   44.6250   35.1790   45.5600 C   0  0  0  0  0  0  0  0  0  0  0  0
   44.8370   34.3030   46.6050 N   0  0  0  0  0  0  0  0  0  0  0  0
   45.7110   33.2830   46.4910 C   0  0  0  0  0  0  0  0  0  0  0  0
   46.4320   33.0530   45.3720 N   0  0  0  0  0  0  0  0  0  0  0  0
   45.8330   32.4300   47.6750 C   0  0  0  0  0  0  0  0  0  0  0  0
   44.8380   31.6870   48.2790 C   0  0  0  0  0  0  0  0  0  0  0  0
   45.4230   31.0350   49.3730 C   0  0  0  0  0  0  0  0  0  0  0  0
   46.7340   31.4060   49.3870 N   0  0  0  0  0  0  0  0  0  0  0  0
   46.9650   32.2300   48.3790 N   0  0  0  0  0  0  0  0  0  0  0  0
   46.4736   35.6558   41.4890 H   0  0  0  0  0  0  0  0  0  0  0  0
   46.2287   34.1048   42.4009 H   0  0  0  0  0  0  0  0  0  0  0  0
   43.0504   35.7953   41.9184 H   0  0  0  0  0  0  0  0  0  0  0  0
   43.2588   33.1400   38.5823 H   0  0  0  0  0  0  0  0  0  0  0  0
   46.7412   34.3431   38.2048 H   0  0  0  0  0  0  0  0  0  0  0  0
   48.2693   32.7799   37.9752 H   0  0  0  0  0  0  0  0  0  0  0  0
   49.0351   33.5901   39.3678 H   0  0  0  0  0  0  0  0  0  0  0  0
   47.7203   30.9901   39.2329 H   0  0  0  0  0  0  0  0  0  0  0  0
   48.6693   31.6494   40.5516 H   0  0  0  0  0  0  0  0  0  0  0  0
   45.9081   31.3617   40.7681 H   0  0  0  0  0  0  0  0  0  0  0  0
   46.6590   32.6944   41.5809 H   0  0  0  0  0  0  0  0  0  0  0  0
   45.5379   32.4934   38.8071 H   0  0  0  0  0  0  0  0  0  0  0  0
   45.7202   36.7368   43.3162 H   0  0  0  0  0  0  0  0  0  0  0  0
   44.1168   36.0071   43.0348 H   0  0  0  0  0  0  0  0  0  0  0  0
   46.8333   33.7190   43.4086 H   0  0  0  0  0  0  0  0  0  0  0  0
   43.9109   36.0109   45.6491 H   0  0  0  0  0  0  0  0  0  0  0  0
   43.7868   31.6197   47.9620 H   0  0  0  0  0  0  0  0  0  0  0  0
   44.9226   30.3576   50.0806 H   0  0  0  0  0  0  0  0  0  0  0  0
   47.4346   31.0938   50.0744 H   0  0  0  0  0  0  0  0  0  0  0  0
  1 12  1  0
  2  3  2  0
  2  1  1  0
  4  3  1  0
  5  6  1  0
  5  4  2  0
  6  2  1  0
  7 11  1  0
  8  7  1  0
  8  9  1  0
  9 10  1  0
 11  6  1  0
 11 10  1  0
 12 14  1  0
 13 14  2  0
 13 18  1  0
 14 15  1  0
 15 16  2  0
 17 16  1  0
 17 19  1  0
 18 17  2  0
 19 20  1  0
 19 23  2  0
 20 21  2  0
 21 22  1  0
 23 22  1  0
  1 24  1  0
  1 25  1  0
  3 26  1  0
  5 27  1  0
  7 28  1  0
  8 29  1  0
  8 30  1  0
  9 31  1  0
  9 32  1  0
 10 33  1  0
 10 34  1  0
 11 35  1  6
 12 36  1  0
 12 37  1  0
 13 38  1  0
 15 39  1  0
 20 40  1  0
 21 41  1  0
 22 42  1  0
M  ISO  8  24   8  25   8  26  14  27  14  28   5  29  13  30  13  31  13
M  ISO  8  32  13  33  13  34  13  35  13  36   8  37   8  38  14  39  14
M  ISO  3  40  14  41  14  42   9
M  END
>  <minimizedAffinity>  (1) 
-5.79494572

>  <minimizedRMSD>  (1) 
2.82584453

$$$$
