
     RDKit          3D

 42 44  0  0  1  0  0  0  0  0999 V2000
   46.8760   33.6920   41.0360 C   0  0  0  0  0  0  0  0  0  0  0  0
   45.7500   33.4860   40.1510 C   0  0  0  0  0  0  0  0  0  0  0  0
   44.4530   33.5460   40.5920 C   0  0  0  0  0  0  0  0  0  0  0  0
   43.6510   33.3250   39.5400 N   0  0  0  0  0  0  0  0  0  0  0  0
   44.4150   33.1310   38.4650 C   0  0  0  0  0  0  0  0  0  0  0  0
   45.6960   33.2310   38.8460 N   0  0  0  0  0  0  0  0  0  0  0  0
   47.5950   34.3160   37.7880 N   0  0  0  0  0  0  0  0  0  0  0  0
   48.8260   33.8820   37.2010 C   0  0  0  0  0  0  0  0  0  0  0  0
   49.0200   32.4400   37.5340 C   0  0  0  0  0  0  0  0  0  0  0  0
   47.8120   32.1390   38.4590 C   0  0  0  0  0  0  0  0  0  0  0  0
   46.8750   33.0960   38.0250 C   0  0  1  0  0  0  0  0  0  0  0  0
   46.8180   35.0540   41.7150 C   0  0  0  0  0  0  0  0  0  0  0  0
   46.7250   33.8370   43.8250 C   0  0  0  0  0  0  0  0  0  0  0  0
   46.2530   34.8650   43.0300 C   0  0  0  0  0  0  0  0  0  0  0  0
   45.2380   35.6580   43.5460 C   0  0  0  0  0  0  0  0  0  0  0  0
   44.7690   35.3790   44.7950 N   0  0  0  0  0  0  0  0  0  0  0  0
   45.2520   34.3680   45.5430 C   0  0  0  0  0  0  0  0  0  0  0  0
   46.2240   33.6070   45.0510 N   0  0  0  0  0  0  0  0  0  0  0  0
   44.7560   34.0790   46.8510 N   0  0  0  0  0  0  0  0  0  0  0  0
   45.2960   33.0040   47.6040 C   0  0  0  0  0  0  0  0  0  0  0  0
   46.5610   32.7640   47.5660 N   0  0  0  0  0  0  0  0  0  0  0  0
   44.4600   32.1840   48.4090 N   0  0  0  0  0  0  0  0  0  0  0  0
   47.2810   33.2610   47.0440 H   0  0  0  0  0  0  0  0  0  0  0  0
   47.8055   33.6244   40.4517 H   0  0  0  0  0  0  0  0  0  0  0  0
   46.8438   32.9182   41.8171 H   0  0  0  0  0  0  0  0  0  0  0  0
   44.1282   33.7407   41.6247 H   0  0  0  0  0  0  0  0  0  0  0  0
   44.0572   32.9252   37.4454 H   0  0  0  0  0  0  0  0  0  0  0  0
   47.0765   34.9276   37.1415 H   0  0  0  0  0  0  0  0  0  0  0  0
   49.6604   34.4731   37.6064 H   0  0  0  0  0  0  0  0  0  0  0  0
   48.7951   34.0187   36.1100 H   0  0  0  0  0  0  0  0  0  0  0  0
   48.9914   31.8163   36.6284 H   0  0  0  0  0  0  0  0  0  0  0  0
   49.9923   32.2268   38.0020 H   0  0  0  0  0  0  0  0  0  0  0  0
   47.4381   31.1153   38.3099 H   0  0  0  0  0  0  0  0  0  0  0  0
   48.0458   32.1976   39.5323 H   0  0  0  0  0  0  0  0  0  0  0  0
   46.4147   32.7497   37.0879 H   0  0  0  0  0  0  0  0  0  0  0  0
   47.8311   35.4740   41.7993 H   0  0  0  0  0  0  0  0  0  0  0  0
   46.2025   35.7514   41.1278 H   0  0  0  0  0  0  0  0  0  0  0  0
   47.5304   33.1914   43.4449 H   0  0  0  0  0  0  0  0  0  0  0  0
   44.8219   36.4916   42.9612 H   0  0  0  0  0  0  0  0  0  0  0  0
   44.0012   34.6548   47.2505 H   0  0  0  0  0  0  0  0  0  0  0  0
   44.8669   31.4075   48.9498 H   0  0  0  0  0  0  0  0  0  0  0  0
   43.4471   32.3661   48.4517 H   0  0  0  0  0  0  0  0  0  0  0  0
  1 12  1  0
  2  3  2  0
  2  1  1  0
  4  3  1  0
  5  6  1  0
  5  4  2  0
  6  2  1  0
  7 11  1  0
  8  9  1  0
  8  7  1  0
  9 10  1  0
 11 10  1  0
 11  6  1  0
 12 14  1  0
 13 18  2  0
 14 15  2  0
 14 13  1  0
 15 16  1  0
 16 17  2  0
 17 19  1  0
 18 17  1  0
 19 20  1  0
 20 22  1  0
 21 20  2  0
 23 21  1  0
  1 24  1  0
  1 25  1  0
  3 26  1  0
  5 27  1  0
  7 28  1  0
  8 29  1  0
  8 30  1  0
  9 31  1  0
  9 32  1  0
 10 33  1  0
 10 34  1  0
 11 35  1  6
 12 36  1  0
 12 37  1  0
 13 38  1  0
 15 39  1  0
 19 40  1  0
 22 41  1  0
 22 42  1  0
M  ISO  8  24   8  25   8  26  14  27  14  28   5  29  13  30  13  31  13
M  ISO  8  32  13  33  13  34  13  35  13  36   8  37   8  38  14  39  14
M  END
>  <minimizedAffinity>  (1) 
-6.12186337

>  <minimizedRMSD>  (1) 
0.73922348

$$$$
