
     RDKit          3D

 40 43  0  0  1  0  0  0  0  0999 V2000
   46.5320   34.1770   41.1270 C   0  0  0  0  0  0  0  0  0  0  0  0
   45.4810   33.7430   40.2280 C   0  0  0  0  0  0  0  0  0  0  0  0
   44.1540   33.8100   40.5750 C   0  0  0  0  0  0  0  0  0  0  0  0
   43.4410   33.3480   39.5280 N   0  0  0  0  0  0  0  0  0  0  0  0
   44.2880   33.0030   38.5590 C   0  0  0  0  0  0  0  0  0  0  0  0
   45.5320   33.2460   38.9940 N   0  0  0  0  0  0  0  0  0  0  0  0
   47.4130   34.2210   37.8050 N   0  0  0  0  0  0  0  0  0  0  0  0
   48.7020   33.7510   37.3810 C   0  0  0  0  0  0  0  0  0  0  0  0
   49.0040   32.4830   38.1100 C   0  0  0  0  0  0  0  0  0  0  0  0
   47.7440   32.2920   38.9940 C   0  0  0  0  0  0  0  0  0  0  0  0
   46.7700   33.0240   38.2840 C   0  0  1  0  0  0  0  0  0  0  0  0
   46.0260   35.2140   42.1190 C   0  0  0  0  0  0  0  0  0  0  0  0
   47.0060   33.6250   43.7090 C   0  0  0  0  0  0  0  0  0  0  0  0
   46.0440   34.6090   43.4340 C   0  0  0  0  0  0  0  0  0  0  0  0
   45.1250   34.9400   44.4440 C   0  0  0  0  0  0  0  0  0  0  0  0
   45.2270   34.2740   45.6350 N   0  0  0  0  0  0  0  0  0  0  0  0
   46.1700   33.3330   45.8490 C   0  0  0  0  0  0  0  0  0  0  0  0
   47.0690   32.9940   44.9000 N   0  0  0  0  0  0  0  0  0  0  0  0
   46.1820   32.6870   47.1600 C   0  0  0  0  0  0  0  0  0  0  0  0
   47.2920   32.2660   47.8060 N   0  0  0  0  0  0  0  0  0  0  0  0
   47.0010   31.7310   48.9510 O   0  0  0  0  0  0  0  0  0  0  0  0
   45.6780   31.7820   49.0970 C   0  0  0  0  0  0  0  0  0  0  0  0
   45.1480   32.3760   47.9890 N   0  0  0  0  0  0  0  0  0  0  0  0
   47.3487   34.6169   40.5358 H   0  0  0  0  0  0  0  0  0  0  0  0
   46.8846   33.3021   41.6928 H   0  0  0  0  0  0  0  0  0  0  0  0
   43.7478   34.1734   41.5305 H   0  0  0  0  0  0  0  0  0  0  0  0
   44.0146   32.5916   37.5761 H   0  0  0  0  0  0  0  0  0  0  0  0
   46.8914   34.6309   37.0171 H   0  0  0  0  0  0  0  0  0  0  0  0
   48.6909   33.5630   36.2972 H   0  0  0  0  0  0  0  0  0  0  0  0
   49.4710   34.5061   37.6010 H   0  0  0  0  0  0  0  0  0  0  0  0
   49.1293   31.6432   37.4107 H   0  0  0  0  0  0  0  0  0  0  0  0
   49.9404   32.5221   38.6859 H   0  0  0  0  0  0  0  0  0  0  0  0
   47.4677   31.2301   39.0709 H   0  0  0  0  0  0  0  0  0  0  0  0
   47.8781   32.6267   40.0332 H   0  0  0  0  0  0  0  0  0  0  0  0
   46.4107   32.4264   37.4333 H   0  0  0  0  0  0  0  0  0  0  0  0
   46.6807   36.0978   42.1040 H   0  0  0  0  0  0  0  0  0  0  0  0
   45.0072   35.5347   41.8558 H   0  0  0  0  0  0  0  0  0  0  0  0
   47.7330   33.3592   42.9275 H   0  0  0  0  0  0  0  0  0  0  0  0
   44.3522   35.7061   44.2833 H   0  0  0  0  0  0  0  0  0  0  0  0
   45.1103   31.4092   49.9623 H   0  0  0  0  0  0  0  0  0  0  0  0
  1 12  1  0
  2  3  2  0
  2  1  1  0
  4  3  1  0
  5  6  1  0
  5  4  2  0
  6  2  1  0
  7 11  1  0
  8  7  1  0
  8  9  1  0
  9 10  1  0
 11 10  1  0
 11  6  1  0
 12 14  1  0
 13 18  2  0
 14 13  1  0
 14 15  2  0
 15 16  1  0
 16 17  2  0
 17 19  1  0
 18 17  1  0
 19 20  2  0
 19 23  1  0
 20 21  1  0
 21 22  1  0
 23 22  2  0
  1 24  1  0
  1 25  1  0
  3 26  1  0
  5 27  1  0
  7 28  1  0
  8 29  1  0
  8 30  1  0
  9 31  1  0
  9 32  1  0
 10 33  1  0
 10 34  1  0
 11 35  1  6
 12 36  1  0
 12 37  1  0
 13 38  1  0
 15 39  1  0
 22 40  1  0
M  ISO  8  24   8  25   8  26  14  27  14  28   5  29  13  30  13  31  13
M  ISO  8  32  13  33  13  34  13  35  13  36   8  37   8  38  14  39  14
M  ISO  1  40  14
M  END
>  <minimizedAffinity>  (1) 
-5.41455126

>  <minimizedRMSD>  (1) 
2.17054009

$$$$
