
     RDKit          3D

 41 43  0  0  1  0  0  0  0  0999 V2000
   45.2580   33.9110   40.4180 C   0  0  0  0  0  0  0  0  0  0  0  0
   43.9220   34.0060   40.7020 C   0  0  0  0  0  0  0  0  0  0  0  0
   43.2420   33.4840   39.6610 N   0  0  0  0  0  0  0  0  0  0  0  0
   44.1210   33.0720   38.7490 C   0  0  0  0  0  0  0  0  0  0  0  0
   45.3460   33.3380   39.2190 N   0  0  0  0  0  0  0  0  0  0  0  0
   47.1750   34.1950   37.8630 N   0  0  0  0  0  0  0  0  0  0  0  0
   48.5070   33.7540   37.5480 C   0  0  0  0  0  0  0  0  0  0  0  0
   48.8510   32.6350   38.4630 C   0  0  0  0  0  0  0  0  0  0  0  0
   47.6220   32.5670   39.4080 C   0  0  0  0  0  0  0  0  0  0  0  0
   46.6060   33.0690   38.5670 C   0  0  1  0  0  0  0  0  0  0  0  0
   46.2680   34.3920   41.3290 C   0  0  0  0  0  0  0  0  0  0  0  0
   45.6700   35.2540   42.4380 C   0  0  0  0  0  0  0  0  0  0  0  0
   46.8990   33.6290   43.7700 C   0  0  0  0  0  0  0  0  0  0  0  0
   45.8600   34.5690   43.6900 C   0  0  0  0  0  0  0  0  0  0  0  0
   45.0710   34.7570   44.8250 C   0  0  0  0  0  0  0  0  0  0  0  0
   45.3510   34.0230   45.9330 N   0  0  0  0  0  0  0  0  0  0  0  0
   46.3600   33.1260   45.9710 C   0  0  0  0  0  0  0  0  0  0  0  0
   47.1430   32.9210   44.8910 N   0  0  0  0  0  0  0  0  0  0  0  0
   46.5850   32.3710   47.2310 C   0  0  0  0  0  0  0  0  0  0  0  0
   45.3080   32.2940   48.0730 C   0  0  0  0  0  0  0  0  0  0  0  0
   43.4820   34.4319   41.6158 H   0  0  0  0  0  0  0  0  0  0  0  0
   43.8835   32.5990   37.7847 H   0  0  0  0  0  0  0  0  0  0  0  0
   46.6426   34.4006   37.0056 H   0  0  0  0  0  0  0  0  0  0  0  0
   48.5484   33.4086   36.5045 H   0  0  0  0  0  0  0  0  0  0  0  0
   49.2216   34.5810   37.6718 H   0  0  0  0  0  0  0  0  0  0  0  0
   48.9751   31.6938   37.9074 H   0  0  0  0  0  0  0  0  0  0  0  0
   49.8006   32.7876   38.9968 H   0  0  0  0  0  0  0  0  0  0  0  0
   47.4117   31.5343   39.7232 H   0  0  0  0  0  0  0  0  0  0  0  0
   47.7443   33.1205   40.3507 H   0  0  0  0  0  0  0  0  0  0  0  0
   46.2984   32.2911   37.8526 H   0  0  0  0  0  0  0  0  0  0  0  0
   46.7764   33.5292   41.7842 H   0  0  0  0  0  0  0  0  0  0  0  0
   46.9744   35.0126   40.7582 H   0  0  0  0  0  0  0  0  0  0  0  0
   46.1773   36.2296   42.4662 H   0  0  0  0  0  0  0  0  0  0  0  0
   44.5984   35.4210   42.2543 H   0  0  0  0  0  0  0  0  0  0  0  0
   47.5358   33.4644   42.8883 H   0  0  0  0  0  0  0  0  0  0  0  0
   44.2431   35.4813   44.8227 H   0  0  0  0  0  0  0  0  0  0  0  0
   46.9120   31.3504   46.9830 H   0  0  0  0  0  0  0  0  0  0  0  0
   47.3540   32.8964   47.8163 H   0  0  0  0  0  0  0  0  0  0  0  0
   45.5714   32.3099   49.1409 H   0  0  0  0  0  0  0  0  0  0  0  0
   44.6636   33.1549   47.8414 H   0  0  0  0  0  0  0  0  0  0  0  0
   44.7718   31.3619   47.8414 H   0  0  0  0  0  0  0  0  0  0  0  0
  1  2  2  0
  1 11  1  0
  3  2  1  0
  4  5  1  0
  4  3  2  0
  5  1  1  0
  6 10  1  0
  7  6  1  0
  7  8  1  0
  8  9  1  0
 10  5  1  0
 10  9  1  0
 11 12  1  0
 12 14  1  0
 13 18  2  0
 14 13  1  0
 14 15  2  0
 15 16  1  0
 16 17  2  0
 17 19  1  0
 18 17  1  0
 19 20  1  0
  2 21  1  0
  4 22  1  0
  6 23  1  0
  7 24  1  0
  7 25  1  0
  8 26  1  0
  8 27  1  0
  9 28  1  0
  9 29  1  0
 10 30  1  6
 11 31  1  0
 11 32  1  0
 12 33  1  0
 12 34  1  0
 13 35  1  0
 15 36  1  0
 19 37  1  0
 19 38  1  0
 20 39  1  0
 20 40  1  0
 20 41  1  0
M  ISO  8  21  14  22  14  23   5  24  13  25  13  26  13  27  13  28  13
M  ISO  8  29  13  30  13  31   8  32   8  33   8  34   8  35  14  36  14
M  ISO  5  37   8  38   8  39   8  40   8  41   8
M  END
>  <minimizedAffinity>  (1) 
-4.69086838

>  <minimizedRMSD>  (1) 
1.83372056

$$$$
