
     RDKit          3D

 42 45  0  0  1  0  0  0  0  0999 V2000
   45.5640   34.0700   40.5190 C   0  0  0  0  0  0  0  0  0  0  0  0
   45.0860   34.6610   41.6550 C   0  0  0  0  0  0  0  0  0  0  0  0
   43.7670   34.3970   41.7440 N   0  0  0  0  0  0  0  0  0  0  0  0
   43.4120   33.6540   40.6880 C   0  0  0  0  0  0  0  0  0  0  0  0
   44.5210   33.4650   39.9500 N   0  0  0  0  0  0  0  0  0  0  0  0
   45.0340   33.5620   37.5960 N   0  0  0  0  0  0  0  0  0  0  0  0
   45.3090   32.6100   36.5430 C   0  0  0  0  0  0  0  0  0  0  0  0
   45.3550   31.2830   37.1820 C   0  0  0  0  0  0  0  0  0  0  0  0
   45.4810   31.6070   38.6890 C   0  0  0  0  0  0  0  0  0  0  0  0
   44.6240   32.7450   38.7050 C   0  0  1  0  0  0  0  0  0  0  0  0
   46.9420   34.1710   40.1420 C   0  0  0  0  0  0  0  0  0  0  0  0
   47.8330   34.6870   41.2790 C   0  0  0  0  0  0  0  0  0  0  0  0
   48.8450   32.5410   40.7310 C   0  0  0  0  0  0  0  0  0  0  0  0
   48.9110   33.7430   41.4640 C   0  0  0  0  0  0  0  0  0  0  0  0
   49.9820   33.9250   42.3440 C   0  0  0  0  0  0  0  0  0  0  0  0
   50.9110   32.9130   42.4440 N   0  0  0  0  0  0  0  0  0  0  0  0
   50.7890   31.7840   41.7170 C   0  0  0  0  0  0  0  0  0  0  0  0
   49.7740   31.5780   40.8610 N   0  0  0  0  0  0  0  0  0  0  0  0
   51.8810   30.7420   41.9220 C   0  0  0  0  0  0  0  0  0  0  0  0
   52.7140   30.5560   40.9230 C   0  0  0  0  0  0  0  0  0  0  0  0
   53.7560   29.6790   40.8950 C   0  0  0  0  0  0  0  0  0  0  0  0
   53.8220   28.9650   42.1430 C   0  0  0  0  0  0  0  0  0  0  0  0
   52.3570   29.6830   43.1610 S   0  0  0  0  0  0  0  0  0  0  0  0
   45.6757   35.2503   42.3726 H   0  0  0  0  0  0  0  0  0  0  0  0
   42.4050   33.2710   40.4661 H   0  0  0  0  0  0  0  0  0  0  0  0
   44.2808   34.2074   37.3185 H   0  0  0  0  0  0  0  0  0  0  0  0
   46.2748   32.8369   36.0679 H   0  0  0  0  0  0  0  0  0  0  0  0
   44.5376   32.6484   35.7598 H   0  0  0  0  0  0  0  0  0  0  0  0
   44.4341   30.7171   36.9780 H   0  0  0  0  0  0  0  0  0  0  0  0
   46.1803   30.6584   36.8094 H   0  0  0  0  0  0  0  0  0  0  0  0
   45.1069   30.7917   39.3256 H   0  0  0  0  0  0  0  0  0  0  0  0
   46.5009   31.7584   39.0722 H   0  0  0  0  0  0  0  0  0  0  0  0
   43.5840   32.4018   38.6022 H   0  0  0  0  0  0  0  0  0  0  0  0
   47.2980   33.1747   39.8411 H   0  0  0  0  0  0  0  0  0  0  0  0
   47.0072   34.8943   39.3158 H   0  0  0  0  0  0  0  0  0  0  0  0
   48.2417   35.6735   41.0148 H   0  0  0  0  0  0  0  0  0  0  0  0
   47.2498   34.7880   42.2062 H   0  0  0  0  0  0  0  0  0  0  0  0
   48.0094   32.3864   40.0325 H   0  0  0  0  0  0  0  0  0  0  0  0
   50.0796   34.8462   42.9371 H   0  0  0  0  0  0  0  0  0  0  0  0
   52.5546   31.1674   40.0225 H   0  0  0  0  0  0  0  0  0  0  0  0
   54.4427   29.5379   40.0473 H   0  0  0  0  0  0  0  0  0  0  0  0
   54.5421   28.1899   42.4441 H   0  0  0  0  0  0  0  0  0  0  0  0
  1  2  2  0
  2  3  1  0
  4  3  2  0
  5  1  1  0
  5  4  1  0
  6 10  1  0
  7  8  1  0
  7  6  1  0
  8  9  1  0
  9 10  1  0
 10  5  1  0
 11  1  1  0
 11 12  1  0
 12 14  1  0
 13 18  2  0
 13 14  1  0
 14 15  2  0
 15 16  1  0
 17 19  1  0
 17 16  2  0
 18 17  1  0
 19 23  1  0
 20 19  2  0
 21 20  1  0
 21 22  2  0
 22 23  1  0
  2 24  1  0
  4 25  1  0
  6 26  1  0
  7 27  1  0
  7 28  1  0
  8 29  1  0
  8 30  1  0
  9 31  1  0
  9 32  1  0
 10 33  1  6
 11 34  1  0
 11 35  1  0
 12 36  1  0
 12 37  1  0
 13 38  1  0
 15 39  1  0
 20 40  1  0
 21 41  1  0
 22 42  1  0
M  ISO  8  24  14  25  14  26   5  27  13  28  13  29  13  30  13  31  13
M  ISO  8  32  13  33  13  34   8  35   8  36   8  37   8  38  14  39  14
M  ISO  3  40  14  41  14  42  14
M  END
>  <minimizedAffinity>  (1) 
-3.9460988

>  <minimizedRMSD>  (1) 
6.76758337

$$$$
