
     RDKit          3D

 23 24  0  0  0  0  0  0  0  0999 V2000
   46.7070   34.8120   42.0400 C   0  0  0  0  0  0  0  0  0  0  0  0
   47.9790   35.3270   41.9640 C   0  0  0  0  0  0  0  0  0  0  0  0
   48.7570   35.2120   40.8070 C   0  0  0  0  0  0  0  0  0  0  0  0
   48.2370   34.5550   39.6830 C   0  0  0  0  0  0  0  0  0  0  0  0
   46.9500   34.0350   39.7610 C   0  0  0  0  0  0  0  0  0  0  0  0
   46.2350   34.1790   40.9240 C   0  0  0  0  0  0  0  0  0  0  0  0
   44.4570   36.0810   44.7650 C   0  0  0  0  0  0  0  0  0  0  0  0
   45.1150   36.0440   43.5240 C   0  0  0  0  0  0  0  0  0  0  0  0
   45.9690   34.9740   43.2740 C   0  0  0  0  0  0  0  0  0  0  0  0
   46.1330   34.0230   44.2230 N   0  0  0  0  0  0  0  0  0  0  0  0
   45.4790   34.0920   45.4140 C   0  0  0  0  0  0  0  0  0  0  0  0
   44.6510   35.1120   45.6770 N   0  0  0  0  0  0  0  0  0  0  0  0
   44.8860   33.6240   40.9800 C   0  0  0  0  0  0  0  0  0  0  0  0
   44.6610   32.4430   41.3590 O   0  0  0  0  0  0  0  0  0  0  0  0
   43.7440   34.3290   40.6280 O   0  0  0  0  0  0  0  0  0  0  0  0
   48.3979   35.8452   42.8392 H   0  0  0  0  0  0  0  0  0  0  0  0
   49.7720   35.6351   40.7793 H   0  0  0  0  0  0  0  0  0  0  0  0
   48.8318   34.4536   38.7633 H   0  0  0  0  0  0  0  0  0  0  0  0
   46.5088   33.5131   38.8990 H   0  0  0  0  0  0  0  0  0  0  0  0
   43.7747   36.9130   44.9934 H   0  0  0  0  0  0  0  0  0  0  0  0
   44.9602   36.8346   42.7750 H   0  0  0  0  0  0  0  0  0  0  0  0
   45.6312   33.3044   46.1667 H   0  0  0  0  0  0  0  0  0  0  0  0
   42.8562   33.8951   40.6882 H   0  0  0  0  0  0  0  0  0  0  0  0
  1  9  1  0
  2  1  2  0
  3  2  1  0
  4  5  1  0
  4  3  2  0
  5  6  2  0
  6 13  1  0
  6  1  1  0
  7 12  2  0
  8  7  1  0
  9  8  2  0
  9 10  1  0
 10 11  2  0
 11 12  1  0
 13 14  2  0
 15 13  1  0
  2 16  1  0
  3 17  1  0
  4 18  1  0
  5 19  1  0
  7 20  1  0
  8 21  1  0
 11 22  1  0
 15 23  1  0
M  ISO  8  16  14  17  14  18  14  19  14  20  14  21  14  22  14  23   3
M  END
>  <minimizedAffinity>  (1) 
-5.12818623

>  <minimizedRMSD>  (1) 
0.318561345

$$$$
