
     RDKit          3D

 41 43  0  0  1  0  0  0  0  0999 V2000
   46.9500   33.8630   40.9620 C   0  0  0  0  0  0  0  0  0  0  0  0
   45.7900   33.5920   40.1370 C   0  0  0  0  0  0  0  0  0  0  0  0
   44.5260   33.6610   40.6230 C   0  0  0  0  0  0  0  0  0  0  0  0
   43.6830   33.3910   39.6170 N   0  0  0  0  0  0  0  0  0  0  0  0
   44.4040   33.1560   38.5210 C   0  0  0  0  0  0  0  0  0  0  0  0
   45.7010   33.2790   38.8460 N   0  0  0  0  0  0  0  0  0  0  0  0
   47.3590   34.2700   37.3800 N   0  0  0  0  0  0  0  0  0  0  0  0
   48.6130   33.8380   36.8250 C   0  0  0  0  0  0  0  0  0  0  0  0
   49.0560   32.6310   37.5670 C   0  0  0  0  0  0  0  0  0  0  0  0
   47.9150   32.3790   38.5900 C   0  0  0  0  0  0  0  0  0  0  0  0
   46.8670   33.0930   38.0090 C   0  0  1  0  0  0  0  0  0  0  0  0
   46.6850   34.9910   41.9480 C   0  0  0  0  0  0  0  0  0  0  0  0
   47.3170   33.4040   43.6730 C   0  0  0  0  0  0  0  0  0  0  0  0
   46.5000   34.4450   43.2520 C   0  0  0  0  0  0  0  0  0  0  0  0
   45.5060   34.8860   44.1030 C   0  0  0  0  0  0  0  0  0  0  0  0
   45.3920   34.2530   45.3150 N   0  0  0  0  0  0  0  0  0  0  0  0
   46.1900   33.2510   45.6930 C   0  0  0  0  0  0  0  0  0  0  0  0
   47.1720   32.8130   44.8640 N   0  0  0  0  0  0  0  0  0  0  0  0
   45.9590   32.6490   47.0260 C   0  0  0  0  0  0  0  0  0  0  0  0
   44.8590   33.2480   47.6230 F   0  0  0  0  0  0  0  0  0  0  0  0
   45.5690   31.3260   46.7790 F   0  0  0  0  0  0  0  0  0  0  0  0
   47.0980   32.6880   47.8050 F   0  0  0  0  0  0  0  0  0  0  0  0
   44.6140   36.0310   43.8320 C   0  0  0  0  0  0  0  0  0  0  0  0
   44.9230   36.6380   42.6170 F   0  0  0  0  0  0  0  0  0  0  0  0
   44.9010   37.0600   44.7650 F   0  0  0  0  0  0  0  0  0  0  0  0
   43.3200   35.7360   44.0160 F   0  0  0  0  0  0  0  0  0  0  0  0
   47.7914   34.1468   40.3127 H   0  0  0  0  0  0  0  0  0  0  0  0
   47.1849   32.9537   41.5346 H   0  0  0  0  0  0  0  0  0  0  0  0
   44.2428   33.8968   41.6594 H   0  0  0  0  0  0  0  0  0  0  0  0
   44.0068   32.9056   37.5262 H   0  0  0  0  0  0  0  0  0  0  0  0
   46.7175   34.5908   36.6407 H   0  0  0  0  0  0  0  0  0  0  0  0
   48.4849   33.5945   35.7600 H   0  0  0  0  0  0  0  0  0  0  0  0
   49.3640   34.6367   36.9146 H   0  0  0  0  0  0  0  0  0  0  0  0
   49.1682   31.7734   36.8873 H   0  0  0  0  0  0  0  0  0  0  0  0
   50.0351   32.7664   38.0497 H   0  0  0  0  0  0  0  0  0  0  0  0
   47.6765   31.3083   38.6721 H   0  0  0  0  0  0  0  0  0  0  0  0
   48.1550   32.6865   39.6185 H   0  0  0  0  0  0  0  0  0  0  0  0
   46.4486   32.4557   37.2161 H   0  0  0  0  0  0  0  0  0  0  0  0
   47.5424   35.6801   41.9567 H   0  0  0  0  0  0  0  0  0  0  0  0
   45.7797   35.5382   41.6464 H   0  0  0  0  0  0  0  0  0  0  0  0
   48.1138   33.0520   43.0013 H   0  0  0  0  0  0  0  0  0  0  0  0
  1 12  1  0
  2  3  2  0
  2  1  1  0
  4  3  1  0
  5  6  1  0
  5  4  2  0
  6  2  1  0
  7 11  1  0
  8  7  1  0
  8  9  1  0
  9 10  1  0
 11 10  1  0
 11  6  1  0
 12 14  1  0
 13 18  2  0
 14 13  1  0
 14 15  2  0
 15 16  1  0
 16 17  2  0
 17 19  1  0
 18 17  1  0
 19 20  1  0
 19 22  1  0
 21 19  1  0
 23 26  1  0
 23 15  1  0
 23 25  1  0
 24 23  1  0
  1 27  1  0
  1 28  1  0
  3 29  1  0
  5 30  1  0
  7 31  1  0
  8 32  1  0
  8 33  1  0
  9 34  1  0
  9 35  1  0
 10 36  1  0
 10 37  1  0
 11 38  1  6
 12 39  1  0
 12 40  1  0
 13 41  1  0
M  ISO  8  27   8  28   8  29  14  30  14  31   5  32  13  33  13  34  13
M  ISO  7  35  13  36  13  37  13  38  13  39   8  40   8  41  14
M  END
>  <minimizedAffinity>  (1) 
-6.12103701

>  <minimizedRMSD>  (1) 
0.20665653

$$$$
