
     RDKit          3D

 21 22  0  0  0  0  0  0  0  0999 V2000
   46.6610   34.7090   42.0400 C   0  0  0  0  0  0  0  0  0  0  0  0
   47.8900   35.3230   41.9090 C   0  0  0  0  0  0  0  0  0  0  0  0
   48.6320   35.2060   40.7250 C   0  0  0  0  0  0  0  0  0  0  0  0
   48.1440   34.4640   39.6580 C   0  0  0  0  0  0  0  0  0  0  0  0
   46.9230   33.8600   39.8050 C   0  0  0  0  0  0  0  0  0  0  0  0
   46.1910   33.9800   40.9820 C   0  0  0  0  0  0  0  0  0  0  0  0
   44.4650   35.9750   44.8220 C   0  0  0  0  0  0  0  0  0  0  0  0
   45.0900   35.9260   43.5630 C   0  0  0  0  0  0  0  0  0  0  0  0
   45.9570   34.8770   43.2920 C   0  0  0  0  0  0  0  0  0  0  0  0
   46.1540   33.9570   44.2540 N   0  0  0  0  0  0  0  0  0  0  0  0
   45.5470   34.0140   45.4630 C   0  0  0  0  0  0  0  0  0  0  0  0
   44.7010   35.0320   45.7380 N   0  0  0  0  0  0  0  0  0  0  0  0
   44.5920   33.1770   41.1480 S   0  0  0  0  0  0  0  0  0  0  0  0
   48.2933   35.9127   42.7455 H   0  0  0  0  0  0  0  0  0  0  0  0
   49.6082   35.7060   40.6410 H   0  0  0  0  0  0  0  0  0  0  0  0
   48.7186   34.3643   38.7253 H   0  0  0  0  0  0  0  0  0  0  0  0
   46.5125   33.2672   38.9742 H   0  0  0  0  0  0  0  0  0  0  0  0
   43.7743   36.7989   45.0548 H   0  0  0  0  0  0  0  0  0  0  0  0
   44.8956   36.7029   42.8090 H   0  0  0  0  0  0  0  0  0  0  0  0
   45.7410   33.2368   46.2168 H   0  0  0  0  0  0  0  0  0  0  0  0
   44.2923   33.0265   42.4763 H   0  0  0  0  0  0  0  0  0  0  0  0
  1  9  1  0
  2  1  2  0
  3  2  1  0
  4  5  1  0
  4  3  2  0
  5  6  2  0
  6 13  1  0
  6  1  1  0
  7 12  2  0
  8  7  1  0
  9  8  2  0
  9 10  1  0
 10 11  2  0
 11 12  1  0
  2 14  1  0
  3 15  1  0
  4 16  1  0
  5 17  1  0
  7 18  1  0
  8 19  1  0
 11 20  1  0
 13 21  1  0
M  ISO  8  14  14  15  14  16  14  17  14  18  14  19  14  20  14  21  11
M  END
>  <minimizedAffinity>  (1) 
-5.04873991

>  <minimizedRMSD>  (1) 
0.029797269

$$$$
