
     RDKit          3D

 41 43  0  0  1  0  0  0  0  0999 V2000
   45.7390   33.6640   40.1620 C   0  0  0  0  0  0  0  0  0  0  0  0
   44.4520   33.7370   40.6090 C   0  0  0  0  0  0  0  0  0  0  0  0
   43.6530   33.3940   39.5840 N   0  0  0  0  0  0  0  0  0  0  0  0
   44.4020   33.1150   38.5280 C   0  0  0  0  0  0  0  0  0  0  0  0
   45.6900   33.2800   38.8820 N   0  0  0  0  0  0  0  0  0  0  0  0
   47.3190   34.2570   37.3810 N   0  0  0  0  0  0  0  0  0  0  0  0
   48.5890   33.8490   36.8630 C   0  0  0  0  0  0  0  0  0  0  0  0
   49.1100   32.7410   37.7180 C   0  0  0  0  0  0  0  0  0  0  0  0
   47.9500   32.4890   38.7270 C   0  0  0  0  0  0  0  0  0  0  0  0
   46.8800   33.0880   38.0830 C   0  0  1  0  0  0  0  0  0  0  0  0
   46.8860   33.9890   41.0080 C   0  0  0  0  0  0  0  0  0  0  0  0
   46.5250   35.0740   42.0030 C   0  0  0  0  0  0  0  0  0  0  0  0
   47.2500   33.4740   43.6520 C   0  0  0  0  0  0  0  0  0  0  0  0
   46.3830   34.4830   43.3140 C   0  0  0  0  0  0  0  0  0  0  0  0
   45.4020   34.8700   44.2360 C   0  0  0  0  0  0  0  0  0  0  0  0
   45.3590   34.2190   45.4260 N   0  0  0  0  0  0  0  0  0  0  0  0
   46.2140   33.2360   45.7350 C   0  0  0  0  0  0  0  0  0  0  0  0
   47.1690   32.8550   44.8460 N   0  0  0  0  0  0  0  0  0  0  0  0
   46.0690   32.5950   47.0620 C   0  0  0  0  0  0  0  0  0  0  0  0
   44.9670   33.1220   47.7150 F   0  0  0  0  0  0  0  0  0  0  0  0
   45.7430   31.2590   46.7960 F   0  0  0  0  0  0  0  0  0  0  0  0
   47.2330   32.6810   47.7980 F   0  0  0  0  0  0  0  0  0  0  0  0
   44.4920   35.9490   43.8530 C   0  0  0  0  0  0  0  0  0  0  0  0
   44.1283   34.0234   41.6205 H   0  0  0  0  0  0  0  0  0  0  0  0
   44.0366   32.8039   37.5382 H   0  0  0  0  0  0  0  0  0  0  0  0
   46.6681   34.5011   36.6210 H   0  0  0  0  0  0  0  0  0  0  0  0
   48.4725   33.4965   35.8275 H   0  0  0  0  0  0  0  0  0  0  0  0
   49.2911   34.6957   36.8704 H   0  0  0  0  0  0  0  0  0  0  0  0
   49.3119   31.8418   37.1175 H   0  0  0  0  0  0  0  0  0  0  0  0
   50.0618   32.9892   38.2105 H   0  0  0  0  0  0  0  0  0  0  0  0
   47.7761   31.4132   38.8770 H   0  0  0  0  0  0  0  0  0  0  0  0
   48.1421   32.8852   39.7350 H   0  0  0  0  0  0  0  0  0  0  0  0
   46.5194   32.3610   37.3404 H   0  0  0  0  0  0  0  0  0  0  0  0
   47.1992   33.0871   41.5544 H   0  0  0  0  0  0  0  0  0  0  0  0
   47.7056   34.3514   40.3701 H   0  0  0  0  0  0  0  0  0  0  0  0
   47.3205   35.8333   42.0252 H   0  0  0  0  0  0  0  0  0  0  0  0
   45.5789   35.5502   41.7060 H   0  0  0  0  0  0  0  0  0  0  0  0
   48.0250   33.1651   42.9351 H   0  0  0  0  0  0  0  0  0  0  0  0
   44.0888   36.4271   44.7579 H   0  0  0  0  0  0  0  0  0  0  0  0
   45.0380   36.6947   43.2565 H   0  0  0  0  0  0  0  0  0  0  0  0
   43.6648   35.5367   43.2565 H   0  0  0  0  0  0  0  0  0  0  0  0
  1  2  2  0
  1 11  1  0
  3  2  1  0
  4  5  1  0
  4  3  2  0
  5  1  1  0
  6 10  1  0
  7  6  1  0
  7  8  1  0
  8  9  1  0
 10  9  1  0
 10  5  1  0
 11 12  1  0
 12 14  1  0
 13 18  2  0
 14 13  1  0
 14 15  2  0
 15 16  1  0
 16 17  2  0
 17 19  1  0
 18 17  1  0
 19 20  1  0
 19 22  1  0
 21 19  1  0
 23 15  1  0
  2 24  1  0
  4 25  1  0
  6 26  1  0
  7 27  1  0
  7 28  1  0
  8 29  1  0
  8 30  1  0
  9 31  1  0
  9 32  1  0
 10 33  1  6
 11 34  1  0
 11 35  1  0
 12 36  1  0
 12 37  1  0
 13 38  1  0
 23 39  1  0
 23 40  1  0
 23 41  1  0
M  ISO  8  24  14  25  14  26   5  27  13  28  13  29  13  30  13  31  13
M  ISO  8  32  13  33  13  34   8  35   8  36   8  37   8  38  14  39   8
M  ISO  2  40   8  41   8
M  END
>  <minimizedAffinity>  (1) 
-5.57089806

>  <minimizedRMSD>  (1) 
0.139749244

$$$$
