
     RDKit          3D

 47 49  0  0  1  0  0  0  0  0999 V2000
   45.6740   33.0820   39.6410 C   0  0  0  0  0  0  0  0  0  0  0  0
   44.3760   32.9850   40.0380 C   0  0  0  0  0  0  0  0  0  0  0  0
   43.6210   32.8360   38.9420 N   0  0  0  0  0  0  0  0  0  0  0  0
   44.4090   32.8360   37.8790 C   0  0  0  0  0  0  0  0  0  0  0  0
   45.6730   32.9870   38.3100 N   0  0  0  0  0  0  0  0  0  0  0  0
   47.4520   34.3500   37.3720 N   0  0  0  0  0  0  0  0  0  0  0  0
   48.7380   34.0920   36.8000 C   0  0  0  0  0  0  0  0  0  0  0  0
   49.1010   32.6740   37.0930 C   0  0  0  0  0  0  0  0  0  0  0  0
   47.8810   32.1410   37.9020 C   0  0  0  0  0  0  0  0  0  0  0  0
   46.8940   33.0390   37.5280 C   0  0  1  0  0  0  0  0  0  0  0  0
   46.7680   33.2860   40.5660 C   0  0  0  0  0  0  0  0  0  0  0  0
   46.5270   34.5310   41.4300 C   0  0  0  0  0  0  0  0  0  0  0  0
   47.2680   33.1770   43.2850 C   0  0  0  0  0  0  0  0  0  0  0  0
   46.3950   34.1280   42.7930 C   0  0  0  0  0  0  0  0  0  0  0  0
   45.4080   34.6360   43.6410 C   0  0  0  0  0  0  0  0  0  0  0  0
   45.3700   34.1490   44.9100 N   0  0  0  0  0  0  0  0  0  0  0  0
   46.2260   33.2250   45.3620 C   0  0  0  0  0  0  0  0  0  0  0  0
   47.1920   32.7250   44.5500 N   0  0  0  0  0  0  0  0  0  0  0  0
   46.0700   32.7710   46.7690 C   0  0  0  0  0  0  0  0  0  0  0  0
   44.9920   33.4240   47.3460 F   0  0  0  0  0  0  0  0  0  0  0  0
   45.7000   31.4270   46.6880 F   0  0  0  0  0  0  0  0  0  0  0  0
   47.2430   32.9250   47.4790 F   0  0  0  0  0  0  0  0  0  0  0  0
   44.4680   35.6230   43.2610 C   0  0  0  0  0  0  0  0  0  0  0  0
   43.7660   35.6760   41.9870 C   0  0  0  0  0  0  0  0  0  0  0  0
   45.1570   37.0010   43.4170 C   0  0  0  0  0  0  0  0  0  0  0  0
   44.0116   33.0224   41.0752 H   0  0  0  0  0  0  0  0  0  0  0  0
   44.0877   32.7314   36.8322 H   0  0  0  0  0  0  0  0  0  0  0  0
   46.8753   34.9241   36.7405 H   0  0  0  0  0  0  0  0  0  0  0  0
   49.4851   34.7671   37.2429 H   0  0  0  0  0  0  0  0  0  0  0  0
   48.7123   34.2616   35.7135 H   0  0  0  0  0  0  0  0  0  0  0  0
   49.2345   32.1028   36.1625 H   0  0  0  0  0  0  0  0  0  0  0  0
   50.0500   32.5812   37.6414 H   0  0  0  0  0  0  0  0  0  0  0  0
   47.6219   31.1128   37.6093 H   0  0  0  0  0  0  0  0  0  0  0  0
   48.0504   32.0840   38.9874 H   0  0  0  0  0  0  0  0  0  0  0  0
   46.5281   32.7142   36.5428 H   0  0  0  0  0  0  0  0  0  0  0  0
   46.8567   32.4055   41.2193 H   0  0  0  0  0  0  0  0  0  0  0  0
   47.6939   33.4307   39.9901 H   0  0  0  0  0  0  0  0  0  0  0  0
   47.3779   35.2209   41.3294 H   0  0  0  0  0  0  0  0  0  0  0  0
   45.6098   35.0416   41.1013 H   0  0  0  0  0  0  0  0  0  0  0  0
   48.0494   32.7770   42.6221 H   0  0  0  0  0  0  0  0  0  0  0  0
   43.6445   35.3226   43.9255 H   0  0  0  0  0  0  0  0  0  0  0  0
   42.6840   35.7577   42.1677 H   0  0  0  0  0  0  0  0  0  0  0  0
   44.1094   36.5508   41.4153 H   0  0  0  0  0  0  0  0  0  0  0  0
   43.9741   34.7596   41.4153 H   0  0  0  0  0  0  0  0  0  0  0  0
   45.2734   37.2338   44.4858 H   0  0  0  0  0  0  0  0  0  0  0  0
   46.1468   36.9724   42.9380 H   0  0  0  0  0  0  0  0  0  0  0  0
   44.5402   37.7757   42.9380 H   0  0  0  0  0  0  0  0  0  0  0  0
  1  2  2  0
  1 11  1  0
  3  2  1  0
  4  5  1  0
  4  3  2  0
  5  1  1  0
  6 10  1  0
  7  8  1  0
  7  6  1  0
  8  9  1  0
 10  9  1  0
 10  5  1  0
 11 12  1  0
 12 14  1  0
 13 18  2  0
 14 13  1  0
 14 15  2  0
 15 16  1  0
 16 17  2  0
 17 19  1  0
 18 17  1  0
 19 20  1  0
 19 22  1  0
 21 19  1  0
 23 25  1  0
 23 15  1  0
 24 23  1  0
  2 26  1  0
  4 27  1  0
  6 28  1  0
  7 29  1  0
  7 30  1  0
  8 31  1  0
  8 32  1  0
  9 33  1  0
  9 34  1  0
 10 35  1  6
 11 36  1  0
 11 37  1  0
 12 38  1  0
 12 39  1  0
 13 40  1  0
 23 41  1  0
 24 42  1  0
 24 43  1  0
 24 44  1  0
 25 45  1  0
 25 46  1  0
 25 47  1  0
M  ISO  8  26  14  27  14  28   5  29  13  30  13  31  13  32  13  33  13
M  ISO  8  34  13  35  13  36   8  37   8  38   8  39   8  40  14  41   8
M  ISO  6  42   8  43   8  44   8  45   8  46   8  47   8
M  END
>  <minimizedAffinity>  (1) 
-5.39961433

>  <minimizedRMSD>  (1) 
0.631660044

$$$$
