
     RDKit          3D

 39 41  0  0  1  0  0  0  0  0999 V2000
   45.8180   33.5490   40.1380 C   0  0  0  0  0  0  0  0  0  0  0  0
   44.5420   33.6260   40.6150 C   0  0  0  0  0  0  0  0  0  0  0  0
   43.7160   33.3750   39.5820 N   0  0  0  0  0  0  0  0  0  0  0  0
   44.4390   33.1460   38.4960 C   0  0  0  0  0  0  0  0  0  0  0  0
   45.7350   33.2520   38.8350 N   0  0  0  0  0  0  0  0  0  0  0  0
   47.3720   34.2730   37.3690 N   0  0  0  0  0  0  0  0  0  0  0  0
   48.6210   33.8600   36.8060 C   0  0  0  0  0  0  0  0  0  0  0  0
   49.1180   32.6810   37.5820 C   0  0  0  0  0  0  0  0  0  0  0  0
   47.9670   32.4050   38.5940 C   0  0  0  0  0  0  0  0  0  0  0  0
   46.9070   33.0780   38.0040 C   0  0  1  0  0  0  0  0  0  0  0  0
   46.9870   33.7840   40.9800 C   0  0  0  0  0  0  0  0  0  0  0  0
   46.7150   34.9110   41.9580 C   0  0  0  0  0  0  0  0  0  0  0  0
   47.3560   33.3370   43.6650 C   0  0  0  0  0  0  0  0  0  0  0  0
   46.5240   34.3580   43.2760 C   0  0  0  0  0  0  0  0  0  0  0  0
   45.5250   34.7880   44.1620 C   0  0  0  0  0  0  0  0  0  0  0  0
   45.4380   34.1630   45.3610 N   0  0  0  0  0  0  0  0  0  0  0  0
   46.2550   33.1680   45.7210 C   0  0  0  0  0  0  0  0  0  0  0  0
   47.2260   32.7470   44.8710 N   0  0  0  0  0  0  0  0  0  0  0  0
   46.0560   32.5610   47.0570 C   0  0  0  0  0  0  0  0  0  0  0  0
   44.9370   33.1170   47.6560 F   0  0  0  0  0  0  0  0  0  0  0  0
   45.7230   31.2200   46.8100 F   0  0  0  0  0  0  0  0  0  0  0  0
   47.1940   32.6610   47.8330 F   0  0  0  0  0  0  0  0  0  0  0  0
   44.4680   36.1180   43.6180 S   0  0  0  0  0  0  0  0  0  0  0  0
   44.2440   33.8510   41.6497 H   0  0  0  0  0  0  0  0  0  0  0  0
   44.0482   32.9109   37.4950 H   0  0  0  0  0  0  0  0  0  0  0  0
   46.7182   34.5835   36.6362 H   0  0  0  0  0  0  0  0  0  0  0  0
   48.4793   33.5789   35.7520 H   0  0  0  0  0  0  0  0  0  0  0  0
   49.3502   34.6821   36.8563 H   0  0  0  0  0  0  0  0  0  0  0  0
   49.2788   31.8152   36.9228 H   0  0  0  0  0  0  0  0  0  0  0  0
   50.0856   32.8656   38.0715 H   0  0  0  0  0  0  0  0  0  0  0  0
   47.7596   31.3283   38.6816 H   0  0  0  0  0  0  0  0  0  0  0  0
   48.1873   32.7315   39.6211 H   0  0  0  0  0  0  0  0  0  0  0  0
   46.5131   32.4146   37.2200 H   0  0  0  0  0  0  0  0  0  0  0  0
   47.2209   32.8665   41.5399 H   0  0  0  0  0  0  0  0  0  0  0  0
   47.8374   34.0633   40.3407 H   0  0  0  0  0  0  0  0  0  0  0  0
   47.5701   35.6028   41.9695 H   0  0  0  0  0  0  0  0  0  0  0  0
   45.8107   35.4569   41.6512 H   0  0  0  0  0  0  0  0  0  0  0  0
   48.1444   32.9934   42.9792 H   0  0  0  0  0  0  0  0  0  0  0  0
   43.9523   36.7669   44.7089 H   0  0  0  0  0  0  0  0  0  0  0  0
  1  2  2  0
  1 11  1  0
  3  2  1  0
  4  5  1  0
  4  3  2  0
  5  1  1  0
  6 10  1  0
  7  6  1  0
  7  8  1  0
  8  9  1  0
 10  9  1  0
 10  5  1  0
 11 12  1  0
 12 14  1  0
 13 18  2  0
 14 13  1  0
 14 15  2  0
 15 16  1  0
 16 17  2  0
 17 19  1  0
 18 17  1  0
 19 20  1  0
 19 22  1  0
 21 19  1  0
 23 15  1  0
  2 24  1  0
  4 25  1  0
  6 26  1  0
  7 27  1  0
  7 28  1  0
  8 29  1  0
  8 30  1  0
  9 31  1  0
  9 32  1  0
 10 33  1  6
 11 34  1  0
 11 35  1  0
 12 36  1  0
 12 37  1  0
 13 38  1  0
 23 39  1  0
M  ISO  8  24  14  25  14  26   5  27  13  28  13  29  13  30  13  31  13
M  ISO  8  32  13  33  13  34   8  35   8  36   8  37   8  38  14  39  11
M  END
>  <minimizedAffinity>  (1) 
-5.29519844

>  <minimizedRMSD>  (1) 
0.24329114

$$$$
