
     RDKit          3D

 37 39  0  0  1  0  0  0  0  0999 V2000
   46.5120   31.2200   45.4460 C   0  0  2  0  0  0  0  0  0  0  0  0
   44.7310   35.1000   45.4670 C   0  0  0  0  0  0  0  0  0  0  0  0
   44.4880   36.1160   44.5380 C   0  0  0  0  0  0  0  0  0  0  0  0
   45.1730   36.0620   43.3100 C   0  0  0  0  0  0  0  0  0  0  0  0
   46.0240   35.0390   43.0940 N   0  0  0  0  0  0  0  0  0  0  0  0
   46.2480   34.0540   44.0170 C   0  0  0  0  0  0  0  0  0  0  0  0
   45.6000   34.1020   45.1810 N   0  0  0  0  0  0  0  0  0  0  0  0
   47.1450   32.9770   43.8010 N   0  0  0  0  0  0  0  0  0  0  0  0
   48.0660   33.1700   42.8090 C   0  0  0  0  0  0  0  0  0  0  0  0
   48.8220   32.0060   42.8000 C   0  0  0  0  0  0  0  0  0  0  0  0
   48.3550   31.1580   43.7590 N   0  0  0  0  0  0  0  0  0  0  0  0
   47.3330   31.7670   44.3600 C   0  0  0  0  0  0  0  0  0  0  0  0
   47.2170   31.6070   46.7590 C   0  0  0  0  0  0  0  0  0  0  0  0
   46.5040   29.7300   45.3630 C   0  0  0  0  0  0  0  0  0  0  0  0
   45.2640   29.0650   45.4540 N   0  0  0  0  0  0  0  0  0  0  0  0
   44.3800   29.1980   44.4210 C   0  0  0  0  0  0  0  0  0  0  0  0
   43.1400   28.5950   44.4100 C   0  0  0  0  0  0  0  0  0  0  0  0
   42.7240   27.8140   45.4610 C   0  0  0  0  0  0  0  0  0  0  0  0
   41.4800   27.1670   45.5300 N   0  0  0  0  0  0  0  0  0  0  0  0
   43.6100   27.6840   46.4910 N   0  0  0  0  0  0  0  0  0  0  0  0
   44.8100   28.2920   46.4590 C   0  0  0  0  0  0  0  0  0  0  0  0
   45.5660   28.1280   47.4320 O   0  0  0  0  0  0  0  0  0  0  0  0
   45.4817   31.6010   45.3880 H   0  0  0  0  0  0  0  0  0  0  0  0
   44.2126   35.1115   46.4371 H   0  0  0  0  0  0  0  0  0  0  0  0
   43.7839   36.9315   44.7598 H   0  0  0  0  0  0  0  0  0  0  0  0
   45.0177   36.8363   42.5443 H   0  0  0  0  0  0  0  0  0  0  0  0
   48.1820   34.0519   42.1618 H   0  0  0  0  0  0  0  0  0  0  0  0
   49.6657   31.8003   42.1248 H   0  0  0  0  0  0  0  0  0  0  0  0
   46.6096   31.2736   47.6134 H   0  0  0  0  0  0  0  0  0  0  0  0
   48.2047   31.1246   46.8008 H   0  0  0  0  0  0  0  0  0  0  0  0
   47.3403   32.6993   46.8008 H   0  0  0  0  0  0  0  0  0  0  0  0
   46.9518   29.4546   44.3968 H   0  0  0  0  0  0  0  0  0  0  0  0
   47.0549   29.4039   46.2575 H   0  0  0  0  0  0  0  0  0  0  0  0
   44.6709   29.8148   43.5579 H   0  0  0  0  0  0  0  0  0  0  0  0
   42.4739   28.7414   43.5469 H   0  0  0  0  0  0  0  0  0  0  0  0
   41.2408   26.5972   46.3541 H   0  0  0  0  0  0  0  0  0  0  0  0
   40.8065   27.2621   44.7566 H   0  0  0  0  0  0  0  0  0  0  0  0
  1 13  1  0
  3  2  2  0
  4  3  1  0
  5  4  2  0
  5  6  1  0
  6  7  2  0
  7  2  1  0
  8  6  1  0
  8 12  1  0
  9  8  1  0
 10  9  2  0
 10 11  1  0
 11 12  2  0
 12  1  1  0
 14  1  1  0
 14 15  1  0
 15 21  1  0
 16 15  1  0
 17 16  2  0
 17 18  1  0
 18 19  1  0
 18 20  2  0
 21 20  1  0
 21 22  2  0
  1 23  1  1
  2 24  1  0
  3 25  1  0
  4 26  1  0
  9 27  1  0
 10 28  1  0
 13 29  1  0
 13 30  1  0
 13 31  1  0
 14 32  1  0
 14 33  1  0
 16 34  1  0
 17 35  1  0
 19 36  1  0
 19 37  1  0
M  ISO  8  23   8  24  14  25  14  26  14  27  14  28  14  29   8  30   8
M  ISO  5  31   8  32   8  33   8  34  14  35  14
M  END
>  <minimizedAffinity>  (1) 
-4.5478406

>  <minimizedRMSD>  (1) 
3.7910831

$$$$
