
     RDKit          3D

 17 18  0  0  0  0  0  0  0  0999 V2000
   44.4950   35.9310   44.7240 C   0  0  0  0  0  0  0  0  0  0  0  0
   45.1700   35.9440   43.4840 C   0  0  0  0  0  0  0  0  0  0  0  0
   46.0910   34.9300   43.2200 C   0  0  0  0  0  0  0  0  0  0  0  0
   46.2840   33.9890   44.1730 N   0  0  0  0  0  0  0  0  0  0  0  0
   45.6330   33.9940   45.3450 C   0  0  0  0  0  0  0  0  0  0  0  0
   44.7400   34.9580   45.6260 N   0  0  0  0  0  0  0  0  0  0  0  0
   46.8530   34.7990   42.0210 C   0  0  0  0  0  0  0  0  0  0  0  0
   48.0750   35.4060   41.7750 C   0  0  0  0  0  0  0  0  0  0  0  0
   48.7170   35.2080   40.5860 C   0  0  0  0  0  0  0  0  0  0  0  0
   47.9860   34.3140   39.6510 C   0  0  0  0  0  0  0  0  0  0  0  0
   46.4720   33.8790   40.6060 S   0  0  0  0  0  0  0  0  0  0  0  0
   43.7642   36.7197   44.9563 H   0  0  0  0  0  0  0  0  0  0  0  0
   44.9745   36.7343   42.7442 H   0  0  0  0  0  0  0  0  0  0  0  0
   45.8315   33.2025   46.0826 H   0  0  0  0  0  0  0  0  0  0  0  0
   48.5299   36.0505   42.5416 H   0  0  0  0  0  0  0  0  0  0  0  0
   49.6861   35.6680   40.3429 H   0  0  0  0  0  0  0  0  0  0  0  0
   48.2766   33.9920   38.6401 H   0  0  0  0  0  0  0  0  0  0  0  0
  1  6  2  0
  2  1  1  0
  3  2  2  0
  3  4  1  0
  4  5  2  0
  5  6  1  0
  7  3  1  0
  8  7  2  0
  9  8  1  0
 10  9  2  0
 10 11  1  0
 11  7  1  0
  1 12  1  0
  2 13  1  0
  5 14  1  0
  8 15  1  0
  9 16  1  0
 10 17  1  0
M  ISO  6  12  14  13  14  14  14  15  14  16  14  17  14
M  END
>  <minimizedAffinity>  (1) 
-4.38557816

>  <minimizedRMSD>  (1) 
0.866314828

$$$$
