
     RDKit          3D

 27 29  0  0  0  0  0  0  0  0999 V2000
   46.3950   34.5500   41.9070 C   0  0  0  0  0  0  0  0  0  0  0  0
   47.6870   34.8450   41.5440 C   0  0  0  0  0  0  0  0  0  0  0  0
   48.1630   34.5000   40.3170 C   0  0  0  0  0  0  0  0  0  0  0  0
   47.1950   33.8130   39.4700 C   0  0  0  0  0  0  0  0  0  0  0  0
   45.6970   33.7420   40.5430 S   0  0  0  0  0  0  0  0  0  0  0  0
   44.4990   36.1300   44.7400 C   0  0  0  0  0  0  0  0  0  0  0  0
   45.0400   35.9950   43.4330 C   0  0  0  0  0  0  0  0  0  0  0  0
   45.7770   34.8550   43.1650 C   0  0  0  0  0  0  0  0  0  0  0  0
   45.9470   33.9300   44.1490 N   0  0  0  0  0  0  0  0  0  0  0  0
   45.4220   34.0890   45.3720 C   0  0  0  0  0  0  0  0  0  0  0  0
   44.7040   35.1780   45.6730 N   0  0  0  0  0  0  0  0  0  0  0  0
   47.3580   33.3310   38.1750 N   0  0  0  0  0  0  0  0  0  0  0  0
   46.7330   32.1800   37.8640 C   0  0  0  0  0  0  0  0  0  0  0  0
   46.8100   31.5980   36.6280 C   0  0  0  0  0  0  0  0  0  0  0  0
   47.5810   32.2680   35.6920 C   0  0  0  0  0  0  0  0  0  0  0  0
   47.7360   31.8430   34.5180 O   0  0  0  0  0  0  0  0  0  0  0  0
   48.2330   33.4290   35.9470 N   0  0  0  0  0  0  0  0  0  0  0  0
   48.0870   33.9190   37.2090 C   0  0  0  0  0  0  0  0  0  0  0  0
   48.6800   35.0030   37.4880 O   0  0  0  0  0  0  0  0  0  0  0  0
   48.3449   35.3668   42.2545 H   0  0  0  0  0  0  0  0  0  0  0  0
   49.1904   34.7205   39.9917 H   0  0  0  0  0  0  0  0  0  0  0  0
   43.9062   37.0212   44.9937 H   0  0  0  0  0  0  0  0  0  0  0  0
   44.8793   36.7659   42.6650 H   0  0  0  0  0  0  0  0  0  0  0  0
   45.5830   33.3155   46.1374 H   0  0  0  0  0  0  0  0  0  0  0  0
   46.1319   31.6838   38.6402 H   0  0  0  0  0  0  0  0  0  0  0  0
   46.2920   30.6567   36.3922 H   0  0  0  0  0  0  0  0  0  0  0  0
   48.8008   33.9083   35.2338 H   0  0  0  0  0  0  0  0  0  0  0  0
  1  8  1  0
  2  1  2  0
  3  2  1  0
  4  3  2  0
  4  5  1  0
  5  1  1  0
  6 11  2  0
  7  6  1  0
  8  7  2  0
  8  9  1  0
  9 10  2  0
 10 11  1  0
 12  4  1  0
 13 12  1  0
 14 13  2  0
 15 17  1  0
 15 14  1  0
 16 15  2  0
 17 18  1  0
 18 19  2  0
 18 12  1  0
  2 20  1  0
  3 21  1  0
  6 22  1  0
  7 23  1  0
 10 24  1  0
 13 25  1  0
 14 26  1  0
 17 27  1  0
M  ISO  8  20  14  21  14  22  14  23  14  24  14  25  14  26  14  27   9
M  END
>  <minimizedAffinity>  (1) 
-5.76944447

>  <minimizedRMSD>  (1) 
1.06313419

$$$$
