
     RDKit          3D

 22 23  0  0  0  0  0  0  0  0999 V2000
   46.6830   34.7340   42.0180 C   0  0  0  0  0  0  0  0  0  0  0  0
   47.8780   35.3920   41.8690 C   0  0  0  0  0  0  0  0  0  0  0  0
   48.6490   35.2790   40.7020 C   0  0  0  0  0  0  0  0  0  0  0  0
   48.1940   34.4770   39.6610 C   0  0  0  0  0  0  0  0  0  0  0  0
   46.9840   33.8090   39.8090 C   0  0  0  0  0  0  0  0  0  0  0  0
   46.2640   33.9540   40.9750 C   0  0  0  0  0  0  0  0  0  0  0  0
   44.4980   36.0340   44.7900 C   0  0  0  0  0  0  0  0  0  0  0  0
   45.1350   35.9870   43.5440 C   0  0  0  0  0  0  0  0  0  0  0  0
   45.9620   34.9160   43.2580 C   0  0  0  0  0  0  0  0  0  0  0  0
   46.1170   33.9570   44.2100 N   0  0  0  0  0  0  0  0  0  0  0  0
   45.4840   34.0330   45.4110 C   0  0  0  0  0  0  0  0  0  0  0  0
   44.6810   35.0690   45.6920 N   0  0  0  0  0  0  0  0  0  0  0  0
   45.0310   33.2590   41.0980 N   0  0  0  0  0  0  0  0  0  0  0  0
   48.2427   36.0275   42.6895 H   0  0  0  0  0  0  0  0  0  0  0  0
   49.6031   35.8190   40.6116 H   0  0  0  0  0  0  0  0  0  0  0  0
   48.7813   34.3731   38.7367 H   0  0  0  0  0  0  0  0  0  0  0  0
   46.6034   33.1683   38.9999 H   0  0  0  0  0  0  0  0  0  0  0  0
   43.8365   36.8799   45.0285 H   0  0  0  0  0  0  0  0  0  0  0  0
   44.9804   36.7877   42.8057 H   0  0  0  0  0  0  0  0  0  0  0  0
   45.6319   33.2386   46.1574 H   0  0  0  0  0  0  0  0  0  0  0  0
   44.4725   33.3494   41.9587 H   0  0  0  0  0  0  0  0  0  0  0  0
   44.6956   32.6647   40.3265 H   0  0  0  0  0  0  0  0  0  0  0  0
  1  9  1  0
  2  1  2  0
  3  2  1  0
  4  5  1  0
  4  3  2  0
  5  6  2  0
  6 13  1  0
  6  1  1  0
  7 12  2  0
  8  7  1  0
  9  8  2  0
  9 10  1  0
 10 11  2  0
 11 12  1  0
  2 14  1  0
  3 15  1  0
  4 16  1  0
  5 17  1  0
  7 18  1  0
  8 19  1  0
 11 20  1  0
 13 21  1  0
 13 22  1  0
M  ISO  7  14  14  15  14  16  14  17  14  18  14  19  14  20  14
M  END
>  <minimizedAffinity>  (1) 
-5.03927183

>  <minimizedRMSD>  (1) 
0.0511721671

$$$$
