
     RDKit          3D

 30 32  0  0  0  0  0  0  0  0999 V2000
   46.3940   34.5340   41.9120 C   0  0  0  0  0  0  0  0  0  0  0  0
   47.6840   34.8370   41.5480 C   0  0  0  0  0  0  0  0  0  0  0  0
   48.1650   34.5120   40.3180 C   0  0  0  0  0  0  0  0  0  0  0  0
   47.1910   33.8330   39.4680 C   0  0  0  0  0  0  0  0  0  0  0  0
   45.6900   33.7390   40.5380 S   0  0  0  0  0  0  0  0  0  0  0  0
   47.3510   33.3660   38.1620 N   0  0  0  0  0  0  0  0  0  0  0  0
   46.6670   32.2130   37.9060 C   0  0  0  0  0  0  0  0  0  0  0  0
   46.7100   31.6090   36.6680 C   0  0  0  0  0  0  0  0  0  0  0  0
   45.9690   30.3570   36.3820 C   0  0  0  0  0  0  0  0  0  0  0  0
   47.4920   32.2530   35.7140 C   0  0  0  0  0  0  0  0  0  0  0  0
   47.5740   31.7430   34.5460 O   0  0  0  0  0  0  0  0  0  0  0  0
   48.1700   33.3920   35.9670 N   0  0  0  0  0  0  0  0  0  0  0  0
   48.0940   33.9450   37.1950 C   0  0  0  0  0  0  0  0  0  0  0  0
   48.7010   35.0080   37.5010 O   0  0  0  0  0  0  0  0  0  0  0  0
   44.4980   36.1210   44.7420 C   0  0  0  0  0  0  0  0  0  0  0  0
   45.0340   35.9890   43.4320 C   0  0  0  0  0  0  0  0  0  0  0  0
   45.7810   34.8300   43.1730 C   0  0  0  0  0  0  0  0  0  0  0  0
   45.9490   33.9260   44.1520 N   0  0  0  0  0  0  0  0  0  0  0  0
   45.4330   34.0760   45.3770 C   0  0  0  0  0  0  0  0  0  0  0  0
   44.7050   35.1780   45.6730 N   0  0  0  0  0  0  0  0  0  0  0  0
   48.3401   35.3522   42.2650 H   0  0  0  0  0  0  0  0  0  0  0  0
   49.1913   34.7393   39.9940 H   0  0  0  0  0  0  0  0  0  0  0  0
   46.0674   31.7551   38.7065 H   0  0  0  0  0  0  0  0  0  0  0  0
   45.6839   29.8752   37.3289 H   0  0  0  0  0  0  0  0  0  0  0  0
   45.0638   30.5909   35.8025 H   0  0  0  0  0  0  0  0  0  0  0  0
   46.6096   29.6760   35.8025 H   0  0  0  0  0  0  0  0  0  0  0  0
   48.7390   33.8340   35.2309 H   0  0  0  0  0  0  0  0  0  0  0  0
   43.9038   37.0111   44.9963 H   0  0  0  0  0  0  0  0  0  0  0  0
   44.8714   36.7563   42.6608 H   0  0  0  0  0  0  0  0  0  0  0  0
   45.6002   33.3045   46.1431 H   0  0  0  0  0  0  0  0  0  0  0  0
  1 17  1  0
  2  1  2  0
  3  2  1  0
  4  3  2  0
  4  5  1  0
  5  1  1  0
  6  4  1  0
  7  6  1  0
  8  7  2  0
  9  8  1  0
 10 12  1  0
 10  8  1  0
 11 10  2  0
 12 13  1  0
 13 14  2  0
 13  6  1  0
 15 20  2  0
 16 15  1  0
 17 16  2  0
 17 18  1  0
 18 19  2  0
 19 20  1  0
  2 21  1  0
  3 22  1  0
  7 23  1  0
  9 24  1  0
  9 25  1  0
  9 26  1  0
 12 27  1  0
 15 28  1  0
 16 29  1  0
 19 30  1  0
M  ISO  8  21  14  22  14  23  14  24   8  25   8  26   8  27   9  28  14
M  ISO  2  29  14  30  14
M  END
>  <minimizedAffinity>  (1) 
-5.86590862

>  <minimizedRMSD>  (1) 
1.12101424

$$$$
