
     RDKit          3D

 25 27  0  0  0  0  0  0  0  0999 V2000
   46.7510   34.7110   42.1950 C   0  0  0  0  0  0  0  0  0  0  0  0
   47.9170   35.3530   41.8500 C   0  0  0  0  0  0  0  0  0  0  0  0
   48.5570   35.0800   40.6840 C   0  0  0  0  0  0  0  0  0  0  0  0
   47.8830   34.0640   39.8720 C   0  0  0  0  0  0  0  0  0  0  0  0
   46.4340   33.6310   40.8710 S   0  0  0  0  0  0  0  0  0  0  0  0
   44.4410   36.0220   44.8440 C   0  0  0  0  0  0  0  0  0  0  0  0
   45.1170   35.9650   43.6100 C   0  0  0  0  0  0  0  0  0  0  0  0
   45.9870   34.9130   43.3920 C   0  0  0  0  0  0  0  0  0  0  0  0
   46.1450   33.9970   44.3610 N   0  0  0  0  0  0  0  0  0  0  0  0
   45.4960   34.0620   45.5320 C   0  0  0  0  0  0  0  0  0  0  0  0
   44.6450   35.0660   45.7800 N   0  0  0  0  0  0  0  0  0  0  0  0
   48.3030   33.5600   38.5970 C   0  0  0  0  0  0  0  0  0  0  0  0
   47.9920   34.1410   37.4100 C   0  0  0  0  0  0  0  0  0  0  0  0
   48.4790   33.5230   36.2700 C   0  0  0  0  0  0  0  0  0  0  0  0
   49.2230   32.4050   36.3090 N   0  0  0  0  0  0  0  0  0  0  0  0
   49.5000   31.8730   37.5090 C   0  0  0  0  0  0  0  0  0  0  0  0
   49.0450   32.4420   38.6630 N   0  0  0  0  0  0  0  0  0  0  0  0
   48.3404   36.1039   42.5333 H   0  0  0  0  0  0  0  0  0  0  0  0
   49.4912   35.5740   40.3787 H   0  0  0  0  0  0  0  0  0  0  0  0
   43.7436   36.8478   45.0482 H   0  0  0  0  0  0  0  0  0  0  0  0
   44.9573   36.7356   42.8414 H   0  0  0  0  0  0  0  0  0  0  0  0
   45.6633   33.2862   46.2937 H   0  0  0  0  0  0  0  0  0  0  0  0
   47.3841   35.0562   37.3563 H   0  0  0  0  0  0  0  0  0  0  0  0
   48.2466   33.9667   35.2906 H   0  0  0  0  0  0  0  0  0  0  0  0
   50.1075   30.9576   37.5640 H   0  0  0  0  0  0  0  0  0  0  0  0
  1  8  1  0
  2  1  2  0
  3  2  1  0
  4  3  2  0
  4  5  1  0
  5  1  1  0
  6 11  2  0
  7  6  1  0
  8  7  2  0
  8  9  1  0
  9 10  2  0
 10 11  1  0
 12 17  1  0
 12  4  1  0
 13 12  2  0
 14 15  2  0
 14 13  1  0
 15 16  1  0
 16 17  2  0
  2 18  1  0
  3 19  1  0
  6 20  1  0
  7 21  1  0
 10 22  1  0
 13 23  1  0
 14 24  1  0
 16 25  1  0
M  ISO  8  18  14  19  14  20  14  21  14  22  14  23  14  24  14  25  14
M  END
>  <minimizedAffinity>  (1) 
-5.3588233

>  <minimizedRMSD>  (1) 
0.410775542

$$$$
