
     RDKit          3D

 24 26  0  0  0  0  0  0  0  0999 V2000
   46.7290   34.7390   42.0600 C   0  0  0  0  0  0  0  0  0  0  0  0
   47.9480   35.2900   41.7480 C   0  0  0  0  0  0  0  0  0  0  0  0
   48.5520   35.0200   40.5610 C   0  0  0  0  0  0  0  0  0  0  0  0
   47.7920   34.1250   39.7050 C   0  0  0  0  0  0  0  0  0  0  0  0
   46.3030   33.7730   40.6970 S   0  0  0  0  0  0  0  0  0  0  0  0
   44.4640   36.0740   44.7540 C   0  0  0  0  0  0  0  0  0  0  0  0
   45.1260   36.0180   43.5050 C   0  0  0  0  0  0  0  0  0  0  0  0
   45.9830   34.9410   43.2690 C   0  0  0  0  0  0  0  0  0  0  0  0
   46.1290   34.0220   44.2360 N   0  0  0  0  0  0  0  0  0  0  0  0
   45.4950   34.0910   45.4100 C   0  0  0  0  0  0  0  0  0  0  0  0
   44.6640   35.1110   45.6750 N   0  0  0  0  0  0  0  0  0  0  0  0
   48.1970   33.6690   38.3890 C   0  0  0  0  0  0  0  0  0  0  0  0
   48.8760   32.5450   37.9640 C   0  0  0  0  0  0  0  0  0  0  0  0
   48.9500   32.6910   36.5940 C   0  0  0  0  0  0  0  0  0  0  0  0
   48.3500   33.8370   36.2140 N   0  0  0  0  0  0  0  0  0  0  0  0
   47.9020   34.4140   37.3200 N   0  0  0  0  0  0  0  0  0  0  0  0
   48.4418   35.9586   42.4685 H   0  0  0  0  0  0  0  0  0  0  0  0
   49.5272   35.4406   40.2744 H   0  0  0  0  0  0  0  0  0  0  0  0
   43.7821   36.9085   44.9746 H   0  0  0  0  0  0  0  0  0  0  0  0
   44.9707   36.7974   42.7445 H   0  0  0  0  0  0  0  0  0  0  0  0
   45.6552   33.3066   46.1644 H   0  0  0  0  0  0  0  0  0  0  0  0
   49.2686   31.7208   38.5776 H   0  0  0  0  0  0  0  0  0  0  0  0
   49.4296   31.9753   35.9101 H   0  0  0  0  0  0  0  0  0  0  0  0
   48.2578   34.1942   35.2523 H   0  0  0  0  0  0  0  0  0  0  0  0
  1  8  1  0
  2  1  2  0
  3  2  1  0
  4  3  2  0
  4  5  1  0
  5  1  1  0
  6 11  2  0
  7  6  1  0
  8  7  2  0
  8  9  1  0
  9 10  2  0
 10 11  1  0
 12  4  1  0
 13 12  1  0
 14 13  2  0
 15 14  1  0
 15 16  1  0
 16 12  2  0
  2 17  1  0
  3 18  1  0
  6 19  1  0
  7 20  1  0
 10 21  1  0
 13 22  1  0
 14 23  1  0
 15 24  1  0
M  ISO  8  17  14  18  14  19  14  20  14  21  14  22  14  23  14  24   9
M  END
>  <minimizedAffinity>  (1) 
-5.42051649

>  <minimizedRMSD>  (1) 
0.278528154

$$$$
