
     RDKit          3D

 27 29  0  0  0  0  0  0  0  0999 V2000
   46.7840   34.7080   42.1920 C   0  0  0  0  0  0  0  0  0  0  0  0
   47.9210   35.3900   41.8310 C   0  0  0  0  0  0  0  0  0  0  0  0
   48.5780   35.1020   40.6780 C   0  0  0  0  0  0  0  0  0  0  0  0
   47.9680   34.0280   39.8960 C   0  0  0  0  0  0  0  0  0  0  0  0
   46.5330   33.5670   40.9080 S   0  0  0  0  0  0  0  0  0  0  0  0
   44.4500   36.0160   44.8080 C   0  0  0  0  0  0  0  0  0  0  0  0
   45.1300   35.9650   43.5850 C   0  0  0  0  0  0  0  0  0  0  0  0
   46.0060   34.9140   43.3770 C   0  0  0  0  0  0  0  0  0  0  0  0
   46.1670   33.9850   44.3560 N   0  0  0  0  0  0  0  0  0  0  0  0
   45.5060   34.0530   45.5200 C   0  0  0  0  0  0  0  0  0  0  0  0
   44.6470   35.0620   45.7560 N   0  0  0  0  0  0  0  0  0  0  0  0
   48.3610   33.4530   38.6500 C   0  0  0  0  0  0  0  0  0  0  0  0
   49.0480   32.2680   38.7060 C   0  0  0  0  0  0  0  0  0  0  0  0
   49.4420   31.6850   37.5150 C   0  0  0  0  0  0  0  0  0  0  0  0
   49.1310   32.3120   36.3220 C   0  0  0  0  0  0  0  0  0  0  0  0
   48.4280   33.5200   36.3080 C   0  0  0  0  0  0  0  0  0  0  0  0
   48.0300   34.1090   37.5170 C   0  0  0  0  0  0  0  0  0  0  0  0
   48.3060   36.1838   42.4880 H   0  0  0  0  0  0  0  0  0  0  0  0
   49.4890   35.6303   40.3604 H   0  0  0  0  0  0  0  0  0  0  0  0
   43.7471   36.8390   45.0042 H   0  0  0  0  0  0  0  0  0  0  0  0
   44.9731   36.7348   42.8151 H   0  0  0  0  0  0  0  0  0  0  0  0
   45.6663   33.2803   46.2863 H   0  0  0  0  0  0  0  0  0  0  0  0
   49.2795   31.7939   39.6712 H   0  0  0  0  0  0  0  0  0  0  0  0
   49.9958   30.7346   37.5167 H   0  0  0  0  0  0  0  0  0  0  0  0
   49.4411   31.8537   35.3713 H   0  0  0  0  0  0  0  0  0  0  0  0
   48.1876   34.0073   35.3516 H   0  0  0  0  0  0  0  0  0  0  0  0
   47.4755   35.0587   37.5411 H   0  0  0  0  0  0  0  0  0  0  0  0
  1  8  1  0
  2  1  2  0
  3  2  1  0
  4  3  2  0
  4  5  1  0
  5  1  1  0
  6 11  2  0
  7  6  1  0
  8  7  2  0
  8  9  1  0
  9 10  2  0
 10 11  1  0
 12 13  2  0
 12  4  1  0
 14 13  1  0
 15 14  2  0
 16 15  1  0
 16 17  2  0
 17 12  1  0
  2 18  1  0
  3 19  1  0
  6 20  1  0
  7 21  1  0
 10 22  1  0
 13 23  1  0
 14 24  1  0
 15 25  1  0
 16 26  1  0
 17 27  1  0
M  ISO  8  18  14  19  14  20  14  21  14  22  14  23  14  24  14  25  14
M  ISO  2  26  14  27  14
M  END
>  <minimizedAffinity>  (1) 
-5.33786869

>  <minimizedRMSD>  (1) 
0.526074529

$$$$
