
     RDKit          3D

 25 27  0  0  0  0  0  0  0  0999 V2000
   46.8230   34.7210   42.1880 C   0  0  0  0  0  0  0  0  0  0  0  0
   47.9580   35.4060   41.8380 C   0  0  0  0  0  0  0  0  0  0  0  0
   48.6110   35.1400   40.6780 C   0  0  0  0  0  0  0  0  0  0  0  0
   47.9940   34.0830   39.8780 C   0  0  0  0  0  0  0  0  0  0  0  0
   46.5600   33.6040   40.8820 S   0  0  0  0  0  0  0  0  0  0  0  0
   44.4490   35.9780   44.8140 C   0  0  0  0  0  0  0  0  0  0  0  0
   45.1490   35.9330   43.5910 C   0  0  0  0  0  0  0  0  0  0  0  0
   46.0430   34.8990   43.3710 C   0  0  0  0  0  0  0  0  0  0  0  0
   46.2010   33.9830   44.3410 N   0  0  0  0  0  0  0  0  0  0  0  0
   45.5330   34.0320   45.5020 C   0  0  0  0  0  0  0  0  0  0  0  0
   44.6630   35.0190   45.7420 N   0  0  0  0  0  0  0  0  0  0  0  0
   48.3690   33.5220   38.6210 C   0  0  0  0  0  0  0  0  0  0  0  0
   48.0040   34.1470   37.4850 C   0  0  0  0  0  0  0  0  0  0  0  0
   48.4260   33.5080   36.3090 C   0  0  0  0  0  0  0  0  0  0  0  0
   49.1360   32.3660   36.3640 N   0  0  0  0  0  0  0  0  0  0  0  0
   49.4750   31.7850   37.5200 C   0  0  0  0  0  0  0  0  0  0  0  0
   49.0770   32.3860   38.6630 N   0  0  0  0  0  0  0  0  0  0  0  0
   48.3467   36.1856   42.5097 H   0  0  0  0  0  0  0  0  0  0  0  0
   49.5225   35.6719   40.3677 H   0  0  0  0  0  0  0  0  0  0  0  0
   43.7327   36.7891   45.0118 H   0  0  0  0  0  0  0  0  0  0  0  0
   44.9877   36.7059   42.8251 H   0  0  0  0  0  0  0  0  0  0  0  0
   45.7015   33.2553   46.2625 H   0  0  0  0  0  0  0  0  0  0  0  0
   47.4231   35.0811   37.4795 H   0  0  0  0  0  0  0  0  0  0  0  0
   48.1737   33.9453   35.3317 H   0  0  0  0  0  0  0  0  0  0  0  0
   50.0568   30.8516   37.5396 H   0  0  0  0  0  0  0  0  0  0  0  0
  1  8  1  0
  2  1  2  0
  3  2  1  0
  4  3  2  0
  4  5  1  0
  5  1  1  0
  6 11  2  0
  7  6  1  0
  8  7  2  0
  8  9  1  0
  9 10  2  0
 10 11  1  0
 12 17  1  0
 12  4  1  0
 13 12  2  0
 14 15  2  0
 14 13  1  0
 15 16  1  0
 16 17  2  0
  2 18  1  0
  3 19  1  0
  6 20  1  0
  7 21  1  0
 10 22  1  0
 13 23  1  0
 14 24  1  0
 16 25  1  0
M  ISO  8  18  14  19  14  20  14  21  14  22  14  23  14  24  14  25  14
M  END
>  <minimizedAffinity>  (1) 
-5.34507799

>  <minimizedRMSD>  (1) 
0.418660522

$$$$
