
     RDKit          3D

 30 32  0  0  0  0  0  0  0  0999 V2000
   46.8480   34.7380   42.1340 C   0  0  0  0  0  0  0  0  0  0  0  0
   47.9880   35.4250   41.7980 C   0  0  0  0  0  0  0  0  0  0  0  0
   48.6650   35.1700   40.6510 C   0  0  0  0  0  0  0  0  0  0  0  0
   48.0520   34.1100   39.8460 C   0  0  0  0  0  0  0  0  0  0  0  0
   46.6040   33.6310   40.8350 S   0  0  0  0  0  0  0  0  0  0  0  0
   44.4650   35.9820   44.7600 C   0  0  0  0  0  0  0  0  0  0  0  0
   45.1610   35.9560   43.5290 C   0  0  0  0  0  0  0  0  0  0  0  0
   46.0530   34.9220   43.3180 C   0  0  0  0  0  0  0  0  0  0  0  0
   46.2260   33.9790   44.2890 N   0  0  0  0  0  0  0  0  0  0  0  0
   45.5510   34.0300   45.4470 C   0  0  0  0  0  0  0  0  0  0  0  0
   44.6710   35.0320   45.6820 N   0  0  0  0  0  0  0  0  0  0  0  0
   48.4180   33.5400   38.6090 N   0  0  0  0  0  0  0  0  0  0  0  0
   48.1560   34.2880   37.4180 C   0  0  0  0  0  0  0  0  0  0  0  0
   48.4490   33.3920   36.2310 C   0  0  0  0  0  0  0  0  0  0  0  0
   48.0370   32.0790   36.5470 O   0  0  0  0  0  0  0  0  0  0  0  0
   48.9370   31.5230   37.4330 C   0  0  0  0  0  0  0  0  0  0  0  0
   49.0260   32.2330   38.7550 C   0  0  0  0  0  0  0  0  0  0  0  0
   48.3628   36.2041   42.4781 H   0  0  0  0  0  0  0  0  0  0  0  0
   49.5801   35.7039   40.3553 H   0  0  0  0  0  0  0  0  0  0  0  0
   43.7472   36.7905   44.9625 H   0  0  0  0  0  0  0  0  0  0  0  0
   44.9979   36.7317   42.7663 H   0  0  0  0  0  0  0  0  0  0  0  0
   45.7131   33.2540   46.2096 H   0  0  0  0  0  0  0  0  0  0  0  0
   47.1019   34.6019   37.3981 H   0  0  0  0  0  0  0  0  0  0  0  0
   48.7878   35.1878   37.3840 H   0  0  0  0  0  0  0  0  0  0  0  0
   49.5280   33.4008   36.0171 H   0  0  0  0  0  0  0  0  0  0  0  0
   47.9078   33.7532   35.3441 H   0  0  0  0  0  0  0  0  0  0  0  0
   48.6361   30.4818   37.6212 H   0  0  0  0  0  0  0  0  0  0  0  0
   49.9293   31.6046   36.9653 H   0  0  0  0  0  0  0  0  0  0  0  0
   50.0805   32.3435   39.0480 H   0  0  0  0  0  0  0  0  0  0  0  0
   48.5037   31.6557   39.5321 H   0  0  0  0  0  0  0  0  0  0  0  0
  1  8  1  0
  2  1  2  0
  3  2  1  0
  4  3  2  0
  4  5  1  0
  5  1  1  0
  6 11  2  0
  7  6  1  0
  8  7  2  0
  8  9  1  0
  9 10  2  0
 10 11  1  0
 12 17  1  0
 12  4  1  0
 13 12  1  0
 14 15  1  0
 14 13  1  0
 15 16  1  0
 16 17  1  0
  2 18  1  0
  3 19  1  0
  6 20  1  0
  7 21  1  0
 10 22  1  0
 13 23  1  0
 13 24  1  0
 14 25  1  0
 14 26  1  0
 16 27  1  0
 16 28  1  0
 17 29  1  0
 17 30  1  0
M  ISO  8  18  14  19  14  20  14  21  14  22  14  23  13  24  13  25  13
M  ISO  5  26  13  27  13  28  13  29  13  30  13
M  END
>  <minimizedAffinity>  (1) 
-5.3068161

>  <minimizedRMSD>  (1) 
0.344823956

$$$$
