
     RDKit          3D

 23 25  0  0  0  0  0  0  0  0999 V2000
   46.7490   34.7180   42.1350 C   0  0  0  0  0  0  0  0  0  0  0  0
   47.9390   35.3110   41.7930 C   0  0  0  0  0  0  0  0  0  0  0  0
   48.5560   35.0130   40.6200 C   0  0  0  0  0  0  0  0  0  0  0  0
   47.8480   34.0370   39.7970 C   0  0  0  0  0  0  0  0  0  0  0  0
   46.3790   33.6590   40.8020 S   0  0  0  0  0  0  0  0  0  0  0  0
   44.4590   36.0560   44.7790 C   0  0  0  0  0  0  0  0  0  0  0  0
   45.1370   35.9960   43.5390 C   0  0  0  0  0  0  0  0  0  0  0  0
   45.9950   34.9330   43.3230 C   0  0  0  0  0  0  0  0  0  0  0  0
   46.1350   34.0200   44.2980 N   0  0  0  0  0  0  0  0  0  0  0  0
   45.4920   34.0790   45.4700 C   0  0  0  0  0  0  0  0  0  0  0  0
   44.6520   35.0960   45.7140 N   0  0  0  0  0  0  0  0  0  0  0  0
   48.2430   33.5250   38.5140 C   0  0  0  0  0  0  0  0  0  0  0  0
   47.7280   34.0740   37.3000 C   0  0  0  0  0  0  0  0  0  0  0  0
   48.6030   33.0070   36.0760 S   0  0  0  0  0  0  0  0  0  0  0  0
   49.4980   32.0220   37.4280 C   0  0  0  0  0  0  0  0  0  0  0  0
   49.1170   32.5080   38.4780 N   0  0  0  0  0  0  0  0  0  0  0  0
   48.3994   36.0377   42.4785 H   0  0  0  0  0  0  0  0  0  0  0  0
   49.5096   35.4691   40.3157 H   0  0  0  0  0  0  0  0  0  0  0  0
   43.7701   36.8885   44.9851 H   0  0  0  0  0  0  0  0  0  0  0  0
   44.9867   36.7696   42.7715 H   0  0  0  0  0  0  0  0  0  0  0  0
   45.6512   33.2985   46.2286 H   0  0  0  0  0  0  0  0  0  0  0  0
   47.0149   34.8963   37.1409 H   0  0  0  0  0  0  0  0  0  0  0  0
   50.2072   31.1920   37.2930 H   0  0  0  0  0  0  0  0  0  0  0  0
  1  8  1  0
  2  1  2  0
  3  2  1  0
  4  3  2  0
  4  5  1  0
  5  1  1  0
  6 11  2  0
  7  6  1  0
  8  7  2  0
  8  9  1  0
  9 10  2  0
 10 11  1  0
 12  4  1  0
 13 12  2  0
 14 13  1  0
 14 15  1  0
 15 16  2  0
 16 12  1  0
  2 17  1  0
  3 18  1  0
  6 19  1  0
  7 20  1  0
 10 21  1  0
 13 22  1  0
 15 23  1  0
M  ISO  7  17  14  18  14  19  14  20  14  21  14  22  14  23  14
M  END
>  <minimizedAffinity>  (1) 
-5.17426109

>  <minimizedRMSD>  (1) 
0.355469555

$$$$
