
     RDKit          3D

 29 31  0  0  0  0  0  0  0  0999 V2000
   46.8770   34.7480   42.0780 C   0  0  0  0  0  0  0  0  0  0  0  0
   48.0250   35.4250   41.7490 C   0  0  0  0  0  0  0  0  0  0  0  0
   48.6970   35.1700   40.5940 C   0  0  0  0  0  0  0  0  0  0  0  0
   48.0730   34.1310   39.7810 C   0  0  0  0  0  0  0  0  0  0  0  0
   46.6160   33.6480   40.7530 S   0  0  0  0  0  0  0  0  0  0  0  0
   44.4780   35.9880   44.6830 C   0  0  0  0  0  0  0  0  0  0  0  0
   45.1840   35.9510   43.4670 C   0  0  0  0  0  0  0  0  0  0  0  0
   46.0850   34.9210   43.2540 C   0  0  0  0  0  0  0  0  0  0  0  0
   46.2470   33.9950   44.2240 N   0  0  0  0  0  0  0  0  0  0  0  0
   45.5660   34.0450   45.3780 C   0  0  0  0  0  0  0  0  0  0  0  0
   44.6790   35.0380   45.6160 N   0  0  0  0  0  0  0  0  0  0  0  0
   48.4900   33.6290   38.5540 N   0  0  0  0  0  0  0  0  0  0  0  0
   49.1930   32.3850   38.2120 C   0  0  0  0  0  0  0  0  0  0  0  0
   49.0380   32.2310   36.7250 C   0  0  0  0  0  0  0  0  0  0  0  0
   48.1850   33.3590   36.2260 C   0  0  0  0  0  0  0  0  0  0  0  0
   48.2410   34.3730   37.3380 C   0  0  0  0  0  0  0  0  0  0  0  0
   48.4110   36.1924   42.4361 H   0  0  0  0  0  0  0  0  0  0  0  0
   49.6187   35.6946   40.3020 H   0  0  0  0  0  0  0  0  0  0  0  0
   43.7577   36.7974   44.8729 H   0  0  0  0  0  0  0  0  0  0  0  0
   45.0238   36.7241   42.7011 H   0  0  0  0  0  0  0  0  0  0  0  0
   45.7307   33.2692   46.1402 H   0  0  0  0  0  0  0  0  0  0  0  0
   50.2569   32.4581   38.4820 H   0  0  0  0  0  0  0  0  0  0  0  0
   48.7825   31.5218   38.7563 H   0  0  0  0  0  0  0  0  0  0  0  0
   50.0253   32.2680   36.2414 H   0  0  0  0  0  0  0  0  0  0  0  0
   48.5682   31.2648   36.4889 H   0  0  0  0  0  0  0  0  0  0  0  0
   48.5940   33.7767   35.2942 H   0  0  0  0  0  0  0  0  0  0  0  0
   47.1580   33.0430   35.9907 H   0  0  0  0  0  0  0  0  0  0  0  0
   49.0543   35.0914   37.1578 H   0  0  0  0  0  0  0  0  0  0  0  0
   47.3042   34.9456   37.4044 H   0  0  0  0  0  0  0  0  0  0  0  0
  1  8  1  0
  2  1  2  0
  3  2  1  0
  4  3  2  0
  4  5  1  0
  5  1  1  0
  6 11  2  0
  7  6  1  0
  8  7  2  0
  8  9  1  0
  9 10  2  0
 10 11  1  0
 12  4  1  0
 13 12  1  0
 14 13  1  0
 15 14  1  0
 15 16  1  0
 16 12  1  0
  2 17  1  0
  3 18  1  0
  6 19  1  0
  7 20  1  0
 10 21  1  0
 13 22  1  0
 13 23  1  0
 14 24  1  0
 14 25  1  0
 15 26  1  0
 15 27  1  0
 16 28  1  0
 16 29  1  0
M  ISO  8  17  14  18  14  19  14  20  14  21  14  22  13  23  13  24  13
M  ISO  5  25  13  26  13  27  13  28  13  29  13
M  END
>  <minimizedAffinity>  (1) 
-5.20802641

>  <minimizedRMSD>  (1) 
0.692312896

$$$$
