
     RDKit          3D

 30 32  0  0  0  0  0  0  0  0999 V2000
   46.8600   34.8020   42.0190 C   0  0  0  0  0  0  0  0  0  0  0  0
   48.0710   35.3920   41.7480 C   0  0  0  0  0  0  0  0  0  0  0  0
   48.7070   35.1950   40.5640 C   0  0  0  0  0  0  0  0  0  0  0  0
   47.9890   34.3180   39.6440 C   0  0  0  0  0  0  0  0  0  0  0  0
   46.4960   33.8870   40.5900 S   0  0  0  0  0  0  0  0  0  0  0  0
   44.4990   35.9140   44.7130 C   0  0  0  0  0  0  0  0  0  0  0  0
   45.1740   35.9330   43.4700 C   0  0  0  0  0  0  0  0  0  0  0  0
   46.0930   34.9280   43.2180 C   0  0  0  0  0  0  0  0  0  0  0  0
   46.2920   33.9960   44.1630 N   0  0  0  0  0  0  0  0  0  0  0  0
   45.6520   33.9850   45.3300 C   0  0  0  0  0  0  0  0  0  0  0  0
   44.7570   34.9360   45.6150 N   0  0  0  0  0  0  0  0  0  0  0  0
   48.2430   33.8200   38.3110 C   0  0  0  0  0  0  0  0  0  0  0  0
   49.1070   32.5830   38.2710 C   0  0  0  0  0  0  0  0  0  0  0  0
   48.3590   31.5190   37.5190 C   0  0  0  0  0  0  0  0  0  0  0  0
   47.2840   32.2640   36.7290 C   0  0  0  0  0  0  0  0  0  0  0  0
   46.9650   33.4880   37.5780 C   0  0  0  0  0  0  0  0  0  0  0  0
   48.5359   36.0384   42.5070 H   0  0  0  0  0  0  0  0  0  0  0  0
   49.6760   35.6550   40.3203 H   0  0  0  0  0  0  0  0  0  0  0  0
   43.7620   36.6959   44.9483 H   0  0  0  0  0  0  0  0  0  0  0  0
   44.9755   36.7203   42.7278 H   0  0  0  0  0  0  0  0  0  0  0  0
   45.8603   33.1909   46.0621 H   0  0  0  0  0  0  0  0  0  0  0  0
   48.7783   34.6474   37.8224 H   0  0  0  0  0  0  0  0  0  0  0  0
   50.0547   32.8059   37.7590 H   0  0  0  0  0  0  0  0  0  0  0  0
   49.3338   32.2419   39.2919 H   0  0  0  0  0  0  0  0  0  0  0  0
   49.0348   30.9814   36.8377 H   0  0  0  0  0  0  0  0  0  0  0  0
   47.9246   30.7676   38.1948 H   0  0  0  0  0  0  0  0  0  0  0  0
   47.6652   32.5643   35.7418 H   0  0  0  0  0  0  0  0  0  0  0  0
   46.3962   31.6420   36.5422 H   0  0  0  0  0  0  0  0  0  0  0  0
   46.6597   34.3294   36.9387 H   0  0  0  0  0  0  0  0  0  0  0  0
   46.1356   33.2947   38.2743 H   0  0  0  0  0  0  0  0  0  0  0  0
  1  8  1  0
  2  1  2  0
  3  2  1  0
  4  3  2  0
  4  5  1  0
  5  1  1  0
  6 11  2  0
  7  6  1  0
  8  7  2  0
  8  9  1  0
  9 10  2  0
 10 11  1  0
 12  4  1  0
 13 12  1  0
 14 13  1  0
 15 14  1  0
 15 16  1  0
 16 12  1  0
  2 17  1  0
  3 18  1  0
  6 19  1  0
  7 20  1  0
 10 21  1  0
 12 22  1  0
 13 23  1  0
 13 24  1  0
 14 25  1  0
 14 26  1  0
 15 27  1  0
 15 28  1  0
 16 29  1  0
 16 30  1  0
M  ISO  8  17  14  18  14  19  14  20  14  21  14  22  13  23  13  24  13
M  ISO  6  25  13  26  13  27  13  28  13  29  13  30  13
M  END
>  <minimizedAffinity>  (1) 
-5.10406065

>  <minimizedRMSD>  (1) 
0.537518322

$$$$
