
     RDKit          3D

 26 28  0  0  0  0  0  0  0  0999 V2000
   46.8140   34.6990   42.1990 C   0  0  0  0  0  0  0  0  0  0  0  0
   47.9390   35.3980   41.8350 C   0  0  0  0  0  0  0  0  0  0  0  0
   48.5950   35.1250   40.6790 C   0  0  0  0  0  0  0  0  0  0  0  0
   47.9930   34.0460   39.8960 C   0  0  0  0  0  0  0  0  0  0  0  0
   46.5750   33.5670   40.9120 S   0  0  0  0  0  0  0  0  0  0  0  0
   44.4520   35.9840   44.8150 C   0  0  0  0  0  0  0  0  0  0  0  0
   45.1470   35.9280   43.5970 C   0  0  0  0  0  0  0  0  0  0  0  0
   46.0350   34.8900   43.3830 C   0  0  0  0  0  0  0  0  0  0  0  0
   46.1900   33.9800   44.3560 N   0  0  0  0  0  0  0  0  0  0  0  0
   45.5240   34.0380   45.5160 C   0  0  0  0  0  0  0  0  0  0  0  0
   44.6540   35.0390   45.7500 N   0  0  0  0  0  0  0  0  0  0  0  0
   48.3700   33.4620   38.6380 C   0  0  0  0  0  0  0  0  0  0  0  0
   48.0290   34.1250   37.5050 C   0  0  0  0  0  0  0  0  0  0  0  0
   48.4260   33.5020   36.3140 C   0  0  0  0  0  0  0  0  0  0  0  0
   49.1090   32.3050   36.3480 C   0  0  0  0  0  0  0  0  0  0  0  0
   49.4350   31.6660   37.5480 C   0  0  0  0  0  0  0  0  0  0  0  0
   49.0230   32.3200   38.6760 N   0  0  0  0  0  0  0  0  0  0  0  0
   48.3155   36.1946   42.4935 H   0  0  0  0  0  0  0  0  0  0  0  0
   49.4978   35.6661   40.3596 H   0  0  0  0  0  0  0  0  0  0  0  0
   43.7413   36.8018   45.0050 H   0  0  0  0  0  0  0  0  0  0  0  0
   44.9881   36.6964   42.8261 H   0  0  0  0  0  0  0  0  0  0  0  0
   45.6881   33.2649   46.2811 H   0  0  0  0  0  0  0  0  0  0  0  0
   47.4823   35.0794   37.5198 H   0  0  0  0  0  0  0  0  0  0  0  0
   48.1913   33.9707   35.3469 H   0  0  0  0  0  0  0  0  0  0  0  0
   49.4077   31.8367   35.3986 H   0  0  0  0  0  0  0  0  0  0  0  0
   49.9805   30.7114   37.5821 H   0  0  0  0  0  0  0  0  0  0  0  0
  1  8  1  0
  2  1  2  0
  3  2  1  0
  4  3  2  0
  4  5  1  0
  5  1  1  0
  6 11  2  0
  7  6  1  0
  8  7  2  0
  8  9  1  0
  9 10  2  0
 10 11  1  0
 12 17  1  0
 12  4  1  0
 13 12  2  0
 14 15  2  0
 14 13  1  0
 15 16  1  0
 16 17  2  0
  2 18  1  0
  3 19  1  0
  6 20  1  0
  7 21  1  0
 10 22  1  0
 13 23  1  0
 14 24  1  0
 15 25  1  0
 16 26  1  0
M  ISO  8  18  14  19  14  20  14  21  14  22  14  23  14  24  14  25  14
M  ISO  1  26  14
M  END
>  <minimizedAffinity>  (1) 
-5.30990553

>  <minimizedRMSD>  (1) 
0.473208874

$$$$
