
     RDKit          3D

 18 19  0  0  0  0  0  0  0  0999 V2000
   44.4690   35.9160   44.8650 C   0  0  0  0  0  0  0  0  0  0  0  0
   45.1130   35.9250   43.6220 C   0  0  0  0  0  0  0  0  0  0  0  0
   46.0130   34.9140   43.3330 C   0  0  0  0  0  0  0  0  0  0  0  0
   46.2200   33.9740   44.2680 N   0  0  0  0  0  0  0  0  0  0  0  0
   45.6000   33.9720   45.4550 C   0  0  0  0  0  0  0  0  0  0  0  0
   44.7280   34.9360   45.7560 N   0  0  0  0  0  0  0  0  0  0  0  0
   46.7550   34.7820   42.1100 C   0  0  0  0  0  0  0  0  0  0  0  0
   47.9910   35.3190   41.8480 C   0  0  0  0  0  0  0  0  0  0  0  0
   48.5890   35.1190   40.6450 C   0  0  0  0  0  0  0  0  0  0  0  0
   47.7990   34.3070   39.7080 C   0  0  0  0  0  0  0  0  0  0  0  0
   46.2890   33.9240   40.6690 S   0  0  0  0  0  0  0  0  0  0  0  0
   48.2300   33.8360   38.0730 S   0  0  0  0  0  0  0  0  0  0  0  0
   43.7500   36.7097   45.1161 H   0  0  0  0  0  0  0  0  0  0  0  0
   44.9078   36.7197   42.8896 H   0  0  0  0  0  0  0  0  0  0  0  0
   45.8099   33.1745   46.1829 H   0  0  0  0  0  0  0  0  0  0  0  0
   48.5011   35.9159   42.6184 H   0  0  0  0  0  0  0  0  0  0  0  0
   49.5783   35.5289   40.3937 H   0  0  0  0  0  0  0  0  0  0  0  0
   49.1544   32.8258   38.1174 H   0  0  0  0  0  0  0  0  0  0  0  0
  1  6  2  0
  2  1  1  0
  3  2  2  0
  3  4  1  0
  4  5  2  0
  5  6  1  0
  7  3  1  0
  8  7  2  0
  9  8  1  0
 10  9  2  0
 10 11  1  0
 11  7  1  0
 12 10  1  0
  1 13  1  0
  2 14  1  0
  5 15  1  0
  8 16  1  0
  9 17  1  0
 12 18  1  0
M  ISO  6  13  14  14  14  15  14  16  14  17  14  18  11
M  END
>  <minimizedAffinity>  (1) 
-4.62720871

>  <minimizedRMSD>  (1) 
0.16042316

$$$$
