
     RDKit          3D

 33 37  0  0  0  0  0  0  0  0999 V2000
   46.6340   34.6790   42.0580 C   0  0  0  0  0  0  0  0  0  0  0  0
   47.8900   35.1120   41.7600 C   0  0  0  0  0  0  0  0  0  0  0  0
   48.4080   34.9040   40.5250 C   0  0  0  0  0  0  0  0  0  0  0  0
   47.5240   34.2130   39.6240 C   0  0  0  0  0  0  0  0  0  0  0  0
   46.0220   33.9200   40.6260 S   0  0  0  0  0  0  0  0  0  0  0  0
   47.8230   33.8520   38.2230 C   0  0  0  0  0  0  0  0  0  0  0  0
   48.7370   34.3640   37.4340 N   0  0  0  0  0  0  0  0  0  0  0  0
   48.6190   33.7200   36.2900 O   0  0  0  0  0  0  0  0  0  0  0  0
   47.6570   32.8320   36.3670 C   0  0  0  0  0  0  0  0  0  0  0  0
   47.1190   32.8970   37.6200 N   0  0  0  0  0  0  0  0  0  0  0  0
   47.1800   31.9170   35.3820 N   0  0  0  0  0  0  0  0  0  0  0  0
   46.0160   31.2090   35.4670 C   0  0  0  0  0  0  0  0  0  0  0  0
   45.8620   30.4380   34.3740 N   0  0  0  0  0  0  0  0  0  0  0  0
   46.9060   30.6250   33.5650 C   0  0  0  0  0  0  0  0  0  0  0  0
   47.2390   30.0880   32.3360 C   0  0  0  0  0  0  0  0  0  0  0  0
   48.3840   30.4760   31.7490 N   0  0  0  0  0  0  0  0  0  0  0  0
   49.1690   31.3810   32.3900 C   0  0  0  0  0  0  0  0  0  0  0  0
   48.8420   31.9120   33.6030 N   0  0  0  0  0  0  0  0  0  0  0  0
   47.6990   31.5350   34.2050 C   0  0  0  0  0  0  0  0  0  0  0  0
   44.4890   35.8960   44.9090 C   0  0  0  0  0  0  0  0  0  0  0  0
   45.0750   35.8970   43.6170 C   0  0  0  0  0  0  0  0  0  0  0  0
   45.9510   34.8290   43.3250 C   0  0  0  0  0  0  0  0  0  0  0  0
   46.1710   33.9050   44.2560 N   0  0  0  0  0  0  0  0  0  0  0  0
   45.6050   33.9280   45.4680 C   0  0  0  0  0  0  0  0  0  0  0  0
   44.7600   34.9250   45.7990 N   0  0  0  0  0  0  0  0  0  0  0  0
   48.4862   35.6323   42.5241 H   0  0  0  0  0  0  0  0  0  0  0  0
   49.4166   35.2347   40.2364 H   0  0  0  0  0  0  0  0  0  0  0  0
   45.3070   31.2608   36.3064 H   0  0  0  0  0  0  0  0  0  0  0  0
   46.5789   29.3563   31.8471 H   0  0  0  0  0  0  0  0  0  0  0  0
   50.1069   31.6985   31.9109 H   0  0  0  0  0  0  0  0  0  0  0  0
   43.7990   36.7059   45.1884 H   0  0  0  0  0  0  0  0  0  0  0  0
   44.8586   36.6869   42.8827 H   0  0  0  0  0  0  0  0  0  0  0  0
   45.8291   33.1332   46.1947 H   0  0  0  0  0  0  0  0  0  0  0  0
  1 22  1  0
  2  1  2  0
  3  2  1  0
  4  3  2  0
  4  5  1  0
  5  1  1  0
  6  4  1  0
  7  6  2  0
  8  9  1  0
  8  7  1  0
  9 10  2  0
 10  6  1  0
 11 12  1  0
 11  9  1  0
 13 12  2  0
 14 19  2  0
 14 13  1  0
 15 14  1  0
 16 15  2  0
 16 17  1  0
 17 18  2  0
 18 19  1  0
 19 11  1  0
 20 25  2  0
 21 20  1  0
 22 21  2  0
 22 23  1  0
 23 24  2  0
 24 25  1  0
  2 26  1  0
  3 27  1  0
 12 28  1  0
 15 29  1  0
 17 30  1  0
 20 31  1  0
 21 32  1  0
 24 33  1  0
M  ISO  8  26  14  27  14  28  14  29  14  30  14  31  14  32  14  33  14
M  END
>  <minimizedAffinity>  (1) 
-6.88359213

>  <minimizedRMSD>  (1) 
2.16377902

$$$$
