
     RDKit          3D

 38 42  0  0  0  0  0  0  0  0999 V2000
   46.7390   34.6960   42.1800 C   0  0  0  0  0  0  0  0  0  0  0  0
   47.9760   35.1970   41.9080 C   0  0  0  0  0  0  0  0  0  0  0  0
   48.5140   35.0410   40.6760 C   0  0  0  0  0  0  0  0  0  0  0  0
   47.6760   34.3270   39.7480 C   0  0  0  0  0  0  0  0  0  0  0  0
   46.1860   33.9410   40.7240 S   0  0  0  0  0  0  0  0  0  0  0  0
   44.4790   35.7200   45.0210 C   0  0  0  0  0  0  0  0  0  0  0  0
   45.0930   35.7580   43.7560 C   0  0  0  0  0  0  0  0  0  0  0  0
   46.0300   34.7780   43.4350 C   0  0  0  0  0  0  0  0  0  0  0  0
   46.3010   33.8340   44.3640 N   0  0  0  0  0  0  0  0  0  0  0  0
   45.6960   33.8260   45.5640 C   0  0  0  0  0  0  0  0  0  0  0  0
   44.7960   34.7510   45.8970 N   0  0  0  0  0  0  0  0  0  0  0  0
   48.0170   34.0180   38.3490 C   0  0  0  0  0  0  0  0  0  0  0  0
   48.7720   34.6830   37.5140 N   0  0  0  0  0  0  0  0  0  0  0  0
   48.7640   34.0020   36.4020 O   0  0  0  0  0  0  0  0  0  0  0  0
   48.0320   32.9320   36.5040 C   0  0  0  0  0  0  0  0  0  0  0  0
   47.5470   32.9400   37.7630 N   0  0  0  0  0  0  0  0  0  0  0  0
   47.6400   31.8040   35.6340 C   0  0  0  0  0  0  0  0  0  0  0  0
   46.9030   30.7000   36.0690 C   0  0  0  0  0  0  0  0  0  0  0  0
   46.5590   29.6800   35.2490 C   0  0  0  0  0  0  0  0  0  0  0  0
   46.9190   29.6760   33.9340 C   0  0  0  0  0  0  0  0  0  0  0  0
   47.6430   30.7320   33.4460 C   0  0  0  0  0  0  0  0  0  0  0  0
   47.9900   30.6980   32.1160 C   0  0  0  0  0  0  0  0  0  0  0  0
   48.7100   31.7130   31.5620 C   0  0  0  0  0  0  0  0  0  0  0  0
   49.0750   32.7710   32.3870 C   0  0  0  0  0  0  0  0  0  0  0  0
   48.7070   32.7640   33.7090 C   0  0  0  0  0  0  0  0  0  0  0  0
   47.9810   31.7570   34.3030 C   0  0  0  0  0  0  0  0  0  0  0  0
   48.5380   35.7286   42.6900 H   0  0  0  0  0  0  0  0  0  0  0  0
   49.5080   35.4272   40.4063 H   0  0  0  0  0  0  0  0  0  0  0  0
   43.7375   36.4853   45.2941 H   0  0  0  0  0  0  0  0  0  0  0  0
   44.8380   36.5471   43.0333 H   0  0  0  0  0  0  0  0  0  0  0  0
   45.9494   33.0378   46.2882 H   0  0  0  0  0  0  0  0  0  0  0  0
   46.5891   30.6580   37.1224 H   0  0  0  0  0  0  0  0  0  0  0  0
   45.9774   28.8374   35.6513 H   0  0  0  0  0  0  0  0  0  0  0  0
   46.6337   28.8409   33.2773 H   0  0  0  0  0  0  0  0  0  0  0  0
   47.6836   29.8440   31.4941 H   0  0  0  0  0  0  0  0  0  0  0  0
   48.9928   31.6962   30.4991 H   0  0  0  0  0  0  0  0  0  0  0  0
   49.6572   33.6114   31.9811 H   0  0  0  0  0  0  0  0  0  0  0  0
   49.0115   33.6170   34.3332 H   0  0  0  0  0  0  0  0  0  0  0  0
  1  8  1  0
  2  1  2  0
  3  2  1  0
  4  3  2  0
  4  5  1  0
  5  1  1  0
  6 11  2  0
  7  6  1  0
  8  7  2  0
  8  9  1  0
  9 10  2  0
 10 11  1  0
 12  4  1  0
 13 12  2  0
 14 15  1  0
 14 13  1  0
 15 16  2  0
 16 12  1  0
 17 18  2  0
 17 15  1  0
 19 18  1  0
 20 19  2  0
 21 20  1  0
 21 26  2  0
 22 21  1  0
 23 22  2  0
 23 24  1  0
 24 25  2  0
 25 26  1  0
 26 17  1  0
  2 27  1  0
  3 28  1  0
  6 29  1  0
  7 30  1  0
 10 31  1  0
 18 32  1  0
 19 33  1  0
 20 34  1  0
 22 35  1  0
 23 36  1  0
 24 37  1  0
 25 38  1  0
M  ISO  8  27  14  28  14  29  14  30  14  31  14  32  14  33  14  34  14
M  ISO  4  35  14  36  14  37  14  38  14
M  END
>  <minimizedAffinity>  (1) 
-6.97580433

>  <minimizedRMSD>  (1) 
2.38329244

$$$$
