
     RDKit          3D

 32 35  0  0  0  0  0  0  0  0999 V2000
   46.6720   34.6690   41.9270 C   0  0  0  0  0  0  0  0  0  0  0  0
   47.9150   35.1400   41.6290 C   0  0  0  0  0  0  0  0  0  0  0  0
   48.4570   34.9150   40.4030 C   0  0  0  0  0  0  0  0  0  0  0  0
   47.6030   34.1650   39.5190 C   0  0  0  0  0  0  0  0  0  0  0  0
   46.0990   33.8460   40.5200 S   0  0  0  0  0  0  0  0  0  0  0  0
   47.9190   33.7690   38.1300 C   0  0  0  0  0  0  0  0  0  0  0  0
   48.8930   34.2110   37.3700 N   0  0  0  0  0  0  0  0  0  0  0  0
   48.7710   33.5710   36.2340 O   0  0  0  0  0  0  0  0  0  0  0  0
   47.7540   32.7510   36.2760 C   0  0  0  0  0  0  0  0  0  0  0  0
   47.1730   32.8570   37.5080 N   0  0  0  0  0  0  0  0  0  0  0  0
   47.2950   31.8750   35.2290 N   0  0  0  0  0  0  0  0  0  0  0  0
   48.2080   31.0300   34.7180 C   0  0  0  0  0  0  0  0  0  0  0  0
   47.7580   30.1830   33.7030 C   0  0  0  0  0  0  0  0  0  0  0  0
   46.4410   30.3050   33.3420 C   0  0  0  0  0  0  0  0  0  0  0  0
   46.0340   29.5300   32.4150 O   0  0  0  0  0  0  0  0  0  0  0  0
   45.5340   31.1520   33.8580 N   0  0  0  0  0  0  0  0  0  0  0  0
   46.0100   31.9640   34.8470 C   0  0  0  0  0  0  0  0  0  0  0  0
   45.2150   32.7850   35.3780 O   0  0  0  0  0  0  0  0  0  0  0  0
   44.5120   35.9040   44.7620 C   0  0  0  0  0  0  0  0  0  0  0  0
   45.1060   35.8920   43.4810 C   0  0  0  0  0  0  0  0  0  0  0  0
   45.9760   34.8330   43.1840 C   0  0  0  0  0  0  0  0  0  0  0  0
   46.1950   33.8950   44.1270 N   0  0  0  0  0  0  0  0  0  0  0  0
   45.6070   33.9450   45.3360 C   0  0  0  0  0  0  0  0  0  0  0  0
   44.7700   34.9420   45.6540 N   0  0  0  0  0  0  0  0  0  0  0  0
   48.4823   35.7046   42.3835 H   0  0  0  0  0  0  0  0  0  0  0  0
   49.4559   35.2729   40.1129 H   0  0  0  0  0  0  0  0  0  0  0  0
   49.2472   31.0074   35.0781 H   0  0  0  0  0  0  0  0  0  0  0  0
   48.4257   29.4556   33.2182 H   0  0  0  0  0  0  0  0  0  0  0  0
   44.5572   31.1859   33.5331 H   0  0  0  0  0  0  0  0  0  0  0  0
   43.8246   36.7196   45.0309 H   0  0  0  0  0  0  0  0  0  0  0  0
   44.8947   36.6820   42.7453 H   0  0  0  0  0  0  0  0  0  0  0  0
   45.8162   33.1564   46.0738 H   0  0  0  0  0  0  0  0  0  0  0  0
  1 21  1  0
  2  1  2  0
  3  2  1  0
  4  3  2  0
  4  5  1  0
  5  1  1  0
  6  4  1  0
  7  6  2  0
  8  9  1  0
  8  7  1  0
  9 10  2  0
 10  6  1  0
 11  9  1  0
 12 11  1  0
 13 12  2  0
 14 13  1  0
 14 16  1  0
 15 14  2  0
 16 17  1  0
 17 11  1  0
 17 18  2  0
 19 24  2  0
 20 19  1  0
 21 20  2  0
 21 22  1  0
 22 23  2  0
 23 24  1  0
  2 25  1  0
  3 26  1  0
 12 27  1  0
 13 28  1  0
 16 29  1  0
 19 30  1  0
 20 31  1  0
 23 32  1  0
M  ISO  8  25  14  26  14  27  14  28  14  29   9  30  14  31  14  32  14
M  END
>  <minimizedAffinity>  (1) 
-6.75385809

>  <minimizedRMSD>  (1) 
2.49726534

$$$$
