
     RDKit          3D

 32 35  0  0  0  0  0  0  0  0999 V2000
   46.6390   34.6710   41.9960 C   0  0  0  0  0  0  0  0  0  0  0  0
   47.8900   35.1200   41.6960 C   0  0  0  0  0  0  0  0  0  0  0  0
   48.4140   34.8980   40.4650 C   0  0  0  0  0  0  0  0  0  0  0  0
   47.5400   34.1740   39.5740 C   0  0  0  0  0  0  0  0  0  0  0  0
   46.0420   33.8750   40.5780 S   0  0  0  0  0  0  0  0  0  0  0  0
   44.5010   35.9040   44.8470 C   0  0  0  0  0  0  0  0  0  0  0  0
   45.0870   35.8880   43.5680 C   0  0  0  0  0  0  0  0  0  0  0  0
   45.9540   34.8330   43.2590 C   0  0  0  0  0  0  0  0  0  0  0  0
   46.1640   33.9140   44.2000 N   0  0  0  0  0  0  0  0  0  0  0  0
   45.6020   33.9370   45.4160 C   0  0  0  0  0  0  0  0  0  0  0  0
   44.7660   34.9410   45.7330 N   0  0  0  0  0  0  0  0  0  0  0  0
   47.8520   33.7950   38.1800 C   0  0  0  0  0  0  0  0  0  0  0  0
   48.7910   34.2730   37.4020 N   0  0  0  0  0  0  0  0  0  0  0  0
   48.6740   33.6230   36.2610 O   0  0  0  0  0  0  0  0  0  0  0  0
   47.6850   32.7650   36.3330 C   0  0  0  0  0  0  0  0  0  0  0  0
   47.1190   32.8470   37.5770 N   0  0  0  0  0  0  0  0  0  0  0  0
   47.2030   31.8410   35.3070 C   0  0  0  0  0  0  0  0  0  0  0  0
   46.0730   31.0430   35.5010 C   0  0  0  0  0  0  0  0  0  0  0  0
   45.6780   30.1930   34.4830 C   0  0  0  0  0  0  0  0  0  0  0  0
   46.4010   30.1520   33.3060 C   0  0  0  0  0  0  0  0  0  0  0  0
   47.5170   30.9190   33.0740 C   0  0  0  0  0  0  0  0  0  0  0  0
   47.8980   31.7700   34.1160 C   0  0  0  0  0  0  0  0  0  0  0  0
   48.4753   35.6629   42.4528 H   0  0  0  0  0  0  0  0  0  0  0  0
   49.4175   35.2399   40.1715 H   0  0  0  0  0  0  0  0  0  0  0  0
   43.8160   36.7201   45.1204 H   0  0  0  0  0  0  0  0  0  0  0  0
   44.8710   36.6788   42.8345 H   0  0  0  0  0  0  0  0  0  0  0  0
   45.8219   33.1441   46.1460 H   0  0  0  0  0  0  0  0  0  0  0  0
   45.5085   31.0894   36.4440 H   0  0  0  0  0  0  0  0  0  0  0  0
   44.7925   29.5529   34.6101 H   0  0  0  0  0  0  0  0  0  0  0  0
   46.0649   29.4686   32.5123 H   0  0  0  0  0  0  0  0  0  0  0  0
   48.0757   30.8669   32.1279 H   0  0  0  0  0  0  0  0  0  0  0  0
   48.7848   32.4069   33.9819 H   0  0  0  0  0  0  0  0  0  0  0  0
  1  8  1  0
  2  1  2  0
  3  2  1  0
  4  3  2  0
  4  5  1  0
  5  1  1  0
  6 11  2  0
  7  6  1  0
  8  7  2  0
  8  9  1  0
  9 10  2  0
 10 11  1  0
 12  4  1  0
 13 12  2  0
 14 15  1  0
 14 13  1  0
 15 16  2  0
 16 12  1  0
 17 18  2  0
 17 15  1  0
 19 18  1  0
 20 19  2  0
 21 20  1  0
 21 22  2  0
 22 17  1  0
  2 23  1  0
  3 24  1  0
  6 25  1  0
  7 26  1  0
 10 27  1  0
 18 28  1  0
 19 29  1  0
 20 30  1  0
 21 31  1  0
 22 32  1  0
M  ISO  8  23  14  24  14  25  14  26  14  27  14  28  14  29  14  30  14
M  ISO  2  31  14  32  14
M  END
>  <minimizedAffinity>  (1) 
-5.94978619

>  <minimizedRMSD>  (1) 
2.13925529

$$$$
