
     RDKit          3D

 30 33  0  0  0  0  0  0  0  0999 V2000
   46.5850   34.6460   42.0080 C   0  0  0  0  0  0  0  0  0  0  0  0
   47.8410   35.0730   41.6940 C   0  0  0  0  0  0  0  0  0  0  0  0
   48.3550   34.8470   40.4600 C   0  0  0  0  0  0  0  0  0  0  0  0
   47.4580   34.1410   39.5760 C   0  0  0  0  0  0  0  0  0  0  0  0
   45.9630   33.8680   40.5960 S   0  0  0  0  0  0  0  0  0  0  0  0
   44.4960   35.9250   44.8720 C   0  0  0  0  0  0  0  0  0  0  0  0
   45.0630   35.9070   43.5710 C   0  0  0  0  0  0  0  0  0  0  0  0
   45.9180   34.8210   43.2800 C   0  0  0  0  0  0  0  0  0  0  0  0
   46.1330   33.9070   44.2230 N   0  0  0  0  0  0  0  0  0  0  0  0
   45.5880   33.9480   45.4370 C   0  0  0  0  0  0  0  0  0  0  0  0
   44.7630   34.9640   45.7630 N   0  0  0  0  0  0  0  0  0  0  0  0
   47.7460   33.7580   38.1790 C   0  0  0  0  0  0  0  0  0  0  0  0
   48.7420   34.1460   37.4200 N   0  0  0  0  0  0  0  0  0  0  0  0
   48.5600   33.5270   36.2660 O   0  0  0  0  0  0  0  0  0  0  0  0
   47.4880   32.7800   36.3100 C   0  0  0  0  0  0  0  0  0  0  0  0
   46.9480   32.9180   37.5420 N   0  0  0  0  0  0  0  0  0  0  0  0
   46.9160   31.9320   35.2690 C   0  0  0  0  0  0  0  0  0  0  0  0
   47.7190   31.1290   34.4540 C   0  0  0  0  0  0  0  0  0  0  0  0
   47.1410   30.3320   33.4710 C   0  0  0  0  0  0  0  0  0  0  0  0
   45.7890   30.3440   33.3140 N   0  0  0  0  0  0  0  0  0  0  0  0
   45.0310   31.1250   34.1110 C   0  0  0  0  0  0  0  0  0  0  0  0
   45.5860   31.9060   35.0720 N   0  0  0  0  0  0  0  0  0  0  0  0
   48.4415   35.6045   42.4470 H   0  0  0  0  0  0  0  0  0  0  0  0
   49.3623   35.1715   40.1600 H   0  0  0  0  0  0  0  0  0  0  0  0
   43.8221   36.7475   45.1537 H   0  0  0  0  0  0  0  0  0  0  0  0
   44.8490   36.6933   42.8321 H   0  0  0  0  0  0  0  0  0  0  0  0
   45.8092   33.1580   46.1698 H   0  0  0  0  0  0  0  0  0  0  0  0
   48.8105   31.1272   34.5902 H   0  0  0  0  0  0  0  0  0  0  0  0
   47.7698   29.6990   32.8276 H   0  0  0  0  0  0  0  0  0  0  0  0
   43.9390   31.1289   33.9790 H   0  0  0  0  0  0  0  0  0  0  0  0
  1  8  1  0
  2  1  2  0
  3  2  1  0
  4  3  2  0
  4  5  1  0
  5  1  1  0
  6 11  2  0
  7  6  1  0
  8  7  2  0
  8  9  1  0
  9 10  2  0
 10 11  1  0
 12  4  1  0
 13 12  2  0
 14 15  1  0
 14 13  1  0
 15 16  2  0
 16 12  1  0
 17 15  1  0
 18 17  2  0
 19 18  1  0
 20 19  2  0
 20 21  1  0
 21 22  2  0
 22 17  1  0
  2 23  1  0
  3 24  1  0
  6 25  1  0
  7 26  1  0
 10 27  1  0
 18 28  1  0
 19 29  1  0
 21 30  1  0
M  ISO  8  23  14  24  14  25  14  26  14  27  14  28  14  29  14  30  14
M  END
>  <minimizedAffinity>  (1) 
-6.00619984

>  <minimizedRMSD>  (1) 
2.42789078

$$$$
