
     RDKit          3D

 29 32  0  0  0  0  0  0  0  0999 V2000
   46.7690   34.7810   42.1300 C   0  0  0  0  0  0  0  0  0  0  0  0
   47.9770   35.3490   41.8630 C   0  0  0  0  0  0  0  0  0  0  0  0
   48.5930   35.1210   40.6810 C   0  0  0  0  0  0  0  0  0  0  0  0
   47.8580   34.2550   39.7920 C   0  0  0  0  0  0  0  0  0  0  0  0
   46.3450   33.8470   40.7390 S   0  0  0  0  0  0  0  0  0  0  0  0
   44.4490   35.9630   44.8570 C   0  0  0  0  0  0  0  0  0  0  0  0
   45.1110   35.9720   43.5980 C   0  0  0  0  0  0  0  0  0  0  0  0
   46.0060   34.9360   43.3480 C   0  0  0  0  0  0  0  0  0  0  0  0
   46.1870   33.9990   44.3060 N   0  0  0  0  0  0  0  0  0  0  0  0
   45.5490   34.0200   45.4780 C   0  0  0  0  0  0  0  0  0  0  0  0
   44.6790   35.0010   45.7550 N   0  0  0  0  0  0  0  0  0  0  0  0
   48.2770   33.8310   38.4400 C   0  0  0  0  0  0  0  0  0  0  0  0
   48.1390   34.5180   37.3080 N   0  0  0  0  0  0  0  0  0  0  0  0
   48.6580   33.7440   36.3810 O   0  0  0  0  0  0  0  0  0  0  0  0
   49.1030   32.6190   36.9120 C   0  0  0  0  0  0  0  0  0  0  0  0
   48.8620   32.6590   38.2540 N   0  0  0  0  0  0  0  0  0  0  0  0
   49.7370   31.5410   36.1580 C   0  0  0  0  0  0  0  0  0  0  0  0
   49.0310   30.5800   35.4370 C   0  0  0  0  0  0  0  0  0  0  0  0
   49.9670   29.7850   34.9010 N   0  0  0  0  0  0  0  0  0  0  0  0
   51.2000   30.1940   35.2440 C   0  0  0  0  0  0  0  0  0  0  0  0
   51.0350   31.2900   36.0280 N   0  0  0  0  0  0  0  0  0  0  0  0
   48.4546   35.9969   42.6128 H   0  0  0  0  0  0  0  0  0  0  0  0
   49.5685   35.5574   40.4205 H   0  0  0  0  0  0  0  0  0  0  0  0
   43.7337   36.7638   45.0959 H   0  0  0  0  0  0  0  0  0  0  0  0
   44.9240   36.7620   42.8557 H   0  0  0  0  0  0  0  0  0  0  0  0
   45.7379   33.2294   46.2192 H   0  0  0  0  0  0  0  0  0  0  0  0
   47.9396   30.4928   35.3307 H   0  0  0  0  0  0  0  0  0  0  0  0
   52.1537   29.7325   34.9483 H   0  0  0  0  0  0  0  0  0  0  0  0
   51.7950   31.8393   36.4541 H   0  0  0  0  0  0  0  0  0  0  0  0
  1  8  1  0
  2  1  2  0
  3  2  1  0
  4  3  2  0
  4  5  1  0
  5  1  1  0
  6 11  2  0
  7  6  1  0
  8  7  2  0
  8  9  1  0
  9 10  2  0
 10 11  1  0
 12  4  1  0
 13 12  2  0
 14 15  1  0
 14 13  1  0
 15 16  2  0
 16 12  1  0
 17 15  1  0
 18 17  2  0
 19 20  2  0
 19 18  1  0
 20 21  1  0
 21 17  1  0
  2 22  1  0
  3 23  1  0
  6 24  1  0
  7 25  1  0
 10 26  1  0
 18 27  1  0
 20 28  1  0
 21 29  1  0
M  ISO  8  22  14  23  14  24  14  25  14  26  14  27  14  28  14  29   9
M  END
>  <minimizedAffinity>  (1) 
-5.95019817

>  <minimizedRMSD>  (1) 
0.159057155

$$$$
