
     RDKit          3D

 25 27  0  0  0  0  0  0  0  0999 V2000
   46.7820   34.7890   42.1170 C   0  0  0  0  0  0  0  0  0  0  0  0
   47.9960   35.3490   41.8520 C   0  0  0  0  0  0  0  0  0  0  0  0
   48.6110   35.1250   40.6610 C   0  0  0  0  0  0  0  0  0  0  0  0
   47.8620   34.2740   39.7710 C   0  0  0  0  0  0  0  0  0  0  0  0
   46.3430   33.8680   40.7170 S   0  0  0  0  0  0  0  0  0  0  0  0
   44.4610   35.9470   44.8420 C   0  0  0  0  0  0  0  0  0  0  0  0
   45.1180   35.9720   43.5800 C   0  0  0  0  0  0  0  0  0  0  0  0
   46.0170   34.9380   43.3320 C   0  0  0  0  0  0  0  0  0  0  0  0
   46.2020   34.0000   44.2870 N   0  0  0  0  0  0  0  0  0  0  0  0
   45.5600   34.0130   45.4650 C   0  0  0  0  0  0  0  0  0  0  0  0
   44.6870   34.9910   45.7400 N   0  0  0  0  0  0  0  0  0  0  0  0
   48.2730   33.8540   38.4150 C   0  0  0  0  0  0  0  0  0  0  0  0
   48.1740   34.5410   37.2940 N   0  0  0  0  0  0  0  0  0  0  0  0
   48.6720   33.7550   36.3590 O   0  0  0  0  0  0  0  0  0  0  0  0
   49.0640   32.6230   36.8850 C   0  0  0  0  0  0  0  0  0  0  0  0
   48.8160   32.6650   38.2150 N   0  0  0  0  0  0  0  0  0  0  0  0
   49.6670   31.5000   36.1750 C   0  0  0  0  0  0  0  0  0  0  0  0
   48.9250   30.6300   35.6500 O   0  0  0  0  0  0  0  0  0  0  0  0
   51.0420   31.3870   36.0770 O   0  0  0  0  0  0  0  0  0  0  0  0
   48.4808   35.9859   42.6065 H   0  0  0  0  0  0  0  0  0  0  0  0
   49.5900   35.5536   40.4003 H   0  0  0  0  0  0  0  0  0  0  0  0
   43.7425   36.7442   45.0834 H   0  0  0  0  0  0  0  0  0  0  0  0
   44.9263   36.7642   42.8413 H   0  0  0  0  0  0  0  0  0  0  0  0
   45.7504   33.2211   46.2044 H   0  0  0  0  0  0  0  0  0  0  0  0
   51.4426   30.6217   35.5933 H   0  0  0  0  0  0  0  0  0  0  0  0
  1  8  1  0
  2  1  2  0
  3  2  1  0
  4  3  2  0
  4  5  1  0
  5  1  1  0
  6 11  2  0
  7  6  1  0
  8  7  2  0
  8  9  1  0
  9 10  2  0
 10 11  1  0
 12  4  1  0
 13 12  2  0
 14 15  1  0
 14 13  1  0
 15 16  2  0
 16 12  1  0
 17 15  1  0
 18 17  2  0
 19 17  1  0
  2 20  1  0
  3 21  1  0
  6 22  1  0
  7 23  1  0
 10 24  1  0
 19 25  1  0
M  ISO  6  20  14  21  14  22  14  23  14  24  14  25   3
M  END
>  <minimizedAffinity>  (1) 
-5.76424217

>  <minimizedRMSD>  (1) 
0.0809844881

$$$$
