
     RDKit          3D

 35 38  0  0  0  0  0  0  0  0999 V2000
   46.7780   34.7600   42.1540 C   0  0  0  0  0  0  0  0  0  0  0  0
   47.9980   35.3100   41.8930 C   0  0  0  0  0  0  0  0  0  0  0  0
   48.5960   35.1170   40.6920 C   0  0  0  0  0  0  0  0  0  0  0  0
   47.8270   34.3060   39.7800 C   0  0  0  0  0  0  0  0  0  0  0  0
   46.3290   33.9020   40.7310 S   0  0  0  0  0  0  0  0  0  0  0  0
   44.4570   35.9230   44.8810 C   0  0  0  0  0  0  0  0  0  0  0  0
   45.1130   35.9330   43.6320 C   0  0  0  0  0  0  0  0  0  0  0  0
   46.0260   34.8860   43.3800 C   0  0  0  0  0  0  0  0  0  0  0  0
   46.2110   33.9680   44.3220 N   0  0  0  0  0  0  0  0  0  0  0  0
   45.5790   33.9770   45.4990 C   0  0  0  0  0  0  0  0  0  0  0  0
   44.7010   34.9510   45.7850 N   0  0  0  0  0  0  0  0  0  0  0  0
   48.2270   33.9280   38.4080 C   0  0  0  0  0  0  0  0  0  0  0  0
   48.4600   34.7130   37.3840 N   0  0  0  0  0  0  0  0  0  0  0  0
   48.7840   33.9000   36.3960 O   0  0  0  0  0  0  0  0  0  0  0  0
   48.7520   32.6400   36.7960 C   0  0  0  0  0  0  0  0  0  0  0  0
   48.3910   32.6420   38.1010 N   0  0  0  0  0  0  0  0  0  0  0  0
   49.0450   31.4200   36.0090 C   0  0  0  0  0  0  0  0  0  0  0  0
   47.8790   30.4520   36.1300 C   0  0  0  0  0  0  0  0  0  0  0  0
   46.8310   31.1200   35.2790 C   0  0  0  0  0  0  0  0  0  0  0  0
   47.5850   31.9300   34.2400 C   0  0  0  0  0  0  0  0  0  0  0  0
   49.0510   31.6860   34.5080 C   0  0  0  0  0  0  0  0  0  0  0  0
   48.5005   35.9146   42.6624 H   0  0  0  0  0  0  0  0  0  0  0  0
   49.5785   35.5404   40.4360 H   0  0  0  0  0  0  0  0  0  0  0  0
   43.7365   36.7186   45.1214 H   0  0  0  0  0  0  0  0  0  0  0  0
   44.9218   36.7207   42.8884 H   0  0  0  0  0  0  0  0  0  0  0  0
   45.7786   33.1845   46.2352 H   0  0  0  0  0  0  0  0  0  0  0  0
   50.0125   31.0560   36.3853 H   0  0  0  0  0  0  0  0  0  0  0  0
   48.1409   29.4589   35.7361 H   0  0  0  0  0  0  0  0  0  0  0  0
   47.5593   30.2686   37.1664 H   0  0  0  0  0  0  0  0  0  0  0  0
   46.1989   30.3647   34.7891 H   0  0  0  0  0  0  0  0  0  0  0  0
   46.1698   31.7583   35.8835 H   0  0  0  0  0  0  0  0  0  0  0  0
   47.3499   32.9995   34.3444 H   0  0  0  0  0  0  0  0  0  0  0  0
   47.3069   31.6340   33.2177 H   0  0  0  0  0  0  0  0  0  0  0  0
   49.4227   30.8158   33.9471 H   0  0  0  0  0  0  0  0  0  0  0  0
   49.7070   32.5142   34.2018 H   0  0  0  0  0  0  0  0  0  0  0  0
  1  8  1  0
  2  1  2  0
  3  2  1  0
  4  3  2  0
  4  5  1  0
  5  1  1  0
  6 11  2  0
  7  6  1  0
  8  7  2  0
  8  9  1  0
  9 10  2  0
 10 11  1  0
 12  4  1  0
 13 12  2  0
 14 15  1  0
 14 13  1  0
 15 16  2  0
 16 12  1  0
 17 18  1  0
 17 15  1  0
 19 18  1  0
 20 21  1  0
 20 19  1  0
 21 17  1  0
  2 22  1  0
  3 23  1  0
  6 24  1  0
  7 25  1  0
 10 26  1  0
 17 27  1  0
 18 28  1  0
 18 29  1  0
 19 30  1  0
 19 31  1  0
 20 32  1  0
 20 33  1  0
 21 34  1  0
 21 35  1  0
M  ISO  8  22  14  23  14  24  14  25  14  26  14  27  13  28  13  29  13
M  ISO  6  30  13  31  13  32  13  33  13  34  13  35  13
M  END
>  <minimizedAffinity>  (1) 
-5.80236578

>  <minimizedRMSD>  (1) 
0.526889801

$$$$
