
     RDKit          3D

 34 36  0  0  0  0  0  0  0  0999 V2000
   46.7670   34.7520   42.1010 C   0  0  0  0  0  0  0  0  0  0  0  0
   47.9760   35.3140   41.8220 C   0  0  0  0  0  0  0  0  0  0  0  0
   48.5700   35.0850   40.6270 C   0  0  0  0  0  0  0  0  0  0  0  0
   47.8160   34.2320   39.7460 C   0  0  0  0  0  0  0  0  0  0  0  0
   46.3110   33.8270   40.7100 S   0  0  0  0  0  0  0  0  0  0  0  0
   44.4640   35.9780   44.8230 C   0  0  0  0  0  0  0  0  0  0  0  0
   45.1180   35.9640   43.5770 C   0  0  0  0  0  0  0  0  0  0  0  0
   46.0160   34.9060   43.3250 C   0  0  0  0  0  0  0  0  0  0  0  0
   46.1860   33.9950   44.2790 N   0  0  0  0  0  0  0  0  0  0  0  0
   45.5470   34.0340   45.4610 C   0  0  0  0  0  0  0  0  0  0  0  0
   44.6870   35.0240   45.7320 N   0  0  0  0  0  0  0  0  0  0  0  0
   48.2170   33.8130   38.3880 C   0  0  0  0  0  0  0  0  0  0  0  0
   48.2690   34.5490   37.3040 N   0  0  0  0  0  0  0  0  0  0  0  0
   48.6840   33.7370   36.3510 O   0  0  0  0  0  0  0  0  0  0  0  0
   48.8830   32.5370   36.8290 C   0  0  0  0  0  0  0  0  0  0  0  0
   48.5860   32.5590   38.1570 N   0  0  0  0  0  0  0  0  0  0  0  0
   49.3550   31.4120   35.9790 C   0  0  0  0  0  0  0  0  0  0  0  0
   50.7690   30.9790   36.3140 C   0  0  0  0  0  0  0  0  0  0  0  0
   48.4670   30.2020   36.2520 C   0  0  0  0  0  0  0  0  0  0  0  0
   49.3160   31.7590   34.5140 C   0  0  0  0  0  0  0  0  0  0  0  0
   48.4700   35.9541   42.5678 H   0  0  0  0  0  0  0  0  0  0  0  0
   49.5451   35.5140   40.3529 H   0  0  0  0  0  0  0  0  0  0  0  0
   43.7567   36.7885   45.0528 H   0  0  0  0  0  0  0  0  0  0  0  0
   44.9357   36.7486   42.8279 H   0  0  0  0  0  0  0  0  0  0  0  0
   45.7314   33.2490   46.2091 H   0  0  0  0  0  0  0  0  0  0  0  0
   50.8918   30.9414   37.4065 H   0  0  0  0  0  0  0  0  0  0  0  0
   50.9575   29.9820   35.8893 H   0  0  0  0  0  0  0  0  0  0  0  0
   51.4835   31.6995   35.8893 H   0  0  0  0  0  0  0  0  0  0  0  0
   48.3634   30.0608   37.3380 H   0  0  0  0  0  0  0  0  0  0  0  0
   47.4746   30.3677   35.8074 H   0  0  0  0  0  0  0  0  0  0  0  0
   48.9227   29.3050   35.8074 H   0  0  0  0  0  0  0  0  0  0  0  0
   49.1938   32.8460   34.3978 H   0  0  0  0  0  0  0  0  0  0  0  0
   50.2554   31.4425   34.0371 H   0  0  0  0  0  0  0  0  0  0  0  0
   48.4703   31.2419   34.0371 H   0  0  0  0  0  0  0  0  0  0  0  0
  1  8  1  0
  2  1  2  0
  3  2  1  0
  4  3  2  0
  4  5  1  0
  5  1  1  0
  6 11  2  0
  7  6  1  0
  8  7  2  0
  8  9  1  0
  9 10  2  0
 10 11  1  0
 12  4  1  0
 13 12  2  0
 14 15  1  0
 14 13  1  0
 15 16  2  0
 16 12  1  0
 17 19  1  0
 17 18  1  0
 17 15  1  0
 20 17  1  0
  2 21  1  0
  3 22  1  0
  6 23  1  0
  7 24  1  0
 10 25  1  0
 18 26  1  0
 18 27  1  0
 18 28  1  0
 19 29  1  0
 19 30  1  0
 19 31  1  0
 20 32  1  0
 20 33  1  0
 20 34  1  0
M  ISO  8  21  14  22  14  23  14  24  14  25  14  26   8  27   8  28   8
M  ISO  6  29   8  30   8  31   8  32   8  33   8  34   8
M  END
>  <minimizedAffinity>  (1) 
-5.68179464

>  <minimizedRMSD>  (1) 
0.275520951

$$$$
