
     RDKit          3D

 29 32  0  0  0  0  0  0  0  0999 V2000
   46.7730   34.7620   42.1230 C   0  0  0  0  0  0  0  0  0  0  0  0
   47.9880   35.3180   41.8530 C   0  0  0  0  0  0  0  0  0  0  0  0
   48.5900   35.1070   40.6580 C   0  0  0  0  0  0  0  0  0  0  0  0
   47.8310   34.2700   39.7620 C   0  0  0  0  0  0  0  0  0  0  0  0
   46.3220   33.8620   40.7150 S   0  0  0  0  0  0  0  0  0  0  0  0
   44.4640   35.9340   44.8600 C   0  0  0  0  0  0  0  0  0  0  0  0
   45.1170   35.9430   43.6030 C   0  0  0  0  0  0  0  0  0  0  0  0
   46.0210   34.9030   43.3470 C   0  0  0  0  0  0  0  0  0  0  0  0
   46.2080   33.9820   44.2900 N   0  0  0  0  0  0  0  0  0  0  0  0
   45.5730   34.0010   45.4720 C   0  0  0  0  0  0  0  0  0  0  0  0
   44.7010   34.9770   45.7550 N   0  0  0  0  0  0  0  0  0  0  0  0
   48.2380   33.8700   38.3990 C   0  0  0  0  0  0  0  0  0  0  0  0
   48.2490   34.5960   37.3070 N   0  0  0  0  0  0  0  0  0  0  0  0
   48.6890   33.8070   36.3600 O   0  0  0  0  0  0  0  0  0  0  0  0
   48.9510   32.6010   36.8480 C   0  0  0  0  0  0  0  0  0  0  0  0
   48.6610   32.6390   38.1660 N   0  0  0  0  0  0  0  0  0  0  0  0
   49.4650   31.3930   36.1520 C   0  0  0  0  0  0  0  0  0  0  0  0
   48.4350   30.6830   35.2630 C   0  0  0  0  0  0  0  0  0  0  0  0
   49.5300   31.4570   34.6270 C   0  0  0  0  0  0  0  0  0  0  0  0
   48.4832   35.9426   42.6111 H   0  0  0  0  0  0  0  0  0  0  0  0
   49.5686   35.5351   40.3951 H   0  0  0  0  0  0  0  0  0  0  0  0
   43.7474   36.7329   45.1014 H   0  0  0  0  0  0  0  0  0  0  0  0
   44.9232   36.7313   42.8607 H   0  0  0  0  0  0  0  0  0  0  0  0
   45.7697   33.2111   46.2119 H   0  0  0  0  0  0  0  0  0  0  0  0
   50.1667   31.1106   36.9506 H   0  0  0  0  0  0  0  0  0  0  0  0
   48.4313   29.5849   35.1986 H   0  0  0  0  0  0  0  0  0  0  0  0
   47.3374   30.6940   35.1910 H   0  0  0  0  0  0  0  0  0  0  0  0
   50.3329   30.9291   34.0916 H   0  0  0  0  0  0  0  0  0  0  0  0
   49.5695   32.2737   33.8912 H   0  0  0  0  0  0  0  0  0  0  0  0
  1  8  1  0
  2  1  2  0
  3  2  1  0
  4  3  2  0
  4  5  1  0
  5  1  1  0
  6 11  2  0
  7  6  1  0
  8  7  2  0
  8  9  1  0
  9 10  2  0
 10 11  1  0
 12  4  1  0
 13 12  2  0
 14 15  1  0
 14 13  1  0
 15 16  2  0
 16 12  1  0
 17 15  1  0
 18 17  1  0
 19 18  1  0
 19 17  1  0
  2 20  1  0
  3 21  1  0
  6 22  1  0
  7 23  1  0
 10 24  1  0
 17 25  1  0
 18 26  1  0
 18 27  1  0
 19 28  1  0
 19 29  1  0
M  ISO  8  20  14  21  14  22  14  23  14  24  14  25  13  26  13  27  13
M  ISO  2  28  13  29  13
M  END
>  <minimizedAffinity>  (1) 
-5.54934406

>  <minimizedRMSD>  (1) 
0.414339632

$$$$
