
     RDKit          3D

 24 26  0  0  0  0  0  0  0  0999 V2000
   46.7790   34.7730   42.1190 C   0  0  0  0  0  0  0  0  0  0  0  0
   47.9850   35.3500   41.8560 C   0  0  0  0  0  0  0  0  0  0  0  0
   48.6000   35.1240   40.6630 C   0  0  0  0  0  0  0  0  0  0  0  0
   47.8600   34.2520   39.7790 C   0  0  0  0  0  0  0  0  0  0  0  0
   46.3730   33.8530   40.7370 S   0  0  0  0  0  0  0  0  0  0  0  0
   44.4560   35.9590   44.8430 C   0  0  0  0  0  0  0  0  0  0  0  0
   45.1170   35.9540   43.5980 C   0  0  0  0  0  0  0  0  0  0  0  0
   46.0150   34.9220   43.3370 C   0  0  0  0  0  0  0  0  0  0  0  0
   46.1890   34.0000   44.2950 N   0  0  0  0  0  0  0  0  0  0  0  0
   45.5570   34.0140   45.4720 C   0  0  0  0  0  0  0  0  0  0  0  0
   44.6830   35.0060   45.7430 N   0  0  0  0  0  0  0  0  0  0  0  0
   48.2750   33.8290   38.4270 C   0  0  0  0  0  0  0  0  0  0  0  0
   48.1900   34.5330   37.3070 N   0  0  0  0  0  0  0  0  0  0  0  0
   48.6830   33.7420   36.3710 O   0  0  0  0  0  0  0  0  0  0  0  0
   49.0580   32.5960   36.8890 C   0  0  0  0  0  0  0  0  0  0  0  0
   48.8020   32.6300   38.2260 N   0  0  0  0  0  0  0  0  0  0  0  0
   49.6470   31.4870   36.1470 C   0  0  0  0  0  0  0  0  0  0  0  0
   49.6540   31.5730   34.8880 O   0  0  0  0  0  0  0  0  0  0  0  0
   48.4610   35.9977   42.6069 H   0  0  0  0  0  0  0  0  0  0  0  0
   49.5718   35.5648   40.3959 H   0  0  0  0  0  0  0  0  0  0  0  0
   43.7417   36.7630   45.0739 H   0  0  0  0  0  0  0  0  0  0  0  0
   44.9290   36.7423   42.8542 H   0  0  0  0  0  0  0  0  0  0  0  0
   45.7473   33.2241   46.2135 H   0  0  0  0  0  0  0  0  0  0  0  0
   50.0678   30.6117   36.6636 H   0  0  0  0  0  0  0  0  0  0  0  0
  1  8  1  0
  2  1  2  0
  3  2  1  0
  4  3  2  0
  4  5  1  0
  5  1  1  0
  6 11  2  0
  7  6  1  0
  8  7  2  0
  8  9  1  0
  9 10  2  0
 10 11  1  0
 12  4  1  0
 13 12  2  0
 14 15  1  0
 14 13  1  0
 15 16  2  0
 16 12  1  0
 17 15  1  0
 18 17  2  0
  2 19  1  0
  3 20  1  0
  6 21  1  0
  7 22  1  0
 10 23  1  0
 17 24  1  0
M  ISO  6  19  14  20  14  21  14  22  14  23  14  24   6
M  END
>  <minimizedAffinity>  (1) 
-5.45529985

>  <minimizedRMSD>  (1) 
0.0560106784

$$$$
