
     RDKit          3D

 33 35  0  0  1  0  0  0  0  0999 V2000
   44.6940   35.0280   45.8040 C   0  0  0  0  0  0  0  0  0  0  0  0
   44.5310   35.5800   44.5350 C   0  0  0  0  0  0  0  0  0  0  0  0
   45.1180   34.9160   43.4360 C   0  0  0  0  0  0  0  0  0  0  0  0
   45.8090   33.7800   43.6660 N   0  0  0  0  0  0  0  0  0  0  0  0
   45.9520   33.2610   44.9230 C   0  0  0  0  0  0  0  0  0  0  0  0
   45.3960   33.8910   45.9580 N   0  0  0  0  0  0  0  0  0  0  0  0
   46.6750   32.0710   45.1780 N   0  0  0  0  0  0  0  0  0  0  0  0
   47.5330   31.6720   44.1910 C   0  0  0  0  0  0  0  0  0  0  0  0
   48.1210   30.4950   44.6730 C   0  0  0  0  0  0  0  0  0  0  0  0
   47.6110   30.2310   45.9010 N   0  0  0  0  0  0  0  0  0  0  0  0
   46.7380   31.1910   46.1940 C   0  0  0  0  0  0  0  0  0  0  0  0
   45.9480   31.2860   47.4160 C   0  0  2  0  0  0  0  0  0  0  0  0
   46.7250   32.1870   48.3900 C   0  0  0  0  0  0  0  0  0  0  0  0
   45.8130   29.9330   48.0670 C   0  0  0  0  0  0  0  0  0  0  0  0
   44.9320   29.0570   47.2500 C   0  0  0  0  0  0  0  0  0  0  0  0
   44.8890   27.6870   47.3910 C   0  0  0  0  0  0  0  0  0  0  0  0
   43.9520   27.2900   46.4490 C   0  0  0  0  0  0  0  0  0  0  0  0
   43.4710   28.4070   45.7880 C   0  0  0  0  0  0  0  0  0  0  0  0
   44.1080   29.4380   46.3240 O   0  0  0  0  0  0  0  0  0  0  0  0
   44.2485   35.5221   46.6800 H   0  0  0  0  0  0  0  0  0  0  0  0
   43.9597   36.5092   44.3931 H   0  0  0  0  0  0  0  0  0  0  0  0
   45.0145   35.3153   42.4163 H   0  0  0  0  0  0  0  0  0  0  0  0
   47.7210   32.1677   43.2272 H   0  0  0  0  0  0  0  0  0  0  0  0
   48.8702   29.8876   44.1441 H   0  0  0  0  0  0  0  0  0  0  0  0
   44.9484   31.6792   47.1787 H   0  0  0  0  0  0  0  0  0  0  0  0
   46.4813   31.9044   49.4247 H   0  0  0  0  0  0  0  0  0  0  0  0
   47.8050   32.0641   48.2210 H   0  0  0  0  0  0  0  0  0  0  0  0
   46.4446   33.2372   48.2210 H   0  0  0  0  0  0  0  0  0  0  0  0
   46.8071   29.4701   48.1530 H   0  0  0  0  0  0  0  0  0  0  0  0
   45.3696   30.0574   49.0660 H   0  0  0  0  0  0  0  0  0  0  0  0
   45.4626   27.0569   48.0867 H   0  0  0  0  0  0  0  0  0  0  0  0
   43.6405   26.2525   46.2575 H   0  0  0  0  0  0  0  0  0  0  0  0
   42.7182   28.4333   44.9863 H   0  0  0  0  0  0  0  0  0  0  0  0
  1  6  2  0
  2  1  1  0
  3  4  1  0
  3  2  2  0
  4  5  2  0
  5  7  1  0
  5  6  1  0
  7 11  1  0
  8  9  2  0
  8  7  1  0
  9 10  1  0
 10 11  2  0
 11 12  1  0
 12 14  1  0
 12 13  1  0
 15 16  2  0
 15 14  1  0
 17 16  1  0
 18 19  1  0
 18 17  2  0
 19 15  1  0
  1 20  1  0
  2 21  1  0
  3 22  1  0
  8 23  1  0
  9 24  1  0
 12 25  1  6
 13 26  1  0
 13 27  1  0
 13 28  1  0
 14 29  1  0
 14 30  1  0
 16 31  1  0
 17 32  1  0
 18 33  1  0
M  ISO  8  20  14  21  14  22  14  23  14  24  14  25   8  26   8  27   8
M  ISO  6  28   8  29   8  30   8  31  14  32  14  33  14
M  END
>  <minimizedAffinity>  (1) 
-4.44187021

>  <minimizedRMSD>  (1) 
0.810144305

$$$$
