
     RDKit          3D

 44 48  0  0  0  0  0  0  0  0999 V2000
   48.2630   33.8310   38.4300 C   0  0  0  0  0  0  0  0  0  0  0  0
   47.9740   34.3930   37.2800 N   0  0  0  0  0  0  0  0  0  0  0  0
   48.5800   33.6540   36.3840 O   0  0  0  0  0  0  0  0  0  0  0  0
   49.2290   32.6580   36.9540 C   0  0  0  0  0  0  0  0  0  0  0  0
   49.0350   32.7560   38.2850 N   0  0  0  0  0  0  0  0  0  0  0  0
   46.7910   34.7630   42.1460 C   0  0  0  0  0  0  0  0  0  0  0  0
   47.9840   35.3320   41.8610 C   0  0  0  0  0  0  0  0  0  0  0  0
   48.5900   35.1140   40.6720 C   0  0  0  0  0  0  0  0  0  0  0  0
   47.8460   34.2430   39.7840 C   0  0  0  0  0  0  0  0  0  0  0  0
   46.3580   33.8330   40.7560 S   0  0  0  0  0  0  0  0  0  0  0  0
   44.4490   35.9600   44.8530 C   0  0  0  0  0  0  0  0  0  0  0  0
   45.1160   35.9650   43.6020 C   0  0  0  0  0  0  0  0  0  0  0  0
   46.0280   34.9040   43.3650 C   0  0  0  0  0  0  0  0  0  0  0  0
   46.1960   33.9950   44.3090 N   0  0  0  0  0  0  0  0  0  0  0  0
   45.5480   34.0170   45.4880 C   0  0  0  0  0  0  0  0  0  0  0  0
   44.6750   35.0040   45.7540 N   0  0  0  0  0  0  0  0  0  0  0  0
   50.0310   31.6090   36.3180 C   0  0  0  0  0  0  0  0  0  0  0  0
   49.7890   30.8930   35.1850 C   0  0  0  0  0  0  0  0  0  0  0  0
   50.8670   30.0440   35.0440 C   0  0  0  0  0  0  0  0  0  0  0  0
   51.7200   30.2840   36.1060 C   0  0  0  0  0  0  0  0  0  0  0  0
   51.1920   31.2140   36.8380 O   0  0  0  0  0  0  0  0  0  0  0  0
   52.9900   29.6780   36.4420 N   0  0  0  0  0  0  0  0  0  0  0  0
   54.0930   29.2750   35.5790 C   0  0  0  0  0  0  0  0  0  0  0  0
   55.3120   30.1080   35.9450 C   0  0  0  0  0  0  0  0  0  0  0  0
   55.1290   30.8440   37.2590 C   0  0  0  0  0  0  0  0  0  0  0  0
   54.6120   29.8740   38.3000 C   0  0  0  0  0  0  0  0  0  0  0  0
   53.2860   29.3680   37.8350 C   0  0  0  0  0  0  0  0  0  0  0  0
   48.4679   35.9807   42.6061 H   0  0  0  0  0  0  0  0  0  0  0  0
   49.5600   35.5576   40.4030 H   0  0  0  0  0  0  0  0  0  0  0  0
   43.7310   36.7606   45.0846 H   0  0  0  0  0  0  0  0  0  0  0  0
   44.9358   36.7508   42.8537 H   0  0  0  0  0  0  0  0  0  0  0  0
   45.7323   33.2288   46.2328 H   0  0  0  0  0  0  0  0  0  0  0  0
   48.9159   30.9747   34.5208 H   0  0  0  0  0  0  0  0  0  0  0  0
   51.0198   29.3122   34.2371 H   0  0  0  0  0  0  0  0  0  0  0  0
   53.8252   29.4495   34.5265 H   0  0  0  0  0  0  0  0  0  0  0  0
   54.3096   28.2050   35.7141 H   0  0  0  0  0  0  0  0  0  0  0  0
   56.1835   29.4423   36.0301 H   0  0  0  0  0  0  0  0  0  0  0  0
   55.4579   30.8589   35.1545 H   0  0  0  0  0  0  0  0  0  0  0  0
   56.0939   31.2576   37.5874 H   0  0  0  0  0  0  0  0  0  0  0  0
   54.4097   31.6658   37.1274 H   0  0  0  0  0  0  0  0  0  0  0  0
   55.3146   29.0349   38.4110 H   0  0  0  0  0  0  0  0  0  0  0  0
   54.5118   30.3742   39.2746 H   0  0  0  0  0  0  0  0  0  0  0  0
   52.5038   29.8185   38.4636 H   0  0  0  0  0  0  0  0  0  0  0  0
   53.3161   28.2716   37.9182 H   0  0  0  0  0  0  0  0  0  0  0  0
  1  9  1  0
  2  1  2  0
  3  4  1  0
  3  2  1  0
  4  5  2  0
  5  1  1  0
  6 13  1  0
  7  6  2  0
  8  7  1  0
  9  8  2  0
  9 10  1  0
 10  6  1  0
 11 16  2  0
 12 11  1  0
 13 12  2  0
 13 14  1  0
 14 15  2  0
 15 16  1  0
 17 21  1  0
 17  4  1  0
 18 17  2  0
 19 18  1  0
 19 20  2  0
 20 22  1  0
 20 21  1  0
 22 27  1  0
 23 24  1  0
 23 22  1  0
 24 25  1  0
 25 26  1  0
 27 26  1  0
  7 28  1  0
  8 29  1  0
 11 30  1  0
 12 31  1  0
 15 32  1  0
 18 33  1  0
 19 34  1  0
 23 35  1  0
 23 36  1  0
 24 37  1  0
 24 38  1  0
 25 39  1  0
 25 40  1  0
 26 41  1  0
 26 42  1  0
 27 43  1  0
 27 44  1  0
M  ISO  8  28  14  29  14  30  14  31  14  32  14  33  14  34  14  35  13
M  ISO  8  36  13  37  13  38  13  39  13  40  13  41  13  42  13  43  13
M  ISO  1  44  13
M  END
>  <minimizedAffinity>  (1) 
-6.32428885

>  <minimizedRMSD>  (1) 
0.563882768

$$$$
