
     RDKit          3D

 40 45  0  0  0  0  0  0  0  0999 V2000
   48.2720   33.8230   38.3420 C   0  0  0  0  0  0  0  0  0  0  0  0
   48.1580   34.4840   37.2200 N   0  0  0  0  0  0  0  0  0  0  0  0
   48.6610   33.6880   36.2960 O   0  0  0  0  0  0  0  0  0  0  0  0
   49.0720   32.5760   36.8200 C   0  0  0  0  0  0  0  0  0  0  0  0
   48.8340   32.6270   38.1620 N   0  0  0  0  0  0  0  0  0  0  0  0
   46.8170   34.7700   42.0510 C   0  0  0  0  0  0  0  0  0  0  0  0
   48.0190   35.3270   41.7810 C   0  0  0  0  0  0  0  0  0  0  0  0
   48.6130   35.0920   40.5840 C   0  0  0  0  0  0  0  0  0  0  0  0
   47.8660   34.2450   39.7070 C   0  0  0  0  0  0  0  0  0  0  0  0
   46.3600   33.8420   40.6620 S   0  0  0  0  0  0  0  0  0  0  0  0
   44.4790   35.9750   44.7610 C   0  0  0  0  0  0  0  0  0  0  0  0
   45.1490   35.9720   43.5100 C   0  0  0  0  0  0  0  0  0  0  0  0
   46.0490   34.9180   43.2780 C   0  0  0  0  0  0  0  0  0  0  0  0
   46.2180   34.0020   44.2260 N   0  0  0  0  0  0  0  0  0  0  0  0
   45.5670   34.0370   45.3980 C   0  0  0  0  0  0  0  0  0  0  0  0
   44.7020   35.0190   45.6620 N   0  0  0  0  0  0  0  0  0  0  0  0
   49.6910   31.4200   36.1790 C   0  0  0  0  0  0  0  0  0  0  0  0
   49.1210   30.3320   35.5840 C   0  0  0  0  0  0  0  0  0  0  0  0
   50.1830   29.5370   35.1410 C   0  0  0  0  0  0  0  0  0  0  0  0
   51.3430   30.1910   35.4950 C   0  0  0  0  0  0  0  0  0  0  0  0
   51.0200   31.2820   36.0980 O   0  0  0  0  0  0  0  0  0  0  0  0
   52.6870   29.7840   35.2650 N   0  0  0  0  0  0  0  0  0  0  0  0
   53.5450   29.2740   36.1880 C   0  0  0  0  0  0  0  0  0  0  0  0
   54.7330   28.9860   35.6790 N   0  0  0  0  0  0  0  0  0  0  0  0
   54.6820   29.3080   34.3740 C   0  0  0  0  0  0  0  0  0  0  0  0
   55.6610   29.1970   33.4120 C   0  0  0  0  0  0  0  0  0  0  0  0
   55.3160   29.6090   32.1610 N   0  0  0  0  0  0  0  0  0  0  0  0
   54.0650   30.0930   31.9270 C   0  0  0  0  0  0  0  0  0  0  0  0
   53.1100   30.1930   32.8960 N   0  0  0  0  0  0  0  0  0  0  0  0
   53.4100   29.8010   34.1330 C   0  0  0  0  0  0  0  0  0  0  0  0
   48.5124   35.9669   42.5274 H   0  0  0  0  0  0  0  0  0  0  0  0
   49.5895   35.5183   40.3106 H   0  0  0  0  0  0  0  0  0  0  0  0
   43.7644   36.7791   44.9905 H   0  0  0  0  0  0  0  0  0  0  0  0
   44.9725   36.7561   42.7589 H   0  0  0  0  0  0  0  0  0  0  0  0
   45.7470   33.2514   46.1467 H   0  0  0  0  0  0  0  0  0  0  0  0
   48.0465   30.1231   35.4752 H   0  0  0  0  0  0  0  0  0  0  0  0
   50.1069   28.5755   34.6122 H   0  0  0  0  0  0  0  0  0  0  0  0
   53.2807   29.1174   37.2442 H   0  0  0  0  0  0  0  0  0  0  0  0
   56.6610   28.7996   33.6403 H   0  0  0  0  0  0  0  0  0  0  0  0
   53.8122   30.4191   30.9073 H   0  0  0  0  0  0  0  0  0  0  0  0
  1  9  1  0
  2  1  2  0
  3  4  1  0
  3  2  1  0
  4  5  2  0
  5  1  1  0
  6 13  1  0
  7  6  2  0
  8  7  1  0
  9  8  2  0
  9 10  1  0
 10  6  1  0
 11 16  2  0
 12 11  1  0
 13 12  2  0
 13 14  1  0
 14 15  2  0
 15 16  1  0
 17  4  1  0
 18 17  2  0
 19 20  2  0
 19 18  1  0
 20 21  1  0
 21 17  1  0
 22 20  1  0
 22 23  1  0
 24 23  2  0
 25 24  1  0
 26 25  2  0
 27 26  1  0
 28 27  2  0
 28 29  1  0
 29 30  2  0
 30 25  1  0
 30 22  1  0
  7 31  1  0
  8 32  1  0
 11 33  1  0
 12 34  1  0
 15 35  1  0
 18 36  1  0
 19 37  1  0
 23 38  1  0
 26 39  1  0
 28 40  1  0
M  ISO  8  31  14  32  14  33  14  34  14  35  14  36  14  37  14  38  14
M  ISO  2  39  14  40  14
M  END
>  <minimizedAffinity>  (1) 
-6.57071924

>  <minimizedRMSD>  (1) 
0.833552837

$$$$
