
     RDKit          3D

 42 47  0  0  0  0  0  0  0  0999 V2000
   48.4300   33.5590   38.3680 C   0  0  0  0  0  0  0  0  0  0  0  0
   48.2060   34.0640   37.1810 N   0  0  0  0  0  0  0  0  0  0  0  0
   48.8180   33.2430   36.3460 O   0  0  0  0  0  0  0  0  0  0  0  0
   49.4010   32.2650   36.9910 C   0  0  0  0  0  0  0  0  0  0  0  0
   49.1700   32.4340   38.3230 N   0  0  0  0  0  0  0  0  0  0  0  0
   46.8580   34.7200   41.9650 C   0  0  0  0  0  0  0  0  0  0  0  0
   48.0120   35.3510   41.6520 C   0  0  0  0  0  0  0  0  0  0  0  0
   48.6380   35.0580   40.4840 C   0  0  0  0  0  0  0  0  0  0  0  0
   47.9770   34.0750   39.6870 C   0  0  0  0  0  0  0  0  0  0  0  0
   46.4990   33.6350   40.6680 S   0  0  0  0  0  0  0  0  0  0  0  0
   44.4990   36.0640   44.5900 C   0  0  0  0  0  0  0  0  0  0  0  0
   45.1910   35.9970   43.3640 C   0  0  0  0  0  0  0  0  0  0  0  0
   46.0720   34.9210   43.1720 C   0  0  0  0  0  0  0  0  0  0  0  0
   46.2060   34.0230   44.1570 N   0  0  0  0  0  0  0  0  0  0  0  0
   45.5300   34.1220   45.3070 C   0  0  0  0  0  0  0  0  0  0  0  0
   44.6830   35.1320   45.5260 N   0  0  0  0  0  0  0  0  0  0  0  0
   50.1720   31.1590   36.4570 C   0  0  0  0  0  0  0  0  0  0  0  0
   49.7760   29.9380   36.0040 C   0  0  0  0  0  0  0  0  0  0  0  0
   50.9240   29.2750   35.6090 C   0  0  0  0  0  0  0  0  0  0  0  0
   51.9770   30.1220   35.8390 C   0  0  0  0  0  0  0  0  0  0  0  0
   51.5060   31.2210   36.3370 O   0  0  0  0  0  0  0  0  0  0  0  0
   53.3470   29.8230   35.5680 N   0  0  0  0  0  0  0  0  0  0  0  0
   54.3730   29.4680   36.3650 C   0  0  0  0  0  0  0  0  0  0  0  0
   55.4630   29.3070   35.5740 N   0  0  0  0  0  0  0  0  0  0  0  0
   55.1170   29.5600   34.2820 C   0  0  0  0  0  0  0  0  0  0  0  0
   55.8930   29.5210   33.1420 C   0  0  0  0  0  0  0  0  0  0  0  0
   55.3010   29.8210   31.9580 N   0  0  0  0  0  0  0  0  0  0  0  0
   53.9760   30.1460   31.9450 C   0  0  0  0  0  0  0  0  0  0  0  0
   53.2360   30.1780   33.0680 N   0  0  0  0  0  0  0  0  0  0  0  0
   53.7720   29.8880   34.2820 C   0  0  0  0  0  0  0  0  0  0  0  0
   57.2880   29.1730   33.2020 N   0  0  0  0  0  0  0  0  0  0  0  0
   48.4402   36.0961   42.3387 H   0  0  0  0  0  0  0  0  0  0  0  0
   49.5783   35.5388   40.1764 H   0  0  0  0  0  0  0  0  0  0  0  0
   43.8004   36.8930   44.7766 H   0  0  0  0  0  0  0  0  0  0  0  0
   45.0460   36.7605   42.5855 H   0  0  0  0  0  0  0  0  0  0  0  0
   45.6739   33.3587   46.0859 H   0  0  0  0  0  0  0  0  0  0  0  0
   48.7461   29.5542   35.9606 H   0  0  0  0  0  0  0  0  0  0  0  0
   50.9811   28.2597   35.1895 H   0  0  0  0  0  0  0  0  0  0  0  0
   54.3342   29.3335   37.4561 H   0  0  0  0  0  0  0  0  0  0  0  0
   53.4973   30.3898   30.9851 H   0  0  0  0  0  0  0  0  0  0  0  0
   57.8505   29.1495   32.3395 H   0  0  0  0  0  0  0  0  0  0  0  0
   57.7240   28.9474   34.1075 H   0  0  0  0  0  0  0  0  0  0  0  0
  1  9  1  0
  2  1  2  0
  3  4  1  0
  3  2  1  0
  4  5  2  0
  5  1  1  0
  6 13  1  0
  7  6  2  0
  8  7  1  0
  9  8  2  0
  9 10  1  0
 10  6  1  0
 11 16  2  0
 12 11  1  0
 13 12  2  0
 13 14  1  0
 14 15  2  0
 15 16  1  0
 17  4  1  0
 18 17  2  0
 19 20  2  0
 19 18  1  0
 20 21  1  0
 21 17  1  0
 22 20  1  0
 22 23  1  0
 24 23  2  0
 25 30  2  0
 25 24  1  0
 26 31  1  0
 26 25  1  0
 27 26  2  0
 28 27  1  0
 28 29  2  0
 29 30  1  0
 30 22  1  0
  7 32  1  0
  8 33  1  0
 11 34  1  0
 12 35  1  0
 15 36  1  0
 18 37  1  0
 19 38  1  0
 23 39  1  0
 28 40  1  0
 31 41  1  0
 31 42  1  0
M  ISO  8  32  14  33  14  34  14  35  14  36  14  37  14  38  14  39  14
M  ISO  1  40  14
M  END
>  <minimizedAffinity>  (1) 
-6.64887094

>  <minimizedRMSD>  (1) 
1.16664958

$$$$
