
     RDKit          3D

 42 46  0  0  0  0  0  0  0  0999 V2000
   48.2430   33.8530   38.3830 C   0  0  0  0  0  0  0  0  0  0  0  0
   48.1390   34.5330   37.2720 N   0  0  0  0  0  0  0  0  0  0  0  0
   48.6330   33.7390   36.3410 O   0  0  0  0  0  0  0  0  0  0  0  0
   49.0310   32.6040   36.8540 C   0  0  0  0  0  0  0  0  0  0  0  0
   48.7870   32.6510   38.1890 N   0  0  0  0  0  0  0  0  0  0  0  0
   46.7900   34.7540   42.1020 C   0  0  0  0  0  0  0  0  0  0  0  0
   47.9950   35.3150   41.8440 C   0  0  0  0  0  0  0  0  0  0  0  0
   48.5890   35.0940   40.6410 C   0  0  0  0  0  0  0  0  0  0  0  0
   47.8420   34.2630   39.7550 C   0  0  0  0  0  0  0  0  0  0  0  0
   46.3400   33.8550   40.7060 S   0  0  0  0  0  0  0  0  0  0  0  0
   44.4700   35.9370   44.8360 C   0  0  0  0  0  0  0  0  0  0  0  0
   45.1230   35.9450   43.5810 C   0  0  0  0  0  0  0  0  0  0  0  0
   46.0300   34.8950   43.3340 C   0  0  0  0  0  0  0  0  0  0  0  0
   46.2130   33.9770   44.2800 N   0  0  0  0  0  0  0  0  0  0  0  0
   45.5810   33.9940   45.4590 C   0  0  0  0  0  0  0  0  0  0  0  0
   44.7070   34.9790   45.7340 N   0  0  0  0  0  0  0  0  0  0  0  0
   49.6300   31.4560   36.1910 C   0  0  0  0  0  0  0  0  0  0  0  0
   49.4320   30.1240   36.3910 C   0  0  0  0  0  0  0  0  0  0  0  0
   50.2530   29.4700   35.4930 C   0  0  0  0  0  0  0  0  0  0  0  0
   50.9240   30.4380   34.7760 C   0  0  0  0  0  0  0  0  0  0  0  0
   50.5340   31.5910   35.2120 O   0  0  0  0  0  0  0  0  0  0  0  0
   51.8770   30.1780   33.7390 N   0  0  0  0  0  0  0  0  0  0  0  0
   53.1060   29.7070   34.0620 C   0  0  0  0  0  0  0  0  0  0  0  0
   54.0780   29.4330   33.1070 C   0  0  0  0  0  0  0  0  0  0  0  0
   55.4220   28.9140   33.5010 C   0  0  0  0  0  0  0  0  0  0  0  0
   53.7250   29.6680   31.8000 C   0  0  0  0  0  0  0  0  0  0  0  0
   54.6030   29.4210   30.9270 O   0  0  0  0  0  0  0  0  0  0  0  0
   52.5030   30.1350   31.4970 N   0  0  0  0  0  0  0  0  0  0  0  0
   51.5680   30.3950   32.4490 C   0  0  0  0  0  0  0  0  0  0  0  0
   50.4410   30.8320   32.0990 O   0  0  0  0  0  0  0  0  0  0  0  0
   48.4885   35.9433   42.6001 H   0  0  0  0  0  0  0  0  0  0  0  0
   49.5664   35.5215   40.3730 H   0  0  0  0  0  0  0  0  0  0  0  0
   43.7531   36.7360   45.0761 H   0  0  0  0  0  0  0  0  0  0  0  0
   44.9324   36.7311   42.8356 H   0  0  0  0  0  0  0  0  0  0  0  0
   45.7753   33.2054   46.2009 H   0  0  0  0  0  0  0  0  0  0  0  0
   48.7533   29.6607   37.1222 H   0  0  0  0  0  0  0  0  0  0  0  0
   50.3528   28.3812   35.3725 H   0  0  0  0  0  0  0  0  0  0  0  0
   53.3437   29.5347   35.1221 H   0  0  0  0  0  0  0  0  0  0  0  0
   55.4967   28.8851   34.5981 H   0  0  0  0  0  0  0  0  0  0  0  0
   55.5560   27.8995   33.0975 H   0  0  0  0  0  0  0  0  0  0  0  0
   56.2031   29.5752   33.0975 H   0  0  0  0  0  0  0  0  0  0  0  0
   52.2658   30.3021   30.5087 H   0  0  0  0  0  0  0  0  0  0  0  0
  1  9  1  0
  2  1  2  0
  3  4  1  0
  3  2  1  0
  4  5  2  0
  5  1  1  0
  6 13  1  0
  7  6  2  0
  8  7  1  0
  9  8  2  0
  9 10  1  0
 10  6  1  0
 11 16  2  0
 12 11  1  0
 13 12  2  0
 13 14  1  0
 14 15  2  0
 15 16  1  0
 17 18  2  0
 17  4  1  0
 19 18  1  0
 20 21  1  0
 20 19  2  0
 21 17  1  0
 22 23  1  0
 22 20  1  0
 24 25  1  0
 24 23  2  0
 26 24  1  0
 27 26  2  0
 28 26  1  0
 28 29  1  0
 29 22  1  0
 30 29  2  0
  7 31  1  0
  8 32  1  0
 11 33  1  0
 12 34  1  0
 15 35  1  0
 18 36  1  0
 19 37  1  0
 23 38  1  0
 25 39  1  0
 25 40  1  0
 25 41  1  0
 28 42  1  0
M  ISO  8  31  14  32  14  33  14  34  14  35  14  36  14  37  14  38  14
M  ISO  4  39   8  40   8  41   8  42   9
M  END
>  <minimizedAffinity>  (1) 
-6.81174946

>  <minimizedRMSD>  (1) 
2.33264518

$$$$
