
     RDKit          3D

 39 43  0  0  0  0  0  0  0  0999 V2000
   48.2820   33.6790   38.5110 C   0  0  0  0  0  0  0  0  0  0  0  0
   47.9390   34.1290   37.3380 N   0  0  0  0  0  0  0  0  0  0  0  0
   48.5900   33.3820   36.4720 O   0  0  0  0  0  0  0  0  0  0  0  0
   49.3210   32.4900   37.0880 C   0  0  0  0  0  0  0  0  0  0  0  0
   49.1430   32.6570   38.4270 N   0  0  0  0  0  0  0  0  0  0  0  0
   46.7780   34.7500   42.1680 C   0  0  0  0  0  0  0  0  0  0  0  0
   47.9380   35.3690   41.8540 C   0  0  0  0  0  0  0  0  0  0  0  0
   48.5400   35.1000   40.6680 C   0  0  0  0  0  0  0  0  0  0  0  0
   47.8510   34.1550   39.8520 C   0  0  0  0  0  0  0  0  0  0  0  0
   46.3870   33.7140   40.8370 S   0  0  0  0  0  0  0  0  0  0  0  0
   44.4330   36.0260   44.8390 C   0  0  0  0  0  0  0  0  0  0  0  0
   45.1160   35.9900   43.6020 C   0  0  0  0  0  0  0  0  0  0  0  0
   46.0040   34.9190   43.3870 C   0  0  0  0  0  0  0  0  0  0  0  0
   46.1500   34.0090   44.3460 N   0  0  0  0  0  0  0  0  0  0  0  0
   45.4930   34.0690   45.5040 C   0  0  0  0  0  0  0  0  0  0  0  0
   44.6370   35.0700   45.7540 N   0  0  0  0  0  0  0  0  0  0  0  0
   50.1940   31.4690   36.5230 C   0  0  0  0  0  0  0  0  0  0  0  0
   49.9190   30.4790   35.6300 C   0  0  0  0  0  0  0  0  0  0  0  0
   51.1220   29.7950   35.4410 C   0  0  0  0  0  0  0  0  0  0  0  0
   52.0640   30.4050   36.2290 C   0  0  0  0  0  0  0  0  0  0  0  0
   51.4910   31.3810   36.8510 O   0  0  0  0  0  0  0  0  0  0  0  0
   53.4660   30.0230   36.3480 C   0  0  0  0  0  0  0  0  0  0  0  0
   54.0300   29.0580   35.5410 C   0  0  0  0  0  0  0  0  0  0  0  0
   55.3800   28.7470   35.7150 C   0  0  0  0  0  0  0  0  0  0  0  0
   56.1630   29.3750   36.6690 C   0  0  0  0  0  0  0  0  0  0  0  0
   55.6210   30.3270   37.4720 C   0  0  0  0  0  0  0  0  0  0  0  0
   54.2830   30.6200   37.2820 C   0  0  0  0  0  0  0  0  0  0  0  0
   48.3907   36.0857   42.5550 H   0  0  0  0  0  0  0  0  0  0  0  0
   49.4842   35.5732   40.3605 H   0  0  0  0  0  0  0  0  0  0  0  0
   43.7295   36.8445   45.0513 H   0  0  0  0  0  0  0  0  0  0  0  0
   44.9601   36.7667   42.8389 H   0  0  0  0  0  0  0  0  0  0  0  0
   45.6548   33.2890   46.2626 H   0  0  0  0  0  0  0  0  0  0  0  0
   48.9504   30.2626   35.1557 H   0  0  0  0  0  0  0  0  0  0  0  0
   51.2836   28.9286   34.7828 H   0  0  0  0  0  0  0  0  0  0  0  0
   53.4292   28.5440   34.7763 H   0  0  0  0  0  0  0  0  0  0  0  0
   55.8362   27.9785   35.0737 H   0  0  0  0  0  0  0  0  0  0  0  0
   57.2234   29.1030   36.7764 H   0  0  0  0  0  0  0  0  0  0  0  0
   56.2191   30.8415   38.2385 H   0  0  0  0  0  0  0  0  0  0  0  0
   53.8362   31.3904   37.9276 H   0  0  0  0  0  0  0  0  0  0  0  0
  1  9  1  0
  2  1  2  0
  3  4  1  0
  3  2  1  0
  4  5  2  0
  5  1  1  0
  6 13  1  0
  7  6  2  0
  8  7  1  0
  9  8  2  0
  9 10  1  0
 10  6  1  0
 11 16  2  0
 12 11  1  0
 13 12  2  0
 13 14  1  0
 14 15  2  0
 15 16  1  0
 17 21  1  0
 17  4  1  0
 18 17  2  0
 19 18  1  0
 19 20  2  0
 20 22  1  0
 20 21  1  0
 22 27  2  0
 23 24  2  0
 23 22  1  0
 24 25  1  0
 25 26  2  0
 27 26  1  0
  7 28  1  0
  8 29  1  0
 11 30  1  0
 12 31  1  0
 15 32  1  0
 18 33  1  0
 19 34  1  0
 23 35  1  0
 24 36  1  0
 25 37  1  0
 26 38  1  0
 27 39  1  0
M  ISO  8  28  14  29  14  30  14  31  14  32  14  33  14  34  14  35  14
M  ISO  4  36  14  37  14  38  14  39  14
M  END
>  <minimizedAffinity>  (1) 
-6.19379711

>  <minimizedRMSD>  (1) 
0.723133862

$$$$
