
     RDKit          3D

 36 39  0  0  0  0  0  0  0  0999 V2000
   48.1500   33.6460   38.4880 C   0  0  0  0  0  0  0  0  0  0  0  0
   47.6640   33.9650   37.3260 N   0  0  0  0  0  0  0  0  0  0  0  0
   48.3580   33.2640   36.4520 O   0  0  0  0  0  0  0  0  0  0  0  0
   49.2580   32.5250   37.0580 C   0  0  0  0  0  0  0  0  0  0  0  0
   49.1550   32.7470   38.3970 N   0  0  0  0  0  0  0  0  0  0  0  0
   46.7060   34.7670   42.1520 C   0  0  0  0  0  0  0  0  0  0  0  0
   47.8960   35.3280   41.8460 C   0  0  0  0  0  0  0  0  0  0  0  0
   48.4860   35.0380   40.6550 C   0  0  0  0  0  0  0  0  0  0  0  0
   47.7480   34.1360   39.8320 C   0  0  0  0  0  0  0  0  0  0  0  0
   46.2560   33.7610   40.8150 S   0  0  0  0  0  0  0  0  0  0  0  0
   44.4160   36.1160   44.8340 C   0  0  0  0  0  0  0  0  0  0  0  0
   45.0860   36.0620   43.5890 C   0  0  0  0  0  0  0  0  0  0  0  0
   45.9420   34.9680   43.3750 C   0  0  0  0  0  0  0  0  0  0  0  0
   46.0650   34.0690   44.3350 N   0  0  0  0  0  0  0  0  0  0  0  0
   45.4180   34.1440   45.5050 C   0  0  0  0  0  0  0  0  0  0  0  0
   44.6010   35.1550   45.7580 N   0  0  0  0  0  0  0  0  0  0  0  0
   50.2240   31.6120   36.4740 C   0  0  0  0  0  0  0  0  0  0  0  0
   50.1520   30.8610   35.3410 C   0  0  0  0  0  0  0  0  0  0  0  0
   51.3550   30.1740   35.2600 C   0  0  0  0  0  0  0  0  0  0  0  0
   52.1050   30.5380   36.3470 C   0  0  0  0  0  0  0  0  0  0  0  0
   51.4140   31.3880   37.0480 O   0  0  0  0  0  0  0  0  0  0  0  0
   53.4210   30.0640   36.6600 N   0  0  0  0  0  0  0  0  0  0  0  0
   54.1710   30.6260   37.7540 C   0  0  0  0  0  0  0  0  0  0  0  0
   53.9810   31.8990   37.9900 N   0  0  0  0  0  0  0  0  0  0  0  0
   55.0520   29.7660   38.4870 N   0  0  0  0  0  0  0  0  0  0  0  0
   54.4460   32.4310   38.7340 H   0  0  0  0  0  0  0  0  0  0  0  0
   48.3841   36.0138   42.5541 H   0  0  0  0  0  0  0  0  0  0  0  0
   49.4535   35.4643   40.3512 H   0  0  0  0  0  0  0  0  0  0  0  0
   43.7359   36.9533   45.0493 H   0  0  0  0  0  0  0  0  0  0  0  0
   44.9436   36.8398   42.8243 H   0  0  0  0  0  0  0  0  0  0  0  0
   45.5663   33.3597   46.2619 H   0  0  0  0  0  0  0  0  0  0  0  0
   49.3113   30.8092   34.6335 H   0  0  0  0  0  0  0  0  0  0  0  0
   51.6513   29.4684   34.4699 H   0  0  0  0  0  0  0  0  0  0  0  0
   53.8366   29.3103   36.0942 H   0  0  0  0  0  0  0  0  0  0  0  0
   55.6006   30.1408   39.2741 H   0  0  0  0  0  0  0  0  0  0  0  0
   55.1367   28.7730   38.2269 H   0  0  0  0  0  0  0  0  0  0  0  0
  1  9  1  0
  2  1  2  0
  3  4  1  0
  3  2  1  0
  4  5  2  0
  5  1  1  0
  6 13  1  0
  7  6  2  0
  8  7  1  0
  9  8  2  0
  9 10  1  0
 10  6  1  0
 11 16  2  0
 12 11  1  0
 13 12  2  0
 13 14  1  0
 14 15  2  0
 15 16  1  0
 17 21  1  0
 17  4  1  0
 18 17  2  0
 19 18  1  0
 19 20  2  0
 20 22  1  0
 20 21  1  0
 22 23  1  0
 23 24  2  0
 23 25  1  0
 24 26  1  0
  7 27  1  0
  8 28  1  0
 11 29  1  0
 12 30  1  0
 15 31  1  0
 18 32  1  0
 19 33  1  0
 22 34  1  0
 25 35  1  0
 25 36  1  0
M  ISO  7  27  14  28  14  29  14  30  14  31  14  32  14  33  14
M  END
>  <minimizedAffinity>  (1) 
-6.09841299

>  <minimizedRMSD>  (1) 
0.808644772

$$$$
