
     RDKit          3D

 42 46  0  0  0  0  0  0  0  0999 V2000
   48.2560   33.8180   38.4370 C   0  0  0  0  0  0  0  0  0  0  0  0
   47.9530   34.3610   37.2840 N   0  0  0  0  0  0  0  0  0  0  0  0
   48.5650   33.6230   36.3870 O   0  0  0  0  0  0  0  0  0  0  0  0
   49.2280   32.6550   36.9460 C   0  0  0  0  0  0  0  0  0  0  0  0
   49.0500   32.7480   38.2940 N   0  0  0  0  0  0  0  0  0  0  0  0
   46.7890   34.7620   42.1370 C   0  0  0  0  0  0  0  0  0  0  0  0
   47.9820   35.3300   41.8590 C   0  0  0  0  0  0  0  0  0  0  0  0
   48.5860   35.1040   40.6650 C   0  0  0  0  0  0  0  0  0  0  0  0
   47.8440   34.2370   39.7930 C   0  0  0  0  0  0  0  0  0  0  0  0
   46.3490   33.8210   40.7480 S   0  0  0  0  0  0  0  0  0  0  0  0
   44.4500   35.9680   44.8440 C   0  0  0  0  0  0  0  0  0  0  0  0
   45.1170   35.9680   43.5920 C   0  0  0  0  0  0  0  0  0  0  0  0
   46.0260   34.9060   43.3540 C   0  0  0  0  0  0  0  0  0  0  0  0
   46.1840   34.0020   44.3050 N   0  0  0  0  0  0  0  0  0  0  0  0
   45.5420   34.0270   45.4760 C   0  0  0  0  0  0  0  0  0  0  0  0
   44.6800   35.0020   45.7480 N   0  0  0  0  0  0  0  0  0  0  0  0
   50.0450   31.6100   36.3270 C   0  0  0  0  0  0  0  0  0  0  0  0
   49.7730   30.8240   35.2490 C   0  0  0  0  0  0  0  0  0  0  0  0
   50.8900   30.0010   35.0900 C   0  0  0  0  0  0  0  0  0  0  0  0
   51.7770   30.3370   36.0840 C   0  0  0  0  0  0  0  0  0  0  0  0
   51.2480   31.2750   36.7810 O   0  0  0  0  0  0  0  0  0  0  0  0
   53.0540   29.7870   36.3420 N   0  0  0  0  0  0  0  0  0  0  0  0
   53.7740   29.9000   37.6130 C   0  0  0  0  0  0  0  0  0  0  0  0
   54.9600   30.7910   37.3130 C   0  0  0  0  0  0  0  0  0  0  0  0
   55.7720   30.0520   36.4340 O   0  0  0  0  0  0  0  0  0  0  0  0
   55.1400   29.8570   35.2270 C   0  0  0  0  0  0  0  0  0  0  0  0
   53.8400   29.0500   35.3760 C   0  0  0  0  0  0  0  0  0  0  0  0
   48.4664   35.9788   42.6036 H   0  0  0  0  0  0  0  0  0  0  0  0
   49.5556   35.5447   40.3901 H   0  0  0  0  0  0  0  0  0  0  0  0
   43.7346   36.7703   45.0775 H   0  0  0  0  0  0  0  0  0  0  0  0
   44.9379   36.7532   42.8427 H   0  0  0  0  0  0  0  0  0  0  0  0
   45.7273   33.2372   46.2189 H   0  0  0  0  0  0  0  0  0  0  0  0
   48.8626   30.8350   34.6316 H   0  0  0  0  0  0  0  0  0  0  0  0
   51.0324   29.2313   34.3171 H   0  0  0  0  0  0  0  0  0  0  0  0
   53.1325   30.3558   38.3816 H   0  0  0  0  0  0  0  0  0  0  0  0
   54.0824   28.9184   38.0020 H   0  0  0  0  0  0  0  0  0  0  0  0
   54.6282   31.7252   36.8363 H   0  0  0  0  0  0  0  0  0  0  0  0
   55.5006   31.0730   38.2285 H   0  0  0  0  0  0  0  0  0  0  0  0
   55.8198   29.3127   34.5550 H   0  0  0  0  0  0  0  0  0  0  0  0
   54.8795   30.8446   34.8187 H   0  0  0  0  0  0  0  0  0  0  0  0
   53.3110   28.9869   34.4136 H   0  0  0  0  0  0  0  0  0  0  0  0
   54.0290   28.0154   35.6982 H   0  0  0  0  0  0  0  0  0  0  0  0
  1  9  1  0
  2  1  2  0
  3  4  1  0
  3  2  1  0
  4  5  2  0
  5  1  1  0
  6 13  1  0
  7  6  2  0
  8  7  1  0
  9  8  2  0
  9 10  1  0
 10  6  1  0
 11 16  2  0
 12 11  1  0
 13 12  2  0
 13 14  1  0
 14 15  2  0
 15 16  1  0
 17 21  1  0
 17  4  1  0
 18 17  2  0
 19 18  1  0
 19 20  2  0
 20 22  1  0
 20 21  1  0
 22 23  1  0
 24 23  1  0
 25 24  1  0
 26 27  1  0
 26 25  1  0
 27 22  1  0
  7 28  1  0
  8 29  1  0
 11 30  1  0
 12 31  1  0
 15 32  1  0
 18 33  1  0
 19 34  1  0
 23 35  1  0
 23 36  1  0
 24 37  1  0
 24 38  1  0
 26 39  1  0
 26 40  1  0
 27 41  1  0
 27 42  1  0
M  ISO  8  28  14  29  14  30  14  31  14  32  14  33  14  34  14  35  13
M  ISO  7  36  13  37  13  38  13  39  13  40  13  41  13  42  13
M  END
>  <minimizedAffinity>  (1) 
-6.21174049

>  <minimizedRMSD>  (1) 
0.37408793

$$$$
