
     RDKit          3D

 42 46  0  0  0  0  0  0  0  0999 V2000
   48.2770   33.7210   38.4720 C   0  0  0  0  0  0  0  0  0  0  0  0
   47.8740   34.1520   37.3060 N   0  0  0  0  0  0  0  0  0  0  0  0
   48.5400   33.4350   36.4240 O   0  0  0  0  0  0  0  0  0  0  0  0
   49.3320   32.5840   37.0220 C   0  0  0  0  0  0  0  0  0  0  0  0
   49.1830   32.7460   38.3700 N   0  0  0  0  0  0  0  0  0  0  0  0
   46.7740   34.7530   42.1380 C   0  0  0  0  0  0  0  0  0  0  0  0
   47.9480   35.3560   41.8460 C   0  0  0  0  0  0  0  0  0  0  0  0
   48.5560   35.1000   40.6580 C   0  0  0  0  0  0  0  0  0  0  0  0
   47.8520   34.1830   39.8190 C   0  0  0  0  0  0  0  0  0  0  0  0
   46.3650   33.7520   40.7920 S   0  0  0  0  0  0  0  0  0  0  0  0
   44.4420   36.0000   44.8340 C   0  0  0  0  0  0  0  0  0  0  0  0
   45.1130   35.9850   43.5830 C   0  0  0  0  0  0  0  0  0  0  0  0
   46.0020   34.9220   43.3610 C   0  0  0  0  0  0  0  0  0  0  0  0
   46.1610   34.0030   44.3200 N   0  0  0  0  0  0  0  0  0  0  0  0
   45.5110   34.0500   45.4880 C   0  0  0  0  0  0  0  0  0  0  0  0
   44.6520   35.0470   45.7430 N   0  0  0  0  0  0  0  0  0  0  0  0
   50.2400   31.6070   36.4390 C   0  0  0  0  0  0  0  0  0  0  0  0
   50.1040   30.8700   35.3000 C   0  0  0  0  0  0  0  0  0  0  0  0
   51.2680   30.0950   35.2140 C   0  0  0  0  0  0  0  0  0  0  0  0
   52.0470   30.4140   36.3180 C   0  0  0  0  0  0  0  0  0  0  0  0
   51.4140   31.2990   37.0070 O   0  0  0  0  0  0  0  0  0  0  0  0
   53.3740   29.8130   36.6140 C   0  0  0  0  0  0  0  0  0  0  0  0
   54.2310   30.7470   37.4060 C   0  0  0  0  0  0  0  0  0  0  0  0
   55.6280   30.4810   36.9010 C   0  0  0  0  0  0  0  0  0  0  0  0
   55.4830   30.0600   35.4710 C   0  0  0  0  0  0  0  0  0  0  0  0
   54.1020   29.4810   35.3310 C   0  0  0  0  0  0  0  0  0  0  0  0
   48.4082   36.0494   42.5653 H   0  0  0  0  0  0  0  0  0  0  0  0
   49.5113   35.5608   40.3665 H   0  0  0  0  0  0  0  0  0  0  0  0
   43.7356   36.8130   45.0578 H   0  0  0  0  0  0  0  0  0  0  0  0
   44.9448   36.7661   42.8269 H   0  0  0  0  0  0  0  0  0  0  0  0
   45.6819   33.2676   46.2421 H   0  0  0  0  0  0  0  0  0  0  0  0
   49.2583   30.8815   34.5966 H   0  0  0  0  0  0  0  0  0  0  0  0
   51.5170   29.3721   34.4231 H   0  0  0  0  0  0  0  0  0  0  0  0
   53.1910   28.8992   37.1984 H   0  0  0  0  0  0  0  0  0  0  0  0
   53.9420   31.7925   37.2231 H   0  0  0  0  0  0  0  0  0  0  0  0
   54.1367   30.5899   38.4906 H   0  0  0  0  0  0  0  0  0  0  0  0
   56.2384   31.3935   36.9697 H   0  0  0  0  0  0  0  0  0  0  0  0
   56.1288   29.7048   37.4983 H   0  0  0  0  0  0  0  0  0  0  0  0
   55.5995   30.9285   34.8061 H   0  0  0  0  0  0  0  0  0  0  0  0
   56.2517   29.3233   35.1946 H   0  0  0  0  0  0  0  0  0  0  0  0
   53.5847   29.9319   34.4713 H   0  0  0  0  0  0  0  0  0  0  0  0
   54.1379   28.3950   35.1597 H   0  0  0  0  0  0  0  0  0  0  0  0
  1  9  1  0
  2  1  2  0
  3  4  1  0
  3  2  1  0
  4  5  2  0
  5  1  1  0
  6 13  1  0
  7  6  2  0
  8  7  1  0
  9  8  2  0
  9 10  1  0
 10  6  1  0
 11 16  2  0
 12 11  1  0
 13 12  2  0
 13 14  1  0
 14 15  2  0
 15 16  1  0
 17 21  1  0
 17  4  1  0
 18 17  2  0
 19 18  1  0
 19 20  2  0
 20 22  1  0
 20 21  1  0
 22 23  1  0
 24 23  1  0
 25 24  1  0
 26 25  1  0
 26 22  1  0
  7 27  1  0
  8 28  1  0
 11 29  1  0
 12 30  1  0
 15 31  1  0
 18 32  1  0
 19 33  1  0
 22 34  1  0
 23 35  1  0
 23 36  1  0
 24 37  1  0
 24 38  1  0
 25 39  1  0
 25 40  1  0
 26 41  1  0
 26 42  1  0
M  ISO  8  27  14  28  14  29  14  30  14  31  14  32  14  33  14  34  13
M  ISO  8  35  13  36  13  37  13  38  13  39  13  40  13  41  13  42  13
M  END
>  <minimizedAffinity>  (1) 
-6.27634239

>  <minimizedRMSD>  (1) 
0.817476094

$$$$
