
     RDKit          3D

 36 40  0  0  0  0  0  0  0  0999 V2000
   48.2740   33.6750   38.5160 C   0  0  0  0  0  0  0  0  0  0  0  0
   47.8710   34.0750   37.3430 N   0  0  0  0  0  0  0  0  0  0  0  0
   48.5480   33.3490   36.4790 O   0  0  0  0  0  0  0  0  0  0  0  0
   49.3560   32.5160   37.1010 C   0  0  0  0  0  0  0  0  0  0  0  0
   49.2020   32.7020   38.4430 N   0  0  0  0  0  0  0  0  0  0  0  0
   46.7640   34.7540   42.1680 C   0  0  0  0  0  0  0  0  0  0  0  0
   47.9290   35.3650   41.8560 C   0  0  0  0  0  0  0  0  0  0  0  0
   48.5330   35.0960   40.6770 C   0  0  0  0  0  0  0  0  0  0  0  0
   47.8440   34.1550   39.8560 C   0  0  0  0  0  0  0  0  0  0  0  0
   46.3640   33.7150   40.8380 S   0  0  0  0  0  0  0  0  0  0  0  0
   44.4300   36.0200   44.8480 C   0  0  0  0  0  0  0  0  0  0  0  0
   45.1060   35.9960   43.6040 C   0  0  0  0  0  0  0  0  0  0  0  0
   45.9890   34.9290   43.3870 C   0  0  0  0  0  0  0  0  0  0  0  0
   46.1310   34.0310   44.3430 N   0  0  0  0  0  0  0  0  0  0  0  0
   45.4820   34.0730   45.5140 C   0  0  0  0  0  0  0  0  0  0  0  0
   44.6340   35.0660   45.7660 N   0  0  0  0  0  0  0  0  0  0  0  0
   50.2790   31.5380   36.5330 C   0  0  0  0  0  0  0  0  0  0  0  0
   50.0740   30.6420   35.5270 C   0  0  0  0  0  0  0  0  0  0  0  0
   51.2700   29.9550   35.3780 C   0  0  0  0  0  0  0  0  0  0  0  0
   52.1390   30.4800   36.3120 C   0  0  0  0  0  0  0  0  0  0  0  0
   51.5190   31.4020   36.9630 O   0  0  0  0  0  0  0  0  0  0  0  0
   53.5110   30.0770   36.5320 C   0  0  0  0  0  0  0  0  0  0  0  0
   54.4090   30.6550   37.3390 C   0  0  0  0  0  0  0  0  0  0  0  0
   55.6820   30.1790   37.4630 C   0  0  0  0  0  0  0  0  0  0  0  0
   55.9640   29.0100   36.6540 C   0  0  0  0  0  0  0  0  0  0  0  0
   54.3050   28.7300   35.7830 S   0  0  0  0  0  0  0  0  0  0  0  0
   48.3837   36.0784   42.5590 H   0  0  0  0  0  0  0  0  0  0  0  0
   49.4807   35.5656   40.3747 H   0  0  0  0  0  0  0  0  0  0  0  0
   43.7251   36.8363   45.0643 H   0  0  0  0  0  0  0  0  0  0  0  0
   44.9461   36.7762   42.8452 H   0  0  0  0  0  0  0  0  0  0  0  0
   45.6501   33.2877   46.2657 H   0  0  0  0  0  0  0  0  0  0  0  0
   49.1489   30.4937   34.9506 H   0  0  0  0  0  0  0  0  0  0  0  0
   51.4831   29.1512   34.6580 H   0  0  0  0  0  0  0  0  0  0  0  0
   54.1119   31.5406   37.9199 H   0  0  0  0  0  0  0  0  0  0  0  0
   56.4309   30.6434   38.1214 H   0  0  0  0  0  0  0  0  0  0  0  0
   56.8979   28.4351   36.5681 H   0  0  0  0  0  0  0  0  0  0  0  0
  1  9  1  0
  2  1  2  0
  3  4  1  0
  3  2  1  0
  4  5  2  0
  5  1  1  0
  6 13  1  0
  7  6  2  0
  8  7  1  0
  9  8  2  0
  9 10  1  0
 10  6  1  0
 11 16  2  0
 12 11  1  0
 13 12  2  0
 13 14  1  0
 14 15  2  0
 15 16  1  0
 17 21  1  0
 17  4  1  0
 18 17  2  0
 19 18  1  0
 19 20  2  0
 20 22  1  0
 20 21  1  0
 22 23  2  0
 23 24  1  0
 25 24  2  0
 26 22  1  0
 26 25  1  0
  7 27  1  0
  8 28  1  0
 11 29  1  0
 12 30  1  0
 15 31  1  0
 18 32  1  0
 19 33  1  0
 23 34  1  0
 24 35  1  0
 25 36  1  0
M  ISO  8  27  14  28  14  29  14  30  14  31  14  32  14  33  14  34  14
M  ISO  2  35  14  36  14
M  END
>  <minimizedAffinity>  (1) 
-6.04790306

>  <minimizedRMSD>  (1) 
1.00715411

$$$$
