
     RDKit          3D

 36 40  0  0  0  0  0  0  0  0999 V2000
   48.2620   33.8480   38.4210 C   0  0  0  0  0  0  0  0  0  0  0  0
   48.1360   34.4970   37.3010 N   0  0  0  0  0  0  0  0  0  0  0  0
   48.6510   33.7150   36.3790 O   0  0  0  0  0  0  0  0  0  0  0  0
   49.0890   32.6050   36.9070 C   0  0  0  0  0  0  0  0  0  0  0  0
   48.8490   32.6640   38.2420 N   0  0  0  0  0  0  0  0  0  0  0  0
   46.7990   34.7630   42.1320 C   0  0  0  0  0  0  0  0  0  0  0  0
   47.9950   35.3340   41.8640 C   0  0  0  0  0  0  0  0  0  0  0  0
   48.5880   35.1110   40.6680 C   0  0  0  0  0  0  0  0  0  0  0  0
   47.8520   34.2610   39.7880 C   0  0  0  0  0  0  0  0  0  0  0  0
   46.3520   33.8360   40.7390 S   0  0  0  0  0  0  0  0  0  0  0  0
   44.4530   35.9650   44.8360 C   0  0  0  0  0  0  0  0  0  0  0  0
   45.1210   35.9590   43.5970 C   0  0  0  0  0  0  0  0  0  0  0  0
   46.0330   34.9000   43.3620 C   0  0  0  0  0  0  0  0  0  0  0  0
   46.2020   33.9910   44.3050 N   0  0  0  0  0  0  0  0  0  0  0  0
   45.5550   34.0190   45.4750 C   0  0  0  0  0  0  0  0  0  0  0  0
   44.6890   34.9920   45.7460 N   0  0  0  0  0  0  0  0  0  0  0  0
   49.7290   31.4680   36.2590 C   0  0  0  0  0  0  0  0  0  0  0  0
   49.1740   30.3880   35.6400 C   0  0  0  0  0  0  0  0  0  0  0  0
   50.2540   29.6130   35.1990 C   0  0  0  0  0  0  0  0  0  0  0  0
   51.4020   30.2660   35.5740 C   0  0  0  0  0  0  0  0  0  0  0  0
   51.0620   31.3510   36.1940 O   0  0  0  0  0  0  0  0  0  0  0  0
   52.7540   29.8470   35.3360 N   0  0  0  0  0  0  0  0  0  0  0  0
   53.7200   29.7240   36.2670 C   0  0  0  0  0  0  0  0  0  0  0  0
   54.9110   29.2950   35.6880 C   0  0  0  0  0  0  0  0  0  0  0  0
   54.6170   29.1660   34.3780 N   0  0  0  0  0  0  0  0  0  0  0  0
   53.3200   29.4980   34.1730 C   0  0  0  0  0  0  0  0  0  0  0  0
   48.4827   35.9754   42.6129 H   0  0  0  0  0  0  0  0  0  0  0  0
   49.5593   35.5496   40.3957 H   0  0  0  0  0  0  0  0  0  0  0  0
   43.7347   36.7657   45.0658 H   0  0  0  0  0  0  0  0  0  0  0  0
   44.9431   36.7415   42.8446 H   0  0  0  0  0  0  0  0  0  0  0  0
   45.7404   33.2309   46.2197 H   0  0  0  0  0  0  0  0  0  0  0  0
   48.1031   30.1708   35.5134 H   0  0  0  0  0  0  0  0  0  0  0  0
   50.1937   28.6594   34.6540 H   0  0  0  0  0  0  0  0  0  0  0  0
   53.5859   29.9339   37.3384 H   0  0  0  0  0  0  0  0  0  0  0  0
   55.8733   29.1045   36.1857 H   0  0  0  0  0  0  0  0  0  0  0  0
   52.8088   29.4833   33.1991 H   0  0  0  0  0  0  0  0  0  0  0  0
  1  9  1  0
  2  1  2  0
  3  4  1  0
  3  2  1  0
  4  5  2  0
  5  1  1  0
  6 13  1  0
  7  6  2  0
  8  7  1  0
  9  8  2  0
  9 10  1  0
 10  6  1  0
 11 16  2  0
 12 11  1  0
 13 12  2  0
 13 14  1  0
 14 15  2  0
 15 16  1  0
 17  4  1  0
 18 17  2  0
 19 20  2  0
 19 18  1  0
 20 21  1  0
 21 17  1  0
 22 20  1  0
 22 23  1  0
 24 23  2  0
 25 24  1  0
 26 25  2  0
 26 22  1  0
  7 27  1  0
  8 28  1  0
 11 29  1  0
 12 30  1  0
 15 31  1  0
 18 32  1  0
 19 33  1  0
 23 34  1  0
 24 35  1  0
 26 36  1  0
M  ISO  8  27  14  28  14  29  14  30  14  31  14  32  14  33  14  34  14
M  ISO  2  35  14  36  14
M  END
>  <minimizedAffinity>  (1) 
-6.00359583

>  <minimizedRMSD>  (1) 
0.52161634

$$$$
