
     RDKit          3D

 37 41  0  0  0  0  0  0  0  0999 V2000
   48.2600   33.8540   38.4040 C   0  0  0  0  0  0  0  0  0  0  0  0
   48.1400   34.5190   37.2900 N   0  0  0  0  0  0  0  0  0  0  0  0
   48.6490   33.7220   36.3660 O   0  0  0  0  0  0  0  0  0  0  0  0
   49.0700   32.6020   36.8900 C   0  0  0  0  0  0  0  0  0  0  0  0
   48.8270   32.6620   38.2190 N   0  0  0  0  0  0  0  0  0  0  0  0
   46.8100   34.7750   42.1230 C   0  0  0  0  0  0  0  0  0  0  0  0
   48.0090   35.3380   41.8530 C   0  0  0  0  0  0  0  0  0  0  0  0
   48.5980   35.1110   40.6560 C   0  0  0  0  0  0  0  0  0  0  0  0
   47.8550   34.2690   39.7750 C   0  0  0  0  0  0  0  0  0  0  0  0
   46.3500   33.8520   40.7300 S   0  0  0  0  0  0  0  0  0  0  0  0
   44.4610   35.9460   44.8370 C   0  0  0  0  0  0  0  0  0  0  0  0
   45.1310   35.9540   43.5890 C   0  0  0  0  0  0  0  0  0  0  0  0
   46.0400   34.9100   43.3520 C   0  0  0  0  0  0  0  0  0  0  0  0
   46.2060   34.0010   44.2960 N   0  0  0  0  0  0  0  0  0  0  0  0
   45.5610   34.0150   45.4680 C   0  0  0  0  0  0  0  0  0  0  0  0
   44.6890   34.9860   45.7360 N   0  0  0  0  0  0  0  0  0  0  0  0
   49.6880   31.4680   36.2320 C   0  0  0  0  0  0  0  0  0  0  0  0
   49.1270   30.4140   35.5740 C   0  0  0  0  0  0  0  0  0  0  0  0
   50.1830   29.6240   35.1410 C   0  0  0  0  0  0  0  0  0  0  0  0
   51.3390   30.2330   35.5540 C   0  0  0  0  0  0  0  0  0  0  0  0
   51.0180   31.3120   36.1910 O   0  0  0  0  0  0  0  0  0  0  0  0
   52.7250   29.8010   35.3490 C   0  0  0  0  0  0  0  0  0  0  0  0
   53.6070   29.8910   36.4040 C   0  0  0  0  0  0  0  0  0  0  0  0
   54.8960   29.4630   36.1280 C   0  0  0  0  0  0  0  0  0  0  0  0
   55.2940   28.9900   34.9390 N   0  0  0  0  0  0  0  0  0  0  0  0
   54.3880   28.9210   33.9310 C   0  0  0  0  0  0  0  0  0  0  0  0
   53.1180   29.3240   34.1420 N   0  0  0  0  0  0  0  0  0  0  0  0
   48.5023   35.9761   42.6010 H   0  0  0  0  0  0  0  0  0  0  0  0
   49.5728   35.5416   40.3834 H   0  0  0  0  0  0  0  0  0  0  0  0
   43.7407   36.7443   45.0692 H   0  0  0  0  0  0  0  0  0  0  0  0
   44.9481   36.7400   42.8415 H   0  0  0  0  0  0  0  0  0  0  0  0
   45.7505   33.2253   46.2099 H   0  0  0  0  0  0  0  0  0  0  0  0
   48.0543   30.2273   35.4178 H   0  0  0  0  0  0  0  0  0  0  0  0
   50.1063   28.6852   34.5729 H   0  0  0  0  0  0  0  0  0  0  0  0
   53.3101   30.2740   37.3915 H   0  0  0  0  0  0  0  0  0  0  0  0
   55.6399   29.5149   36.9366 H   0  0  0  0  0  0  0  0  0  0  0  0
   54.6883   28.5376   32.9447 H   0  0  0  0  0  0  0  0  0  0  0  0
  1  9  1  0
  2  1  2  0
  3  4  1  0
  3  2  1  0
  4  5  2  0
  5  1  1  0
  6 13  1  0
  7  6  2  0
  8  7  1  0
  9  8  2  0
  9 10  1  0
 10  6  1  0
 11 16  2  0
 12 11  1  0
 13 12  2  0
 13 14  1  0
 14 15  2  0
 15 16  1  0
 17  4  1  0
 18 17  2  0
 19 20  2  0
 19 18  1  0
 20 21  1  0
 21 17  1  0
 22 20  1  0
 22 23  2  0
 24 23  1  0
 25 24  2  0
 26 27  2  0
 26 25  1  0
 27 22  1  0
  7 28  1  0
  8 29  1  0
 11 30  1  0
 12 31  1  0
 15 32  1  0
 18 33  1  0
 19 34  1  0
 23 35  1  0
 24 36  1  0
 26 37  1  0
M  ISO  8  28  14  29  14  30  14  31  14  32  14  33  14  34  14  35  14
M  ISO  2  36  14  37  14
M  END
>  <minimizedAffinity>  (1) 
-6.08919191

>  <minimizedRMSD>  (1) 
0.55700618

$$$$
