
     RDKit          3D

 34 38  0  0  0  0  0  0  0  0999 V2000
   48.2720   33.8550   38.4230 C   0  0  0  0  0  0  0  0  0  0  0  0
   48.1740   34.5140   37.3070 N   0  0  0  0  0  0  0  0  0  0  0  0
   48.6840   33.7220   36.3900 O   0  0  0  0  0  0  0  0  0  0  0  0
   49.0930   32.5900   36.9170 C   0  0  0  0  0  0  0  0  0  0  0  0
   48.8370   32.6460   38.2500 N   0  0  0  0  0  0  0  0  0  0  0  0
   46.7900   34.7530   42.1310 C   0  0  0  0  0  0  0  0  0  0  0  0
   47.9840   35.3310   41.8630 C   0  0  0  0  0  0  0  0  0  0  0  0
   48.5910   35.1200   40.6700 C   0  0  0  0  0  0  0  0  0  0  0  0
   47.8570   34.2640   39.7900 C   0  0  0  0  0  0  0  0  0  0  0  0
   46.3680   33.8370   40.7420 S   0  0  0  0  0  0  0  0  0  0  0  0
   44.4560   35.9640   44.8390 C   0  0  0  0  0  0  0  0  0  0  0  0
   45.1150   35.9580   43.5960 C   0  0  0  0  0  0  0  0  0  0  0  0
   46.0270   34.8920   43.3620 C   0  0  0  0  0  0  0  0  0  0  0  0
   46.2030   33.9810   44.3030 N   0  0  0  0  0  0  0  0  0  0  0  0
   45.5560   34.0160   45.4790 C   0  0  0  0  0  0  0  0  0  0  0  0
   44.6860   35.0080   45.7400 N   0  0  0  0  0  0  0  0  0  0  0  0
   49.7120   31.4480   36.2650 C   0  0  0  0  0  0  0  0  0  0  0  0
   49.1390   30.3860   35.6320 C   0  0  0  0  0  0  0  0  0  0  0  0
   50.2100   29.5940   35.1960 C   0  0  0  0  0  0  0  0  0  0  0  0
   51.3710   30.2190   35.5890 C   0  0  0  0  0  0  0  0  0  0  0  0
   51.0440   31.3050   36.2140 O   0  0  0  0  0  0  0  0  0  0  0  0
   52.7720   29.8160   35.3860 C   0  0  0  0  0  0  0  0  0  0  0  0
   53.4070   29.4380   34.2690 N   0  0  0  0  0  0  0  0  0  0  0  0
   54.6530   29.1600   34.5180 O   0  0  0  0  0  0  0  0  0  0  0  0
   54.9060   29.3390   35.7990 C   0  0  0  0  0  0  0  0  0  0  0  0
   53.7310   29.7500   36.3530 N   0  0  0  0  0  0  0  0  0  0  0  0
   48.4632   35.9740   42.6159 H   0  0  0  0  0  0  0  0  0  0  0  0
   49.5601   35.5664   40.4026 H   0  0  0  0  0  0  0  0  0  0  0  0
   43.7417   36.7678   45.0708 H   0  0  0  0  0  0  0  0  0  0  0  0
   44.9339   36.7388   42.8427 H   0  0  0  0  0  0  0  0  0  0  0  0
   45.7376   33.2327   46.2296 H   0  0  0  0  0  0  0  0  0  0  0  0
   48.0653   30.1918   35.4929 H   0  0  0  0  0  0  0  0  0  0  0  0
   50.1360   28.6469   34.6415 H   0  0  0  0  0  0  0  0  0  0  0  0
   55.8662   29.1880   36.3139 H   0  0  0  0  0  0  0  0  0  0  0  0
  1  9  1  0
  2  1  2  0
  3  4  1  0
  3  2  1  0
  4  5  2  0
  5  1  1  0
  6 13  1  0
  7  6  2  0
  8  7  1  0
  9  8  2  0
  9 10  1  0
 10  6  1  0
 11 16  2  0
 12 11  1  0
 13 12  2  0
 13 14  1  0
 14 15  2  0
 15 16  1  0
 17  4  1  0
 18 17  2  0
 19 20  2  0
 19 18  1  0
 20 21  1  0
 21 17  1  0
 22 20  1  0
 22 26  1  0
 23 24  1  0
 23 22  2  0
 24 25  1  0
 25 26  2  0
  7 27  1  0
  8 28  1  0
 11 29  1  0
 12 30  1  0
 15 31  1  0
 18 32  1  0
 19 33  1  0
 25 34  1  0
M  ISO  8  27  14  28  14  29  14  30  14  31  14  32  14  33  14  34  14
M  END
>  <minimizedAffinity>  (1) 
-5.99971151

>  <minimizedRMSD>  (1) 
0.460631967

$$$$
