
     RDKit          3D

 35 39  0  0  0  0  0  0  0  0999 V2000
   48.2580   33.8650   38.3660 C   0  0  0  0  0  0  0  0  0  0  0  0
   48.2510   34.5880   37.2770 N   0  0  0  0  0  0  0  0  0  0  0  0
   48.6710   33.7720   36.3300 O   0  0  0  0  0  0  0  0  0  0  0  0
   48.9300   32.5830   36.8180 C   0  0  0  0  0  0  0  0  0  0  0  0
   48.6680   32.6120   38.1560 N   0  0  0  0  0  0  0  0  0  0  0  0
   46.8310   34.7700   42.0890 C   0  0  0  0  0  0  0  0  0  0  0  0
   48.0210   35.3360   41.8370 C   0  0  0  0  0  0  0  0  0  0  0  0
   48.6150   35.1150   40.6240 C   0  0  0  0  0  0  0  0  0  0  0  0
   47.8740   34.2850   39.7520 C   0  0  0  0  0  0  0  0  0  0  0  0
   46.3650   33.8590   40.6990 S   0  0  0  0  0  0  0  0  0  0  0  0
   44.4750   35.9290   44.8120 C   0  0  0  0  0  0  0  0  0  0  0  0
   45.1440   35.9310   43.5770 C   0  0  0  0  0  0  0  0  0  0  0  0
   46.0550   34.8990   43.3290 C   0  0  0  0  0  0  0  0  0  0  0  0
   46.2460   33.9740   44.2620 N   0  0  0  0  0  0  0  0  0  0  0  0
   45.5870   34.0030   45.4360 C   0  0  0  0  0  0  0  0  0  0  0  0
   44.7050   34.9800   45.7060 N   0  0  0  0  0  0  0  0  0  0  0  0
   49.4110   31.3960   36.1300 C   0  0  0  0  0  0  0  0  0  0  0  0
   48.7320   30.4420   35.4530 C   0  0  0  0  0  0  0  0  0  0  0  0
   49.6950   29.5340   34.9930 C   0  0  0  0  0  0  0  0  0  0  0  0
   50.9180   29.9910   35.4200 C   0  0  0  0  0  0  0  0  0  0  0  0
   50.7110   31.0840   36.0810 O   0  0  0  0  0  0  0  0  0  0  0  0
   52.5360   29.2940   35.1670 S   0  0  0  0  0  0  0  0  0  0  0  0
   53.7450   29.9760   36.2900 C   0  0  0  0  0  0  0  0  0  0  0  0
   53.7200   30.5730   37.5090 N   0  0  0  0  0  0  0  0  0  0  0  0
   54.9290   30.8710   37.8490 O   0  0  0  0  0  0  0  0  0  0  0  0
   55.7630   30.4940   36.8990 C   0  0  0  0  0  0  0  0  0  0  0  0
   55.0440   29.9310   35.9100 N   0  0  0  0  0  0  0  0  0  0  0  0
   48.5112   35.9673   42.5928 H   0  0  0  0  0  0  0  0  0  0  0  0
   49.5886   35.5475   40.3502 H   0  0  0  0  0  0  0  0  0  0  0  0
   43.7512   36.7256   45.0392 H   0  0  0  0  0  0  0  0  0  0  0  0
   44.9579   36.7172   42.8305 H   0  0  0  0  0  0  0  0  0  0  0  0
   45.7730   33.2173   46.1830 H   0  0  0  0  0  0  0  0  0  0  0  0
   47.6446   30.3896   35.2955 H   0  0  0  0  0  0  0  0  0  0  0  0
   49.5070   28.6260   34.4012 H   0  0  0  0  0  0  0  0  0  0  0  0
   56.8559   30.6181   36.9126 H   0  0  0  0  0  0  0  0  0  0  0  0
  1  9  1  0
  2  1  2  0
  3  4  1  0
  3  2  1  0
  4  5  2  0
  5  1  1  0
  6 13  1  0
  7  6  2  0
  8  7  1  0
  9  8  2  0
  9 10  1  0
 10  6  1  0
 11 16  2  0
 12 11  1  0
 13 12  2  0
 13 14  1  0
 14 15  2  0
 15 16  1  0
 17  4  1  0
 18 17  2  0
 19 20  2  0
 19 18  1  0
 20 21  1  0
 21 17  1  0
 22 20  1  0
 22 23  1  0
 23 24  2  0
 24 25  1  0
 26 25  1  0
 27 23  1  0
 27 26  2  0
  7 28  1  0
  8 29  1  0
 11 30  1  0
 12 31  1  0
 15 32  1  0
 18 33  1  0
 19 34  1  0
 26 35  1  0
M  ISO  8  28  14  29  14  30  14  31  14  32  14  33  14  34  14  35  14
M  END
>  <minimizedAffinity>  (1) 
-5.99445677

>  <minimizedRMSD>  (1) 
0.773086727

$$$$
