
     RDKit          3D

 37 41  0  0  0  0  0  0  0  0999 V2000
   48.3000   33.8510   38.3140 C   0  0  0  0  0  0  0  0  0  0  0  0
   48.2150   34.5430   37.2090 N   0  0  0  0  0  0  0  0  0  0  0  0
   48.6980   33.7330   36.2810 O   0  0  0  0  0  0  0  0  0  0  0  0
   49.0680   32.5780   36.8010 C   0  0  0  0  0  0  0  0  0  0  0  0
   48.8190   32.6260   38.1380 N   0  0  0  0  0  0  0  0  0  0  0  0
   46.8520   34.7680   42.0300 C   0  0  0  0  0  0  0  0  0  0  0  0
   48.0460   35.3310   41.7760 C   0  0  0  0  0  0  0  0  0  0  0  0
   48.6380   35.1030   40.5680 C   0  0  0  0  0  0  0  0  0  0  0  0
   47.8980   34.2700   39.6940 C   0  0  0  0  0  0  0  0  0  0  0  0
   46.3940   33.8530   40.6380 S   0  0  0  0  0  0  0  0  0  0  0  0
   44.4920   35.9380   44.7450 C   0  0  0  0  0  0  0  0  0  0  0  0
   45.1620   35.9420   43.5030 C   0  0  0  0  0  0  0  0  0  0  0  0
   46.0750   34.9040   43.2660 C   0  0  0  0  0  0  0  0  0  0  0  0
   46.2680   33.9730   44.2110 N   0  0  0  0  0  0  0  0  0  0  0  0
   45.6010   34.0220   45.3720 C   0  0  0  0  0  0  0  0  0  0  0  0
   44.7260   34.9860   45.6420 N   0  0  0  0  0  0  0  0  0  0  0  0
   49.6430   31.4260   36.1310 C   0  0  0  0  0  0  0  0  0  0  0  0
   49.1010   30.5770   35.2280 C   0  0  0  0  0  0  0  0  0  0  0  0
   50.0930   29.6550   34.9170 C   0  0  0  0  0  0  0  0  0  0  0  0
   51.2040   29.9990   35.6580 C   0  0  0  0  0  0  0  0  0  0  0  0
   50.9120   31.0380   36.3590 O   0  0  0  0  0  0  0  0  0  0  0  0
   52.8010   29.2070   35.7050 S   0  0  0  0  0  0  0  0  0  0  0  0
   53.6640   29.7430   34.2140 C   0  0  0  0  0  0  0  0  0  0  0  0
   53.0100   30.0360   33.0240 C   0  0  0  0  0  0  0  0  0  0  0  0
   53.9720   30.3970   32.1480 N   0  0  0  0  0  0  0  0  0  0  0  0
   55.1690   30.3240   32.7840 C   0  0  0  0  0  0  0  0  0  0  0  0
   55.0060   29.9230   34.0600 N   0  0  0  0  0  0  0  0  0  0  0  0
   48.5373   35.9646   42.5291 H   0  0  0  0  0  0  0  0  0  0  0  0
   49.6131   35.5324   40.2946 H   0  0  0  0  0  0  0  0  0  0  0  0
   43.7669   36.7330   44.9734 H   0  0  0  0  0  0  0  0  0  0  0  0
   44.9763   36.7252   42.7533 H   0  0  0  0  0  0  0  0  0  0  0  0
   45.7829   33.2408   46.1248 H   0  0  0  0  0  0  0  0  0  0  0  0
   48.0795   30.6099   34.8213 H   0  0  0  0  0  0  0  0  0  0  0  0
   50.0084   28.8126   34.2147 H   0  0  0  0  0  0  0  0  0  0  0  0
   51.9278   29.9844   32.8339 H   0  0  0  0  0  0  0  0  0  0  0  0
   56.1387   30.5598   32.3213 H   0  0  0  0  0  0  0  0  0  0  0  0
   55.7401   29.7823   34.7687 H   0  0  0  0  0  0  0  0  0  0  0  0
  1  9  1  0
  2  1  2  0
  3  4  1  0
  3  2  1  0
  4  5  2  0
  5  1  1  0
  6 13  1  0
  7  6  2  0
  8  7  1  0
  9  8  2  0
  9 10  1  0
 10  6  1  0
 11 16  2  0
 12 11  1  0
 13 12  2  0
 13 14  1  0
 14 15  2  0
 15 16  1  0
 17 21  1  0
 17  4  1  0
 18 17  2  0
 19 18  1  0
 19 20  2  0
 20 22  1  0
 20 21  1  0
 23 22  1  0
 24 23  2  0
 25 26  2  0
 25 24  1  0
 26 27  1  0
 27 23  1  0
  7 28  1  0
  8 29  1  0
 11 30  1  0
 12 31  1  0
 15 32  1  0
 18 33  1  0
 19 34  1  0
 24 35  1  0
 26 36  1  0
 27 37  1  0
M  ISO  8  28  14  29  14  30  14  31  14  32  14  33  14  34  14  35  14
M  ISO  2  36  14  37   9
M  END
>  <minimizedAffinity>  (1) 
-6.07788992

>  <minimizedRMSD>  (1) 
0.652008593

$$$$
