
     RDKit          3D

 42 46  0  0  1  0  0  0  0  0999 V2000
   48.3160   33.8250   38.3750 C   0  0  0  0  0  0  0  0  0  0  0  0
   48.2110   34.4890   37.2560 N   0  0  0  0  0  0  0  0  0  0  0  0
   48.7220   33.6780   36.3390 O   0  0  0  0  0  0  0  0  0  0  0  0
   49.1270   32.5520   36.8810 C   0  0  0  0  0  0  0  0  0  0  0  0
   48.8720   32.6220   38.2170 N   0  0  0  0  0  0  0  0  0  0  0  0
   46.8280   34.7840   42.0630 C   0  0  0  0  0  0  0  0  0  0  0  0
   48.0200   35.3510   41.8040 C   0  0  0  0  0  0  0  0  0  0  0  0
   48.6230   35.1120   40.6120 C   0  0  0  0  0  0  0  0  0  0  0  0
   47.8970   34.2600   39.7440 C   0  0  0  0  0  0  0  0  0  0  0  0
   46.3920   33.8450   40.6790 S   0  0  0  0  0  0  0  0  0  0  0  0
   44.4690   35.9930   44.7560 C   0  0  0  0  0  0  0  0  0  0  0  0
   45.1490   35.9790   43.5240 C   0  0  0  0  0  0  0  0  0  0  0  0
   46.0440   34.9360   43.2920 C   0  0  0  0  0  0  0  0  0  0  0  0
   46.2090   34.0160   44.2380 N   0  0  0  0  0  0  0  0  0  0  0  0
   45.5470   34.0580   45.3970 C   0  0  0  0  0  0  0  0  0  0  0  0
   44.6820   35.0380   45.6590 N   0  0  0  0  0  0  0  0  0  0  0  0
   49.7420   31.4000   36.2450 C   0  0  0  0  0  0  0  0  0  0  0  0
   49.1900   30.3510   35.5990 C   0  0  0  0  0  0  0  0  0  0  0  0
   50.2330   29.5350   35.1850 C   0  0  0  0  0  0  0  0  0  0  0  0
   51.3970   30.1360   35.6050 C   0  0  0  0  0  0  0  0  0  0  0  0
   51.0600   31.2220   36.2200 O   0  0  0  0  0  0  0  0  0  0  0  0
   53.0880   29.6000   35.3940 S   0  0  0  0  0  0  0  0  0  0  0  0
   54.2990   29.0700   37.7430 N   0  0  0  0  0  0  0  0  0  0  0  0
   55.3970   29.5670   38.5710 C   0  0  0  0  0  0  0  0  0  0  0  0
   56.3680   30.1010   37.5150 C   0  0  0  0  0  0  0  0  0  0  0  0
   55.5350   30.4040   36.3100 C   0  0  0  0  0  0  0  0  0  0  0  0
   54.1250   30.1030   36.7720 C   0  0  1  0  0  0  0  0  0  0  0  0
   48.5006   36.0011   42.5500 H   0  0  0  0  0  0  0  0  0  0  0  0
   49.5973   35.5451   40.3416 H   0  0  0  0  0  0  0  0  0  0  0  0
   43.7548   36.8005   44.9750 H   0  0  0  0  0  0  0  0  0  0  0  0
   44.9802   36.7630   42.7711 H   0  0  0  0  0  0  0  0  0  0  0  0
   45.7181   33.2718   46.1471 H   0  0  0  0  0  0  0  0  0  0  0  0
   48.1168   30.1763   35.4324 H   0  0  0  0  0  0  0  0  0  0  0  0
   50.1460   28.5901   34.6285 H   0  0  0  0  0  0  0  0  0  0  0  0
   54.5511   28.1788   37.2923 H   0  0  0  0  0  0  0  0  0  0  0  0
   55.0593   30.3673   39.2459 H   0  0  0  0  0  0  0  0  0  0  0  0
   55.8344   28.8065   39.2345 H   0  0  0  0  0  0  0  0  0  0  0  0
   56.8635   31.0138   37.8773 H   0  0  0  0  0  0  0  0  0  0  0  0
   57.1588   29.3712   37.2869 H   0  0  0  0  0  0  0  0  0  0  0  0
   55.8178   29.7600   35.4642 H   0  0  0  0  0  0  0  0  0  0  0  0
   55.6579   31.4369   35.9522 H   0  0  0  0  0  0  0  0  0  0  0  0
   53.6086   30.9759   37.1978 H   0  0  0  0  0  0  0  0  0  0  0  0
  1  9  1  0
  2  1  2  0
  3  4  1  0
  3  2  1  0
  4  5  2  0
  5  1  1  0
  6 13  1  0
  7  6  2  0
  8  7  1  0
  9  8  2  0
  9 10  1  0
 10  6  1  0
 11 16  2  0
 12 11  1  0
 13 12  2  0
 13 14  1  0
 14 15  2  0
 15 16  1  0
 17  4  1  0
 18 17  2  0
 19 18  1  0
 19 20  2  0
 20 21  1  0
 21 17  1  0
 22 20  1  0
 23 24  1  0
 25 24  1  0
 26 27  1  0
 26 25  1  0
 27 22  1  0
 27 23  1  0
  7 28  1  0
  8 29  1  0
 11 30  1  0
 12 31  1  0
 15 32  1  0
 18 33  1  0
 19 34  1  0
 23 35  1  0
 24 36  1  0
 24 37  1  0
 25 38  1  0
 25 39  1  0
 26 40  1  0
 26 41  1  0
 27 42  1  1
M  ISO  8  28  14  29  14  30  14  31  14  32  14  33  14  34  14  35   5
M  ISO  7  36  13  37  13  38  13  39  13  40  13  41  13  42  13
M  END
>  <minimizedAffinity>  (1) 
-6.08390522

>  <minimizedRMSD>  (1) 
0.568094015

$$$$
