
     RDKit          3D

 39 42  0  0  0  0  0  0  0  0999 V2000
   46.8010   34.7770   42.0940 C   0  0  0  0  0  0  0  0  0  0  0  0
   47.9910   35.3480   41.8440 C   0  0  0  0  0  0  0  0  0  0  0  0
   48.6060   35.1220   40.6440 C   0  0  0  0  0  0  0  0  0  0  0  0
   47.8670   34.2650   39.7730 C   0  0  0  0  0  0  0  0  0  0  0  0
   46.3640   33.8490   40.7150 S   0  0  0  0  0  0  0  0  0  0  0  0
   44.4620   35.9720   44.8120 C   0  0  0  0  0  0  0  0  0  0  0  0
   45.1290   35.9740   43.5610 C   0  0  0  0  0  0  0  0  0  0  0  0
   46.0300   34.9240   43.3230 C   0  0  0  0  0  0  0  0  0  0  0  0
   46.2080   33.9920   44.2720 N   0  0  0  0  0  0  0  0  0  0  0  0
   45.5540   34.0280   45.4440 C   0  0  0  0  0  0  0  0  0  0  0  0
   44.6860   35.0160   45.7070 N   0  0  0  0  0  0  0  0  0  0  0  0
   48.2780   33.8370   38.4020 C   0  0  0  0  0  0  0  0  0  0  0  0
   48.2130   34.5380   37.2900 N   0  0  0  0  0  0  0  0  0  0  0  0
   48.6940   33.7270   36.3590 O   0  0  0  0  0  0  0  0  0  0  0  0
   49.0410   32.5700   36.8880 C   0  0  0  0  0  0  0  0  0  0  0  0
   48.7780   32.6220   38.2120 N   0  0  0  0  0  0  0  0  0  0  0  0
   49.6100   31.4030   36.2230 C   0  0  0  0  0  0  0  0  0  0  0  0
   48.9660   30.3760   35.5930 C   0  0  0  0  0  0  0  0  0  0  0  0
   49.9880   29.5300   35.1350 C   0  0  0  0  0  0  0  0  0  0  0  0
   51.1840   30.1090   35.5230 C   0  0  0  0  0  0  0  0  0  0  0  0
   50.9320   31.2000   36.1560 O   0  0  0  0  0  0  0  0  0  0  0  0
   52.8220   29.5030   35.2300 S   0  0  0  0  0  0  0  0  0  0  0  0
   53.3300   29.5580   33.5140 C   0  0  0  0  0  0  0  0  0  0  0  0
   52.4430   30.4740   32.6730 C   0  0  0  0  0  0  0  0  0  0  0  0
   54.7530   29.9490   33.2840 C   0  0  0  0  0  0  0  0  0  0  0  0
   48.4666   35.9920   42.5984 H   0  0  0  0  0  0  0  0  0  0  0  0
   49.5788   35.5593   40.3747 H   0  0  0  0  0  0  0  0  0  0  0  0
   43.7474   36.7750   45.0454 H   0  0  0  0  0  0  0  0  0  0  0  0
   44.9493   36.7602   42.8130 H   0  0  0  0  0  0  0  0  0  0  0  0
   45.7312   33.2423   46.1932 H   0  0  0  0  0  0  0  0  0  0  0  0
   47.8811   30.2413   35.4711 H   0  0  0  0  0  0  0  0  0  0  0  0
   49.8630   28.5904   34.5768 H   0  0  0  0  0  0  0  0  0  0  0  0
   53.2187   28.5114   33.1942 H   0  0  0  0  0  0  0  0  0  0  0  0
   51.8329   31.1041   33.3369 H   0  0  0  0  0  0  0  0  0  0  0  0
   53.0739   31.1136   32.0382 H   0  0  0  0  0  0  0  0  0  0  0  0
   51.7835   29.8640   32.0382 H   0  0  0  0  0  0  0  0  0  0  0  0
   55.2563   30.0873   34.2523 H   0  0  0  0  0  0  0  0  0  0  0  0
   55.2633   29.1578   32.7152 H   0  0  0  0  0  0  0  0  0  0  0  0
   54.7874   30.8899   32.7152 H   0  0  0  0  0  0  0  0  0  0  0  0
  1  8  1  0
  2  1  2  0
  3  2  1  0
  4  3  2  0
  4  5  1  0
  5  1  1  0
  6 11  2  0
  7  6  1  0
  8  7  2  0
  8  9  1  0
  9 10  2  0
 10 11  1  0
 12  4  1  0
 13 12  2  0
 14 15  1  0
 14 13  1  0
 15 16  2  0
 16 12  1  0
 17 15  1  0
 18 17  2  0
 19 20  2  0
 19 18  1  0
 20 21  1  0
 21 17  1  0
 22 20  1  0
 23 22  1  0
 24 23  1  0
 25 23  1  0
  2 26  1  0
  3 27  1  0
  6 28  1  0
  7 29  1  0
 10 30  1  0
 18 31  1  0
 19 32  1  0
 23 33  1  0
 24 34  1  0
 24 35  1  0
 24 36  1  0
 25 37  1  0
 25 38  1  0
 25 39  1  0
M  ISO  8  26  14  27  14  28  14  29  14  30  14  31  14  32  14  33   8
M  ISO  6  34   8  35   8  36   8  37   8  38   8  39   8
M  END
>  <minimizedAffinity>  (1) 
-5.80324221

>  <minimizedRMSD>  (1) 
0.953427255

$$$$
