
     RDKit          3D

 42 45  0  0  0  0  0  0  0  0999 V2000
   48.2720   33.7990   38.3690 C   0  0  0  0  0  0  0  0  0  0  0  0
   48.2600   34.4980   37.2610 N   0  0  0  0  0  0  0  0  0  0  0  0
   48.7030   33.6640   36.3380 O   0  0  0  0  0  0  0  0  0  0  0  0
   48.9800   32.4850   36.8670 C   0  0  0  0  0  0  0  0  0  0  0  0
   48.7070   32.5460   38.1920 N   0  0  0  0  0  0  0  0  0  0  0  0
   46.8210   34.7970   42.0610 C   0  0  0  0  0  0  0  0  0  0  0  0
   48.0130   35.3560   41.7990 C   0  0  0  0  0  0  0  0  0  0  0  0
   48.6060   35.0990   40.5960 C   0  0  0  0  0  0  0  0  0  0  0  0
   47.8690   34.2470   39.7390 C   0  0  0  0  0  0  0  0  0  0  0  0
   46.3720   33.8550   40.6900 S   0  0  0  0  0  0  0  0  0  0  0  0
   44.4660   36.0070   44.7580 C   0  0  0  0  0  0  0  0  0  0  0  0
   45.1460   35.9940   43.5240 C   0  0  0  0  0  0  0  0  0  0  0  0
   46.0380   34.9530   43.2870 C   0  0  0  0  0  0  0  0  0  0  0  0
   46.2030   34.0220   44.2410 N   0  0  0  0  0  0  0  0  0  0  0  0
   45.5360   34.0720   45.4030 C   0  0  0  0  0  0  0  0  0  0  0  0
   44.6740   35.0540   45.6640 N   0  0  0  0  0  0  0  0  0  0  0  0
   49.4880   31.2910   36.2080 C   0  0  0  0  0  0  0  0  0  0  0  0
   48.8600   30.1390   35.8550 C   0  0  0  0  0  0  0  0  0  0  0  0
   49.8530   29.3470   35.2520 C   0  0  0  0  0  0  0  0  0  0  0  0
   51.0280   30.0760   35.2780 C   0  0  0  0  0  0  0  0  0  0  0  0
   50.7860   31.2030   35.8410 O   0  0  0  0  0  0  0  0  0  0  0  0
   52.6140   29.5810   34.6540 S   0  0  0  0  0  0  0  0  0  0  0  0
   52.5870   29.8110   32.8500 C   0  0  0  0  0  0  0  0  0  0  0  0
   51.5300   30.8260   32.4620 C   0  0  0  0  0  0  0  0  0  0  0  0
   52.1880   28.5000   32.1570 C   0  0  0  0  0  0  0  0  0  0  0  0
   53.9120   30.3050   32.3340 C   0  0  0  0  0  0  0  0  0  0  0  0
   48.5020   36.0076   42.5381 H   0  0  0  0  0  0  0  0  0  0  0  0
   49.5817   35.5218   40.3145 H   0  0  0  0  0  0  0  0  0  0  0  0
   43.7532   36.8160   44.9758 H   0  0  0  0  0  0  0  0  0  0  0  0
   44.9773   36.7803   42.7735 H   0  0  0  0  0  0  0  0  0  0  0  0
   45.7036   33.2872   46.1554 H   0  0  0  0  0  0  0  0  0  0  0  0
   47.8016   29.8812   36.0081 H   0  0  0  0  0  0  0  0  0  0  0  0
   49.7202   28.3369   34.8373 H   0  0  0  0  0  0  0  0  0  0  0  0
   51.0829   31.2554   33.3707 H   0  0  0  0  0  0  0  0  0  0  0  0
   51.9921   31.6274   31.8669 H   0  0  0  0  0  0  0  0  0  0  0  0
   50.7480   30.3318   31.8669 H   0  0  0  0  0  0  0  0  0  0  0  0
   51.9565   27.7392   32.9170 H   0  0  0  0  0  0  0  0  0  0  0  0
   51.3016   28.6723   31.5288 H   0  0  0  0  0  0  0  0  0  0  0  0
   53.0201   28.1493   31.5288 H   0  0  0  0  0  0  0  0  0  0  0  0
   54.5679   30.5495   33.1826 H   0  0  0  0  0  0  0  0  0  0  0  0
   54.3820   29.5217   31.7212 H   0  0  0  0  0  0  0  0  0  0  0  0
   53.7544   31.2048   31.7212 H   0  0  0  0  0  0  0  0  0  0  0  0
  1  9  1  0
  2  1  2  0
  3  4  1  0
  3  2  1  0
  4  5  2  0
  5  1  1  0
  6 13  1  0
  7  6  2  0
  8  7  1  0
  9  8  2  0
  9 10  1  0
 10  6  1  0
 11 16  2  0
 12 11  1  0
 13 12  2  0
 13 14  1  0
 14 15  2  0
 15 16  1  0
 17  4  1  0
 18 17  2  0
 19 20  2  0
 19 18  1  0
 20 21  1  0
 21 17  1  0
 22 20  1  0
 23 22  1  0
 24 23  1  0
 25 23  1  0
 26 23  1  0
  7 27  1  0
  8 28  1  0
 11 29  1  0
 12 30  1  0
 15 31  1  0
 18 32  1  0
 19 33  1  0
 24 34  1  0
 24 35  1  0
 24 36  1  0
 25 37  1  0
 25 38  1  0
 25 39  1  0
 26 40  1  0
 26 41  1  0
 26 42  1  0
M  ISO  8  27  14  28  14  29  14  30  14  31  14  32  14  33  14  34   8
M  ISO  8  35   8  36   8  37   8  38   8  39   8  40   8  41   8  42   8
M  END
>  <minimizedAffinity>  (1) 
-5.88011646

>  <minimizedRMSD>  (1) 
1.27324688

$$$$
