
     RDKit          3D

 19 20  0  0  0  0  0  0  0  0999 V2000
   44.4550   36.0950   44.4690 C   0  0  0  0  0  0  0  0  0  0  0  0
   44.8250   35.7270   43.1500 C   0  0  0  0  0  0  0  0  0  0  0  0
   45.4830   34.4860   42.9770 C   0  0  0  0  0  0  0  0  0  0  0  0
   45.7240   33.7190   44.0790 N   0  0  0  0  0  0  0  0  0  0  0  0
   45.3480   34.1200   45.3220 C   0  0  0  0  0  0  0  0  0  0  0  0
   44.7240   35.2860   45.5170 N   0  0  0  0  0  0  0  0  0  0  0  0
   45.5950   33.3260   46.4780 N   0  0  0  0  0  0  0  0  0  0  0  0
   44.9820   33.2490   47.6530 N   0  0  0  0  0  0  0  0  0  0  0  0
   45.6150   32.3230   48.4210 C   0  0  0  0  0  0  0  0  0  0  0  0
   46.6740   31.8010   47.6860 C   0  0  0  0  0  0  0  0  0  0  0  0
   46.6400   32.4490   46.4630 C   0  0  0  0  0  0  0  0  0  0  0  0
   47.5920   32.1620   45.4410 N   0  0  0  0  0  0  0  0  0  0  0  0
   43.9418   37.0526   44.6410 H   0  0  0  0  0  0  0  0  0  0  0  0
   44.6085   36.3820   42.2932 H   0  0  0  0  0  0  0  0  0  0  0  0
   45.7929   34.1478   41.9772 H   0  0  0  0  0  0  0  0  0  0  0  0
   45.3377   32.0363   49.4461 H   0  0  0  0  0  0  0  0  0  0  0  0
   47.3908   31.0319   48.0096 H   0  0  0  0  0  0  0  0  0  0  0  0
   48.3260   31.4580   45.6039 H   0  0  0  0  0  0  0  0  0  0  0  0
   47.5457   32.6587   44.5399 H   0  0  0  0  0  0  0  0  0  0  0  0
  1  6  2  0
  2  1  1  0
  3  2  2  0
  3  4  1  0
  4  5  2  0
  5  6  1  0
  5  7  1  0
  7  8  1  0
  8  9  2  0
 10  9  1  0
 11  7  1  0
 11 10  2  0
 12 11  1  0
  1 13  1  0
  2 14  1  0
  3 15  1  0
  9 16  1  0
 10 17  1  0
 12 18  1  0
 12 19  1  0
M  ISO  5  13  14  14  14  15  14  16  14  17  14
M  END
>  <minimizedAffinity>  (1) 
-4.16835785

>  <minimizedRMSD>  (1) 
0.582085192

$$$$
