
     RDKit          3D

 30 32  0  0  0  0  0  0  0  0999 V2000
   44.4640   36.0470   44.4550 C   0  0  0  0  0  0  0  0  0  0  0  0
   44.4210   35.7720   43.0690 C   0  0  0  0  0  0  0  0  0  0  0  0
   44.8880   34.5160   42.6280 C   0  0  0  0  0  0  0  0  0  0  0  0
   45.3480   33.6540   43.5690 N   0  0  0  0  0  0  0  0  0  0  0  0
   45.3800   33.9320   44.8790 C   0  0  0  0  0  0  0  0  0  0  0  0
   44.9390   35.1270   45.3300 N   0  0  0  0  0  0  0  0  0  0  0  0
   45.8620   33.0280   45.8580 N   0  0  0  0  0  0  0  0  0  0  0  0
   45.5640   32.8700   47.1490 N   0  0  0  0  0  0  0  0  0  0  0  0
   46.3090   31.8520   47.6450 C   0  0  0  0  0  0  0  0  0  0  0  0
   47.0990   31.3570   46.6360 C   0  0  0  0  0  0  0  0  0  0  0  0
   46.8070   32.1140   45.4970 C   0  0  0  0  0  0  0  0  0  0  0  0
   47.5440   31.7630   44.2690 C   0  0  0  0  0  0  0  0  0  0  0  0
   46.6090   31.2000   43.1960 C   0  0  0  0  0  0  0  0  0  0  0  0
   47.4750   31.3320   41.9730 C   0  0  0  0  0  0  0  0  0  0  0  0
   48.4850   32.3980   42.2450 C   0  0  0  0  0  0  0  0  0  0  0  0
   48.0170   33.0140   43.5480 C   0  0  0  0  0  0  0  0  0  0  0  0
   44.1079   37.0187   44.8278 H   0  0  0  0  0  0  0  0  0  0  0  0
   44.0350   36.5151   42.3558 H   0  0  0  0  0  0  0  0  0  0  0  0
   44.8795   34.2459   41.5617 H   0  0  0  0  0  0  0  0  0  0  0  0
   46.2850   31.4840   48.6814 H   0  0  0  0  0  0  0  0  0  0  0  0
   47.8191   30.5287   46.7095 H   0  0  0  0  0  0  0  0  0  0  0  0
   48.3344   31.0772   44.6080 H   0  0  0  0  0  0  0  0  0  0  0  0
   46.3480   30.1503   43.3963 H   0  0  0  0  0  0  0  0  0  0  0  0
   45.6373   31.7104   43.1242 H   0  0  0  0  0  0  0  0  0  0  0  0
   46.8587   31.6122   41.1060 H   0  0  0  0  0  0  0  0  0  0  0  0
   47.9732   30.3773   41.7487 H   0  0  0  0  0  0  0  0  0  0  0  0
   49.4908   31.9663   42.3544 H   0  0  0  0  0  0  0  0  0  0  0  0
   48.5592   33.1323   41.4293 H   0  0  0  0  0  0  0  0  0  0  0  0
   48.8392   33.5096   44.0849 H   0  0  0  0  0  0  0  0  0  0  0  0
   47.2603   33.8055   43.4436 H   0  0  0  0  0  0  0  0  0  0  0  0
  1  6  2  0
  2  1  1  0
  3  2  2  0
  3  4  1  0
  4  5  2  0
  5  6  1  0
  5  7  1  0
  7  8  1  0
  8  9  2  0
 10  9  1  0
 11  7  1  0
 11 10  2  0
 12 11  1  0
 13 12  1  0
 14 15  1  0
 14 13  1  0
 15 16  1  0
 16 12  1  0
  1 17  1  0
  2 18  1  0
  3 19  1  0
  9 20  1  0
 10 21  1  0
 12 22  1  0
 13 23  1  0
 13 24  1  0
 14 25  1  0
 14 26  1  0
 15 27  1  0
 15 28  1  0
 16 29  1  0
 16 30  1  0
M  ISO  8  17  14  18  14  19  14  20  14  21  14  22  13  23  13  24  13
M  ISO  6  25  13  26  13  27  13  28  13  29  13  30  13
M  END
>  <minimizedAffinity>  (1) 
-4.34150028

>  <minimizedRMSD>  (1) 
1.74627888

$$$$
