
     RDKit          3D

 18 19  0  0  0  0  0  0  0  0999 V2000
   44.5230   36.0390   44.4930 C   0  0  0  0  0  0  0  0  0  0  0  0
   44.6490   35.5950   43.1500 C   0  0  0  0  0  0  0  0  0  0  0  0
   45.0960   34.2720   42.9410 C   0  0  0  0  0  0  0  0  0  0  0  0
   45.3830   33.4970   44.0270 N   0  0  0  0  0  0  0  0  0  0  0  0
   45.2440   33.9780   45.2890 C   0  0  0  0  0  0  0  0  0  0  0  0
   44.8230   35.2220   45.5320 N   0  0  0  0  0  0  0  0  0  0  0  0
   45.5420   33.1720   46.4330 N   0  0  0  0  0  0  0  0  0  0  0  0
   45.0960   33.2100   47.6880 N   0  0  0  0  0  0  0  0  0  0  0  0
   45.7010   32.2140   48.3870 C   0  0  0  0  0  0  0  0  0  0  0  0
   46.5540   31.5290   47.5360 C   0  0  0  0  0  0  0  0  0  0  0  0
   46.4400   32.1510   46.3040 C   0  0  0  0  0  0  0  0  0  0  0  0
   47.3560   31.6260   44.8570 S   0  0  0  0  0  0  0  0  0  0  0  0
   44.1760   37.0634   44.6935 H   0  0  0  0  0  0  0  0  0  0  0  0
   44.4076   36.2564   42.3049 H   0  0  0  0  0  0  0  0  0  0  0  0
   45.2107   33.8736   41.9221 H   0  0  0  0  0  0  0  0  0  0  0  0
   45.5404   31.9888   49.4516 H   0  0  0  0  0  0  0  0  0  0  0  0
   47.1908   30.6681   47.7876 H   0  0  0  0  0  0  0  0  0  0  0  0
   48.4948   30.9733   45.2494 H   0  0  0  0  0  0  0  0  0  0  0  0
  1  6  2  0
  2  1  1  0
  3  2  2  0
  3  4  1  0
  4  5  2  0
  5  6  1  0
  5  7  1  0
  7  8  1  0
  8  9  2  0
 10  9  1  0
 11  7  1  0
 11 10  2  0
 12 11  1  0
  1 13  1  0
  2 14  1  0
  3 15  1  0
  9 16  1  0
 10 17  1  0
 12 18  1  0
M  ISO  6  13  14  14  14  15  14  16  14  17  14  18  11
M  END
>  <minimizedAffinity>  (1) 
-3.99512339

>  <minimizedRMSD>  (1) 
0.844148993

$$$$
