
     RDKit          3D

 48 52  0  0  1  0  0  0  0  0999 V2000
   45.1680   33.7880   40.9800 N   0  0  0  0  0  0  0  0  0  0  0  0
   43.9820   34.4470   40.4120 C   0  0  0  0  0  0  0  0  0  0  0  0
   42.7430   34.1210   41.1990 C   0  0  0  0  0  0  0  0  0  0  0  0
   42.5950   32.6810   41.2320 N   0  0  0  0  0  0  0  0  0  0  0  0
   43.6790   32.1980   42.0920 C   0  0  0  0  0  0  0  0  0  0  0  0
   45.0440   32.4580   41.5270 C   0  0  1  0  0  0  0  0  0  0  0  0
   45.4600   31.4580   40.5460 N   0  0  0  0  0  0  0  0  0  0  0  0
   45.8950   30.2230   40.9080 C   0  0  0  0  0  0  0  0  0  0  0  0
   46.2110   29.5150   39.7850 N   0  0  0  0  0  0  0  0  0  0  0  0
   45.9710   30.3150   38.7370 C   0  0  0  0  0  0  0  0  0  0  0  0
   46.1070   30.1310   37.3680 C   0  0  0  0  0  0  0  0  0  0  0  0
   46.5280   29.0480   36.8820 O   0  0  0  0  0  0  0  0  0  0  0  0
   45.7620   31.1750   36.5920 N   0  0  0  0  0  0  0  0  0  0  0  0
   45.3050   32.3620   37.0270 C   0  0  0  0  0  0  0  0  0  0  0  0
   44.9760   33.3870   36.0730 N   0  0  0  0  0  0  0  0  0  0  0  0
   45.1620   32.5680   38.3690 N   0  0  0  0  0  0  0  0  0  0  0  0
   45.5010   31.5310   39.1850 C   0  0  0  0  0  0  0  0  0  0  0  0
   46.8790   34.9020   42.2440 C   0  0  0  0  0  0  0  0  0  0  0  0
   48.1590   35.4320   42.2910 C   0  0  0  0  0  0  0  0  0  0  0  0
   49.0210   35.4070   41.1950 C   0  0  0  0  0  0  0  0  0  0  0  0
   48.5770   34.8230   39.9920 C   0  0  0  0  0  0  0  0  0  0  0  0
   47.3080   34.3000   39.9540 C   0  0  0  0  0  0  0  0  0  0  0  0
   46.5030   34.3480   41.0520 C   0  0  0  0  0  0  0  0  0  0  0  0
   44.4170   35.9320   44.8820 C   0  0  0  0  0  0  0  0  0  0  0  0
   45.1360   35.9640   43.6810 C   0  0  0  0  0  0  0  0  0  0  0  0
   46.0790   34.9820   43.4310 C   0  0  0  0  0  0  0  0  0  0  0  0
   46.2760   34.0110   44.3700 N   0  0  0  0  0  0  0  0  0  0  0  0
   45.5460   34.0260   45.5280 C   0  0  0  0  0  0  0  0  0  0  0  0
   44.6290   34.9790   45.7720 N   0  0  0  0  0  0  0  0  0  0  0  0
   44.1375   35.5359   40.4242 H   0  0  0  0  0  0  0  0  0  0  0  0
   43.8438   34.0837   39.3830 H   0  0  0  0  0  0  0  0  0  0  0  0
   42.8396   34.5092   42.2237 H   0  0  0  0  0  0  0  0  0  0  0  0
   41.8619   34.5833   40.7301 H   0  0  0  0  0  0  0  0  0  0  0  0
   41.6794   32.4218   41.6263 H   0  0  0  0  0  0  0  0  0  0  0  0
   43.6026   32.7020   43.0667 H   0  0  0  0  0  0  0  0  0  0  0  0
   43.5645   31.1075   42.1798 H   0  0  0  0  0  0  0  0  0  0  0  0
   45.7297   32.3769   42.3833 H   0  0  0  0  0  0  0  0  0  0  0  0
   45.9790   29.8531   41.9405 H   0  0  0  0  0  0  0  0  0  0  0  0
   45.8566   31.0537   35.5736 H   0  0  0  0  0  0  0  0  0  0  0  0
   44.6252   34.2994   36.3977 H   0  0  0  0  0  0  0  0  0  0  0  0
   45.0912   33.2086   35.0651 H   0  0  0  0  0  0  0  0  0  0  0  0
   48.5081   35.8897   43.2284 H   0  0  0  0  0  0  0  0  0  0  0  0
   50.0311   35.8362   41.2685 H   0  0  0  0  0  0  0  0  0  0  0  0
   49.2294   34.7870   39.1071 H   0  0  0  0  0  0  0  0  0  0  0  0
   46.9375   33.8374   39.0273 H   0  0  0  0  0  0  0  0  0  0  0  0
   43.6666   36.7097   45.0870 H   0  0  0  0  0  0  0  0  0  0  0  0
   44.9536   36.7604   42.9445 H   0  0  0  0  0  0  0  0  0  0  0  0
   45.7137   33.2388   46.2778 H   0  0  0  0  0  0  0  0  0  0  0  0
  1 23  1  0
  1  6  1  0
  2  1  1  0
  2  3  1  0
  3  4  1  0
  4  5  1  0
  6  5  1  0
  7  8  1  0
  7  6  1  0
  9  8  2  0
 10 17  2  0
 10  9  1  0
 11 10  1  0
 12 11  2  0
 13 14  1  0
 13 11  1  0
 14 16  2  0
 15 14  1  0
 16 17  1  0
 17  7  1  0
 18 19  2  0
 18 26  1  0
 20 19  1  0
 21 20  2  0
 22 21  1  0
 22 23  2  0
 23 18  1  0
 24 29  2  0
 25 24  1  0
 26 25  2  0
 26 27  1  0
 27 28  2  0
 28 29  1  0
  2 30  1  0
  2 31  1  0
  3 32  1  0
  3 33  1  0
  4 34  1  0
  5 35  1  0
  5 36  1  0
  6 37  1  1
  8 38  1  0
 13 39  1  0
 15 40  1  0
 15 41  1  0
 19 42  1  0
 20 43  1  0
 21 44  1  0
 22 45  1  0
 24 46  1  0
 25 47  1  0
 28 48  1  0
M  ISO  8  30  13  31  13  32  13  33  13  34   5  35  13  36  13  37  13
M  ISO  8  38  14  39   9  42  14  43  14  44  14  45  14  46  14  47  14
M  ISO  1  48  14
M  END
>  <minimizedAffinity>  (1) 
-6.43711615

>  <minimizedRMSD>  (1) 
1.00663364

$$$$
