
     RDKit          3D

 40 42  0  0  1  0  0  0  0  0999 V2000
   44.9780   35.0110   45.2140 C   0  0  0  0  0  0  0  0  0  0  0  0
   44.7040   35.9680   44.2490 C   0  0  0  0  0  0  0  0  0  0  0  0
   45.3440   35.8140   43.0070 C   0  0  0  0  0  0  0  0  0  0  0  0
   46.1640   34.7490   42.8690 N   0  0  0  0  0  0  0  0  0  0  0  0
   46.4170   33.8460   43.7900 C   0  0  0  0  0  0  0  0  0  0  0  0
   45.8120   33.9820   44.9840 N   0  0  0  0  0  0  0  0  0  0  0  0
   47.2840   32.7400   43.6080 N   0  0  0  0  0  0  0  0  0  0  0  0
   47.3010   31.5460   44.1810 N   0  0  0  0  0  0  0  0  0  0  0  0
   48.3170   30.8250   43.6780 C   0  0  0  0  0  0  0  0  0  0  0  0
   48.9560   31.6170   42.7500 C   0  0  0  0  0  0  0  0  0  0  0  0
   48.2910   32.8440   42.7070 C   0  0  0  0  0  0  0  0  0  0  0  0
   48.8060   33.8540   41.7620 C   0  0  2  0  0  0  0  0  0  0  0  0
   49.1850   35.0960   42.5860 C   0  0  0  0  0  0  0  0  0  0  0  0
   47.7880   34.2870   40.7580 C   0  0  0  0  0  0  0  0  0  0  0  0
   48.2290   33.5630   39.4990 N   0  0  0  0  0  0  0  0  0  0  0  0
   48.3590   34.5600   38.4420 C   0  0  0  0  0  0  0  0  0  0  0  0
   48.1710   33.9260   37.0890 C   0  0  0  0  0  0  0  0  0  0  0  0
   46.7300   33.7460   36.9360 N   0  0  0  0  0  0  0  0  0  0  0  0
   46.1490   33.2620   38.1800 C   0  0  0  0  0  0  0  0  0  0  0  0
   47.1860   32.6260   39.0960 C   0  0  0  0  0  0  0  0  0  0  0  0
   44.4974   35.0964   46.1998 H   0  0  0  0  0  0  0  0  0  0  0  0
   44.0196   36.8064   44.4456 H   0  0  0  0  0  0  0  0  0  0  0  0
   45.1846   36.5277   42.1852 H   0  0  0  0  0  0  0  0  0  0  0  0
   48.5876   29.7955   43.9553 H   0  0  0  0  0  0  0  0  0  0  0  0
   49.8333   31.3336   42.1500 H   0  0  0  0  0  0  0  0  0  0  0  0
   49.6519   33.4082   41.2181 H   0  0  0  0  0  0  0  0  0  0  0  0
   49.1132   34.8606   43.6581 H   0  0  0  0  0  0  0  0  0  0  0  0
   50.2155   35.3957   42.3446 H   0  0  0  0  0  0  0  0  0  0  0  0
   48.4974   35.9200   42.3446 H   0  0  0  0  0  0  0  0  0  0  0  0
   46.7767   33.9768   41.0599 H   0  0  0  0  0  0  0  0  0  0  0  0
   47.7332   35.3789   40.6362 H   0  0  0  0  0  0  0  0  0  0  0  0
   47.5964   35.3398   38.5849 H   0  0  0  0  0  0  0  0  0  0  0  0
   49.3663   34.9992   38.4908 H   0  0  0  0  0  0  0  0  0  0  0  0
   48.5617   34.5842   36.2990 H   0  0  0  0  0  0  0  0  0  0  0  0
   48.7111   32.9711   37.0086 H   0  0  0  0  0  0  0  0  0  0  0  0
   46.2990   34.6478   36.6874 H   0  0  0  0  0  0  0  0  0  0  0  0
   45.6849   34.1091   38.7063 H   0  0  0  0  0  0  0  0  0  0  0  0
   45.4074   32.4903   37.9260 H   0  0  0  0  0  0  0  0  0  0  0  0
   46.6783   32.2546   39.9984 H   0  0  0  0  0  0  0  0  0  0  0  0
   47.6686   31.8107   38.5371 H   0  0  0  0  0  0  0  0  0  0  0  0
  2  1  2  0
  3  2  1  0
  4  3  2  0
  4  5  1  0
  5  6  2  0
  6  1  1  0
  7  5  1  0
  7  8  1  0
  9  8  2  0
 10  9  1  0
 11 10  2  0
 11  7  1  0
 12 13  1  0
 12 11  1  0
 14 12  1  0
 15 14  1  0
 16 15  1  0
 17 16  1  0
 18 17  1  0
 18 19  1  0
 19 20  1  0
 20 15  1  0
  1 21  1  0
  2 22  1  0
  3 23  1  0
  9 24  1  0
 10 25  1  0
 12 26  1  6
 13 27  1  0
 13 28  1  0
 13 29  1  0
 14 30  1  0
 14 31  1  0
 16 32  1  0
 16 33  1  0
 17 34  1  0
 17 35  1  0
 18 36  1  0
 19 37  1  0
 19 38  1  0
 20 39  1  0
 20 40  1  0
M  ISO  8  21  14  22  14  23  14  24  14  25  14  26   8  27   8  28   8
M  ISO  8  29   8  30   8  31   8  32  13  33  13  34  13  35  13  36   5
M  ISO  4  37  13  38  13  39  13  40  13
M  END
>  <minimizedAffinity>  (1) 
-5.13496017

>  <minimizedRMSD>  (1) 
3.07240939

$$$$
