
     RDKit          3D

 40 43  0  0  1  0  0  0  0  0999 V2000
   48.1040   32.3720   42.9190 C   0  0  2  0  0  0  0  0  0  0  0  0
   44.5700   35.7310   44.9510 C   0  0  0  0  0  0  0  0  0  0  0  0
   44.5630   36.1450   43.6160 C   0  0  0  0  0  0  0  0  0  0  0  0
   45.1800   35.3040   42.6740 C   0  0  0  0  0  0  0  0  0  0  0  0
   45.7290   34.1640   43.1410 N   0  0  0  0  0  0  0  0  0  0  0  0
   45.7370   33.7700   44.4020 C   0  0  0  0  0  0  0  0  0  0  0  0
   45.1510   34.5700   45.2990 N   0  0  0  0  0  0  0  0  0  0  0  0
   46.3210   32.5620   44.8450 N   0  0  0  0  0  0  0  0  0  0  0  0
   46.0260   31.8000   45.9000 N   0  0  0  0  0  0  0  0  0  0  0  0
   46.8580   30.7420   45.9150 C   0  0  0  0  0  0  0  0  0  0  0  0
   47.6930   30.8540   44.8330 C   0  0  0  0  0  0  0  0  0  0  0  0
   47.3470   32.0240   44.1470 C   0  0  0  0  0  0  0  0  0  0  0  0
   48.5980   33.7990   43.0680 C   0  0  0  0  0  0  0  0  0  0  0  0
   47.2710   32.2440   41.6830 C   0  0  0  0  0  0  0  0  0  0  0  0
   48.2090   31.8650   40.5340 C   0  0  0  0  0  0  0  0  0  0  0  0
   49.0930   30.8410   40.3080 C   0  0  0  0  0  0  0  0  0  0  0  0
   49.6840   30.9400   39.1090 N   0  0  0  0  0  0  0  0  0  0  0  0
   49.2020   32.0390   38.5070 C   0  0  0  0  0  0  0  0  0  0  0  0
   49.5490   32.4990   37.2560 C   0  0  0  0  0  0  0  0  0  0  0  0
   48.9460   33.6440   36.8020 C   0  0  0  0  0  0  0  0  0  0  0  0
   48.0290   34.2690   37.6230 C   0  0  0  0  0  0  0  0  0  0  0  0
   47.6960   33.7840   38.8830 C   0  0  0  0  0  0  0  0  0  0  0  0
   48.2950   32.6270   39.3580 C   0  0  0  0  0  0  0  0  0  0  0  0
   48.9432   31.6698   42.8064 H   0  0  0  0  0  0  0  0  0  0  0  0
   44.0975   36.3587   45.7209 H   0  0  0  0  0  0  0  0  0  0  0  0
   44.0927   37.0925   43.3143 H   0  0  0  0  0  0  0  0  0  0  0  0
   45.2136   35.5635   41.6056 H   0  0  0  0  0  0  0  0  0  0  0  0
   46.8666   29.9334   46.6607 H   0  0  0  0  0  0  0  0  0  0  0  0
   48.4914   30.1506   44.5542 H   0  0  0  0  0  0  0  0  0  0  0  0
   48.6841   34.0476   44.1361 H   0  0  0  0  0  0  0  0  0  0  0  0
   49.5828   33.8981   42.5880 H   0  0  0  0  0  0  0  0  0  0  0  0
   47.8853   34.4857   42.5880 H   0  0  0  0  0  0  0  0  0  0  0  0
   46.5111   31.4608   41.8215 H   0  0  0  0  0  0  0  0  0  0  0  0
   46.7531   33.1896   41.4649 H   0  0  0  0  0  0  0  0  0  0  0  0
   49.2936   30.0328   41.0268 H   0  0  0  0  0  0  0  0  0  0  0  0
   50.3820   30.2902   38.7197 H   0  0  0  0  0  0  0  0  0  0  0  0
   50.2871   31.9644   36.6400 H   0  0  0  0  0  0  0  0  0  0  0  0
   49.1867   34.0535   35.8099 H   0  0  0  0  0  0  0  0  0  0  0  0
   47.5418   35.1883   37.2659 H   0  0  0  0  0  0  0  0  0  0  0  0
   46.9590   34.3170   39.5016 H   0  0  0  0  0  0  0  0  0  0  0  0
  1 13  1  0
  1 12  1  0
  2  7  2  0
  3  2  1  0
  4  5  1  0
  4  3  2  0
  5  6  2  0
  6  8  1  0
  6  7  1  0
  8  9  1  0
  9 10  2  0
 11 10  1  0
 12 11  2  0
 12  8  1  0
 14  1  1  0
 15 14  1  0
 16 15  2  0
 17 16  1  0
 18 17  1  0
 18 23  2  0
 19 18  1  0
 20 19  2  0
 20 21  1  0
 21 22  2  0
 22 23  1  0
 23 15  1  0
  1 24  1  6
  2 25  1  0
  3 26  1  0
  4 27  1  0
 10 28  1  0
 11 29  1  0
 13 30  1  0
 13 31  1  0
 13 32  1  0
 14 33  1  0
 14 34  1  0
 16 35  1  0
 17 36  1  0
 19 37  1  0
 20 38  1  0
 21 39  1  0
 22 40  1  0
M  ISO  8  24   8  25  14  26  14  27  14  28  14  29  14  30   8  31   8
M  ISO  8  32   8  33   8  34   8  35  14  36   9  37  14  38  14  39  14
M  ISO  1  40  14
M  END
>  <minimizedAffinity>  (1) 
-5.1076045

>  <minimizedRMSD>  (1) 
1.63832283

$$$$
