
     RDKit          3D

 39 42  0  0  1  0  0  0  0  0999 V2000
   48.1840   32.6270   42.7940 C   0  0  2  0  0  0  0  0  0  0  0  0
   44.6050   35.5080   45.3660 C   0  0  0  0  0  0  0  0  0  0  0  0
   44.5420   36.1190   44.1210 C   0  0  0  0  0  0  0  0  0  0  0  0
   45.1570   35.4490   43.0500 C   0  0  0  0  0  0  0  0  0  0  0  0
   45.7570   34.2690   43.3290 N   0  0  0  0  0  0  0  0  0  0  0  0
   45.8120   33.6960   44.5170 C   0  0  0  0  0  0  0  0  0  0  0  0
   45.2260   34.3290   45.5450 N   0  0  0  0  0  0  0  0  0  0  0  0
   46.4440   32.4510   44.7580 N   0  0  0  0  0  0  0  0  0  0  0  0
   46.1970   31.5230   45.6880 N   0  0  0  0  0  0  0  0  0  0  0  0
   47.0560   30.5070   45.5220 C   0  0  0  0  0  0  0  0  0  0  0  0
   47.8630   30.8100   44.4520 C   0  0  0  0  0  0  0  0  0  0  0  0
   47.4630   32.0620   43.9680 C   0  0  0  0  0  0  0  0  0  0  0  0
   48.6250   34.0270   43.1460 C   0  0  0  0  0  0  0  0  0  0  0  0
   47.3170   32.6450   41.5700 C   0  0  0  0  0  0  0  0  0  0  0  0
   48.1920   32.1710   40.4550 N   0  0  0  0  0  0  0  0  0  0  0  0
   49.0210   31.1190   40.4060 C   0  0  0  0  0  0  0  0  0  0  0  0
   49.6720   31.0370   39.2400 N   0  0  0  0  0  0  0  0  0  0  0  0
   49.2760   32.0590   38.4750 C   0  0  0  0  0  0  0  0  0  0  0  0
   49.5630   32.5280   37.1960 C   0  0  0  0  0  0  0  0  0  0  0  0
   48.9640   33.6310   36.7150 N   0  0  0  0  0  0  0  0  0  0  0  0
   48.0660   34.2840   37.5050 C   0  0  0  0  0  0  0  0  0  0  0  0
   47.7670   33.8580   38.7440 N   0  0  0  0  0  0  0  0  0  0  0  0
   48.3660   32.7400   39.2500 C   0  0  0  0  0  0  0  0  0  0  0  0
   50.5140   31.7910   36.4280 N   0  0  0  0  0  0  0  0  0  0  0  0
   49.0535   31.9945   42.5618 H   0  0  0  0  0  0  0  0  0  0  0  0
   44.1343   36.0016   46.2290 H   0  0  0  0  0  0  0  0  0  0  0  0
   44.0336   37.0841   43.9794 H   0  0  0  0  0  0  0  0  0  0  0  0
   45.1509   35.8647   42.0316 H   0  0  0  0  0  0  0  0  0  0  0  0
   47.1058   29.5939   46.1333 H   0  0  0  0  0  0  0  0  0  0  0  0
   48.6736   30.1847   44.0497 H   0  0  0  0  0  0  0  0  0  0  0  0
   48.6595   34.1364   44.2400 H   0  0  0  0  0  0  0  0  0  0  0  0
   49.6251   34.2126   42.7273 H   0  0  0  0  0  0  0  0  0  0  0  0
   47.9118   34.7523   42.7273 H   0  0  0  0  0  0  0  0  0  0  0  0
   46.4574   31.9706   41.6976 H   0  0  0  0  0  0  0  0  0  0  0  0
   46.9104   33.6478   41.3721 H   0  0  0  0  0  0  0  0  0  0  0  0
   49.1515   30.4037   41.2314 H   0  0  0  0  0  0  0  0  0  0  0  0
   47.5712   35.1866   37.1171 H   0  0  0  0  0  0  0  0  0  0  0  0
   50.7580   32.1002   35.4763 H   0  0  0  0  0  0  0  0  0  0  0  0
   50.9563   30.9500   36.8255 H   0  0  0  0  0  0  0  0  0  0  0  0
  1 13  1  0
  1 12  1  0
  2  7  2  0
  3  2  1  0
  4  5  1  0
  4  3  2  0
  5  6  2  0
  6  8  1  0
  6  7  1  0
  8  9  1  0
 10  9  2  0
 11 10  1  0
 12 11  2  0
 12  8  1  0
 14  1  1  0
 15 14  1  0
 16 15  1  0
 17 16  2  0
 18 17  1  0
 18 23  2  0
 19 18  1  0
 20 19  2  0
 20 21  1  0
 21 22  2  0
 22 23  1  0
 23 15  1  0
 24 19  1  0
  1 25  1  6
  2 26  1  0
  3 27  1  0
  4 28  1  0
 10 29  1  0
 11 30  1  0
 13 31  1  0
 13 32  1  0
 13 33  1  0
 14 34  1  0
 14 35  1  0
 16 36  1  0
 21 37  1  0
 24 38  1  0
 24 39  1  0
M  ISO  8  25   8  26  14  27  14  28  14  29  14  30  14  31   8  32   8
M  ISO  5  33   8  34   8  35   8  36  14  37  14
M  END
>  <minimizedAffinity>  (1) 
-5.42575359

>  <minimizedRMSD>  (1) 
2.48099136

$$$$
