
     RDKit          3D

 42 45  0  0  1  0  0  0  0  0999 V2000
   48.7680   34.1780   41.7070 C   0  0  2  0  0  0  0  0  0  0  0  0
   44.9920   34.9150   45.3340 C   0  0  0  0  0  0  0  0  0  0  0  0
   44.6800   35.9420   44.4300 C   0  0  0  0  0  0  0  0  0  0  0  0
   45.2990   35.9110   43.1690 C   0  0  0  0  0  0  0  0  0  0  0  0
   46.1490   34.8850   42.9380 N   0  0  0  0  0  0  0  0  0  0  0  0
   46.4440   33.9200   43.7850 C   0  0  0  0  0  0  0  0  0  0  0  0
   45.8550   33.9460   44.9860 N   0  0  0  0  0  0  0  0  0  0  0  0
   47.3410   32.8660   43.4910 N   0  0  0  0  0  0  0  0  0  0  0  0
   47.4060   31.6260   43.9760 N   0  0  0  0  0  0  0  0  0  0  0  0
   48.4310   30.9850   43.4000 C   0  0  0  0  0  0  0  0  0  0  0  0
   49.0270   31.8550   42.5240 C   0  0  0  0  0  0  0  0  0  0  0  0
   48.3220   33.0610   42.5870 C   0  0  0  0  0  0  0  0  0  0  0  0
   49.4600   35.2070   42.5890 C   0  0  0  0  0  0  0  0  0  0  0  0
   47.6250   34.8210   40.9840 C   0  0  0  0  0  0  0  0  0  0  0  0
   47.6720   34.2920   39.5470 C   0  0  0  0  0  0  0  0  0  0  0  0
   48.6380   34.7190   38.6290 C   0  0  0  0  0  0  0  0  0  0  0  0
   48.6140   34.1810   37.3650 C   0  0  0  0  0  0  0  0  0  0  0  0
   47.7030   33.2470   36.9330 C   0  0  0  0  0  0  0  0  0  0  0  0
   46.7310   32.8120   37.8410 C   0  0  0  0  0  0  0  0  0  0  0  0
   45.8310   31.8980   37.3980 C   0  0  0  0  0  0  0  0  0  0  0  0
   44.8420   31.4520   38.2640 C   0  0  0  0  0  0  0  0  0  0  0  0
   44.8270   31.9670   39.5450 C   0  0  0  0  0  0  0  0  0  0  0  0
   45.7700   32.8930   39.9330 C   0  0  0  0  0  0  0  0  0  0  0  0
   46.7640   33.3560   39.1040 C   0  0  0  0  0  0  0  0  0  0  0  0
   49.4473   33.7800   40.9388 H   0  0  0  0  0  0  0  0  0  0  0  0
   44.5282   34.9033   46.3314 H   0  0  0  0  0  0  0  0  0  0  0  0
   43.9757   36.7430   44.6991 H   0  0  0  0  0  0  0  0  0  0  0  0
   45.1023   36.6815   42.4090 H   0  0  0  0  0  0  0  0  0  0  0  0
   48.7393   29.9472   43.5947 H   0  0  0  0  0  0  0  0  0  0  0  0
   49.8994   31.6433   41.8884 H   0  0  0  0  0  0  0  0  0  0  0  0
   49.2913   34.9561   43.6466 H   0  0  0  0  0  0  0  0  0  0  0  0
   50.5398   35.2031   42.3790 H   0  0  0  0  0  0  0  0  0  0  0  0
   49.0492   36.2056   42.3790 H   0  0  0  0  0  0  0  0  0  0  0  0
   46.6715   34.5474   41.4594 H   0  0  0  0  0  0  0  0  0  0  0  0
   47.7031   35.9179   41.0086 H   0  0  0  0  0  0  0  0  0  0  0  0
   49.3956   35.4648   38.9116 H   0  0  0  0  0  0  0  0  0  0  0  0
   49.3767   34.5214   36.6492 H   0  0  0  0  0  0  0  0  0  0  0  0
   47.7368   32.8539   35.9062 H   0  0  0  0  0  0  0  0  0  0  0  0
   45.8844   31.5162   36.3678 H   0  0  0  0  0  0  0  0  0  0  0  0
   44.0947   30.7125   37.9403 H   0  0  0  0  0  0  0  0  0  0  0  0
   44.0584   31.6362   40.2590 H   0  0  0  0  0  0  0  0  0  0  0  0
   45.7253   33.2827   40.9607 H   0  0  0  0  0  0  0  0  0  0  0  0
  1 12  1  0
  1 13  1  0
  3  2  2  0
  4  3  1  0
  5  4  2  0
  5  6  1  0
  6  7  2  0
  7  2  1  0
  8  6  1  0
  8  9  1  0
 10  9  2  0
 11 12  2  0
 11 10  1  0
 12  8  1  0
 14  1  1  0
 15 14  1  0
 16 15  2  0
 17 16  1  0
 18 17  2  0
 18 19  1  0
 19 24  2  0
 20 19  1  0
 20 21  2  0
 21 22  1  0
 22 23  2  0
 24 15  1  0
 24 23  1  0
  1 25  1  6
  2 26  1  0
  3 27  1  0
  4 28  1  0
 10 29  1  0
 11 30  1  0
 13 31  1  0
 13 32  1  0
 13 33  1  0
 14 34  1  0
 14 35  1  0
 16 36  1  0
 17 37  1  0
 18 38  1  0
 20 39  1  0
 21 40  1  0
 22 41  1  0
 23 42  1  0
M  ISO  8  25   8  26  14  27  14  28  14  29  14  30  14  31   8  32   8
M  ISO  8  33   8  34   8  35   8  36  14  37  14  38  14  39  14  40  14
M  ISO  2  41  14  42  14
M  END
>  <minimizedAffinity>  (1) 
-5.83612251

>  <minimizedRMSD>  (1) 
4.3213501

$$$$
