
     RDKit          3D

 39 41  0  0  1  0  0  0  0  0999 V2000
   48.4540   32.8220   42.7980 C   0  0  2  0  0  0  0  0  0  0  0  0
   44.6190   35.5720   45.1170 C   0  0  0  0  0  0  0  0  0  0  0  0
   44.7020   36.2700   43.9200 C   0  0  0  0  0  0  0  0  0  0  0  0
   45.4380   35.6620   42.8880 C   0  0  0  0  0  0  0  0  0  0  0  0
   45.9950   34.4570   43.1550 N   0  0  0  0  0  0  0  0  0  0  0  0
   45.9040   33.8070   44.2990 C   0  0  0  0  0  0  0  0  0  0  0  0
   45.2030   34.3820   45.2910 N   0  0  0  0  0  0  0  0  0  0  0  0
   46.4930   32.5430   44.5270 N   0  0  0  0  0  0  0  0  0  0  0  0
   46.1290   31.5630   45.3600 N   0  0  0  0  0  0  0  0  0  0  0  0
   47.0010   30.5450   45.2310 C   0  0  0  0  0  0  0  0  0  0  0  0
   47.9330   30.9030   44.2910 C   0  0  0  0  0  0  0  0  0  0  0  0
   47.6020   32.1840   43.8430 C   0  0  0  0  0  0  0  0  0  0  0  0
   48.6690   34.2630   43.1940 C   0  0  0  0  0  0  0  0  0  0  0  0
   47.8370   32.7340   41.4380 C   0  0  0  0  0  0  0  0  0  0  0  0
   51.0130   31.4440   38.7970 C   0  0  0  0  0  0  0  0  0  0  0  0
   51.2350   31.4780   40.1570 C   0  0  0  0  0  0  0  0  0  0  0  0
   50.1930   31.9080   40.9440 C   0  0  0  0  0  0  0  0  0  0  0  0
   48.9550   32.3040   40.4800 C   0  0  0  0  0  0  0  0  0  0  0  0
   48.8040   32.2430   39.1120 C   0  0  0  0  0  0  0  0  0  0  0  0
   49.8100   31.8240   38.2860 C   0  0  0  0  0  0  0  0  0  0  0  0
   52.2960   30.9090   37.7390 S   0  0  0  0  0  0  0  0  0  0  0  0
   51.8310   30.8810   36.2940 O   0  0  0  0  0  0  0  0  0  0  0  0
   53.4890   31.8180   37.8020 O   0  0  0  0  0  0  0  0  0  0  0  0
   49.4138   32.2882   42.7366 H   0  0  0  0  0  0  0  0  0  0  0  0
   44.0534   36.0131   45.9510 H   0  0  0  0  0  0  0  0  0  0  0  0
   44.2170   37.2482   43.7859 H   0  0  0  0  0  0  0  0  0  0  0  0
   45.5562   36.1441   41.9064 H   0  0  0  0  0  0  0  0  0  0  0  0
   46.9710   29.5937   45.7826 H   0  0  0  0  0  0  0  0  0  0  0  0
   48.7841   30.2939   43.9523 H   0  0  0  0  0  0  0  0  0  0  0  0
   48.6811   34.3439   44.2910 H   0  0  0  0  0  0  0  0  0  0  0  0
   49.6296   34.6149   42.7898 H   0  0  0  0  0  0  0  0  0  0  0  0
   47.8530   34.8800   42.7898 H   0  0  0  0  0  0  0  0  0  0  0  0
   47.0271   31.9896   41.4355 H   0  0  0  0  0  0  0  0  0  0  0  0
   47.4023   33.6980   41.1351 H   0  0  0  0  0  0  0  0  0  0  0  0
   52.1992   31.1757   40.5916 H   0  0  0  0  0  0  0  0  0  0  0  0
   50.3594   31.9389   42.0309 H   0  0  0  0  0  0  0  0  0  0  0  0
   47.8421   32.5413   38.6694 H   0  0  0  0  0  0  0  0  0  0  0  0
   49.6456   31.7938   37.1988 H   0  0  0  0  0  0  0  0  0  0  0  0
   52.6416   29.6540   38.1663 H   0  0  0  0  0  0  0  0  0  0  0  0
  1 13  1  0
  1 12  1  0
  2  7  2  0
  3  2  1  0
  4  5  1  0
  4  3  2  0
  5  6  2  0
  6  8  1  0
  6  7  1  0
  8  9  1  0
 10  9  2  0
 11 10  1  0
 12 11  2  0
 12  8  1  0
 14  1  1  0
 15 16  2  0
 16 17  1  0
 18 17  2  0
 18 14  1  0
 19 18  1  0
 20 15  1  0
 20 19  2  0
 21 23  2  0
 21 15  1  0
 22 21  2  0
  1 24  1  6
  2 25  1  0
  3 26  1  0
  4 27  1  0
 10 28  1  0
 11 29  1  0
 13 30  1  0
 13 31  1  0
 13 32  1  0
 14 33  1  0
 14 34  1  0
 16 35  1  0
 17 36  1  0
 19 37  1  0
 20 38  1  0
 21 39  1  0
M  ISO  8  24   8  25  14  26  14  27  14  28  14  29  14  30   8  31   8
M  ISO  8  32   8  33   8  34   8  35  14  36  14  37  14  38  14  39  11
M  END
>  <minimizedAffinity>  (1) 
-4.76816082

>  <minimizedRMSD>  (1) 
2.45068026

$$$$
