
     RDKit          3D

 39 41  0  0  1  0  0  0  0  0999 V2000
   44.5100   35.9920   44.4170 C   0  0  0  0  0  0  0  0  0  0  0  0
   44.2290   35.6760   43.0790 C   0  0  0  0  0  0  0  0  0  0  0  0
   44.5420   34.3710   42.6340 C   0  0  0  0  0  0  0  0  0  0  0  0
   45.0930   33.5300   43.5460 N   0  0  0  0  0  0  0  0  0  0  0  0
   45.3550   33.8300   44.7970 C   0  0  0  0  0  0  0  0  0  0  0  0
   45.0580   35.0730   45.2310 N   0  0  0  0  0  0  0  0  0  0  0  0
   45.9280   32.9210   45.7110 N   0  0  0  0  0  0  0  0  0  0  0  0
   45.8200   32.8480   47.0380 N   0  0  0  0  0  0  0  0  0  0  0  0
   46.5550   31.8210   47.4820 C   0  0  0  0  0  0  0  0  0  0  0  0
   47.1430   31.2320   46.3910 C   0  0  0  0  0  0  0  0  0  0  0  0
   46.7360   31.9400   45.2620 C   0  0  0  0  0  0  0  0  0  0  0  0
   47.2120   31.4710   43.9380 C   0  0  2  0  0  0  0  0  0  0  0  0
   47.5890   30.0040   44.0770 C   0  0  0  0  0  0  0  0  0  0  0  0
   48.3810   32.1800   43.4130 C   0  0  0  0  0  0  0  0  0  0  0  0
   48.5420   32.4960   41.9820 C   0  0  0  0  0  0  0  0  0  0  0  0
   49.5460   31.5380   41.3330 C   0  0  0  0  0  0  0  0  0  0  0  0
   49.5530   32.0560   39.9320 C   0  0  0  0  0  0  0  0  0  0  0  0
   48.0820   32.3100   39.6750 C   0  0  0  0  0  0  0  0  0  0  0  0
   47.4090   32.3090   41.0520 C   0  0  0  0  0  0  0  0  0  0  0  0
   44.2808   36.9967   44.8018 H   0  0  0  0  0  0  0  0  0  0  0  0
   43.7812   36.4171   42.4006 H   0  0  0  0  0  0  0  0  0  0  0  0
   44.3484   34.0527   41.5990 H   0  0  0  0  0  0  0  0  0  0  0  0
   46.6671   31.5066   48.5301 H   0  0  0  0  0  0  0  0  0  0  0  0
   47.8134   30.3600   46.4051 H   0  0  0  0  0  0  0  0  0  0  0  0
   46.3911   31.6568   43.2297 H   0  0  0  0  0  0  0  0  0  0  0  0
   47.6563   29.7422   45.1433 H   0  0  0  0  0  0  0  0  0  0  0  0
   46.8218   29.3809   43.5941 H   0  0  0  0  0  0  0  0  0  0  0  0
   48.5616   29.8280   43.5941 H   0  0  0  0  0  0  0  0  0  0  0  0
   48.4176   33.1427   43.9439 H   0  0  0  0  0  0  0  0  0  0  0  0
   49.1808   31.4416   43.5710 H   0  0  0  0  0  0  0  0  0  0  0  0
   48.7860   33.5647   42.0731 H   0  0  0  0  0  0  0  0  0  0  0  0
   50.5395   31.6147   41.7989 H   0  0  0  0  0  0  0  0  0  0  0  0
   49.2878   30.4728   41.4258 H   0  0  0  0  0  0  0  0  0  0  0  0
   50.1374   32.9846   39.8534 H   0  0  0  0  0  0  0  0  0  0  0  0
   50.0139   31.3664   39.2095 H   0  0  0  0  0  0  0  0  0  0  0  0
   47.9422   33.2831   39.1815 H   0  0  0  0  0  0  0  0  0  0  0  0
   47.6495   31.5450   39.0134 H   0  0  0  0  0  0  0  0  0  0  0  0
   46.6871   33.1345   41.1388 H   0  0  0  0  0  0  0  0  0  0  0  0
   46.8348   31.3921   41.2507 H   0  0  0  0  0  0  0  0  0  0  0  0
  1  6  2  0
  2  1  1  0
  3  2  2  0
  3  4  1  0
  4  5  2  0
  5  6  1  0
  5  7  1  0
  7  8  1  0
  8  9  2  0
 10  9  1  0
 11  7  1  0
 11 10  2  0
 12 13  1  0
 12 11  1  0
 14 12  1  0
 15 14  1  0
 16 15  1  0
 17 16  1  0
 18 17  1  0
 18 19  1  0
 19 15  1  0
  1 20  1  0
  2 21  1  0
  3 22  1  0
  9 23  1  0
 10 24  1  0
 12 25  1  6
 13 26  1  0
 13 27  1  0
 13 28  1  0
 14 29  1  0
 14 30  1  0
 15 31  1  0
 16 32  1  0
 16 33  1  0
 17 34  1  0
 17 35  1  0
 18 36  1  0
 18 37  1  0
 19 38  1  0
 19 39  1  0
M  ISO  8  20  14  21  14  22  14  23  14  24  14  25   8  26   8  27   8
M  ISO  8  28   8  29   8  30   8  31  13  32  13  33  13  34  13  35  13
M  ISO  4  36  13  37  13  38  13  39  13
M  END
>  <minimizedAffinity>  (1) 
-4.15817595

>  <minimizedRMSD>  (1) 
3.19214296

$$$$
