
     RDKit          3D

 33 35  0  0  1  0  0  0  0  0999 V2000
   44.6150   36.0520   44.3120 C   0  0  0  0  0  0  0  0  0  0  0  0
   44.5510   35.5130   43.0240 C   0  0  0  0  0  0  0  0  0  0  0  0
   44.8210   34.1380   42.8740 C   0  0  0  0  0  0  0  0  0  0  0  0
   45.1220   33.4470   44.0010 N   0  0  0  0  0  0  0  0  0  0  0  0
   45.1800   33.9600   45.2110 C   0  0  0  0  0  0  0  0  0  0  0  0
   44.9240   35.2730   45.3680 N   0  0  0  0  0  0  0  0  0  0  0  0
   45.5000   33.1950   46.3580 N   0  0  0  0  0  0  0  0  0  0  0  0
   45.1480   33.3830   47.6420 N   0  0  0  0  0  0  0  0  0  0  0  0
   45.6900   32.4060   48.3780 C   0  0  0  0  0  0  0  0  0  0  0  0
   46.4000   31.5840   47.5350 C   0  0  0  0  0  0  0  0  0  0  0  0
   46.2710   32.0960   46.2430 C   0  0  0  0  0  0  0  0  0  0  0  0
   46.9330   31.3690   45.1560 C   0  0  2  0  0  0  0  0  0  0  0  0
   47.6810   32.4070   44.2920 C   0  0  0  0  0  0  0  0  0  0  0  0
   46.0130   30.6420   44.2490 C   0  0  0  0  0  0  0  0  0  0  0  0
   45.1480   29.6040   44.7870 C   0  0  0  0  0  0  0  0  0  0  0  0
   45.1510   28.5660   45.6450 C   0  0  0  0  0  0  0  0  0  0  0  0
   43.9500   27.9360   45.7100 N   0  0  0  0  0  0  0  0  0  0  0  0
   43.1480   28.6060   44.8500 C   0  0  0  0  0  0  0  0  0  0  0  0
   43.8660   29.5990   44.3030 N   0  0  0  0  0  0  0  0  0  0  0  0
   44.4113   37.1220   44.4655 H   0  0  0  0  0  0  0  0  0  0  0  0
   44.2984   36.1408   42.1568 H   0  0  0  0  0  0  0  0  0  0  0  0
   44.7891   33.6486   41.8894 H   0  0  0  0  0  0  0  0  0  0  0  0
   45.5859   32.2822   49.4660 H   0  0  0  0  0  0  0  0  0  0  0  0
   46.9662   30.6868   47.8257 H   0  0  0  0  0  0  0  0  0  0  0  0
   47.5828   30.6195   45.6313 H   0  0  0  0  0  0  0  0  0  0  0  0
   48.1980   33.1244   44.9463 H   0  0  0  0  0  0  0  0  0  0  0  0
   48.4177   31.8930   43.6571 H   0  0  0  0  0  0  0  0  0  0  0  0
   46.9603   32.9432   43.6571 H   0  0  0  0  0  0  0  0  0  0  0  0
   46.6347   30.1702   43.4738 H   0  0  0  0  0  0  0  0  0  0  0  0
   45.3084   31.4195   43.9187 H   0  0  0  0  0  0  0  0  0  0  0  0
   46.0314   28.2614   46.2300 H   0  0  0  0  0  0  0  0  0  0  0  0
   42.0934   28.3769   44.6369 H   0  0  0  0  0  0  0  0  0  0  0  0
   43.5016   30.2690   43.6107 H   0  0  0  0  0  0  0  0  0  0  0  0
  1  6  2  0
  2  1  1  0
  3  2  2  0
  3  4  1  0
  4  5  2  0
  5  6  1  0
  5  7  1  0
  7  8  1  0
  8  9  2  0
 10  9  1  0
 11  7  1  0
 11 10  2  0
 12 11  1  0
 13 12  1  0
 14 15  1  0
 14 12  1  0
 15 16  2  0
 16 17  1  0
 18 17  2  0
 19 15  1  0
 19 18  1  0
  1 20  1  0
  2 21  1  0
  3 22  1  0
  9 23  1  0
 10 24  1  0
 12 25  1  1
 13 26  1  0
 13 27  1  0
 13 28  1  0
 14 29  1  0
 14 30  1  0
 16 31  1  0
 18 32  1  0
 19 33  1  0
M  ISO  8  20  14  21  14  22  14  23  14  24  14  25   8  26   8  27   8
M  ISO  6  28   8  29   8  30   8  31  14  32  14  33   9
M  END
>  <minimizedAffinity>  (1) 
-4.24500322

>  <minimizedRMSD>  (1) 
1.2853874

$$$$
