
     RDKit          3D

 48 52  0  0  1  0  0  0  0  0999 V2000
   45.1460   33.5200   41.0150 N   0  0  0  0  0  0  0  0  0  0  0  0
   43.9130   33.9970   40.3890 C   0  0  0  0  0  0  0  0  0  0  0  0
   42.7040   33.6920   41.2160 C   0  0  0  0  0  0  0  0  0  0  0  0
   42.6690   32.2620   41.4480 N   0  0  0  0  0  0  0  0  0  0  0  0
   43.7740   32.0010   42.3680 C   0  0  0  0  0  0  0  0  0  0  0  0
   45.1260   32.2520   41.7360 C   0  0  1  0  0  0  0  0  0  0  0  0
   45.2960   31.2260   40.6720 C   0  0  0  0  0  0  0  0  0  0  0  0
   45.6310   29.9400   40.9540 N   0  0  0  0  0  0  0  0  0  0  0  0
   45.7870   28.9920   40.0260 C   0  0  0  0  0  0  0  0  0  0  0  0
   45.6240   29.2420   38.7110 N   0  0  0  0  0  0  0  0  0  0  0  0
   45.2900   30.5020   38.3540 C   0  0  0  0  0  0  0  0  0  0  0  0
   45.1240   30.7590   37.0170 C   0  0  0  0  0  0  0  0  0  0  0  0
   44.7850   32.0440   36.6540 C   0  0  0  0  0  0  0  0  0  0  0  0
   44.6140   33.0500   37.5800 C   0  0  0  0  0  0  0  0  0  0  0  0
   44.7970   32.7200   38.9090 C   0  0  0  0  0  0  0  0  0  0  0  0
   45.1330   31.4620   39.3320 C   0  0  0  0  0  0  0  0  0  0  0  0
   46.8130   34.8480   42.1200 C   0  0  0  0  0  0  0  0  0  0  0  0
   48.0490   35.4630   42.0650 C   0  0  0  0  0  0  0  0  0  0  0  0
   48.8730   35.4120   40.9450 C   0  0  0  0  0  0  0  0  0  0  0  0
   48.4310   34.7050   39.8090 C   0  0  0  0  0  0  0  0  0  0  0  0
   47.2020   34.0950   39.8650 C   0  0  0  0  0  0  0  0  0  0  0  0
   46.4360   34.1820   41.0010 C   0  0  0  0  0  0  0  0  0  0  0  0
   44.4350   35.9400   44.8010 C   0  0  0  0  0  0  0  0  0  0  0  0
   45.1060   35.9500   43.5670 C   0  0  0  0  0  0  0  0  0  0  0  0
   46.0480   34.9660   43.3310 C   0  0  0  0  0  0  0  0  0  0  0  0
   46.2880   34.0250   44.3040 N   0  0  0  0  0  0  0  0  0  0  0  0
   45.6020   34.0710   45.4800 C   0  0  0  0  0  0  0  0  0  0  0  0
   44.6830   35.0250   45.7190 N   0  0  0  0  0  0  0  0  0  0  0  0
   43.9834   35.0863   40.2529 H   0  0  0  0  0  0  0  0  0  0  0  0
   43.8018   33.4791   39.4249 H   0  0  0  0  0  0  0  0  0  0  0  0
   42.7648   34.2246   42.1765 H   0  0  0  0  0  0  0  0  0  0  0  0
   41.7920   34.0167   40.6937 H   0  0  0  0  0  0  0  0  0  0  0  0
   41.7719   31.9859   41.8721 H   0  0  0  0  0  0  0  0  0  0  0  0
   43.6666   32.6579   43.2437 H   0  0  0  0  0  0  0  0  0  0  0  0
   43.7294   30.9390   42.6511 H   0  0  0  0  0  0  0  0  0  0  0  0
   45.8905   32.2382   42.5268 H   0  0  0  0  0  0  0  0  0  0  0  0
   46.0572   27.9745   40.3448 H   0  0  0  0  0  0  0  0  0  0  0  0
   45.2565   29.9690   36.2631 H   0  0  0  0  0  0  0  0  0  0  0  0
   44.6460   32.2750   35.5876 H   0  0  0  0  0  0  0  0  0  0  0  0
   44.3435   34.0715   37.2743 H   0  0  0  0  0  0  0  0  0  0  0  0
   44.6661   33.5078   39.6655 H   0  0  0  0  0  0  0  0  0  0  0  0
   48.3979   36.0189   42.9478 H   0  0  0  0  0  0  0  0  0  0  0  0
   49.8516   35.9144   40.9463 H   0  0  0  0  0  0  0  0  0  0  0  0
   49.0525   34.6435   38.9035 H   0  0  0  0  0  0  0  0  0  0  0  0
   46.8294   33.5339   38.9953 H   0  0  0  0  0  0  0  0  0  0  0  0
   43.6828   36.7155   45.0076 H   0  0  0  0  0  0  0  0  0  0  0  0
   44.8883   36.7183   42.8105 H   0  0  0  0  0  0  0  0  0  0  0  0
   45.8034   33.3124   46.2507 H   0  0  0  0  0  0  0  0  0  0  0  0
  1  6  1  0
  2  1  1  0
  2  3  1  0
  3  4  1  0
  4  5  1  0
  6  5  1  0
  7  8  2  0
  7  6  1  0
  9  8  1  0
 10  9  2  0
 11 10  1  0
 11 16  2  0
 12 11  1  0
 13 12  2  0
 13 14  1  0
 14 15  2  0
 15 16  1  0
 16  7  1  0
 17 25  1  0
 18 17  2  0
 19 18  1  0
 20 21  1  0
 20 19  2  0
 21 22  2  0
 22  1  1  0
 22 17  1  0
 23 28  2  0
 24 23  1  0
 25 24  2  0
 25 26  1  0
 26 27  2  0
 27 28  1  0
  2 29  1  0
  2 30  1  0
  3 31  1  0
  3 32  1  0
  4 33  1  0
  5 34  1  0
  5 35  1  0
  6 36  1  1
  9 37  1  0
 12 38  1  0
 13 39  1  0
 14 40  1  0
 15 41  1  0
 18 42  1  0
 19 43  1  0
 20 44  1  0
 21 45  1  0
 23 46  1  0
 24 47  1  0
 27 48  1  0
M  ISO  8  29  13  30  13  31  13  32  13  33   5  34  13  35  13  36  13
M  ISO  8  37  14  38  14  39  14  40  14  41  14  42  14  43  14  44  14
M  ISO  4  45  14  46  14  47  14  48  14
M  END
>  <minimizedAffinity>  (1) 
-6.13430882

>  <minimizedRMSD>  (1) 
1.21176314

$$$$
