
     RDKit          3D

 37 40  0  0  1  0  0  0  0  0999 V2000
   46.7240   33.0320   45.8350 C   0  0  2  0  0  0  0  0  0  0  0  0
   43.8350   28.6130   45.9460 C   0  0  0  0  0  0  0  0  0  0  0  0
   43.8370   28.8540   44.5770 C   0  0  0  0  0  0  0  0  0  0  0  0
   44.7650   29.8050   44.0810 C   0  0  0  0  0  0  0  0  0  0  0  0
   45.5750   30.4010   44.9940 N   0  0  0  0  0  0  0  0  0  0  0  0
   45.5590   30.1600   46.2890 C   0  0  0  0  0  0  0  0  0  0  0  0
   44.6830   29.2590   46.7680 N   0  0  0  0  0  0  0  0  0  0  0  0
   46.4230   30.8060   47.2020 N   0  0  0  0  0  0  0  0  0  0  0  0
   46.9140   30.3790   48.3770 N   0  0  0  0  0  0  0  0  0  0  0  0
   47.6910   31.3390   48.8890 C   0  0  0  0  0  0  0  0  0  0  0  0
   47.6910   32.3990   48.0170 C   0  0  0  0  0  0  0  0  0  0  0  0
   46.8740   32.0540   46.9300 C   0  0  0  0  0  0  0  0  0  0  0  0
   45.4060   33.7630   46.0240 C   0  0  0  0  0  0  0  0  0  0  0  0
   46.6960   32.3890   44.4860 C   0  0  0  0  0  0  0  0  0  0  0  0
   47.8290   32.7230   43.6440 N   0  0  0  0  0  0  0  0  0  0  0  0
   47.9610   34.0200   43.2340 C   0  0  0  0  0  0  0  0  0  0  0  0
   49.0660   34.1850   42.4530 N   0  0  0  0  0  0  0  0  0  0  0  0
   49.6480   32.9830   42.3610 C   0  0  0  0  0  0  0  0  0  0  0  0
   50.7490   32.3980   41.7690 C   0  0  0  0  0  0  0  0  0  0  0  0
   51.0260   31.0910   41.9070 N   0  0  0  0  0  0  0  0  0  0  0  0
   50.2340   30.2800   42.6390 C   0  0  0  0  0  0  0  0  0  0  0  0
   49.1340   30.7860   43.2490 N   0  0  0  0  0  0  0  0  0  0  0  0
   48.8820   32.1000   43.0930 C   0  0  0  0  0  0  0  0  0  0  0  0
   47.5911   33.7077   45.8749 H   0  0  0  0  0  0  0  0  0  0  0  0
   43.1282   27.8817   46.3649 H   0  0  0  0  0  0  0  0  0  0  0  0
   43.1449   28.3270   43.9037 H   0  0  0  0  0  0  0  0  0  0  0  0
   44.8257   30.0479   43.0099 H   0  0  0  0  0  0  0  0  0  0  0  0
   48.2357   31.2882   49.8433 H   0  0  0  0  0  0  0  0  0  0  0  0
   48.2333   33.3472   48.1469 H   0  0  0  0  0  0  0  0  0  0  0  0
   45.2007   33.8769   47.0987 H   0  0  0  0  0  0  0  0  0  0  0  0
   45.4670   34.7562   45.5551 H   0  0  0  0  0  0  0  0  0  0  0  0
   44.5958   33.1853   45.5551 H   0  0  0  0  0  0  0  0  0  0  0  0
   46.6789   31.2979   44.6243 H   0  0  0  0  0  0  0  0  0  0  0  0
   45.7993   32.7680   43.9739 H   0  0  0  0  0  0  0  0  0  0  0  0
   47.2640   34.8282   43.5004 H   0  0  0  0  0  0  0  0  0  0  0  0
   51.4222   33.0231   41.1639 H   0  0  0  0  0  0  0  0  0  0  0  0
   50.4799   29.2126   42.7404 H   0  0  0  0  0  0  0  0  0  0  0  0
  1 13  1  0
  1 12  1  0
  2  7  2  0
  3  2  1  0
  4  3  2  0
  4  5  1  0
  5  6  2  0
  6  7  1  0
  6  8  1  0
  8  9  1  0
  9 10  2  0
 11 10  1  0
 12  8  1  0
 12 11  2  0
 14  1  1  0
 15 14  1  0
 16 15  1  0
 17 16  2  0
 18 17  1  0
 18 23  2  0
 19 20  2  0
 19 18  1  0
 20 21  1  0
 21 22  2  0
 23 22  1  0
 23 15  1  0
  1 24  1  6
  2 25  1  0
  3 26  1  0
  4 27  1  0
 10 28  1  0
 11 29  1  0
 13 30  1  0
 13 31  1  0
 13 32  1  0
 14 33  1  0
 14 34  1  0
 16 35  1  0
 19 36  1  0
 21 37  1  0
M  ISO  8  24   8  25  14  26  14  27  14  28  14  29  14  30   8  31   8
M  ISO  6  32   8  33   8  34   8  35  14  36  14  37  14
M  END
>  <minimizedAffinity>  (1) 
-4.60436392

>  <minimizedRMSD>  (1) 
5.44888783

$$$$
