
     RDKit          3D

 39 41  0  0  1  0  0  0  0  0999 V2000
   44.6300   36.0620   44.2960 C   0  0  0  0  0  0  0  0  0  0  0  0
   44.5640   35.5460   42.9970 C   0  0  0  0  0  0  0  0  0  0  0  0
   44.8270   34.1650   42.8290 C   0  0  0  0  0  0  0  0  0  0  0  0
   45.1220   33.4580   43.9460 N   0  0  0  0  0  0  0  0  0  0  0  0
   45.1820   33.9570   45.1660 C   0  0  0  0  0  0  0  0  0  0  0  0
   44.9330   35.2660   45.3350 N   0  0  0  0  0  0  0  0  0  0  0  0
   45.4920   33.1820   46.3050 N   0  0  0  0  0  0  0  0  0  0  0  0
   45.1390   33.3510   47.5910 N   0  0  0  0  0  0  0  0  0  0  0  0
   45.6700   32.3650   48.3160 C   0  0  0  0  0  0  0  0  0  0  0  0
   46.3780   31.5520   47.4680 C   0  0  0  0  0  0  0  0  0  0  0  0
   46.2620   32.0780   46.1750 C   0  0  0  0  0  0  0  0  0  0  0  0
   46.9310   31.3630   45.0660 C   0  0  2  0  0  0  0  0  0  0  0  0
   47.7300   32.3700   44.2610 C   0  0  0  0  0  0  0  0  0  0  0  0
   45.9640   30.6940   44.1480 C   0  0  0  0  0  0  0  0  0  0  0  0
   45.0410   29.7930   44.8220 N   0  0  0  0  0  0  0  0  0  0  0  0
   44.0280   29.4250   43.8420 C   0  0  0  0  0  0  0  0  0  0  0  0
   43.3470   28.1280   44.2060 C   0  0  0  0  0  0  0  0  0  0  0  0
   43.3420   27.9040   45.5790 O   0  0  0  0  0  0  0  0  0  0  0  0
   44.5880   27.8930   46.1580 C   0  0  0  0  0  0  0  0  0  0  0  0
   45.6420   28.5860   45.2980 C   0  0  0  0  0  0  0  0  0  0  0  0
   44.4318   37.1302   44.4682 H   0  0  0  0  0  0  0  0  0  0  0  0
   44.3172   36.1888   42.1391 H   0  0  0  0  0  0  0  0  0  0  0  0
   44.7933   33.6887   41.8380 H   0  0  0  0  0  0  0  0  0  0  0  0
   45.5596   32.2282   49.4019 H   0  0  0  0  0  0  0  0  0  0  0  0
   46.9370   30.6484   47.7525 H   0  0  0  0  0  0  0  0  0  0  0  0
   47.5702   30.5844   45.5078 H   0  0  0  0  0  0  0  0  0  0  0  0
   48.2653   33.0446   44.9454 H   0  0  0  0  0  0  0  0  0  0  0  0
   48.4557   31.8396   43.6269 H   0  0  0  0  0  0  0  0  0  0  0  0
   47.0485   32.9561   43.6269 H   0  0  0  0  0  0  0  0  0  0  0  0
   46.5338   30.1154   43.4060 H   0  0  0  0  0  0  0  0  0  0  0  0
   45.3577   31.4880   43.6876 H   0  0  0  0  0  0  0  0  0  0  0  0
   44.5073   29.3126   42.8583 H   0  0  0  0  0  0  0  0  0  0  0  0
   43.2667   30.2186   43.8200 H   0  0  0  0  0  0  0  0  0  0  0  0
   42.3071   28.1615   43.8488 H   0  0  0  0  0  0  0  0  0  0  0  0
   43.9070   27.3082   43.7323 H   0  0  0  0  0  0  0  0  0  0  0  0
   44.5302   28.4087   47.1279 H   0  0  0  0  0  0  0  0  0  0  0  0
   44.8917   26.8422   46.2743 H   0  0  0  0  0  0  0  0  0  0  0  0
   45.9265   27.9428   44.4522 H   0  0  0  0  0  0  0  0  0  0  0  0
   46.5550   28.7944   45.8750 H   0  0  0  0  0  0  0  0  0  0  0  0
  1  6  2  0
  2  1  1  0
  3  2  2  0
  3  4  1  0
  4  5  2  0
  5  6  1  0
  5  7  1  0
  7  8  1  0
  8  9  2  0
 10  9  1  0
 11  7  1  0
 11 10  2  0
 12 11  1  0
 13 12  1  0
 14 15  1  0
 14 12  1  0
 15 20  1  0
 16 17  1  0
 16 15  1  0
 17 18  1  0
 18 19  1  0
 20 19  1  0
  1 21  1  0
  2 22  1  0
  3 23  1  0
  9 24  1  0
 10 25  1  0
 12 26  1  1
 13 27  1  0
 13 28  1  0
 13 29  1  0
 14 30  1  0
 14 31  1  0
 16 32  1  0
 16 33  1  0
 17 34  1  0
 17 35  1  0
 19 36  1  0
 19 37  1  0
 20 38  1  0
 20 39  1  0
M  ISO  8  21  14  22  14  23  14  24  14  25  14  26   8  27   8  28   8
M  ISO  8  29   8  30   8  31   8  32  13  33  13  34  13  35  13  36  13
M  ISO  3  37  13  38  13  39  13
M  END
>  <minimizedAffinity>  (1) 
-4.08770561

>  <minimizedRMSD>  (1) 
1.20399785

$$$$
