
     RDKit          3D

 33 35  0  0  1  0  0  0  0  0999 V2000
   44.6220   36.0900   44.3170 C   0  0  0  0  0  0  0  0  0  0  0  0
   44.5480   35.5570   43.0140 C   0  0  0  0  0  0  0  0  0  0  0  0
   44.8050   34.1830   42.8560 C   0  0  0  0  0  0  0  0  0  0  0  0
   45.1070   33.4770   43.9750 N   0  0  0  0  0  0  0  0  0  0  0  0
   45.1750   33.9810   45.1920 C   0  0  0  0  0  0  0  0  0  0  0  0
   44.9300   35.2880   45.3440 N   0  0  0  0  0  0  0  0  0  0  0  0
   45.4920   33.2070   46.3290 N   0  0  0  0  0  0  0  0  0  0  0  0
   45.1360   33.3740   47.6110 N   0  0  0  0  0  0  0  0  0  0  0  0
   45.6780   32.3860   48.3390 C   0  0  0  0  0  0  0  0  0  0  0  0
   46.3940   31.5800   47.4830 C   0  0  0  0  0  0  0  0  0  0  0  0
   46.2720   32.1110   46.1980 C   0  0  0  0  0  0  0  0  0  0  0  0
   46.9510   31.4110   45.0860 C   0  0  2  0  0  0  0  0  0  0  0  0
   47.6940   32.4360   44.2530 C   0  0  0  0  0  0  0  0  0  0  0  0
   46.0060   30.6840   44.1960 C   0  0  0  0  0  0  0  0  0  0  0  0
   45.4790   29.4220   44.7970 C   0  0  0  0  0  0  0  0  0  0  0  0
   44.3200   28.9230   45.3610 C   0  0  0  0  0  0  0  0  0  0  0  0
   44.5730   27.6110   45.7110 C   0  0  0  0  0  0  0  0  0  0  0  0
   45.8570   27.3360   45.3610 N   0  0  0  0  0  0  0  0  0  0  0  0
   46.3910   28.4170   44.8180 N   0  0  0  0  0  0  0  0  0  0  0  0
   44.4278   37.1590   44.4891 H   0  0  0  0  0  0  0  0  0  0  0  0
   44.2982   36.1927   42.1517 H   0  0  0  0  0  0  0  0  0  0  0  0
   44.7630   33.7015   41.8679 H   0  0  0  0  0  0  0  0  0  0  0  0
   45.5697   32.2453   49.4246 H   0  0  0  0  0  0  0  0  0  0  0  0
   46.9605   30.6792   47.7617 H   0  0  0  0  0  0  0  0  0  0  0  0
   47.6296   30.6683   45.5310 H   0  0  0  0  0  0  0  0  0  0  0  0
   48.2083   33.1456   44.9178 H   0  0  0  0  0  0  0  0  0  0  0  0
   48.4337   31.9261   43.6183 H   0  0  0  0  0  0  0  0  0  0  0  0
   46.9793   32.9803   43.6183 H   0  0  0  0  0  0  0  0  0  0  0  0
   46.5294   30.4335   43.2615 H   0  0  0  0  0  0  0  0  0  0  0  0
   45.1451   31.3470   44.0246 H   0  0  0  0  0  0  0  0  0  0  0  0
   43.3750   29.4676   45.5040 H   0  0  0  0  0  0  0  0  0  0  0  0
   43.8649   26.9161   46.1860 H   0  0  0  0  0  0  0  0  0  0  0  0
   46.3355   26.4340   45.4964 H   0  0  0  0  0  0  0  0  0  0  0  0
  1  6  2  0
  2  1  1  0
  3  2  2  0
  3  4  1  0
  4  5  2  0
  5  6  1  0
  5  7  1  0
  7  8  1  0
  8  9  2  0
 10  9  1  0
 11  7  1  0
 11 10  2  0
 12 11  1  0
 13 12  1  0
 14 15  1  0
 14 12  1  0
 15 19  2  0
 15 16  1  0
 16 17  2  0
 18 17  1  0
 19 18  1  0
  1 20  1  0
  2 21  1  0
  3 22  1  0
  9 23  1  0
 10 24  1  0
 12 25  1  1
 13 26  1  0
 13 27  1  0
 13 28  1  0
 14 29  1  0
 14 30  1  0
 16 31  1  0
 17 32  1  0
 18 33  1  0
M  ISO  8  20  14  21  14  22  14  23  14  24  14  25   8  26   8  27   8
M  ISO  6  28   8  29   8  30   8  31  14  32  14  33   9
M  END
>  <minimizedAffinity>  (1) 
-3.95804429

>  <minimizedRMSD>  (1) 
1.14344275

$$$$
