
     RDKit          3D

 42 44  0  0  1  0  0  0  0  0999 V2000
   44.5770   35.8590   44.8400 C   0  0  0  0  0  0  0  0  0  0  0  0
   44.6100   36.1970   43.4920 C   0  0  0  0  0  0  0  0  0  0  0  0
   45.2320   35.2930   42.5950 C   0  0  0  0  0  0  0  0  0  0  0  0
   45.7470   34.1630   43.1400 N   0  0  0  0  0  0  0  0  0  0  0  0
   45.7120   33.8500   44.4170 C   0  0  0  0  0  0  0  0  0  0  0  0
   45.1220   34.7080   45.2680 N   0  0  0  0  0  0  0  0  0  0  0  0
   46.2630   32.6550   44.9390 N   0  0  0  0  0  0  0  0  0  0  0  0
   45.9230   31.9530   46.0330 N   0  0  0  0  0  0  0  0  0  0  0  0
   46.7250   30.8860   46.1260 C   0  0  0  0  0  0  0  0  0  0  0  0
   47.5910   30.9240   45.0550 C   0  0  0  0  0  0  0  0  0  0  0  0
   47.2940   32.0590   44.2950 C   0  0  0  0  0  0  0  0  0  0  0  0
   48.0860   32.3130   43.0820 C   0  0  2  0  0  0  0  0  0  0  0  0
   48.5950   33.7420   43.1220 C   0  0  0  0  0  0  0  0  0  0  0  0
   47.2880   32.1330   41.8250 C   0  0  0  0  0  0  0  0  0  0  0  0
   47.7350   30.9970   40.9550 C   0  0  0  0  0  0  0  0  0  0  0  0
   47.3600   31.0930   39.5150 C   0  0  0  0  0  0  0  0  0  0  0  0
   48.0040   32.3110   38.8490 C   0  0  0  0  0  0  0  0  0  0  0  0
   49.4740   32.0100   38.8190 C   0  0  0  0  0  0  0  0  0  0  0  0
   49.9760   31.7480   40.1970 C   0  0  0  0  0  0  0  0  0  0  0  0
   49.2230   30.7320   40.9800 C   0  0  0  0  0  0  0  0  0  0  0  0
   44.1010   36.5391   45.5617 H   0  0  0  0  0  0  0  0  0  0  0  0
   44.1669   37.1374   43.1325 H   0  0  0  0  0  0  0  0  0  0  0  0
   45.2937   35.4968   41.5158 H   0  0  0  0  0  0  0  0  0  0  0  0
   46.6979   30.1186   46.9137 H   0  0  0  0  0  0  0  0  0  0  0  0
   48.3793   30.1887   44.8360 H   0  0  0  0  0  0  0  0  0  0  0  0
   48.9106   31.5851   43.0675 H   0  0  0  0  0  0  0  0  0  0  0  0
   48.7088   34.0615   44.1684 H   0  0  0  0  0  0  0  0  0  0  0  0
   49.5687   33.7988   42.6133 H   0  0  0  0  0  0  0  0  0  0  0  0
   47.8765   34.4015   42.6133 H   0  0  0  0  0  0  0  0  0  0  0  0
   46.2397   31.9561   42.1074 H   0  0  0  0  0  0  0  0  0  0  0  0
   47.4290   33.0501   41.2342 H   0  0  0  0  0  0  0  0  0  0  0  0
   47.1804   30.1717   41.4255 H   0  0  0  0  0  0  0  0  0  0  0  0
   47.6956   30.1827   38.9966 H   0  0  0  0  0  0  0  0  0  0  0  0
   46.2672   31.2003   39.4488 H   0  0  0  0  0  0  0  0  0  0  0  0
   47.6161   32.4428   37.8281 H   0  0  0  0  0  0  0  0  0  0  0  0
   47.7853   33.2415   39.3934 H   0  0  0  0  0  0  0  0  0  0  0  0
   49.6500   31.1223   38.1937 H   0  0  0  0  0  0  0  0  0  0  0  0
   50.0084   32.8764   38.4020 H   0  0  0  0  0  0  0  0  0  0  0  0
   51.0187   31.4069   40.1168 H   0  0  0  0  0  0  0  0  0  0  0  0
   49.8547   32.6950   40.7433 H   0  0  0  0  0  0  0  0  0  0  0  0
   49.5718   30.7554   42.0230 H   0  0  0  0  0  0  0  0  0  0  0  0
   49.4034   29.7464   40.5260 H   0  0  0  0  0  0  0  0  0  0  0  0
  1  6  2  0
  2  1  1  0
  3  4  1  0
  3  2  2  0
  4  5  2  0
  5  7  1  0
  5  6  1  0
  7  8  1  0
  8  9  2  0
 10  9  1  0
 11  7  1  0
 11 10  2  0
 12 13  1  0
 12 11  1  0
 14 12  1  0
 15 20  1  0
 15 14  1  0
 16 15  1  0
 17 16  1  0
 18 17  1  0
 18 19  1  0
 19 20  1  0
  1 21  1  0
  2 22  1  0
  3 23  1  0
  9 24  1  0
 10 25  1  0
 12 26  1  6
 13 27  1  0
 13 28  1  0
 13 29  1  0
 14 30  1  0
 14 31  1  0
 15 32  1  0
 16 33  1  0
 16 34  1  0
 17 35  1  0
 17 36  1  0
 18 37  1  0
 18 38  1  0
 19 39  1  0
 19 40  1  0
 20 41  1  0
 20 42  1  0
M  ISO  8  21  14  22  14  23  14  24  14  25  14  26   8  27   8  28   8
M  ISO  8  29   8  30   8  31   8  32  13  33  13  34  13  35  13  36  13
M  ISO  6  37  13  38  13  39  13  40  13  41  13  42  13
M  END
>  <minimizedAffinity>  (1) 
-4.10017014

>  <minimizedRMSD>  (1) 
3.77885342

$$$$
