
     RDKit          3D

 28 29  0  0  1  0  0  0  0  0999 V2000
   44.6110   36.1420   44.1310 C   0  0  0  0  0  0  0  0  0  0  0  0
   44.4560   35.6870   42.8100 C   0  0  0  0  0  0  0  0  0  0  0  0
   44.7210   34.3180   42.5530 C   0  0  0  0  0  0  0  0  0  0  0  0
   45.1020   33.5620   43.6070 N   0  0  0  0  0  0  0  0  0  0  0  0
   45.2450   33.9980   44.8450 C   0  0  0  0  0  0  0  0  0  0  0  0
   44.9960   35.2960   45.0970 N   0  0  0  0  0  0  0  0  0  0  0  0
   45.6460   33.1670   45.9150 N   0  0  0  0  0  0  0  0  0  0  0  0
   45.3680   33.2600   47.2250 N   0  0  0  0  0  0  0  0  0  0  0  0
   45.9610   32.2340   47.8610 C   0  0  0  0  0  0  0  0  0  0  0  0
   46.6260   31.4840   46.9140 C   0  0  0  0  0  0  0  0  0  0  0  0
   46.4180   32.0880   45.6730 C   0  0  0  0  0  0  0  0  0  0  0  0
   47.0320   31.4510   44.4900 C   0  0  2  0  0  0  0  0  0  0  0  0
   47.8470   32.5020   43.7560 C   0  0  0  0  0  0  0  0  0  0  0  0
   46.0120   30.9140   43.5340 C   0  0  0  0  0  0  0  0  0  0  0  0
   44.8200   30.4130   44.1930 N   0  0  0  0  0  0  0  0  0  0  0  0
   44.4155   37.1971   44.3731 H   0  0  0  0  0  0  0  0  0  0  0  0
   44.1408   36.3678   42.0055 H   0  0  0  0  0  0  0  0  0  0  0  0
   44.6213   33.8914   41.5440 H   0  0  0  0  0  0  0  0  0  0  0  0
   45.9225   32.0300   48.9412 H   0  0  0  0  0  0  0  0  0  0  0  0
   47.2143   30.5739   47.1026 H   0  0  0  0  0  0  0  0  0  0  0  0
   47.6479   30.6106   44.8426 H   0  0  0  0  0  0  0  0  0  0  0  0
   48.3508   33.1517   44.4868 H   0  0  0  0  0  0  0  0  0  0  0  0
   48.5999   32.0073   43.1248 H   0  0  0  0  0  0  0  0  0  0  0  0
   47.1804   33.1081   43.1248 H   0  0  0  0  0  0  0  0  0  0  0  0
   46.4672   30.0919   42.9622 H   0  0  0  0  0  0  0  0  0  0  0  0
   45.7018   31.7461   42.8848 H   0  0  0  0  0  0  0  0  0  0  0  0
   44.9445   30.4653   45.2141 H   0  0  0  0  0  0  0  0  0  0  0  0
   44.0089   30.9843   43.9163 H   0  0  0  0  0  0  0  0  0  0  0  0
  1  6  2  0
  2  1  1  0
  3  2  2  0
  3  4  1  0
  4  5  2  0
  5  6  1  0
  5  7  1  0
  7  8  1  0
  8  9  2  0
 10  9  1  0
 11  7  1  0
 11 10  2  0
 12 11  1  0
 13 12  1  0
 14 15  1  0
 14 12  1  0
  1 16  1  0
  2 17  1  0
  3 18  1  0
  9 19  1  0
 10 20  1  0
 12 21  1  1
 13 22  1  0
 13 23  1  0
 13 24  1  0
 14 25  1  0
 14 26  1  0
 15 27  1  0
 15 28  1  0
M  ISO  8  16  14  17  14  18  14  19  14  20  14  21   8  22   8  23   8
M  ISO  5  24   8  25   8  26   8  27   5  28   5
M  END
>  <minimizedAffinity>  (1) 
-3.90712452

>  <minimizedRMSD>  (1) 
0.560398877

$$$$
