
     RDKit          3D

 41 43  0  0  1  0  0  0  0  0999 V2000
   44.4920   35.9580   44.4690 C   0  0  0  0  0  0  0  0  0  0  0  0
   44.3320   35.6000   43.1360 C   0  0  0  0  0  0  0  0  0  0  0  0
   44.6960   34.2870   42.7690 C   0  0  0  0  0  0  0  0  0  0  0  0
   45.1730   33.4820   43.7540 N   0  0  0  0  0  0  0  0  0  0  0  0
   45.3190   33.8380   45.0150 C   0  0  0  0  0  0  0  0  0  0  0  0
   44.9760   35.0880   45.3820 N   0  0  0  0  0  0  0  0  0  0  0  0
   45.8200   32.9580   46.0110 N   0  0  0  0  0  0  0  0  0  0  0  0
   45.5760   32.9400   47.3330 N   0  0  0  0  0  0  0  0  0  0  0  0
   46.2730   31.9300   47.8690 C   0  0  0  0  0  0  0  0  0  0  0  0
   46.9640   31.3090   46.8610 C   0  0  0  0  0  0  0  0  0  0  0  0
   46.6680   31.9740   45.6670 C   0  0  0  0  0  0  0  0  0  0  0  0
   47.2870   31.4720   44.4290 C   0  0  2  0  0  0  0  0  0  0  0  0
   47.9060   32.6650   43.6940 C   0  0  0  0  0  0  0  0  0  0  0  0
   46.3120   30.8460   43.4900 C   0  0  0  0  0  0  0  0  0  0  0  0
   45.2770   30.0280   44.0780 N   0  0  0  0  0  0  0  0  0  0  0  0
   45.5940   28.6690   44.3030 C   0  0  0  0  0  0  0  0  0  0  0  0
   44.4390   27.7210   44.0860 C   0  0  0  0  0  0  0  0  0  0  0  0
   43.9500   27.7160   42.6620 C   0  0  0  0  0  0  0  0  0  0  0  0
   44.3200   29.0410   42.0280 C   0  0  0  0  0  0  0  0  0  0  0  0
   44.1690   30.0750   43.1120 C   0  0  0  0  0  0  0  0  0  0  0  0
   44.2180   36.9743   44.7885 H   0  0  0  0  0  0  0  0  0  0  0  0
   43.9372   36.3119   42.3962 H   0  0  0  0  0  0  0  0  0  0  0  0
   44.5980   33.9315   41.7327 H   0  0  0  0  0  0  0  0  0  0  0  0
   46.2884   31.6480   48.9321 H   0  0  0  0  0  0  0  0  0  0  0  0
   47.6321   30.4422   46.9716 H   0  0  0  0  0  0  0  0  0  0  0  0
   48.0200   30.7063   44.7228 H   0  0  0  0  0  0  0  0  0  0  0  0
   48.2833   33.3922   44.4280 H   0  0  0  0  0  0  0  0  0  0  0  0
   48.7368   32.3161   43.0631 H   0  0  0  0  0  0  0  0  0  0  0  0
   47.1424   33.1434   43.0631 H   0  0  0  0  0  0  0  0  0  0  0  0
   46.8805   30.2134   42.7924 H   0  0  0  0  0  0  0  0  0  0  0  0
   45.7824   31.6880   43.0203 H   0  0  0  0  0  0  0  0  0  0  0  0
   46.4063   28.3860   43.6174 H   0  0  0  0  0  0  0  0  0  0  0  0
   45.8805   28.5818   45.3614 H   0  0  0  0  0  0  0  0  0  0  0  0
   44.7644   26.7039   44.3497 H   0  0  0  0  0  0  0  0  0  0  0  0
   43.6075   28.0601   44.7213 H   0  0  0  0  0  0  0  0  0  0  0  0
   44.4254   26.8930   42.1083 H   0  0  0  0  0  0  0  0  0  0  0  0
   42.8594   27.5746   42.6360 H   0  0  0  0  0  0  0  0  0  0  0  0
   45.3585   29.0151   41.6662 H   0  0  0  0  0  0  0  0  0  0  0  0
   43.6794   29.2671   41.1629 H   0  0  0  0  0  0  0  0  0  0  0  0
   44.1433   31.0728   42.6496 H   0  0  0  0  0  0  0  0  0  0  0  0
   43.2362   29.8634   43.6552 H   0  0  0  0  0  0  0  0  0  0  0  0
  1  6  2  0
  2  1  1  0
  3  2  2  0
  3  4  1  0
  4  5  2  0
  5  6  1  0
  5  7  1  0
  7  8  1  0
  8  9  2  0
 10  9  1  0
 11  7  1  0
 11 10  2  0
 12 11  1  0
 13 12  1  0
 14 15  1  0
 14 12  1  0
 15 16  1  0
 17 16  1  0
 18 17  1  0
 19 18  1  0
 19 20  1  0
 20 15  1  0
  1 21  1  0
  2 22  1  0
  3 23  1  0
  9 24  1  0
 10 25  1  0
 12 26  1  1
 13 27  1  0
 13 28  1  0
 13 29  1  0
 14 30  1  0
 14 31  1  0
 16 32  1  0
 16 33  1  0
 17 34  1  0
 17 35  1  0
 18 36  1  0
 18 37  1  0
 19 38  1  0
 19 39  1  0
 20 40  1  0
 20 41  1  0
M  ISO  8  21  14  22  14  23  14  24  14  25  14  26   8  27   8  28   8
M  ISO  8  29   8  30   8  31   8  32  13  33  13  34  13  35  13  36  13
M  ISO  5  37  13  38  13  39  13  40  13  41  13
M  END
>  <minimizedAffinity>  (1) 
-3.89408922

>  <minimizedRMSD>  (1) 
0.749321342

$$$$
