
     RDKit          3D

 34 36  0  0  1  0  0  0  0  0999 V2000
   44.6590   36.0540   44.2770 C   0  0  0  0  0  0  0  0  0  0  0  0
   44.5770   35.5270   42.9940 C   0  0  0  0  0  0  0  0  0  0  0  0
   44.8090   34.1480   42.8450 C   0  0  0  0  0  0  0  0  0  0  0  0
   45.0940   33.4470   43.9670 N   0  0  0  0  0  0  0  0  0  0  0  0
   45.1700   33.9560   45.1820 C   0  0  0  0  0  0  0  0  0  0  0  0
   44.9500   35.2760   45.3400 N   0  0  0  0  0  0  0  0  0  0  0  0
   45.4730   33.1890   46.3330 N   0  0  0  0  0  0  0  0  0  0  0  0
   45.1370   33.3720   47.6130 N   0  0  0  0  0  0  0  0  0  0  0  0
   45.6570   32.3800   48.3470 C   0  0  0  0  0  0  0  0  0  0  0  0
   46.3440   31.5480   47.4920 C   0  0  0  0  0  0  0  0  0  0  0  0
   46.2260   32.0660   46.2000 C   0  0  0  0  0  0  0  0  0  0  0  0
   46.8770   31.3380   45.0950 C   0  0  2  0  0  0  0  0  0  0  0  0
   47.6610   32.3280   44.2580 C   0  0  0  0  0  0  0  0  0  0  0  0
   45.9000   30.6360   44.2150 C   0  0  0  0  0  0  0  0  0  0  0  0
   45.3820   29.3670   44.7910 C   0  0  0  0  0  0  0  0  0  0  0  0
   44.0870   28.9040   44.9520 C   0  0  0  0  0  0  0  0  0  0  0  0
   43.8860   27.6670   45.5280 C   0  0  0  0  0  0  0  0  0  0  0  0
   44.9160   26.9120   45.9320 N   0  0  0  0  0  0  0  0  0  0  0  0
   46.1680   27.3700   45.7730 C   0  0  0  0  0  0  0  0  0  0  0  0
   46.4230   28.5870   45.2080 N   0  0  0  0  0  0  0  0  0  0  0  0
   44.4828   37.1291   44.4293 H   0  0  0  0  0  0  0  0  0  0  0  0
   44.3399   36.1635   42.1287 H   0  0  0  0  0  0  0  0  0  0  0  0
   44.7609   33.6607   41.8600 H   0  0  0  0  0  0  0  0  0  0  0  0
   45.5540   32.2531   49.4348 H   0  0  0  0  0  0  0  0  0  0  0  0
   46.8896   30.6361   47.7761 H   0  0  0  0  0  0  0  0  0  0  0  0
   47.5317   30.5740   45.5397 H   0  0  0  0  0  0  0  0  0  0  0  0
   48.2064   33.0168   44.9199 H   0  0  0  0  0  0  0  0  0  0  0  0
   48.3770   31.7854   43.6232 H   0  0  0  0  0  0  0  0  0  0  0  0
   46.9688   32.9006   43.6232 H   0  0  0  0  0  0  0  0  0  0  0  0
   46.3949   30.4073   43.2596 H   0  0  0  0  0  0  0  0  0  0  0  0
   45.0382   31.3082   44.0906 H   0  0  0  0  0  0  0  0  0  0  0  0
   43.2315   29.5135   44.6255 H   0  0  0  0  0  0  0  0  0  0  0  0
   42.8597   27.2931   45.6582 H   0  0  0  0  0  0  0  0  0  0  0  0
   47.0116   26.7480   46.1069 H   0  0  0  0  0  0  0  0  0  0  0  0
  1  6  2  0
  2  1  1  0
  3  2  2  0
  3  4  1  0
  4  5  2  0
  5  6  1  0
  5  7  1  0
  7  8  1  0
  8  9  2  0
 10  9  1  0
 11  7  1  0
 11 10  2  0
 12 11  1  0
 13 12  1  0
 14 15  1  0
 14 12  1  0
 15 16  2  0
 15 20  1  0
 16 17  1  0
 17 18  2  0
 19 18  1  0
 20 19  2  0
  1 21  1  0
  2 22  1  0
  3 23  1  0
  9 24  1  0
 10 25  1  0
 12 26  1  1
 13 27  1  0
 13 28  1  0
 13 29  1  0
 14 30  1  0
 14 31  1  0
 16 32  1  0
 17 33  1  0
 19 34  1  0
M  ISO  8  21  14  22  14  23  14  24  14  25  14  26   8  27   8  28   8
M  ISO  6  29   8  30   8  31   8  32  14  33  14  34  14
M  END
>  <minimizedAffinity>  (1) 
-4.03367615

>  <minimizedRMSD>  (1) 
1.33913553

$$$$
