
     RDKit          3D

 45 49  0  0  1  0  0  0  0  0999 V2000
   44.7840   33.6800   40.9790 N   0  0  0  0  0  0  0  0  0  0  0  0
   43.5720   34.4130   40.5980 C   0  0  0  0  0  0  0  0  0  0  0  0
   42.4220   34.0770   41.5010 C   0  0  0  0  0  0  0  0  0  0  0  0
   42.2260   32.6400   41.4950 N   0  0  0  0  0  0  0  0  0  0  0  0
   43.3720   32.0900   42.2090 C   0  0  0  0  0  0  0  0  0  0  0  0
   44.6640   32.3310   41.4550 C   0  0  1  0  0  0  0  0  0  0  0  0
   46.6370   34.7890   42.0430 C   0  0  0  0  0  0  0  0  0  0  0  0
   47.9310   35.2600   41.9710 C   0  0  0  0  0  0  0  0  0  0  0  0
   48.7070   35.1280   40.8130 C   0  0  0  0  0  0  0  0  0  0  0  0
   48.1510   34.4980   39.6930 C   0  0  0  0  0  0  0  0  0  0  0  0
   46.8660   34.0330   39.7750 C   0  0  0  0  0  0  0  0  0  0  0  0
   46.1420   34.1830   40.9270 C   0  0  0  0  0  0  0  0  0  0  0  0
   44.4580   36.1310   44.8080 C   0  0  0  0  0  0  0  0  0  0  0  0
   45.0950   36.0590   43.5590 C   0  0  0  0  0  0  0  0  0  0  0  0
   45.9250   34.9770   43.2860 C   0  0  0  0  0  0  0  0  0  0  0  0
   46.0940   34.0130   44.2480 N   0  0  0  0  0  0  0  0  0  0  0  0
   45.4460   34.1370   45.4470 C   0  0  0  0  0  0  0  0  0  0  0  0
   44.6400   35.1830   45.7200 N   0  0  0  0  0  0  0  0  0  0  0  0
   44.7660   31.3440   40.3940 N   0  0  0  0  0  0  0  0  0  0  0  0
   45.6310   30.3140   40.3580 C   0  0  0  0  0  0  0  0  0  0  0  0
   45.4820   29.5650   39.2330 N   0  0  0  0  0  0  0  0  0  0  0  0
   44.4920   30.1460   38.5430 C   0  0  0  0  0  0  0  0  0  0  0  0
   43.9160   29.8070   37.3140 C   0  0  0  0  0  0  0  0  0  0  0  0
   42.9210   30.6030   36.8800 N   0  0  0  0  0  0  0  0  0  0  0  0
   42.4780   31.6790   37.5680 C   0  0  0  0  0  0  0  0  0  0  0  0
   43.0310   32.0190   38.7640 N   0  0  0  0  0  0  0  0  0  0  0  0
   44.0300   31.2600   39.2510 C   0  0  0  0  0  0  0  0  0  0  0  0
   43.7724   35.4928   40.6605 H   0  0  0  0  0  0  0  0  0  0  0  0
   43.3016   34.1247   39.5715 H   0  0  0  0  0  0  0  0  0  0  0  0
   42.6442   34.4153   42.5238 H   0  0  0  0  0  0  0  0  0  0  0  0
   41.5100   34.5796   41.1467 H   0  0  0  0  0  0  0  0  0  0  0  0
   41.3494   32.3938   41.9765 H   0  0  0  0  0  0  0  0  0  0  0  0
   43.4404   32.5681   43.1973 H   0  0  0  0  0  0  0  0  0  0  0  0
   43.2279   31.0040   42.3084 H   0  0  0  0  0  0  0  0  0  0  0  0
   45.5144   32.2078   42.1417 H   0  0  0  0  0  0  0  0  0  0  0  0
   48.3674   35.7550   42.8511 H   0  0  0  0  0  0  0  0  0  0  0  0
   49.7370   35.5131   40.7836 H   0  0  0  0  0  0  0  0  0  0  0  0
   48.7338   34.3793   38.7677 H   0  0  0  0  0  0  0  0  0  0  0  0
   46.4109   33.5340   38.9067 H   0  0  0  0  0  0  0  0  0  0  0  0
   43.8001   36.9831   45.0340 H   0  0  0  0  0  0  0  0  0  0  0  0
   44.9399   36.8469   42.8073 H   0  0  0  0  0  0  0  0  0  0  0  0
   45.5870   33.3591   46.2119 H   0  0  0  0  0  0  0  0  0  0  0  0
   46.3704   30.1031   41.1447 H   0  0  0  0  0  0  0  0  0  0  0  0
   44.2577   28.9372   36.7338 H   0  0  0  0  0  0  0  0  0  0  0  0
   41.6598   32.2877   37.1557 H   0  0  0  0  0  0  0  0  0  0  0  0
  1  6  1  0
  2  1  1  0
  2  3  1  0
  4  3  1  0
  4  5  1  0
  6  5  1  0
  7 15  1  0
  8  7  2  0
  9  8  1  0
 10 11  1  0
 10  9  2  0
 11 12  2  0
 12  1  1  0
 12  7  1  0
 13 18  2  0
 14 13  1  0
 15 14  2  0
 15 16  1  0
 16 17  2  0
 17 18  1  0
 19  6  1  0
 20 19  1  0
 21 20  2  0
 22 21  1  0
 22 27  2  0
 23 22  1  0
 24 23  2  0
 24 25  1  0
 25 26  2  0
 26 27  1  0
 27 19  1  0
  2 28  1  0
  2 29  1  0
  3 30  1  0
  3 31  1  0
  4 32  1  0
  5 33  1  0
  5 34  1  0
  6 35  1  1
  8 36  1  0
  9 37  1  0
 10 38  1  0
 11 39  1  0
 13 40  1  0
 14 41  1  0
 17 42  1  0
 20 43  1  0
 23 44  1  0
 25 45  1  0
M  ISO  8  28  13  29  13  30  13  31  13  32   5  33  13  34  13  35  13
M  ISO  8  36  14  37  14  38  14  39  14  40  14  41  14  42  14  43  14
M  ISO  2  44  14  45  14
M  END
>  <minimizedAffinity>  (1) 
-6.01051664

>  <minimizedRMSD>  (1) 
0.580812752

$$$$
