
     RDKit          3D

 41 44  0  0  1  0  0  0  0  0999 V2000
   46.8910   31.2590   45.1060 C   0  0  2  0  0  0  0  0  0  0  0  0
   44.7110   35.9760   44.2150 C   0  0  0  0  0  0  0  0  0  0  0  0
   44.5970   35.4090   42.9540 C   0  0  0  0  0  0  0  0  0  0  0  0
   44.8000   34.0090   42.8510 C   0  0  0  0  0  0  0  0  0  0  0  0
   45.0840   33.3840   44.0150 N   0  0  0  0  0  0  0  0  0  0  0  0
   45.1990   33.8830   45.1960 C   0  0  0  0  0  0  0  0  0  0  0  0
   45.0060   35.2150   45.2950 N   0  0  0  0  0  0  0  0  0  0  0  0
   45.4970   33.1250   46.3330 N   0  0  0  0  0  0  0  0  0  0  0  0
   45.1390   33.3500   47.6160 N   0  0  0  0  0  0  0  0  0  0  0  0
   45.6500   32.3600   48.3640 C   0  0  0  0  0  0  0  0  0  0  0  0
   46.3340   31.5150   47.5370 C   0  0  0  0  0  0  0  0  0  0  0  0
   46.2440   31.9940   46.2220 C   0  0  0  0  0  0  0  0  0  0  0  0
   47.5980   32.2480   44.2210 C   0  0  0  0  0  0  0  0  0  0  0  0
   45.9220   30.4820   44.3060 C   0  0  0  0  0  0  0  0  0  0  0  0
   45.7240   28.7440   44.8300 S   0  0  0  0  0  0  0  0  0  0  0  0
   43.9560   28.3190   44.9460 C   0  0  0  0  0  0  0  0  0  0  0  0
   43.1460   28.9870   44.0190 C   0  0  0  0  0  0  0  0  0  0  0  0
   41.9040   28.4560   44.2310 N   0  0  0  0  0  0  0  0  0  0  0  0
   41.9760   27.5340   45.2190 C   0  0  0  0  0  0  0  0  0  0  0  0
   41.0210   26.6890   45.8160 C   0  0  0  0  0  0  0  0  0  0  0  0
   41.4580   25.8190   46.8300 C   0  0  0  0  0  0  0  0  0  0  0  0
   42.7770   25.7750   47.2530 C   0  0  0  0  0  0  0  0  0  0  0  0
   43.7210   26.5830   46.6890 C   0  0  0  0  0  0  0  0  0  0  0  0
   43.2650   27.4140   45.7050 C   0  0  0  0  0  0  0  0  0  0  0  0
   47.6029   30.5410   45.5394 H   0  0  0  0  0  0  0  0  0  0  0  0
   44.5597   37.0585   44.3389 H   0  0  0  0  0  0  0  0  0  0  0  0
   44.3590   36.0198   42.0707 H   0  0  0  0  0  0  0  0  0  0  0  0
   44.7313   33.4714   41.8938 H   0  0  0  0  0  0  0  0  0  0  0  0
   45.5377   32.2485   49.4526 H   0  0  0  0  0  0  0  0  0  0  0  0
   46.8685   30.6065   47.8514 H   0  0  0  0  0  0  0  0  0  0  0  0
   48.1254   32.9857   44.8437 H   0  0  0  0  0  0  0  0  0  0  0  0
   48.3236   31.7186   43.5860 H   0  0  0  0  0  0  0  0  0  0  0  0
   46.8623   32.7632   43.5860 H   0  0  0  0  0  0  0  0  0  0  0  0
   46.2584   30.4884   43.2587 H   0  0  0  0  0  0  0  0  0  0  0  0
   44.9433   30.9638   44.4478 H   0  0  0  0  0  0  0  0  0  0  0  0
   43.4400   29.7578   43.2913 H   0  0  0  0  0  0  0  0  0  0  0  0
   41.0488   28.7165   43.7196 H   0  0  0  0  0  0  0  0  0  0  0  0
   39.9677   26.7090   45.4994 H   0  0  0  0  0  0  0  0  0  0  0  0
   40.7264   25.1488   47.3050 H   0  0  0  0  0  0  0  0  0  0  0  0
   43.0669   25.0793   48.0542 H   0  0  0  0  0  0  0  0  0  0  0  0
   44.7747   26.5665   47.0043 H   0  0  0  0  0  0  0  0  0  0  0  0
  1 12  1  0
  2  7  2  0
  3  2  1  0
  4  3  2  0
  4  5  1  0
  5  6  2  0
  6  7  1  0
  6  8  1  0
  8  9  1  0
  9 10  2  0
 11 10  1  0
 12  8  1  0
 12 11  2  0
 13  1  1  0
 14 15  1  0
 14  1  1  0
 15 16  1  0
 16 24  1  0
 17 18  1  0
 17 16  2  0
 18 19  1  0
 19 24  2  0
 19 20  1  0
 20 21  2  0
 21 22  1  0
 23 22  2  0
 24 23  1  0
  1 25  1  1
  2 26  1  0
  3 27  1  0
  4 28  1  0
 10 29  1  0
 11 30  1  0
 13 31  1  0
 13 32  1  0
 13 33  1  0
 14 34  1  0
 14 35  1  0
 17 36  1  0
 18 37  1  0
 20 38  1  0
 21 39  1  0
 22 40  1  0
 23 41  1  0
M  ISO  8  25   8  26  14  27  14  28  14  29  14  30  14  31   8  32   8
M  ISO  8  33   8  34   8  35   8  36  14  37   9  38  14  39  14  40  14
M  ISO  1  41  14
M  END
>  <minimizedAffinity>  (1) 
-5.22763252

>  <minimizedRMSD>  (1) 
3.18108559

$$$$
