
     RDKit          3D

 27 28  0  0  1  0  0  0  0  0999 V2000
   44.4430   36.0030   44.4550 C   0  0  0  0  0  0  0  0  0  0  0  0
   44.2730   35.6980   43.0970 C   0  0  0  0  0  0  0  0  0  0  0  0
   44.6850   34.4110   42.6530 C   0  0  0  0  0  0  0  0  0  0  0  0
   45.2080   33.5920   43.5920 N   0  0  0  0  0  0  0  0  0  0  0  0
   45.3650   33.8840   44.8670 C   0  0  0  0  0  0  0  0  0  0  0  0
   44.9780   35.1010   45.2920 N   0  0  0  0  0  0  0  0  0  0  0  0
   45.9190   32.9840   45.8040 N   0  0  0  0  0  0  0  0  0  0  0  0
   45.7100   32.8740   47.1250 N   0  0  0  0  0  0  0  0  0  0  0  0
   46.4600   31.8610   47.5950 C   0  0  0  0  0  0  0  0  0  0  0  0
   47.1580   31.3260   46.5310 C   0  0  0  0  0  0  0  0  0  0  0  0
   46.8080   32.0490   45.3870 C   0  0  0  0  0  0  0  0  0  0  0  0
   47.4230   31.6520   44.1030 C   0  0  2  0  0  0  0  0  0  0  0  0
   48.0870   32.8690   43.4920 C   0  0  0  0  0  0  0  0  0  0  0  0
   46.4160   31.1320   43.1320 C   0  0  0  0  0  0  0  0  0  0  0  0
   45.3960   29.7980   43.8410 S   0  0  0  0  0  0  0  0  0  0  0  0
   44.1358   36.9879   44.8366 H   0  0  0  0  0  0  0  0  0  0  0  0
   43.8365   36.4282   42.3997 H   0  0  0  0  0  0  0  0  0  0  0  0
   44.5835   34.0995   41.6029 H   0  0  0  0  0  0  0  0  0  0  0  0
   46.5084   31.5201   48.6397 H   0  0  0  0  0  0  0  0  0  0  0  0
   47.8628   30.4826   46.5754 H   0  0  0  0  0  0  0  0  0  0  0  0
   48.1468   30.8496   44.3084 H   0  0  0  0  0  0  0  0  0  0  0  0
   48.4480   33.5307   44.2931 H   0  0  0  0  0  0  0  0  0  0  0  0
   48.9360   32.5498   42.8696 H   0  0  0  0  0  0  0  0  0  0  0  0
   47.3591   33.4101   42.8696 H   0  0  0  0  0  0  0  0  0  0  0  0
   46.9441   30.7424   42.2492 H   0  0  0  0  0  0  0  0  0  0  0  0
   45.7458   31.9624   42.8651 H   0  0  0  0  0  0  0  0  0  0  0  0
   45.4456   29.8629   45.2086 H   0  0  0  0  0  0  0  0  0  0  0  0
  1  6  2  0
  2  1  1  0
  3  2  2  0
  3  4  1  0
  4  5  2  0
  5  6  1  0
  5  7  1  0
  7  8  1  0
  8  9  2  0
 10  9  1  0
 11  7  1  0
 11 10  2  0
 12 11  1  0
 13 12  1  0
 14 15  1  0
 14 12  1  0
  1 16  1  0
  2 17  1  0
  3 18  1  0
  9 19  1  0
 10 20  1  0
 12 21  1  1
 13 22  1  0
 13 23  1  0
 13 24  1  0
 14 25  1  0
 14 26  1  0
 15 27  1  0
M  ISO  8  16  14  17  14  18  14  19  14  20  14  21   8  22   8  23   8
M  ISO  4  24   8  25   8  26   8  27  11
M  END
>  <minimizedAffinity>  (1) 
-3.82851386

>  <minimizedRMSD>  (1) 
0.122033738

$$$$
