
     RDKit          3D

 32 34  0  0  1  0  0  0  0  0999 V2000
   44.9650   35.0650   45.2830 C   0  0  0  0  0  0  0  0  0  0  0  0
   44.6510   36.0090   44.3100 C   0  0  0  0  0  0  0  0  0  0  0  0
   45.2490   35.8530   43.0370 C   0  0  0  0  0  0  0  0  0  0  0  0
   46.0740   34.7840   42.9120 N   0  0  0  0  0  0  0  0  0  0  0  0
   46.3710   33.9030   43.8100 C   0  0  0  0  0  0  0  0  0  0  0  0
   45.8010   34.0530   45.0200 N   0  0  0  0  0  0  0  0  0  0  0  0
   47.2380   32.8300   43.5800 N   0  0  0  0  0  0  0  0  0  0  0  0
   47.2420   31.6070   44.1440 N   0  0  0  0  0  0  0  0  0  0  0  0
   48.2580   30.9030   43.6090 C   0  0  0  0  0  0  0  0  0  0  0  0
   48.8860   31.7050   42.7060 C   0  0  0  0  0  0  0  0  0  0  0  0
   48.2490   32.9390   42.6750 C   0  0  0  0  0  0  0  0  0  0  0  0
   48.7060   34.0250   41.7710 C   0  0  2  0  0  0  0  0  0  0  0  0
   49.1630   35.1970   42.5940 C   0  0  0  0  0  0  0  0  0  0  0  0
   47.7010   34.4350   40.7760 C   0  0  0  0  0  0  0  0  0  0  0  0
   47.1450   33.0890   39.6980 S   0  0  0  0  0  0  0  0  0  0  0  0
   45.4970   33.2320   39.1140 C   0  0  0  0  0  0  0  0  0  0  0  0
   44.6680   33.0490   38.0680 N   0  0  0  0  0  0  0  0  0  0  0  0
   43.4430   33.4270   38.3810 O   0  0  0  0  0  0  0  0  0  0  0  0
   43.4160   33.8650   39.6200 C   0  0  0  0  0  0  0  0  0  0  0  0
   44.6830   33.7410   40.0630 N   0  0  0  0  0  0  0  0  0  0  0  0
   44.5189   35.1518   46.2847 H   0  0  0  0  0  0  0  0  0  0  0  0
   43.9656   36.8429   44.5219 H   0  0  0  0  0  0  0  0  0  0  0  0
   45.0581   36.5497   42.2074 H   0  0  0  0  0  0  0  0  0  0  0  0
   48.5311   29.8667   43.8571 H   0  0  0  0  0  0  0  0  0  0  0  0
   49.7580   31.4214   42.0984 H   0  0  0  0  0  0  0  0  0  0  0  0
   49.5455   33.6252   41.1833 H   0  0  0  0  0  0  0  0  0  0  0  0
   49.0682   34.9539   43.6626 H   0  0  0  0  0  0  0  0  0  0  0  0
   50.2144   35.4211   42.3608 H   0  0  0  0  0  0  0  0  0  0  0  0
   48.5408   36.0737   42.3608 H   0  0  0  0  0  0  0  0  0  0  0  0
   46.8266   34.8342   41.3109 H   0  0  0  0  0  0  0  0  0  0  0  0
   48.1790   35.1857   40.1295 H   0  0  0  0  0  0  0  0  0  0  0  0
   42.5476   34.2494   40.1751 H   0  0  0  0  0  0  0  0  0  0  0  0
  2  1  2  0
  3  2  1  0
  4  3  2  0
  4  5  1  0
  5  6  2  0
  6  1  1  0
  7  5  1  0
  7  8  1  0
  9  8  2  0
 10  9  1  0
 11 10  2  0
 11  7  1  0
 12 13  1  0
 12 11  1  0
 14 12  1  0
 15 14  1  0
 16 15  1  0
 16 20  1  0
 17 18  1  0
 17 16  2  0
 18 19  1  0
 19 20  2  0
  1 21  1  0
  2 22  1  0
  3 23  1  0
  9 24  1  0
 10 25  1  0
 12 26  1  6
 13 27  1  0
 13 28  1  0
 13 29  1  0
 14 30  1  0
 14 31  1  0
 19 32  1  0
M  ISO  8  21  14  22  14  23  14  24  14  25  14  26   8  27   8  28   8
M  ISO  4  29   8  30   8  31   8  32  14
M  END
>  <minimizedAffinity>  (1) 
-4.47605515

>  <minimizedRMSD>  (1) 
3.96452188

$$$$
