
     RDKit          3D

 34 36  0  0  1  0  0  0  0  0999 V2000
   44.4690   36.0360   44.4700 C   0  0  0  0  0  0  0  0  0  0  0  0
   44.2770   35.7630   43.1180 C   0  0  0  0  0  0  0  0  0  0  0  0
   44.6530   34.4780   42.6450 C   0  0  0  0  0  0  0  0  0  0  0  0
   45.1660   33.6560   43.5880 N   0  0  0  0  0  0  0  0  0  0  0  0
   45.3540   33.8830   44.8430 C   0  0  0  0  0  0  0  0  0  0  0  0
   44.9950   35.1010   45.2810 N   0  0  0  0  0  0  0  0  0  0  0  0
   45.8990   32.9470   45.7400 N   0  0  0  0  0  0  0  0  0  0  0  0
   45.6840   32.8090   47.0530 N   0  0  0  0  0  0  0  0  0  0  0  0
   46.4130   31.7840   47.4970 C   0  0  0  0  0  0  0  0  0  0  0  0
   47.0970   31.2750   46.4360 C   0  0  0  0  0  0  0  0  0  0  0  0
   46.7780   32.0150   45.2830 C   0  0  0  0  0  0  0  0  0  0  0  0
   47.3610   31.6900   43.9660 C   0  0  2  0  0  0  0  0  0  0  0  0
   48.1050   32.8870   43.4510 C   0  0  0  0  0  0  0  0  0  0  0  0
   46.3900   31.2150   42.9910 C   0  0  0  0  0  0  0  0  0  0  0  0
   45.2180   29.9680   43.6520 S   0  0  0  0  0  0  0  0  0  0  0  0
   43.6010   30.1340   43.0220 C   0  0  0  0  0  0  0  0  0  0  0  0
   42.6230   29.2230   42.6200 C   0  0  0  0  0  0  0  0  0  0  0  0
   41.5330   29.8460   42.2070 N   0  0  0  0  0  0  0  0  0  0  0  0
   41.7600   31.1720   42.3260 C   0  0  0  0  0  0  0  0  0  0  0  0
   43.0040   31.3230   42.8150 N   0  0  0  0  0  0  0  0  0  0  0  0
   44.1896   37.0195   44.8759 H   0  0  0  0  0  0  0  0  0  0  0  0
   43.8491   36.5164   42.4403 H   0  0  0  0  0  0  0  0  0  0  0  0
   44.5361   34.1751   41.5940 H   0  0  0  0  0  0  0  0  0  0  0  0
   46.4540   31.4166   48.5330 H   0  0  0  0  0  0  0  0  0  0  0  0
   47.7891   30.4209   46.4741 H   0  0  0  0  0  0  0  0  0  0  0  0
   48.0514   30.8465   44.1136 H   0  0  0  0  0  0  0  0  0  0  0  0
   48.4747   33.4818   44.2993 H   0  0  0  0  0  0  0  0  0  0  0  0
   48.9557   32.5542   42.8381 H   0  0  0  0  0  0  0  0  0  0  0  0
   47.4300   33.5025   42.8381 H   0  0  0  0  0  0  0  0  0  0  0  0
   46.9367   30.7641   42.1497 H   0  0  0  0  0  0  0  0  0  0  0  0
   45.7906   32.0862   42.6882 H   0  0  0  0  0  0  0  0  0  0  0  0
   42.7436   28.1299   42.6438 H   0  0  0  0  0  0  0  0  0  0  0  0
   41.0577   31.9791   42.0704 H   0  0  0  0  0  0  0  0  0  0  0  0
   43.4446   32.2340   43.0070 H   0  0  0  0  0  0  0  0  0  0  0  0
  1  6  2  0
  2  1  1  0
  3  2  2  0
  3  4  1  0
  4  5  2  0
  5  6  1  0
  5  7  1  0
  7  8  1  0
  8  9  2  0
 10  9  1  0
 11  7  1  0
 11 10  2  0
 12 11  1  0
 13 12  1  0
 14 15  1  0
 14 12  1  0
 16 15  1  0
 17 16  2  0
 18 19  2  0
 18 17  1  0
 19 20  1  0
 20 16  1  0
  1 21  1  0
  2 22  1  0
  3 23  1  0
  9 24  1  0
 10 25  1  0
 12 26  1  1
 13 27  1  0
 13 28  1  0
 13 29  1  0
 14 30  1  0
 14 31  1  0
 17 32  1  0
 19 33  1  0
 20 34  1  0
M  ISO  8  21  14  22  14  23  14  24  14  25  14  26   8  27   8  28   8
M  ISO  6  29   8  30   8  31   8  32  14  33  14  34   9
M  END
>  <minimizedAffinity>  (1) 
-4.3129034

>  <minimizedRMSD>  (1) 
1.1891582

$$$$
