
     RDKit          3D

 34 36  0  0  1  0  0  0  0  0999 V2000
   47.2450   31.5480   44.5070 C   0  0  2  0  0  0  0  0  0  0  0  0
   44.4850   36.0110   44.0710 C   0  0  0  0  0  0  0  0  0  0  0  0
   44.3380   35.5030   42.7680 C   0  0  0  0  0  0  0  0  0  0  0  0
   44.6960   34.1360   42.5520 C   0  0  0  0  0  0  0  0  0  0  0  0
   45.1390   33.5010   43.6640 N   0  0  0  0  0  0  0  0  0  0  0  0
   45.2800   33.9450   44.8610 C   0  0  0  0  0  0  0  0  0  0  0  0
   44.9440   35.2360   45.0670 N   0  0  0  0  0  0  0  0  0  0  0  0
   45.7520   33.1700   45.9370 N   0  0  0  0  0  0  0  0  0  0  0  0
   45.4790   33.2870   47.2450 N   0  0  0  0  0  0  0  0  0  0  0  0
   46.1500   32.3280   47.9050 C   0  0  0  0  0  0  0  0  0  0  0  0
   46.8490   31.6110   46.9780 C   0  0  0  0  0  0  0  0  0  0  0  0
   46.6070   32.1370   45.7060 C   0  0  0  0  0  0  0  0  0  0  0  0
   47.9650   32.6360   43.7520 C   0  0  0  0  0  0  0  0  0  0  0  0
   46.2710   30.8780   43.6230 C   0  0  0  0  0  0  0  0  0  0  0  0
   45.1170   29.7690   44.4560 S   0  0  0  0  0  0  0  0  0  0  0  0
   47.0500   27.0690   46.5830 N   0  0  0  0  0  0  0  0  0  0  0  0
   46.9610   27.8060   45.4560 N   0  0  0  0  0  0  0  0  0  0  0  0
   45.8760   28.5520   45.4850 C   0  0  0  0  0  0  0  0  0  0  0  0
   45.2350   28.2730   46.7010 C   0  0  0  0  0  0  0  0  0  0  0  0
   45.9860   27.3310   47.3930 C   0  0  0  0  0  0  0  0  0  0  0  0
   47.9547   30.7774   44.8424 H   0  0  0  0  0  0  0  0  0  0  0  0
   44.2201   37.0585   44.2774 H   0  0  0  0  0  0  0  0  0  0  0  0
   43.9625   36.1324   41.9477 H   0  0  0  0  0  0  0  0  0  0  0  0
   44.6188   33.6439   41.5713 H   0  0  0  0  0  0  0  0  0  0  0  0
   46.1380   32.1533   48.9910 H   0  0  0  0  0  0  0  0  0  0  0  0
   47.5012   30.7529   47.1976 H   0  0  0  0  0  0  0  0  0  0  0  0
   48.4268   33.3338   44.4660 H   0  0  0  0  0  0  0  0  0  0  0  0
   48.7458   32.1884   43.1195 H   0  0  0  0  0  0  0  0  0  0  0  0
   47.2478   33.1797   43.1195 H   0  0  0  0  0  0  0  0  0  0  0  0
   46.8320   30.2911   42.8809 H   0  0  0  0  0  0  0  0  0  0  0  0
   45.6603   31.6777   43.1786 H   0  0  0  0  0  0  0  0  0  0  0  0
   47.8091   26.4071   46.7988 H   0  0  0  0  0  0  0  0  0  0  0  0
   44.2943   28.7248   47.0488 H   0  0  0  0  0  0  0  0  0  0  0  0
   45.7693   26.8929   48.3784 H   0  0  0  0  0  0  0  0  0  0  0  0
  1 12  1  0
  2  7  2  0
  3  2  1  0
  4  3  2  0
  4  5  1  0
  5  6  2  0
  6  7  1  0
  6  8  1  0
  8  9  1  0
  9 10  2  0
 11 10  1  0
 12  8  1  0
 12 11  2  0
 13  1  1  0
 14 15  1  0
 14  1  1  0
 15 18  1  0
 16 20  1  0
 17 18  2  0
 17 16  1  0
 18 19  1  0
 19 20  2  0
  1 21  1  1
  2 22  1  0
  3 23  1  0
  4 24  1  0
 10 25  1  0
 11 26  1  0
 13 27  1  0
 13 28  1  0
 13 29  1  0
 14 30  1  0
 14 31  1  0
 16 32  1  0
 19 33  1  0
 20 34  1  0
M  ISO  8  21   8  22  14  23  14  24  14  25  14  26  14  27   8  28   8
M  ISO  6  29   8  30   8  31   8  32   9  33  14  34  14
M  END
>  <minimizedAffinity>  (1) 
-3.88455224

>  <minimizedRMSD>  (1) 
1.98456836

$$$$
