
     RDKit          3D

 39 40  0  0  1  0  0  0  0  0999 V2000
   44.4790   35.9110   44.3360 C   0  0  0  0  0  0  0  0  0  0  0  0
   44.3090   35.5130   43.0130 C   0  0  0  0  0  0  0  0  0  0  0  0
   44.6920   34.1960   42.6810 C   0  0  0  0  0  0  0  0  0  0  0  0
   45.1910   33.4560   43.7130 N   0  0  0  0  0  0  0  0  0  0  0  0
   45.3550   33.8100   44.9390 C   0  0  0  0  0  0  0  0  0  0  0  0
   44.9920   35.0730   45.2590 N   0  0  0  0  0  0  0  0  0  0  0  0
   45.8680   32.9640   45.9240 N   0  0  0  0  0  0  0  0  0  0  0  0
   45.6330   32.9380   47.2410 N   0  0  0  0  0  0  0  0  0  0  0  0
   46.3450   31.9490   47.7990 C   0  0  0  0  0  0  0  0  0  0  0  0
   47.0390   31.3480   46.7950 C   0  0  0  0  0  0  0  0  0  0  0  0
   46.7500   31.9780   45.5850 C   0  0  0  0  0  0  0  0  0  0  0  0
   47.3870   31.5130   44.3190 C   0  0  2  0  0  0  0  0  0  0  0  0
   47.9850   32.7030   43.6090 C   0  0  0  0  0  0  0  0  0  0  0  0
   46.4150   30.8410   43.4330 C   0  0  0  0  0  0  0  0  0  0  0  0
   45.1760   29.8280   44.2760 S   0  0  0  0  0  0  0  0  0  0  0  0
   45.8080   28.2380   44.8580 C   0  0  0  0  0  0  0  0  0  0  0  0
   45.2520   28.1120   46.2880 C   0  0  0  0  0  0  0  0  0  0  0  0
   47.2500   28.0180   44.7420 C   0  0  0  0  0  0  0  0  0  0  0  0
   45.0830   27.1340   44.0940 C   0  0  0  0  0  0  0  0  0  0  0  0
   44.1890   36.9293   44.6342 H   0  0  0  0  0  0  0  0  0  0  0  0
   43.8935   36.1965   42.2579 H   0  0  0  0  0  0  0  0  0  0  0  0
   44.5950   33.7942   41.6616 H   0  0  0  0  0  0  0  0  0  0  0  0
   46.3645   31.6757   48.8643 H   0  0  0  0  0  0  0  0  0  0  0  0
   47.7233   30.4957   46.9187 H   0  0  0  0  0  0  0  0  0  0  0  0
   48.1686   30.7810   44.5703 H   0  0  0  0  0  0  0  0  0  0  0  0
   48.3493   33.4280   44.3517 H   0  0  0  0  0  0  0  0  0  0  0  0
   48.8233   32.3709   42.9789 H   0  0  0  0  0  0  0  0  0  0  0  0
   47.2182   33.1774   42.9789 H   0  0  0  0  0  0  0  0  0  0  0  0
   46.9749   30.1909   42.7447 H   0  0  0  0  0  0  0  0  0  0  0  0
   45.8592   31.6433   42.9256 H   0  0  0  0  0  0  0  0  0  0  0  0
   46.0591   28.2949   47.0127 H   0  0  0  0  0  0  0  0  0  0  0  0
   44.4513   28.8515   46.4366 H   0  0  0  0  0  0  0  0  0  0  0  0
   44.8483   27.0996   46.4366 H   0  0  0  0  0  0  0  0  0  0  0  0
   47.6926   27.9505   45.7468 H   0  0  0  0  0  0  0  0  0  0  0  0
   47.4352   27.0812   44.1960 H   0  0  0  0  0  0  0  0  0  0  0  0
   47.7062   28.8569   44.1960 H   0  0  0  0  0  0  0  0  0  0  0  0
   44.6237   26.4346   44.8081 H   0  0  0  0  0  0  0  0  0  0  0  0
   44.3006   27.5787   43.4615 H   0  0  0  0  0  0  0  0  0  0  0  0
   45.8020   26.5927   43.4615 H   0  0  0  0  0  0  0  0  0  0  0  0
  1  6  2  0
  2  1  1  0
  3  2  2  0
  3  4  1  0
  4  5  2  0
  5  6  1  0
  5  7  1  0
  7  8  1  0
  8  9  2  0
 10  9  1  0
 11  7  1  0
 11 10  2  0
 12 11  1  0
 13 12  1  0
 14 15  1  0
 14 12  1  0
 15 16  1  0
 16 17  1  0
 18 16  1  0
 19 16  1  0
  1 20  1  0
  2 21  1  0
  3 22  1  0
  9 23  1  0
 10 24  1  0
 12 25  1  1
 13 26  1  0
 13 27  1  0
 13 28  1  0
 14 29  1  0
 14 30  1  0
 17 31  1  0
 17 32  1  0
 17 33  1  0
 18 34  1  0
 18 35  1  0
 18 36  1  0
 19 37  1  0
 19 38  1  0
 19 39  1  0
M  ISO  8  20  14  21  14  22  14  23  14  24  14  25   8  26   8  27   8
M  ISO  8  28   8  29   8  30   8  31   8  32   8  33   8  34   8  35   8
M  ISO  4  36   8  37   8  38   8  39   8
M  END
>  <minimizedAffinity>  (1) 
-3.7276423

>  <minimizedRMSD>  (1) 
0.988546968

$$$$
