
     RDKit          3D

 35 37  0  0  1  0  0  0  0  0999 V2000
   46.6410   34.7900   42.0570 C   0  0  0  0  0  0  0  0  0  0  0  0
   47.9450   35.2590   42.0070 C   0  0  0  0  0  0  0  0  0  0  0  0
   48.7230   35.1240   40.8510 C   0  0  0  0  0  0  0  0  0  0  0  0
   48.1750   34.5050   39.7220 C   0  0  0  0  0  0  0  0  0  0  0  0
   46.8870   34.0510   39.7940 C   0  0  0  0  0  0  0  0  0  0  0  0
   46.1430   34.1940   40.9400 C   0  0  0  0  0  0  0  0  0  0  0  0
   44.7990   33.7070   40.9780 N   0  0  0  0  0  0  0  0  0  0  0  0
   43.5830   34.4260   40.5800 C   0  0  0  0  0  0  0  0  0  0  0  0
   42.4290   34.1170   41.4900 C   0  0  0  0  0  0  0  0  0  0  0  0
   42.2170   32.6780   41.4860 N   0  0  0  0  0  0  0  0  0  0  0  0
   43.3640   32.1110   42.1850 C   0  0  0  0  0  0  0  0  0  0  0  0
   44.6660   32.3500   41.4690 C   0  0  1  0  0  0  0  0  0  0  0  0
   44.8320   31.4150   40.4480 O   0  0  0  0  0  0  0  0  0  0  0  0
   44.4530   36.1260   44.8090 C   0  0  0  0  0  0  0  0  0  0  0  0
   45.0870   36.0640   43.5650 C   0  0  0  0  0  0  0  0  0  0  0  0
   45.9270   34.9790   43.2980 C   0  0  0  0  0  0  0  0  0  0  0  0
   46.0940   34.0240   44.2600 N   0  0  0  0  0  0  0  0  0  0  0  0
   45.4440   34.1450   45.4590 C   0  0  0  0  0  0  0  0  0  0  0  0
   44.6380   35.1830   45.7210 N   0  0  0  0  0  0  0  0  0  0  0  0
   48.3767   35.7469   42.8933 H   0  0  0  0  0  0  0  0  0  0  0  0
   49.7561   35.5012   40.8304 H   0  0  0  0  0  0  0  0  0  0  0  0
   48.7646   34.3867   38.8009 H   0  0  0  0  0  0  0  0  0  0  0  0
   46.4379   33.5617   38.9171 H   0  0  0  0  0  0  0  0  0  0  0  0
   43.7822   35.5073   40.6122 H   0  0  0  0  0  0  0  0  0  0  0  0
   43.3126   34.1038   39.5636 H   0  0  0  0  0  0  0  0  0  0  0  0
   42.6590   34.4563   42.5108 H   0  0  0  0  0  0  0  0  0  0  0  0
   41.5229   34.6346   41.1422 H   0  0  0  0  0  0  0  0  0  0  0  0
   41.3434   32.4419   41.9779 H   0  0  0  0  0  0  0  0  0  0  0  0
   43.4251   32.5658   43.1847 H   0  0  0  0  0  0  0  0  0  0  0  0
   43.2123   31.0228   42.2375 H   0  0  0  0  0  0  0  0  0  0  0  0
   45.4738   32.2179   42.2039 H   0  0  0  0  0  0  0  0  0  0  0  0
   44.9908   30.5208   40.8420 H   0  0  0  0  0  0  0  0  0  0  0  0
   43.7885   36.9730   45.0349 H   0  0  0  0  0  0  0  0  0  0  0  0
   44.9286   36.8511   42.8131 H   0  0  0  0  0  0  0  0  0  0  0  0
   45.5871   33.3704   46.2268 H   0  0  0  0  0  0  0  0  0  0  0  0
  1 16  1  0
  2  1  2  0
  3  2  1  0
  4  5  1  0
  4  3  2  0
  5  6  2  0
  6  7  1  0
  6  1  1  0
  7 12  1  0
  8  7  1  0
  8  9  1  0
 10  9  1  0
 10 11  1  0
 12 11  1  0
 13 12  1  0
 14 19  2  0
 15 14  1  0
 16 15  2  0
 16 17  1  0
 17 18  2  0
 18 19  1  0
  2 20  1  0
  3 21  1  0
  4 22  1  0
  5 23  1  0
  8 24  1  0
  8 25  1  0
  9 26  1  0
  9 27  1  0
 10 28  1  0
 11 29  1  0
 11 30  1  0
 12 31  1  1
 13 32  1  0
 14 33  1  0
 15 34  1  0
 18 35  1  0
M  ISO  8  20  14  21  14  22  14  23  14  24  13  25  13  26  13  27  13
M  ISO  8  28   5  29  13  30  13  31  13  32   3  33  14  34  14  35  14
M  END
>  <minimizedAffinity>  (1) 
-5.73018408

>  <minimizedRMSD>  (1) 
0.0158918295

$$$$
