
     RDKit          3D

 45 48  0  0  1  0  0  0  0  0999 V2000
   46.8470   31.5710   44.7400 C   0  0  2  0  0  0  0  0  0  0  0  0
   44.7160   36.3270   44.0540 C   0  0  0  0  0  0  0  0  0  0  0  0
   44.6570   35.8330   42.7660 C   0  0  0  0  0  0  0  0  0  0  0  0
   44.8690   34.4360   42.5790 C   0  0  0  0  0  0  0  0  0  0  0  0
   45.1030   33.7990   43.7510 N   0  0  0  0  0  0  0  0  0  0  0  0
   45.1700   34.1940   44.9440 C   0  0  0  0  0  0  0  0  0  0  0  0
   44.9670   35.5030   45.0800 N   0  0  0  0  0  0  0  0  0  0  0  0
   45.4290   33.3740   46.0420 N   0  0  0  0  0  0  0  0  0  0  0  0
   45.0440   33.5250   47.3040 N   0  0  0  0  0  0  0  0  0  0  0  0
   45.5130   32.5040   48.0310 C   0  0  0  0  0  0  0  0  0  0  0  0
   46.2080   31.6990   47.1950 C   0  0  0  0  0  0  0  0  0  0  0  0
   46.1690   32.2420   45.8960 C   0  0  0  0  0  0  0  0  0  0  0  0
   47.7420   32.5810   44.0840 C   0  0  0  0  0  0  0  0  0  0  0  0
   45.9530   30.9640   43.7940 C   0  0  0  0  0  0  0  0  0  0  0  0
   45.8640   29.1670   43.8450 S   0  0  0  0  0  0  0  0  0  0  0  0
   45.6620   28.4070   45.3810 C   0  0  0  0  0  0  0  0  0  0  0  0
   44.3510   27.9750   45.5720 C   0  0  0  0  0  0  0  0  0  0  0  0
   43.8930   27.3020   46.7070 C   0  0  0  0  0  0  0  0  0  0  0  0
   44.7960   27.0640   47.6800 C   0  0  0  0  0  0  0  0  0  0  0  0
   46.0680   27.4780   47.5000 C   0  0  0  0  0  0  0  0  0  0  0  0
   46.5480   28.1500   46.3710 C   0  0  0  0  0  0  0  0  0  0  0  0
   47.9750   28.3130   46.4170 C   0  0  0  0  0  0  0  0  0  0  0  0
   48.9220   29.2020   46.7900 C   0  0  0  0  0  0  0  0  0  0  0  0
   50.2830   29.0880   46.7710 C   0  0  0  0  0  0  0  0  0  0  0  0
   50.7950   27.9310   46.3190 N   0  0  0  0  0  0  0  0  0  0  0  0
   49.9280   26.9860   45.9270 C   0  0  0  0  0  0  0  0  0  0  0  0
   48.6150   27.1820   45.9800 N   0  0  0  0  0  0  0  0  0  0  0  0
   47.4275   30.7238   45.1339 H   0  0  0  0  0  0  0  0  0  0  0  0
   44.5565   37.3997   44.2381 H   0  0  0  0  0  0  0  0  0  0  0  0
   44.4531   36.4959   41.9122 H   0  0  0  0  0  0  0  0  0  0  0  0
   44.8454   33.9352   41.5999 H   0  0  0  0  0  0  0  0  0  0  0  0
   45.3614   32.3481   49.1093 H   0  0  0  0  0  0  0  0  0  0  0  0
   46.7211   30.7697   47.4834 H   0  0  0  0  0  0  0  0  0  0  0  0
   48.2614   33.1672   44.8564 H   0  0  0  0  0  0  0  0  0  0  0  0
   48.4826   32.0625   43.4573 H   0  0  0  0  0  0  0  0  0  0  0  0
   47.1382   33.2538   43.4573 H   0  0  0  0  0  0  0  0  0  0  0  0
   46.2785   31.2576   42.7851 H   0  0  0  0  0  0  0  0  0  0  0  0
   44.9473   31.3214   44.0603 H   0  0  0  0  0  0  0  0  0  0  0  0
   43.6246   28.1786   44.7714 H   0  0  0  0  0  0  0  0  0  0  0  0
   42.8452   26.9812   46.8027 H   0  0  0  0  0  0  0  0  0  0  0  0
   44.5015   26.5425   48.6026 H   0  0  0  0  0  0  0  0  0  0  0  0
   46.7858   27.2699   48.3071 H   0  0  0  0  0  0  0  0  0  0  0  0
   48.5390   30.1623   47.1656 H   0  0  0  0  0  0  0  0  0  0  0  0
   50.9321   29.9083   47.1112 H   0  0  0  0  0  0  0  0  0  0  0  0
   50.3130   26.0259   45.5528 H   0  0  0  0  0  0  0  0  0  0  0  0
  1 12  1  0
  2  7  2  0
  3  2  1  0
  4  3  2  0
  4  5  1  0
  5  6  2  0
  6  7  1  0
  6  8  1  0
  8  9  1  0
  9 10  2  0
 11 10  1  0
 12  8  1  0
 12 11  2  0
 13  1  1  0
 14 15  1  0
 14  1  1  0
 15 16  1  0
 16 17  2  0
 16 21  1  0
 17 18  1  0
 18 19  2  0
 20 19  1  0
 21 22  1  0
 21 20  2  0
 22 23  2  0
 24 23  1  0
 25 24  2  0
 26 27  2  0
 26 25  1  0
 27 22  1  0
  1 28  1  1
  2 29  1  0
  3 30  1  0
  4 31  1  0
 10 32  1  0
 11 33  1  0
 13 34  1  0
 13 35  1  0
 13 36  1  0
 14 37  1  0
 14 38  1  0
 17 39  1  0
 18 40  1  0
 19 41  1  0
 20 42  1  0
 23 43  1  0
 24 44  1  0
 26 45  1  0
M  ISO  8  28   8  29  14  30  14  31  14  32  14  33  14  34   8  35   8
M  ISO  8  36   8  37   8  38   8  39  14  40  14  41  14  42  14  43  14
M  ISO  2  44  14  45  14
M  END
>  <minimizedAffinity>  (1) 
-4.43679523

>  <minimizedRMSD>  (1) 
1.98986852

$$$$
