
     RDKit          3D

 50 53  0  0  1  0  0  0  0  0999 V2000
   46.4440   31.2750   42.9320 C   0  0  0  0  0  0  0  0  0  0  0  0
   47.3920   31.6920   43.9310 C   0  0  2  0  0  0  0  0  0  0  0  0
   44.4420   36.0010   44.4800 C   0  0  0  0  0  0  0  0  0  0  0  0
   44.2590   35.7340   43.1400 C   0  0  0  0  0  0  0  0  0  0  0  0
   44.6580   34.4580   42.6490 C   0  0  0  0  0  0  0  0  0  0  0  0
   45.1790   33.6730   43.6240 N   0  0  0  0  0  0  0  0  0  0  0  0
   45.3700   33.8630   44.8570 C   0  0  0  0  0  0  0  0  0  0  0  0
   44.9810   35.0750   45.2800 N   0  0  0  0  0  0  0  0  0  0  0  0
   45.9290   32.9290   45.7280 N   0  0  0  0  0  0  0  0  0  0  0  0
   45.7230   32.7830   47.0380 N   0  0  0  0  0  0  0  0  0  0  0  0
   46.4590   31.7570   47.4830 C   0  0  0  0  0  0  0  0  0  0  0  0
   47.1340   31.2610   46.4160 C   0  0  0  0  0  0  0  0  0  0  0  0
   46.8120   32.0000   45.2620 C   0  0  0  0  0  0  0  0  0  0  0  0
   48.1780   32.8800   43.4670 C   0  0  0  0  0  0  0  0  0  0  0  0
   45.6250   29.6900   43.2300 S   0  0  0  0  0  0  0  0  0  0  0  0
   45.1370   28.7830   41.8430 C   0  0  0  0  0  0  0  0  0  0  0  0
   46.0310   27.7630   41.5580 C   0  0  0  0  0  0  0  0  0  0  0  0
   45.8850   26.8520   40.5030 C   0  0  0  0  0  0  0  0  0  0  0  0
   44.7770   27.0020   39.7160 C   0  0  0  0  0  0  0  0  0  0  0  0
   43.8970   27.9910   39.9840 C   0  0  0  0  0  0  0  0  0  0  0  0
   44.0500   28.8790   41.0230 C   0  0  0  0  0  0  0  0  0  0  0  0
   43.0740   29.8750   41.2870 N   0  0  0  0  0  0  0  0  0  0  0  0
   42.0420   29.2940   41.9760 C   0  0  0  0  0  0  0  0  0  0  0  0
   40.9320   30.0570   42.3550 C   0  0  0  0  0  0  0  0  0  0  0  0
   39.7710   29.5220   43.1000 C   0  0  0  0  0  0  0  0  0  0  0  0
   40.8920   31.3970   42.0280 C   0  0  0  0  0  0  0  0  0  0  0  0
   39.9910   32.2050   42.2870 O   0  0  0  0  0  0  0  0  0  0  0  0
   41.9360   31.9060   41.3510 N   0  0  0  0  0  0  0  0  0  0  0  0
   43.0080   31.1840   40.9790 C   0  0  0  0  0  0  0  0  0  0  0  0
   44.0110   31.5650   40.3550 O   0  0  0  0  0  0  0  0  0  0  0  0
   46.9760   31.2038   41.9719 H   0  0  0  0  0  0  0  0  0  0  0  0
   45.6443   32.0301   42.9481 H   0  0  0  0  0  0  0  0  0  0  0  0
   48.0408   30.8136   44.0635 H   0  0  0  0  0  0  0  0  0  0  0  0
   44.1443   36.9767   44.8915 H   0  0  0  0  0  0  0  0  0  0  0  0
   43.8173   36.4853   42.4689 H   0  0  0  0  0  0  0  0  0  0  0  0
   44.5553   34.1453   41.5994 H   0  0  0  0  0  0  0  0  0  0  0  0
   46.5072   31.3865   48.5176 H   0  0  0  0  0  0  0  0  0  0  0  0
   47.8289   30.4089   46.4478 H   0  0  0  0  0  0  0  0  0  0  0  0
   48.5476   33.4386   44.3395 H   0  0  0  0  0  0  0  0  0  0  0  0
   49.0308   32.5412   42.8604 H   0  0  0  0  0  0  0  0  0  0  0  0
   47.5327   33.5324   42.8604 H   0  0  0  0  0  0  0  0  0  0  0  0
   46.9156   27.6615   42.2040 H   0  0  0  0  0  0  0  0  0  0  0  0
   46.6232   26.0578   40.3178 H   0  0  0  0  0  0  0  0  0  0  0  0
   44.6033   26.3212   38.8696 H   0  0  0  0  0  0  0  0  0  0  0  0
   43.0124   28.0914   39.3380 H   0  0  0  0  0  0  0  0  0  0  0  0
   42.0862   28.2251   42.2318 H   0  0  0  0  0  0  0  0  0  0  0  0
   39.9576   29.6080   44.1807 H   0  0  0  0  0  0  0  0  0  0  0  0
   38.8703   30.0958   42.8366 H   0  0  0  0  0  0  0  0  0  0  0  0
   39.6220   28.4644   42.8366 H   0  0  0  0  0  0  0  0  0  0  0  0
   41.9136   32.9055   41.1032 H   0  0  0  0  0  0  0  0  0  0  0  0
  1 15  1  0
  1  2  1  0
  2 13  1  0
  3  8  2  0
  4  3  1  0
  5  4  2  0
  5  6  1  0
  6  7  2  0
  7  8  1  0
  7  9  1  0
  9 10  1  0
 10 11  2  0
 12 11  1  0
 13  9  1  0
 13 12  2  0
 14  2  1  0
 16 15  1  0
 17 16  2  0
 18 17  1  0
 19 20  1  0
 19 18  2  0
 20 21  2  0
 21 22  1  0
 21 16  1  0
 22 23  1  0
 23 24  2  0
 24 25  1  0
 26 27  2  0
 26 24  1  0
 28 26  1  0
 29 22  1  0
 29 28  1  0
 30 29  2  0
  1 31  1  0
  1 32  1  0
  2 33  1  1
  3 34  1  0
  4 35  1  0
  5 36  1  0
 11 37  1  0
 12 38  1  0
 14 39  1  0
 14 40  1  0
 14 41  1  0
 17 42  1  0
 18 43  1  0
 19 44  1  0
 20 45  1  0
 23 46  1  0
 25 47  1  0
 25 48  1  0
 25 49  1  0
 28 50  1  0
M  ISO  8  31   8  32   8  33   8  34  14  35  14  36  14  37  14  38  14
M  ISO  8  39   8  40   8  41   8  42  14  43  14  44  14  45  14  46  14
M  ISO  4  47   8  48   8  49   8  50   9
M  END
>  <minimizedAffinity>  (1) 
-4.44245958

>  <minimizedRMSD>  (1) 
5.21659851

$$$$
