
     RDKit          3D

 44 47  0  0  1  0  0  0  0  0999 V2000
   46.8350   31.5970   44.7410 C   0  0  2  0  0  0  0  0  0  0  0  0
   44.7170   36.3510   44.0160 C   0  0  0  0  0  0  0  0  0  0  0  0
   44.6640   35.8450   42.7230 C   0  0  0  0  0  0  0  0  0  0  0  0
   44.8740   34.4500   42.5540 C   0  0  0  0  0  0  0  0  0  0  0  0
   45.1010   33.8220   43.7340 N   0  0  0  0  0  0  0  0  0  0  0  0
   45.1620   34.2240   44.9240 C   0  0  0  0  0  0  0  0  0  0  0  0
   44.9600   35.5360   45.0450 N   0  0  0  0  0  0  0  0  0  0  0  0
   45.4170   33.4130   46.0280 N   0  0  0  0  0  0  0  0  0  0  0  0
   45.0280   33.5730   47.2850 N   0  0  0  0  0  0  0  0  0  0  0  0
   45.4920   32.5550   48.0240 C   0  0  0  0  0  0  0  0  0  0  0  0
   46.1880   31.7440   47.1940 C   0  0  0  0  0  0  0  0  0  0  0  0
   46.1560   32.2760   45.8900 C   0  0  0  0  0  0  0  0  0  0  0  0
   47.7310   32.6010   44.0830 C   0  0  0  0  0  0  0  0  0  0  0  0
   45.9410   30.9790   43.8000 C   0  0  0  0  0  0  0  0  0  0  0  0
   45.8970   29.1870   43.8280 S   0  0  0  0  0  0  0  0  0  0  0  0
   45.5540   28.3970   45.3260 C   0  0  0  0  0  0  0  0  0  0  0  0
   44.2450   27.9260   45.3710 C   0  0  0  0  0  0  0  0  0  0  0  0
   43.6880   27.2190   46.4340 C   0  0  0  0  0  0  0  0  0  0  0  0
   44.4990   26.9860   47.4890 C   0  0  0  0  0  0  0  0  0  0  0  0
   45.7610   27.4370   47.4490 C   0  0  0  0  0  0  0  0  0  0  0  0
   46.3570   28.1490   46.3970 C   0  0  0  0  0  0  0  0  0  0  0  0
   47.7150   28.5470   46.6260 C   0  0  0  0  0  0  0  0  0  0  0  0
   48.9430   28.8120   46.1300 C   0  0  0  0  0  0  0  0  0  0  0  0
   49.9180   29.1960   46.9970 C   0  0  0  0  0  0  0  0  0  0  0  0
   49.1960   29.1630   48.1550 C   0  0  0  0  0  0  0  0  0  0  0  0
   48.0160   28.8080   47.8980 O   0  0  0  0  0  0  0  0  0  0  0  0
   47.4162   30.7520   45.1387 H   0  0  0  0  0  0  0  0  0  0  0  0
   44.5584   37.4252   44.1921 H   0  0  0  0  0  0  0  0  0  0  0  0
   44.4667   36.5004   41.8619 H   0  0  0  0  0  0  0  0  0  0  0  0
   44.8547   33.9393   41.5799 H   0  0  0  0  0  0  0  0  0  0  0  0
   45.3361   32.4069   49.1028 H   0  0  0  0  0  0  0  0  0  0  0  0
   46.6983   30.8158   47.4907 H   0  0  0  0  0  0  0  0  0  0  0  0
   48.2537   33.1867   44.8536 H   0  0  0  0  0  0  0  0  0  0  0  0
   48.4688   32.0788   43.4561 H   0  0  0  0  0  0  0  0  0  0  0  0
   47.1286   33.2748   43.4561 H   0  0  0  0  0  0  0  0  0  0  0  0
   46.2434   31.2936   42.7903 H   0  0  0  0  0  0  0  0  0  0  0  0
   44.9311   31.3075   44.0868 H   0  0  0  0  0  0  0  0  0  0  0  0
   43.6019   28.1273   44.5015 H   0  0  0  0  0  0  0  0  0  0  0  0
   42.6451   26.8696   46.4155 H   0  0  0  0  0  0  0  0  0  0  0  0
   44.1299   26.4352   48.3667 H   0  0  0  0  0  0  0  0  0  0  0  0
   46.3906   27.2285   48.3266 H   0  0  0  0  0  0  0  0  0  0  0  0
   49.1491   28.7197   45.0534 H   0  0  0  0  0  0  0  0  0  0  0  0
   50.9720   29.4553   46.8186 H   0  0  0  0  0  0  0  0  0  0  0  0
   49.5840   29.4079   49.1547 H   0  0  0  0  0  0  0  0  0  0  0  0
  1 12  1  0
  2  7  2  0
  3  2  1  0
  4  3  2  0
  4  5  1  0
  5  6  2  0
  6  7  1  0
  6  8  1  0
  8  9  1  0
  9 10  2  0
 11 10  1  0
 12  8  1  0
 12 11  2  0
 13  1  1  0
 14 15  1  0
 14  1  1  0
 15 16  1  0
 16 17  2  0
 16 21  1  0
 17 18  1  0
 18 19  2  0
 20 19  1  0
 21 22  1  0
 21 20  2  0
 22 26  1  0
 23 22  2  0
 23 24  1  0
 24 25  2  0
 26 25  1  0
  1 27  1  1
  2 28  1  0
  3 29  1  0
  4 30  1  0
 10 31  1  0
 11 32  1  0
 13 33  1  0
 13 34  1  0
 13 35  1  0
 14 36  1  0
 14 37  1  0
 17 38  1  0
 18 39  1  0
 19 40  1  0
 20 41  1  0
 23 42  1  0
 24 43  1  0
 25 44  1  0
M  ISO  8  27   8  28  14  29  14  30  14  31  14  32  14  33   8  34   8
M  ISO  8  35   8  36   8  37   8  38  14  39  14  40  14  41  14  42  14
M  ISO  2  43  14  44  14
M  END
>  <minimizedAffinity>  (1) 
-4.64062166

>  <minimizedRMSD>  (1) 
1.90193152

$$$$
