
     RDKit          3D

 50 53  0  0  1  0  0  0  0  0999 V2000
   46.9340   31.5890   44.6760 C   0  0  2  0  0  0  0  0  0  0  0  0
   44.6800   36.3030   44.1040 C   0  0  0  0  0  0  0  0  0  0  0  0
   44.6180   35.8280   42.8100 C   0  0  0  0  0  0  0  0  0  0  0  0
   44.8580   34.4430   42.5940 C   0  0  0  0  0  0  0  0  0  0  0  0
   45.1220   33.7810   43.7470 N   0  0  0  0  0  0  0  0  0  0  0  0
   45.1920   34.1600   44.9510 C   0  0  0  0  0  0  0  0  0  0  0  0
   44.9590   35.4640   45.1010 N   0  0  0  0  0  0  0  0  0  0  0  0
   45.4870   33.3210   46.0270 N   0  0  0  0  0  0  0  0  0  0  0  0
   45.1040   33.4430   47.2980 N   0  0  0  0  0  0  0  0  0  0  0  0
   45.6060   32.4150   47.9970 C   0  0  0  0  0  0  0  0  0  0  0  0
   46.3120   31.6480   47.1320 C   0  0  0  0  0  0  0  0  0  0  0  0
   46.2570   32.2060   45.8430 C   0  0  0  0  0  0  0  0  0  0  0  0
   47.7930   32.6270   44.0240 C   0  0  0  0  0  0  0  0  0  0  0  0
   46.0480   30.9790   43.7200 C   0  0  0  0  0  0  0  0  0  0  0  0
   45.9230   29.1860   43.7910 S   0  0  0  0  0  0  0  0  0  0  0  0
   45.8620   28.4310   45.3350 C   0  0  0  0  0  0  0  0  0  0  0  0
   44.5650   28.2650   45.7920 C   0  0  0  0  0  0  0  0  0  0  0  0
   44.2110   27.6750   47.0080 C   0  0  0  0  0  0  0  0  0  0  0  0
   45.2420   27.2320   47.7970 C   0  0  0  0  0  0  0  0  0  0  0  0
   46.5310   27.3860   47.3620 C   0  0  0  0  0  0  0  0  0  0  0  0
   46.8470   27.9740   46.1520 C   0  0  0  0  0  0  0  0  0  0  0  0
   48.2550   27.9580   45.8590 C   0  0  0  0  0  0  0  0  0  0  0  0
   48.8610   29.1440   46.6690 C   0  0  0  0  0  0  0  0  0  0  0  0
   50.3090   28.9790   46.2050 C   0  0  0  0  0  0  0  0  0  0  0  0
   50.1190   28.7940   44.7290 C   0  0  0  0  0  0  0  0  0  0  0  0
   48.6820   28.3870   44.4820 C   0  0  0  0  0  0  0  0  0  0  0  0
   47.5405   30.7543   45.0574 H   0  0  0  0  0  0  0  0  0  0  0  0
   44.5001   37.3682   44.3114 H   0  0  0  0  0  0  0  0  0  0  0  0
   44.3897   36.5008   41.9702 H   0  0  0  0  0  0  0  0  0  0  0  0
   44.8323   33.9637   41.6043 H   0  0  0  0  0  0  0  0  0  0  0  0
   45.4699   32.2290   49.0726 H   0  0  0  0  0  0  0  0  0  0  0  0
   46.8486   30.7255   47.3987 H   0  0  0  0  0  0  0  0  0  0  0  0
   48.2914   33.2293   44.7978 H   0  0  0  0  0  0  0  0  0  0  0  0
   48.5514   32.1346   43.3975 H   0  0  0  0  0  0  0  0  0  0  0  0
   47.1675   33.2799   43.3975 H   0  0  0  0  0  0  0  0  0  0  0  0
   46.3992   31.2521   42.7140 H   0  0  0  0  0  0  0  0  0  0  0  0
   45.0439   31.3557   43.9646 H   0  0  0  0  0  0  0  0  0  0  0  0
   43.7501   28.6258   45.1472 H   0  0  0  0  0  0  0  0  0  0  0  0
   43.1603   27.5711   47.3166 H   0  0  0  0  0  0  0  0  0  0  0  0
   45.0355   26.7584   48.7681 H   0  0  0  0  0  0  0  0  0  0  0  0
   47.3497   27.0265   48.0027 H   0  0  0  0  0  0  0  0  0  0  0  0
   48.5566   26.9172   46.0481 H   0  0  0  0  0  0  0  0  0  0  0  0
   48.4343   30.1142   46.3745 H   0  0  0  0  0  0  0  0  0  0  0  0
   48.6915   29.1308   47.7558 H   0  0  0  0  0  0  0  0  0  0  0  0
   50.9082   29.8747   46.4257 H   0  0  0  0  0  0  0  0  0  0  0  0
   50.8518   28.1590   46.6979 H   0  0  0  0  0  0  0  0  0  0  0  0
   50.3337   29.7372   44.2053 H   0  0  0  0  0  0  0  0  0  0  0  0
   50.8025   28.0184   44.3532 H   0  0  0  0  0  0  0  0  0  0  0  0
   48.0805   29.2337   44.1196 H   0  0  0  0  0  0  0  0  0  0  0  0
   48.5600   27.6118   43.7111 H   0  0  0  0  0  0  0  0  0  0  0  0
  1 12  1  0
  2  7  2  0
  3  2  1  0
  4  3  2  0
  4  5  1  0
  5  6  2  0
  6  7  1  0
  6  8  1  0
  8  9  1  0
  9 10  2  0
 11 10  1  0
 12  8  1  0
 12 11  2  0
 13  1  1  0
 14 15  1  0
 14  1  1  0
 15 16  1  0
 16 17  2  0
 16 21  1  0
 17 18  1  0
 18 19  2  0
 20 19  1  0
 21 20  2  0
 22 21  1  0
 22 23  1  0
 24 23  1  0
 25 24  1  0
 26 25  1  0
 26 22  1  0
  1 27  1  1
  2 28  1  0
  3 29  1  0
  4 30  1  0
 10 31  1  0
 11 32  1  0
 13 33  1  0
 13 34  1  0
 13 35  1  0
 14 36  1  0
 14 37  1  0
 17 38  1  0
 18 39  1  0
 19 40  1  0
 20 41  1  0
 22 42  1  0
 23 43  1  0
 23 44  1  0
 24 45  1  0
 24 46  1  0
 25 47  1  0
 25 48  1  0
 26 49  1  0
 26 50  1  0
M  ISO  8  27   8  28  14  29  14  30  14  31  14  32  14  33   8  34   8
M  ISO  8  35   8  36   8  37   8  38  14  39  14  40  14  41  14  42  13
M  ISO  8  43  13  44  13  45  13  46  13  47  13  48  13  49  13  50  13
M  END
>  <minimizedAffinity>  (1) 
-4.41416883

>  <minimizedRMSD>  (1) 
1.11588168

$$$$
