
     RDKit          3D

 47 50  0  0  1  0  0  0  0  0999 V2000
   45.8220   31.1670   43.6420 C   0  0  0  0  0  0  0  0  0  0  0  0
   46.7260   31.6350   44.6560 C   0  0  2  0  0  0  0  0  0  0  0  0
   44.7470   36.4590   44.0160 C   0  0  0  0  0  0  0  0  0  0  0  0
   44.6610   35.9700   42.7270 C   0  0  0  0  0  0  0  0  0  0  0  0
   44.8290   34.5680   42.5260 C   0  0  0  0  0  0  0  0  0  0  0  0
   45.0580   33.9060   43.6890 N   0  0  0  0  0  0  0  0  0  0  0  0
   45.1450   34.2980   44.8860 C   0  0  0  0  0  0  0  0  0  0  0  0
   44.9810   35.6190   45.0270 N   0  0  0  0  0  0  0  0  0  0  0  0
   45.3860   33.4640   45.9770 N   0  0  0  0  0  0  0  0  0  0  0  0
   45.0110   33.6230   47.2480 N   0  0  0  0  0  0  0  0  0  0  0  0
   45.4480   32.5800   47.9670 C   0  0  0  0  0  0  0  0  0  0  0  0
   46.1070   31.7660   47.1170 C   0  0  0  0  0  0  0  0  0  0  0  0
   46.0840   32.3090   45.8230 C   0  0  0  0  0  0  0  0  0  0  0  0
   47.7610   32.5530   44.0830 C   0  0  0  0  0  0  0  0  0  0  0  0
   44.9250   29.6390   44.0200 S   0  0  0  0  0  0  0  0  0  0  0  0
   45.5080   28.7010   45.3520 C   0  0  0  0  0  0  0  0  0  0  0  0
   44.5050   28.5180   46.2970 C   0  0  0  0  0  0  0  0  0  0  0  0
   44.6880   27.7760   47.4850 C   0  0  0  0  0  0  0  0  0  0  0  0
   45.9230   27.2260   47.6900 C   0  0  0  0  0  0  0  0  0  0  0  0
   46.8940   27.4080   46.7700 C   0  0  0  0  0  0  0  0  0  0  0  0
   46.7050   28.1280   45.6170 C   0  0  0  0  0  0  0  0  0  0  0  0
   47.7250   28.2610   44.6620 N   0  0  0  0  0  0  0  0  0  0  0  0
   47.9130   27.8320   43.3980 C   0  0  0  0  0  0  0  0  0  0  0  0
   49.0420   28.1350   42.6690 C   0  0  0  0  0  0  0  0  0  0  0  0
   50.0320   28.9090   43.2360 C   0  0  0  0  0  0  0  0  0  0  0  0
   51.0310   29.1520   42.5290 O   0  0  0  0  0  0  0  0  0  0  0  0
   49.8500   29.3390   44.4960 N   0  0  0  0  0  0  0  0  0  0  0  0
   48.7240   29.0290   45.2060 C   0  0  0  0  0  0  0  0  0  0  0  0
   48.7730   29.5460   46.3750 O   0  0  0  0  0  0  0  0  0  0  0  0
   46.4045   30.9969   42.7246 H   0  0  0  0  0  0  0  0  0  0  0  0
   45.0520   31.9471   43.5488 H   0  0  0  0  0  0  0  0  0  0  0  0
   47.1858   30.7120   45.0390 H   0  0  0  0  0  0  0  0  0  0  0  0
   44.6233   37.5349   44.2085 H   0  0  0  0  0  0  0  0  0  0  0  0
   44.4682   36.6434   41.8788 H   0  0  0  0  0  0  0  0  0  0  0  0
   44.7788   34.0793   41.5418 H   0  0  0  0  0  0  0  0  0  0  0  0
   45.2979   32.4185   49.0447 H   0  0  0  0  0  0  0  0  0  0  0  0
   46.5903   30.8181   47.3963 H   0  0  0  0  0  0  0  0  0  0  0  0
   48.3113   33.0411   44.9009 H   0  0  0  0  0  0  0  0  0  0  0  0
   48.4620   31.9742   43.4636 H   0  0  0  0  0  0  0  0  0  0  0  0
   47.2700   33.3180   43.4636 H   0  0  0  0  0  0  0  0  0  0  0  0
   43.5211   28.9731   46.1106 H   0  0  0  0  0  0  0  0  0  0  0  0
   43.8734   27.6464   48.2127 H   0  0  0  0  0  0  0  0  0  0  0  0
   46.1239   26.6392   48.5985 H   0  0  0  0  0  0  0  0  0  0  0  0
   47.8814   26.9589   46.9527 H   0  0  0  0  0  0  0  0  0  0  0  0
   47.1327   27.2145   42.9292 H   0  0  0  0  0  0  0  0  0  0  0  0
   49.1529   27.7615   41.6403 H   0  0  0  0  0  0  0  0  0  0  0  0
   50.5783   29.9175   44.9385 H   0  0  0  0  0  0  0  0  0  0  0  0
  1 15  1  0
  1  2  1  0
  2 13  1  0
  3  8  2  0
  4  3  1  0
  5  4  2  0
  5  6  1  0
  6  7  2  0
  7  8  1  0
  7  9  1  0
  9 10  1  0
 10 11  2  0
 12 11  1  0
 13  9  1  0
 13 12  2  0
 14  2  1  0
 15 16  1  0
 16 21  1  0
 16 17  2  0
 17 18  1  0
 18 19  2  0
 20 19  1  0
 21 20  2  0
 22 28  1  0
 22 21  1  0
 23 22  1  0
 24 25  1  0
 24 23  2  0
 25 27  1  0
 26 25  2  0
 27 28  1  0
 28 29  2  0
  1 30  1  0
  1 31  1  0
  2 32  1  1
  3 33  1  0
  4 34  1  0
  5 35  1  0
 11 36  1  0
 12 37  1  0
 14 38  1  0
 14 39  1  0
 14 40  1  0
 17 41  1  0
 18 42  1  0
 19 43  1  0
 20 44  1  0
 23 45  1  0
 24 46  1  0
 27 47  1  0
M  ISO  8  30   8  31   8  32   8  33  14  34  14  35  14  36  14  37  14
M  ISO  8  38   8  39   8  40   8  41  14  42  14  43  14  44  14  45  14
M  ISO  2  46  14  47   9
M  END
>  <minimizedAffinity>  (1) 
-4.37722635

>  <minimizedRMSD>  (1) 
1.09761548

$$$$
