
     RDKit          3D

 48 51  0  0  1  0  0  0  0  0999 V2000
   46.4180   30.7710   43.4730 C   0  0  0  0  0  0  0  0  0  0  0  0
   47.3580   31.4330   44.3350 C   0  0  2  0  0  0  0  0  0  0  0  0
   44.4820   35.8300   44.4200 C   0  0  0  0  0  0  0  0  0  0  0  0
   44.2770   35.4100   43.1230 C   0  0  0  0  0  0  0  0  0  0  0  0
   44.6520   34.0830   42.7780 C   0  0  0  0  0  0  0  0  0  0  0  0
   45.1760   33.4080   43.8320 N   0  0  0  0  0  0  0  0  0  0  0  0
   45.3870   33.7370   45.0330 C   0  0  0  0  0  0  0  0  0  0  0  0
   45.0210   34.9930   45.3110 N   0  0  0  0  0  0  0  0  0  0  0  0
   45.9450   32.8980   45.9990 N   0  0  0  0  0  0  0  0  0  0  0  0
   45.7570   32.9080   47.3180 N   0  0  0  0  0  0  0  0  0  0  0  0
   46.4820   31.9250   47.8680 C   0  0  0  0  0  0  0  0  0  0  0  0
   47.1300   31.2970   46.8580 C   0  0  0  0  0  0  0  0  0  0  0  0
   46.8030   31.9050   45.6330 C   0  0  0  0  0  0  0  0  0  0  0  0
   48.0020   32.5960   43.6460 C   0  0  0  0  0  0  0  0  0  0  0  0
   45.2170   29.6910   44.2940 S   0  0  0  0  0  0  0  0  0  0  0  0
   45.6690   28.0390   44.5200 C   0  0  0  0  0  0  0  0  0  0  0  0
   47.0120   27.9340   44.8470 C   0  0  0  0  0  0  0  0  0  0  0  0
   47.6620   26.7040   45.1110 C   0  0  0  0  0  0  0  0  0  0  0  0
   46.8910   25.5810   45.0270 C   0  0  0  0  0  0  0  0  0  0  0  0
   45.5810   25.6790   44.7090 C   0  0  0  0  0  0  0  0  0  0  0  0
   44.9600   26.8820   44.4570 C   0  0  0  0  0  0  0  0  0  0  0  0
   43.5710   26.9310   44.1680 N   0  0  0  0  0  0  0  0  0  0  0  0
   43.3840   26.8060   42.8160 C   0  0  0  0  0  0  0  0  0  0  0  0
   42.1230   26.8320   42.2570 C   0  0  0  0  0  0  0  0  0  0  0  0
   41.0380   26.9900   43.1090 C   0  0  0  0  0  0  0  0  0  0  0  0
   39.7150   27.0270   42.6180 N   0  0  0  0  0  0  0  0  0  0  0  0
   41.2590   27.1100   44.4270 N   0  0  0  0  0  0  0  0  0  0  0  0
   42.4930   27.0830   44.9600 C   0  0  0  0  0  0  0  0  0  0  0  0
   42.8090   27.1880   46.1710 O   0  0  0  0  0  0  0  0  0  0  0  0
   46.9885   30.1592   42.7587 H   0  0  0  0  0  0  0  0  0  0  0  0
   45.8271   31.5723   43.0053 H   0  0  0  0  0  0  0  0  0  0  0  0
   48.0956   30.6507   44.5673 H   0  0  0  0  0  0  0  0  0  0  0  0
   44.2028   36.8507   44.7202 H   0  0  0  0  0  0  0  0  0  0  0  0
   43.8348   36.0842   42.3747 H   0  0  0  0  0  0  0  0  0  0  0  0
   44.5313   33.6530   41.7727 H   0  0  0  0  0  0  0  0  0  0  0  0
   46.5401   31.6751   48.9377 H   0  0  0  0  0  0  0  0  0  0  0  0
   47.8096   30.4404   46.9779 H   0  0  0  0  0  0  0  0  0  0  0  0
   48.3909   33.2983   44.3981 H   0  0  0  0  0  0  0  0  0  0  0  0
   48.8298   32.2370   43.0169 H   0  0  0  0  0  0  0  0  0  0  0  0
   47.2584   33.1071   43.0169 H   0  0  0  0  0  0  0  0  0  0  0  0
   47.6061   28.8580   44.9046 H   0  0  0  0  0  0  0  0  0  0  0  0
   48.7301   26.6562   45.3697 H   0  0  0  0  0  0  0  0  0  0  0  0
   47.3368   24.5938   45.2186 H   0  0  0  0  0  0  0  0  0  0  0  0
   44.9844   24.7568   44.6488 H   0  0  0  0  0  0  0  0  0  0  0  0
   44.2595   26.6821   42.1616 H   0  0  0  0  0  0  0  0  0  0  0  0
   41.9816   26.7308   41.1708 H   0  0  0  0  0  0  0  0  0  0  0  0
   38.9267   27.1452   43.2703 H   0  0  0  0  0  0  0  0  0  0  0  0
   39.5380   26.9358   41.6074 H   0  0  0  0  0  0  0  0  0  0  0  0
  1 15  1  0
  1  2  1  0
  2 13  1  0
  3  8  2  0
  4  3  1  0
  5  4  2  0
  5  6  1  0
  6  7  2  0
  7  8  1  0
  7  9  1  0
  9 10  1  0
 10 11  2  0
 12 11  1  0
 13  9  1  0
 13 12  2  0
 14  2  1  0
 15 16  1  0
 16 17  2  0
 17 18  1  0
 19 18  2  0
 20 19  1  0
 21 16  1  0
 21 20  2  0
 22 21  1  0
 22 28  1  0
 23 22  1  0
 24 23  2  0
 24 25  1  0
 25 27  2  0
 26 25  1  0
 27 28  1  0
 28 29  2  0
  1 30  1  0
  1 31  1  0
  2 32  1  1
  3 33  1  0
  4 34  1  0
  5 35  1  0
 11 36  1  0
 12 37  1  0
 14 38  1  0
 14 39  1  0
 14 40  1  0
 17 41  1  0
 18 42  1  0
 19 43  1  0
 20 44  1  0
 23 45  1  0
 24 46  1  0
 26 47  1  0
 26 48  1  0
M  ISO  8  30   8  31   8  32   8  33  14  34  14  35  14  36  14  37  14
M  ISO  8  38   8  39   8  40   8  41  14  42  14  43  14  44  14  45  14
M  ISO  1  46  14
M  END
>  <minimizedAffinity>  (1) 
-4.37528944

>  <minimizedRMSD>  (1) 
3.90912962

$$$$
