
     RDKit          3D

 44 47  0  0  1  0  0  0  0  0999 V2000
   46.8820   31.6430   44.7430 C   0  0  2  0  0  0  0  0  0  0  0  0
   44.6910   36.3710   44.0380 C   0  0  0  0  0  0  0  0  0  0  0  0
   44.6610   35.8750   42.7400 C   0  0  0  0  0  0  0  0  0  0  0  0
   44.8960   34.4870   42.5570 C   0  0  0  0  0  0  0  0  0  0  0  0
   45.1230   33.8490   43.7280 N   0  0  0  0  0  0  0  0  0  0  0  0
   45.1630   34.2420   44.9260 C   0  0  0  0  0  0  0  0  0  0  0  0
   44.9370   35.5480   45.0600 N   0  0  0  0  0  0  0  0  0  0  0  0
   45.4220   33.4190   46.0220 N   0  0  0  0  0  0  0  0  0  0  0  0
   45.0100   33.5650   47.2810 N   0  0  0  0  0  0  0  0  0  0  0  0
   45.4800   32.5450   48.0100 C   0  0  0  0  0  0  0  0  0  0  0  0
   46.1990   31.7550   47.1730 C   0  0  0  0  0  0  0  0  0  0  0  0
   46.1820   32.2920   45.8800 C   0  0  0  0  0  0  0  0  0  0  0  0
   47.7270   32.6770   44.0660 C   0  0  0  0  0  0  0  0  0  0  0  0
   46.0070   30.9820   43.8050 C   0  0  0  0  0  0  0  0  0  0  0  0
   45.9990   29.1870   43.8670 S   0  0  0  0  0  0  0  0  0  0  0  0
   45.6950   28.4240   45.3780 C   0  0  0  0  0  0  0  0  0  0  0  0
   44.3680   28.0260   45.4970 C   0  0  0  0  0  0  0  0  0  0  0  0
   43.8220   27.3720   46.6150 C   0  0  0  0  0  0  0  0  0  0  0  0
   44.6730   27.1210   47.6480 C   0  0  0  0  0  0  0  0  0  0  0  0
   45.9590   27.5020   47.5400 C   0  0  0  0  0  0  0  0  0  0  0  0
   46.5070   28.1470   46.4320 C   0  0  0  0  0  0  0  0  0  0  0  0
   47.9250   28.4510   46.4080 C   0  0  0  0  0  0  0  0  0  0  0  0
   48.8000   27.5310   45.8800 C   0  0  0  0  0  0  0  0  0  0  0  0
   50.1230   27.8790   45.9260 C   0  0  0  0  0  0  0  0  0  0  0  0
   50.0560   29.0770   46.5140 N   0  0  0  0  0  0  0  0  0  0  0  0
   48.8170   29.3630   46.7680 N   0  0  0  0  0  0  0  0  0  0  0  0
   47.5037   30.8321   45.1502 H   0  0  0  0  0  0  0  0  0  0  0  0
   44.5122   37.4405   44.2230 H   0  0  0  0  0  0  0  0  0  0  0  0
   44.4619   36.5357   41.8834 H   0  0  0  0  0  0  0  0  0  0  0  0
   44.8938   33.9881   41.5766 H   0  0  0  0  0  0  0  0  0  0  0  0
   45.3145   32.3787   49.0847 H   0  0  0  0  0  0  0  0  0  0  0  0
   46.7178   30.8305   47.4666 H   0  0  0  0  0  0  0  0  0  0  0  0
   48.2307   33.2934   44.8252 H   0  0  0  0  0  0  0  0  0  0  0  0
   48.4810   32.1803   43.4377 H   0  0  0  0  0  0  0  0  0  0  0  0
   47.0901   33.3170   43.4377 H   0  0  0  0  0  0  0  0  0  0  0  0
   46.3113   31.2825   42.7915 H   0  0  0  0  0  0  0  0  0  0  0  0
   44.9882   31.2930   44.0796 H   0  0  0  0  0  0  0  0  0  0  0  0
   43.6952   28.2389   44.6532 H   0  0  0  0  0  0  0  0  0  0  0  0
   42.7626   27.0783   46.6535 H   0  0  0  0  0  0  0  0  0  0  0  0
   44.3148   26.6147   48.5565 H   0  0  0  0  0  0  0  0  0  0  0  0
   46.6267   27.2890   48.3878 H   0  0  0  0  0  0  0  0  0  0  0  0
   48.4592   26.5781   45.4490 H   0  0  0  0  0  0  0  0  0  0  0  0
   51.0040   27.3224   45.5738 H   0  0  0  0  0  0  0  0  0  0  0  0
   50.8627   29.6793   46.7316 H   0  0  0  0  0  0  0  0  0  0  0  0
  1 12  1  0
  2  7  2  0
  3  2  1  0
  4  3  2  0
  4  5  1  0
  5  6  2  0
  6  7  1  0
  6  8  1  0
  8  9  1  0
  9 10  2  0
 11 10  1  0
 12  8  1  0
 12 11  2  0
 13  1  1  0
 14 15  1  0
 14  1  1  0
 15 16  1  0
 16 17  2  0
 16 21  1  0
 17 18  1  0
 18 19  2  0
 20 19  1  0
 21 20  2  0
 22 21  1  0
 22 26  2  0
 23 24  2  0
 23 22  1  0
 24 25  1  0
 25 26  1  0
  1 27  1  1
  2 28  1  0
  3 29  1  0
  4 30  1  0
 10 31  1  0
 11 32  1  0
 13 33  1  0
 13 34  1  0
 13 35  1  0
 14 36  1  0
 14 37  1  0
 17 38  1  0
 18 39  1  0
 19 40  1  0
 20 41  1  0
 23 42  1  0
 24 43  1  0
 25 44  1  0
M  ISO  8  27   8  28  14  29  14  30  14  31  14  32  14  33   8  34   8
M  ISO  8  35   8  36   8  37   8  38  14  39  14  40  14  41  14  42  14
M  ISO  2  43  14  44   9
M  END
>  <minimizedAffinity>  (1) 
-4.43204784

>  <minimizedRMSD>  (1) 
1.75181878

$$$$
