
     RDKit          3D

 36 38  0  0  1  0  0  0  0  0999 V2000
   46.6390   34.7870   42.0680 C   0  0  0  0  0  0  0  0  0  0  0  0
   47.9390   35.2640   42.0010 C   0  0  0  0  0  0  0  0  0  0  0  0
   48.7270   35.1420   40.8480 C   0  0  0  0  0  0  0  0  0  0  0  0
   48.1750   34.5080   39.7170 C   0  0  0  0  0  0  0  0  0  0  0  0
   46.8900   34.0410   39.7950 C   0  0  0  0  0  0  0  0  0  0  0  0
   46.1620   34.1850   40.9420 C   0  0  0  0  0  0  0  0  0  0  0  0
   44.8130   33.6830   40.9920 N   0  0  0  0  0  0  0  0  0  0  0  0
   43.5920   34.3860   40.5670 C   0  0  0  0  0  0  0  0  0  0  0  0
   42.4290   34.0870   41.4630 C   0  0  0  0  0  0  0  0  0  0  0  0
   42.2340   32.6460   41.4870 N   0  0  0  0  0  0  0  0  0  0  0  0
   43.3720   32.1170   42.2250 C   0  0  0  0  0  0  0  0  0  0  0  0
   44.6940   32.3420   41.5220 C   0  0  1  0  0  0  0  0  0  0  0  0
   44.9890   31.3230   40.5410 N   0  0  0  0  0  0  0  0  0  0  0  0
   44.4470   36.1120   44.8110 C   0  0  0  0  0  0  0  0  0  0  0  0
   45.0870   36.0430   43.5660 C   0  0  0  0  0  0  0  0  0  0  0  0
   45.9280   34.9720   43.3030 C   0  0  0  0  0  0  0  0  0  0  0  0
   46.1060   34.0210   44.2680 N   0  0  0  0  0  0  0  0  0  0  0  0
   45.4540   34.1440   45.4660 C   0  0  0  0  0  0  0  0  0  0  0  0
   44.6420   35.1710   45.7250 N   0  0  0  0  0  0  0  0  0  0  0  0
   48.3683   35.7567   42.8858 H   0  0  0  0  0  0  0  0  0  0  0  0
   49.7549   35.5331   40.8266 H   0  0  0  0  0  0  0  0  0  0  0  0
   48.7619   34.3911   38.7941 H   0  0  0  0  0  0  0  0  0  0  0  0
   46.4386   33.5440   38.9237 H   0  0  0  0  0  0  0  0  0  0  0  0
   43.7826   35.4692   40.5828 H   0  0  0  0  0  0  0  0  0  0  0  0
   43.3371   34.0404   39.5543 H   0  0  0  0  0  0  0  0  0  0  0  0
   42.6384   34.4516   42.4795 H   0  0  0  0  0  0  0  0  0  0  0  0
   41.5231   34.5874   41.0903 H   0  0  0  0  0  0  0  0  0  0  0  0
   41.3526   32.4090   41.9644 H   0  0  0  0  0  0  0  0  0  0  0  0
   43.4105   32.6087   43.2082 H   0  0  0  0  0  0  0  0  0  0  0  0
   43.2287   31.0299   42.3127 H   0  0  0  0  0  0  0  0  0  0  0  0
   45.4726   32.2451   42.2930 H   0  0  0  0  0  0  0  0  0  0  0  0
   45.2424   30.4476   41.0209 H   0  0  0  0  0  0  0  0  0  0  0  0
   44.1596   31.1637   39.9514 H   0  0  0  0  0  0  0  0  0  0  0  0
   43.7761   36.9552   45.0323 H   0  0  0  0  0  0  0  0  0  0  0  0
   44.9249   36.8254   42.8099 H   0  0  0  0  0  0  0  0  0  0  0  0
   45.6039   33.3740   46.2371 H   0  0  0  0  0  0  0  0  0  0  0  0
  1 16  1  0
  2  1  2  0
  3  2  1  0
  4  5  1  0
  4  3  2  0
  5  6  2  0
  6  7  1  0
  6  1  1  0
  7 12  1  0
  8  7  1  0
  8  9  1  0
  9 10  1  0
 10 11  1  0
 12 11  1  0
 13 12  1  0
 14 19  2  0
 15 14  1  0
 16 15  2  0
 16 17  1  0
 17 18  2  0
 18 19  1  0
  2 20  1  0
  3 21  1  0
  4 22  1  0
  5 23  1  0
  8 24  1  0
  8 25  1  0
  9 26  1  0
  9 27  1  0
 10 28  1  0
 11 29  1  0
 11 30  1  0
 12 31  1  1
 13 32  1  0
 13 33  1  0
 14 34  1  0
 15 35  1  0
 18 36  1  0
M  ISO  8  20  14  21  14  22  14  23  14  24  13  25  13  26  13  27  13
M  ISO  8  28   5  29  13  30  13  31  13  32   5  33   5  34  14  35  14
M  ISO  1  36  14
M  END
>  <minimizedAffinity>  (1) 
-5.72548532

>  <minimizedRMSD>  (1) 
0.0306010507

$$$$
