
     RDKit          3D

 40 42  0  0  1  0  0  0  0  0999 V2000
   47.4710   31.8350   44.2730 C   0  0  2  0  0  0  0  0  0  0  0  0
   44.2840   36.0060   44.0340 C   0  0  0  0  0  0  0  0  0  0  0  0
   44.1960   35.5400   42.7330 C   0  0  0  0  0  0  0  0  0  0  0  0
   44.6900   34.2360   42.4550 C   0  0  0  0  0  0  0  0  0  0  0  0
   45.1910   33.6280   43.5620 N   0  0  0  0  0  0  0  0  0  0  0  0
   45.2950   34.0010   44.7610 C   0  0  0  0  0  0  0  0  0  0  0  0
   44.8220   35.2340   44.9930 N   0  0  0  0  0  0  0  0  0  0  0  0
   45.8440   33.2330   45.7890 N   0  0  0  0  0  0  0  0  0  0  0  0
   45.5710   33.2610   47.0900 N   0  0  0  0  0  0  0  0  0  0  0  0
   46.3290   32.3500   47.7170 C   0  0  0  0  0  0  0  0  0  0  0  0
   47.0900   31.7410   46.7780 C   0  0  0  0  0  0  0  0  0  0  0  0
   46.7900   32.3010   45.5210 C   0  0  0  0  0  0  0  0  0  0  0  0
   48.0290   33.0340   43.5630 C   0  0  0  0  0  0  0  0  0  0  0  0
   46.6650   31.0470   43.3880 C   0  0  0  0  0  0  0  0  0  0  0  0
   46.7260   29.2620   43.6540 S   0  0  0  0  0  0  0  0  0  0  0  0
   46.1320   28.6520   45.1500 C   0  0  0  0  0  0  0  0  0  0  0  0
   44.7360   28.5990   45.1660 C   0  0  0  0  0  0  0  0  0  0  0  0
   43.9640   28.1300   46.2350 C   0  0  0  0  0  0  0  0  0  0  0  0
   44.6570   27.7030   47.3300 C   0  0  0  0  0  0  0  0  0  0  0  0
   46.0080   27.7490   47.3240 C   0  0  0  0  0  0  0  0  0  0  0  0
   46.8050   28.2110   46.2650 C   0  0  0  0  0  0  0  0  0  0  0  0
   48.2570   28.1730   46.2910 C   0  0  0  0  0  0  0  0  0  0  0  0
   48.8990   29.2090   45.6390 F   0  0  0  0  0  0  0  0  0  0  0  0
   48.5440   27.1140   45.3320 F   0  0  0  0  0  0  0  0  0  0  0  0
   48.8780   27.6670   47.3830 F   0  0  0  0  0  0  0  0  0  0  0  0
   48.2668   31.1445   44.5889 H   0  0  0  0  0  0  0  0  0  0  0  0
   43.9124   37.0110   44.2830 H   0  0  0  0  0  0  0  0  0  0  0  0
   43.7568   36.1604   41.9379 H   0  0  0  0  0  0  0  0  0  0  0  0
   44.6690   33.7724   41.4577 H   0  0  0  0  0  0  0  0  0  0  0  0
   46.3319   32.1368   48.7961 H   0  0  0  0  0  0  0  0  0  0  0  0
   47.8216   30.9412   46.9655 H   0  0  0  0  0  0  0  0  0  0  0  0
   48.3723   33.7716   44.3033 H   0  0  0  0  0  0  0  0  0  0  0  0
   48.8761   32.7256   42.9327 H   0  0  0  0  0  0  0  0  0  0  0  0
   47.2475   33.4835   42.9327 H   0  0  0  0  0  0  0  0  0  0  0  0
   46.9984   31.2470   42.3590 H   0  0  0  0  0  0  0  0  0  0  0  0
   45.6245   31.3442   43.5854 H   0  0  0  0  0  0  0  0  0  0  0  0
   44.2034   28.9526   44.2708 H   0  0  0  0  0  0  0  0  0  0  0  0
   42.8650   28.1070   46.1948 H   0  0  0  0  0  0  0  0  0  0  0  0
   44.1199   27.3238   48.2119 H   0  0  0  0  0  0  0  0  0  0  0  0
   46.5273   27.3939   48.2264 H   0  0  0  0  0  0  0  0  0  0  0  0
  1 12  1  0
  2  7  2  0
  3  2  1  0
  4  3  2  0
  4  5  1  0
  5  6  2  0
  6  7  1  0
  6  8  1  0
  8  9  1  0
  9 10  2  0
 11 10  1  0
 12  8  1  0
 12 11  2  0
 13  1  1  0
 14 15  1  0
 14  1  1  0
 15 16  1  0
 16 17  2  0
 16 21  1  0
 17 18  1  0
 18 19  2  0
 20 19  1  0
 21 22  1  0
 21 20  2  0
 22 25  1  0
 23 22  1  0
 24 22  1  0
  1 26  1  1
  2 27  1  0
  3 28  1  0
  4 29  1  0
 10 30  1  0
 11 31  1  0
 13 32  1  0
 13 33  1  0
 13 34  1  0
 14 35  1  0
 14 36  1  0
 17 37  1  0
 18 38  1  0
 19 39  1  0
 20 40  1  0
M  ISO  8  26   8  27  14  28  14  29  14  30  14  31  14  32   8  33   8
M  ISO  7  34   8  35   8  36   8  37  14  38  14  39  14  40  14
M  END
>  <minimizedAffinity>  (1) 
-4.30940914

>  <minimizedRMSD>  (1) 
1.44249141

$$$$
