
     RDKit          3D

 46 48  0  0  1  0  0  0  0  0999 V2000
   47.5250   31.8760   44.2310 C   0  0  2  0  0  0  0  0  0  0  0  0
   44.2570   35.9940   44.0320 C   0  0  0  0  0  0  0  0  0  0  0  0
   44.1850   35.5460   42.7230 C   0  0  0  0  0  0  0  0  0  0  0  0
   44.7030   34.2500   42.4280 C   0  0  0  0  0  0  0  0  0  0  0  0
   45.2070   33.6400   43.5310 N   0  0  0  0  0  0  0  0  0  0  0  0
   45.2970   33.9970   44.7360 C   0  0  0  0  0  0  0  0  0  0  0  0
   44.8040   35.2150   44.9910 N   0  0  0  0  0  0  0  0  0  0  0  0
   45.8520   33.2210   45.7530 N   0  0  0  0  0  0  0  0  0  0  0  0
   45.5620   33.2220   47.0530 N   0  0  0  0  0  0  0  0  0  0  0  0
   46.3240   32.3150   47.6730 C   0  0  0  0  0  0  0  0  0  0  0  0
   47.1070   31.7370   46.7330 C   0  0  0  0  0  0  0  0  0  0  0  0
   46.8220   32.3080   45.4770 C   0  0  0  0  0  0  0  0  0  0  0  0
   48.0320   33.1000   43.5290 C   0  0  0  0  0  0  0  0  0  0  0  0
   46.7520   31.0690   43.3390 C   0  0  0  0  0  0  0  0  0  0  0  0
   46.8060   29.2990   43.6570 S   0  0  0  0  0  0  0  0  0  0  0  0
   46.2730   28.7110   45.1740 C   0  0  0  0  0  0  0  0  0  0  0  0
   44.9170   28.9700   45.3840 C   0  0  0  0  0  0  0  0  0  0  0  0
   44.2080   28.6110   46.5290 C   0  0  0  0  0  0  0  0  0  0  0  0
   44.9050   27.9580   47.5100 C   0  0  0  0  0  0  0  0  0  0  0  0
   46.2160   27.7040   47.3130 C   0  0  0  0  0  0  0  0  0  0  0  0
   46.9500   28.0530   46.1730 C   0  0  0  0  0  0  0  0  0  0  0  0
   48.3490   27.7390   45.9620 C   0  0  0  0  0  0  0  0  0  0  0  0
   49.1690   28.8860   45.4200 C   0  0  0  0  0  0  0  0  0  0  0  0
   48.3180   26.8230   44.6970 C   0  0  0  0  0  0  0  0  0  0  0  0
   48.3463   31.2156   44.5463 H   0  0  0  0  0  0  0  0  0  0  0  0
   43.8668   36.9891   44.2920 H   0  0  0  0  0  0  0  0  0  0  0  0
   43.7414   36.1713   41.9342 H   0  0  0  0  0  0  0  0  0  0  0  0
   44.6950   33.7983   41.4251 H   0  0  0  0  0  0  0  0  0  0  0  0
   46.3159   32.0819   48.7480 H   0  0  0  0  0  0  0  0  0  0  0  0
   47.8487   30.9464   46.9199 H   0  0  0  0  0  0  0  0  0  0  0  0
   48.3418   33.8479   44.2737 H   0  0  0  0  0  0  0  0  0  0  0  0
   48.8929   32.8313   42.8991 H   0  0  0  0  0  0  0  0  0  0  0  0
   47.2333   33.5187   42.8991 H   0  0  0  0  0  0  0  0  0  0  0  0
   47.1223   31.2418   42.3177 H   0  0  0  0  0  0  0  0  0  0  0  0
   45.7048   31.3717   43.4866 H   0  0  0  0  0  0  0  0  0  0  0  0
   44.3687   29.4954   44.5882 H   0  0  0  0  0  0  0  0  0  0  0  0
   43.1381   28.8416   46.6394 H   0  0  0  0  0  0  0  0  0  0  0  0
   44.4067   27.6466   48.4399 H   0  0  0  0  0  0  0  0  0  0  0  0
   46.7532   27.1783   48.1162 H   0  0  0  0  0  0  0  0  0  0  0  0
   48.7611   27.3760   46.9151 H   0  0  0  0  0  0  0  0  0  0  0  0
   49.5845   29.4671   46.2565 H   0  0  0  0  0  0  0  0  0  0  0  0
   49.9905   28.4907   44.8044 H   0  0  0  0  0  0  0  0  0  0  0  0
   48.5292   29.5354   44.8044 H   0  0  0  0  0  0  0  0  0  0  0  0
   48.2823   25.7686   45.0086 H   0  0  0  0  0  0  0  0  0  0  0  0
   47.4273   27.0580   44.0958 H   0  0  0  0  0  0  0  0  0  0  0  0
   49.2226   26.9973   44.0958 H   0  0  0  0  0  0  0  0  0  0  0  0
  1 12  1  0
  2  7  2  0
  3  2  1  0
  4  3  2  0
  4  5  1  0
  5  6  2  0
  6  7  1  0
  6  8  1  0
  8  9  1  0
  9 10  2  0
 11 10  1  0
 12  8  1  0
 12 11  2  0
 13  1  1  0
 14 15  1  0
 14  1  1  0
 15 16  1  0
 16 17  2  0
 16 21  1  0
 17 18  1  0
 18 19  2  0
 20 19  1  0
 21 20  2  0
 22 21  1  0
 23 22  1  0
 24 22  1  0
  1 25  1  1
  2 26  1  0
  3 27  1  0
  4 28  1  0
 10 29  1  0
 11 30  1  0
 13 31  1  0
 13 32  1  0
 13 33  1  0
 14 34  1  0
 14 35  1  0
 17 36  1  0
 18 37  1  0
 19 38  1  0
 20 39  1  0
 22 40  1  0
 23 41  1  0
 23 42  1  0
 23 43  1  0
 24 44  1  0
 24 45  1  0
 24 46  1  0
M  ISO  8  25   8  26  14  27  14  28  14  29  14  30  14  31   8  32   8
M  ISO  8  33   8  34   8  35   8  36  14  37  14  38  14  39  14  40   8
M  ISO  6  41   8  42   8  43   8  44   8  45   8  46   8
M  END
>  <minimizedAffinity>  (1) 
-4.26575089

>  <minimizedRMSD>  (1) 
1.08986104

$$$$
