
     RDKit          3D

 38 40  0  0  1  0  0  0  0  0999 V2000
   46.6710   31.3730   44.5970 C   0  0  2  0  0  0  0  0  0  0  0  0
   44.7660   36.2340   43.9460 C   0  0  0  0  0  0  0  0  0  0  0  0
   44.5930   35.7090   42.6690 C   0  0  0  0  0  0  0  0  0  0  0  0
   44.7230   34.3020   42.4970 C   0  0  0  0  0  0  0  0  0  0  0  0
   45.0080   33.6660   43.6650 N   0  0  0  0  0  0  0  0  0  0  0  0
   45.1740   34.0890   44.8430 C   0  0  0  0  0  0  0  0  0  0  0  0
   45.0430   35.4150   44.9580 N   0  0  0  0  0  0  0  0  0  0  0  0
   45.4630   33.2790   45.9430 N   0  0  0  0  0  0  0  0  0  0  0  0
   45.1700   33.4870   47.2270 N   0  0  0  0  0  0  0  0  0  0  0  0
   45.6210   32.4570   47.9480 C   0  0  0  0  0  0  0  0  0  0  0  0
   46.2030   31.5960   47.0870 C   0  0  0  0  0  0  0  0  0  0  0  0
   46.1180   32.1010   45.7760 C   0  0  0  0  0  0  0  0  0  0  0  0
   47.7260   32.2270   43.9600 C   0  0  0  0  0  0  0  0  0  0  0  0
   45.6910   30.9440   43.6370 C   0  0  0  0  0  0  0  0  0  0  0  0
   44.6350   29.5370   44.1320 S   0  0  0  0  0  0  0  0  0  0  0  0
   45.3170   28.5060   45.3570 C   0  0  0  0  0  0  0  0  0  0  0  0
   44.4730   28.5030   46.4730 C   0  0  0  0  0  0  0  0  0  0  0  0
   44.7430   27.7530   47.6270 C   0  0  0  0  0  0  0  0  0  0  0  0
   45.8910   26.9950   47.6420 C   0  0  0  0  0  0  0  0  0  0  0  0
   46.7000   27.0040   46.5610 C   0  0  0  0  0  0  0  0  0  0  0  0
   46.4530   27.7290   45.4250 C   0  0  0  0  0  0  0  0  0  0  0  0
   47.1800   27.8360   44.2520 O   0  0  0  0  0  0  0  0  0  0  0  0
   47.1029   30.4332   44.9715 H   0  0  0  0  0  0  0  0  0  0  0  0
   44.6746   37.3167   44.1177 H   0  0  0  0  0  0  0  0  0  0  0  0
   44.3621   36.3635   41.8156 H   0  0  0  0  0  0  0  0  0  0  0  0
   44.6065   33.7885   41.5312 H   0  0  0  0  0  0  0  0  0  0  0  0
   45.5344   32.3338   49.0376 H   0  0  0  0  0  0  0  0  0  0  0  0
   46.6735   30.6422   47.3678 H   0  0  0  0  0  0  0  0  0  0  0  0
   48.3265   32.7131   44.7431 H   0  0  0  0  0  0  0  0  0  0  0  0
   48.3779   31.5991   43.3348 H   0  0  0  0  0  0  0  0  0  0  0  0
   47.2477   32.9953   43.3348 H   0  0  0  0  0  0  0  0  0  0  0  0
   46.2245   30.6560   42.7192 H   0  0  0  0  0  0  0  0  0  0  0  0
   45.0063   31.7963   43.5157 H   0  0  0  0  0  0  0  0  0  0  0  0
   43.5592   29.1147   46.4441 H   0  0  0  0  0  0  0  0  0  0  0  0
   44.0608   27.7702   48.4898 H   0  0  0  0  0  0  0  0  0  0  0  0
   46.1467   26.3891   48.5238 H   0  0  0  0  0  0  0  0  0  0  0  0
   47.6133   26.3918   46.5944 H   0  0  0  0  0  0  0  0  0  0  0  0
   48.0269   27.3341   44.1470 H   0  0  0  0  0  0  0  0  0  0  0  0
  1 12  1  0
  2  7  2  0
  3  2  1  0
  4  3  2  0
  4  5  1  0
  5  6  2  0
  6  7  1  0
  6  8  1  0
  8  9  1  0
  9 10  2  0
 11 10  1  0
 12  8  1  0
 12 11  2  0
 13  1  1  0
 14 15  1  0
 14  1  1  0
 15 16  1  0
 16 21  1  0
 16 17  2  0
 17 18  1  0
 18 19  2  0
 20 19  1  0
 21 20  2  0
 22 21  1  0
  1 23  1  1
  2 24  1  0
  3 25  1  0
  4 26  1  0
 10 27  1  0
 11 28  1  0
 13 29  1  0
 13 30  1  0
 13 31  1  0
 14 32  1  0
 14 33  1  0
 17 34  1  0
 18 35  1  0
 19 36  1  0
 20 37  1  0
 22 38  1  0
M  ISO  8  23   8  24  14  25  14  26  14  27  14  28  14  29   8  30   8
M  ISO  8  31   8  32   8  33   8  34  14  35  14  36  14  37  14  38   3
M  END
>  <minimizedAffinity>  (1) 
-4.16885757

>  <minimizedRMSD>  (1) 
0.302177608

$$$$
