
     RDKit          3D

 42 45  0  0  1  0  0  0  0  0999 V2000
   46.9420   31.5450   44.6300 C   0  0  2  0  0  0  0  0  0  0  0  0
   44.6670   36.2560   44.1310 C   0  0  0  0  0  0  0  0  0  0  0  0
   44.5830   35.7900   42.8200 C   0  0  0  0  0  0  0  0  0  0  0  0
   44.8270   34.4060   42.5940 C   0  0  0  0  0  0  0  0  0  0  0  0
   45.1110   33.7510   43.7460 N   0  0  0  0  0  0  0  0  0  0  0  0
   45.2010   34.1140   44.9480 C   0  0  0  0  0  0  0  0  0  0  0  0
   44.9680   35.4130   45.1270 N   0  0  0  0  0  0  0  0  0  0  0  0
   45.5140   33.2670   46.0100 N   0  0  0  0  0  0  0  0  0  0  0  0
   45.1510   33.3770   47.2900 N   0  0  0  0  0  0  0  0  0  0  0  0
   45.6650   32.3460   47.9740 C   0  0  0  0  0  0  0  0  0  0  0  0
   46.3590   31.5880   47.0970 C   0  0  0  0  0  0  0  0  0  0  0  0
   46.2830   32.1550   45.8120 C   0  0  0  0  0  0  0  0  0  0  0  0
   47.8130   32.5850   43.9930 C   0  0  0  0  0  0  0  0  0  0  0  0
   46.0330   30.9630   43.6720 C   0  0  0  0  0  0  0  0  0  0  0  0
   45.8820   29.1790   43.7290 S   0  0  0  0  0  0  0  0  0  0  0  0
   45.7210   28.4040   45.2540 C   0  0  0  0  0  0  0  0  0  0  0  0
   44.3880   28.1600   45.5800 C   0  0  0  0  0  0  0  0  0  0  0  0
   43.9400   27.5640   46.7620 C   0  0  0  0  0  0  0  0  0  0  0  0
   44.9020   27.1980   47.6570 C   0  0  0  0  0  0  0  0  0  0  0  0
   46.1950   27.4260   47.3530 C   0  0  0  0  0  0  0  0  0  0  0  0
   46.6630   28.0190   46.1750 C   0  0  0  0  0  0  0  0  0  0  0  0
   48.0940   28.1460   45.9400 C   0  0  0  0  0  0  0  0  0  0  0  0
   49.0410   27.6890   45.1480 N   0  0  0  0  0  0  0  0  0  0  0  0
   50.1620   28.2100   45.4110 O   0  0  0  0  0  0  0  0  0  0  0  0
   50.0640   29.0490   46.3860 C   0  0  0  0  0  0  0  0  0  0  0  0
   48.7820   28.9970   46.7000 N   0  0  0  0  0  0  0  0  0  0  0  0
   47.5402   30.6930   44.9853 H   0  0  0  0  0  0  0  0  0  0  0  0
   44.4856   37.3190   44.3480 H   0  0  0  0  0  0  0  0  0  0  0  0
   44.3368   36.4679   41.9894 H   0  0  0  0  0  0  0  0  0  0  0  0
   44.7896   33.9264   41.6047 H   0  0  0  0  0  0  0  0  0  0  0  0
   45.5443   32.1525   49.0501 H   0  0  0  0  0  0  0  0  0  0  0  0
   46.9022   30.6655   47.3500 H   0  0  0  0  0  0  0  0  0  0  0  0
   48.3091   33.1774   44.7759 H   0  0  0  0  0  0  0  0  0  0  0  0
   48.5731   32.0938   43.3678 H   0  0  0  0  0  0  0  0  0  0  0  0
   47.1960   33.2471   43.3678 H   0  0  0  0  0  0  0  0  0  0  0  0
   46.3792   31.2409   42.6656 H   0  0  0  0  0  0  0  0  0  0  0  0
   45.0376   31.3564   43.9258 H   0  0  0  0  0  0  0  0  0  0  0  0
   43.6258   28.4614   44.8464 H   0  0  0  0  0  0  0  0  0  0  0  0
   42.8705   27.3991   46.9597 H   0  0  0  0  0  0  0  0  0  0  0  0
   44.6270   26.7246   48.6111 H   0  0  0  0  0  0  0  0  0  0  0  0
   46.9473   27.1196   48.0947 H   0  0  0  0  0  0  0  0  0  0  0  0
   50.8558   29.6595   46.8446 H   0  0  0  0  0  0  0  0  0  0  0  0
  1 12  1  0
  2  7  2  0
  3  2  1  0
  4  3  2  0
  4  5  1  0
  5  6  2  0
  6  7  1  0
  6  8  1  0
  8  9  1  0
  9 10  2  0
 11 10  1  0
 12  8  1  0
 12 11  2  0
 13  1  1  0
 14 15  1  0
 14  1  1  0
 15 16  1  0
 16 17  2  0
 16 21  1  0
 17 18  1  0
 18 19  2  0
 20 19  1  0
 21 20  2  0
 22 21  1  0
 22 26  1  0
 23 24  1  0
 23 22  2  0
 24 25  1  0
 25 26  2  0
  1 27  1  1
  2 28  1  0
  3 29  1  0
  4 30  1  0
 10 31  1  0
 11 32  1  0
 13 33  1  0
 13 34  1  0
 13 35  1  0
 14 36  1  0
 14 37  1  0
 17 38  1  0
 18 39  1  0
 19 40  1  0
 20 41  1  0
 25 42  1  0
M  ISO  8  27   8  28  14  29  14  30  14  31  14  32  14  33   8  34   8
M  ISO  8  35   8  36   8  37   8  38  14  39  14  40  14  41  14  42  14
M  END
>  <minimizedAffinity>  (1) 
-4.28736401

>  <minimizedRMSD>  (1) 
1.49125838

$$$$
