
     RDKit          3D

 44 47  0  0  1  0  0  0  0  0999 V2000
   46.9590   31.5700   44.6300 C   0  0  2  0  0  0  0  0  0  0  0  0
   44.6420   36.2660   44.1490 C   0  0  0  0  0  0  0  0  0  0  0  0
   44.5730   35.8080   42.8490 C   0  0  0  0  0  0  0  0  0  0  0  0
   44.8370   34.4290   42.6070 C   0  0  0  0  0  0  0  0  0  0  0  0
   45.1260   33.7520   43.7480 N   0  0  0  0  0  0  0  0  0  0  0  0
   45.2030   34.1170   44.9540 C   0  0  0  0  0  0  0  0  0  0  0  0
   44.9480   35.4180   45.1310 N   0  0  0  0  0  0  0  0  0  0  0  0
   45.5160   33.2700   46.0170 N   0  0  0  0  0  0  0  0  0  0  0  0
   45.1490   33.3720   47.2960 N   0  0  0  0  0  0  0  0  0  0  0  0
   45.6640   32.3430   47.9810 C   0  0  0  0  0  0  0  0  0  0  0  0
   46.3630   31.5980   47.1000 C   0  0  0  0  0  0  0  0  0  0  0  0
   46.2880   32.1710   45.8190 C   0  0  0  0  0  0  0  0  0  0  0  0
   47.8110   32.6210   43.9830 C   0  0  0  0  0  0  0  0  0  0  0  0
   46.0760   30.9540   43.6790 C   0  0  0  0  0  0  0  0  0  0  0  0
   45.9700   29.1510   43.7420 S   0  0  0  0  0  0  0  0  0  0  0  0
   45.8910   28.4280   45.3140 C   0  0  0  0  0  0  0  0  0  0  0  0
   44.5720   28.2980   45.7380 C   0  0  0  0  0  0  0  0  0  0  0  0
   44.2050   27.7300   46.9660 C   0  0  0  0  0  0  0  0  0  0  0  0
   45.2150   27.2870   47.7760 C   0  0  0  0  0  0  0  0  0  0  0  0
   46.4960   27.4120   47.3670 C   0  0  0  0  0  0  0  0  0  0  0  0
   46.8460   27.9680   46.1660 C   0  0  0  0  0  0  0  0  0  0  0  0
   48.1840   28.0580   45.7620 N   0  0  0  0  0  0  0  0  0  0  0  0
   49.1070   27.5500   44.8880 C   0  0  0  0  0  0  0  0  0  0  0  0
   50.3180   28.1870   45.0770 C   0  0  0  0  0  0  0  0  0  0  0  0
   50.1680   29.0850   46.0550 N   0  0  0  0  0  0  0  0  0  0  0  0
   48.8940   29.0030   46.4580 C   0  0  0  0  0  0  0  0  0  0  0  0
   47.5735   30.7346   44.9968 H   0  0  0  0  0  0  0  0  0  0  0  0
   44.4456   37.3248   44.3736 H   0  0  0  0  0  0  0  0  0  0  0  0
   44.3211   36.4888   42.0225 H   0  0  0  0  0  0  0  0  0  0  0  0
   44.8098   33.9657   41.6097 H   0  0  0  0  0  0  0  0  0  0  0  0
   45.5407   32.1435   49.0557 H   0  0  0  0  0  0  0  0  0  0  0  0
   46.9112   30.6771   47.3479 H   0  0  0  0  0  0  0  0  0  0  0  0
   48.3011   33.2255   44.7604 H   0  0  0  0  0  0  0  0  0  0  0  0
   48.5761   32.1386   43.3570 H   0  0  0  0  0  0  0  0  0  0  0  0
   47.1807   33.2698   43.3570 H   0  0  0  0  0  0  0  0  0  0  0  0
   46.4179   31.2353   42.6720 H   0  0  0  0  0  0  0  0  0  0  0  0
   45.0693   31.3176   43.9328 H   0  0  0  0  0  0  0  0  0  0  0  0
   43.7739   28.6606   45.0735 H   0  0  0  0  0  0  0  0  0  0  0  0
   43.1501   27.6441   47.2656 H   0  0  0  0  0  0  0  0  0  0  0  0
   44.9856   26.8332   48.7514 H   0  0  0  0  0  0  0  0  0  0  0  0
   47.2957   27.0501   48.0300 H   0  0  0  0  0  0  0  0  0  0  0  0
   48.9143   26.7576   44.1498 H   0  0  0  0  0  0  0  0  0  0  0  0
   51.2452   27.9893   44.5191 H   0  0  0  0  0  0  0  0  0  0  0  0
   48.4645   29.6241   47.2579 H   0  0  0  0  0  0  0  0  0  0  0  0
  1 12  1  0
  2  7  2  0
  3  2  1  0
  4  3  2  0
  4  5  1  0
  5  6  2  0
  6  7  1  0
  6  8  1  0
  8  9  1  0
  9 10  2  0
 11 10  1  0
 12  8  1  0
 12 11  2  0
 13  1  1  0
 14 15  1  0
 14  1  1  0
 15 16  1  0
 16 17  2  0
 16 21  1  0
 17 18  1  0
 18 19  2  0
 20 19  1  0
 21 20  2  0
 22 21  1  0
 22 26  1  0
 23 24  2  0
 23 22  1  0
 24 25  1  0
 25 26  2  0
  1 27  1  1
  2 28  1  0
  3 29  1  0
  4 30  1  0
 10 31  1  0
 11 32  1  0
 13 33  1  0
 13 34  1  0
 13 35  1  0
 14 36  1  0
 14 37  1  0
 17 38  1  0
 18 39  1  0
 19 40  1  0
 20 41  1  0
 23 42  1  0
 24 43  1  0
 26 44  1  0
M  ISO  8  27   8  28  14  29  14  30  14  31  14  32  14  33   8  34   8
M  ISO  8  35   8  36   8  37   8  38  14  39  14  40  14  41  14  42  14
M  ISO  2  43  14  44  14
M  END
>  <minimizedAffinity>  (1) 
-4.29071712

>  <minimizedRMSD>  (1) 
1.33945131

$$$$
