
     RDKit          3D

 29 31  0  0  0  0  0  0  0  0999 V2000
   47.3310   34.6870   42.0420 C   0  0  0  0  0  0  0  0  0  0  0  0
   48.1290   35.6430   41.7440 O   0  0  0  0  0  0  0  0  0  0  0  0
   44.5770   35.8790   44.3030 C   0  0  0  0  0  0  0  0  0  0  0  0
   45.4140   35.8470   43.1690 C   0  0  0  0  0  0  0  0  0  0  0  0
   46.4060   34.8350   43.1440 C   0  0  0  0  0  0  0  0  0  0  0  0
   46.4770   33.9800   44.2040 N   0  0  0  0  0  0  0  0  0  0  0  0
   45.6600   34.0510   45.2600 C   0  0  0  0  0  0  0  0  0  0  0  0
   44.7110   34.9940   45.3190 N   0  0  0  0  0  0  0  0  0  0  0  0
   47.3620   33.5190   41.3060 O   0  0  0  0  0  0  0  0  0  0  0  0
   47.2480   33.5860   39.9180 C   0  0  0  0  0  0  0  0  0  0  0  0
   48.2890   34.1480   39.1710 C   0  0  0  0  0  0  0  0  0  0  0  0
   48.2380   34.2450   37.7970 C   0  0  0  0  0  0  0  0  0  0  0  0
   47.1380   33.7800   37.1040 C   0  0  0  0  0  0  0  0  0  0  0  0
   46.1050   33.2240   37.8310 C   0  0  0  0  0  0  0  0  0  0  0  0
   45.0060   32.7630   37.1270 C   0  0  0  0  0  0  0  0  0  0  0  0
   43.9430   32.1940   37.8270 C   0  0  0  0  0  0  0  0  0  0  0  0
   44.0170   32.1080   39.2070 C   0  0  0  0  0  0  0  0  0  0  0  0
   45.1110   32.5670   39.9180 C   0  0  0  0  0  0  0  0  0  0  0  0
   46.1450   33.1230   39.2050 C   0  0  0  0  0  0  0  0  0  0  0  0
   43.7912   36.6463   44.3643 H   0  0  0  0  0  0  0  0  0  0  0  0
   45.3030   36.5694   42.3469 H   0  0  0  0  0  0  0  0  0  0  0  0
   45.7679   33.3311   46.0846 H   0  0  0  0  0  0  0  0  0  0  0  0
   49.1779   34.5251   39.6979 H   0  0  0  0  0  0  0  0  0  0  0  0
   49.0788   34.6956   37.2492 H   0  0  0  0  0  0  0  0  0  0  0  0
   47.0866   33.8504   36.0075 H   0  0  0  0  0  0  0  0  0  0  0  0
   44.9718   32.8444   36.0306 H   0  0  0  0  0  0  0  0  0  0  0  0
   43.0587   31.8190   37.2910 H   0  0  0  0  0  0  0  0  0  0  0  0
   43.1767   31.6591   39.7569 H   0  0  0  0  0  0  0  0  0  0  0  0
   45.1515   32.4896   41.0145 H   0  0  0  0  0  0  0  0  0  0  0  0
  1  5  1  0
  2  1  2  0
  3  8  2  0
  4  3  1  0
  5  4  2  0
  5  6  1  0
  6  7  2  0
  7  8  1  0
  9  1  1  0
 10  9  1  0
 11 10  2  0
 12 11  1  0
 13 12  2  0
 13 14  1  0
 14 19  2  0
 15 16  2  0
 15 14  1  0
 16 17  1  0
 17 18  2  0
 19 18  1  0
 19 10  1  0
  3 20  1  0
  4 21  1  0
  7 22  1  0
 11 23  1  0
 12 24  1  0
 13 25  1  0
 15 26  1  0
 16 27  1  0
 17 28  1  0
 18 29  1  0
M  ISO  8  20  14  21  14  22  14  23  14  24  14  25  14  26  14  27  14
M  ISO  2  28  14  29  14
M  END
>  <minimizedAffinity>  (1) 
-4.81209564

>  <minimizedRMSD>  (1) 
1.44104064

$$$$
