
     RDKit          3D

 35 37  0  0  1  0  0  0  0  0999 V2000
   46.6450   34.7860   42.0760 C   0  0  0  0  0  0  0  0  0  0  0  0
   47.9410   35.2500   42.0120 C   0  0  0  0  0  0  0  0  0  0  0  0
   48.7300   35.1320   40.8620 C   0  0  0  0  0  0  0  0  0  0  0  0
   48.1750   34.5120   39.7210 C   0  0  0  0  0  0  0  0  0  0  0  0
   46.8900   34.0560   39.8000 C   0  0  0  0  0  0  0  0  0  0  0  0
   46.1620   34.1970   40.9500 C   0  0  0  0  0  0  0  0  0  0  0  0
   44.8030   33.6990   40.9870 N   0  0  0  0  0  0  0  0  0  0  0  0
   43.5870   34.4220   40.5690 C   0  0  0  0  0  0  0  0  0  0  0  0
   42.4290   34.1120   41.4850 C   0  0  0  0  0  0  0  0  0  0  0  0
   42.2250   32.6710   41.4750 N   0  0  0  0  0  0  0  0  0  0  0  0
   43.3670   32.1230   42.2020 C   0  0  0  0  0  0  0  0  0  0  0  0
   44.6730   32.3570   41.4870 C   0  0  1  0  0  0  0  0  0  0  0  0
   44.9280   31.1210   40.1720 S   0  0  0  0  0  0  0  0  0  0  0  0
   44.4490   36.1160   44.8150 C   0  0  0  0  0  0  0  0  0  0  0  0
   45.0920   36.0390   43.5800 C   0  0  0  0  0  0  0  0  0  0  0  0
   45.9370   34.9630   43.3080 C   0  0  0  0  0  0  0  0  0  0  0  0
   46.1070   34.0160   44.2700 N   0  0  0  0  0  0  0  0  0  0  0  0
   45.4560   34.1330   45.4680 C   0  0  0  0  0  0  0  0  0  0  0  0
   44.6440   35.1640   45.7330 N   0  0  0  0  0  0  0  0  0  0  0  0
   48.3730   35.7328   42.9010 H   0  0  0  0  0  0  0  0  0  0  0  0
   49.7613   35.5144   40.8472 H   0  0  0  0  0  0  0  0  0  0  0  0
   48.7601   34.3997   38.7963 H   0  0  0  0  0  0  0  0  0  0  0  0
   46.4335   33.5681   38.9262 H   0  0  0  0  0  0  0  0  0  0  0  0
   43.7856   35.5036   40.5943 H   0  0  0  0  0  0  0  0  0  0  0  0
   43.3225   34.1013   39.5506 H   0  0  0  0  0  0  0  0  0  0  0  0
   42.6592   34.4499   42.5062 H   0  0  0  0  0  0  0  0  0  0  0  0
   41.5207   34.6303   41.1438 H   0  0  0  0  0  0  0  0  0  0  0  0
   41.3434   32.4268   41.9484 H   0  0  0  0  0  0  0  0  0  0  0  0
   43.4166   32.5998   43.1921 H   0  0  0  0  0  0  0  0  0  0  0  0
   43.2208   31.0358   42.2833 H   0  0  0  0  0  0  0  0  0  0  0  0
   45.4713   32.2317   42.2333 H   0  0  0  0  0  0  0  0  0  0  0  0
   45.1802   29.8986   40.7369 H   0  0  0  0  0  0  0  0  0  0  0  0
   43.7803   36.9614   45.0342 H   0  0  0  0  0  0  0  0  0  0  0  0
   44.9337   36.8226   42.8244 H   0  0  0  0  0  0  0  0  0  0  0  0
   45.6040   33.3583   46.2347 H   0  0  0  0  0  0  0  0  0  0  0  0
  1 16  1  0
  2  1  2  0
  3  2  1  0
  4  5  1  0
  4  3  2  0
  5  6  2  0
  6  7  1  0
  6  1  1  0
  7 12  1  0
  8  7  1  0
  8  9  1  0
 10  9  1  0
 10 11  1  0
 12 11  1  0
 13 12  1  0
 14 19  2  0
 15 14  1  0
 16 15  2  0
 16 17  1  0
 17 18  2  0
 18 19  1  0
  2 20  1  0
  3 21  1  0
  4 22  1  0
  5 23  1  0
  8 24  1  0
  8 25  1  0
  9 26  1  0
  9 27  1  0
 10 28  1  0
 11 29  1  0
 11 30  1  0
 12 31  1  1
 13 32  1  0
 14 33  1  0
 15 34  1  0
 18 35  1  0
M  ISO  8  20  14  21  14  22  14  23  14  24  13  25  13  26  13  27  13
M  ISO  8  28   5  29  13  30  13  31  13  32  11  33  14  34  14  35  14
M  END
>  <minimizedAffinity>  (1) 
-5.71092463

>  <minimizedRMSD>  (1) 
0.0267816838

$$$$
