
     RDKit          3D

 13 13  0  0  0  0  0  0  0  0999 V2000
   44.5380   36.0340   44.5090 C   0  0  0  0  0  0  0  0  0  0  0  0
   45.1420   36.0350   43.2390 C   0  0  0  0  0  0  0  0  0  0  0  0
   46.0130   34.9630   42.9530 C   0  0  0  0  0  0  0  0  0  0  0  0
   46.2060   34.0190   43.9080 N   0  0  0  0  0  0  0  0  0  0  0  0
   45.6060   34.0600   45.1090 C   0  0  0  0  0  0  0  0  0  0  0  0
   44.7710   35.0650   45.4150 N   0  0  0  0  0  0  0  0  0  0  0  0
   46.7040   34.8380   41.6840 C   0  0  0  0  0  0  0  0  0  0  0  0
   47.9420   35.1250   41.5900 O   0  0  0  0  0  0  0  0  0  0  0  0
   46.0180   34.4040   40.5570 O   0  0  0  0  0  0  0  0  0  0  0  0
   43.8518   36.8527   44.7714 H   0  0  0  0  0  0  0  0  0  0  0  0
   44.9452   36.8312   42.5060 H   0  0  0  0  0  0  0  0  0  0  0  0
   45.8000   33.2660   45.8452 H   0  0  0  0  0  0  0  0  0  0  0  0
   46.4912   34.3192   39.6916 H   0  0  0  0  0  0  0  0  0  0  0  0
  1  6  2  0
  2  1  1  0
  3  2  2  0
  3  4  1  0
  4  5  2  0
  5  6  1  0
  7  3  1  0
  8  7  2  0
  9  7  1  0
  1 10  1  0
  2 11  1  0
  5 12  1  0
  9 13  1  0
M  ISO  4  10  14  11  14  12  14  13   3
M  END
>  <minimizedAffinity>  (1) 
-3.46643901

>  <minimizedRMSD>  (1) 
0.83840555

$$$$
