
     RDKit          3D

 16 16  0  0  0  0  0  0  0  0999 V2000
   44.6810   35.1370   45.3940 C   0  0  0  0  0  0  0  0  0  0  0  0
   45.1840   35.3160   44.0850 C   0  0  0  0  0  0  0  0  0  0  0  0
   46.2260   34.4380   43.6900 C   0  0  0  0  0  0  0  0  0  0  0  0
   46.6630   33.5050   44.5700 N   0  0  0  0  0  0  0  0  0  0  0  0
   46.1480   33.3800   45.8010 C   0  0  0  0  0  0  0  0  0  0  0  0
   45.1680   34.1840   46.2160 N   0  0  0  0  0  0  0  0  0  0  0  0
   46.8230   34.5240   42.3800 C   0  0  0  0  0  0  0  0  0  0  0  0
   46.7510   33.5330   41.5690 O   0  0  0  0  0  0  0  0  0  0  0  0
   47.4780   35.6590   41.9670 O   0  0  0  0  0  0  0  0  0  0  0  0
   48.7840   35.5970   41.4100 C   0  0  0  0  0  0  0  0  0  0  0  0
   48.6620   35.4250   40.0270 F   0  0  0  0  0  0  0  0  0  0  0  0
   49.5060   34.5670   41.9500 F   0  0  0  0  0  0  0  0  0  0  0  0
   49.4860   36.7750   41.5650 F   0  0  0  0  0  0  0  0  0  0  0  0
   43.8721   35.7911   45.7516 H   0  0  0  0  0  0  0  0  0  0  0  0
   44.7901   36.0914   43.4115 H   0  0  0  0  0  0  0  0  0  0  0  0
   46.5382   32.6051   46.4772 H   0  0  0  0  0  0  0  0  0  0  0  0
  1  6  2  0
  2  1  1  0
  3  2  2  0
  3  4  1  0
  4  5  2  0
  5  6  1  0
  7  3  1  0
  8  7  2  0
  9  7  1  0
 10 13  1  0
 10 12  1  0
 10  9  1  0
 11 10  1  0
  1 14  1  0
  2 15  1  0
  5 16  1  0
M  ISO  3  14  14  15  14  16  14
M  END
>  <minimizedAffinity>  (1) 
-4.48370552

>  <minimizedRMSD>  (1) 
2.52108693

$$$$
