
     RDKit          3D

 21 22  0  0  0  0  0  0  0  0999 V2000
   44.9140   34.8890   41.6730 C   0  0  0  0  0  0  0  0  0  0  0  0
   45.8460   34.4510   40.9310 O   0  0  0  0  0  0  0  0  0  0  0  0
   44.6180   35.4650   45.3770 C   0  0  0  0  0  0  0  0  0  0  0  0
   44.4980   35.7230   44.0080 C   0  0  0  0  0  0  0  0  0  0  0  0
   44.9830   34.7360   43.1090 C   0  0  0  0  0  0  0  0  0  0  0  0
   45.5260   33.6160   43.6420 N   0  0  0  0  0  0  0  0  0  0  0  0
   45.6250   33.4020   44.9700 C   0  0  0  0  0  0  0  0  0  0  0  0
   45.1690   34.3300   45.8400 N   0  0  0  0  0  0  0  0  0  0  0  0
   43.8270   35.5170   41.0960 O   0  0  0  0  0  0  0  0  0  0  0  0
   42.6170   34.8060   41.1500 C   0  0  0  0  0  0  0  0  0  0  0  0
   42.5230   33.4750   40.7470 C   0  0  0  0  0  0  0  0  0  0  0  0
   41.3360   32.7730   40.7990 C   0  0  0  0  0  0  0  0  0  0  0  0
   40.2170   33.4010   41.2600 N   0  0  0  0  0  0  0  0  0  0  0  0
   40.3170   34.6900   41.6480 C   0  0  0  0  0  0  0  0  0  0  0  0
   41.4850   35.3940   41.6010 N   0  0  0  0  0  0  0  0  0  0  0  0
   44.2509   36.2125   46.0957 H   0  0  0  0  0  0  0  0  0  0  0  0
   44.0448   36.6557   43.6409 H   0  0  0  0  0  0  0  0  0  0  0  0
   46.0770   32.4719   45.3449 H   0  0  0  0  0  0  0  0  0  0  0  0
   43.4251   32.9672   40.3751 H   0  0  0  0  0  0  0  0  0  0  0  0
   41.2933   31.7231   40.4736 H   0  0  0  0  0  0  0  0  0  0  0  0
   39.4143   35.1969   42.0196 H   0  0  0  0  0  0  0  0  0  0  0  0
  1  5  1  0
  2  1  2  0
  3  8  2  0
  4  3  1  0
  5  6  1  0
  5  4  2  0
  6  7  2  0
  7  8  1  0
  9 10  1  0
  9  1  1  0
 10 15  2  0
 11 12  2  0
 11 10  1  0
 12 13  1  0
 13 14  2  0
 15 14  1  0
  3 16  1  0
  4 17  1  0
  7 18  1  0
 11 19  1  0
 12 20  1  0
 14 21  1  0
M  ISO  6  16  14  17  14  18  14  19  14  20  14  21  14
M  END
>  <minimizedAffinity>  (1) 
-4.23316145

>  <minimizedRMSD>  (1) 
4.65467072

$$$$
