
     RDKit          3D

 28 29  0  0  0  0  0  0  0  0999 V2000
   46.9000   34.9750   41.9460 C   0  0  0  0  0  0  0  0  0  0  0  0
   48.0820   35.4520   41.9090 O   0  0  0  0  0  0  0  0  0  0  0  0
   44.5190   35.8670   44.7010 C   0  0  0  0  0  0  0  0  0  0  0  0
   45.1820   35.9560   43.4760 C   0  0  0  0  0  0  0  0  0  0  0  0
   46.1490   34.9890   43.1780 C   0  0  0  0  0  0  0  0  0  0  0  0
   46.3780   34.0230   44.1090 N   0  0  0  0  0  0  0  0  0  0  0  0
   45.7260   33.9590   45.2790 C   0  0  0  0  0  0  0  0  0  0  0  0
   44.7950   34.8790   45.5820 N   0  0  0  0  0  0  0  0  0  0  0  0
   46.3390   34.4390   40.7890 O   0  0  0  0  0  0  0  0  0  0  0  0
   49.6410   32.5410   39.5980 N   0  0  0  0  0  0  0  0  0  0  0  0
   48.7670   32.8380   38.5020 C   0  0  0  0  0  0  0  0  0  0  0  0
   47.8690   33.9800   38.9910 C   0  0  0  0  0  0  0  0  0  0  0  0
   46.9950   33.3900   40.0670 C   0  0  0  0  0  0  0  0  0  0  0  0
   47.6920   32.5290   41.0540 C   0  0  0  0  0  0  0  0  0  0  0  0
   48.9030   31.8080   40.5850 C   0  0  0  0  0  0  0  0  0  0  0  0
   43.7554   36.6168   44.9553 H   0  0  0  0  0  0  0  0  0  0  0  0
   44.9511   36.7630   42.7651 H   0  0  0  0  0  0  0  0  0  0  0  0
   45.9537   33.1524   45.9914 H   0  0  0  0  0  0  0  0  0  0  0  0
   49.9935   33.4175   40.0082 H   0  0  0  0  0  0  0  0  0  0  0  0
   48.1615   31.9567   38.2436 H   0  0  0  0  0  0  0  0  0  0  0  0
   49.3274   33.1185   37.5980 H   0  0  0  0  0  0  0  0  0  0  0  0
   48.4799   34.7979   39.4007 H   0  0  0  0  0  0  0  0  0  0  0  0
   47.2691   34.4003   38.1703 H   0  0  0  0  0  0  0  0  0  0  0  0
   46.2900   32.7426   39.5250 H   0  0  0  0  0  0  0  0  0  0  0  0
   47.9923   33.1678   41.8977 H   0  0  0  0  0  0  0  0  0  0  0  0
   46.9687   31.7389   41.3043 H   0  0  0  0  0  0  0  0  0  0  0  0
   48.5926   30.8469   40.1492 H   0  0  0  0  0  0  0  0  0  0  0  0
   49.5622   31.6690   41.4546 H   0  0  0  0  0  0  0  0  0  0  0  0
  1  5  1  0
  2  1  2  0
  3  8  2  0
  4  3  1  0
  5  4  2  0
  5  6  1  0
  6  7  2  0
  7  8  1  0
  9  1  1  0
 10 15  1  0
 11 12  1  0
 11 10  1  0
 12 13  1  0
 13  9  1  0
 13 14  1  0
 15 14  1  0
  3 16  1  0
  4 17  1  0
  7 18  1  0
 10 19  1  0
 11 20  1  0
 11 21  1  0
 12 22  1  0
 12 23  1  0
 13 24  1  0
 14 25  1  0
 14 26  1  0
 15 27  1  0
 15 28  1  0
M  ISO  8  16  14  17  14  18  14  19   5  20  13  21  13  22  13  23  13
M  ISO  5  24  13  25  13  26  13  27  13  28  13
M  END
>  <minimizedAffinity>  (1) 
-4.36401558

>  <minimizedRMSD>  (1) 
1.22884846

$$$$
