
     RDKit          3D

 16 16  0  0  0  0  0  0  0  0999 V2000
   44.5090   36.0510   44.6190 C   0  0  0  0  0  0  0  0  0  0  0  0
   45.1670   35.9430   43.3860 C   0  0  0  0  0  0  0  0  0  0  0  0
   46.0100   34.8440   43.1950 C   0  0  0  0  0  0  0  0  0  0  0  0
   46.1360   33.9610   44.2040 N   0  0  0  0  0  0  0  0  0  0  0  0
   45.4870   34.0980   45.3790 C   0  0  0  0  0  0  0  0  0  0  0  0
   44.6750   35.1410   45.5850 N   0  0  0  0  0  0  0  0  0  0  0  0
   46.7490   34.6180   41.9590 C   0  0  0  0  0  0  0  0  0  0  0  0
   46.1290   34.4160   40.8710 O   0  0  0  0  0  0  0  0  0  0  0  0
   48.1290   34.6260   41.9700 O   0  0  0  0  0  0  0  0  0  0  0  0
   48.8040   35.5400   41.1600 C   0  0  0  0  0  0  0  0  0  0  0  0
   49.4040   36.5490   41.6340 O   0  0  0  0  0  0  0  0  0  0  0  0
   48.8500   35.3850   39.7610 O   0  0  0  0  0  0  0  0  0  0  0  0
   43.8394   36.9055   44.7965 H   0  0  0  0  0  0  0  0  0  0  0  0
   45.0252   36.6960   42.5968 H   0  0  0  0  0  0  0  0  0  0  0  0
   45.6263   33.3481   46.1717 H   0  0  0  0  0  0  0  0  0  0  0  0
   48.3988   34.6146   39.3332 H   0  0  0  0  0  0  0  0  0  0  0  0
  1  6  2  0
  2  1  1  0
  3  2  2  0
  3  4  1  0
  4  5  2  0
  5  6  1  0
  7  9  1  0
  7  3  1  0
  8  7  2  0
 10 11  2  0
 10  9  1  0
 12 10  1  0
  1 13  1  0
  2 14  1  0
  5 15  1  0
 12 16  1  0
M  ISO  4  13  14  14  14  15  14  16   3
M  END
>  <minimizedAffinity>  (1) 
-4.3625617

>  <minimizedRMSD>  (1) 
1.96810269

$$$$
