
     RDKit          3D

 48 51  0  0  1  0  0  0  0  0999 V2000
   45.0470   33.6030   40.9610 N   0  0  0  0  0  0  0  0  0  0  0  0
   43.8180   34.1350   40.3630 C   0  0  0  0  0  0  0  0  0  0  0  0
   42.6060   33.8790   41.2100 C   0  0  0  0  0  0  0  0  0  0  0  0
   42.5130   32.4450   41.4100 N   0  0  0  0  0  0  0  0  0  0  0  0
   43.6310   32.0990   42.3060 C   0  0  0  0  0  0  0  0  0  0  0  0
   44.9650   32.3480   41.6520 C   0  0  1  0  0  0  0  0  0  0  0  0
   46.7820   34.8220   42.0890 C   0  0  0  0  0  0  0  0  0  0  0  0
   48.0360   35.3860   42.0460 C   0  0  0  0  0  0  0  0  0  0  0  0
   48.8470   35.3430   40.9050 C   0  0  0  0  0  0  0  0  0  0  0  0
   48.3550   34.6940   39.7560 C   0  0  0  0  0  0  0  0  0  0  0  0
   47.1120   34.1390   39.8090 C   0  0  0  0  0  0  0  0  0  0  0  0
   46.3550   34.2030   40.9390 C   0  0  0  0  0  0  0  0  0  0  0  0
   44.4450   35.9130   44.8150 C   0  0  0  0  0  0  0  0  0  0  0  0
   45.1050   35.9150   43.5820 C   0  0  0  0  0  0  0  0  0  0  0  0
   46.0390   34.9280   43.3150 C   0  0  0  0  0  0  0  0  0  0  0  0
   46.2720   33.9970   44.2720 N   0  0  0  0  0  0  0  0  0  0  0  0
   45.6190   34.0170   45.4590 C   0  0  0  0  0  0  0  0  0  0  0  0
   44.7050   34.9800   45.7240 N   0  0  0  0  0  0  0  0  0  0  0  0
   45.4990   31.2370   40.9220 N   0  0  0  0  0  0  0  0  0  0  0  0
   45.0630   31.2320   39.5540 C   0  0  0  0  0  0  0  0  0  0  0  0
   46.2220   30.9430   38.6320 C   0  0  0  0  0  0  0  0  0  0  0  0
   46.7140   29.6330   39.0380 N   0  0  0  0  0  0  0  0  0  0  0  0
   47.2780   29.7460   40.3400 C   0  0  0  0  0  0  0  0  0  0  0  0
   46.8680   30.9510   41.1300 C   0  0  0  0  0  0  0  0  0  0  0  0
   43.9322   35.2210   40.2306 H   0  0  0  0  0  0  0  0  0  0  0  0
   43.6666   33.6226   39.4015 H   0  0  0  0  0  0  0  0  0  0  0  0
   42.7102   34.3881   42.1795 H   0  0  0  0  0  0  0  0  0  0  0  0
   41.6999   34.2627   40.7184 H   0  0  0  0  0  0  0  0  0  0  0  0
   41.6128   32.2001   41.8465 H   0  0  0  0  0  0  0  0  0  0  0  0
   43.5606   32.7113   43.2171 H   0  0  0  0  0  0  0  0  0  0  0  0
   43.5604   31.0277   42.5454 H   0  0  0  0  0  0  0  0  0  0  0  0
   45.6586   32.4488   42.4998 H   0  0  0  0  0  0  0  0  0  0  0  0
   48.4176   35.8918   42.9452 H   0  0  0  0  0  0  0  0  0  0  0  0
   49.8451   35.8054   40.9062 H   0  0  0  0  0  0  0  0  0  0  0  0
   48.9593   34.6367   38.8387 H   0  0  0  0  0  0  0  0  0  0  0  0
   46.7116   33.6286   38.9206 H   0  0  0  0  0  0  0  0  0  0  0  0
   43.7016   36.6935   45.0347 H   0  0  0  0  0  0  0  0  0  0  0  0
   44.8850   36.6907   42.8338 H   0  0  0  0  0  0  0  0  0  0  0  0
   45.8330   33.2451   46.2129 H   0  0  0  0  0  0  0  0  0  0  0  0
   44.2933   30.4573   39.4220 H   0  0  0  0  0  0  0  0  0  0  0  0
   44.6504   32.2216   39.3081 H   0  0  0  0  0  0  0  0  0  0  0  0
   47.0077   31.7038   38.7495 H   0  0  0  0  0  0  0  0  0  0  0  0
   45.9207   30.9599   37.5742 H   0  0  0  0  0  0  0  0  0  0  0  0
   45.9353   28.9590   39.0540 H   0  0  0  0  0  0  0  0  0  0  0  0
   46.9860   28.8530   40.9121 H   0  0  0  0  0  0  0  0  0  0  0  0
   48.3625   29.8467   40.1861 H   0  0  0  0  0  0  0  0  0  0  0  0
   47.4706   31.8146   40.8120 H   0  0  0  0  0  0  0  0  0  0  0  0
   47.0307   30.7480   42.1988 H   0  0  0  0  0  0  0  0  0  0  0  0
  1  6  1  0
  2  1  1  0
  2  3  1  0
  3  4  1  0
  4  5  1  0
  6  5  1  0
  7 15  1  0
  8  7  2  0
  9  8  1  0
 10 11  1  0
 10  9  2  0
 11 12  2  0
 12  1  1  0
 12  7  1  0
 13 18  2  0
 14 13  1  0
 15 14  2  0
 15 16  1  0
 16 17  2  0
 17 18  1  0
 19 24  1  0
 19  6  1  0
 20 19  1  0
 21 22  1  0
 21 20  1  0
 22 23  1  0
 23 24  1  0
  2 25  1  0
  2 26  1  0
  3 27  1  0
  3 28  1  0
  4 29  1  0
  5 30  1  0
  5 31  1  0
  6 32  1  1
  8 33  1  0
  9 34  1  0
 10 35  1  0
 11 36  1  0
 13 37  1  0
 14 38  1  0
 17 39  1  0
 20 40  1  0
 20 41  1  0
 21 42  1  0
 21 43  1  0
 22 44  1  0
 23 45  1  0
 23 46  1  0
 24 47  1  0
 24 48  1  0
M  ISO  8  25  13  26  13  27  13  28  13  29   5  30  13  31  13  32  13
M  ISO  8  33  14  34  14  35  14  36  14  37  14  38  14  39  14  40  13
M  ISO  8  41  13  42  13  43  13  44   5  45  13  46  13  47  13  48  13
M  END
>  <minimizedAffinity>  (1) 
-5.67272425

>  <minimizedRMSD>  (1) 
0.598852992

$$$$
