
     RDKit          3D

 25 25  0  0  0  0  0  0  0  0999 V2000
   44.5160   35.8600   44.7280 C   0  0  0  0  0  0  0  0  0  0  0  0
   45.1870   35.9580   43.5070 C   0  0  0  0  0  0  0  0  0  0  0  0
   46.1650   34.9870   43.1950 C   0  0  0  0  0  0  0  0  0  0  0  0
   46.3720   34.0220   44.1250 N   0  0  0  0  0  0  0  0  0  0  0  0
   45.7200   33.9460   45.2860 C   0  0  0  0  0  0  0  0  0  0  0  0
   44.7910   34.8570   45.5990 N   0  0  0  0  0  0  0  0  0  0  0  0
   46.9160   34.9960   41.9620 C   0  0  0  0  0  0  0  0  0  0  0  0
   48.0980   35.4640   41.9500 O   0  0  0  0  0  0  0  0  0  0  0  0
   46.3540   34.5030   40.8100 O   0  0  0  0  0  0  0  0  0  0  0  0
   46.9470   33.5620   39.9880 C   0  0  0  0  0  0  0  0  0  0  0  0
   47.5440   32.4450   40.8560 C   0  0  0  0  0  0  0  0  0  0  0  0
   45.9400   32.8650   39.0620 C   0  0  0  0  0  0  0  0  0  0  0  0
   48.0610   34.0380   39.1180 C   0  0  0  0  0  0  0  0  0  0  0  0
   43.7524   36.6080   44.9875 H   0  0  0  0  0  0  0  0  0  0  0  0
   44.9592   36.7728   42.8040 H   0  0  0  0  0  0  0  0  0  0  0  0
   45.9468   33.1311   45.9892 H   0  0  0  0  0  0  0  0  0  0  0  0
   47.4102   32.6953   41.9188 H   0  0  0  0  0  0  0  0  0  0  0  0
   47.0326   31.4964   40.6355 H   0  0  0  0  0  0  0  0  0  0  0  0
   48.6169   32.3431   40.6355 H   0  0  0  0  0  0  0  0  0  0  0  0
   45.1852   32.3426   39.6681 H   0  0  0  0  0  0  0  0  0  0  0  0
   45.4455   33.6150   38.4272 H   0  0  0  0  0  0  0  0  0  0  0  0
   46.4678   32.1380   38.4272 H   0  0  0  0  0  0  0  0  0  0  0  0
   48.8912   34.3927   39.7465 H   0  0  0  0  0  0  0  0  0  0  0  0
   48.4096   33.2103   38.4829 H   0  0  0  0  0  0  0  0  0  0  0  0
   47.7038   34.8621   38.4829 H   0  0  0  0  0  0  0  0  0  0  0  0
  1  6  2  0
  2  1  1  0
  3  2  2  0
  3  4  1  0
  4  5  2  0
  5  6  1  0
  7  3  1  0
  8  7  2  0
  9  7  1  0
 10  9  1  0
 10 11  1  0
 12 10  1  0
 13 10  1  0
  1 14  1  0
  2 15  1  0
  5 16  1  0
 11 17  1  0
 11 18  1  0
 11 19  1  0
 12 20  1  0
 12 21  1  0
 12 22  1  0
 13 23  1  0
 13 24  1  0
 13 25  1  0
M  ISO  8  14  14  15  14  16  14  17   8  18   8  19   8  20   8  21   8
M  ISO  4  22   8  23   8  24   8  25   8
M  END
>  <minimizedAffinity>  (1) 
-3.8467195

>  <minimizedRMSD>  (1) 
0.855269194

$$$$
