
     RDKit          3D

 15 15  0  0  0  0  0  0  0  0999 V2000
   46.0530   34.7790   43.3560 C   0  0  0  0  0  0  0  0  0  0  0  0
   46.4150   33.7970   44.2800 C   0  0  0  0  0  0  0  0  0  0  0  0
   45.7830   33.8250   45.5300 C   0  0  0  0  0  0  0  0  0  0  0  0
   44.8690   34.7880   45.7670 N   0  0  0  0  0  0  0  0  0  0  0  0
   44.5390   35.7210   44.8580 C   0  0  0  0  0  0  0  0  0  0  0  0
   45.1240   35.7210   43.6600 N   0  0  0  0  0  0  0  0  0  0  0  0
   46.0770   32.8540   46.5770 C   0  0  0  0  0  0  0  0  0  0  0  0
   47.1000   32.0850   46.4570 O   0  0  0  0  0  0  0  0  0  0  0  0
   45.2710   32.7520   47.6910 O   0  0  0  0  0  0  0  0  0  0  0  0
   45.8150   32.2750   48.8930 C   0  0  0  0  0  0  0  0  0  0  0  0
   45.1260   31.4600   49.5600 O   0  0  0  0  0  0  0  0  0  0  0  0
   46.5289   34.7896   42.3643 H   0  0  0  0  0  0  0  0  0  0  0  0
   47.1666   33.0317   44.0362 H   0  0  0  0  0  0  0  0  0  0  0  0
   43.7861   36.4848   45.1024 H   0  0  0  0  0  0  0  0  0  0  0  0
   46.8067   32.6012   49.2395 H   0  0  0  0  0  0  0  0  0  0  0  0
  1  6  2  0
  1  2  1  0
  2  3  2  0
  3  4  1  0
  3  7  1  0
  5  4  2  0
  6  5  1  0
  7  9  1  0
  8  7  2  0
  9 10  1  0
 10 11  2  0
  1 12  1  0
  2 13  1  0
  5 14  1  0
 10 15  1  0
M  ISO  4  12  14  13  14  14  14  15   6
M  END
>  <minimizedAffinity>  (1) 
-3.81739593

>  <minimizedRMSD>  (1) 
5.92051935

$$$$
