
     RDKit          3D

 19 19  0  0  0  0  0  0  0  0999 V2000
   44.5820   35.9790   44.5120 C   0  0  0  0  0  0  0  0  0  0  0  0
   45.3080   35.7150   43.3400 C   0  0  0  0  0  0  0  0  0  0  0  0
   46.1320   34.5830   43.3290 C   0  0  0  0  0  0  0  0  0  0  0  0
   46.1660   33.8200   44.4600 N   0  0  0  0  0  0  0  0  0  0  0  0
   45.4540   34.1080   45.5630 C   0  0  0  0  0  0  0  0  0  0  0  0
   44.6600   35.1890   45.5890 N   0  0  0  0  0  0  0  0  0  0  0  0
   46.9360   34.1890   42.1950 C   0  0  0  0  0  0  0  0  0  0  0  0
   46.6090   34.5480   41.0160 O   0  0  0  0  0  0  0  0  0  0  0  0
   48.0760   33.4090   42.4050 O   0  0  0  0  0  0  0  0  0  0  0  0
   49.2530   33.8290   41.7830 C   0  0  0  0  0  0  0  0  0  0  0  0
   49.7870   35.0760   42.4850 C   0  0  0  0  0  0  0  0  0  0  0  0
   43.9284   36.8631   44.5460 H   0  0  0  0  0  0  0  0  0  0  0  0
   45.2323   36.3735   42.4621 H   0  0  0  0  0  0  0  0  0  0  0  0
   45.5225   33.4559   46.4463 H   0  0  0  0  0  0  0  0  0  0  0  0
   50.0036   33.0269   41.8403 H   0  0  0  0  0  0  0  0  0  0  0  0
   49.0451   34.0642   40.7288 H   0  0  0  0  0  0  0  0  0  0  0  0
   49.7276   34.9372   43.5746 H   0  0  0  0  0  0  0  0  0  0  0  0
   50.8346   35.2409   42.1930 H   0  0  0  0  0  0  0  0  0  0  0  0
   49.1834   35.9480   42.1930 H   0  0  0  0  0  0  0  0  0  0  0  0
  1  6  2  0
  2  1  1  0
  3  2  2  0
  3  4  1  0
  4  5  2  0
  5  6  1  0
  7  9  1  0
  7  3  1  0
  8  7  2  0
 10  9  1  0
 10 11  1  0
  1 12  1  0
  2 13  1  0
  5 14  1  0
 10 15  1  0
 10 16  1  0
 11 17  1  0
 11 18  1  0
 11 19  1  0
M  ISO  8  12  14  13  14  14  14  15   8  16   8  17   8  18   8  19   8
M  END
>  <minimizedAffinity>  (1) 
-3.62401438

>  <minimizedRMSD>  (1) 
2.00579906

$$$$
