
     RDKit          3D

 16 16  0  0  0  0  0  0  0  0999 V2000
   44.5440   35.9930   44.4870 C   0  0  0  0  0  0  0  0  0  0  0  0
   45.2770   36.0330   43.2880 C   0  0  0  0  0  0  0  0  0  0  0  0
   46.2210   35.0150   43.0840 C   0  0  0  0  0  0  0  0  0  0  0  0
   46.3450   34.0870   44.0550 N   0  0  0  0  0  0  0  0  0  0  0  0
   45.6380   34.0700   45.1860 C   0  0  0  0  0  0  0  0  0  0  0  0
   44.7280   35.0340   45.4030 N   0  0  0  0  0  0  0  0  0  0  0  0
   47.0460   34.9340   41.8900 C   0  0  0  0  0  0  0  0  0  0  0  0
   48.2100   35.4530   41.8820 O   0  0  0  0  0  0  0  0  0  0  0  0
   46.5770   34.2980   40.7640 O   0  0  0  0  0  0  0  0  0  0  0  0
   47.4380   33.9350   39.7060 C   0  0  0  0  0  0  0  0  0  0  0  0
   43.7948   36.7752   44.6788 H   0  0  0  0  0  0  0  0  0  0  0  0
   45.1177   36.8267   42.5432 H   0  0  0  0  0  0  0  0  0  0  0  0
   45.7981   33.2769   45.9313 H   0  0  0  0  0  0  0  0  0  0  0  0
   48.3779   33.5387   40.1177 H   0  0  0  0  0  0  0  0  0  0  0  0
   46.9546   33.1641   39.0879 H   0  0  0  0  0  0  0  0  0  0  0  0
   47.6524   34.8193   39.0879 H   0  0  0  0  0  0  0  0  0  0  0  0
  1  6  2  0
  2  1  1  0
  3  2  2  0
  3  4  1  0
  4  5  2  0
  5  6  1  0
  7  3  1  0
  8  7  2  0
  9  7  1  0
 10  9  1  0
  1 11  1  0
  2 12  1  0
  5 13  1  0
 10 14  1  0
 10 15  1  0
 10 16  1  0
M  ISO  6  11  14  12  14  13  14  14   8  15   8  16   8
M  END
>  <minimizedAffinity>  (1) 
-3.45576167

>  <minimizedRMSD>  (1) 
0.425218374

$$$$
