
     RDKit          3D

 26 27  0  0  0  0  0  0  0  0999 V2000
   47.0580   34.5990   42.0750 C   0  0  0  0  0  0  0  0  0  0  0  0
   47.9050   35.4440   41.7090 O   0  0  0  0  0  0  0  0  0  0  0  0
   44.5650   36.0200   44.4600 C   0  0  0  0  0  0  0  0  0  0  0  0
   45.3260   35.9130   43.2880 C   0  0  0  0  0  0  0  0  0  0  0  0
   46.2160   34.8350   43.2050 C   0  0  0  0  0  0  0  0  0  0  0  0
   46.2560   34.0010   44.2630 N   0  0  0  0  0  0  0  0  0  0  0  0
   45.5280   34.1160   45.3690 C   0  0  0  0  0  0  0  0  0  0  0  0
   44.6670   35.1350   45.4820 N   0  0  0  0  0  0  0  0  0  0  0  0
   47.0150   33.4860   41.3350 O   0  0  0  0  0  0  0  0  0  0  0  0
   46.4610   33.3400   40.1100 C   0  0  0  0  0  0  0  0  0  0  0  0
   45.0690   33.2170   39.8870 C   0  0  0  0  0  0  0  0  0  0  0  0
   44.9010   33.0850   38.5600 N   0  0  0  0  0  0  0  0  0  0  0  0
   46.1090   33.1200   37.9610 C   0  0  0  0  0  0  0  0  0  0  0  0
   47.0670   33.2770   38.9320 N   0  0  0  0  0  0  0  0  0  0  0  0
   48.3730   33.3530   38.3230 C   0  0  0  0  0  0  0  0  0  0  0  0
   48.4540   34.5590   37.4340 C   0  0  0  0  0  0  0  0  0  0  0  0
   43.8562   36.8559   44.5545 H   0  0  0  0  0  0  0  0  0  0  0  0
   45.2286   36.6426   42.4705 H   0  0  0  0  0  0  0  0  0  0  0  0
   45.6317   33.3824   46.1821 H   0  0  0  0  0  0  0  0  0  0  0  0
   44.2780   33.2274   40.6513 H   0  0  0  0  0  0  0  0  0  0  0  0
   46.2948   33.0370   36.8800 H   0  0  0  0  0  0  0  0  0  0  0  0
   49.1382   33.4280   39.1097 H   0  0  0  0  0  0  0  0  0  0  0  0
   48.5447   32.4482   37.7215 H   0  0  0  0  0  0  0  0  0  0  0  0
   48.5150   35.4668   38.0522 H   0  0  0  0  0  0  0  0  0  0  0  0
   49.3493   34.4870   36.7990 H   0  0  0  0  0  0  0  0  0  0  0  0
   47.5571   34.6074   36.7990 H   0  0  0  0  0  0  0  0  0  0  0  0
  1  5  1  0
  2  1  2  0
  3  8  2  0
  4  3  1  0
  5  4  2  0
  5  6  1  0
  6  7  2  0
  7  8  1  0
  9  1  1  0
 10  9  1  0
 11 10  2  0
 12 11  1  0
 13 12  2  0
 13 14  1  0
 14 10  1  0
 15 14  1  0
 16 15  1  0
  3 17  1  0
  4 18  1  0
  7 19  1  0
 11 20  1  0
 13 21  1  0
 15 22  1  0
 15 23  1  0
 16 24  1  0
 16 25  1  0
 16 26  1  0
M  ISO  8  17  14  18  14  19  14  20  14  21  14  22   8  23   8  24   8
M  ISO  2  25   8  26   8
M  END
>  <minimizedAffinity>  (1) 
-4.1585865

>  <minimizedRMSD>  (1) 
1.6090554

$$$$
