
     RDKit          3D

 47 50  0  0  1  0  0  0  0  0999 V2000
   46.7800   34.8150   42.1020 C   0  0  0  0  0  0  0  0  0  0  0  0
   48.0350   35.3830   42.0650 C   0  0  0  0  0  0  0  0  0  0  0  0
   48.8360   35.3430   40.9210 C   0  0  0  0  0  0  0  0  0  0  0  0
   48.3390   34.7010   39.7690 C   0  0  0  0  0  0  0  0  0  0  0  0
   47.0900   34.1380   39.8150 C   0  0  0  0  0  0  0  0  0  0  0  0
   46.3450   34.2010   40.9540 C   0  0  0  0  0  0  0  0  0  0  0  0
   45.0290   33.6010   40.9830 N   0  0  0  0  0  0  0  0  0  0  0  0
   43.8100   34.1680   40.3910 C   0  0  0  0  0  0  0  0  0  0  0  0
   42.6020   33.8810   41.2270 C   0  0  0  0  0  0  0  0  0  0  0  0
   42.5020   32.4530   41.4110 N   0  0  0  0  0  0  0  0  0  0  0  0
   43.6140   32.0940   42.2870 C   0  0  0  0  0  0  0  0  0  0  0  0
   44.9540   32.3390   41.6630 C   0  0  1  0  0  0  0  0  0  0  0  0
   45.4500   31.2690   40.7640 C   0  0  0  0  0  0  0  0  0  0  0  0
   46.9140   30.9990   40.8110 C   0  0  0  0  0  0  0  0  0  0  0  0
   47.0970   30.0280   39.6520 C   0  0  0  0  0  0  0  0  0  0  0  0
   45.8980   30.2670   38.7250 C   0  0  0  0  0  0  0  0  0  0  0  0
   45.2460   31.5330   39.2980 C   0  0  0  0  0  0  0  0  0  0  0  0
   44.4470   35.9110   44.8360 C   0  0  0  0  0  0  0  0  0  0  0  0
   45.1060   35.9150   43.5990 C   0  0  0  0  0  0  0  0  0  0  0  0
   46.0400   34.9150   43.3370 C   0  0  0  0  0  0  0  0  0  0  0  0
   46.2680   33.9820   44.2930 N   0  0  0  0  0  0  0  0  0  0  0  0
   45.6040   34.0220   45.4740 C   0  0  0  0  0  0  0  0  0  0  0  0
   44.6980   34.9830   45.7420 N   0  0  0  0  0  0  0  0  0  0  0  0
   48.4187   35.8844   42.9658 H   0  0  0  0  0  0  0  0  0  0  0  0
   49.8349   35.8035   40.9195 H   0  0  0  0  0  0  0  0  0  0  0  0
   48.9420   34.6526   38.8503 H   0  0  0  0  0  0  0  0  0  0  0  0
   46.6863   33.6317   38.9258 H   0  0  0  0  0  0  0  0  0  0  0  0
   43.9308   35.2577   40.3018 H   0  0  0  0  0  0  0  0  0  0  0  0
   43.6613   33.7052   39.4042 H   0  0  0  0  0  0  0  0  0  0  0  0
   42.7013   34.3752   42.2047 H   0  0  0  0  0  0  0  0  0  0  0  0
   41.6987   34.2611   40.7275 H   0  0  0  0  0  0  0  0  0  0  0  0
   41.6035   32.2088   41.8513 H   0  0  0  0  0  0  0  0  0  0  0  0
   43.5417   32.6914   43.2078 H   0  0  0  0  0  0  0  0  0  0  0  0
   43.5379   31.0156   42.4899 H   0  0  0  0  0  0  0  0  0  0  0  0
   45.6224   32.3468   42.5366 H   0  0  0  0  0  0  0  0  0  0  0  0
   44.8518   30.4339   41.1575 H   0  0  0  0  0  0  0  0  0  0  0  0
   47.4950   31.9200   40.6557 H   0  0  0  0  0  0  0  0  0  0  0  0
   47.2604   30.6045   41.7776 H   0  0  0  0  0  0  0  0  0  0  0  0
   48.0392   30.2338   39.1229 H   0  0  0  0  0  0  0  0  0  0  0  0
   47.1450   28.9846   39.9970 H   0  0  0  0  0  0  0  0  0  0  0  0
   45.2007   29.4169   38.7576 H   0  0  0  0  0  0  0  0  0  0  0  0
   46.1885   30.3758   37.6696 H   0  0  0  0  0  0  0  0  0  0  0  0
   45.7627   32.4466   38.9689 H   0  0  0  0  0  0  0  0  0  0  0  0
   44.2035   31.7048   38.9918 H   0  0  0  0  0  0  0  0  0  0  0  0
   43.7074   36.6948   45.0564 H   0  0  0  0  0  0  0  0  0  0  0  0
   44.8902   36.6916   42.8505 H   0  0  0  0  0  0  0  0  0  0  0  0
   45.8096   33.2516   46.2318 H   0  0  0  0  0  0  0  0  0  0  0  0
  1 20  1  0
  2  1  2  0
  3  2  1  0
  4  5  1  0
  4  3  2  0
  5  6  2  0
  6  7  1  0
  6  1  1  0
  7 12  1  0
  8  7  1  0
  8  9  1  0
  9 10  1  0
 10 11  1  0
 12 11  1  0
 13 14  1  0
 13 12  1  0
 15 14  1  0
 16 17  1  0
 16 15  1  0
 17 13  1  0
 18 23  2  0
 19 18  1  0
 20 19  2  0
 20 21  1  0
 21 22  2  0
 22 23  1  0
  2 24  1  0
  3 25  1  0
  4 26  1  0
  5 27  1  0
  8 28  1  0
  8 29  1  0
  9 30  1  0
  9 31  1  0
 10 32  1  0
 11 33  1  0
 11 34  1  0
 12 35  1  1
 13 36  1  0
 14 37  1  0
 14 38  1  0
 15 39  1  0
 15 40  1  0
 16 41  1  0
 16 42  1  0
 17 43  1  0
 17 44  1  0
 18 45  1  0
 19 46  1  0
 22 47  1  0
M  ISO  8  24  14  25  14  26  14  27  14  28  13  29  13  30  13  31  13
M  ISO  8  32   5  33  13  34  13  35  13  36  13  37  13  38  13  39  13
M  ISO  8  40  13  41  13  42  13  43  13  44  13  45  14  46  14  47  14
M  END
>  <minimizedAffinity>  (1) 
-5.66966772

>  <minimizedRMSD>  (1) 
0.463714629

$$$$
