
     RDKit          3D

 27 29  0  0  0  0  0  0  0  0999 V2000
   47.0690   34.5750   41.8660 C   0  0  0  0  0  0  0  0  0  0  0  0
   47.9430   35.4010   41.4790 O   0  0  0  0  0  0  0  0  0  0  0  0
   44.6190   36.0760   44.2550 C   0  0  0  0  0  0  0  0  0  0  0  0
   45.3710   35.9400   43.0840 C   0  0  0  0  0  0  0  0  0  0  0  0
   46.2350   34.8390   42.9990 C   0  0  0  0  0  0  0  0  0  0  0  0
   46.2530   34.0170   44.0630 N   0  0  0  0  0  0  0  0  0  0  0  0
   45.5350   34.1530   45.1720 C   0  0  0  0  0  0  0  0  0  0  0  0
   44.7050   35.1970   45.2730 N   0  0  0  0  0  0  0  0  0  0  0  0
   46.9810   33.4390   41.1400 O   0  0  0  0  0  0  0  0  0  0  0  0
   46.3170   33.2960   39.9710 C   0  0  0  0  0  0  0  0  0  0  0  0
   44.9170   33.1960   39.9080 C   0  0  0  0  0  0  0  0  0  0  0  0
   44.5810   33.0630   38.6100 N   0  0  0  0  0  0  0  0  0  0  0  0
   45.6980   33.0750   37.8560 C   0  0  0  0  0  0  0  0  0  0  0  0
   46.7270   33.2180   38.7290 N   0  0  0  0  0  0  0  0  0  0  0  0
   48.0550   33.2380   38.1560 C   0  0  0  0  0  0  0  0  0  0  0  0
   48.3170   33.5680   36.7390 C   0  0  0  0  0  0  0  0  0  0  0  0
   48.5600   34.6450   37.6950 C   0  0  0  0  0  0  0  0  0  0  0  0
   43.9329   36.9307   44.3486 H   0  0  0  0  0  0  0  0  0  0  0  0
   45.2881   36.6672   42.2629 H   0  0  0  0  0  0  0  0  0  0  0  0
   45.6211   33.4226   45.9900 H   0  0  0  0  0  0  0  0  0  0  0  0
   44.2231   33.2216   40.7611 H   0  0  0  0  0  0  0  0  0  0  0  0
   45.7622   32.9872   36.7614 H   0  0  0  0  0  0  0  0  0  0  0  0
   48.3694   32.4040   38.8007 H   0  0  0  0  0  0  0  0  0  0  0  0
   47.4710   33.6497   36.0407 H   0  0  0  0  0  0  0  0  0  0  0  0
   48.9375   33.0998   35.9607 H   0  0  0  0  0  0  0  0  0  0  0  0
   49.5880   34.9659   37.9192 H   0  0  0  0  0  0  0  0  0  0  0  0
   48.2164   35.6830   37.8155 H   0  0  0  0  0  0  0  0  0  0  0  0
  1  5  1  0
  2  1  2  0
  3  8  2  0
  4  3  1  0
  5  4  2  0
  5  6  1  0
  6  7  2  0
  7  8  1  0
  9  1  1  0
 10  9  1  0
 11 10  2  0
 12 11  1  0
 13 12  2  0
 13 14  1  0
 14 10  1  0
 15 14  1  0
 16 17  1  0
 16 15  1  0
 17 15  1  0
  3 18  1  0
  4 19  1  0
  7 20  1  0
 11 21  1  0
 13 22  1  0
 15 23  1  0
 16 24  1  0
 16 25  1  0
 17 26  1  0
 17 27  1  0
M  ISO  8  18  14  19  14  20  14  21  14  22  14  23  13  24  13  25  13
M  ISO  2  26  13  27  13
M  END
>  <minimizedAffinity>  (1) 
-4.29309607

>  <minimizedRMSD>  (1) 
1.98234689

$$$$
