
     RDKit          3D

 42 45  0  0  1  0  0  0  0  0999 V2000
   44.7880   33.7460   40.9630 N   0  0  0  0  0  0  0  0  0  0  0  0
   43.5920   34.5180   40.6150 C   0  0  0  0  0  0  0  0  0  0  0  0
   42.4380   34.1740   41.5180 C   0  0  0  0  0  0  0  0  0  0  0  0
   42.2030   32.7490   41.4190 N   0  0  0  0  0  0  0  0  0  0  0  0
   43.3470   32.1290   42.1110 C   0  0  0  0  0  0  0  0  0  0  0  0
   44.6560   32.3710   41.3870 C   0  0  1  0  0  0  0  0  0  0  0  0
   46.6510   34.7910   42.0770 C   0  0  0  0  0  0  0  0  0  0  0  0
   47.9600   35.2370   42.0180 C   0  0  0  0  0  0  0  0  0  0  0  0
   48.7440   35.1190   40.8680 C   0  0  0  0  0  0  0  0  0  0  0  0
   48.1810   34.5220   39.7190 C   0  0  0  0  0  0  0  0  0  0  0  0
   46.8910   34.0880   39.7910 C   0  0  0  0  0  0  0  0  0  0  0  0
   46.1560   34.2210   40.9320 C   0  0  0  0  0  0  0  0  0  0  0  0
   44.4640   36.1090   44.8230 C   0  0  0  0  0  0  0  0  0  0  0  0
   45.1050   36.0460   43.5870 C   0  0  0  0  0  0  0  0  0  0  0  0
   45.9330   34.9660   43.3190 C   0  0  0  0  0  0  0  0  0  0  0  0
   46.0970   34.0050   44.2630 N   0  0  0  0  0  0  0  0  0  0  0  0
   45.4500   34.1080   45.4600 C   0  0  0  0  0  0  0  0  0  0  0  0
   44.6420   35.1500   45.7360 N   0  0  0  0  0  0  0  0  0  0  0  0
   44.7940   31.4200   40.2400 C   0  0  0  0  0  0  0  0  0  0  0  0
   44.2500   31.7060   38.9910 C   0  0  0  0  0  0  0  0  0  0  0  0
   44.3400   30.8790   37.8970 C   0  0  0  0  0  0  0  0  0  0  0  0
   45.0030   29.7150   38.0590 N   0  0  0  0  0  0  0  0  0  0  0  0
   45.5450   29.4160   39.2760 C   0  0  0  0  0  0  0  0  0  0  0  0
   45.4450   30.2440   40.3400 N   0  0  0  0  0  0  0  0  0  0  0  0
   43.8165   35.5904   40.7129 H   0  0  0  0  0  0  0  0  0  0  0  0
   43.3090   34.2729   39.5807 H   0  0  0  0  0  0  0  0  0  0  0  0
   42.6840   34.4407   42.5564 H   0  0  0  0  0  0  0  0  0  0  0  0
   41.5384   34.7317   41.2185 H   0  0  0  0  0  0  0  0  0  0  0  0
   41.3183   32.4943   41.8809 H   0  0  0  0  0  0  0  0  0  0  0  0
   43.4194   32.5519   43.1239 H   0  0  0  0  0  0  0  0  0  0  0  0
   43.1743   31.0430   42.1409 H   0  0  0  0  0  0  0  0  0  0  0  0
   45.4793   32.1818   42.0916 H   0  0  0  0  0  0  0  0  0  0  0  0
   48.4002   35.7027   42.9120 H   0  0  0  0  0  0  0  0  0  0  0  0
   49.7814   35.4846   40.8577 H   0  0  0  0  0  0  0  0  0  0  0  0
   48.7657   34.4106   38.7939 H   0  0  0  0  0  0  0  0  0  0  0  0
   46.4319   33.6194   38.9080 H   0  0  0  0  0  0  0  0  0  0  0  0
   43.8034   36.9588   45.0496 H   0  0  0  0  0  0  0  0  0  0  0  0
   44.9570   36.8380   42.8381 H   0  0  0  0  0  0  0  0  0  0  0  0
   45.5914   33.3223   46.2168 H   0  0  0  0  0  0  0  0  0  0  0  0
   43.7119   32.6579   38.8716 H   0  0  0  0  0  0  0  0  0  0  0  0
   43.8910   31.1541   36.9312 H   0  0  0  0  0  0  0  0  0  0  0  0
   46.0839   28.4645   39.3954 H   0  0  0  0  0  0  0  0  0  0  0  0
  1  6  1  0
  2  1  1  0
  2  3  1  0
  4  3  1  0
  4  5  1  0
  6  5  1  0
  7 15  1  0
  8  7  2  0
  9  8  1  0
 10 11  1  0
 10  9  2  0
 11 12  2  0
 12  1  1  0
 12  7  1  0
 13 18  2  0
 14 13  1  0
 15 14  2  0
 15 16  1  0
 16 17  2  0
 17 18  1  0
 19 24  1  0
 19  6  1  0
 20 19  2  0
 21 22  2  0
 21 20  1  0
 22 23  1  0
 23 24  2  0
  2 25  1  0
  2 26  1  0
  3 27  1  0
  3 28  1  0
  4 29  1  0
  5 30  1  0
  5 31  1  0
  6 32  1  1
  8 33  1  0
  9 34  1  0
 10 35  1  0
 11 36  1  0
 13 37  1  0
 14 38  1  0
 17 39  1  0
 20 40  1  0
 21 41  1  0
 23 42  1  0
M  ISO  8  25  13  26  13  27  13  28  13  29   5  30  13  31  13  32  13
M  ISO  8  33  14  34  14  35  14  36  14  37  14  38  14  39  14  40  14
M  ISO  2  41  14  42  14
M  END
>  <minimizedAffinity>  (1) 
-5.65770245

>  <minimizedRMSD>  (1) 
0.231882855

$$$$
