
     RDKit          3D

 33 35  0  0  1  0  0  0  0  0999 V2000
   44.9810   33.5830   40.1120 C   0  0  0  0  0  0  0  0  0  0  0  0
   43.7740   34.1700   40.5040 C   0  0  0  0  0  0  0  0  0  0  0  0
   42.9270   34.1170   39.4570 N   0  0  0  0  0  0  0  0  0  0  0  0
   43.5560   33.5180   38.4170 C   0  0  0  0  0  0  0  0  0  0  0  0
   44.7900   33.2160   38.8640 N   0  0  0  0  0  0  0  0  0  0  0  0
   45.6670   32.5600   37.9190 C   0  0  1  0  0  0  0  0  0  0  0  0
   45.5980   32.7650   36.4620 C   0  0  0  0  0  0  0  0  0  0  0  0
   46.6810   33.4460   37.1710 C   0  0  2  0  0  0  0  0  0  0  0  0
   48.0550   32.8010   37.0860 C   0  0  0  0  0  0  0  0  0  0  0  0
   48.6170   32.8070   35.7090 C   0  0  0  0  0  0  0  0  0  0  0  0
   46.0500   33.4780   40.9440 O   0  0  0  0  0  0  0  0  0  0  0  0
   46.5070   34.4700   41.7560 C   0  0  0  0  0  0  0  0  0  0  0  0
   47.5130   35.0920   41.3390 O   0  0  0  0  0  0  0  0  0  0  0  0
   44.6330   36.1640   44.5210 C   0  0  0  0  0  0  0  0  0  0  0  0
   45.1990   35.9800   43.2510 C   0  0  0  0  0  0  0  0  0  0  0  0
   45.8840   34.7880   43.0060 C   0  0  0  0  0  0  0  0  0  0  0  0
   45.9320   33.9220   44.0350 N   0  0  0  0  0  0  0  0  0  0  0  0
   45.3990   34.0890   45.2410 C   0  0  0  0  0  0  0  0  0  0  0  0
   44.7380   35.2360   45.4790 N   0  0  0  0  0  0  0  0  0  0  0  0
   43.5545   34.5994   41.4927 H   0  0  0  0  0  0  0  0  0  0  0  0
   43.1445   33.3197   37.4163 H   0  0  0  0  0  0  0  0  0  0  0  0
   45.6630   31.6603   38.5519 H   0  0  0  0  0  0  0  0  0  0  0  0
   44.7735   33.3568   36.0377 H   0  0  0  0  0  0  0  0  0  0  0  0
   45.5682   32.0811   35.6010 H   0  0  0  0  0  0  0  0  0  0  0  0
   47.0328   34.4875   37.2101 H   0  0  0  0  0  0  0  0  0  0  0  0
   48.7414   33.3506   37.7469 H   0  0  0  0  0  0  0  0  0  0  0  0
   47.9439   31.7499   37.3908 H   0  0  0  0  0  0  0  0  0  0  0  0
   49.7157   32.8187   35.7614 H   0  0  0  0  0  0  0  0  0  0  0  0
   48.2851   31.9053   35.1736 H   0  0  0  0  0  0  0  0  0  0  0  0
   48.2659   33.7014   35.1736 H   0  0  0  0  0  0  0  0  0  0  0  0
   44.0886   37.0956   44.7350 H   0  0  0  0  0  0  0  0  0  0  0  0
   45.1062   36.7509   42.4719 H   0  0  0  0  0  0  0  0  0  0  0  0
   45.4951   33.3159   46.0176 H   0  0  0  0  0  0  0  0  0  0  0  0
  1  2  2  0
  1 11  1  0
  3  2  1  0
  4  5  1  0
  4  3  2  0
  5  1  1  0
  6  5  1  0
  7  8  1  0
  7  6  1  0
  8  6  1  0
  9  8  1  0
 10  9  1  0
 11 12  1  0
 12 16  1  0
 13 12  2  0
 14 19  2  0
 15 14  1  0
 16 15  2  0
 16 17  1  0
 17 18  2  0
 18 19  1  0
  2 20  1  0
  4 21  1  0
  6 22  1  6
  7 23  1  0
  7 24  1  0
  8 25  1  1
  9 26  1  0
  9 27  1  0
 10 28  1  0
 10 29  1  0
 10 30  1  0
 14 31  1  0
 15 32  1  0
 18 33  1  0
M  ISO  8  20  14  21  14  22  13  23  13  24  13  25  13  26   8  27   8
M  ISO  6  28   8  29   8  30   8  31  14  32  14  33  14
M  END
>  <minimizedAffinity>  (1) 
-4.29503965

>  <minimizedRMSD>  (1) 
1.76664424

$$$$
