
     RDKit          3D

 40 43  0  0  1  0  0  0  0  0999 V2000
   45.5920   33.9850   41.3780 C   0  0  0  0  0  0  0  0  0  0  0  0
   46.5800   34.6280   42.1360 C   0  0  0  0  0  0  0  0  0  0  0  0
   45.9740   35.6000   42.8450 N   0  0  0  0  0  0  0  0  0  0  0  0
   44.6630   35.6010   42.5700 C   0  0  0  0  0  0  0  0  0  0  0  0
   44.4700   34.5990   41.6700 N   0  0  0  0  0  0  0  0  0  0  0  0
   43.1080   34.3860   41.2000 C   0  0  1  0  0  0  0  0  0  0  0  0
   42.0430   35.3840   41.3840 C   0  0  0  0  0  0  0  0  0  0  0  0
   42.6570   35.3110   40.0490 C   0  0  2  0  0  0  0  0  0  0  0  0
   41.7830   34.7510   38.9780 C   0  0  0  0  0  0  0  0  0  0  0  0
   40.4570   35.4360   38.8130 C   0  0  0  0  0  0  0  0  0  0  0  0
   39.8510   34.5280   37.7360 C   0  0  0  0  0  0  0  0  0  0  0  0
   40.1380   33.1640   38.3220 C   0  0  0  0  0  0  0  0  0  0  0  0
   41.3510   33.3290   39.2210 C   0  0  0  0  0  0  0  0  0  0  0  0
   45.8610   32.9520   40.5470 O   0  0  0  0  0  0  0  0  0  0  0  0
   45.9900   33.0180   39.2130 C   0  0  0  0  0  0  0  0  0  0  0  0
   44.9060   33.1340   38.5820 O   0  0  0  0  0  0  0  0  0  0  0  0
   48.8910   33.6980   36.9420 C   0  0  0  0  0  0  0  0  0  0  0  0
   47.6290   33.8520   37.5290 C   0  0  0  0  0  0  0  0  0  0  0  0
   47.2480   32.9660   38.5380 C   0  0  0  0  0  0  0  0  0  0  0  0
   48.1580   32.0250   38.8560 N   0  0  0  0  0  0  0  0  0  0  0  0
   49.3590   31.8720   38.3030 C   0  0  0  0  0  0  0  0  0  0  0  0
   49.7270   32.7250   37.3310 N   0  0  0  0  0  0  0  0  0  0  0  0
   47.6525   34.3840   42.1495 H   0  0  0  0  0  0  0  0  0  0  0  0
   43.8990   36.2740   42.9864 H   0  0  0  0  0  0  0  0  0  0  0  0
   43.1691   33.3109   41.4248 H   0  0  0  0  0  0  0  0  0  0  0  0
   41.0046   35.0476   41.5206 H   0  0  0  0  0  0  0  0  0  0  0  0
   41.8869   36.2020   42.1027 H   0  0  0  0  0  0  0  0  0  0  0  0
   43.1803   35.9915   39.3612 H   0  0  0  0  0  0  0  0  0  0  0  0
   42.4435   34.8784   38.1076 H   0  0  0  0  0  0  0  0  0  0  0  0
   39.8680   35.4240   39.7420 H   0  0  0  0  0  0  0  0  0  0  0  0
   40.5050   36.5051   38.5586 H   0  0  0  0  0  0  0  0  0  0  0  0
   40.3487   34.6642   36.7645 H   0  0  0  0  0  0  0  0  0  0  0  0
   38.7885   34.7186   37.5243 H   0  0  0  0  0  0  0  0  0  0  0  0
   39.2757   32.8126   38.9076 H   0  0  0  0  0  0  0  0  0  0  0  0
   40.3259   32.4224   37.5316 H   0  0  0  0  0  0  0  0  0  0  0  0
   42.1468   32.6236   38.9398 H   0  0  0  0  0  0  0  0  0  0  0  0
   41.1291   33.1252   40.2789 H   0  0  0  0  0  0  0  0  0  0  0  0
   49.2027   34.3896   36.1454 H   0  0  0  0  0  0  0  0  0  0  0  0
   46.9519   34.6547   37.2017 H   0  0  0  0  0  0  0  0  0  0  0  0
   50.0334   31.0680   38.6328 H   0  0  0  0  0  0  0  0  0  0  0  0
  1  5  1  0
  1  2  2  0
  2  3  1  0
  4  3  2  0
  5  4  1  0
  6  7  1  0
  6  5  1  0
  8  6  1  0
  8  7  1  0
  9 13  1  0
  9  8  1  0
 10  9  1  0
 11 12  1  0
 11 10  1  0
 12 13  1  0
 14  1  1  0
 15 14  1  0
 16 15  2  0
 17 22  2  0
 17 18  1  0
 18 19  2  0
 19 20  1  0
 19 15  1  0
 21 20  2  0
 22 21  1  0
  2 23  1  0
  4 24  1  0
  6 25  1  6
  7 26  1  0
  7 27  1  0
  8 28  1  6
  9 29  1  0
 10 30  1  0
 10 31  1  0
 11 32  1  0
 11 33  1  0
 12 34  1  0
 12 35  1  0
 13 36  1  0
 13 37  1  0
 17 38  1  0
 18 39  1  0
 21 40  1  0
M  ISO  8  23  14  24  14  25  13  26  13  27  13  28  13  29  13  30  13
M  ISO  8  31  13  32  13  33  13  34  13  35  13  36  13  37  13  38  14
M  ISO  2  39  14  40  14
M  END
>  <minimizedAffinity>  (1) 
-4.79222441

>  <minimizedRMSD>  (1) 
7.27075005

$$$$
