
     RDKit          3D

 34 37  0  0  1  0  0  0  0  0999 V2000
   44.8370   33.7280   40.2290 C   0  0  0  0  0  0  0  0  0  0  0  0
   43.7070   34.5160   40.5420 C   0  0  0  0  0  0  0  0  0  0  0  0
   42.8790   34.4660   39.4750 N   0  0  0  0  0  0  0  0  0  0  0  0
   43.4260   33.6940   38.5130 C   0  0  0  0  0  0  0  0  0  0  0  0
   44.6140   33.2670   39.0140 N   0  0  0  0  0  0  0  0  0  0  0  0
   45.4100   32.4140   38.1730 C   0  0  1  0  0  0  0  0  0  0  0  0
   45.2660   32.3550   36.7120 C   0  0  0  0  0  0  0  0  0  0  0  0
   46.3890   33.1350   37.2040 C   0  0  2  0  0  0  0  0  0  0  0  0
   47.7620   32.5190   37.0470 C   0  0  0  0  0  0  0  0  0  0  0  0
   48.5370   33.0390   35.8090 C   0  0  0  0  0  0  0  0  0  0  0  0
   48.9470   33.3960   37.1860 C   0  0  0  0  0  0  0  0  0  0  0  0
   45.8660   33.5640   41.0860 O   0  0  0  0  0  0  0  0  0  0  0  0
   46.3440   34.4960   41.9350 C   0  0  0  0  0  0  0  0  0  0  0  0
   47.3460   35.1440   41.5200 O   0  0  0  0  0  0  0  0  0  0  0  0
   44.5290   36.0080   44.8310 C   0  0  0  0  0  0  0  0  0  0  0  0
   45.0320   35.8940   43.5300 C   0  0  0  0  0  0  0  0  0  0  0  0
   45.7700   34.7460   43.2200 C   0  0  0  0  0  0  0  0  0  0  0  0
   45.9230   33.8590   44.2200 N   0  0  0  0  0  0  0  0  0  0  0  0
   45.4460   33.9680   45.4520 C   0  0  0  0  0  0  0  0  0  0  0  0
   44.7330   35.0670   45.7620 N   0  0  0  0  0  0  0  0  0  0  0  0
   43.5336   35.0668   41.4783 H   0  0  0  0  0  0  0  0  0  0  0  0
   42.9983   33.4591   37.5271 H   0  0  0  0  0  0  0  0  0  0  0  0
   45.4265   31.6424   38.9569 H   0  0  0  0  0  0  0  0  0  0  0  0
   44.4209   32.8717   36.2336 H   0  0  0  0  0  0  0  0  0  0  0  0
   45.1844   31.5225   35.9977 H   0  0  0  0  0  0  0  0  0  0  0  0
   46.7513   34.1652   37.0716 H   0  0  0  0  0  0  0  0  0  0  0  0
   47.4770   31.5502   37.4831 H   0  0  0  0  0  0  0  0  0  0  0  0
   49.1499   32.3501   35.2092 H   0  0  0  0  0  0  0  0  0  0  0  0
   48.2790   33.5951   34.8957 H   0  0  0  0  0  0  0  0  0  0  0  0
   48.8167   34.4298   37.5385 H   0  0  0  0  0  0  0  0  0  0  0  0
   49.8923   33.3119   37.7422 H   0  0  0  0  0  0  0  0  0  0  0  0
   43.9458   36.9016   45.0983 H   0  0  0  0  0  0  0  0  0  0  0  0
   44.8539   36.6777   42.7789 H   0  0  0  0  0  0  0  0  0  0  0  0
   45.6277   33.1824   46.2002 H   0  0  0  0  0  0  0  0  0  0  0  0
  1  2  2  0
  1 12  1  0
  3  2  1  0
  4  5  1  0
  4  3  2  0
  5  1  1  0
  6  5  1  0
  7  8  1  0
  7  6  1  0
  8  6  1  0
  9 11  1  0
  9  8  1  0
 10  9  1  0
 10 11  1  0
 12 13  1  0
 13 17  1  0
 14 13  2  0
 15 20  2  0
 16 15  1  0
 17 16  2  0
 17 18  1  0
 18 19  2  0
 19 20  1  0
  2 21  1  0
  4 22  1  0
  6 23  1  1
  7 24  1  0
  7 25  1  0
  8 26  1  1
  9 27  1  0
 10 28  1  0
 10 29  1  0
 11 30  1  0
 11 31  1  0
 15 32  1  0
 16 33  1  0
 19 34  1  0
M  ISO  8  21  14  22  14  23  13  24  13  25  13  26  13  27  13  28  13
M  ISO  6  29  13  30  13  31  13  32  14  33  14  34  14
M  END
>  <minimizedAffinity>  (1) 
-4.46072054

>  <minimizedRMSD>  (1) 
2.07203221

$$$$
