
     RDKit          3D

 30 32  0  0  1  0  0  0  0  0999 V2000
   45.4520   33.4780   40.2940 C   0  0  0  0  0  0  0  0  0  0  0  0
   44.1350   33.8590   40.5920 C   0  0  0  0  0  0  0  0  0  0  0  0
   43.3980   33.6860   39.4790 N   0  0  0  0  0  0  0  0  0  0  0  0
   44.1920   33.2150   38.4970 C   0  0  0  0  0  0  0  0  0  0  0  0
   45.4230   33.1070   39.0420 N   0  0  0  0  0  0  0  0  0  0  0  0
   46.4780   32.6100   38.1700 C   0  0  1  0  0  0  0  0  0  0  0  0
   46.2550   32.4000   36.7180 C   0  0  0  0  0  0  0  0  0  0  0  0
   47.0060   33.6040   37.1020 C   0  0  2  0  0  0  0  0  0  0  0  0
   48.5210   33.5320   36.9330 C   0  0  0  0  0  0  0  0  0  0  0  0
   49.0880   34.7250   37.3100 F   0  0  0  0  0  0  0  0  0  0  0  0
   49.0340   32.4420   37.5610 F   0  0  0  0  0  0  0  0  0  0  0  0
   48.7430   33.4040   35.5580 F   0  0  0  0  0  0  0  0  0  0  0  0
   46.4520   33.5350   41.2170 O   0  0  0  0  0  0  0  0  0  0  0  0
   46.7100   34.5810   42.0150 C   0  0  0  0  0  0  0  0  0  0  0  0
   47.6490   35.3530   41.6330 O   0  0  0  0  0  0  0  0  0  0  0  0
   44.5440   36.0990   44.6560 C   0  0  0  0  0  0  0  0  0  0  0  0
   45.1860   35.9740   43.4300 C   0  0  0  0  0  0  0  0  0  0  0  0
   45.9890   34.8400   43.2290 C   0  0  0  0  0  0  0  0  0  0  0  0
   46.0590   33.9810   44.2490 N   0  0  0  0  0  0  0  0  0  0  0  0
   45.4480   34.0980   45.4190 C   0  0  0  0  0  0  0  0  0  0  0  0
   44.6770   35.1720   45.6300 N   0  0  0  0  0  0  0  0  0  0  0  0
   43.7704   34.2319   41.5605 H   0  0  0  0  0  0  0  0  0  0  0  0
   43.8984   32.9695   37.4657 H   0  0  0  0  0  0  0  0  0  0  0  0
   46.8806   31.9769   38.9745 H   0  0  0  0  0  0  0  0  0  0  0  0
   45.2403   32.5044   36.3064 H   0  0  0  0  0  0  0  0  0  0  0  0
   46.4619   31.5646   36.0329 H   0  0  0  0  0  0  0  0  0  0  0  0
   46.9053   34.6760   36.8769 H   0  0  0  0  0  0  0  0  0  0  0  0
   43.9089   36.9783   44.8389 H   0  0  0  0  0  0  0  0  0  0  0  0
   45.0693   36.7360   42.6453 H   0  0  0  0  0  0  0  0  0  0  0  0
   45.5713   33.3313   46.1980 H   0  0  0  0  0  0  0  0  0  0  0  0
  1  2  2  0
  1 13  1  0
  3  2  1  0
  4  5  1  0
  4  3  2  0
  5  1  1  0
  6  5  1  0
  7  8  1  0
  7  6  1  0
  8  6  1  0
  9  8  1  0
  9 10  1  0
  9 11  1  0
 12  9  1  0
 13 14  1  0
 14 18  1  0
 15 14  2  0
 16 21  2  0
 17 16  1  0
 18 17  2  0
 18 19  1  0
 19 20  2  0
 20 21  1  0
  2 22  1  0
  4 23  1  0
  6 24  1  1
  7 25  1  0
  7 26  1  0
  8 27  1  1
 16 28  1  0
 17 29  1  0
 20 30  1  0
M  ISO  8  22  14  23  14  24  13  25  13  26  13  27  13  28  14  29  14
M  ISO  1  30  14
M  END
>  <minimizedAffinity>  (1) 
-4.81534481

>  <minimizedRMSD>  (1) 
1.5783323

$$$$
