
     RDKit          3D

 41 45  0  0  1  0  0  0  0  0999 V2000
   46.6800   34.5390   42.1770 C   0  0  0  0  0  0  0  0  0  0  0  0
   47.5760   35.3620   41.7910 O   0  0  0  0  0  0  0  0  0  0  0  0
   44.4890   35.9290   44.8650 C   0  0  0  0  0  0  0  0  0  0  0  0
   45.1110   35.8510   43.6260 C   0  0  0  0  0  0  0  0  0  0  0  0
   45.9680   34.7520   43.4070 C   0  0  0  0  0  0  0  0  0  0  0  0
   46.0950   33.8940   44.4190 N   0  0  0  0  0  0  0  0  0  0  0  0
   45.4960   33.9770   45.6010 C   0  0  0  0  0  0  0  0  0  0  0  0
   44.6810   35.0120   45.8250 N   0  0  0  0  0  0  0  0  0  0  0  0
   45.6730   33.0240   46.6450 N   0  0  0  0  0  0  0  0  0  0  0  0
   45.2300   32.9540   47.9350 C   0  0  0  0  0  0  0  0  0  0  0  0
   45.6910   31.8250   48.5010 N   0  0  0  0  0  0  0  0  0  0  0  0
   46.4270   31.1740   47.5830 C   0  0  0  0  0  0  0  0  0  0  0  0
   47.1230   29.9830   47.6250 C   0  0  0  0  0  0  0  0  0  0  0  0
   47.8140   29.4930   46.5660 N   0  0  0  0  0  0  0  0  0  0  0  0
   47.7850   30.2520   45.4380 C   0  0  0  0  0  0  0  0  0  0  0  0
   47.1140   31.4160   45.3720 N   0  0  0  0  0  0  0  0  0  0  0  0
   46.4280   31.9140   46.4040 C   0  0  0  0  0  0  0  0  0  0  0  0
   46.4580   33.4880   41.3690 O   0  0  0  0  0  0  0  0  0  0  0  0
   45.4710   33.4240   40.4320 C   0  0  0  0  0  0  0  0  0  0  0  0
   44.1480   33.7530   40.7120 C   0  0  0  0  0  0  0  0  0  0  0  0
   43.4330   33.5850   39.5820 N   0  0  0  0  0  0  0  0  0  0  0  0
   44.2620   33.1630   38.6020 C   0  0  0  0  0  0  0  0  0  0  0  0
   45.4780   33.0820   39.1660 N   0  0  0  0  0  0  0  0  0  0  0  0
   46.5760   32.6420   38.3100 C   0  0  1  0  0  0  0  0  0  0  0  0
   46.3720   32.4100   36.8520 C   0  0  0  0  0  0  0  0  0  0  0  0
   47.0620   33.6570   37.2450 C   0  0  2  0  0  0  0  0  0  0  0  0
   48.5720   33.6760   37.0850 C   0  0  0  0  0  0  0  0  0  0  0  0
   49.0630   34.9190   37.3880 F   0  0  0  0  0  0  0  0  0  0  0  0
   49.1460   32.6590   37.7960 F   0  0  0  0  0  0  0  0  0  0  0  0
   48.8090   33.4670   35.7240 F   0  0  0  0  0  0  0  0  0  0  0  0
   43.8140   36.7738   45.0667 H   0  0  0  0  0  0  0  0  0  0  0  0
   44.9430   36.6122   42.8499 H   0  0  0  0  0  0  0  0  0  0  0  0
   44.5962   33.7030   48.4323 H   0  0  0  0  0  0  0  0  0  0  0  0
   47.1170   29.4045   48.5606 H   0  0  0  0  0  0  0  0  0  0  0  0
   48.3292   29.9019   44.5485 H   0  0  0  0  0  0  0  0  0  0  0  0
   43.7557   34.0901   41.6828 H   0  0  0  0  0  0  0  0  0  0  0  0
   43.9962   32.9336   37.5595 H   0  0  0  0  0  0  0  0  0  0  0  0
   47.0088   32.0395   39.1222 H   0  0  0  0  0  0  0  0  0  0  0  0
   45.3566   32.4619   36.4320 H   0  0  0  0  0  0  0  0  0  0  0  0
   46.6242   31.5837   36.1711 H   0  0  0  0  0  0  0  0  0  0  0  0
   46.9086   34.7224   37.0183 H   0  0  0  0  0  0  0  0  0  0  0  0
  1  5  1  0
  2  1  2  0
  3  8  2  0
  4  3  1  0
  5  4  2  0
  5  6  1  0
  6  7  2  0
  7  8  1  0
  7  9  1  0
  9 10  1  0
 10 11  2  0
 12 13  2  0
 12 11  1  0
 14 13  1  0
 15 14  2  0
 16 15  1  0
 16 17  2  0
 17  9  1  0
 17 12  1  0
 18  1  1  0
 19 20  2  0
 19 18  1  0
 21 20  1  0
 22 23  1  0
 22 21  2  0
 23 19  1  0
 24 23  1  0
 25 26  1  0
 25 24  1  0
 26 24  1  0
 27 26  1  0
 27 28  1  0
 27 29  1  0
 30 27  1  0
  3 31  1  0
  4 32  1  0
 10 33  1  0
 13 34  1  0
 15 35  1  0
 20 36  1  0
 22 37  1  0
 24 38  1  1
 25 39  1  0
 25 40  1  0
 26 41  1  1
M  ISO  8  31  14  32  14  33  14  34  14  35  14  36  14  37  14  38  13
M  ISO  3  39  13  40  13  41  13
M  END
>  <minimizedAffinity>  (1) 
-6.48073196

>  <minimizedRMSD>  (1) 
0.219216689

$$$$
