
     RDKit          3D

 40 43  0  0  1  0  0  0  0  0999 V2000
   46.2700   33.1210   40.8390 O   0  0  0  0  0  0  0  0  0  0  0  0
   45.2810   33.0630   39.9060 C   0  0  0  0  0  0  0  0  0  0  0  0
   43.9350   33.3100   40.2300 C   0  0  0  0  0  0  0  0  0  0  0  0
   43.2190   33.1760   39.1010 N   0  0  0  0  0  0  0  0  0  0  0  0
   44.0530   32.8570   38.0800 C   0  0  0  0  0  0  0  0  0  0  0  0
   45.2950   32.8010   38.6280 N   0  0  0  0  0  0  0  0  0  0  0  0
   46.3760   32.4730   37.7250 C   0  0  1  0  0  0  0  0  0  0  0  0
   46.2810   32.7090   36.2600 C   0  0  0  0  0  0  0  0  0  0  0  0
   47.0780   33.6680   37.0240 C   0  0  2  0  0  0  0  0  0  0  0  0
   48.5990   33.5090   36.9610 C   0  0  0  0  0  0  0  0  0  0  0  0
   49.2110   34.6920   37.2650 F   0  0  0  0  0  0  0  0  0  0  0  0
   49.0060   32.4380   37.7070 F   0  0  0  0  0  0  0  0  0  0  0  0
   48.8820   33.2530   35.6140 F   0  0  0  0  0  0  0  0  0  0  0  0
   46.6260   34.2230   41.5230 C   0  0  0  0  0  0  0  0  0  0  0  0
   47.5750   34.9140   41.0090 O   0  0  0  0  0  0  0  0  0  0  0  0
   44.6270   36.0460   44.1040 C   0  0  0  0  0  0  0  0  0  0  0  0
   45.1800   35.7550   42.8730 C   0  0  0  0  0  0  0  0  0  0  0  0
   46.0000   34.6210   42.7510 C   0  0  0  0  0  0  0  0  0  0  0  0
   46.1750   33.9110   43.8600 N   0  0  0  0  0  0  0  0  0  0  0  0
   45.6460   34.1840   45.0490 C   0  0  0  0  0  0  0  0  0  0  0  0
   44.8660   35.2630   45.1670 N   0  0  0  0  0  0  0  0  0  0  0  0
   45.9000   33.3470   46.1900 N   0  0  0  0  0  0  0  0  0  0  0  0
   46.8560   32.4030   46.1120 C   0  0  0  0  0  0  0  0  0  0  0  0
   47.1320   31.5720   47.1960 C   0  0  0  0  0  0  0  0  0  0  0  0
   46.3730   31.7770   48.3300 C   0  0  0  0  0  0  0  0  0  0  0  0
   46.6110   31.0350   49.3160 O   0  0  0  0  0  0  0  0  0  0  0  0
   45.4060   32.7360   48.4030 N   0  0  0  0  0  0  0  0  0  0  0  0
   45.1770   33.5230   47.3100 C   0  0  0  0  0  0  0  0  0  0  0  0
   44.2940   34.4390   47.2940 O   0  0  0  0  0  0  0  0  0  0  0  0
   43.5409   33.5658   41.2246 H   0  0  0  0  0  0  0  0  0  0  0  0
   43.7809   32.6806   37.0289 H   0  0  0  0  0  0  0  0  0  0  0  0
   46.6473   31.6010   38.3382 H   0  0  0  0  0  0  0  0  0  0  0  0
   45.3222   33.0285   35.8257 H   0  0  0  0  0  0  0  0  0  0  0  0
   46.4892   32.0850   35.3783 H   0  0  0  0  0  0  0  0  0  0  0  0
   47.0803   34.7650   37.1045 H   0  0  0  0  0  0  0  0  0  0  0  0
   43.9826   36.9306   44.2147 H   0  0  0  0  0  0  0  0  0  0  0  0
   44.9821   36.3993   42.0037 H   0  0  0  0  0  0  0  0  0  0  0  0
   47.4275   32.2857   45.1795 H   0  0  0  0  0  0  0  0  0  0  0  0
   47.9108   30.7965   47.1503 H   0  0  0  0  0  0  0  0  0  0  0  0
   44.8586   32.8645   49.2660 H   0  0  0  0  0  0  0  0  0  0  0  0
  1 14  1  0
  2  3  2  0
  2  1  1  0
  4  3  1  0
  5  6  1  0
  5  4  2  0
  6  2  1  0
  7  6  1  0
  8  9  1  0
  8  7  1  0
  9  7  1  0
 10  9  1  0
 10 11  1  0
 10 12  1  0
 13 10  1  0
 14 18  1  0
 15 14  2  0
 16 21  2  0
 17 16  1  0
 18 17  2  0
 18 19  1  0
 19 20  2  0
 20 21  1  0
 20 22  1  0
 22 28  1  0
 23 22  1  0
 23 24  2  0
 24 25  1  0
 25 27  1  0
 25 26  2  0
 28 27  1  0
 29 28  2  0
  3 30  1  0
  5 31  1  0
  7 32  1  6
  8 33  1  0
  8 34  1  0
  9 35  1  1
 16 36  1  0
 17 37  1  0
 23 38  1  0
 24 39  1  0
 27 40  1  0
M  ISO  8  30  14  31  14  32  13  33  13  34  13  35  13  36  14  37  14
M  ISO  3  38  14  39  14  40   9
M  END
>  <minimizedAffinity>  (1) 
-6.46122885

>  <minimizedRMSD>  (1) 
0.539175034

$$$$
