
     RDKit          3D

 44 47  0  0  1  0  0  0  0  0999 V2000
   45.4430   33.4080   40.4130 C   0  0  0  0  0  0  0  0  0  0  0  0
   44.1110   33.7350   40.6930 C   0  0  0  0  0  0  0  0  0  0  0  0
   43.4090   33.5770   39.5610 N   0  0  0  0  0  0  0  0  0  0  0  0
   44.2370   33.1640   38.5780 C   0  0  0  0  0  0  0  0  0  0  0  0
   45.4530   33.0780   39.1440 N   0  0  0  0  0  0  0  0  0  0  0  0
   46.5420   32.6480   38.2860 C   0  0  1  0  0  0  0  0  0  0  0  0
   46.3480   32.4080   36.8350 C   0  0  0  0  0  0  0  0  0  0  0  0
   47.0170   33.6510   37.2110 C   0  0  2  0  0  0  0  0  0  0  0  0
   48.5390   33.6810   37.0480 C   0  0  0  0  0  0  0  0  0  0  0  0
   49.0070   34.9350   37.3900 F   0  0  0  0  0  0  0  0  0  0  0  0
   49.1180   32.6560   37.7050 F   0  0  0  0  0  0  0  0  0  0  0  0
   48.7660   33.5260   35.6760 F   0  0  0  0  0  0  0  0  0  0  0  0
   46.4220   33.4640   41.3550 O   0  0  0  0  0  0  0  0  0  0  0  0
   46.6580   34.4980   42.1770 C   0  0  0  0  0  0  0  0  0  0  0  0
   47.5330   35.3320   41.7780 O   0  0  0  0  0  0  0  0  0  0  0  0
   44.4990   35.8010   44.9300 C   0  0  0  0  0  0  0  0  0  0  0  0
   45.0970   35.7300   43.6840 C   0  0  0  0  0  0  0  0  0  0  0  0
   45.9850   34.6730   43.4240 C   0  0  0  0  0  0  0  0  0  0  0  0
   46.1660   33.8200   44.4330 N   0  0  0  0  0  0  0  0  0  0  0  0
   45.6000   33.8840   45.6190 C   0  0  0  0  0  0  0  0  0  0  0  0
   44.7560   34.8730   45.8920 N   0  0  0  0  0  0  0  0  0  0  0  0
   45.9110   32.8820   46.5820 N   0  0  0  0  0  0  0  0  0  0  0  0
   45.3040   32.9230   47.8990 C   0  0  0  0  0  0  0  0  0  0  0  0
   44.9400   31.4950   48.2510 C   0  0  0  0  0  0  0  0  0  0  0  0
   44.7740   30.6620   47.0920 N   0  0  0  0  0  0  0  0  0  0  0  0
   45.9240   30.5410   46.2550 C   0  0  0  0  0  0  0  0  0  0  0  0
   46.8230   31.7790   46.3430 C   0  0  0  0  0  0  0  0  0  0  0  0
   43.7125   34.0621   41.6647 H   0  0  0  0  0  0  0  0  0  0  0  0
   43.9721   32.9441   37.5333 H   0  0  0  0  0  0  0  0  0  0  0  0
   46.9758   32.0554   39.1049 H   0  0  0  0  0  0  0  0  0  0  0  0
   45.3335   32.4467   36.4115 H   0  0  0  0  0  0  0  0  0  0  0  0
   46.6119   31.5789   36.1620 H   0  0  0  0  0  0  0  0  0  0  0  0
   46.8530   34.7124   36.9731 H   0  0  0  0  0  0  0  0  0  0  0  0
   43.8021   36.6238   45.1473 H   0  0  0  0  0  0  0  0  0  0  0  0
   44.8816   36.4851   42.9137 H   0  0  0  0  0  0  0  0  0  0  0  0
   46.0172   33.3252   48.6335 H   0  0  0  0  0  0  0  0  0  0  0  0
   44.4165   33.5728   47.9073 H   0  0  0  0  0  0  0  0  0  0  0  0
   45.7400   31.0721   48.8764 H   0  0  0  0  0  0  0  0  0  0  0  0
   43.9773   31.5195   48.7825 H   0  0  0  0  0  0  0  0  0  0  0  0
   44.5142   29.7185   47.4134 H   0  0  0  0  0  0  0  0  0  0  0  0
   45.5946   30.4131   45.2133 H   0  0  0  0  0  0  0  0  0  0  0  0
   46.5050   29.6710   46.5948 H   0  0  0  0  0  0  0  0  0  0  0  0
   47.5382   31.6805   47.1729 H   0  0  0  0  0  0  0  0  0  0  0  0
   47.4208   31.9242   45.4311 H   0  0  0  0  0  0  0  0  0  0  0  0
  1  2  2  0
  1 13  1  0
  3  2  1  0
  4  5  1  0
  4  3  2  0
  5  1  1  0
  6  5  1  0
  7  8  1  0
  7  6  1  0
  8  6  1  0
  9  8  1  0
  9 10  1  0
  9 11  1  0
 12  9  1  0
 13 14  1  0
 14 18  1  0
 15 14  2  0
 16 21  2  0
 17 16  1  0
 18 17  2  0
 18 19  1  0
 19 20  2  0
 20 21  1  0
 20 22  1  0
 22 23  1  0
 23 24  1  0
 25 24  1  0
 26 27  1  0
 26 25  1  0
 27 22  1  0
  2 28  1  0
  4 29  1  0
  6 30  1  1
  7 31  1  0
  7 32  1  0
  8 33  1  1
 16 34  1  0
 17 35  1  0
 23 36  1  0
 23 37  1  0
 24 38  1  0
 24 39  1  0
 25 40  1  0
 26 41  1  0
 26 42  1  0
 27 43  1  0
 27 44  1  0
M  ISO  8  28  14  29  14  30  13  31  13  32  13  33  13  34  14  35  14
M  ISO  8  36  13  37  13  38  13  39  13  40   5  41  13  42  13  43  13
M  ISO  1  44  13
M  END
>  <minimizedAffinity>  (1) 
-6.33188772

>  <minimizedRMSD>  (1) 
0.317930013

$$$$
