
     RDKit          3D

 46 50  0  0  1  0  0  0  0  0999 V2000
   46.6220   34.5130   42.2110 C   0  0  0  0  0  0  0  0  0  0  0  0
   47.5410   35.2800   41.8060 O   0  0  0  0  0  0  0  0  0  0  0  0
   44.4760   36.0030   44.8710 C   0  0  0  0  0  0  0  0  0  0  0  0
   45.0920   35.8950   43.6260 C   0  0  0  0  0  0  0  0  0  0  0  0
   45.9040   34.7870   43.4320 C   0  0  0  0  0  0  0  0  0  0  0  0
   45.9880   33.9680   44.4680 N   0  0  0  0  0  0  0  0  0  0  0  0
   45.4240   34.0360   45.6530 C   0  0  0  0  0  0  0  0  0  0  0  0
   44.6470   35.0950   45.8420 N   0  0  0  0  0  0  0  0  0  0  0  0
   45.7660   32.9270   46.5460 C   0  0  0  0  0  0  0  0  0  0  0  0
   45.2990   32.8830   47.8430 C   0  0  0  0  0  0  0  0  0  0  0  0
   45.5700   31.8910   48.7380 C   0  0  0  0  0  0  0  0  0  0  0  0
   46.3660   30.8310   48.3620 C   0  0  0  0  0  0  0  0  0  0  0  0
   46.8600   30.8220   47.0790 C   0  0  0  0  0  0  0  0  0  0  0  0
   47.6580   29.7680   46.6970 C   0  0  0  0  0  0  0  0  0  0  0  0
   48.1980   29.6910   45.4110 C   0  0  0  0  0  0  0  0  0  0  0  0
   47.8810   30.7430   44.5430 C   0  0  0  0  0  0  0  0  0  0  0  0
   47.0780   31.7710   44.9810 C   0  0  0  0  0  0  0  0  0  0  0  0
   46.5460   31.8500   46.2390 C   0  0  0  0  0  0  0  0  0  0  0  0
   46.3670   33.4380   41.4310 O   0  0  0  0  0  0  0  0  0  0  0  0
   45.4150   33.3830   40.4640 C   0  0  0  0  0  0  0  0  0  0  0  0
   44.0700   33.7030   40.7190 C   0  0  0  0  0  0  0  0  0  0  0  0
   43.3900   33.5500   39.5720 N   0  0  0  0  0  0  0  0  0  0  0  0
   44.2520   33.1480   38.6060 C   0  0  0  0  0  0  0  0  0  0  0  0
   45.4540   33.0650   39.2000 N   0  0  0  0  0  0  0  0  0  0  0  0
   46.5730   32.6440   38.3600 C   0  0  1  0  0  0  0  0  0  0  0  0
   46.3890   32.2910   36.9340 C   0  0  0  0  0  0  0  0  0  0  0  0
   46.9810   33.6030   37.2250 C   0  0  2  0  0  0  0  0  0  0  0  0
   48.4890   33.7060   37.0510 C   0  0  0  0  0  0  0  0  0  0  0  0
   48.9170   34.9680   37.3840 F   0  0  0  0  0  0  0  0  0  0  0  0
   49.1320   32.7060   37.7290 F   0  0  0  0  0  0  0  0  0  0  0  0
   48.7290   33.5540   35.6830 F   0  0  0  0  0  0  0  0  0  0  0  0
   43.8237   36.8673   45.0647 H   0  0  0  0  0  0  0  0  0  0  0  0
   44.9424   36.6484   42.8386 H   0  0  0  0  0  0  0  0  0  0  0  0
   44.6591   33.7114   48.1810 H   0  0  0  0  0  0  0  0  0  0  0  0
   45.1551   31.9366   49.7557 H   0  0  0  0  0  0  0  0  0  0  0  0
   46.5987   30.0182   49.0657 H   0  0  0  0  0  0  0  0  0  0  0  0
   47.8755   28.9684   47.4204 H   0  0  0  0  0  0  0  0  0  0  0  0
   48.8361   28.8515   45.0980 H   0  0  0  0  0  0  0  0  0  0  0  0
   48.2724   30.7476   43.5150 H   0  0  0  0  0  0  0  0  0  0  0  0
   46.8490   32.5818   44.2738 H   0  0  0  0  0  0  0  0  0  0  0  0
   43.6505   34.0214   41.6847 H   0  0  0  0  0  0  0  0  0  0  0  0
   44.0159   32.9340   37.5532 H   0  0  0  0  0  0  0  0  0  0  0  0
   47.0468   32.1348   39.2122 H   0  0  0  0  0  0  0  0  0  0  0  0
   45.3728   32.2360   36.5165 H   0  0  0  0  0  0  0  0  0  0  0  0
   46.7022   31.4363   36.3164 H   0  0  0  0  0  0  0  0  0  0  0  0
   46.7506   34.6353   36.9227 H   0  0  0  0  0  0  0  0  0  0  0  0
  1  5  1  0
  2  1  2  0
  3  8  2  0
  4  3  1  0
  5  4  2  0
  5  6  1  0
  6  7  2  0
  7  8  1  0
  7  9  1  0
  9 10  2  0
 10 11  1  0
 12 11  2  0
 13 12  1  0
 14 13  2  0
 15 14  1  0
 16 17  1  0
 16 15  2  0
 17 18  2  0
 18  9  1  0
 18 13  1  0
 19  1  1  0
 20 21  2  0
 20 19  1  0
 22 21  1  0
 23 24  1  0
 23 22  2  0
 24 20  1  0
 25 24  1  0
 26 27  1  0
 26 25  1  0
 27 25  1  0
 28 27  1  0
 28 29  1  0
 28 30  1  0
 31 28  1  0
  3 32  1  0
  4 33  1  0
 10 34  1  0
 11 35  1  0
 12 36  1  0
 14 37  1  0
 15 38  1  0
 16 39  1  0
 17 40  1  0
 21 41  1  0
 23 42  1  0
 25 43  1  1
 26 44  1  0
 26 45  1  0
 27 46  1  1
M  ISO  8  32  14  33  14  34  14  35  14  36  14  37  14  38  14  39  14
M  ISO  7  40  14  41  14  42  14  43  13  44  13  45  13  46  13
M  END
>  <minimizedAffinity>  (1) 
-6.78298283

>  <minimizedRMSD>  (1) 
0.416439682

$$$$
