
     RDKit          3D

 42 45  0  0  1  0  0  0  0  0999 V2000
   45.5140   33.5000   40.3870 C   0  0  0  0  0  0  0  0  0  0  0  0
   44.1870   33.8730   40.6660 C   0  0  0  0  0  0  0  0  0  0  0  0
   43.4620   33.7050   39.5470 N   0  0  0  0  0  0  0  0  0  0  0  0
   44.2710   33.2400   38.5710 C   0  0  0  0  0  0  0  0  0  0  0  0
   45.4950   33.1350   39.1290 N   0  0  0  0  0  0  0  0  0  0  0  0
   46.5610   32.6480   38.2680 C   0  0  1  0  0  0  0  0  0  0  0  0
   46.3570   32.4350   36.8140 C   0  0  0  0  0  0  0  0  0  0  0  0
   47.0910   33.6490   37.2040 C   0  0  2  0  0  0  0  0  0  0  0  0
   48.6130   33.5910   37.0470 C   0  0  0  0  0  0  0  0  0  0  0  0
   49.1510   34.8130   37.3510 F   0  0  0  0  0  0  0  0  0  0  0  0
   49.1400   32.5570   37.7580 F   0  0  0  0  0  0  0  0  0  0  0  0
   48.8480   33.3740   35.6880 F   0  0  0  0  0  0  0  0  0  0  0  0
   46.5050   33.5550   41.3210 O   0  0  0  0  0  0  0  0  0  0  0  0
   46.7020   34.5620   42.1690 C   0  0  0  0  0  0  0  0  0  0  0  0
   47.5640   35.4340   41.7980 O   0  0  0  0  0  0  0  0  0  0  0  0
   44.5410   35.7620   44.9700 C   0  0  0  0  0  0  0  0  0  0  0  0
   45.1320   35.7590   43.7170 C   0  0  0  0  0  0  0  0  0  0  0  0
   46.0170   34.6980   43.4220 C   0  0  0  0  0  0  0  0  0  0  0  0
   46.1940   33.7990   44.3910 N   0  0  0  0  0  0  0  0  0  0  0  0
   45.6280   33.8080   45.5780 C   0  0  0  0  0  0  0  0  0  0  0  0
   44.7910   34.7950   45.8840 N   0  0  0  0  0  0  0  0  0  0  0  0
   45.8880   32.7950   46.5450 N   0  0  0  0  0  0  0  0  0  0  0  0
   46.9550   31.8090   46.5670 C   0  0  0  0  0  0  0  0  0  0  0  0
   47.5060   32.0780   47.9710 C   0  0  0  0  0  0  0  0  0  0  0  0
   46.2570   32.4250   48.7690 C   0  0  0  0  0  0  0  0  0  0  0  0
   45.1240   32.5180   47.7500 C   0  0  0  0  0  0  0  0  0  0  0  0
   43.8084   34.2386   41.6319 H   0  0  0  0  0  0  0  0  0  0  0  0
   43.9903   32.9971   37.5355 H   0  0  0  0  0  0  0  0  0  0  0  0
   46.9602   32.0182   39.0767 H   0  0  0  0  0  0  0  0  0  0  0  0
   45.3458   32.5276   36.3911 H   0  0  0  0  0  0  0  0  0  0  0  0
   46.5811   31.6012   36.1324 H   0  0  0  0  0  0  0  0  0  0  0  0
   46.9815   34.7201   36.9787 H   0  0  0  0  0  0  0  0  0  0  0  0
   43.8473   36.5750   45.2303 H   0  0  0  0  0  0  0  0  0  0  0  0
   44.9209   36.5499   42.9822 H   0  0  0  0  0  0  0  0  0  0  0  0
   46.5703   30.7835   46.4650 H   0  0  0  0  0  0  0  0  0  0  0  0
   47.6871   31.8879   45.7498 H   0  0  0  0  0  0  0  0  0  0  0  0
   48.0004   31.1843   48.3795 H   0  0  0  0  0  0  0  0  0  0  0  0
   48.2682   32.8708   47.9927 H   0  0  0  0  0  0  0  0  0  0  0  0
   46.0439   31.6385   49.5079 H   0  0  0  0  0  0  0  0  0  0  0  0
   46.3802   33.3666   49.3241 H   0  0  0  0  0  0  0  0  0  0  0  0
   44.4273   33.3352   47.9881 H   0  0  0  0  0  0  0  0  0  0  0  0
   44.4780   31.6294   47.6941 H   0  0  0  0  0  0  0  0  0  0  0  0
  1  2  2  0
  1 13  1  0
  3  2  1  0
  4  5  1  0
  4  3  2  0
  5  1  1  0
  6  5  1  0
  7  8  1  0
  7  6  1  0
  8  6  1  0
  9  8  1  0
  9 10  1  0
  9 11  1  0
 12  9  1  0
 13 14  1  0
 14 18  1  0
 15 14  2  0
 16 21  2  0
 17 16  1  0
 18 17  2  0
 18 19  1  0
 19 20  2  0
 20 21  1  0
 20 22  1  0
 22 23  1  0
 22 26  1  0
 23 24  1  0
 24 25  1  0
 26 25  1  0
  2 27  1  0
  4 28  1  0
  6 29  1  1
  7 30  1  0
  7 31  1  0
  8 32  1  1
 16 33  1  0
 17 34  1  0
 23 35  1  0
 23 36  1  0
 24 37  1  0
 24 38  1  0
 25 39  1  0
 25 40  1  0
 26 41  1  0
 26 42  1  0
M  ISO  8  27  14  28  14  29  13  30  13  31  13  32  13  33  14  34  14
M  ISO  8  35  13  36  13  37  13  38  13  39  13  40  13  41  13  42  13
M  END
>  <minimizedAffinity>  (1) 
-6.10213995

>  <minimizedRMSD>  (1) 
0.315518677

$$$$
