
     RDKit          3D

 43 46  0  0  1  0  0  0  0  0999 V2000
   45.3300   33.4350   40.5490 C   0  0  0  0  0  0  0  0  0  0  0  0
   44.0030   33.7960   40.8010 C   0  0  0  0  0  0  0  0  0  0  0  0
   43.3300   33.6970   39.6390 N   0  0  0  0  0  0  0  0  0  0  0  0
   44.1770   33.2880   38.6710 C   0  0  0  0  0  0  0  0  0  0  0  0
   45.3750   33.1440   39.2740 N   0  0  0  0  0  0  0  0  0  0  0  0
   46.4840   32.7040   38.4370 C   0  0  1  0  0  0  0  0  0  0  0  0
   46.2780   32.3760   37.0000 C   0  0  0  0  0  0  0  0  0  0  0  0
   46.9030   33.6610   37.3000 C   0  0  2  0  0  0  0  0  0  0  0  0
   48.4170   33.7350   37.1230 C   0  0  0  0  0  0  0  0  0  0  0  0
   48.8560   35.0100   37.4230 F   0  0  0  0  0  0  0  0  0  0  0  0
   49.0410   32.7510   37.8200 F   0  0  0  0  0  0  0  0  0  0  0  0
   48.6450   33.5500   35.7570 F   0  0  0  0  0  0  0  0  0  0  0  0
   46.2890   33.4270   41.5260 O   0  0  0  0  0  0  0  0  0  0  0  0
   46.5220   34.4400   42.3780 C   0  0  0  0  0  0  0  0  0  0  0  0
   47.3360   35.3280   41.9680 O   0  0  0  0  0  0  0  0  0  0  0  0
   44.5180   35.5530   45.3350 C   0  0  0  0  0  0  0  0  0  0  0  0
   45.0380   35.5870   44.0440 C   0  0  0  0  0  0  0  0  0  0  0  0
   45.9100   34.5400   43.6710 C   0  0  0  0  0  0  0  0  0  0  0  0
   46.1490   33.6160   44.6050 N   0  0  0  0  0  0  0  0  0  0  0  0
   45.6520   33.5930   45.8240 C   0  0  0  0  0  0  0  0  0  0  0  0
   44.8280   34.5660   46.2030 N   0  0  0  0  0  0  0  0  0  0  0  0
   45.9720   32.5590   46.7480 N   0  0  0  0  0  0  0  0  0  0  0  0
   47.2450   31.8610   46.7230 C   0  0  0  0  0  0  0  0  0  0  0  0
   47.7940   32.0120   48.1460 C   0  0  0  0  0  0  0  0  0  0  0  0
   46.8770   31.4810   49.0460 O   0  0  0  0  0  0  0  0  0  0  0  0
   45.7380   32.2700   49.1030 C   0  0  0  0  0  0  0  0  0  0  0  0
   45.0260   32.1460   47.7700 C   0  0  0  0  0  0  0  0  0  0  0  0
   43.5853   34.1044   41.7708 H   0  0  0  0  0  0  0  0  0  0  0  0
   43.9399   33.1094   37.6118 H   0  0  0  0  0  0  0  0  0  0  0  0
   46.9543   32.1788   39.2814 H   0  0  0  0  0  0  0  0  0  0  0  0
   45.2570   32.3532   36.5912 H   0  0  0  0  0  0  0  0  0  0  0  0
   46.5639   31.5223   36.3680 H   0  0  0  0  0  0  0  0  0  0  0  0
   46.6936   34.6993   37.0032 H   0  0  0  0  0  0  0  0  0  0  0  0
   43.8351   36.3529   45.6572 H   0  0  0  0  0  0  0  0  0  0  0  0
   44.7806   36.3953   43.3437 H   0  0  0  0  0  0  0  0  0  0  0  0
   47.1015   30.7996   46.4723 H   0  0  0  0  0  0  0  0  0  0  0  0
   47.9303   32.2683   45.9651 H   0  0  0  0  0  0  0  0  0  0  0  0
   48.7488   31.4726   48.2316 H   0  0  0  0  0  0  0  0  0  0  0  0
   47.9582   33.0766   48.3689 H   0  0  0  0  0  0  0  0  0  0  0  0
   45.0806   31.9213   49.9131 H   0  0  0  0  0  0  0  0  0  0  0  0
   46.0044   33.3185   49.3021 H   0  0  0  0  0  0  0  0  0  0  0  0
   44.1404   32.7982   47.7518 H   0  0  0  0  0  0  0  0  0  0  0  0
   44.6862   31.1139   47.5989 H   0  0  0  0  0  0  0  0  0  0  0  0
  1  2  2  0
  1 13  1  0
  3  2  1  0
  4  5  1  0
  4  3  2  0
  5  1  1  0
  6  5  1  0
  7  8  1  0
  7  6  1  0
  8  6  1  0
  9  8  1  0
  9 10  1  0
  9 11  1  0
 12  9  1  0
 13 14  1  0
 14 18  1  0
 15 14  2  0
 16 21  2  0
 17 16  1  0
 18 17  2  0
 18 19  1  0
 19 20  2  0
 20 21  1  0
 20 22  1  0
 22 27  1  0
 23 22  1  0
 23 24  1  0
 24 25  1  0
 25 26  1  0
 27 26  1  0
  2 28  1  0
  4 29  1  0
  6 30  1  1
  7 31  1  0
  7 32  1  0
  8 33  1  1
 16 34  1  0
 17 35  1  0
 23 36  1  0
 23 37  1  0
 24 38  1  0
 24 39  1  0
 26 40  1  0
 26 41  1  0
 27 42  1  0
 27 43  1  0
M  ISO  8  28  14  29  14  30  13  31  13  32  13  33  13  34  14  35  14
M  ISO  8  36  13  37  13  38  13  39  13  40  13  41  13  42  13  43  13
M  END
>  <minimizedAffinity>  (1) 
-6.07801437

>  <minimizedRMSD>  (1) 
0.587348878

$$$$
