
     RDKit          3D

 44 47  0  0  1  0  0  0  0  0999 V2000
   44.7940   33.7130   40.9810 N   0  0  0  0  0  0  0  0  0  0  0  0
   43.5870   34.4500   40.5980 C   0  0  0  0  0  0  0  0  0  0  0  0
   42.4240   34.1200   41.4890 C   0  0  0  0  0  0  0  0  0  0  0  0
   42.2090   32.6950   41.4790 N   0  0  0  0  0  0  0  0  0  0  0  0
   43.3560   32.1140   42.1620 C   0  0  0  0  0  0  0  0  0  0  0  0
   44.6660   32.3560   41.4640 C   0  0  1  0  0  0  0  0  0  0  0  0
   46.6380   34.7910   42.0690 C   0  0  0  0  0  0  0  0  0  0  0  0
   47.9490   35.2490   42.0050 C   0  0  0  0  0  0  0  0  0  0  0  0
   48.7330   35.1230   40.8620 C   0  0  0  0  0  0  0  0  0  0  0  0
   48.1730   34.5060   39.7240 C   0  0  0  0  0  0  0  0  0  0  0  0
   46.8810   34.0550   39.7900 C   0  0  0  0  0  0  0  0  0  0  0  0
   46.1490   34.2010   40.9340 C   0  0  0  0  0  0  0  0  0  0  0  0
   44.4560   36.1120   44.8220 C   0  0  0  0  0  0  0  0  0  0  0  0
   45.0950   36.0410   43.5820 C   0  0  0  0  0  0  0  0  0  0  0  0
   45.9260   34.9760   43.3000 C   0  0  0  0  0  0  0  0  0  0  0  0
   46.0830   34.0330   44.2620 N   0  0  0  0  0  0  0  0  0  0  0  0
   45.4550   34.1170   45.4600 C   0  0  0  0  0  0  0  0  0  0  0  0
   44.6450   35.1550   45.7350 N   0  0  0  0  0  0  0  0  0  0  0  0
   44.9110   31.3070   40.4800 C   0  0  0  0  0  0  0  0  0  0  0  0
   44.4060   31.3550   39.1730 C   0  0  0  0  0  0  0  0  0  0  0  0
   44.5930   30.4050   38.1910 C   0  0  0  0  0  0  0  0  0  0  0  0
   45.3430   29.2950   38.5090 C   0  0  0  0  0  0  0  0  0  0  0  0
   45.8830   29.1690   39.7920 C   0  0  0  0  0  0  0  0  0  0  0  0
   45.6460   30.1600   40.6970 C   0  0  0  0  0  0  0  0  0  0  0  0
   43.7922   35.5286   40.6657 H   0  0  0  0  0  0  0  0  0  0  0  0
   43.3223   34.1609   39.5702 H   0  0  0  0  0  0  0  0  0  0  0  0
   42.6407   34.4522   42.5150 H   0  0  0  0  0  0  0  0  0  0  0  0
   41.5217   34.6325   41.1241 H   0  0  0  0  0  0  0  0  0  0  0  0
   41.3386   32.4604   41.9773 H   0  0  0  0  0  0  0  0  0  0  0  0
   43.4153   32.5485   43.1708 H   0  0  0  0  0  0  0  0  0  0  0  0
   43.1996   31.0253   42.1804 H   0  0  0  0  0  0  0  0  0  0  0  0
   45.4874   32.2778   42.1915 H   0  0  0  0  0  0  0  0  0  0  0  0
   48.3841   35.7302   42.8933 H   0  0  0  0  0  0  0  0  0  0  0  0
   49.7675   35.4967   40.8465 H   0  0  0  0  0  0  0  0  0  0  0  0
   48.7617   34.3893   38.8021 H   0  0  0  0  0  0  0  0  0  0  0  0
   46.4283   33.5702   38.9125 H   0  0  0  0  0  0  0  0  0  0  0  0
   43.7935   36.9605   45.0481 H   0  0  0  0  0  0  0  0  0  0  0  0
   44.9364   36.8310   42.8331 H   0  0  0  0  0  0  0  0  0  0  0  0
   45.6089   33.3303   46.2132 H   0  0  0  0  0  0  0  0  0  0  0  0
   43.8027   32.2349   38.9051 H   0  0  0  0  0  0  0  0  0  0  0  0
   44.1580   30.5297   37.1884 H   0  0  0  0  0  0  0  0  0  0  0  0
   45.5164   28.5112   37.7570 H   0  0  0  0  0  0  0  0  0  0  0  0
   46.4855   28.2901   40.0650 H   0  0  0  0  0  0  0  0  0  0  0  0
   46.0835   30.0328   41.6982 H   0  0  0  0  0  0  0  0  0  0  0  0
  1  6  1  0
  2  1  1  0
  2  3  1  0
  4  3  1  0
  4  5  1  0
  6  5  1  0
  7 15  1  0
  8  7  2  0
  9  8  1  0
 10 11  1  0
 10  9  2  0
 11 12  2  0
 12  1  1  0
 12  7  1  0
 13 18  2  0
 14 13  1  0
 15 14  2  0
 15 16  1  0
 16 17  2  0
 17 18  1  0
 19 24  1  0
 19  6  1  0
 20 19  2  0
 21 22  2  0
 21 20  1  0
 22 23  1  0
 23 24  2  0
  2 25  1  0
  2 26  1  0
  3 27  1  0
  3 28  1  0
  4 29  1  0
  5 30  1  0
  5 31  1  0
  6 32  1  1
  8 33  1  0
  9 34  1  0
 10 35  1  0
 11 36  1  0
 13 37  1  0
 14 38  1  0
 17 39  1  0
 20 40  1  0
 21 41  1  0
 22 42  1  0
 23 43  1  0
 24 44  1  0
M  ISO  8  25  13  26  13  27  13  28  13  29   5  30  13  31  13  32  13
M  ISO  8  33  14  34  14  35  14  36  14  37  14  38  14  39  14  40  14
M  ISO  4  41  14  42  14  43  14  44  14
M  END
>  <minimizedAffinity>  (1) 
-5.64612818

>  <minimizedRMSD>  (1) 
0.375597209

$$$$
