
     RDKit          3D

 43 46  0  0  1  0  0  0  0  0999 V2000
   44.8050   33.7180   40.9910 N   0  0  0  0  0  0  0  0  0  0  0  0
   43.5920   34.4610   40.6010 C   0  0  0  0  0  0  0  0  0  0  0  0
   42.4340   34.1420   41.4980 C   0  0  0  0  0  0  0  0  0  0  0  0
   42.2090   32.7210   41.4580 N   0  0  0  0  0  0  0  0  0  0  0  0
   43.3550   32.1250   42.1660 C   0  0  0  0  0  0  0  0  0  0  0  0
   44.6600   32.3650   41.4640 C   0  0  1  0  0  0  0  0  0  0  0  0
   46.6550   34.7890   42.0760 C   0  0  0  0  0  0  0  0  0  0  0  0
   47.9490   35.2510   42.0190 C   0  0  0  0  0  0  0  0  0  0  0  0
   48.7380   35.1400   40.8760 C   0  0  0  0  0  0  0  0  0  0  0  0
   48.1870   34.5300   39.7290 C   0  0  0  0  0  0  0  0  0  0  0  0
   46.8840   34.0700   39.7980 C   0  0  0  0  0  0  0  0  0  0  0  0
   46.1630   34.2090   40.9500 C   0  0  0  0  0  0  0  0  0  0  0  0
   44.4540   36.1060   44.8370 C   0  0  0  0  0  0  0  0  0  0  0  0
   45.0990   36.0450   43.5870 C   0  0  0  0  0  0  0  0  0  0  0  0
   45.9440   34.9620   43.3150 C   0  0  0  0  0  0  0  0  0  0  0  0
   46.1060   34.0130   44.2710 N   0  0  0  0  0  0  0  0  0  0  0  0
   45.4640   34.1090   45.4690 C   0  0  0  0  0  0  0  0  0  0  0  0
   44.6440   35.1500   45.7450 N   0  0  0  0  0  0  0  0  0  0  0  0
   44.9530   31.3620   40.3990 C   0  0  0  0  0  0  0  0  0  0  0  0
   44.4070   31.4400   39.1130 C   0  0  0  0  0  0  0  0  0  0  0  0
   44.6540   30.5420   38.1180 C   0  0  0  0  0  0  0  0  0  0  0  0
   45.5000   29.4880   38.4100 C   0  0  0  0  0  0  0  0  0  0  0  0
   46.0460   29.3970   39.6740 C   0  0  0  0  0  0  0  0  0  0  0  0
   45.7800   30.3120   40.6510 N   0  0  0  0  0  0  0  0  0  0  0  0
   43.8007   35.5395   40.6582 H   0  0  0  0  0  0  0  0  0  0  0  0
   43.3235   34.1653   39.5761 H   0  0  0  0  0  0  0  0  0  0  0  0
   42.6644   34.4532   42.5276 H   0  0  0  0  0  0  0  0  0  0  0  0
   41.5345   34.6776   41.1604 H   0  0  0  0  0  0  0  0  0  0  0  0
   41.3273   32.4820   41.9337 H   0  0  0  0  0  0  0  0  0  0  0  0
   43.4121   32.5626   43.1736 H   0  0  0  0  0  0  0  0  0  0  0  0
   43.1932   31.0376   42.2025 H   0  0  0  0  0  0  0  0  0  0  0  0
   45.4297   32.2210   42.2366 H   0  0  0  0  0  0  0  0  0  0  0  0
   48.3787   35.7277   42.9124 H   0  0  0  0  0  0  0  0  0  0  0  0
   49.7701   35.5204   40.8679 H   0  0  0  0  0  0  0  0  0  0  0  0
   48.7766   34.4233   38.8065 H   0  0  0  0  0  0  0  0  0  0  0  0
   46.4262   33.5898   38.9206 H   0  0  0  0  0  0  0  0  0  0  0  0
   43.7873   36.9505   45.0658 H   0  0  0  0  0  0  0  0  0  0  0  0
   44.9419   36.8343   42.8371 H   0  0  0  0  0  0  0  0  0  0  0  0
   45.6150   33.3256   46.2263 H   0  0  0  0  0  0  0  0  0  0  0  0
   43.7342   32.2814   38.8905 H   0  0  0  0  0  0  0  0  0  0  0  0
   44.1986   30.6513   37.1227 H   0  0  0  0  0  0  0  0  0  0  0  0
   45.7345   28.7327   37.6455 H   0  0  0  0  0  0  0  0  0  0  0  0
   46.7192   28.5575   39.9021 H   0  0  0  0  0  0  0  0  0  0  0  0
  1  6  1  0
  2  1  1  0
  2  3  1  0
  4  3  1  0
  4  5  1  0
  6  5  1  0
  7 15  1  0
  8  7  2  0
  9  8  1  0
 10 11  1  0
 10  9  2  0
 11 12  2  0
 12  1  1  0
 12  7  1  0
 13 18  2  0
 14 13  1  0
 15 14  2  0
 15 16  1  0
 16 17  2  0
 17 18  1  0
 19 24  1  0
 19  6  1  0
 20 19  2  0
 21 22  2  0
 21 20  1  0
 22 23  1  0
 23 24  2  0
  2 25  1  0
  2 26  1  0
  3 27  1  0
  3 28  1  0
  4 29  1  0
  5 30  1  0
  5 31  1  0
  6 32  1  1
  8 33  1  0
  9 34  1  0
 10 35  1  0
 11 36  1  0
 13 37  1  0
 14 38  1  0
 17 39  1  0
 20 40  1  0
 21 41  1  0
 22 42  1  0
 23 43  1  0
M  ISO  8  25  13  26  13  27  13  28  13  29   5  30  13  31  13  32  13
M  ISO  8  33  14  34  14  35  14  36  14  37  14  38  14  39  14  40  14
M  ISO  3  41  14  42  14  43  14
M  END
>  <minimizedAffinity>  (1) 
-5.64315462

>  <minimizedRMSD>  (1) 
0.117990367

$$$$
