
     RDKit          3D

 36 39  0  0  1  0  0  0  0  0999 V2000
   45.3340   33.3430   40.3810 C   0  0  0  0  0  0  0  0  0  0  0  0
   44.0010   33.6840   40.6300 C   0  0  0  0  0  0  0  0  0  0  0  0
   43.3230   33.5760   39.4710 N   0  0  0  0  0  0  0  0  0  0  0  0
   44.1800   33.1810   38.5050 C   0  0  0  0  0  0  0  0  0  0  0  0
   45.3740   33.0570   39.1110 N   0  0  0  0  0  0  0  0  0  0  0  0
   46.4910   32.6330   38.2620 C   0  0  1  0  0  0  0  0  0  0  0  0
   46.3180   32.3670   36.8240 C   0  0  0  0  0  0  0  0  0  0  0  0
   46.9490   33.6360   37.1880 C   0  0  2  0  0  0  0  0  0  0  0  0
   48.4720   33.7070   37.0530 C   0  0  0  0  0  0  0  0  0  0  0  0
   48.9240   34.9540   37.3790 F   0  0  0  0  0  0  0  0  0  0  0  0
   49.0580   32.6830   37.7240 F   0  0  0  0  0  0  0  0  0  0  0  0
   48.7290   33.5430   35.6860 F   0  0  0  0  0  0  0  0  0  0  0  0
   46.2830   33.3540   41.3580 O   0  0  0  0  0  0  0  0  0  0  0  0
   46.5700   34.4110   42.1440 C   0  0  0  0  0  0  0  0  0  0  0  0
   47.4830   35.1960   41.7090 O   0  0  0  0  0  0  0  0  0  0  0  0
   44.4790   35.8840   44.8660 C   0  0  0  0  0  0  0  0  0  0  0  0
   45.0510   35.7590   43.6130 C   0  0  0  0  0  0  0  0  0  0  0  0
   45.9090   34.6650   43.3920 C   0  0  0  0  0  0  0  0  0  0  0  0
   46.0960   33.8420   44.4180 N   0  0  0  0  0  0  0  0  0  0  0  0
   45.5430   33.9670   45.6220 C   0  0  0  0  0  0  0  0  0  0  0  0
   44.7250   35.0000   45.8480 N   0  0  0  0  0  0  0  0  0  0  0  0
   45.7460   33.0640   46.7520 C   0  0  0  0  0  0  0  0  0  0  0  0
   46.9760   32.3650   46.5520 C   0  0  0  0  0  0  0  0  0  0  0  0
   47.0900   31.2570   48.0750 S   0  0  0  0  0  0  0  0  0  0  0  0
   45.4430   31.9630   48.6820 C   0  0  0  0  0  0  0  0  0  0  0  0
   45.1600   32.7020   47.8750 N   0  0  0  0  0  0  0  0  0  0  0  0
   43.5805   33.9868   41.6003 H   0  0  0  0  0  0  0  0  0  0  0  0
   43.9497   32.9989   37.4449 H   0  0  0  0  0  0  0  0  0  0  0  0
   46.9311   32.0581   39.0901 H   0  0  0  0  0  0  0  0  0  0  0  0
   45.3067   32.3704   36.3912 H   0  0  0  0  0  0  0  0  0  0  0  0
   46.6112   31.5357   36.1660 H   0  0  0  0  0  0  0  0  0  0  0  0
   46.7587   34.6883   36.9302 H   0  0  0  0  0  0  0  0  0  0  0  0
   43.8044   36.7299   45.0642 H   0  0  0  0  0  0  0  0  0  0  0  0
   44.8428   36.4890   42.8169 H   0  0  0  0  0  0  0  0  0  0  0  0
   47.6838   32.4517   45.7145 H   0  0  0  0  0  0  0  0  0  0  0  0
   44.8923   31.7137   49.6010 H   0  0  0  0  0  0  0  0  0  0  0  0
  1  2  2  0
  1 13  1  0
  3  2  1  0
  4  5  1  0
  4  3  2  0
  5  1  1  0
  6  5  1  0
  7  8  1  0
  7  6  1  0
  8  6  1  0
  9  8  1  0
  9 10  1  0
  9 11  1  0
 12  9  1  0
 13 14  1  0
 14 18  1  0
 15 14  2  0
 16 21  2  0
 17 16  1  0
 18 17  2  0
 18 19  1  0
 19 20  2  0
 20 21  1  0
 20 22  1  0
 22 26  1  0
 23 22  2  0
 23 24  1  0
 24 25  1  0
 26 25  2  0
  2 27  1  0
  4 28  1  0
  6 29  1  1
  7 30  1  0
  7 31  1  0
  8 32  1  1
 16 33  1  0
 17 34  1  0
 23 35  1  0
 25 36  1  0
M  ISO  8  27  14  28  14  29  13  30  13  31  13  32  13  33  14  34  14
M  ISO  2  35  14  36  14
M  END
>  <minimizedAffinity>  (1) 
-5.82984638

>  <minimizedRMSD>  (1) 
0.267138004

$$$$
