
     RDKit          3D

 37 40  0  0  1  0  0  0  0  0999 V2000
   45.3350   33.3450   40.3680 C   0  0  0  0  0  0  0  0  0  0  0  0
   44.0030   33.6880   40.6160 C   0  0  0  0  0  0  0  0  0  0  0  0
   43.3230   33.5720   39.4600 N   0  0  0  0  0  0  0  0  0  0  0  0
   44.1800   33.1700   38.4930 C   0  0  0  0  0  0  0  0  0  0  0  0
   45.3880   33.0470   39.0950 N   0  0  0  0  0  0  0  0  0  0  0  0
   46.5000   32.6190   38.2640 C   0  0  1  0  0  0  0  0  0  0  0  0
   46.3160   32.3800   36.8030 C   0  0  0  0  0  0  0  0  0  0  0  0
   46.9710   33.6420   37.1850 C   0  0  2  0  0  0  0  0  0  0  0  0
   48.4860   33.7010   37.0440 C   0  0  0  0  0  0  0  0  0  0  0  0
   48.9450   34.9490   37.3810 F   0  0  0  0  0  0  0  0  0  0  0  0
   49.0730   32.6810   37.7400 F   0  0  0  0  0  0  0  0  0  0  0  0
   48.7500   33.5320   35.6820 F   0  0  0  0  0  0  0  0  0  0  0  0
   46.2690   33.3660   41.3470 O   0  0  0  0  0  0  0  0  0  0  0  0
   46.5760   34.4230   42.1190 C   0  0  0  0  0  0  0  0  0  0  0  0
   47.4970   35.1940   41.6900 O   0  0  0  0  0  0  0  0  0  0  0  0
   44.4530   35.8930   44.8270 C   0  0  0  0  0  0  0  0  0  0  0  0
   45.0280   35.7540   43.5690 C   0  0  0  0  0  0  0  0  0  0  0  0
   45.9060   34.6890   43.3730 C   0  0  0  0  0  0  0  0  0  0  0  0
   46.1140   33.8930   44.4260 N   0  0  0  0  0  0  0  0  0  0  0  0
   45.5660   34.0250   45.6250 C   0  0  0  0  0  0  0  0  0  0  0  0
   44.7250   35.0390   45.8250 N   0  0  0  0  0  0  0  0  0  0  0  0
   45.9480   33.0180   46.6400 C   0  0  0  0  0  0  0  0  0  0  0  0
   46.9450   32.0890   46.8590 C   0  0  0  0  0  0  0  0  0  0  0  0
   46.6260   31.4940   48.0630 C   0  0  0  0  0  0  0  0  0  0  0  0
   45.4560   32.0830   48.5200 C   0  0  0  0  0  0  0  0  0  0  0  0
   45.0840   32.9940   47.6320 O   0  0  0  0  0  0  0  0  0  0  0  0
   43.5842   33.9980   41.5848 H   0  0  0  0  0  0  0  0  0  0  0  0
   43.9445   32.9817   37.4351 H   0  0  0  0  0  0  0  0  0  0  0  0
   46.9375   32.0298   39.0834 H   0  0  0  0  0  0  0  0  0  0  0  0
   45.3030   32.4053   36.3750 H   0  0  0  0  0  0  0  0  0  0  0  0
   46.5953   31.5560   36.1300 H   0  0  0  0  0  0  0  0  0  0  0  0
   46.7930   34.6998   36.9412 H   0  0  0  0  0  0  0  0  0  0  0  0
   43.7568   36.7250   45.0088 H   0  0  0  0  0  0  0  0  0  0  0  0
   44.7983   36.4595   42.7569 H   0  0  0  0  0  0  0  0  0  0  0  0
   47.8080   31.8699   46.2131 H   0  0  0  0  0  0  0  0  0  0  0  0
   47.1949   30.6990   48.5674 H   0  0  0  0  0  0  0  0  0  0  0  0
   44.9299   31.8374   49.4543 H   0  0  0  0  0  0  0  0  0  0  0  0
  1  2  2  0
  1 13  1  0
  3  2  1  0
  4  5  1  0
  4  3  2  0
  5  1  1  0
  6  5  1  0
  7  8  1  0
  7  6  1  0
  8  6  1  0
  9  8  1  0
  9 10  1  0
  9 11  1  0
 12  9  1  0
 13 14  1  0
 14 18  1  0
 15 14  2  0
 16 21  2  0
 17 16  1  0
 18 17  2  0
 18 19  1  0
 19 20  2  0
 20 21  1  0
 20 22  1  0
 22 23  2  0
 22 26  1  0
 23 24  1  0
 24 25  2  0
 26 25  1  0
  2 27  1  0
  4 28  1  0
  6 29  1  1
  7 30  1  0
  7 31  1  0
  8 32  1  1
 16 33  1  0
 17 34  1  0
 23 35  1  0
 24 36  1  0
 25 37  1  0
M  ISO  8  27  14  28  14  29  13  30  13  31  13  32  13  33  14  34  14
M  ISO  3  35  14  36  14  37  14
M  END
>  <minimizedAffinity>  (1) 
-5.90607119

>  <minimizedRMSD>  (1) 
0.28106308

$$$$
