
     RDKit          3D

 36 38  0  0  1  0  0  0  0  0999 V2000
   45.3330   33.3630   40.3740 C   0  0  0  0  0  0  0  0  0  0  0  0
   44.0010   33.6920   40.6300 C   0  0  0  0  0  0  0  0  0  0  0  0
   43.3210   33.5620   39.4720 N   0  0  0  0  0  0  0  0  0  0  0  0
   44.1840   33.1660   38.5060 C   0  0  0  0  0  0  0  0  0  0  0  0
   45.3800   33.0620   39.1080 N   0  0  0  0  0  0  0  0  0  0  0  0
   46.4970   32.6430   38.2690 C   0  0  1  0  0  0  0  0  0  0  0  0
   46.3170   32.3870   36.8120 C   0  0  0  0  0  0  0  0  0  0  0  0
   46.9560   33.6460   37.1840 C   0  0  2  0  0  0  0  0  0  0  0  0
   48.4820   33.6960   37.0450 C   0  0  0  0  0  0  0  0  0  0  0  0
   48.9260   34.9560   37.3790 F   0  0  0  0  0  0  0  0  0  0  0  0
   49.0720   32.6840   37.7230 F   0  0  0  0  0  0  0  0  0  0  0  0
   48.7440   33.5370   35.6900 F   0  0  0  0  0  0  0  0  0  0  0  0
   46.2860   33.3950   41.3470 O   0  0  0  0  0  0  0  0  0  0  0  0
   46.5780   34.4440   42.1320 C   0  0  0  0  0  0  0  0  0  0  0  0
   47.5040   35.1950   41.7050 O   0  0  0  0  0  0  0  0  0  0  0  0
   44.4830   35.9810   44.8120 C   0  0  0  0  0  0  0  0  0  0  0  0
   45.0810   35.8340   43.5630 C   0  0  0  0  0  0  0  0  0  0  0  0
   45.9020   34.7150   43.3690 C   0  0  0  0  0  0  0  0  0  0  0  0
   46.0280   33.8970   44.4050 N   0  0  0  0  0  0  0  0  0  0  0  0
   45.4660   34.0250   45.5950 C   0  0  0  0  0  0  0  0  0  0  0  0
   44.6800   35.0880   45.7990 N   0  0  0  0  0  0  0  0  0  0  0  0
   45.6340   33.0870   46.7290 C   0  0  0  0  0  0  0  0  0  0  0  0
   46.9550   32.3820   46.5930 C   0  0  0  0  0  0  0  0  0  0  0  0
   43.5821   34.0009   41.5991 H   0  0  0  0  0  0  0  0  0  0  0  0
   43.9532   32.9703   37.4484 H   0  0  0  0  0  0  0  0  0  0  0  0
   46.9397   32.0700   39.0971 H   0  0  0  0  0  0  0  0  0  0  0  0
   45.3048   32.4008   36.3815 H   0  0  0  0  0  0  0  0  0  0  0  0
   46.6031   31.5591   36.1466 H   0  0  0  0  0  0  0  0  0  0  0  0
   46.7698   34.7000   36.9302 H   0  0  0  0  0  0  0  0  0  0  0  0
   43.8331   36.8491   44.9964 H   0  0  0  0  0  0  0  0  0  0  0  0
   44.9154   36.5675   42.7601 H   0  0  0  0  0  0  0  0  0  0  0  0
   45.6107   33.6461   47.6760 H   0  0  0  0  0  0  0  0  0  0  0  0
   44.8181   32.3493   46.7236 H   0  0  0  0  0  0  0  0  0  0  0  0
   47.3599   32.1659   47.5927 H   0  0  0  0  0  0  0  0  0  0  0  0
   46.8129   31.4398   46.0434 H   0  0  0  0  0  0  0  0  0  0  0  0
   47.6587   33.0245   46.0434 H   0  0  0  0  0  0  0  0  0  0  0  0
  1  2  2  0
  1 13  1  0
  3  2  1  0
  4  5  1  0
  4  3  2  0
  5  1  1  0
  6  5  1  0
  7  8  1  0
  7  6  1  0
  8  6  1  0
  9  8  1  0
  9 10  1  0
  9 11  1  0
 12  9  1  0
 13 14  1  0
 14 18  1  0
 15 14  2  0
 16 21  2  0
 17 16  1  0
 18 17  2  0
 18 19  1  0
 19 20  2  0
 20 21  1  0
 20 22  1  0
 23 22  1  0
  2 24  1  0
  4 25  1  0
  6 26  1  1
  7 27  1  0
  7 28  1  0
  8 29  1  1
 16 30  1  0
 17 31  1  0
 22 32  1  0
 22 33  1  0
 23 34  1  0
 23 35  1  0
 23 36  1  0
M  ISO  8  24  14  25  14  26  13  27  13  28  13  29  13  30  14  31  14
M  ISO  5  32   8  33   8  34   8  35   8  36   8
M  END
>  <minimizedAffinity>  (1) 
-5.13034391

>  <minimizedRMSD>  (1) 
0.206930816

$$$$
