
     RDKit          3D

 43 46  0  0  1  0  0  0  0  0999 V2000
   45.3370   33.3480   40.6060 C   0  0  0  0  0  0  0  0  0  0  0  0
   44.0100   33.7130   40.8510 C   0  0  0  0  0  0  0  0  0  0  0  0
   43.3490   33.6620   39.6830 N   0  0  0  0  0  0  0  0  0  0  0  0
   44.1990   33.2810   38.7160 C   0  0  0  0  0  0  0  0  0  0  0  0
   45.3890   33.1030   39.3180 N   0  0  0  0  0  0  0  0  0  0  0  0
   46.5090   32.6820   38.4800 C   0  0  1  0  0  0  0  0  0  0  0  0
   46.3080   32.3250   37.0510 C   0  0  0  0  0  0  0  0  0  0  0  0
   46.9000   33.6410   37.3320 C   0  0  2  0  0  0  0  0  0  0  0  0
   48.4110   33.7520   37.1500 C   0  0  0  0  0  0  0  0  0  0  0  0
   48.8220   35.0290   37.4410 F   0  0  0  0  0  0  0  0  0  0  0  0
   49.0630   32.7870   37.8500 F   0  0  0  0  0  0  0  0  0  0  0  0
   48.6410   33.5610   35.7820 F   0  0  0  0  0  0  0  0  0  0  0  0
   46.2760   33.2980   41.5860 O   0  0  0  0  0  0  0  0  0  0  0  0
   46.5410   34.2880   42.4620 C   0  0  0  0  0  0  0  0  0  0  0  0
   47.2430   35.2530   42.0200 O   0  0  0  0  0  0  0  0  0  0  0  0
   44.6480   34.9750   45.6140 C   0  0  0  0  0  0  0  0  0  0  0  0
   45.0060   35.0800   44.2820 C   0  0  0  0  0  0  0  0  0  0  0  0
   46.0700   34.2740   43.8210 C   0  0  0  0  0  0  0  0  0  0  0  0
   46.6290   33.4790   44.7320 N   0  0  0  0  0  0  0  0  0  0  0  0
   46.2920   33.3720   46.0060 C   0  0  0  0  0  0  0  0  0  0  0  0
   45.2930   34.1240   46.4560 N   0  0  0  0  0  0  0  0  0  0  0  0
   46.9930   32.4420   46.9410 C   0  0  0  0  0  0  0  0  0  0  0  0
   47.0720   31.0460   46.3570 C   0  0  0  0  0  0  0  0  0  0  0  0
   45.6620   30.5420   46.5190 C   0  0  0  0  0  0  0  0  0  0  0  0
   45.0900   31.2180   47.7370 C   0  0  0  0  0  0  0  0  0  0  0  0
   46.1720   32.2010   48.1920 C   0  0  0  0  0  0  0  0  0  0  0  0
   43.5836   33.9920   41.8258 H   0  0  0  0  0  0  0  0  0  0  0  0
   43.9693   33.1426   37.6492 H   0  0  0  0  0  0  0  0  0  0  0  0
   46.9965   32.1801   39.3288 H   0  0  0  0  0  0  0  0  0  0  0  0
   45.2869   32.2660   36.6462 H   0  0  0  0  0  0  0  0  0  0  0  0
   46.6165   31.4702   36.4311 H   0  0  0  0  0  0  0  0  0  0  0  0
   46.6614   34.6697   37.0239 H   0  0  0  0  0  0  0  0  0  0  0  0
   43.8241   35.5930   46.0003 H   0  0  0  0  0  0  0  0  0  0  0  0
   44.4795   35.7683   43.6045 H   0  0  0  0  0  0  0  0  0  0  0  0
   47.9709   32.9086   47.1307 H   0  0  0  0  0  0  0  0  0  0  0  0
   47.7838   30.4212   46.9164 H   0  0  0  0  0  0  0  0  0  0  0  0
   47.4267   31.0266   45.3159 H   0  0  0  0  0  0  0  0  0  0  0  0
   45.0654   30.7965   45.6305 H   0  0  0  0  0  0  0  0  0  0  0  0
   45.6469   29.4481   46.6337 H   0  0  0  0  0  0  0  0  0  0  0  0
   44.1638   31.7539   47.4822 H   0  0  0  0  0  0  0  0  0  0  0  0
   44.8306   30.4963   48.5256 H   0  0  0  0  0  0  0  0  0  0  0  0
   46.7910   31.7612   48.9879 H   0  0  0  0  0  0  0  0  0  0  0  0
   45.7543   33.1283   48.6111 H   0  0  0  0  0  0  0  0  0  0  0  0
  1  2  2  0
  1 13  1  0
  3  2  1  0
  4  5  1  0
  4  3  2  0
  5  1  1  0
  6  5  1  0
  7  8  1  0
  7  6  1  0
  8  6  1  0
  9  8  1  0
  9 10  1  0
  9 11  1  0
 12  9  1  0
 13 14  1  0
 14 18  1  0
 15 14  2  0
 16 21  2  0
 17 16  1  0
 18 17  2  0
 18 19  1  0
 19 20  2  0
 20 21  1  0
 20 22  1  0
 22 26  1  0
 23 24  1  0
 23 22  1  0
 24 25  1  0
 25 26  1  0
  2 27  1  0
  4 28  1  0
  6 29  1  1
  7 30  1  0
  7 31  1  0
  8 32  1  1
 16 33  1  0
 17 34  1  0
 22 35  1  0
 23 36  1  0
 23 37  1  0
 24 38  1  0
 24 39  1  0
 25 40  1  0
 25 41  1  0
 26 42  1  0
 26 43  1  0
M  ISO  8  27  14  28  14  29  13  30  13  31  13  32  13  33  14  34  14
M  ISO  8  35  13  36  13  37  13  38  13  39  13  40  13  41  13  42  13
M  ISO  1  43  13
M  END
>  <minimizedAffinity>  (1) 
-5.4295373

>  <minimizedRMSD>  (1) 
1.20494628

$$$$
