
     RDKit          3D

 33 35  0  0  1  0  0  0  0  0999 V2000
   45.4410   33.4790   40.3130 C   0  0  0  0  0  0  0  0  0  0  0  0
   44.1290   33.8730   40.6120 C   0  0  0  0  0  0  0  0  0  0  0  0
   43.4020   33.7090   39.4840 N   0  0  0  0  0  0  0  0  0  0  0  0
   44.1940   33.2390   38.5110 C   0  0  0  0  0  0  0  0  0  0  0  0
   45.4290   33.1120   39.0580 N   0  0  0  0  0  0  0  0  0  0  0  0
   46.4800   32.6150   38.1970 C   0  0  1  0  0  0  0  0  0  0  0  0
   46.2560   32.3950   36.7460 C   0  0  0  0  0  0  0  0  0  0  0  0
   47.0040   33.6000   37.1170 C   0  0  2  0  0  0  0  0  0  0  0  0
   48.5190   33.5420   36.9430 C   0  0  0  0  0  0  0  0  0  0  0  0
   49.0730   34.7390   37.3150 F   0  0  0  0  0  0  0  0  0  0  0  0
   49.0390   32.4520   37.5800 F   0  0  0  0  0  0  0  0  0  0  0  0
   48.7420   33.4090   35.5690 F   0  0  0  0  0  0  0  0  0  0  0  0
   46.4300   33.5240   41.2460 O   0  0  0  0  0  0  0  0  0  0  0  0
   46.6880   34.5640   42.0600 C   0  0  0  0  0  0  0  0  0  0  0  0
   47.6040   35.3710   41.6670 O   0  0  0  0  0  0  0  0  0  0  0  0
   44.5040   35.9460   44.7630 C   0  0  0  0  0  0  0  0  0  0  0  0
   45.1190   35.8530   43.5190 C   0  0  0  0  0  0  0  0  0  0  0  0
   45.9930   34.7740   43.2940 C   0  0  0  0  0  0  0  0  0  0  0  0
   46.1570   33.9220   44.3130 N   0  0  0  0  0  0  0  0  0  0  0  0
   45.5630   34.0160   45.5050 C   0  0  0  0  0  0  0  0  0  0  0  0
   44.7360   35.0310   45.7300 N   0  0  0  0  0  0  0  0  0  0  0  0
   45.8530   32.9870   46.5280 C   0  0  0  0  0  0  0  0  0  0  0  0
   43.7613   34.2447   41.5798 H   0  0  0  0  0  0  0  0  0  0  0  0
   43.9018   33.0035   37.4770 H   0  0  0  0  0  0  0  0  0  0  0  0
   46.8858   31.9913   39.0071 H   0  0  0  0  0  0  0  0  0  0  0  0
   45.2405   32.4949   36.3351 H   0  0  0  0  0  0  0  0  0  0  0  0
   46.4636   31.5546   36.0672 H   0  0  0  0  0  0  0  0  0  0  0  0
   46.9002   34.6696   36.8819 H   0  0  0  0  0  0  0  0  0  0  0  0
   43.8157   36.7802   44.9635 H   0  0  0  0  0  0  0  0  0  0  0  0
   44.9278   36.6005   42.7349 H   0  0  0  0  0  0  0  0  0  0  0  0
   45.7304   33.4221   47.5308 H   0  0  0  0  0  0  0  0  0  0  0  0
   45.1576   32.1433   46.4068 H   0  0  0  0  0  0  0  0  0  0  0  0
   46.8866   32.6306   46.4068 H   0  0  0  0  0  0  0  0  0  0  0  0
  1  2  2  0
  1 13  1  0
  3  2  1  0
  4  5  1  0
  4  3  2  0
  5  1  1  0
  6  5  1  0
  7  8  1  0
  7  6  1  0
  8  6  1  0
  9  8  1  0
  9 10  1  0
  9 11  1  0
 12  9  1  0
 13 14  1  0
 14 18  1  0
 15 14  2  0
 16 21  2  0
 17 16  1  0
 18 17  2  0
 18 19  1  0
 19 20  2  0
 20 21  1  0
 20 22  1  0
  2 23  1  0
  4 24  1  0
  6 25  1  1
  7 26  1  0
  7 27  1  0
  8 28  1  1
 16 29  1  0
 17 30  1  0
 22 31  1  0
 22 32  1  0
 22 33  1  0
M  ISO  8  23  14  24  14  25  13  26  13  27  13  28  13  29  14  30  14
M  ISO  3  31   8  32   8  33   8
M  END
>  <minimizedAffinity>  (1) 
-5.09386301

>  <minimizedRMSD>  (1) 
0.0974204093

$$$$
