
     RDKit          3D

 30 33  0  0  0  0  0  0  0  0999 V2000
   46.1180   32.7120   46.9750 C   0  0  0  0  0  0  0  0  0  0  0  0
   45.1480   32.5570   47.9500 C   0  0  0  0  0  0  0  0  0  0  0  0
   45.3190   31.7470   49.0590 C   0  0  0  0  0  0  0  0  0  0  0  0
   46.5310   31.1100   49.1110 C   0  0  0  0  0  0  0  0  0  0  0  0
   47.5290   31.2280   48.1710 C   0  0  0  0  0  0  0  0  0  0  0  0
   47.2670   32.0390   47.1280 N   0  0  0  0  0  0  0  0  0  0  0  0
   48.7800   30.5550   48.2460 N   0  0  0  0  0  0  0  0  0  0  0  0
   49.1900   29.6560   47.3380 C   0  0  0  0  0  0  0  0  0  0  0  0
   50.4200   29.1470   47.6230 N   0  0  0  0  0  0  0  0  0  0  0  0
   50.8020   29.7590   48.7720 C   0  0  0  0  0  0  0  0  0  0  0  0
   51.8790   29.7510   49.6260 C   0  0  0  0  0  0  0  0  0  0  0  0
   51.9360   30.5190   50.7270 N   0  0  0  0  0  0  0  0  0  0  0  0
   50.9140   31.3550   51.0590 C   0  0  0  0  0  0  0  0  0  0  0  0
   49.8380   31.3960   50.2540 N   0  0  0  0  0  0  0  0  0  0  0  0
   49.7780   30.6320   49.1540 C   0  0  0  0  0  0  0  0  0  0  0  0
   44.7350   35.3190   44.8510 C   0  0  0  0  0  0  0  0  0  0  0  0
   45.4970   35.2090   43.6530 C   0  0  0  0  0  0  0  0  0  0  0  0
   46.4810   34.2330   43.5930 C   0  0  0  0  0  0  0  0  0  0  0  0
   46.6620   33.4390   44.6790 N   0  0  0  0  0  0  0  0  0  0  0  0
   45.9110   33.5730   45.8150 C   0  0  0  0  0  0  0  0  0  0  0  0
   44.9530   34.5170   45.8870 N   0  0  0  0  0  0  0  0  0  0  0  0
   44.1990   33.1019   47.8385 H   0  0  0  0  0  0  0  0  0  0  0  0
   44.5472   31.6249   49.8332 H   0  0  0  0  0  0  0  0  0  0  0  0
   46.7212   30.4524   49.9721 H   0  0  0  0  0  0  0  0  0  0  0  0
   48.5969   29.3624   46.4593 H   0  0  0  0  0  0  0  0  0  0  0  0
   52.7281   29.0895   49.3990 H   0  0  0  0  0  0  0  0  0  0  0  0
   50.9673   31.9805   51.9623 H   0  0  0  0  0  0  0  0  0  0  0  0
   43.9486   36.0850   44.9199 H   0  0  0  0  0  0  0  0  0  0  0  0
   45.3108   35.8783   42.8002 H   0  0  0  0  0  0  0  0  0  0  0  0
   47.0973   34.1061   42.6907 H   0  0  0  0  0  0  0  0  0  0  0  0
  1  6  1  0
  1  2  2  0
  2  3  1  0
  3  4  2  0
  5  7  1  0
  5  4  1  0
  6  5  2  0
  7 15  1  0
  8  9  2  0
  8  7  1  0
  9 10  1  0
 10 15  2  0
 10 11  1  0
 11 12  2  0
 12 13  1  0
 14 13  2  0
 15 14  1  0
 16 21  2  0
 17 16  1  0
 18 17  2  0
 18 19  1  0
 19 20  2  0
 20 21  1  0
 20  1  1  0
  2 22  1  0
  3 23  1  0
  4 24  1  0
  8 25  1  0
 11 26  1  0
 13 27  1  0
 16 28  1  0
 17 29  1  0
 18 30  1  0
M  ISO  8  22  14  23  14  24  14  25  14  26  14  27  14  28  14  29  14
M  ISO  1  30  14
M  END
>  <minimizedAffinity>  (1) 
-6.23552656

>  <minimizedRMSD>  (1) 
0.326963454

$$$$
