
     RDKit          3D

 41 44  0  0  1  0  0  0  0  0999 V2000
   44.8150   33.6930   40.9960 N   0  0  0  0  0  0  0  0  0  0  0  0
   43.6010   34.4110   40.5730 C   0  0  0  0  0  0  0  0  0  0  0  0
   42.4380   34.1060   41.4720 C   0  0  0  0  0  0  0  0  0  0  0  0
   42.2330   32.6780   41.4860 N   0  0  0  0  0  0  0  0  0  0  0  0
   43.3760   32.1230   42.1990 C   0  0  0  0  0  0  0  0  0  0  0  0
   44.6920   32.3540   41.5120 C   0  0  1  0  0  0  0  0  0  0  0  0
   46.6580   34.7870   42.0750 C   0  0  0  0  0  0  0  0  0  0  0  0
   47.9510   35.2610   42.0170 C   0  0  0  0  0  0  0  0  0  0  0  0
   48.7330   35.1470   40.8660 C   0  0  0  0  0  0  0  0  0  0  0  0
   48.1890   34.5310   39.7300 C   0  0  0  0  0  0  0  0  0  0  0  0
   46.8940   34.0590   39.7980 C   0  0  0  0  0  0  0  0  0  0  0  0
   46.1720   34.1980   40.9530 C   0  0  0  0  0  0  0  0  0  0  0  0
   44.4470   36.1020   44.8260 C   0  0  0  0  0  0  0  0  0  0  0  0
   45.0910   36.0380   43.5800 C   0  0  0  0  0  0  0  0  0  0  0  0
   45.9430   34.9600   43.3170 C   0  0  0  0  0  0  0  0  0  0  0  0
   46.1160   34.0150   44.2770 N   0  0  0  0  0  0  0  0  0  0  0  0
   45.4660   34.1210   45.4760 C   0  0  0  0  0  0  0  0  0  0  0  0
   44.6410   35.1580   45.7420 N   0  0  0  0  0  0  0  0  0  0  0  0
   45.0070   31.3270   40.4740 C   0  0  0  0  0  0  0  0  0  0  0  0
   44.5060   31.2100   39.1790 C   0  0  0  0  0  0  0  0  0  0  0  0
   45.0530   30.1250   38.5490 C   0  0  0  0  0  0  0  0  0  0  0  0
   45.8870   29.5780   39.4560 N   0  0  0  0  0  0  0  0  0  0  0  0
   45.8670   30.2810   40.5940 N   0  0  0  0  0  0  0  0  0  0  0  0
   43.7985   35.4928   40.5992 H   0  0  0  0  0  0  0  0  0  0  0  0
   43.3443   34.0835   39.5547 H   0  0  0  0  0  0  0  0  0  0  0  0
   42.6537   34.4600   42.4909 H   0  0  0  0  0  0  0  0  0  0  0  0
   41.5339   34.6132   41.1041 H   0  0  0  0  0  0  0  0  0  0  0  0
   41.3570   32.4457   41.9754 H   0  0  0  0  0  0  0  0  0  0  0  0
   43.4200   32.5851   43.1962 H   0  0  0  0  0  0  0  0  0  0  0  0
   43.2262   31.0342   42.2447 H   0  0  0  0  0  0  0  0  0  0  0  0
   45.4547   32.2376   42.2961 H   0  0  0  0  0  0  0  0  0  0  0  0
   48.3808   35.7448   42.9065 H   0  0  0  0  0  0  0  0  0  0  0  0
   49.7621   35.5352   40.8506 H   0  0  0  0  0  0  0  0  0  0  0  0
   48.7795   34.4266   38.8078 H   0  0  0  0  0  0  0  0  0  0  0  0
   46.4411   33.5703   38.9228 H   0  0  0  0  0  0  0  0  0  0  0  0
   43.7738   36.9434   45.0470 H   0  0  0  0  0  0  0  0  0  0  0  0
   44.9286   36.8210   42.8246 H   0  0  0  0  0  0  0  0  0  0  0  0
   45.6181   33.3450   46.2406 H   0  0  0  0  0  0  0  0  0  0  0  0
   43.7732   31.8941   38.7263 H   0  0  0  0  0  0  0  0  0  0  0  0
   44.8551   29.7753   37.5250 H   0  0  0  0  0  0  0  0  0  0  0  0
   46.4593   28.7368   39.2953 H   0  0  0  0  0  0  0  0  0  0  0  0
  1  6  1  0
  2  1  1  0
  2  3  1  0
  3  4  1  0
  4  5  1  0
  6  5  1  0
  7 15  1  0
  8  7  2  0
  9  8  1  0
 10 11  1  0
 10  9  2  0
 11 12  2  0
 12  1  1  0
 12  7  1  0
 13 18  2  0
 14 13  1  0
 15 14  2  0
 15 16  1  0
 16 17  2  0
 17 18  1  0
 19 23  2  0
 19  6  1  0
 20 19  1  0
 21 20  2  0
 21 22  1  0
 22 23  1  0
  2 24  1  0
  2 25  1  0
  3 26  1  0
  3 27  1  0
  4 28  1  0
  5 29  1  0
  5 30  1  0
  6 31  1  1
  8 32  1  0
  9 33  1  0
 10 34  1  0
 11 35  1  0
 13 36  1  0
 14 37  1  0
 17 38  1  0
 20 39  1  0
 21 40  1  0
 22 41  1  0
M  ISO  8  24  13  25  13  26  13  27  13  28   5  29  13  30  13  31  13
M  ISO  8  32  14  33  14  34  14  35  14  36  14  37  14  38  14  39  14
M  ISO  2  40  14  41   9
M  END
>  <minimizedAffinity>  (1) 
-5.62362432

>  <minimizedRMSD>  (1) 
0.0805329159

$$$$
