
     RDKit          3D

 30 32  0  0  0  0  0  0  0  0999 V2000
   46.1050   32.7150   47.0680 C   0  0  0  0  0  0  0  0  0  0  0  0
   45.0610   32.3550   47.8880 C   0  0  0  0  0  0  0  0  0  0  0  0
   45.1930   31.5560   49.0130 C   0  0  0  0  0  0  0  0  0  0  0  0
   46.5030   31.1450   49.2400 C   0  0  0  0  0  0  0  0  0  0  0  0
   47.5830   31.4770   48.4510 C   0  0  0  0  0  0  0  0  0  0  0  0
   47.3180   32.2570   47.3910 N   0  0  0  0  0  0  0  0  0  0  0  0
   48.8790   30.9940   48.7870 N   0  0  0  0  0  0  0  0  0  0  0  0
   49.6830   31.8300   49.4690 C   0  0  0  0  0  0  0  0  0  0  0  0
   50.9370   31.3520   49.7900 C   0  0  0  0  0  0  0  0  0  0  0  0
   51.2540   30.0700   49.3890 C   0  0  0  0  0  0  0  0  0  0  0  0
   52.5220   29.4910   49.6740 N   0  0  0  0  0  0  0  0  0  0  0  0
   50.4080   29.2730   48.7070 N   0  0  0  0  0  0  0  0  0  0  0  0
   49.1670   29.7420   48.3860 C   0  0  0  0  0  0  0  0  0  0  0  0
   48.3240   29.0540   47.7520 O   0  0  0  0  0  0  0  0  0  0  0  0
   44.7550   35.2890   44.8760 C   0  0  0  0  0  0  0  0  0  0  0  0
   45.5220   35.1540   43.6920 C   0  0  0  0  0  0  0  0  0  0  0  0
   46.5040   34.1720   43.6630 C   0  0  0  0  0  0  0  0  0  0  0  0
   46.6670   33.3960   44.7760 N   0  0  0  0  0  0  0  0  0  0  0  0
   45.9060   33.5570   45.8980 C   0  0  0  0  0  0  0  0  0  0  0  0
   44.9570   34.5020   45.9390 N   0  0  0  0  0  0  0  0  0  0  0  0
   44.0566   32.7250   47.6347 H   0  0  0  0  0  0  0  0  0  0  0  0
   44.3488   31.2756   49.6600 H   0  0  0  0  0  0  0  0  0  0  0  0
   46.6907   30.5065   50.1159 H   0  0  0  0  0  0  0  0  0  0  0  0
   49.3578   32.8410   49.7555 H   0  0  0  0  0  0  0  0  0  0  0  0
   51.6578   31.9702   50.3453 H   0  0  0  0  0  0  0  0  0  0  0  0
   52.7319   28.5319   49.3627 H   0  0  0  0  0  0  0  0  0  0  0  0
   53.2301   30.0310   50.1916 H   0  0  0  0  0  0  0  0  0  0  0  0
   43.9730   36.0612   44.9223 H   0  0  0  0  0  0  0  0  0  0  0  0
   45.3454   35.8059   42.8238 H   0  0  0  0  0  0  0  0  0  0  0  0
   47.1311   34.0235   42.7716 H   0  0  0  0  0  0  0  0  0  0  0  0
  1  6  1  0
  1  2  2  0
  2  3  1  0
  3  4  2  0
  5  7  1  0
  5  4  1  0
  6  5  2  0
  7  8  1  0
  8  9  2  0
 10 11  1  0
 10  9  1  0
 12 10  2  0
 13 12  1  0
 13  7  1  0
 14 13  2  0
 15 20  2  0
 16 15  1  0
 17 16  2  0
 17 18  1  0
 18 19  2  0
 19 20  1  0
 19  1  1  0
  2 21  1  0
  3 22  1  0
  4 23  1  0
  8 24  1  0
  9 25  1  0
 11 26  1  0
 11 27  1  0
 15 28  1  0
 16 29  1  0
 17 30  1  0
M  ISO  8  21  14  22  14  23  14  24  14  25  14  28  14  29  14  30  14
M  END
>  <minimizedAffinity>  (1) 
-6.0642786

>  <minimizedRMSD>  (1) 
0.730857372

$$$$
