
     RDKit          3D

 32 34  0  0  0  0  0  0  0  0999 V2000
   46.1120   32.7120   47.0500 C   0  0  0  0  0  0  0  0  0  0  0  0
   45.0410   32.3950   47.8500 C   0  0  0  0  0  0  0  0  0  0  0  0
   45.1610   31.6210   48.9790 C   0  0  0  0  0  0  0  0  0  0  0  0
   46.4520   31.1840   49.2540 C   0  0  0  0  0  0  0  0  0  0  0  0
   47.5410   31.4800   48.4810 C   0  0  0  0  0  0  0  0  0  0  0  0
   47.3080   32.2410   47.4010 N   0  0  0  0  0  0  0  0  0  0  0  0
   44.8290   35.2640   44.7760 C   0  0  0  0  0  0  0  0  0  0  0  0
   45.6240   35.1220   43.6240 C   0  0  0  0  0  0  0  0  0  0  0  0
   46.6030   34.1380   43.6440 C   0  0  0  0  0  0  0  0  0  0  0  0
   46.7580   33.3600   44.7540 N   0  0  0  0  0  0  0  0  0  0  0  0
   45.9560   33.5360   45.8560 C   0  0  0  0  0  0  0  0  0  0  0  0
   45.0000   34.4870   45.8550 N   0  0  0  0  0  0  0  0  0  0  0  0
   51.5370   30.2140   49.3740 C   0  0  0  0  0  0  0  0  0  0  0  0
   50.7090   29.4660   48.5630 C   0  0  0  0  0  0  0  0  0  0  0  0
   49.4370   29.8570   48.2720 C   0  0  0  0  0  0  0  0  0  0  0  0
   48.8940   31.0220   48.7650 C   0  0  0  0  0  0  0  0  0  0  0  0
   49.7190   31.7640   49.5710 C   0  0  0  0  0  0  0  0  0  0  0  0
   51.0220   31.3870   49.8850 C   0  0  0  0  0  0  0  0  0  0  0  0
   53.1610   29.7430   49.7640 S   0  0  0  0  0  0  0  0  0  0  0  0
   53.0770   28.8490   50.9810 O   0  0  0  0  0  0  0  0  0  0  0  0
   53.9830   30.9640   50.0730 O   0  0  0  0  0  0  0  0  0  0  0  0
   44.0465   32.7765   47.5754 H   0  0  0  0  0  0  0  0  0  0  0  0
   44.3014   31.3666   49.6165 H   0  0  0  0  0  0  0  0  0  0  0  0
   46.6071   30.5621   50.1480 H   0  0  0  0  0  0  0  0  0  0  0  0
   44.0444   36.0348   44.7918 H   0  0  0  0  0  0  0  0  0  0  0  0
   45.4759   35.7644   42.7434 H   0  0  0  0  0  0  0  0  0  0  0  0
   47.2512   33.9861   42.7684 H   0  0  0  0  0  0  0  0  0  0  0  0
   51.0876   28.5247   48.1381 H   0  0  0  0  0  0  0  0  0  0  0  0
   48.8220   29.2193   47.6200 H   0  0  0  0  0  0  0  0  0  0  0  0
   49.3318   32.7043   49.9905 H   0  0  0  0  0  0  0  0  0  0  0  0
   51.6383   32.0222   50.5381 H   0  0  0  0  0  0  0  0  0  0  0  0
   53.7538   29.0872   48.7174 H   0  0  0  0  0  0  0  0  0  0  0  0
  1  6  1  0
  1  2  2  0
  2  3  1  0
  3  4  2  0
  5 16  1  0
  5  4  1  0
  6  5  2  0
  7 12  2  0
  8  9  2  0
  8  7  1  0
  9 10  1  0
 10 11  2  0
 11  1  1  0
 12 11  1  0
 13 19  1  0
 13 18  2  0
 14 13  1  0
 15 14  2  0
 15 16  1  0
 16 17  2  0
 17 18  1  0
 19 21  2  0
 19 20  2  0
  2 22  1  0
  3 23  1  0
  4 24  1  0
  7 25  1  0
  8 26  1  0
  9 27  1  0
 14 28  1  0
 15 29  1  0
 17 30  1  0
 18 31  1  0
 19 32  1  0
M  ISO  8  22  14  23  14  24  14  25  14  26  14  27  14  28  14  29  14
M  ISO  3  30  14  31  14  32  11
M  END
>  <minimizedAffinity>  (1) 
-5.70640373

>  <minimizedRMSD>  (1) 
1.042184

$$$$
