
     RDKit          3D

 34 36  0  0  0  0  0  0  0  0999 V2000
   46.1020   32.7290   47.0600 C   0  0  0  0  0  0  0  0  0  0  0  0
   45.0230   32.4010   47.8770 C   0  0  0  0  0  0  0  0  0  0  0  0
   45.1910   31.6010   49.0090 C   0  0  0  0  0  0  0  0  0  0  0  0
   46.4710   31.1680   49.2540 C   0  0  0  0  0  0  0  0  0  0  0  0
   47.5430   31.4810   48.4600 C   0  0  0  0  0  0  0  0  0  0  0  0
   47.3150   32.2500   47.3930 N   0  0  0  0  0  0  0  0  0  0  0  0
   48.8560   31.0140   48.7460 N   0  0  0  0  0  0  0  0  0  0  0  0
   49.3430   29.7570   48.2120 C   0  0  0  0  0  0  0  0  0  0  0  0
   50.8640   29.7230   48.2140 C   0  0  0  0  0  0  0  0  0  0  0  0
   51.3720   29.9130   49.6040 C   0  0  0  0  0  0  0  0  0  0  0  0
   50.5830   30.8790   50.4300 C   0  0  0  0  0  0  0  0  0  0  0  0
   49.7340   31.8050   49.5870 C   0  0  0  0  0  0  0  0  0  0  0  0
   44.7580   35.2990   44.8430 C   0  0  0  0  0  0  0  0  0  0  0  0
   45.5230   35.1610   43.6690 C   0  0  0  0  0  0  0  0  0  0  0  0
   46.4970   34.1730   43.6630 C   0  0  0  0  0  0  0  0  0  0  0  0
   46.6790   33.3850   44.7730 N   0  0  0  0  0  0  0  0  0  0  0  0
   45.9100   33.5610   45.8870 C   0  0  0  0  0  0  0  0  0  0  0  0
   44.9670   34.5140   45.8970 N   0  0  0  0  0  0  0  0  0  0  0  0
   44.0208   32.7788   47.6262 H   0  0  0  0  0  0  0  0  0  0  0  0
   44.3492   31.3338   49.6647 H   0  0  0  0  0  0  0  0  0  0  0  0
   46.6454   30.5349   50.1365 H   0  0  0  0  0  0  0  0  0  0  0  0
   48.9809   29.6390   47.1800 H   0  0  0  0  0  0  0  0  0  0  0  0
   48.9709   28.9373   48.8441 H   0  0  0  0  0  0  0  0  0  0  0  0
   51.2081   28.7517   47.8290 H   0  0  0  0  0  0  0  0  0  0  0  0
   51.2462   30.5318   47.5739 H   0  0  0  0  0  0  0  0  0  0  0  0
   51.3575   28.9368   50.1108 H   0  0  0  0  0  0  0  0  0  0  0  0
   52.3829   30.3365   49.5107 H   0  0  0  0  0  0  0  0  0  0  0  0
   49.9237   30.3111   51.1030 H   0  0  0  0  0  0  0  0  0  0  0  0
   51.2972   31.4994   50.9913 H   0  0  0  0  0  0  0  0  0  0  0  0
   50.3847   32.4282   48.9560 H   0  0  0  0  0  0  0  0  0  0  0  0
   49.1331   32.4536   50.2415 H   0  0  0  0  0  0  0  0  0  0  0  0
   43.9739   36.0691   44.8897 H   0  0  0  0  0  0  0  0  0  0  0  0
   45.3558   35.8079   42.7952 H   0  0  0  0  0  0  0  0  0  0  0  0
   47.1223   34.0211   42.7709 H   0  0  0  0  0  0  0  0  0  0  0  0
  1  6  1  0
  1  2  2  0
  2  3  1  0
  3  4  2  0
  5  7  1  0
  5  4  1  0
  6  5  2  0
  7 12  1  0
  8  9  1  0
  8  7  1  0
  9 10  1  0
 10 11  1  0
 12 11  1  0
 13 18  2  0
 14 13  1  0
 15 14  2  0
 15 16  1  0
 16 17  2  0
 17 18  1  0
 17  1  1  0
  2 19  1  0
  3 20  1  0
  4 21  1  0
  8 22  1  0
  8 23  1  0
  9 24  1  0
  9 25  1  0
 10 26  1  0
 10 27  1  0
 11 28  1  0
 11 29  1  0
 12 30  1  0
 12 31  1  0
 13 32  1  0
 14 33  1  0
 15 34  1  0
M  ISO  8  19  14  20  14  21  14  22  13  23  13  24  13  25  13  26  13
M  ISO  8  27  13  28  13  29  13  30  13  31  13  32  14  33  14  34  14
M  END
>  <minimizedAffinity>  (1) 
-5.8475666

>  <minimizedRMSD>  (1) 
0.695516467

$$$$
