
     RDKit          3D

 31 33  0  0  0  0  0  0  0  0999 V2000
   46.0990   32.7390   47.0690 C   0  0  0  0  0  0  0  0  0  0  0  0
   45.0250   32.3850   47.8790 C   0  0  0  0  0  0  0  0  0  0  0  0
   45.1920   31.5920   48.9960 C   0  0  0  0  0  0  0  0  0  0  0  0
   46.4940   31.1810   49.2460 C   0  0  0  0  0  0  0  0  0  0  0  0
   47.5780   31.5070   48.4740 C   0  0  0  0  0  0  0  0  0  0  0  0
   47.3030   32.2770   47.4200 N   0  0  0  0  0  0  0  0  0  0  0  0
   48.8980   31.0800   48.7430 N   0  0  0  0  0  0  0  0  0  0  0  0
   49.5070   29.8510   48.2370 C   0  0  0  0  0  0  0  0  0  0  0  0
   50.9580   29.9270   48.5750 C   0  0  0  0  0  0  0  0  0  0  0  0
   50.9850   30.7910   49.8190 C   0  0  0  0  0  0  0  0  0  0  0  0
   49.8700   31.7820   49.5580 C   0  0  0  0  0  0  0  0  0  0  0  0
   44.7330   35.3130   44.8650 C   0  0  0  0  0  0  0  0  0  0  0  0
   45.5010   35.1630   43.6950 C   0  0  0  0  0  0  0  0  0  0  0  0
   46.4970   34.1670   43.6670 C   0  0  0  0  0  0  0  0  0  0  0  0
   46.6670   33.3960   44.7790 N   0  0  0  0  0  0  0  0  0  0  0  0
   45.8980   33.5780   45.8920 C   0  0  0  0  0  0  0  0  0  0  0  0
   44.9560   34.5260   45.9080 N   0  0  0  0  0  0  0  0  0  0  0  0
   44.0180   32.7460   47.6229 H   0  0  0  0  0  0  0  0  0  0  0  0
   44.3507   31.3052   49.6440 H   0  0  0  0  0  0  0  0  0  0  0  0
   46.6682   30.5474   50.1282 H   0  0  0  0  0  0  0  0  0  0  0  0
   49.3738   29.7816   47.1473 H   0  0  0  0  0  0  0  0  0  0  0  0
   49.0401   28.9617   48.6856 H   0  0  0  0  0  0  0  0  0  0  0  0
   51.3667   28.9269   48.7817 H   0  0  0  0  0  0  0  0  0  0  0  0
   51.5685   30.3350   47.7560 H   0  0  0  0  0  0  0  0  0  0  0  0
   50.7830   30.1946   50.7210 H   0  0  0  0  0  0  0  0  0  0  0  0
   51.9600   31.2673   49.9995 H   0  0  0  0  0  0  0  0  0  0  0  0
   50.2568   32.6605   49.0208 H   0  0  0  0  0  0  0  0  0  0  0  0
   49.4242   32.1450   50.4958 H   0  0  0  0  0  0  0  0  0  0  0  0
   43.9485   36.0826   44.9137 H   0  0  0  0  0  0  0  0  0  0  0  0
   45.3274   35.8091   42.8219 H   0  0  0  0  0  0  0  0  0  0  0  0
   47.1201   34.0155   42.7732 H   0  0  0  0  0  0  0  0  0  0  0  0
  1  6  1  0
  1  2  2  0
  2  3  1  0
  3  4  2  0
  5  7  1  0
  5  4  1  0
  6  5  2  0
  7 11  1  0
  8  9  1  0
  8  7  1  0
  9 10  1  0
 11 10  1  0
 12 17  2  0
 13 12  1  0
 14 13  2  0
 14 15  1  0
 15 16  2  0
 16 17  1  0
 16  1  1  0
  2 18  1  0
  3 19  1  0
  4 20  1  0
  8 21  1  0
  8 22  1  0
  9 23  1  0
  9 24  1  0
 10 25  1  0
 10 26  1  0
 11 27  1  0
 11 28  1  0
 12 29  1  0
 13 30  1  0
 14 31  1  0
M  ISO  8  18  14  19  14  20  14  21  13  22  13  23  13  24  13  25  13
M  ISO  6  26  13  27  13  28  13  29  14  30  14  31  14
M  END
>  <minimizedAffinity>  (1) 
-5.62532854

>  <minimizedRMSD>  (1) 
0.688803017

$$$$
