
     RDKit          3D

 27 29  0  0  0  0  0  0  0  0999 V2000
   46.0660   32.7340   47.0690 C   0  0  0  0  0  0  0  0  0  0  0  0
   44.9940   32.3480   47.8500 C   0  0  0  0  0  0  0  0  0  0  0  0
   45.1390   31.5430   48.9720 C   0  0  0  0  0  0  0  0  0  0  0  0
   46.4480   31.1590   49.2440 C   0  0  0  0  0  0  0  0  0  0  0  0
   47.5290   31.5250   48.4880 C   0  0  0  0  0  0  0  0  0  0  0  0
   47.2890   32.3000   47.4290 N   0  0  0  0  0  0  0  0  0  0  0  0
   44.7300   35.3260   44.8700 C   0  0  0  0  0  0  0  0  0  0  0  0
   45.4960   35.1840   43.6970 C   0  0  0  0  0  0  0  0  0  0  0  0
   46.4690   34.1900   43.6770 C   0  0  0  0  0  0  0  0  0  0  0  0
   46.6320   33.4080   44.7900 N   0  0  0  0  0  0  0  0  0  0  0  0
   45.8720   33.5790   45.9000 C   0  0  0  0  0  0  0  0  0  0  0  0
   44.9440   34.5310   45.9100 N   0  0  0  0  0  0  0  0  0  0  0  0
   48.8830   31.0930   48.8200 C   0  0  0  0  0  0  0  0  0  0  0  0
   49.2930   29.8250   48.4580 C   0  0  0  0  0  0  0  0  0  0  0  0
   50.6070   29.5150   48.8230 C   0  0  0  0  0  0  0  0  0  0  0  0
   51.4220   30.3700   49.4760 N   0  0  0  0  0  0  0  0  0  0  0  0
   50.9720   31.5850   49.8010 C   0  0  0  0  0  0  0  0  0  0  0  0
   49.7020   31.9510   49.4740 N   0  0  0  0  0  0  0  0  0  0  0  0
   43.9866   32.6916   47.5723 H   0  0  0  0  0  0  0  0  0  0  0  0
   44.2872   31.2338   49.5956 H   0  0  0  0  0  0  0  0  0  0  0  0
   46.6258   30.5208   50.1222 H   0  0  0  0  0  0  0  0  0  0  0  0
   43.9503   36.1000   44.9241 H   0  0  0  0  0  0  0  0  0  0  0  0
   45.3308   35.8363   42.8268 H   0  0  0  0  0  0  0  0  0  0  0  0
   47.0948   34.0351   42.7857 H   0  0  0  0  0  0  0  0  0  0  0  0
   48.6400   29.1172   47.9264 H   0  0  0  0  0  0  0  0  0  0  0  0
   50.9976   28.5199   48.5637 H   0  0  0  0  0  0  0  0  0  0  0  0
   51.6277   32.2900   50.3330 H   0  0  0  0  0  0  0  0  0  0  0  0
  1  6  1  0
  1  2  2  0
  2  3  1  0
  3  4  2  0
  5 13  1  0
  5  4  1  0
  6  5  2  0
  7 12  2  0
  8  7  1  0
  9  8  2  0
  9 10  1  0
 10 11  2  0
 11 12  1  0
 11  1  1  0
 13 18  1  0
 14 13  2  0
 14 15  1  0
 15 16  2  0
 16 17  1  0
 18 17  2  0
  2 19  1  0
  3 20  1  0
  4 21  1  0
  7 22  1  0
  8 23  1  0
  9 24  1  0
 14 25  1  0
 15 26  1  0
 17 27  1  0
M  ISO  8  19  14  20  14  21  14  22  14  23  14  24  14  25  14  26  14
M  ISO  1  27  14
M  END
>  <minimizedAffinity>  (1) 
-5.49988365

>  <minimizedRMSD>  (1) 
0.816466749

$$$$
