
     RDKit          3D

 29 31  0  0  0  0  0  0  0  0999 V2000
   46.0590   32.7030   47.0880 C   0  0  0  0  0  0  0  0  0  0  0  0
   45.0070   32.3710   47.9060 C   0  0  0  0  0  0  0  0  0  0  0  0
   45.1690   31.5820   49.0270 C   0  0  0  0  0  0  0  0  0  0  0  0
   46.4560   31.1470   49.2750 C   0  0  0  0  0  0  0  0  0  0  0  0
   47.5310   31.4550   48.4860 C   0  0  0  0  0  0  0  0  0  0  0  0
   47.2750   32.2260   47.4210 N   0  0  0  0  0  0  0  0  0  0  0  0
   44.7870   35.2690   44.8550 C   0  0  0  0  0  0  0  0  0  0  0  0
   45.5630   35.1340   43.6890 C   0  0  0  0  0  0  0  0  0  0  0  0
   46.5340   34.1430   43.6830 C   0  0  0  0  0  0  0  0  0  0  0  0
   46.6720   33.3730   44.7950 N   0  0  0  0  0  0  0  0  0  0  0  0
   45.9020   33.5340   45.9050 C   0  0  0  0  0  0  0  0  0  0  0  0
   44.9540   34.4920   45.9250 N   0  0  0  0  0  0  0  0  0  0  0  0
   48.8970   31.0140   48.7180 C   0  0  0  0  0  0  0  0  0  0  0  0
   49.7110   31.8150   49.4830 C   0  0  0  0  0  0  0  0  0  0  0  0
   51.0250   31.5120   49.7770 C   0  0  0  0  0  0  0  0  0  0  0  0
   51.5320   30.3320   49.2640 C   0  0  0  0  0  0  0  0  0  0  0  0
   50.7210   29.5240   48.4960 C   0  0  0  0  0  0  0  0  0  0  0  0
   49.4110   29.8420   48.2120 C   0  0  0  0  0  0  0  0  0  0  0  0
   44.0026   32.7460   47.6599 H   0  0  0  0  0  0  0  0  0  0  0  0
   44.3259   31.3164   49.6817 H   0  0  0  0  0  0  0  0  0  0  0  0
   46.6273   30.5155   50.1592 H   0  0  0  0  0  0  0  0  0  0  0  0
   44.0107   36.0477   44.8847 H   0  0  0  0  0  0  0  0  0  0  0  0
   45.4062   35.7873   42.8180 H   0  0  0  0  0  0  0  0  0  0  0  0
   47.1745   33.9847   42.8028 H   0  0  0  0  0  0  0  0  0  0  0  0
   49.2917   32.7498   49.8833 H   0  0  0  0  0  0  0  0  0  0  0  0
   51.6432   32.1811   50.3936 H   0  0  0  0  0  0  0  0  0  0  0  0
   52.5731   30.0408   49.4670 H   0  0  0  0  0  0  0  0  0  0  0  0
   51.1364   28.5881   48.0940 H   0  0  0  0  0  0  0  0  0  0  0  0
   48.7906   29.1750   47.5954 H   0  0  0  0  0  0  0  0  0  0  0  0
  1  6  1  0
  1  2  2  0
  2  3  1  0
  3  4  2  0
  5 13  1  0
  5  4  1  0
  6  5  2  0
  7 12  2  0
  8  7  1  0
  9  8  2  0
  9 10  1  0
 10 11  2  0
 11 12  1  0
 11  1  1  0
 13 14  2  0
 14 15  1  0
 16 15  2  0
 17 16  1  0
 18 17  2  0
 18 13  1  0
  2 19  1  0
  3 20  1  0
  4 21  1  0
  7 22  1  0
  8 23  1  0
  9 24  1  0
 14 25  1  0
 15 26  1  0
 16 27  1  0
 17 28  1  0
 18 29  1  0
M  ISO  8  19  14  20  14  21  14  22  14  23  14  24  14  25  14  26  14
M  ISO  3  27  14  28  14  29  14
M  END
>  <minimizedAffinity>  (1) 
-5.6673727

>  <minimizedRMSD>  (1) 
0.758300602

$$$$
