
     RDKit          3D

 24 26  0  0  0  0  0  0  0  0999 V2000
   46.0740   32.7630   47.0640 C   0  0  0  0  0  0  0  0  0  0  0  0
   45.0130   32.3610   47.8490 C   0  0  0  0  0  0  0  0  0  0  0  0
   45.1780   31.5630   48.9760 C   0  0  0  0  0  0  0  0  0  0  0  0
   46.4800   31.2020   49.2530 C   0  0  0  0  0  0  0  0  0  0  0  0
   47.5560   31.5820   48.4960 C   0  0  0  0  0  0  0  0  0  0  0  0
   47.2980   32.3510   47.4280 N   0  0  0  0  0  0  0  0  0  0  0  0
   44.7300   35.3260   44.8520 C   0  0  0  0  0  0  0  0  0  0  0  0
   45.4870   35.1890   43.6710 C   0  0  0  0  0  0  0  0  0  0  0  0
   46.4760   34.1940   43.6440 C   0  0  0  0  0  0  0  0  0  0  0  0
   46.6310   33.4320   44.7650 N   0  0  0  0  0  0  0  0  0  0  0  0
   45.8760   33.6000   45.8850 C   0  0  0  0  0  0  0  0  0  0  0  0
   44.9340   34.5420   45.9220 N   0  0  0  0  0  0  0  0  0  0  0  0
   48.8890   31.1430   48.8780 C   0  0  0  0  0  0  0  0  0  0  0  0
   49.4700   29.9580   48.7010 N   0  0  0  0  0  0  0  0  0  0  0  0
   50.6790   29.9990   49.2000 O   0  0  0  0  0  0  0  0  0  0  0  0
   50.9290   31.1850   49.7100 C   0  0  0  0  0  0  0  0  0  0  0  0
   49.8060   31.8920   49.5050 N   0  0  0  0  0  0  0  0  0  0  0  0
   43.9983   32.6838   47.5731 H   0  0  0  0  0  0  0  0  0  0  0  0
   44.3314   31.2429   49.6012 H   0  0  0  0  0  0  0  0  0  0  0  0
   46.6652   30.5710   50.1348 H   0  0  0  0  0  0  0  0  0  0  0  0
   43.9485   36.0987   44.8981 H   0  0  0  0  0  0  0  0  0  0  0  0
   45.3088   35.8389   42.8016 H   0  0  0  0  0  0  0  0  0  0  0  0
   47.1020   34.0346   42.7536 H   0  0  0  0  0  0  0  0  0  0  0  0
   51.8550   31.5237   50.1976 H   0  0  0  0  0  0  0  0  0  0  0  0
  1  6  1  0
  1  2  2  0
  2  3  1  0
  3  4  2  0
  5 13  1  0
  5  4  1  0
  6  5  2  0
  7 12  2  0
  8  7  1  0
  9  8  2  0
  9 10  1  0
 10 11  2  0
 11 12  1  0
 11  1  1  0
 13 17  1  0
 14 13  2  0
 14 15  1  0
 15 16  1  0
 17 16  2  0
  2 18  1  0
  3 19  1  0
  4 20  1  0
  7 21  1  0
  8 22  1  0
  9 23  1  0
 16 24  1  0
M  ISO  7  18  14  19  14  20  14  21  14  22  14  23  14  24  14
M  END
>  <minimizedAffinity>  (1) 
-5.33568954

>  <minimizedRMSD>  (1) 
0.798262

$$$$
