
     RDKit          3D

 21 22  0  0  0  0  0  0  0  0999 V2000
   46.0660   32.7620   47.0860 C   0  0  0  0  0  0  0  0  0  0  0  0
   44.9850   32.2640   47.7810 C   0  0  0  0  0  0  0  0  0  0  0  0
   45.1420   31.4620   48.9090 C   0  0  0  0  0  0  0  0  0  0  0  0
   46.4520   31.2160   49.2630 C   0  0  0  0  0  0  0  0  0  0  0  0
   47.5540   31.6910   48.6020 C   0  0  0  0  0  0  0  0  0  0  0  0
   47.2810   32.4490   47.5360 N   0  0  0  0  0  0  0  0  0  0  0  0
   44.7290   35.3260   44.8530 C   0  0  0  0  0  0  0  0  0  0  0  0
   45.4970   35.1740   43.6840 C   0  0  0  0  0  0  0  0  0  0  0  0
   46.4680   34.1830   43.6840 C   0  0  0  0  0  0  0  0  0  0  0  0
   46.6420   33.4120   44.7890 N   0  0  0  0  0  0  0  0  0  0  0  0
   45.8690   33.5980   45.9080 C   0  0  0  0  0  0  0  0  0  0  0  0
   44.9340   34.5510   45.9090 N   0  0  0  0  0  0  0  0  0  0  0  0
   48.9100   31.3860   49.0410 C   0  0  0  0  0  0  0  0  0  0  0  0
   49.0760   30.5930   49.9860 O   0  0  0  0  0  0  0  0  0  0  0  0
   43.9694   32.5068   47.4351 H   0  0  0  0  0  0  0  0  0  0  0  0
   44.2887   31.0570   49.4728 H   0  0  0  0  0  0  0  0  0  0  0  0
   46.6263   30.5870   50.1484 H   0  0  0  0  0  0  0  0  0  0  0  0
   43.9473   36.0989   44.8914 H   0  0  0  0  0  0  0  0  0  0  0  0
   45.3341   35.8152   42.8052 H   0  0  0  0  0  0  0  0  0  0  0  0
   47.0938   34.0224   42.7938 H   0  0  0  0  0  0  0  0  0  0  0  0
   49.7747   31.8502   48.5441 H   0  0  0  0  0  0  0  0  0  0  0  0
  1  6  1  0
  1  2  2  0
  2  3  1  0
  3  4  2  0
  5 13  1  0
  5  4  1  0
  6  5  2  0
  7 12  2  0
  8  9  2  0
  8  7  1  0
  9 10  1  0
 10 11  2  0
 11 12  1  0
 11  1  1  0
 13 14  2  0
  2 15  1  0
  3 16  1  0
  4 17  1  0
  7 18  1  0
  8 19  1  0
  9 20  1  0
 13 21  1  0
M  ISO  7  15  14  16  14  17  14  18  14  19  14  20  14  21   6
M  END
>  <minimizedAffinity>  (1) 
-4.87253475

>  <minimizedRMSD>  (1) 
0.948099196

$$$$
