
     RDKit          3D

 20 21  0  0  0  0  0  0  0  0999 V2000
   46.1260   32.6650   46.9350 C   0  0  0  0  0  0  0  0  0  0  0  0
   45.2010   32.6080   47.9780 C   0  0  0  0  0  0  0  0  0  0  0  0
   45.3520   31.7850   49.0760 C   0  0  0  0  0  0  0  0  0  0  0  0
   46.5090   31.0140   49.0540 C   0  0  0  0  0  0  0  0  0  0  0  0
   47.4560   31.0380   48.0360 C   0  0  0  0  0  0  0  0  0  0  0  0
   47.2060   31.8800   47.0130 N   0  0  0  0  0  0  0  0  0  0  0  0
   44.7330   35.3340   44.8740 C   0  0  0  0  0  0  0  0  0  0  0  0
   45.4900   35.2370   43.6730 C   0  0  0  0  0  0  0  0  0  0  0  0
   46.4820   34.2410   43.5900 C   0  0  0  0  0  0  0  0  0  0  0  0
   46.6660   33.4170   44.6710 N   0  0  0  0  0  0  0  0  0  0  0  0
   45.9030   33.5600   45.8010 C   0  0  0  0  0  0  0  0  0  0  0  0
   44.9600   34.5060   45.8860 N   0  0  0  0  0  0  0  0  0  0  0  0
   48.9100   30.0130   48.0930 S   0  0  0  0  0  0  0  0  0  0  0  0
   44.3090   33.2493   47.9228 H   0  0  0  0  0  0  0  0  0  0  0  0
   44.6208   31.7428   49.8967 H   0  0  0  0  0  0  0  0  0  0  0  0
   46.6879   30.3369   49.9023 H   0  0  0  0  0  0  0  0  0  0  0  0
   43.9518   36.1031   44.9645 H   0  0  0  0  0  0  0  0  0  0  0  0
   45.3053   35.9216   42.8321 H   0  0  0  0  0  0  0  0  0  0  0  0
   47.0930   34.1268   42.6825 H   0  0  0  0  0  0  0  0  0  0  0  0
   49.2492   29.7739   49.3986 H   0  0  0  0  0  0  0  0  0  0  0  0
  1  6  1  0
  1  2  2  0
  2  3  1  0
  4  3  2  0
  5 13  1  0
  5  4  1  0
  6  5  2  0
  7 12  2  0
  8  7  1  0
  9  8  2  0
  9 10  1  0
 10 11  2  0
 11 12  1  0
 11  1  1  0
  2 14  1  0
  3 15  1  0
  4 16  1  0
  7 17  1  0
  8 18  1  0
  9 19  1  0
 13 20  1  0
M  ISO  7  14  14  15  14  16  14  17  14  18  14  19  14  20  11
M  END
>  <minimizedAffinity>  (1) 
-4.63360357

>  <minimizedRMSD>  (1) 
0.289058149

$$$$
