
     RDKit          3D

 21 22  0  0  0  0  0  0  0  0999 V2000
   46.0000   32.7680   46.9730 C   0  0  0  0  0  0  0  0  0  0  0  0
   45.0560   32.5360   47.9520 C   0  0  0  0  0  0  0  0  0  0  0  0
   45.2710   31.6900   49.0140 C   0  0  0  0  0  0  0  0  0  0  0  0
   46.5180   31.0860   49.0260 C   0  0  0  0  0  0  0  0  0  0  0  0
   47.4970   31.2890   48.0670 C   0  0  0  0  0  0  0  0  0  0  0  0
   47.1840   32.1310   47.0760 N   0  0  0  0  0  0  0  0  0  0  0  0
   48.7500   30.6180   48.1710 N   0  0  0  0  0  0  0  0  0  0  0  0
   44.5740   35.4920   45.0300 C   0  0  0  0  0  0  0  0  0  0  0  0
   45.2410   35.4060   43.7830 C   0  0  0  0  0  0  0  0  0  0  0  0
   46.1880   34.3940   43.6240 C   0  0  0  0  0  0  0  0  0  0  0  0
   46.4170   33.5520   44.6690 N   0  0  0  0  0  0  0  0  0  0  0  0
   45.7500   33.6750   45.8520 C   0  0  0  0  0  0  0  0  0  0  0  0
   44.8290   34.6430   46.0320 N   0  0  0  0  0  0  0  0  0  0  0  0
   44.0870   33.0515   47.8795 H   0  0  0  0  0  0  0  0  0  0  0  0
   44.5144   31.5073   49.7913 H   0  0  0  0  0  0  0  0  0  0  0  0
   46.7462   30.3983   49.8536 H   0  0  0  0  0  0  0  0  0  0  0  0
   49.4766   30.7703   47.4570 H   0  0  0  0  0  0  0  0  0  0  0  0
   48.9290   29.9808   48.9602 H   0  0  0  0  0  0  0  0  0  0  0  0
   43.8229   36.2817   45.1790 H   0  0  0  0  0  0  0  0  0  0  0  0
   45.0200   36.1121   42.9690 H   0  0  0  0  0  0  0  0  0  0  0  0
   46.7363   34.2792   42.6773 H   0  0  0  0  0  0  0  0  0  0  0  0
  1  6  1  0
  1  2  2  0
  2  3  1  0
  3  4  2  0
  5  7  1  0
  5  4  1  0
  6  5  2  0
  8 13  2  0
  9  8  1  0
 10  9  2  0
 10 11  1  0
 11 12  2  0
 12 13  1  0
 12  1  1  0
  2 14  1  0
  3 15  1  0
  4 16  1  0
  7 17  1  0
  7 18  1  0
  8 19  1  0
  9 20  1  0
 10 21  1  0
M  ISO  6  14  14  15  14  16  14  19  14  20  14  21  14
M  END
>  <minimizedAffinity>  (1) 
-4.66004133

>  <minimizedRMSD>  (1) 
0.101375699

$$$$
