
     RDKit          3D

 40 43  0  0  1  0  0  0  0  0999 V2000
   46.6470   34.7870   42.0650 C   0  0  0  0  0  0  0  0  0  0  0  0
   47.9400   35.2560   42.0030 C   0  0  0  0  0  0  0  0  0  0  0  0
   48.7280   35.1360   40.8490 C   0  0  0  0  0  0  0  0  0  0  0  0
   48.1710   34.5130   39.7190 C   0  0  0  0  0  0  0  0  0  0  0  0
   46.8890   34.0550   39.8010 C   0  0  0  0  0  0  0  0  0  0  0  0
   46.1560   34.1940   40.9470 C   0  0  0  0  0  0  0  0  0  0  0  0
   44.8010   33.6920   40.9880 N   0  0  0  0  0  0  0  0  0  0  0  0
   43.5920   34.4170   40.5790 C   0  0  0  0  0  0  0  0  0  0  0  0
   42.4250   34.1190   41.4780 C   0  0  0  0  0  0  0  0  0  0  0  0
   42.2260   32.6830   41.4700 N   0  0  0  0  0  0  0  0  0  0  0  0
   43.3570   32.1350   42.2090 C   0  0  0  0  0  0  0  0  0  0  0  0
   44.6690   32.3480   41.4840 C   0  0  1  0  0  0  0  0  0  0  0  0
   44.8410   31.3490   40.4390 N   0  0  0  0  0  0  0  0  0  0  0  0
   45.8780   30.4760   40.3700 C   0  0  0  0  0  0  0  0  0  0  0  0
   45.7140   29.6910   39.2650 N   0  0  0  0  0  0  0  0  0  0  0  0
   44.5880   30.0850   38.6710 C   0  0  0  0  0  0  0  0  0  0  0  0
   44.0840   31.0840   39.4000 N   0  0  0  0  0  0  0  0  0  0  0  0
   44.4540   36.1100   44.8210 C   0  0  0  0  0  0  0  0  0  0  0  0
   45.0910   36.0460   43.5770 C   0  0  0  0  0  0  0  0  0  0  0  0
   45.9330   34.9680   43.3070 C   0  0  0  0  0  0  0  0  0  0  0  0
   46.1000   34.0200   44.2680 N   0  0  0  0  0  0  0  0  0  0  0  0
   45.4590   34.1210   45.4660 C   0  0  0  0  0  0  0  0  0  0  0  0
   44.6430   35.1650   45.7300 N   0  0  0  0  0  0  0  0  0  0  0  0
   48.3706   35.7424   42.8907 H   0  0  0  0  0  0  0  0  0  0  0  0
   49.7584   35.5207   40.8288 H   0  0  0  0  0  0  0  0  0  0  0  0
   48.7536   34.3979   38.7931 H   0  0  0  0  0  0  0  0  0  0  0  0
   46.4354   33.5638   38.9275 H   0  0  0  0  0  0  0  0  0  0  0  0
   43.7979   35.4971   40.6107 H   0  0  0  0  0  0  0  0  0  0  0  0
   43.3287   34.0916   39.5617 H   0  0  0  0  0  0  0  0  0  0  0  0
   42.6408   34.4628   42.5004 H   0  0  0  0  0  0  0  0  0  0  0  0
   41.5214   34.6379   41.1256 H   0  0  0  0  0  0  0  0  0  0  0  0
   41.3393   32.4389   41.9338 H   0  0  0  0  0  0  0  0  0  0  0  0
   43.4107   32.6272   43.1913 H   0  0  0  0  0  0  0  0  0  0  0  0
   43.2000   31.0513   42.3133 H   0  0  0  0  0  0  0  0  0  0  0  0
   45.4851   32.2146   42.2094 H   0  0  0  0  0  0  0  0  0  0  0  0
   46.7114   30.4117   41.0850 H   0  0  0  0  0  0  0  0  0  0  0  0
   44.1544   29.6654   37.7513 H   0  0  0  0  0  0  0  0  0  0  0  0
   43.7878   36.9556   45.0472 H   0  0  0  0  0  0  0  0  0  0  0  0
   44.9303   36.8325   42.8250 H   0  0  0  0  0  0  0  0  0  0  0  0
   45.6078   33.3422   46.2284 H   0  0  0  0  0  0  0  0  0  0  0  0
  1 20  1  0
  2  1  2  0
  3  2  1  0
  4  5  1  0
  4  3  2  0
  5  6  2  0
  6  7  1  0
  6  1  1  0
  7 12  1  0
  8  7  1  0
  8  9  1  0
 10  9  1  0
 10 11  1  0
 12 11  1  0
 13 12  1  0
 14 13  1  0
 15 14  2  0
 16 15  1  0
 16 17  2  0
 17 13  1  0
 18 23  2  0
 19 18  1  0
 20 19  2  0
 20 21  1  0
 21 22  2  0
 22 23  1  0
  2 24  1  0
  3 25  1  0
  4 26  1  0
  5 27  1  0
  8 28  1  0
  8 29  1  0
  9 30  1  0
  9 31  1  0
 10 32  1  0
 11 33  1  0
 11 34  1  0
 12 35  1  1
 14 36  1  0
 16 37  1  0
 18 38  1  0
 19 39  1  0
 22 40  1  0
M  ISO  8  24  14  25  14  26  14  27  14  28  13  29  13  30  13  31  13
M  ISO  8  32   5  33  13  34  13  35  13  36  14  37  14  38  14  39  14
M  ISO  1  40  14
M  END
>  <minimizedAffinity>  (1) 
-5.61398363

>  <minimizedRMSD>  (1) 
0.182116598

$$$$
