
     RDKit          3D

 27 29  0  0  0  0  0  0  0  0999 V2000
   46.7440   32.6710   44.3980 C   0  0  0  0  0  0  0  0  0  0  0  0
   47.7830   32.3530   43.5790 N   0  0  0  0  0  0  0  0  0  0  0  0
   48.2210   33.1370   42.5820 C   0  0  0  0  0  0  0  0  0  0  0  0
   47.6530   34.3140   42.3180 N   0  0  0  0  0  0  0  0  0  0  0  0
   46.6310   34.7110   43.0630 C   0  0  0  0  0  0  0  0  0  0  0  0
   46.0580   35.9350   42.7720 C   0  0  0  0  0  0  0  0  0  0  0  0
   45.0000   36.4030   43.5040 C   0  0  0  0  0  0  0  0  0  0  0  0
   44.5320   35.5960   44.5460 C   0  0  0  0  0  0  0  0  0  0  0  0
   45.1430   34.3880   44.7890 C   0  0  0  0  0  0  0  0  0  0  0  0
   46.1960   33.8940   44.0810 C   0  0  0  0  0  0  0  0  0  0  0  0
   45.3050   29.7100   45.8170 C   0  0  0  0  0  0  0  0  0  0  0  0
   45.2770   29.8690   47.2110 C   0  0  0  0  0  0  0  0  0  0  0  0
   45.7880   31.0780   47.6890 C   0  0  0  0  0  0  0  0  0  0  0  0
   46.2430   31.9390   46.7790 N   0  0  0  0  0  0  0  0  0  0  0  0
   46.2810   31.8170   45.4700 C   0  0  0  0  0  0  0  0  0  0  0  0
   45.7930   30.6680   45.0470 N   0  0  0  0  0  0  0  0  0  0  0  0
   45.8590   31.4630   49.1230 C   0  0  0  0  0  0  0  0  0  0  0  0
   45.8940   32.8500   49.2680 F   0  0  0  0  0  0  0  0  0  0  0  0
   44.6850   31.0710   49.7780 F   0  0  0  0  0  0  0  0  0  0  0  0
   46.9860   30.9310   49.7200 F   0  0  0  0  0  0  0  0  0  0  0  0
   49.0692   32.8005   41.9677 H   0  0  0  0  0  0  0  0  0  0  0  0
   46.4563   36.5392   41.9436 H   0  0  0  0  0  0  0  0  0  0  0  0
   44.5363   37.3753   43.2814 H   0  0  0  0  0  0  0  0  0  0  0  0
   43.6839   35.9241   45.1649 H   0  0  0  0  0  0  0  0  0  0  0  0
   44.7525   33.7763   45.6156 H   0  0  0  0  0  0  0  0  0  0  0  0
   44.9196   28.7851   45.3631 H   0  0  0  0  0  0  0  0  0  0  0  0
   44.8793   29.0936   47.8823 H   0  0  0  0  0  0  0  0  0  0  0  0
  1 15  1  0
  2  1  2  0
  3  2  1  0
  4  3  2  0
  4  5  1  0
  5 10  2  0
  6  5  1  0
  6  7  2  0
  7  8  1  0
  8  9  2  0
 10  1  1  0
 10  9  1  0
 11 12  2  0
 12 13  1  0
 13 17  1  0
 14 13  2  0
 15 14  1  0
 16 15  2  0
 16 11  1  0
 17 18  1  0
 17 20  1  0
 17 19  1  0
  3 21  1  0
  6 22  1  0
  7 23  1  0
  8 24  1  0
  9 25  1  0
 11 26  1  0
 12 27  1  0
M  ISO  7  21  14  22  14  23  14  24  14  25  14  26  14  27  14
M  END
>  <minimizedAffinity>  (1) 
-5.78560495

>  <minimizedRMSD>  (1) 
1.46435308

$$$$
