
     RDKit          3D

 43 46  0  0  0  0  0  0  0  0999 V2000
   48.7300   29.7380   44.4740 C   0  0  0  0  0  0  0  0  0  0  0  0
   48.3620   29.4110   45.7590 C   0  0  0  0  0  0  0  0  0  0  0  0
   47.5190   30.3200   46.3830 C   0  0  0  0  0  0  0  0  0  0  0  0
   47.1590   31.4000   45.6780 N   0  0  0  0  0  0  0  0  0  0  0  0
   47.4920   31.7330   44.4610 C   0  0  0  0  0  0  0  0  0  0  0  0
   48.3060   30.8450   43.8750 N   0  0  0  0  0  0  0  0  0  0  0  0
   47.1810   32.8520   43.6050 C   0  0  0  0  0  0  0  0  0  0  0  0
   47.7090   33.0260   42.3580 N   0  0  0  0  0  0  0  0  0  0  0  0
   47.4370   34.0590   41.5560 C   0  0  0  0  0  0  0  0  0  0  0  0
   46.5990   35.0240   41.9280 N   0  0  0  0  0  0  0  0  0  0  0  0
   46.0340   34.9530   43.1120 C   0  0  0  0  0  0  0  0  0  0  0  0
   45.1540   35.9550   43.5170 C   0  0  0  0  0  0  0  0  0  0  0  0
   44.5390   35.9380   44.7270 C   0  0  0  0  0  0  0  0  0  0  0  0
   44.8240   34.8660   45.5570 C   0  0  0  0  0  0  0  0  0  0  0  0
   45.6940   33.8900   45.1340 C   0  0  0  0  0  0  0  0  0  0  0  0
   46.3200   33.8820   43.9370 C   0  0  0  0  0  0  0  0  0  0  0  0
   46.9760   30.2180   47.7450 C   0  0  0  0  0  0  0  0  0  0  0  0
   45.4710   30.4110   47.7710 C   0  0  0  0  0  0  0  0  0  0  0  0
   43.6290   26.8090   46.4690 C   0  0  0  0  0  0  0  0  0  0  0  0
   43.4880   27.9790   45.7540 C   0  0  0  0  0  0  0  0  0  0  0  0
   44.0770   29.1830   46.1480 C   0  0  0  0  0  0  0  0  0  0  0  0
   44.8320   29.1460   47.3260 C   0  0  0  0  0  0  0  0  0  0  0  0
   45.0080   28.0050   48.0830 C   0  0  0  0  0  0  0  0  0  0  0  0
   44.3980   26.8500   47.6350 C   0  0  0  0  0  0  0  0  0  0  0  0
   42.8890   25.3050   45.9700 S   0  0  0  0  0  0  0  0  0  0  0  0
   41.4800   25.2790   46.4790 O   0  0  0  0  0  0  0  0  0  0  0  0
   43.6150   24.1660   46.5990 O   0  0  0  0  0  0  0  0  0  0  0  0
   49.3983   29.0592   43.9240 H   0  0  0  0  0  0  0  0  0  0  0  0
   48.7112   28.4941   46.2564 H   0  0  0  0  0  0  0  0  0  0  0  0
   47.9157   34.1134   40.5671 H   0  0  0  0  0  0  0  0  0  0  0  0
   44.9503   36.7903   42.8309 H   0  0  0  0  0  0  0  0  0  0  0  0
   43.8477   36.7368   45.0337 H   0  0  0  0  0  0  0  0  0  0  0  0
   44.3560   34.7964   46.5501 H   0  0  0  0  0  0  0  0  0  0  0  0
   45.8954   33.0542   45.8202 H   0  0  0  0  0  0  0  0  0  0  0  0
   47.2138   29.2228   48.1489 H   0  0  0  0  0  0  0  0  0  0  0  0
   47.4318   31.0128   48.3537 H   0  0  0  0  0  0  0  0  0  0  0  0
   45.1445   30.6534   48.7931 H   0  0  0  0  0  0  0  0  0  0  0  0
   45.1827   31.2369   47.1041 H   0  0  0  0  0  0  0  0  0  0  0  0
   42.8858   27.9641   44.8336 H   0  0  0  0  0  0  0  0  0  0  0  0
   43.9543   30.1079   45.5653 H   0  0  0  0  0  0  0  0  0  0  0  0
   45.6089   28.0155   49.0043 H   0  0  0  0  0  0  0  0  0  0  0  0
   44.5223   25.9261   48.2188 H   0  0  0  0  0  0  0  0  0  0  0  0
   42.9281   25.2030   44.6044 H   0  0  0  0  0  0  0  0  0  0  0  0
  1  2  2  0
  2  3  1  0
  3 17  1  0
  4  3  2  0
  5  4  1  0
  6  5  2  0
  6  1  1  0
  7 16  1  0
  7  5  1  0
  8  7  2  0
  9 10  2  0
  9  8  1  0
 10 11  1  0
 11 12  1  0
 11 16  2  0
 12 13  2  0
 13 14  1  0
 15 14  2  0
 16 15  1  0
 17 18  1  0
 19 24  2  0
 20 21  2  0
 20 19  1  0
 21 22  1  0
 22 18  1  0
 22 23  2  0
 24 23  1  0
 25 19  1  0
 25 26  2  0
 25 27  2  0
  1 28  1  0
  2 29  1  0
  9 30  1  0
 12 31  1  0
 13 32  1  0
 14 33  1  0
 15 34  1  0
 17 35  1  0
 17 36  1  0
 18 37  1  0
 18 38  1  0
 20 39  1  0
 21 40  1  0
 23 41  1  0
 24 42  1  0
 25 43  1  0
M  ISO  8  28  14  29  14  30  14  31  14  32  14  33  14  34  14  35   8
M  ISO  8  36   8  37   8  38   8  39  14  40  14  41  14  42  14  43  11
M  END
>  <minimizedAffinity>  (1) 
-5.6771245

>  <minimizedRMSD>  (1) 
1.88502538

$$$$
