
     RDKit          3D

 37 40  0  0  0  0  0  0  0  0999 V2000
   45.4460   29.8150   46.3310 C   0  0  0  0  0  0  0  0  0  0  0  0
   45.9720   29.7850   47.6100 C   0  0  0  0  0  0  0  0  0  0  0  0
   46.8810   30.7900   47.8890 C   0  0  0  0  0  0  0  0  0  0  0  0
   47.1530   31.6650   46.9190 N   0  0  0  0  0  0  0  0  0  0  0  0
   46.6740   31.7180   45.7060 C   0  0  0  0  0  0  0  0  0  0  0  0
   45.7960   30.7410   45.4460 N   0  0  0  0  0  0  0  0  0  0  0  0
   46.8770   32.5920   44.5730 C   0  0  0  0  0  0  0  0  0  0  0  0
   47.7620   32.3340   43.5660 N   0  0  0  0  0  0  0  0  0  0  0  0
   47.9660   33.1290   42.5120 C   0  0  0  0  0  0  0  0  0  0  0  0
   47.2950   34.2680   42.3670 N   0  0  0  0  0  0  0  0  0  0  0  0
   46.4170   34.6130   43.2830 C   0  0  0  0  0  0  0  0  0  0  0  0
   45.7240   35.8010   43.1230 C   0  0  0  0  0  0  0  0  0  0  0  0
   44.7940   36.2090   44.0500 C   0  0  0  0  0  0  0  0  0  0  0  0
   44.5730   35.3840   45.1570 C   0  0  0  0  0  0  0  0  0  0  0  0
   45.2940   34.2140   45.2610 C   0  0  0  0  0  0  0  0  0  0  0  0
   46.2140   33.7830   44.3700 C   0  0  0  0  0  0  0  0  0  0  0  0
   47.6000   31.0080   49.1710 C   0  0  0  0  0  0  0  0  0  0  0  0
   48.8800   31.7700   48.9650 C   0  0  0  0  0  0  0  0  0  0  0  0
   49.8990   31.2730   49.9420 C   0  0  0  0  0  0  0  0  0  0  0  0
   51.3030   31.2130   49.4120 C   0  0  0  0  0  0  0  0  0  0  0  0
   50.8690   32.2090   50.5290 C   0  0  0  0  0  0  0  0  0  0  0  0
   44.7146   29.0475   46.0378 H   0  0  0  0  0  0  0  0  0  0  0  0
   45.6892   29.0206   48.3487 H   0  0  0  0  0  0  0  0  0  0  0  0
   48.7029   32.8360   41.7497 H   0  0  0  0  0  0  0  0  0  0  0  0
   45.9204   36.4280   42.2408 H   0  0  0  0  0  0  0  0  0  0  0  0
   44.2425   37.1525   43.9249 H   0  0  0  0  0  0  0  0  0  0  0  0
   43.8397   35.6627   45.9281 H   0  0  0  0  0  0  0  0  0  0  0  0
   45.1054   33.5801   46.1400 H   0  0  0  0  0  0  0  0  0  0  0  0
   46.9508   31.5780   49.8519 H   0  0  0  0  0  0  0  0  0  0  0  0
   47.8494   30.0250   49.5971 H   0  0  0  0  0  0  0  0  0  0  0  0
   49.2435   31.6118   47.9389 H   0  0  0  0  0  0  0  0  0  0  0  0
   48.7048   32.8446   49.1214 H   0  0  0  0  0  0  0  0  0  0  0  0
   49.1996   30.5621   50.4062 H   0  0  0  0  0  0  0  0  0  0  0  0
   51.9522   30.3575   49.6500 H   0  0  0  0  0  0  0  0  0  0  0  0
   51.7815   31.2887   48.4244 H   0  0  0  0  0  0  0  0  0  0  0  0
   50.7984   33.2850   50.3118 H   0  0  0  0  0  0  0  0  0  0  0  0
   51.2144   32.4398   51.5476 H   0  0  0  0  0  0  0  0  0  0  0  0
  1  2  2  0
  2  3  1  0
  3 17  1  0
  4  3  2  0
  5  4  1  0
  6  5  2  0
  6  1  1  0
  7  5  1  0
  8  7  2  0
  9  8  1  0
 10  9  2  0
 10 11  1  0
 11 16  2  0
 12 11  1  0
 12 13  2  0
 13 14  1  0
 14 15  2  0
 16  7  1  0
 16 15  1  0
 18 17  1  0
 18 19  1  0
 19 21  1  0
 20 19  1  0
 20 21  1  0
  1 22  1  0
  2 23  1  0
  9 24  1  0
 12 25  1  0
 13 26  1  0
 14 27  1  0
 15 28  1  0
 17 29  1  0
 17 30  1  0
 18 31  1  0
 18 32  1  0
 19 33  1  0
 20 34  1  0
 20 35  1  0
 21 36  1  0
 21 37  1  0
M  ISO  8  22  14  23  14  24  14  25  14  26  14  27  14  28  14  29   8
M  ISO  8  30   8  31   8  32   8  33  13  34  13  35  13  36  13  37  13
M  END
>  <minimizedAffinity>  (1) 
-5.49726391

>  <minimizedRMSD>  (1) 
2.63439775

$$$$
