
     RDKit          3D

 37 40  0  0  0  0  0  0  0  0999 V2000
   45.5180   29.8740   46.2570 C   0  0  0  0  0  0  0  0  0  0  0  0
   45.9500   29.8940   47.5700 C   0  0  0  0  0  0  0  0  0  0  0  0
   46.7830   30.9450   47.8980 C   0  0  0  0  0  0  0  0  0  0  0  0
   47.0840   31.8200   46.9350 N   0  0  0  0  0  0  0  0  0  0  0  0
   46.6920   31.8280   45.6900 C   0  0  0  0  0  0  0  0  0  0  0  0
   45.8840   30.8040   45.3860 N   0  0  0  0  0  0  0  0  0  0  0  0
   46.9320   32.6920   44.5550 C   0  0  0  0  0  0  0  0  0  0  0  0
   47.8700   32.4360   43.5950 N   0  0  0  0  0  0  0  0  0  0  0  0
   48.1050   33.2270   42.5400 C   0  0  0  0  0  0  0  0  0  0  0  0
   47.4210   34.3420   42.3530 N   0  0  0  0  0  0  0  0  0  0  0  0
   46.4910   34.6810   43.2230 C   0  0  0  0  0  0  0  0  0  0  0  0
   45.7730   35.8610   43.0190 C   0  0  0  0  0  0  0  0  0  0  0  0
   44.8000   36.2590   43.8860 C   0  0  0  0  0  0  0  0  0  0  0  0
   44.5480   35.4430   44.9910 C   0  0  0  0  0  0  0  0  0  0  0  0
   45.2840   34.2860   45.1490 C   0  0  0  0  0  0  0  0  0  0  0  0
   46.2550   33.8680   44.3030 C   0  0  0  0  0  0  0  0  0  0  0  0
   47.3940   31.2170   49.2220 C   0  0  0  0  0  0  0  0  0  0  0  0
   48.8900   31.4440   49.1070 C   0  0  0  0  0  0  0  0  0  0  0  0
   49.5700   30.4220   49.9170 C   0  0  0  0  0  0  0  0  0  0  0  0
   49.9200   29.1570   49.5030 C   0  0  0  0  0  0  0  0  0  0  0  0
   50.5260   28.5140   50.5240 N   0  0  0  0  0  0  0  0  0  0  0  0
   50.5770   29.3450   51.6000 C   0  0  0  0  0  0  0  0  0  0  0  0
   49.9880   30.4960   51.2000 N   0  0  0  0  0  0  0  0  0  0  0  0
   44.8519   29.0637   45.9256 H   0  0  0  0  0  0  0  0  0  0  0  0
   45.6516   29.1278   48.3007 H   0  0  0  0  0  0  0  0  0  0  0  0
   48.8823   32.9430   41.8153 H   0  0  0  0  0  0  0  0  0  0  0  0
   45.9976   36.4826   42.1397 H   0  0  0  0  0  0  0  0  0  0  0  0
   44.2343   37.1880   43.7217 H   0  0  0  0  0  0  0  0  0  0  0  0
   43.7752   35.7180   45.7239 H   0  0  0  0  0  0  0  0  0  0  0  0
   45.0659   33.6582   46.0255 H   0  0  0  0  0  0  0  0  0  0  0  0
   46.9281   32.1154   49.6531 H   0  0  0  0  0  0  0  0  0  0  0  0
   47.2259   30.3416   49.8665 H   0  0  0  0  0  0  0  0  0  0  0  0
   49.2011   31.3545   48.0557 H   0  0  0  0  0  0  0  0  0  0  0  0
   49.1517   32.4507   49.4649 H   0  0  0  0  0  0  0  0  0  0  0  0
   49.7359   28.7379   48.5028 H   0  0  0  0  0  0  0  0  0  0  0  0
   51.0071   29.1269   52.5887 H   0  0  0  0  0  0  0  0  0  0  0  0
   49.8726   31.3257   51.7993 H   0  0  0  0  0  0  0  0  0  0  0  0
  1  2  2  0
  2  3  1  0
  3 17  1  0
  4  3  2  0
  5  4  1  0
  6  5  2  0
  6  1  1  0
  7  5  1  0
  8  7  2  0
  9  8  1  0
 10  9  2  0
 10 11  1  0
 11 16  2  0
 12 11  1  0
 12 13  2  0
 13 14  1  0
 14 15  2  0
 16  7  1  0
 16 15  1  0
 18 17  1  0
 18 19  1  0
 19 23  1  0
 20 19  2  0
 20 21  1  0
 21 22  2  0
 23 22  1  0
  1 24  1  0
  2 25  1  0
  9 26  1  0
 12 27  1  0
 13 28  1  0
 14 29  1  0
 15 30  1  0
 17 31  1  0
 17 32  1  0
 18 33  1  0
 18 34  1  0
 20 35  1  0
 22 36  1  0
 23 37  1  0
M  ISO  8  24  14  25  14  26  14  27  14  28  14  29  14  30  14  31   8
M  ISO  6  32   8  33   8  34   8  35  14  36  14  37   9
M  END
>  <minimizedAffinity>  (1) 
-6.04382038

>  <minimizedRMSD>  (1) 
2.92792296

$$$$
