
     RDKit          3D

 32 34  0  0  0  0  0  0  0  0999 V2000
   47.6440   29.7060   45.8040 C   0  0  0  0  0  0  0  0  0  0  0  0
   47.4080   29.8630   47.1650 C   0  0  0  0  0  0  0  0  0  0  0  0
   47.0590   31.1390   47.5810 C   0  0  0  0  0  0  0  0  0  0  0  0
   46.9880   32.0780   46.6410 N   0  0  0  0  0  0  0  0  0  0  0  0
   47.2000   31.9740   45.3580 C   0  0  0  0  0  0  0  0  0  0  0  0
   47.5350   30.7390   44.9720 N   0  0  0  0  0  0  0  0  0  0  0  0
   47.1560   32.9010   44.2470 C   0  0  0  0  0  0  0  0  0  0  0  0
   47.9460   32.7990   43.1370 N   0  0  0  0  0  0  0  0  0  0  0  0
   47.9250   33.6440   42.1010 C   0  0  0  0  0  0  0  0  0  0  0  0
   47.0950   34.6870   42.0830 N   0  0  0  0  0  0  0  0  0  0  0  0
   46.2910   34.8740   43.1070 C   0  0  0  0  0  0  0  0  0  0  0  0
   45.4360   35.9630   43.0710 C   0  0  0  0  0  0  0  0  0  0  0  0
   44.5690   36.2150   44.1110 C   0  0  0  0  0  0  0  0  0  0  0  0
   44.5860   35.3360   45.1990 C   0  0  0  0  0  0  0  0  0  0  0  0
   45.4610   34.2730   45.1710 C   0  0  0  0  0  0  0  0  0  0  0  0
   46.3240   33.9960   44.1690 C   0  0  0  0  0  0  0  0  0  0  0  0
   46.7620   31.5520   48.9580 C   0  0  0  0  0  0  0  0  0  0  0  0
   45.2950   31.3820   49.2940 C   0  0  0  0  0  0  0  0  0  0  0  0
   44.5220   32.0520   48.2810 N   0  0  0  0  0  0  0  0  0  0  0  0
   47.9238   28.7176   45.4106 H   0  0  0  0  0  0  0  0  0  0  0  0
   47.4932   29.0237   47.8710 H   0  0  0  0  0  0  0  0  0  0  0  0
   48.6026   33.4760   41.2510 H   0  0  0  0  0  0  0  0  0  0  0  0
   45.4496   36.6353   42.2005 H   0  0  0  0  0  0  0  0  0  0  0  0
   43.8868   37.0776   44.0869 H   0  0  0  0  0  0  0  0  0  0  0  0
   43.9157   35.4904   46.0574 H   0  0  0  0  0  0  0  0  0  0  0  0
   45.4570   33.5933   46.0358 H   0  0  0  0  0  0  0  0  0  0  0  0
   47.3587   30.9392   49.6497 H   0  0  0  0  0  0  0  0  0  0  0  0
   47.0131   32.6185   49.0560 H   0  0  0  0  0  0  0  0  0  0  0  0
   45.0384   30.3125   49.3119 H   0  0  0  0  0  0  0  0  0  0  0  0
   45.0791   31.8115   50.2834 H   0  0  0  0  0  0  0  0  0  0  0  0
   43.8213   32.6593   48.7294 H   0  0  0  0  0  0  0  0  0  0  0  0
   45.1466   32.6235   47.6944 H   0  0  0  0  0  0  0  0  0  0  0  0
  1  2  2  0
  2  3  1  0
  3 17  1  0
  4  3  2  0
  5  4  1  0
  6  5  2  0
  6  1  1  0
  7  5  1  0
  8  7  2  0
  9  8  1  0
 10  9  2  0
 10 11  1  0
 11 16  2  0
 12 11  1  0
 12 13  2  0
 13 14  1  0
 15 14  2  0
 16  7  1  0
 16 15  1  0
 17 18  1  0
 19 18  1  0
  1 20  1  0
  2 21  1  0
  9 22  1  0
 12 23  1  0
 13 24  1  0
 14 25  1  0
 15 26  1  0
 17 27  1  0
 17 28  1  0
 18 29  1  0
 18 30  1  0
 19 31  1  0
 19 32  1  0
M  ISO  8  20  14  21  14  22  14  23  14  24  14  25  14  26  14  27   8
M  ISO  5  28   8  29   8  30   8  31   5  32   5
M  END
>  <minimizedAffinity>  (1) 
-5.60241461

>  <minimizedRMSD>  (1) 
0.142161399

$$$$
