
     RDKit          3D

 37 40  0  0  0  0  0  0  0  0999 V2000
   48.5470   28.9790   43.1360 C   0  0  0  0  0  0  0  0  0  0  0  0
   48.7440   28.7210   44.4890 C   0  0  0  0  0  0  0  0  0  0  0  0
   48.3640   29.7200   45.3450 C   0  0  0  0  0  0  0  0  0  0  0  0
   47.8490   30.8290   44.8100 N   0  0  0  0  0  0  0  0  0  0  0  0
   47.6470   31.1110   43.5510 C   0  0  0  0  0  0  0  0  0  0  0  0
   48.0210   30.1300   42.7210 N   0  0  0  0  0  0  0  0  0  0  0  0
   47.1100   32.2500   42.8370 C   0  0  0  0  0  0  0  0  0  0  0  0
   45.8190   32.3310   42.4070 N   0  0  0  0  0  0  0  0  0  0  0  0
   45.2990   33.3690   41.7450 C   0  0  0  0  0  0  0  0  0  0  0  0
   46.0420   34.4330   41.4540 N   0  0  0  0  0  0  0  0  0  0  0  0
   47.3080   34.4560   41.8250 C   0  0  0  0  0  0  0  0  0  0  0  0
   48.0570   35.5710   41.5100 C   0  0  0  0  0  0  0  0  0  0  0  0
   49.3840   35.6520   41.8730 C   0  0  0  0  0  0  0  0  0  0  0  0
   49.9370   34.5670   42.5680 C   0  0  0  0  0  0  0  0  0  0  0  0
   49.1290   33.4810   42.8520 C   0  0  0  0  0  0  0  0  0  0  0  0
   47.8270   33.3790   42.5070 C   0  0  0  0  0  0  0  0  0  0  0  0
   48.4610   29.7060   46.8160 C   0  0  0  0  0  0  0  0  0  0  0  0
   47.2150   29.1530   47.4620 C   0  0  0  0  0  0  0  0  0  0  0  0
   46.4000   30.1380   48.1040 N   0  0  0  0  0  0  0  0  0  0  0  0
   46.9000   31.3840   48.3520 C   0  0  0  0  0  0  0  0  0  0  0  0
   45.9450   32.1570   48.9740 C   0  0  0  0  0  0  0  0  0  0  0  0
   44.8560   31.3460   49.0940 N   0  0  0  0  0  0  0  0  0  0  0  0
   45.1450   30.1420   48.5690 C   0  0  0  0  0  0  0  0  0  0  0  0
   48.8312   28.2176   42.3948 H   0  0  0  0  0  0  0  0  0  0  0  0
   49.1770   27.7756   44.8478 H   0  0  0  0  0  0  0  0  0  0  0  0
   44.2433   33.3430   41.4370 H   0  0  0  0  0  0  0  0  0  0  0  0
   47.5903   36.4038   40.9636 H   0  0  0  0  0  0  0  0  0  0  0  0
   49.9885   36.5372   41.6260 H   0  0  0  0  0  0  0  0  0  0  0  0
   50.9915   34.5793   42.8808 H   0  0  0  0  0  0  0  0  0  0  0  0
   49.5793   32.6392   43.3985 H   0  0  0  0  0  0  0  0  0  0  0  0
   49.3188   29.0828   47.1089 H   0  0  0  0  0  0  0  0  0  0  0  0
   48.5868   30.7442   47.1569 H   0  0  0  0  0  0  0  0  0  0  0  0
   46.6127   28.6608   46.6842 H   0  0  0  0  0  0  0  0  0  0  0  0
   47.5480   28.4582   48.2471 H   0  0  0  0  0  0  0  0  0  0  0  0
   47.9149   31.7204   48.0934 H   0  0  0  0  0  0  0  0  0  0  0  0
   46.0403   33.2024   49.3028 H   0  0  0  0  0  0  0  0  0  0  0  0
   44.4531   29.2879   48.5279 H   0  0  0  0  0  0  0  0  0  0  0  0
  1  2  2  0
  2  3  1  0
  3 17  1  0
  4  3  2  0
  5  4  1  0
  6  1  1  0
  6  5  2  0
  7  5  1  0
  8  7  2  0
  9  8  1  0
 10  9  2  0
 10 11  1  0
 11 16  2  0
 12 11  1  0
 12 13  2  0
 13 14  1  0
 14 15  2  0
 16  7  1  0
 16 15  1  0
 17 18  1  0
 18 19  1  0
 19 20  1  0
 19 23  1  0
 20 21  2  0
 21 22  1  0
 23 22  2  0
  1 24  1  0
  2 25  1  0
  9 26  1  0
 12 27  1  0
 13 28  1  0
 14 29  1  0
 15 30  1  0
 17 31  1  0
 17 32  1  0
 18 33  1  0
 18 34  1  0
 20 35  1  0
 21 36  1  0
 23 37  1  0
M  ISO  8  24  14  25  14  26  14  27  14  28  14  29  14  30  14  31   8
M  ISO  6  32   8  33   8  34   8  35  14  36  14  37  14
M  END
>  <minimizedAffinity>  (1) 
-4.84681749

>  <minimizedRMSD>  (1) 
3.31036472

$$$$
