
     RDKit          3D

 37 40  0  0  0  0  0  0  0  0999 V2000
   50.2120   29.3800   43.2600 C   0  0  0  0  0  0  0  0  0  0  0  0
   49.7590   29.0650   44.5380 C   0  0  0  0  0  0  0  0  0  0  0  0
   48.6410   29.7480   44.9490 C   0  0  0  0  0  0  0  0  0  0  0  0
   48.1100   30.6280   44.1030 N   0  0  0  0  0  0  0  0  0  0  0  0
   48.5020   30.9510   42.9010 C   0  0  0  0  0  0  0  0  0  0  0  0
   49.5930   30.2820   42.5060 N   0  0  0  0  0  0  0  0  0  0  0  0
   48.0300   31.8700   41.8940 C   0  0  0  0  0  0  0  0  0  0  0  0
   47.1330   31.5380   40.9220 N   0  0  0  0  0  0  0  0  0  0  0  0
   46.6830   32.3750   39.9780 C   0  0  0  0  0  0  0  0  0  0  0  0
   47.0940   33.6260   39.9260 N   0  0  0  0  0  0  0  0  0  0  0  0
   47.9690   34.0670   40.8210 C   0  0  0  0  0  0  0  0  0  0  0  0
   48.4010   35.3860   40.7670 C   0  0  0  0  0  0  0  0  0  0  0  0
   49.2950   35.8780   41.6640 C   0  0  0  0  0  0  0  0  0  0  0  0
   49.7670   35.0080   42.6480 C   0  0  0  0  0  0  0  0  0  0  0  0
   49.3160   33.7110   42.6730 C   0  0  0  0  0  0  0  0  0  0  0  0
   48.4260   33.1980   41.7890 C   0  0  0  0  0  0  0  0  0  0  0  0
   47.9530   29.6060   46.2550 C   0  0  0  0  0  0  0  0  0  0  0  0
   47.9910   30.8900   47.0550 C   0  0  0  0  0  0  0  0  0  0  0  0
   46.8220   30.8520   47.9320 N   0  0  0  0  0  0  0  0  0  0  0  0
   45.9360   29.8720   48.0040 N   0  0  0  0  0  0  0  0  0  0  0  0
   44.9830   30.1540   48.9140 C   0  0  0  0  0  0  0  0  0  0  0  0
   45.3270   31.4050   49.4280 C   0  0  0  0  0  0  0  0  0  0  0  0
   46.4940   31.8490   48.8040 C   0  0  0  0  0  0  0  0  0  0  0  0
   51.1032   28.8703   42.8651 H   0  0  0  0  0  0  0  0  0  0  0  0
   50.2614   28.3212   45.1739 H   0  0  0  0  0  0  0  0  0  0  0  0
   45.9585   32.0122   39.2340 H   0  0  0  0  0  0  0  0  0  0  0  0
   48.0103   36.0475   39.9798 H   0  0  0  0  0  0  0  0  0  0  0  0
   49.6342   36.9233   41.6165 H   0  0  0  0  0  0  0  0  0  0  0  0
   50.4933   35.3578   43.3964 H   0  0  0  0  0  0  0  0  0  0  0  0
   49.7015   33.0465   43.4603 H   0  0  0  0  0  0  0  0  0  0  0  0
   46.9035   29.3294   46.0759 H   0  0  0  0  0  0  0  0  0  0  0  0
   48.4747   28.8287   46.8326 H   0  0  0  0  0  0  0  0  0  0  0  0
   48.9143   30.9422   47.6506 H   0  0  0  0  0  0  0  0  0  0  0  0
   47.9754   31.7737   46.4002 H   0  0  0  0  0  0  0  0  0  0  0  0
   44.1195   29.5318   49.1920 H   0  0  0  0  0  0  0  0  0  0  0  0
   44.7682   31.9532   50.2008 H   0  0  0  0  0  0  0  0  0  0  0  0
   47.0305   32.7936   48.9769 H   0  0  0  0  0  0  0  0  0  0  0  0
  1  2  2  0
  2  3  1  0
  3 17  1  0
  4  3  2  0
  5  4  1  0
  6  5  2  0
  6  1  1  0
  7  5  1  0
  8  7  2  0
  9  8  1  0
 10  9  2  0
 10 11  1  0
 11 16  2  0
 12 11  1  0
 12 13  2  0
 13 14  1  0
 14 15  2  0
 16  7  1  0
 16 15  1  0
 17 18  1  0
 18 19  1  0
 19 20  1  0
 19 23  1  0
 20 21  2  0
 21 22  1  0
 23 22  2  0
  1 24  1  0
  2 25  1  0
  9 26  1  0
 12 27  1  0
 13 28  1  0
 14 29  1  0
 15 30  1  0
 17 31  1  0
 17 32  1  0
 18 33  1  0
 18 34  1  0
 21 35  1  0
 22 36  1  0
 23 37  1  0
M  ISO  8  24  14  25  14  26  14  27  14  28  14  29  14  30  14  31   8
M  ISO  6  32   8  33   8  34   8  35  14  36  14  37  14
M  END
>  <minimizedAffinity>  (1) 
-5.03175974

>  <minimizedRMSD>  (1) 
3.66119909

$$$$
