
     RDKit          3D

 34 37  0  0  0  0  0  0  0  0999 V2000
   44.5590   35.9020   44.2610 C   0  0  0  0  0  0  0  0  0  0  0  0
   45.3640   35.8860   43.1130 C   0  0  0  0  0  0  0  0  0  0  0  0
   46.4070   34.9400   43.0560 C   0  0  0  0  0  0  0  0  0  0  0  0
   46.5700   34.1020   44.1130 N   0  0  0  0  0  0  0  0  0  0  0  0
   45.7740   34.1440   45.2080 C   0  0  0  0  0  0  0  0  0  0  0  0
   44.7720   35.0360   45.2880 N   0  0  0  0  0  0  0  0  0  0  0  0
   45.9580   33.2590   46.3070 N   0  0  0  0  0  0  0  0  0  0  0  0
   46.9650   32.3440   46.2050 C   0  0  0  0  0  0  0  0  0  0  0  0
   47.1840   31.4530   47.2590 C   0  0  0  0  0  0  0  0  0  0  0  0
   46.3710   31.5210   48.3840 C   0  0  0  0  0  0  0  0  0  0  0  0
   46.5390   30.7330   49.3580 O   0  0  0  0  0  0  0  0  0  0  0  0
   45.3950   32.4430   48.4320 N   0  0  0  0  0  0  0  0  0  0  0  0
   45.1720   33.3060   47.4230 C   0  0  0  0  0  0  0  0  0  0  0  0
   44.2750   34.1870   47.4140 O   0  0  0  0  0  0  0  0  0  0  0  0
   47.2470   34.9120   41.8780 C   0  0  0  0  0  0  0  0  0  0  0  0
   48.5040   35.5050   41.7350 C   0  0  0  0  0  0  0  0  0  0  0  0
   48.9710   35.2620   40.4990 N   0  0  0  0  0  0  0  0  0  0  0  0
   48.0430   34.5280   39.8520 C   0  0  0  0  0  0  0  0  0  0  0  0
   48.0670   34.0370   38.5690 C   0  0  0  0  0  0  0  0  0  0  0  0
   46.9640   33.3030   38.1530 C   0  0  0  0  0  0  0  0  0  0  0  0
   45.8430   33.0270   38.9280 C   0  0  0  0  0  0  0  0  0  0  0  0
   45.9040   33.5560   40.1970 C   0  0  0  0  0  0  0  0  0  0  0  0
   46.9510   34.2900   40.6890 C   0  0  0  0  0  0  0  0  0  0  0  0
   43.7378   36.6304   44.3325 H   0  0  0  0  0  0  0  0  0  0  0  0
   45.1874   36.5881   42.2849 H   0  0  0  0  0  0  0  0  0  0  0  0
   47.5962   32.3082   45.3048 H   0  0  0  0  0  0  0  0  0  0  0  0
   47.9901   30.7069   47.1989 H   0  0  0  0  0  0  0  0  0  0  0  0
   44.7970   32.4913   49.2692 H   0  0  0  0  0  0  0  0  0  0  0  0
   49.0286   36.0802   42.5121 H   0  0  0  0  0  0  0  0  0  0  0  0
   49.8731   35.5785   40.1156 H   0  0  0  0  0  0  0  0  0  0  0  0
   48.9221   34.2173   37.9009 H   0  0  0  0  0  0  0  0  0  0  0  0
   46.9783   32.9077   37.1266 H   0  0  0  0  0  0  0  0  0  0  0  0
   44.9876   32.4408   38.5612 H   0  0  0  0  0  0  0  0  0  0  0  0
   45.0492   33.3763   40.8655 H   0  0  0  0  0  0  0  0  0  0  0  0
  1  6  2  0
  2  1  1  0
  3  2  2  0
  3  4  1  0
  4  5  2  0
  5  6  1  0
  5  7  1  0
  7 13  1  0
  8  7  1  0
  8  9  2  0
  9 10  1  0
 10 12  1  0
 10 11  2  0
 13 12  1  0
 14 13  2  0
 15  3  1  0
 16 15  2  0
 17 16  1  0
 18 17  1  0
 18 23  2  0
 19 18  1  0
 20 19  2  0
 20 21  1  0
 21 22  2  0
 22 23  1  0
 23 15  1  0
  1 24  1  0
  2 25  1  0
  8 26  1  0
  9 27  1  0
 12 28  1  0
 16 29  1  0
 17 30  1  0
 19 31  1  0
 20 32  1  0
 21 33  1  0
 22 34  1  0
M  ISO  8  24  14  25  14  26  14  27  14  28   9  29  14  30   9  31  14
M  ISO  3  32  14  33  14  34  14
M  END
>  <minimizedAffinity>  (1) 
-7.81846809

>  <minimizedRMSD>  (1) 
0.212351486

$$$$
