
     RDKit          3D

 38 42  0  0  0  0  0  0  0  0999 V2000
   45.0400   35.0000   44.4810 C   0  0  0  0  0  0  0  0  0  0  0  0
   45.7490   35.3090   43.3100 C   0  0  0  0  0  0  0  0  0  0  0  0
   46.7690   34.4720   42.9150 C   0  0  0  0  0  0  0  0  0  0  0  0
   47.0260   33.3840   43.6960 N   0  0  0  0  0  0  0  0  0  0  0  0
   46.3190   33.1100   44.8330 C   0  0  0  0  0  0  0  0  0  0  0  0
   45.3480   33.9200   45.1940 N   0  0  0  0  0  0  0  0  0  0  0  0
   47.5300   34.7790   41.7040 C   0  0  0  0  0  0  0  0  0  0  0  0
   48.6250   35.6390   41.6050 C   0  0  0  0  0  0  0  0  0  0  0  0
   49.0590   35.6370   40.3270 N   0  0  0  0  0  0  0  0  0  0  0  0
   48.2610   34.7970   39.6240 C   0  0  0  0  0  0  0  0  0  0  0  0
   48.3090   34.4680   38.2870 C   0  0  0  0  0  0  0  0  0  0  0  0
   47.3750   33.5850   37.8220 C   0  0  0  0  0  0  0  0  0  0  0  0
   46.3610   32.9760   38.6010 C   0  0  0  0  0  0  0  0  0  0  0  0
   46.4030   33.3750   39.9230 C   0  0  0  0  0  0  0  0  0  0  0  0
   47.2990   34.2490   40.4660 C   0  0  0  0  0  0  0  0  0  0  0  0
   46.9920   31.8880   45.1630 C   0  0  0  0  0  0  0  0  0  0  0  0
   47.5550   30.8660   45.4400 N   0  0  0  0  0  0  0  0  0  0  0  0
   48.0990   29.8280   45.7840 C   0  0  0  0  0  0  0  0  0  0  0  0
   47.6280   29.7190   47.0300 N   0  0  0  0  0  0  0  0  0  0  0  0
   46.7790   30.7150   47.4440 C   0  0  0  0  0  0  0  0  0  0  0  0
   46.3820   30.4820   48.7680 C   0  0  0  0  0  0  0  0  0  0  0  0
   45.5470   31.4290   49.2950 C   0  0  0  0  0  0  0  0  0  0  0  0
   45.1100   32.5370   48.6130 C   0  0  0  0  0  0  0  0  0  0  0  0
   45.6080   32.5880   47.3360 C   0  0  0  0  0  0  0  0  0  0  0  0
   46.4750   31.7690   46.5280 C   0  0  0  0  0  0  0  0  0  0  0  0
   44.2222   35.6568   44.8123 H   0  0  0  0  0  0  0  0  0  0  0  0
   45.4952   36.2017   42.7195 H   0  0  0  0  0  0  0  0  0  0  0  0
   49.0611   36.2209   42.4303 H   0  0  0  0  0  0  0  0  0  0  0  0
   49.8531   36.1763   39.9536 H   0  0  0  0  0  0  0  0  0  0  0  0
   49.0696   34.8993   37.6195 H   0  0  0  0  0  0  0  0  0  0  0  0
   47.4141   33.3258   36.7537 H   0  0  0  0  0  0  0  0  0  0  0  0
   45.6235   32.2657   38.1990 H   0  0  0  0  0  0  0  0  0  0  0  0
   45.6461   32.9499   40.5985 H   0  0  0  0  0  0  0  0  0  0  0  0
   48.7822   29.1701   45.2269 H   0  0  0  0  0  0  0  0  0  0  0  0
   46.7166   29.6040   49.3401 H   0  0  0  0  0  0  0  0  0  0  0  0
   45.2040   31.2938   50.3314 H   0  0  0  0  0  0  0  0  0  0  0  0
   44.4384   33.2959   49.0408 H   0  0  0  0  0  0  0  0  0  0  0  0
   45.2573   33.4776   46.7923 H   0  0  0  0  0  0  0  0  0  0  0  0
  1  6  2  0
  2  1  1  0
  3  2  2  0
  3  4  1  0
  4  5  2  0
  5 16  1  0
  5  6  1  0
  7  3  1  0
  8  7  2  0
  9  8  1  0
 10  9  1  0
 10 15  2  0
 11 10  1  0
 12 11  2  0
 12 13  1  0
 13 14  2  0
 14 15  1  0
 15  7  1  0
 16 17  2  0
 16 25  1  0
 17 18  1  0
 18 19  2  0
 19 20  1  0
 20 21  2  0
 21 22  1  0
 23 22  2  0
 24 23  1  0
 25 24  2  0
 25 20  1  0
  1 26  1  0
  2 27  1  0
  8 28  1  0
  9 29  1  0
 11 30  1  0
 12 31  1  0
 13 32  1  0
 14 33  1  0
 18 34  1  0
 21 35  1  0
 22 36  1  0
 23 37  1  0
 24 38  1  0
M  ISO  8  26  14  27  14  28  14  29   9  30  14  31  14  32  14  33  14
M  ISO  5  34  14  35  14  36  14  37  14  38  14
M  END
>  <minimizedAffinity>  (1) 
-7.24859524

>  <minimizedRMSD>  (1) 
1.33343732

$$$$
