
     RDKit          3D

 32 35  0  0  0  0  0  0  0  0999 V2000
   47.2610   34.9030   41.9160 C   0  0  0  0  0  0  0  0  0  0  0  0
   48.4960   35.5340   41.7820 C   0  0  0  0  0  0  0  0  0  0  0  0
   48.9740   35.3310   40.5490 N   0  0  0  0  0  0  0  0  0  0  0  0
   48.0630   34.5780   39.8870 C   0  0  0  0  0  0  0  0  0  0  0  0
   48.0850   34.1010   38.5920 C   0  0  0  0  0  0  0  0  0  0  0  0
   47.0220   33.3540   38.1660 C   0  0  0  0  0  0  0  0  0  0  0  0
   45.9080   33.0300   38.9320 C   0  0  0  0  0  0  0  0  0  0  0  0
   45.9550   33.5430   40.2200 C   0  0  0  0  0  0  0  0  0  0  0  0
   46.9810   34.2950   40.7170 C   0  0  0  0  0  0  0  0  0  0  0  0
   44.5790   35.8220   44.3490 C   0  0  0  0  0  0  0  0  0  0  0  0
   45.3940   35.8290   43.2120 C   0  0  0  0  0  0  0  0  0  0  0  0
   46.4190   34.8880   43.1040 C   0  0  0  0  0  0  0  0  0  0  0  0
   46.5770   33.9980   44.1240 N   0  0  0  0  0  0  0  0  0  0  0  0
   45.7770   34.0150   45.2090 C   0  0  0  0  0  0  0  0  0  0  0  0
   44.7870   34.9130   45.3280 N   0  0  0  0  0  0  0  0  0  0  0  0
   46.0070   33.0310   46.2620 C   0  0  0  0  0  0  0  0  0  0  0  0
   46.9810   32.0590   46.1050 C   0  0  0  0  0  0  0  0  0  0  0  0
   47.0930   31.1900   47.1830 C   0  0  0  0  0  0  0  0  0  0  0  0
   46.3650   31.2200   48.3030 N   0  0  0  0  0  0  0  0  0  0  0  0
   45.4270   32.1920   48.4030 C   0  0  0  0  0  0  0  0  0  0  0  0
   45.2690   33.0700   47.3870 N   0  0  0  0  0  0  0  0  0  0  0  0
   49.0013   36.1114   42.5702 H   0  0  0  0  0  0  0  0  0  0  0  0
   49.8669   35.6814   40.1736 H   0  0  0  0  0  0  0  0  0  0  0  0
   48.9317   34.3152   37.9232 H   0  0  0  0  0  0  0  0  0  0  0  0
   47.0506   32.9786   37.1324 H   0  0  0  0  0  0  0  0  0  0  0  0
   45.0706   32.4255   38.5535 H   0  0  0  0  0  0  0  0  0  0  0  0
   45.1071   33.3293   40.8873 H   0  0  0  0  0  0  0  0  0  0  0  0
   43.7671   36.5577   44.4467 H   0  0  0  0  0  0  0  0  0  0  0  0
   45.2290   36.5669   42.4131 H   0  0  0  0  0  0  0  0  0  0  0  0
   47.6103   31.9819   45.2061 H   0  0  0  0  0  0  0  0  0  0  0  0
   47.8551   30.4004   47.1072 H   0  0  0  0  0  0  0  0  0  0  0  0
   44.7991   32.2664   49.3031 H   0  0  0  0  0  0  0  0  0  0  0  0
  1 12  1  0
  2  1  2  0
  3  2  1  0
  4  3  1  0
  4  9  2  0
  5  4  1  0
  6  5  2  0
  6  7  1  0
  7  8  2  0
  8  9  1  0
  9  1  1  0
 10 15  2  0
 11 10  1  0
 12 11  2  0
 12 13  1  0
 13 14  2  0
 14 15  1  0
 14 16  1  0
 16 21  1  0
 17 16  2  0
 17 18  1  0
 18 19  2  0
 19 20  1  0
 21 20  2  0
  2 22  1  0
  3 23  1  0
  5 24  1  0
  6 25  1  0
  7 26  1  0
  8 27  1  0
 10 28  1  0
 11 29  1  0
 17 30  1  0
 18 31  1  0
 20 32  1  0
M  ISO  8  22  14  23   9  24  14  25  14  26  14  27  14  28  14  29  14
M  ISO  3  30  14  31  14  32  14
M  END
>  <minimizedAffinity>  (1) 
-6.98465776

>  <minimizedRMSD>  (1) 
0.423038363

$$$$
