
     RDKit          3D

 31 34  0  0  0  0  0  0  0  0999 V2000
   47.2010   34.9170   41.9300 C   0  0  0  0  0  0  0  0  0  0  0  0
   48.4860   35.4490   41.8130 C   0  0  0  0  0  0  0  0  0  0  0  0
   48.9740   35.1630   40.5930 N   0  0  0  0  0  0  0  0  0  0  0  0
   48.0250   34.4570   39.9300 C   0  0  0  0  0  0  0  0  0  0  0  0
   48.0600   33.9410   38.6530 C   0  0  0  0  0  0  0  0  0  0  0  0
   46.9520   33.2600   38.2230 C   0  0  0  0  0  0  0  0  0  0  0  0
   45.7950   33.0480   38.9720 C   0  0  0  0  0  0  0  0  0  0  0  0
   45.8420   33.5980   40.2400 C   0  0  0  0  0  0  0  0  0  0  0  0
   46.9090   34.2890   40.7400 C   0  0  0  0  0  0  0  0  0  0  0  0
   44.4940   36.0320   44.2360 C   0  0  0  0  0  0  0  0  0  0  0  0
   45.3260   35.9670   43.1070 C   0  0  0  0  0  0  0  0  0  0  0  0
   46.3250   35.0030   43.0930 C   0  0  0  0  0  0  0  0  0  0  0  0
   46.4670   34.1540   44.1700 N   0  0  0  0  0  0  0  0  0  0  0  0
   45.6370   34.2550   45.2450 C   0  0  0  0  0  0  0  0  0  0  0  0
   44.6540   35.1930   45.2730 N   0  0  0  0  0  0  0  0  0  0  0  0
   45.7740   33.3650   46.3930 C   0  0  0  0  0  0  0  0  0  0  0  0
   46.7670   32.4220   46.5650 C   0  0  0  0  0  0  0  0  0  0  0  0
   46.4800   31.8290   47.7980 C   0  0  0  0  0  0  0  0  0  0  0  0
   45.3760   32.3950   48.3200 N   0  0  0  0  0  0  0  0  0  0  0  0
   44.9790   33.3110   47.4510 N   0  0  0  0  0  0  0  0  0  0  0  0
   49.0157   36.0129   42.5949 H   0  0  0  0  0  0  0  0  0  0  0  0
   49.8994   35.4312   40.2288 H   0  0  0  0  0  0  0  0  0  0  0  0
   48.9403   34.0704   38.0062 H   0  0  0  0  0  0  0  0  0  0  0  0
   46.9769   32.8467   37.2039 H   0  0  0  0  0  0  0  0  0  0  0  0
   44.9250   32.4942   38.5894 H   0  0  0  0  0  0  0  0  0  0  0  0
   44.9626   33.4707   40.8884 H   0  0  0  0  0  0  0  0  0  0  0  0
   43.6940   36.7861   44.2723 H   0  0  0  0  0  0  0  0  0  0  0  0
   45.1908   36.6572   42.2612 H   0  0  0  0  0  0  0  0  0  0  0  0
   47.5987   32.1890   45.8838 H   0  0  0  0  0  0  0  0  0  0  0  0
   47.0652   31.0251   48.2683 H   0  0  0  0  0  0  0  0  0  0  0  0
   44.9287   32.1615   49.2179 H   0  0  0  0  0  0  0  0  0  0  0  0
  1 12  1  0
  2  1  2  0
  3  2  1  0
  4  3  1  0
  4  9  2  0
  5  4  1  0
  6  5  2  0
  6  7  1  0
  7  8  2  0
  8  9  1  0
  9  1  1  0
 10 15  2  0
 11 10  1  0
 12 11  2  0
 12 13  1  0
 13 14  2  0
 14 15  1  0
 14 16  1  0
 16 17  1  0
 16 20  2  0
 17 18  2  0
 18 19  1  0
 20 19  1  0
  2 21  1  0
  3 22  1  0
  5 23  1  0
  6 24  1  0
  7 25  1  0
  8 26  1  0
 10 27  1  0
 11 28  1  0
 17 29  1  0
 18 30  1  0
 19 31  1  0
M  ISO  8  21  14  22   9  23  14  24  14  25  14  26  14  27  14  28  14
M  ISO  3  29  14  30  14  31   9
M  END
>  <minimizedAffinity>  (1) 
-6.77371597

>  <minimizedRMSD>  (1) 
0.429688543

$$$$
