
     RDKit          3D

 31 34  0  0  0  0  0  0  0  0999 V2000
   47.2510   34.9110   41.9300 C   0  0  0  0  0  0  0  0  0  0  0  0
   48.4910   35.5300   41.8020 C   0  0  0  0  0  0  0  0  0  0  0  0
   48.9650   35.3110   40.5660 N   0  0  0  0  0  0  0  0  0  0  0  0
   48.0570   34.5650   39.9000 C   0  0  0  0  0  0  0  0  0  0  0  0
   48.0800   34.0820   38.6110 C   0  0  0  0  0  0  0  0  0  0  0  0
   47.0020   33.3370   38.1830 C   0  0  0  0  0  0  0  0  0  0  0  0
   45.8860   33.0310   38.9540 C   0  0  0  0  0  0  0  0  0  0  0  0
   45.9290   33.5480   40.2370 C   0  0  0  0  0  0  0  0  0  0  0  0
   46.9610   34.2950   40.7350 C   0  0  0  0  0  0  0  0  0  0  0  0
   44.5510   35.8570   44.3400 C   0  0  0  0  0  0  0  0  0  0  0  0
   45.3820   35.8430   43.2080 C   0  0  0  0  0  0  0  0  0  0  0  0
   46.4040   34.9070   43.1080 C   0  0  0  0  0  0  0  0  0  0  0  0
   46.5440   34.0370   44.1410 N   0  0  0  0  0  0  0  0  0  0  0  0
   45.7450   34.0530   45.2260 C   0  0  0  0  0  0  0  0  0  0  0  0
   44.7510   34.9600   45.3250 N   0  0  0  0  0  0  0  0  0  0  0  0
   45.9500   33.0990   46.2830 N   0  0  0  0  0  0  0  0  0  0  0  0
   45.2510   33.0670   47.4330 C   0  0  0  0  0  0  0  0  0  0  0  0
   45.7790   31.9920   48.1580 C   0  0  0  0  0  0  0  0  0  0  0  0
   46.7550   31.4360   47.4220 N   0  0  0  0  0  0  0  0  0  0  0  0
   46.8680   32.1150   46.2590 C   0  0  0  0  0  0  0  0  0  0  0  0
   49.0007   36.1064   42.5881 H   0  0  0  0  0  0  0  0  0  0  0  0
   49.8621   35.6514   40.1915 H   0  0  0  0  0  0  0  0  0  0  0  0
   48.9311   34.2840   37.9441 H   0  0  0  0  0  0  0  0  0  0  0  0
   47.0265   32.9550   37.1517 H   0  0  0  0  0  0  0  0  0  0  0  0
   45.0440   32.4314   38.5777 H   0  0  0  0  0  0  0  0  0  0  0  0
   45.0759   33.3445   40.9010 H   0  0  0  0  0  0  0  0  0  0  0  0
   43.7409   36.5966   44.4220 H   0  0  0  0  0  0  0  0  0  0  0  0
   45.2238   36.5730   42.4005 H   0  0  0  0  0  0  0  0  0  0  0  0
   44.4378   33.7420   47.7382 H   0  0  0  0  0  0  0  0  0  0  0  0
   45.4520   31.6611   49.1548 H   0  0  0  0  0  0  0  0  0  0  0  0
   47.5773   31.9032   45.4453 H   0  0  0  0  0  0  0  0  0  0  0  0
  1 12  1  0
  2  1  2  0
  3  2  1  0
  4  3  1  0
  4  9  2  0
  5  4  1  0
  6  5  2  0
  6  7  1  0
  7  8  2  0
  8  9  1  0
  9  1  1  0
 10 15  2  0
 11 10  1  0
 12 11  2  0
 12 13  1  0
 13 14  2  0
 14 15  1  0
 14 16  1  0
 16 17  1  0
 17 18  2  0
 19 18  1  0
 20 16  1  0
 20 19  2  0
  2 21  1  0
  3 22  1  0
  5 23  1  0
  6 24  1  0
  7 25  1  0
  8 26  1  0
 10 27  1  0
 11 28  1  0
 17 29  1  0
 18 30  1  0
 20 31  1  0
M  ISO  8  21  14  22   9  23  14  24  14  25  14  26  14  27  14  28  14
M  ISO  3  29  14  30  14  31  14
M  END
>  <minimizedAffinity>  (1) 
-6.94372272

>  <minimizedRMSD>  (1) 
0.0842297897

$$$$
