
     RDKit          3D

 40 42  0  0  1  0  0  0  0  0999 V2000
   46.6460   34.7880   42.0690 C   0  0  0  0  0  0  0  0  0  0  0  0
   47.9510   35.2570   42.0050 C   0  0  0  0  0  0  0  0  0  0  0  0
   48.7320   35.1360   40.8610 C   0  0  0  0  0  0  0  0  0  0  0  0
   48.1810   34.5150   39.7230 C   0  0  0  0  0  0  0  0  0  0  0  0
   46.8880   34.0520   39.7910 C   0  0  0  0  0  0  0  0  0  0  0  0
   46.1600   34.1990   40.9490 C   0  0  0  0  0  0  0  0  0  0  0  0
   44.8100   33.7050   40.9880 N   0  0  0  0  0  0  0  0  0  0  0  0
   43.6040   34.4060   40.5580 C   0  0  0  0  0  0  0  0  0  0  0  0
   42.4250   34.1250   41.4630 C   0  0  0  0  0  0  0  0  0  0  0  0
   42.2190   32.6930   41.4760 N   0  0  0  0  0  0  0  0  0  0  0  0
   43.3610   32.1370   42.2080 C   0  0  0  0  0  0  0  0  0  0  0  0
   44.6680   32.3670   41.5170 C   0  0  1  0  0  0  0  0  0  0  0  0
   44.9910   31.3120   40.4680 C   0  0  0  0  0  0  0  0  0  0  0  0
   44.2280   31.5820   39.1810 C   0  0  0  0  0  0  0  0  0  0  0  0
   44.4540   36.0950   44.8200 C   0  0  0  0  0  0  0  0  0  0  0  0
   45.0830   36.0480   43.5680 C   0  0  0  0  0  0  0  0  0  0  0  0
   45.9280   34.9710   43.3160 C   0  0  0  0  0  0  0  0  0  0  0  0
   46.1120   34.0120   44.2740 N   0  0  0  0  0  0  0  0  0  0  0  0
   45.4640   34.1260   45.4710 C   0  0  0  0  0  0  0  0  0  0  0  0
   44.6390   35.1620   45.7380 N   0  0  0  0  0  0  0  0  0  0  0  0
   48.3833   35.7424   42.8924 H   0  0  0  0  0  0  0  0  0  0  0  0
   49.7631   35.5189   40.8449 H   0  0  0  0  0  0  0  0  0  0  0  0
   48.7712   34.4031   38.8015 H   0  0  0  0  0  0  0  0  0  0  0  0
   46.4343   33.5625   38.9166 H   0  0  0  0  0  0  0  0  0  0  0  0
   43.8031   35.4878   40.5615 H   0  0  0  0  0  0  0  0  0  0  0  0
   43.3478   34.0488   39.5497 H   0  0  0  0  0  0  0  0  0  0  0  0
   42.6390   34.4830   42.4809 H   0  0  0  0  0  0  0  0  0  0  0  0
   41.5252   34.6428   41.0994 H   0  0  0  0  0  0  0  0  0  0  0  0
   41.3373   32.4609   41.9552 H   0  0  0  0  0  0  0  0  0  0  0  0
   43.4026   32.6071   43.2016 H   0  0  0  0  0  0  0  0  0  0  0  0
   43.2111   31.0492   42.2735 H   0  0  0  0  0  0  0  0  0  0  0  0
   45.4219   32.2616   42.3110 H   0  0  0  0  0  0  0  0  0  0  0  0
   46.0707   31.3302   40.2582 H   0  0  0  0  0  0  0  0  0  0  0  0
   44.6937   30.3262   40.8550 H   0  0  0  0  0  0  0  0  0  0  0  0
   43.2164   31.9400   39.4227 H   0  0  0  0  0  0  0  0  0  0  0  0
   44.7574   32.3474   38.5946 H   0  0  0  0  0  0  0  0  0  0  0  0
   44.1582   30.6540   38.5946 H   0  0  0  0  0  0  0  0  0  0  0  0
   43.7835   36.9372   45.0462 H   0  0  0  0  0  0  0  0  0  0  0  0
   44.9153   36.8315   42.8143 H   0  0  0  0  0  0  0  0  0  0  0  0
   45.6181   33.3532   46.2385 H   0  0  0  0  0  0  0  0  0  0  0  0
  1 17  1  0
  2  1  2  0
  3  2  1  0
  4  5  1  0
  4  3  2  0
  5  6  2  0
  6  7  1  0
  6  1  1  0
  7 12  1  0
  8  7  1  0
  8  9  1  0
  9 10  1  0
 10 11  1  0
 12 11  1  0
 13 12  1  0
 14 13  1  0
 15 20  2  0
 16 15  1  0
 17 16  2  0
 17 18  1  0
 18 19  2  0
 19 20  1  0
  2 21  1  0
  3 22  1  0
  4 23  1  0
  5 24  1  0
  8 25  1  0
  8 26  1  0
  9 27  1  0
  9 28  1  0
 10 29  1  0
 11 30  1  0
 11 31  1  0
 12 32  1  1
 13 33  1  0
 13 34  1  0
 14 35  1  0
 14 36  1  0
 14 37  1  0
 15 38  1  0
 16 39  1  0
 19 40  1  0
M  ISO  8  21  14  22  14  23  14  24  14  25  13  26  13  27  13  28  13
M  ISO  8  29   5  30  13  31  13  32  13  33   8  34   8  35   8  36   8
M  ISO  4  37   8  38  14  39  14  40  14
M  END
>  <minimizedAffinity>  (1) 
-5.53336239

>  <minimizedRMSD>  (1) 
0.270135671

$$$$
