
     RDKit          3D

 37 40  0  0  0  0  0  0  0  0999 V2000
   47.5140   34.5350   42.2620 C   0  0  0  0  0  0  0  0  0  0  0  0
   48.6180   35.3640   42.0990 C   0  0  0  0  0  0  0  0  0  0  0  0
   48.9750   35.3820   40.8070 N   0  0  0  0  0  0  0  0  0  0  0  0
   48.1270   34.5860   40.1410 C   0  0  0  0  0  0  0  0  0  0  0  0
   48.0660   34.2680   38.7960 C   0  0  0  0  0  0  0  0  0  0  0  0
   47.0850   33.4160   38.3710 C   0  0  0  0  0  0  0  0  0  0  0  0
   46.1210   32.8290   39.1900 C   0  0  0  0  0  0  0  0  0  0  0  0
   46.2330   33.1860   40.5250 C   0  0  0  0  0  0  0  0  0  0  0  0
   47.1910   34.0350   41.0250 C   0  0  0  0  0  0  0  0  0  0  0  0
   45.0440   34.7100   45.0550 C   0  0  0  0  0  0  0  0  0  0  0  0
   45.7000   35.0190   43.8450 C   0  0  0  0  0  0  0  0  0  0  0  0
   46.8100   34.2380   43.5110 C   0  0  0  0  0  0  0  0  0  0  0  0
   47.2010   33.2330   44.3550 N   0  0  0  0  0  0  0  0  0  0  0  0
   46.5340   32.9830   45.4980 C   0  0  0  0  0  0  0  0  0  0  0  0
   45.4640   33.7020   45.8650 N   0  0  0  0  0  0  0  0  0  0  0  0
   46.9830   31.8810   46.3970 C   0  0  0  0  0  0  0  0  0  0  0  0
   47.3440   32.4350   47.7680 C   0  0  0  0  0  0  0  0  0  0  0  0
   46.0150   32.5220   48.4590 C   0  0  0  0  0  0  0  0  0  0  0  0
   45.0990   31.5370   47.7970 C   0  0  0  0  0  0  0  0  0  0  0  0
   45.9190   30.8760   46.6960 C   0  0  0  0  0  0  0  0  0  0  0  0
   49.1205   35.9189   42.9049 H   0  0  0  0  0  0  0  0  0  0  0  0
   49.7590   35.9116   40.3999 H   0  0  0  0  0  0  0  0  0  0  0  0
   48.7905   34.6911   38.0846 H   0  0  0  0  0  0  0  0  0  0  0  0
   47.0536   33.1744   37.2983 H   0  0  0  0  0  0  0  0  0  0  0  0
   45.3449   32.1470   38.8124 H   0  0  0  0  0  0  0  0  0  0  0  0
   45.5055   32.7607   41.2321 H   0  0  0  0  0  0  0  0  0  0  0  0
   44.1661   35.3025   45.3522 H   0  0  0  0  0  0  0  0  0  0  0  0
   45.3542   35.8362   43.1949 H   0  0  0  0  0  0  0  0  0  0  0  0
   47.8220   31.4161   45.8586 H   0  0  0  0  0  0  0  0  0  0  0  0
   48.0235   31.7549   48.3026 H   0  0  0  0  0  0  0  0  0  0  0  0
   47.8711   33.3993   47.7202 H   0  0  0  0  0  0  0  0  0  0  0  0
   46.1283   32.2726   49.5243 H   0  0  0  0  0  0  0  0  0  0  0  0
   45.6064   33.5408   48.3872 H   0  0  0  0  0  0  0  0  0  0  0  0
   44.7574   30.7848   48.5232 H   0  0  0  0  0  0  0  0  0  0  0  0
   44.2027   32.0293   47.3917 H   0  0  0  0  0  0  0  0  0  0  0  0
   45.3000   30.6836   45.8073 H   0  0  0  0  0  0  0  0  0  0  0  0
   46.3265   29.8991   46.9953 H   0  0  0  0  0  0  0  0  0  0  0  0
  1 12  1  0
  2  1  2  0
  3  2  1  0
  4  3  1  0
  4  9  2  0
  5  4  1  0
  6  5  2  0
  6  7  1  0
  7  8  2  0
  8  9  1  0
  9  1  1  0
 10 15  2  0
 11 10  1  0
 12 11  2  0
 12 13  1  0
 13 14  2  0
 14 15  1  0
 14 16  1  0
 16 20  1  0
 16 17  1  0
 17 18  1  0
 19 18  1  0
 20 19  1  0
  2 21  1  0
  3 22  1  0
  5 23  1  0
  6 24  1  0
  7 25  1  0
  8 26  1  0
 10 27  1  0
 11 28  1  0
 16 29  1  0
 17 30  1  0
 17 31  1  0
 18 32  1  0
 18 33  1  0
 19 34  1  0
 19 35  1  0
 20 36  1  0
 20 37  1  0
M  ISO  8  21  14  22   9  23  14  24  14  25  14  26  14  27  14  28  14
M  ISO  8  29  13  30  13  31  13  32  13  33  13  34  13  35  13  36  13
M  ISO  1  37  13
M  END
>  <minimizedAffinity>  (1) 
-6.19737101

>  <minimizedRMSD>  (1) 
1.19336891

$$$$
