
     RDKit          3D

 36 38  0  0  1  0  0  0  0  0999 V2000
   46.6400   34.7840   42.0820 C   0  0  0  0  0  0  0  0  0  0  0  0
   47.9470   35.2450   42.0110 C   0  0  0  0  0  0  0  0  0  0  0  0
   48.7280   35.1260   40.8680 C   0  0  0  0  0  0  0  0  0  0  0  0
   48.1850   34.5190   39.7330 C   0  0  0  0  0  0  0  0  0  0  0  0
   46.8850   34.0600   39.8010 C   0  0  0  0  0  0  0  0  0  0  0  0
   46.1570   34.2020   40.9570 C   0  0  0  0  0  0  0  0  0  0  0  0
   44.8030   33.7090   40.9860 N   0  0  0  0  0  0  0  0  0  0  0  0
   43.5920   34.4300   40.5670 C   0  0  0  0  0  0  0  0  0  0  0  0
   42.4270   34.1180   41.4790 C   0  0  0  0  0  0  0  0  0  0  0  0
   42.2220   32.6920   41.4750 N   0  0  0  0  0  0  0  0  0  0  0  0
   43.3600   32.1370   42.2210 C   0  0  0  0  0  0  0  0  0  0  0  0
   44.6630   32.3590   41.4880 C   0  0  1  0  0  0  0  0  0  0  0  0
   44.8120   31.3780   40.3560 C   0  0  0  0  0  0  0  0  0  0  0  0
   43.9310   31.6030   39.5140 O   0  0  0  0  0  0  0  0  0  0  0  0
   44.4510   36.1060   44.8270 C   0  0  0  0  0  0  0  0  0  0  0  0
   45.0850   36.0460   43.5820 C   0  0  0  0  0  0  0  0  0  0  0  0
   45.9270   34.9630   43.3270 C   0  0  0  0  0  0  0  0  0  0  0  0
   46.1120   34.0050   44.2760 N   0  0  0  0  0  0  0  0  0  0  0  0
   45.4640   34.1180   45.4750 C   0  0  0  0  0  0  0  0  0  0  0  0
   44.6500   35.1500   45.7430 N   0  0  0  0  0  0  0  0  0  0  0  0
   48.3839   35.7258   42.8987 H   0  0  0  0  0  0  0  0  0  0  0  0
   49.7606   35.5049   40.8570 H   0  0  0  0  0  0  0  0  0  0  0  0
   48.7762   34.4100   38.8118 H   0  0  0  0  0  0  0  0  0  0  0  0
   46.4292   33.5775   38.9239 H   0  0  0  0  0  0  0  0  0  0  0  0
   43.7904   35.5116   40.5955 H   0  0  0  0  0  0  0  0  0  0  0  0
   43.3315   34.1103   39.5472 H   0  0  0  0  0  0  0  0  0  0  0  0
   42.6518   34.4591   42.5003 H   0  0  0  0  0  0  0  0  0  0  0  0
   41.5208   34.6333   41.1279 H   0  0  0  0  0  0  0  0  0  0  0  0
   41.3344   32.4534   41.9400 H   0  0  0  0  0  0  0  0  0  0  0  0
   43.4153   32.6260   43.2048 H   0  0  0  0  0  0  0  0  0  0  0  0
   43.2057   31.0534   42.3309 H   0  0  0  0  0  0  0  0  0  0  0  0
   45.4633   32.1977   42.2253 H   0  0  0  0  0  0  0  0  0  0  0  0
   45.5772   30.5907   40.2874 H   0  0  0  0  0  0  0  0  0  0  0  0
   43.7813   36.9480   45.0563 H   0  0  0  0  0  0  0  0  0  0  0  0
   44.9247   36.8291   42.8263 H   0  0  0  0  0  0  0  0  0  0  0  0
   45.6143   33.3420   46.2400 H   0  0  0  0  0  0  0  0  0  0  0  0
  1 17  1  0
  2  1  2  0
  3  2  1  0
  4  5  1  0
  4  3  2  0
  5  6  2  0
  6  7  1  0
  6  1  1  0
  7 12  1  0
  8  7  1  0
  8  9  1  0
 10  9  1  0
 10 11  1  0
 12 11  1  0
 13 12  1  0
 14 13  2  0
 15 20  2  0
 16 15  1  0
 17 16  2  0
 17 18  1  0
 18 19  2  0
 19 20  1  0
  2 21  1  0
  3 22  1  0
  4 23  1  0
  5 24  1  0
  8 25  1  0
  8 26  1  0
  9 27  1  0
  9 28  1  0
 10 29  1  0
 11 30  1  0
 11 31  1  0
 12 32  1  1
 13 33  1  0
 15 34  1  0
 16 35  1  0
 19 36  1  0
M  ISO  8  21  14  22  14  23  14  24  14  25  13  26  13  27  13  28  13
M  ISO  8  29   5  30  13  31  13  32  13  33   6  34  14  35  14  36  14
M  END
>  <minimizedAffinity>  (1) 
-5.50474834

>  <minimizedRMSD>  (1) 
0.035067901

$$$$
