
     RDKit          3D

 26 28  0  0  0  0  0  0  0  0999 V2000
   47.2480   34.9250   41.9200 C   0  0  0  0  0  0  0  0  0  0  0  0
   48.4910   35.5340   41.7940 C   0  0  0  0  0  0  0  0  0  0  0  0
   48.9680   35.3030   40.5580 N   0  0  0  0  0  0  0  0  0  0  0  0
   48.0530   34.5570   39.8940 C   0  0  0  0  0  0  0  0  0  0  0  0
   48.0820   34.0690   38.6090 C   0  0  0  0  0  0  0  0  0  0  0  0
   47.0110   33.3330   38.1780 C   0  0  0  0  0  0  0  0  0  0  0  0
   45.8890   33.0390   38.9460 C   0  0  0  0  0  0  0  0  0  0  0  0
   45.9320   33.5600   40.2210 C   0  0  0  0  0  0  0  0  0  0  0  0
   46.9670   34.3080   40.7260 C   0  0  0  0  0  0  0  0  0  0  0  0
   44.5650   35.8820   44.3380 C   0  0  0  0  0  0  0  0  0  0  0  0
   45.3900   35.8860   43.1930 C   0  0  0  0  0  0  0  0  0  0  0  0
   46.3930   34.9310   43.0950 C   0  0  0  0  0  0  0  0  0  0  0  0
   46.5380   34.0240   44.1200 N   0  0  0  0  0  0  0  0  0  0  0  0
   45.7230   34.0600   45.2000 C   0  0  0  0  0  0  0  0  0  0  0  0
   44.7430   34.9710   45.3220 N   0  0  0  0  0  0  0  0  0  0  0  0
   46.0480   33.0340   46.1360 N   0  0  0  0  0  0  0  0  0  0  0  0
   49.0020   36.1116   42.5784 H   0  0  0  0  0  0  0  0  0  0  0  0
   49.8684   35.6342   40.1832 H   0  0  0  0  0  0  0  0  0  0  0  0
   48.9391   34.2638   37.9477 H   0  0  0  0  0  0  0  0  0  0  0  0
   47.0399   32.9457   37.1488 H   0  0  0  0  0  0  0  0  0  0  0  0
   45.0437   32.4443   38.5695 H   0  0  0  0  0  0  0  0  0  0  0  0
   45.0753   33.3624   40.8821 H   0  0  0  0  0  0  0  0  0  0  0  0
   43.7650   36.6311   44.4317 H   0  0  0  0  0  0  0  0  0  0  0  0
   45.2417   36.6293   42.3958 H   0  0  0  0  0  0  0  0  0  0  0  0
   45.5076   32.9424   47.0081 H   0  0  0  0  0  0  0  0  0  0  0  0
   46.8231   32.3846   45.9399 H   0  0  0  0  0  0  0  0  0  0  0  0
  1 12  1  0
  2  1  2  0
  3  2  1  0
  4  3  1  0
  4  9  2  0
  5  4  1  0
  6  5  2  0
  6  7  1  0
  7  8  2  0
  8  9  1  0
  9  1  1  0
 10 15  2  0
 11 10  1  0
 12 11  2  0
 12 13  1  0
 13 14  2  0
 14 15  1  0
 14 16  1  0
  2 17  1  0
  3 18  1  0
  5 19  1  0
  6 20  1  0
  7 21  1  0
  8 22  1  0
 10 23  1  0
 11 24  1  0
 16 25  1  0
 16 26  1  0
M  ISO  8  17  14  18   9  19  14  20  14  21  14  22  14  23  14  24  14
M  END
>  <minimizedAffinity>  (1) 
-5.89942741

>  <minimizedRMSD>  (1) 
0.0268582236

$$$$
