
     RDKit          3D

 26 28  0  0  0  0  0  0  0  0999 V2000
   47.2540   34.9290   41.9160 C   0  0  0  0  0  0  0  0  0  0  0  0
   48.4900   35.5360   41.7810 C   0  0  0  0  0  0  0  0  0  0  0  0
   48.9630   35.3050   40.5430 N   0  0  0  0  0  0  0  0  0  0  0  0
   48.0610   34.5690   39.8890 C   0  0  0  0  0  0  0  0  0  0  0  0
   48.0840   34.0750   38.5990 C   0  0  0  0  0  0  0  0  0  0  0  0
   47.0060   33.3330   38.1750 C   0  0  0  0  0  0  0  0  0  0  0  0
   45.8840   33.0360   38.9440 C   0  0  0  0  0  0  0  0  0  0  0  0
   45.9260   33.5590   40.2210 C   0  0  0  0  0  0  0  0  0  0  0  0
   46.9640   34.3060   40.7140 C   0  0  0  0  0  0  0  0  0  0  0  0
   44.5780   35.8560   44.3400 C   0  0  0  0  0  0  0  0  0  0  0  0
   45.3910   35.8800   43.1900 C   0  0  0  0  0  0  0  0  0  0  0  0
   46.3980   34.9280   43.0950 C   0  0  0  0  0  0  0  0  0  0  0  0
   46.5560   34.0150   44.1160 N   0  0  0  0  0  0  0  0  0  0  0  0
   45.7530   34.0300   45.2020 C   0  0  0  0  0  0  0  0  0  0  0  0
   44.7620   34.9460   45.3240 N   0  0  0  0  0  0  0  0  0  0  0  0
   45.9430   33.0520   46.2680 C   0  0  0  0  0  0  0  0  0  0  0  0
   45.2360   33.0740   47.3040 O   0  0  0  0  0  0  0  0  0  0  0  0
   49.0042   36.1154   42.5619 H   0  0  0  0  0  0  0  0  0  0  0  0
   49.8622   35.6372   40.1661 H   0  0  0  0  0  0  0  0  0  0  0  0
   48.9371   34.2688   37.9322 H   0  0  0  0  0  0  0  0  0  0  0  0
   47.0326   32.9434   37.1467 H   0  0  0  0  0  0  0  0  0  0  0  0
   45.0403   32.4386   38.5681 H   0  0  0  0  0  0  0  0  0  0  0  0
   45.0715   33.3636   40.8855 H   0  0  0  0  0  0  0  0  0  0  0  0
   43.7716   36.5973   44.4407 H   0  0  0  0  0  0  0  0  0  0  0  0
   45.2342   36.6253   42.3963 H   0  0  0  0  0  0  0  0  0  0  0  0
   46.7205   32.2812   46.1612 H   0  0  0  0  0  0  0  0  0  0  0  0
  1 12  1  0
  2  1  2  0
  3  2  1  0
  4  3  1  0
  4  9  2  0
  5  4  1  0
  6  5  2  0
  6  7  1  0
  7  8  2  0
  8  9  1  0
  9  1  1  0
 10 15  2  0
 11 10  1  0
 12 11  2  0
 12 13  1  0
 13 14  2  0
 14 15  1  0
 14 16  1  0
 16 17  2  0
  2 18  1  0
  3 19  1  0
  5 20  1  0
  6 21  1  0
  7 22  1  0
  8 23  1  0
 10 24  1  0
 11 25  1  0
 16 26  1  0
M  ISO  8  18  14  19   9  20  14  21  14  22  14  23  14  24  14  25  14
M  ISO  1  26   6
M  END
>  <minimizedAffinity>  (1) 
-5.95455122

>  <minimizedRMSD>  (1) 
0.104547299

$$$$
