
     RDKit          3D

 25 27  0  0  0  0  0  0  0  0999 V2000
   45.8940   33.3200   43.1950 N   0  0  0  0  0  0  0  0  0  0  0  0
   45.0860   33.0540   42.1460 C   0  0  0  0  0  0  0  0  0  0  0  0
   45.7080   33.3920   40.9970 N   0  0  0  0  0  0  0  0  0  0  0  0
   46.9210   33.8800   41.2790 C   0  0  0  0  0  0  0  0  0  0  0  0
   47.9380   34.3590   40.4760 C   0  0  0  0  0  0  0  0  0  0  0  0
   47.7330   34.3590   39.2310 O   0  0  0  0  0  0  0  0  0  0  0  0
   49.0830   34.8000   41.0310 N   0  0  0  0  0  0  0  0  0  0  0  0
   49.1600   34.7400   42.3830 C   0  0  0  0  0  0  0  0  0  0  0  0
   50.3800   35.2100   42.9520 N   0  0  0  0  0  0  0  0  0  0  0  0
   48.1890   34.2780   43.1890 N   0  0  0  0  0  0  0  0  0  0  0  0
   47.0450   33.8350   42.6730 C   0  0  0  0  0  0  0  0  0  0  0  0
   45.1620   34.2380   45.2840 C   0  0  0  0  0  0  0  0  0  0  0  0
   45.7400   33.1590   44.5940 C   0  0  0  0  0  0  0  0  0  0  0  0
   46.1100   32.0380   45.3240 C   0  0  0  0  0  0  0  0  0  0  0  0
   45.8910   32.0490   46.6650 N   0  0  0  0  0  0  0  0  0  0  0  0
   45.3390   33.0850   47.3080 C   0  0  0  0  0  0  0  0  0  0  0  0
   44.9690   34.1910   46.6170 N   0  0  0  0  0  0  0  0  0  0  0  0
   44.6510   35.7320   44.4180 S   0  0  0  0  0  0  0  0  0  0  0  0
   44.0748   32.6269   42.2173 H   0  0  0  0  0  0  0  0  0  0  0  0
   49.8586   35.1634   40.4589 H   0  0  0  0  0  0  0  0  0  0  0  0
   50.5112   35.1951   43.9735 H   0  0  0  0  0  0  0  0  0  0  0  0
   51.1301   35.5644   42.3415 H   0  0  0  0  0  0  0  0  0  0  0  0
   46.5668   31.1668   44.8317 H   0  0  0  0  0  0  0  0  0  0  0  0
   45.1857   33.0390   48.3963 H   0  0  0  0  0  0  0  0  0  0  0  0
   44.3204   36.6985   45.3309 H   0  0  0  0  0  0  0  0  0  0  0  0
  1 13  1  0
  2  1  1  0
  3  4  1  0
  3  2  2  0
  4 11  2  0
  5  7  1  0
  5  4  1  0
  6  5  2  0
  7  8  1  0
  8  9  1  0
  8 10  2  0
 11 10  1  0
 11  1  1  0
 12 17  2  0
 13 12  1  0
 13 14  2  0
 14 15  1  0
 15 16  2  0
 17 16  1  0
 18 12  1  0
  2 19  1  0
  7 20  1  0
  9 21  1  0
  9 22  1  0
 14 23  1  0
 16 24  1  0
 18 25  1  0
M  ISO  5  19  14  20   9  23  14  24  14  25  11
M  END
>  <minimizedAffinity>  (1) 
-5.65575123

>  <minimizedRMSD>  (1) 
2.24823809

$$$$
