
     RDKit          3D

 22 23  0  0  0  0  0  0  0  0999 V2000
   45.5820   34.7060   44.0550 C   0  0  0  0  0  0  0  0  0  0  0  0
   46.6570   33.8870   43.6720 C   0  0  0  0  0  0  0  0  0  0  0  0
   47.1350   32.9810   44.6090 C   0  0  0  0  0  0  0  0  0  0  0  0
   46.5460   32.9350   45.8330 N   0  0  0  0  0  0  0  0  0  0  0  0
   45.5220   33.7260   46.1740 C   0  0  0  0  0  0  0  0  0  0  0  0
   45.0310   34.6150   45.2950 N   0  0  0  0  0  0  0  0  0  0  0  0
   47.1300   34.0830   42.3650 N   0  0  0  0  0  0  0  0  0  0  0  0
   48.1220   35.0120   42.2350 C   0  0  0  0  0  0  0  0  0  0  0  0
   48.6890   35.3110   40.9920 C   0  0  0  0  0  0  0  0  0  0  0  0
   48.1980   34.6240   39.9020 C   0  0  0  0  0  0  0  0  0  0  0  0
   48.7180   34.8670   38.6010 N   0  0  0  0  0  0  0  0  0  0  0  0
   47.2250   33.7160   40.0420 N   0  0  0  0  0  0  0  0  0  0  0  0
   46.6960   33.4480   41.2590 C   0  0  0  0  0  0  0  0  0  0  0  0
   45.7800   32.6030   41.4430 O   0  0  0  0  0  0  0  0  0  0  0  0
   44.8790   35.9210   42.9150 S   0  0  0  0  0  0  0  0  0  0  0  0
   47.9744   32.3131   44.3654 H   0  0  0  0  0  0  0  0  0  0  0  0
   45.0805   33.6478   47.1785 H   0  0  0  0  0  0  0  0  0  0  0  0
   48.4843   35.5385   43.1303 H   0  0  0  0  0  0  0  0  0  0  0  0
   49.4889   36.0590   40.8888 H   0  0  0  0  0  0  0  0  0  0  0  0
   49.4672   35.5610   38.4672 H   0  0  0  0  0  0  0  0  0  0  0  0
   48.3454   34.3490   37.7924 H   0  0  0  0  0  0  0  0  0  0  0  0
   44.2937   36.9326   43.6298 H   0  0  0  0  0  0  0  0  0  0  0  0
  1  6  2  0
  2  1  1  0
  2  3  2  0
  3  4  1  0
  4  5  2  0
  6  5  1  0
  7  2  1  0
  8  7  1  0
  9  8  2  0
 10 12  2  0
 10  9  1  0
 11 10  1  0
 12 13  1  0
 13 14  2  0
 13  7  1  0
 15  1  1  0
  3 16  1  0
  5 17  1  0
  8 18  1  0
  9 19  1  0
 11 20  1  0
 11 21  1  0
 15 22  1  0
M  ISO  5  16  14  17  14  18  14  19  14  22  11
M  END
>  <minimizedAffinity>  (1) 
-4.76701117

>  <minimizedRMSD>  (1) 
0.392730355

$$$$
