
     RDKit          3D

 25 27  0  0  0  0  0  0  0  0999 V2000
   46.0650   33.7080   44.6470 C   0  0  0  0  0  0  0  0  0  0  0  0
   44.9740   34.4900   44.7180 N   0  0  0  0  0  0  0  0  0  0  0  0
   44.7870   35.5040   43.8670 C   0  0  0  0  0  0  0  0  0  0  0  0
   45.6520   35.8470   42.8670 N   0  0  0  0  0  0  0  0  0  0  0  0
   46.7590   35.0840   42.7660 C   0  0  0  0  0  0  0  0  0  0  0  0
   47.7100   35.3500   41.7900 C   0  0  0  0  0  0  0  0  0  0  0  0
   48.8750   34.6100   41.6400 C   0  0  0  0  0  0  0  0  0  0  0  0
   49.0770   33.5610   42.5160 C   0  0  0  0  0  0  0  0  0  0  0  0
   48.1110   33.3050   43.4890 C   0  0  0  0  0  0  0  0  0  0  0  0
   46.9570   34.0370   43.6410 C   0  0  0  0  0  0  0  0  0  0  0  0
   45.9420   31.3470   45.0600 C   0  0  0  0  0  0  0  0  0  0  0  0
   46.3550   32.6050   45.5340 C   0  0  0  0  0  0  0  0  0  0  0  0
   46.9810   32.6220   46.7720 C   0  0  0  0  0  0  0  0  0  0  0  0
   47.1590   31.4520   47.4480 N   0  0  0  0  0  0  0  0  0  0  0  0
   46.7510   30.2670   46.9680 C   0  0  0  0  0  0  0  0  0  0  0  0
   46.1390   30.1960   45.7710 N   0  0  0  0  0  0  0  0  0  0  0  0
   45.1060   31.1960   43.4560 S   0  0  0  0  0  0  0  0  0  0  0  0
   43.8722   36.1043   43.9801 H   0  0  0  0  0  0  0  0  0  0  0  0
   47.5315   36.1889   41.1013 H   0  0  0  0  0  0  0  0  0  0  0  0
   49.6077   34.8493   40.8552 H   0  0  0  0  0  0  0  0  0  0  0  0
   49.9821   32.9397   42.4475 H   0  0  0  0  0  0  0  0  0  0  0  0
   48.2831   32.4649   44.1779 H   0  0  0  0  0  0  0  0  0  0  0  0
   47.3305   33.5713   47.2041 H   0  0  0  0  0  0  0  0  0  0  0  0
   46.9171   29.3512   47.5543 H   0  0  0  0  0  0  0  0  0  0  0  0
   43.7724   30.9551   43.6570 H   0  0  0  0  0  0  0  0  0  0  0  0
  1  2  2  0
  1 12  1  0
  3  2  1  0
  4  3  2  0
  5  4  1  0
  5 10  2  0
  6  5  1  0
  7  6  2  0
  7  8  1  0
  8  9  2  0
  9 10  1  0
 10  1  1  0
 11 12  2  0
 11 16  1  0
 12 13  1  0
 13 14  2  0
 15 14  1  0
 16 15  2  0
 17 11  1  0
  3 18  1  0
  6 19  1  0
  7 20  1  0
  8 21  1  0
  9 22  1  0
 13 23  1  0
 15 24  1  0
 17 25  1  0
M  ISO  8  18  14  19  14  20  14  21  14  22  14  23  14  24  14  25  11
M  END
>  <minimizedAffinity>  (1) 
-4.88312387

>  <minimizedRMSD>  (1) 
3.31529546

$$$$
