
     RDKit          3D

 24 26  0  0  0  0  0  0  0  0999 V2000
   47.1830   33.6180   42.2420 N   0  0  0  0  0  0  0  0  0  0  0  0
   46.4990   34.4150   41.3840 C   0  0  0  0  0  0  0  0  0  0  0  0
   45.5140   35.0400   42.0760 N   0  0  0  0  0  0  0  0  0  0  0  0
   45.5970   34.6290   43.3420 C   0  0  0  0  0  0  0  0  0  0  0  0
   44.8970   34.8930   44.5030 C   0  0  0  0  0  0  0  0  0  0  0  0
   45.2160   34.3090   45.6880 N   0  0  0  0  0  0  0  0  0  0  0  0
   46.2530   33.4340   45.7650 C   0  0  0  0  0  0  0  0  0  0  0  0
   46.9570   33.1530   44.6530 N   0  0  0  0  0  0  0  0  0  0  0  0
   46.6370   33.7320   43.4860 C   0  0  0  0  0  0  0  0  0  0  0  0
   49.5670   33.3760   42.0010 C   0  0  0  0  0  0  0  0  0  0  0  0
   48.2970   32.7830   41.9350 C   0  0  0  0  0  0  0  0  0  0  0  0
   48.2210   31.4310   41.5770 C   0  0  0  0  0  0  0  0  0  0  0  0
   49.3880   30.7770   41.3140 N   0  0  0  0  0  0  0  0  0  0  0  0
   50.5810   31.3780   41.3880 C   0  0  0  0  0  0  0  0  0  0  0  0
   50.6930   32.6840   41.7310 N   0  0  0  0  0  0  0  0  0  0  0  0
   49.7500   35.1110   42.4540 S   0  0  0  0  0  0  0  0  0  0  0  0
   43.8100   35.7990   44.4630 N   0  0  0  0  0  0  0  0  0  0  0  0
   46.7074   34.5342   40.3105 H   0  0  0  0  0  0  0  0  0  0  0  0
   46.5135   32.9616   46.7237 H   0  0  0  0  0  0  0  0  0  0  0  0
   47.2522   30.9142   41.5103 H   0  0  0  0  0  0  0  0  0  0  0  0
   51.4900   30.7998   41.1657 H   0  0  0  0  0  0  0  0  0  0  0  0
   49.7623   35.2277   43.8190 H   0  0  0  0  0  0  0  0  0  0  0  0
   43.2794   36.0050   45.3214 H   0  0  0  0  0  0  0  0  0  0  0  0
   43.5497   36.2522   43.5755 H   0  0  0  0  0  0  0  0  0  0  0  0
  1  9  1  0
  2  3  2  0
  2  1  1  0
  3  4  1  0
  4  9  2  0
  4  5  1  0
  5  6  2  0
  6  7  1  0
  8  7  2  0
  9  8  1  0
 10 16  1  0
 11 10  2  0
 11  1  1  0
 12 11  1  0
 13 14  1  0
 13 12  2  0
 14 15  2  0
 15 10  1  0
 17  5  1  0
  2 18  1  0
  7 19  1  0
 12 20  1  0
 14 21  1  0
 16 22  1  0
 17 23  1  0
 17 24  1  0
M  ISO  5  18  14  19  14  20  14  21  14  22  11
M  END
>  <minimizedAffinity>  (1) 
-5.01262617

>  <minimizedRMSD>  (1) 
4.93638897

$$$$
