
     RDKit          3D

 24 25  0  0  0  0  0  0  0  0999 V2000
   45.7000   34.4800   44.4920 C   0  0  0  0  0  0  0  0  0  0  0  0
   46.6760   34.2190   43.5190 C   0  0  0  0  0  0  0  0  0  0  0  0
   47.5130   33.1270   43.7070 C   0  0  0  0  0  0  0  0  0  0  0  0
   47.3410   32.3730   44.8220 N   0  0  0  0  0  0  0  0  0  0  0  0
   46.4030   32.6350   45.7460 C   0  0  0  0  0  0  0  0  0  0  0  0
   45.5740   33.6860   45.5940 N   0  0  0  0  0  0  0  0  0  0  0  0
   46.7830   35.0970   42.3440 C   0  0  0  0  0  0  0  0  0  0  0  0
   46.0410   34.4190   41.2100 C   0  0  0  0  0  0  0  0  0  0  0  0
   47.1120   33.9400   40.2540 C   0  0  0  0  0  0  0  0  0  0  0  0
   48.3030   34.8580   40.4780 C   0  0  0  0  0  0  0  0  0  0  0  0
   48.1800   35.3720   41.8960 C   0  0  0  0  0  0  0  0  0  0  0  0
   44.5680   35.8790   44.3300 S   0  0  0  0  0  0  0  0  0  0  0  0
   48.2937   32.8801   42.9725 H   0  0  0  0  0  0  0  0  0  0  0  0
   46.3109   31.9886   46.6312 H   0  0  0  0  0  0  0  0  0  0  0  0
   46.3596   36.0720   42.6269 H   0  0  0  0  0  0  0  0  0  0  0  0
   45.4553   33.5683   41.5884 H   0  0  0  0  0  0  0  0  0  0  0  0
   45.3330   35.1032   40.7194 H   0  0  0  0  0  0  0  0  0  0  0  0
   46.7599   34.0151   39.2146 H   0  0  0  0  0  0  0  0  0  0  0  0
   47.3725   32.8860   40.4309 H   0  0  0  0  0  0  0  0  0  0  0  0
   49.2429   34.2999   40.3550 H   0  0  0  0  0  0  0  0  0  0  0  0
   48.3139   35.6843   39.7520 H   0  0  0  0  0  0  0  0  0  0  0  0
   48.8951   34.8508   42.5494 H   0  0  0  0  0  0  0  0  0  0  0  0
   48.4007   36.4486   41.9422 H   0  0  0  0  0  0  0  0  0  0  0  0
   44.2091   36.3226   45.5755 H   0  0  0  0  0  0  0  0  0  0  0  0
  1  6  2  0
  2  3  2  0
  2  1  1  0
  3  4  1  0
  4  5  2  0
  6  5  1  0
  7  2  1  0
  8  7  1  0
  9 10  1  0
  9  8  1  0
 10 11  1  0
 11  7  1  0
 12  1  1  0
  3 13  1  0
  5 14  1  0
  7 15  1  0
  8 16  1  0
  8 17  1  0
  9 18  1  0
  9 19  1  0
 10 20  1  0
 10 21  1  0
 11 22  1  0
 11 23  1  0
 12 24  1  0
M  ISO  8  13  14  14  14  15  13  16  13  17  13  18  13  19  13  20  13
M  ISO  4  21  13  22  13  23  13  24  11
M  END
>  <minimizedAffinity>  (1) 
-4.41594505

>  <minimizedRMSD>  (1) 
1.36473632

$$$$
