
     RDKit          3D

 22 24  0  0  0  0  0  0  0  0999 V2000
   45.7590   34.7760   43.9430 C   0  0  0  0  0  0  0  0  0  0  0  0
   46.8860   34.0130   43.5710 C   0  0  0  0  0  0  0  0  0  0  0  0
   47.3090   33.0330   44.4590 C   0  0  0  0  0  0  0  0  0  0  0  0
   46.6240   32.8670   45.6150 N   0  0  0  0  0  0  0  0  0  0  0  0
   45.5560   33.6020   45.9530 C   0  0  0  0  0  0  0  0  0  0  0  0
   45.1170   34.5590   45.1200 N   0  0  0  0  0  0  0  0  0  0  0  0
   47.4510   34.3560   42.3110 N   0  0  0  0  0  0  0  0  0  0  0  0
   48.3690   35.3120   42.1430 C   0  0  0  0  0  0  0  0  0  0  0  0
   48.7260   35.4240   40.8500 N   0  0  0  0  0  0  0  0  0  0  0  0
   48.0260   34.5200   40.1460 C   0  0  0  0  0  0  0  0  0  0  0  0
   47.9500   34.1570   38.8130 C   0  0  0  0  0  0  0  0  0  0  0  0
   47.1010   33.1650   38.4500 N   0  0  0  0  0  0  0  0  0  0  0  0
   46.3350   32.5340   39.3810 C   0  0  0  0  0  0  0  0  0  0  0  0
   46.4020   32.8830   40.6900 N   0  0  0  0  0  0  0  0  0  0  0  0
   47.2440   33.8730   41.0830 C   0  0  0  0  0  0  0  0  0  0  0  0
   45.1170   36.0830   42.8640 S   0  0  0  0  0  0  0  0  0  0  0  0
   48.1820   32.4049   44.2282 H   0  0  0  0  0  0  0  0  0  0  0  0
   45.0413   33.4222   46.9084 H   0  0  0  0  0  0  0  0  0  0  0  0
   48.7800   35.9281   42.9563 H   0  0  0  0  0  0  0  0  0  0  0  0
   48.5692   34.6658   38.0595 H   0  0  0  0  0  0  0  0  0  0  0  0
   45.6524   31.7302   39.0679 H   0  0  0  0  0  0  0  0  0  0  0  0
   44.6162   37.1025   43.6299 H   0  0  0  0  0  0  0  0  0  0  0  0
  1  6  2  0
  2  1  1  0
  2  3  2  0
  3  4  1  0
  4  5  2  0
  6  5  1  0
  7  2  1  0
  8  7  1  0
  9  8  2  0
 10  9  1  0
 10 15  2  0
 11 10  1  0
 12 11  2  0
 12 13  1  0
 13 14  2  0
 14 15  1  0
 15  7  1  0
 16  1  1  0
  3 17  1  0
  5 18  1  0
  8 19  1  0
 11 20  1  0
 13 21  1  0
 16 22  1  0
M  ISO  6  17  14  18  14  19  14  20  14  21  14  22  11
M  END
>  <minimizedAffinity>  (1) 
-4.3433609

>  <minimizedRMSD>  (1) 
1.3802911

$$$$
