
     RDKit          3D

 23 24  0  0  0  0  0  0  0  0999 V2000
   45.5690   34.6550   44.1220 C   0  0  0  0  0  0  0  0  0  0  0  0
   46.6440   33.8400   43.7690 C   0  0  0  0  0  0  0  0  0  0  0  0
   47.1260   32.9580   44.7470 C   0  0  0  0  0  0  0  0  0  0  0  0
   46.5230   32.9490   45.9620 N   0  0  0  0  0  0  0  0  0  0  0  0
   45.4910   33.7430   46.2740 C   0  0  0  0  0  0  0  0  0  0  0  0
   45.0030   34.6030   45.3600 N   0  0  0  0  0  0  0  0  0  0  0  0
   47.2190   33.9100   42.4760 N   0  0  0  0  0  0  0  0  0  0  0  0
   47.0920   33.1540   41.2330 C   0  0  0  0  0  0  0  0  0  0  0  0
   47.2680   34.2900   40.2200 C   0  0  0  0  0  0  0  0  0  0  0  0
   48.5570   34.9010   40.7860 C   0  0  0  0  0  0  0  0  0  0  0  0
   48.1910   34.9780   42.2510 C   0  0  0  0  0  0  0  0  0  0  0  0
   44.8790   35.8270   42.9240 S   0  0  0  0  0  0  0  0  0  0  0  0
   47.9730   32.2893   44.5339 H   0  0  0  0  0  0  0  0  0  0  0  0
   45.0419   33.6928   47.2769 H   0  0  0  0  0  0  0  0  0  0  0  0
   47.8795   32.3923   41.1348 H   0  0  0  0  0  0  0  0  0  0  0  0
   46.1601   32.5786   41.1307 H   0  0  0  0  0  0  0  0  0  0  0  0
   46.4279   34.9998   40.2429 H   0  0  0  0  0  0  0  0  0  0  0  0
   47.3069   33.9864   39.1634 H   0  0  0  0  0  0  0  0  0  0  0  0
   49.4264   34.2489   40.6163 H   0  0  0  0  0  0  0  0  0  0  0  0
   48.8538   35.8580   40.3321 H   0  0  0  0  0  0  0  0  0  0  0  0
   49.0821   34.8229   42.8770 H   0  0  0  0  0  0  0  0  0  0  0  0
   47.7777   35.9630   42.5135 H   0  0  0  0  0  0  0  0  0  0  0  0
   44.2720   36.8580   43.5914 H   0  0  0  0  0  0  0  0  0  0  0  0
  1  6  2  0
  2  1  1  0
  2  3  2  0
  3  4  1  0
  4  5  2  0
  6  5  1  0
  7  2  1  0
  8  7  1  0
  9 10  1  0
  9  8  1  0
 10 11  1  0
 11  7  1  0
 12  1  1  0
  3 13  1  0
  5 14  1  0
  8 15  1  0
  8 16  1  0
  9 17  1  0
  9 18  1  0
 10 19  1  0
 10 20  1  0
 11 21  1  0
 11 22  1  0
 12 23  1  0
M  ISO  8  13  14  14  14  15  13  16  13  17  13  18  13  19  13  20  13
M  ISO  3  21  13  22  13  23  11
M  END
>  <minimizedAffinity>  (1) 
-3.80038047

>  <minimizedRMSD>  (1) 
0.415107995

$$$$
