
     RDKit          3D

 18 19  0  0  0  0  0  0  0  0999 V2000
   45.5950   34.7080   44.0690 C   0  0  0  0  0  0  0  0  0  0  0  0
   46.6430   33.8940   43.6310 C   0  0  0  0  0  0  0  0  0  0  0  0
   47.1500   32.9380   44.5050 C   0  0  0  0  0  0  0  0  0  0  0  0
   46.5880   32.8600   45.7380 N   0  0  0  0  0  0  0  0  0  0  0  0
   45.5850   33.6470   46.1420 C   0  0  0  0  0  0  0  0  0  0  0  0
   45.0680   34.5890   45.3130 N   0  0  0  0  0  0  0  0  0  0  0  0
   47.0740   34.1590   42.2910 N   0  0  0  0  0  0  0  0  0  0  0  0
   48.1920   34.9370   42.2600 C   0  0  0  0  0  0  0  0  0  0  0  0
   48.5300   35.1370   40.9240 C   0  0  0  0  0  0  0  0  0  0  0  0
   47.6100   34.4780   40.1960 N   0  0  0  0  0  0  0  0  0  0  0  0
   46.7270   33.8840   41.0210 C   0  0  0  0  0  0  0  0  0  0  0  0
   44.8580   35.9780   43.0240 S   0  0  0  0  0  0  0  0  0  0  0  0
   47.9736   32.2717   44.2087 H   0  0  0  0  0  0  0  0  0  0  0  0
   45.1751   33.5297   47.1560 H   0  0  0  0  0  0  0  0  0  0  0  0
   48.7304   35.3352   43.1327 H   0  0  0  0  0  0  0  0  0  0  0  0
   49.3809   35.7187   40.5397 H   0  0  0  0  0  0  0  0  0  0  0  0
   45.8656   33.2754   40.7084 H   0  0  0  0  0  0  0  0  0  0  0  0
   44.2953   36.9476   43.8116 H   0  0  0  0  0  0  0  0  0  0  0  0
  1  6  2  0
  2  1  1  0
  2  3  2  0
  3  4  1  0
  4  5  2  0
  6  5  1  0
  7  2  1  0
  8  7  1  0
  9  8  2  0
 10  9  1  0
 10 11  2  0
 11  7  1  0
 12  1  1  0
  3 13  1  0
  5 14  1  0
  8 15  1  0
  9 16  1  0
 11 17  1  0
 12 18  1  0
M  ISO  6  13  14  14  14  15  14  16  14  17  14  18  11
M  END
>  <minimizedAffinity>  (1) 
-3.690938

>  <minimizedRMSD>  (1) 
0.586060166

$$$$
