
     RDKit          3D

 14 14  0  0  0  0  0  0  0  0999 V2000
   45.7850   34.7990   43.9130 C   0  0  0  0  0  0  0  0  0  0  0  0
   46.9000   34.2800   43.2550 C   0  0  0  0  0  0  0  0  0  0  0  0
   47.5300   33.1920   43.8410 C   0  0  0  0  0  0  0  0  0  0  0  0
   47.0300   32.6930   45.0170 N   0  0  0  0  0  0  0  0  0  0  0  0
   45.9550   33.2250   45.6140 C   0  0  0  0  0  0  0  0  0  0  0  0
   45.3190   34.2740   45.0820 N   0  0  0  0  0  0  0  0  0  0  0  0
   44.8860   36.2160   43.2410 S   0  0  0  0  0  0  0  0  0  0  0  0
   47.3710   34.8670   42.0040 C   0  0  0  0  0  0  0  0  0  0  0  0
   48.4147   32.7375   43.3712 H   0  0  0  0  0  0  0  0  0  0  0  0
   45.5898   32.7919   46.5569 H   0  0  0  0  0  0  0  0  0  0  0  0
   44.4017   36.9794   44.2703 H   0  0  0  0  0  0  0  0  0  0  0  0
   48.0454   35.7076   42.2244 H   0  0  0  0  0  0  0  0  0  0  0  0
   47.9117   34.1058   41.4225 H   0  0  0  0  0  0  0  0  0  0  0  0
   46.5107   35.2299   41.4225 H   0  0  0  0  0  0  0  0  0  0  0  0
  1  6  2  0
  2  3  2  0
  2  1  1  0
  3  4  1  0
  4  5  2  0
  6  5  1  0
  7  1  1  0
  8  2  1  0
  3  9  1  0
  5 10  1  0
  7 11  1  0
  8 12  1  0
  8 13  1  0
  8 14  1  0
M  ISO  6   9  14  10  14  11  11  12   8  13   8  14   8
M  END
>  <minimizedAffinity>  (1) 
-2.82325888

>  <minimizedRMSD>  (1) 
0.530157208

$$$$
