
     RDKit          3D

 23 23  0  0  0  0  0  0  0  0999 V2000
   45.8330   34.6160   43.9520 C   0  0  0  0  0  0  0  0  0  0  0  0
   46.8520   33.8700   43.3530 C   0  0  0  0  0  0  0  0  0  0  0  0
   47.4160   32.8210   44.1070 C   0  0  0  0  0  0  0  0  0  0  0  0
   46.9360   32.6040   45.3590 N   0  0  0  0  0  0  0  0  0  0  0  0
   45.9470   33.3490   45.9050 C   0  0  0  0  0  0  0  0  0  0  0  0
   45.3960   34.3500   45.2100 N   0  0  0  0  0  0  0  0  0  0  0  0
   47.3180   34.1790   41.9700 C   0  0  0  0  0  0  0  0  0  0  0  0
   46.1640   34.2360   41.0130 C   0  0  0  0  0  0  0  0  0  0  0  0
   48.1750   35.4150   41.9240 C   0  0  0  0  0  0  0  0  0  0  0  0
   48.2080   33.0350   41.5320 C   0  0  0  0  0  0  0  0  0  0  0  0
   45.0560   35.9720   43.0660 S   0  0  0  0  0  0  0  0  0  0  0  0
   48.2214   32.1963   43.6935 H   0  0  0  0  0  0  0  0  0  0  0  0
   45.5950   33.1305   46.9240 H   0  0  0  0  0  0  0  0  0  0  0  0
   45.2212   34.2826   41.5778 H   0  0  0  0  0  0  0  0  0  0  0  0
   46.2566   35.1307   40.3798 H   0  0  0  0  0  0  0  0  0  0  0  0
   46.1680   33.3366   40.3798 H   0  0  0  0  0  0  0  0  0  0  0  0
   48.4019   35.7422   42.9494 H   0  0  0  0  0  0  0  0  0  0  0  0
   49.1129   35.1914   41.3945 H   0  0  0  0  0  0  0  0  0  0  0  0
   47.6367   36.2149   41.3945 H   0  0  0  0  0  0  0  0  0  0  0  0
   48.6077   32.5212   42.4187 H   0  0  0  0  0  0  0  0  0  0  0  0
   47.6225   32.3249   40.9296 H   0  0  0  0  0  0  0  0  0  0  0  0
   49.0403   33.4279   40.9296 H   0  0  0  0  0  0  0  0  0  0  0  0
   44.5418   36.8694   43.9644 H   0  0  0  0  0  0  0  0  0  0  0  0
  1  6  2  0
  2  1  1  0
  2  3  2  0
  3  4  1  0
  4  5  2  0
  6  5  1  0
  7  2  1  0
  8  7  1  0
  9  7  1  0
 10  7  1  0
 11  1  1  0
  3 12  1  0
  5 13  1  0
  8 14  1  0
  8 15  1  0
  8 16  1  0
  9 17  1  0
  9 18  1  0
  9 19  1  0
 10 20  1  0
 10 21  1  0
 10 22  1  0
 11 23  1  0
M  ISO  8  12  14  13  14  14   8  15   8  16   8  17   8  18   8  19   8
M  ISO  4  20   8  21   8  22   8  23  11
M  END
>  <minimizedAffinity>  (1) 
-3.59409094

>  <minimizedRMSD>  (1) 
0.348325789

$$$$
