
     RDKit          3D

 14 14  0  0  0  0  0  0  0  0999 V2000
   45.7960   34.7230   43.9190 C   0  0  0  0  0  0  0  0  0  0  0  0
   46.8690   34.1090   43.2760 C   0  0  0  0  0  0  0  0  0  0  0  0
   47.4850   33.0370   43.9210 C   0  0  0  0  0  0  0  0  0  0  0  0
   46.9970   32.6650   45.1320 N   0  0  0  0  0  0  0  0  0  0  0  0
   45.9600   33.2730   45.7310 C   0  0  0  0  0  0  0  0  0  0  0  0
   45.3490   34.3160   45.1190 N   0  0  0  0  0  0  0  0  0  0  0  0
   47.2350   34.6820   41.9540 C   0  0  0  0  0  0  0  0  0  0  0  0
   48.2450   33.9080   41.3710 F   0  0  0  0  0  0  0  0  0  0  0  0
   46.1720   34.6780   41.0800 F   0  0  0  0  0  0  0  0  0  0  0  0
   47.7760   35.9550   42.0750 F   0  0  0  0  0  0  0  0  0  0  0  0
   44.9360   36.1240   43.1510 S   0  0  0  0  0  0  0  0  0  0  0  0
   48.3366   32.5112   43.4645 H   0  0  0  0  0  0  0  0  0  0  0  0
   45.6084   32.9258   46.7138 H   0  0  0  0  0  0  0  0  0  0  0  0
   44.4335   36.9425   44.1279 H   0  0  0  0  0  0  0  0  0  0  0  0
  1  6  2  0
  2  1  1  0
  2  3  2  0
  3  4  1  0
  4  5  2  0
  6  5  1  0
  7 10  1  0
  7  2  1  0
  8  7  1  0
  9  7  1  0
 11  1  1  0
  3 12  1  0
  5 13  1  0
 11 14  1  0
M  ISO  3  12  14  13  14  14  11
M  END
>  <minimizedAffinity>  (1) 
-3.55771065

>  <minimizedRMSD>  (1) 
0.462786287

$$$$
