
     RDKit          3D

 31 33  0  0  0  0  0  0  0  0999 V2000
   45.6060   34.5880   43.9880 C   0  0  0  0  0  0  0  0  0  0  0  0
   46.6670   33.8240   43.4830 C   0  0  0  0  0  0  0  0  0  0  0  0
   47.2530   32.9180   44.3600 C   0  0  0  0  0  0  0  0  0  0  0  0
   46.7650   32.8270   45.6440 N   0  0  0  0  0  0  0  0  0  0  0  0
   45.7470   33.5790   46.0830 C   0  0  0  0  0  0  0  0  0  0  0  0
   45.1450   34.4770   45.2580 N   0  0  0  0  0  0  0  0  0  0  0  0
   47.8270   34.0140   39.4340 C   0  0  0  0  0  0  0  0  0  0  0  0
   48.3190   34.9810   40.2960 C   0  0  0  0  0  0  0  0  0  0  0  0
   47.9650   34.9550   41.6260 C   0  0  0  0  0  0  0  0  0  0  0  0
   47.1210   33.9760   42.1280 C   0  0  0  0  0  0  0  0  0  0  0  0
   46.6320   33.0160   41.2760 C   0  0  0  0  0  0  0  0  0  0  0  0
   46.9850   33.0340   39.9260 C   0  0  0  0  0  0  0  0  0  0  0  0
   48.3340   34.1310   37.7640 S   0  0  0  0  0  0  0  0  0  0  0  0
   49.4190   33.1500   37.4410 O   0  0  0  0  0  0  0  0  0  0  0  0
   47.1900   33.8560   36.8010 O   0  0  0  0  0  0  0  0  0  0  0  0
   44.7730   35.8000   42.9200 S   0  0  0  0  0  0  0  0  0  0  0  0
   42.4140   33.5250   40.7800 N   0  0  0  0  0  0  0  0  0  0  0  0
   43.1740   33.6820   41.8560 N   0  0  0  0  0  0  0  0  0  0  0  0
   43.6750   34.9500   41.7830 C   0  0  0  0  0  0  0  0  0  0  0  0
   43.1930   35.5490   40.6340 C   0  0  0  0  0  0  0  0  0  0  0  0
   42.3910   34.6330   40.0020 C   0  0  0  0  0  0  0  0  0  0  0  0
   48.0915   32.2853   44.0336 H   0  0  0  0  0  0  0  0  0  0  0  0
   45.3951   33.4692   47.1194 H   0  0  0  0  0  0  0  0  0  0  0  0
   48.9901   35.7667   39.9188 H   0  0  0  0  0  0  0  0  0  0  0  0
   48.3595   35.7261   42.3040 H   0  0  0  0  0  0  0  0  0  0  0  0
   45.9615   32.2322   41.6582 H   0  0  0  0  0  0  0  0  0  0  0  0
   46.5904   32.2627   39.2482 H   0  0  0  0  0  0  0  0  0  0  0  0
   48.7864   35.4154   37.6135 H   0  0  0  0  0  0  0  0  0  0  0  0
   41.9003   32.6594   40.5614 H   0  0  0  0  0  0  0  0  0  0  0  0
   43.4120   36.5707   40.2903 H   0  0  0  0  0  0  0  0  0  0  0  0
   41.8426   34.7702   39.0584 H   0  0  0  0  0  0  0  0  0  0  0  0
  1  6  2  0
  2  1  1  0
  2  3  2  0
  3  4  1  0
  4  5  2  0
  6  5  1  0
  7 12  2  0
  7  8  1  0
  8  9  2  0
  9 10  1  0
 10  2  1  0
 11 10  2  0
 12 11  1  0
 13  7  1  0
 14 13  2  0
 15 13  2  0
 16  1  1  0
 17 18  1  0
 19 18  2  0
 19 16  1  0
 20 19  1  0
 21 20  2  0
 21 17  1  0
  3 22  1  0
  5 23  1  0
  8 24  1  0
  9 25  1  0
 11 26  1  0
 12 27  1  0
 13 28  1  0
 17 29  1  0
 20 30  1  0
 21 31  1  0
M  ISO  8  22  14  23  14  24  14  25  14  26  14  27  14  28  11  29   9
M  ISO  2  30  14  31  14
M  END
>  <minimizedAffinity>  (1) 
-5.29406548

>  <minimizedRMSD>  (1) 
0.424018949

$$$$
