
     RDKit          3D

 27 28  0  0  0  0  0  0  0  0999 V2000
   47.5200   33.5770   38.9830 C   0  0  0  0  0  0  0  0  0  0  0  0
   48.2460   34.4040   39.8350 C   0  0  0  0  0  0  0  0  0  0  0  0
   48.1510   34.2240   41.1990 C   0  0  0  0  0  0  0  0  0  0  0  0
   47.3610   33.2500   41.7610 C   0  0  0  0  0  0  0  0  0  0  0  0
   46.6410   32.4300   40.9150 C   0  0  0  0  0  0  0  0  0  0  0  0
   46.7280   32.6010   39.5320 C   0  0  0  0  0  0  0  0  0  0  0  0
   46.4260   33.7980   43.9750 C   0  0  0  0  0  0  0  0  0  0  0  0
   47.1670   32.9480   43.1450 C   0  0  0  0  0  0  0  0  0  0  0  0
   47.7090   31.7910   43.7290 C   0  0  0  0  0  0  0  0  0  0  0  0
   47.4730   31.5780   45.0720 N   0  0  0  0  0  0  0  0  0  0  0  0
   46.7580   32.4160   45.8290 C   0  0  0  0  0  0  0  0  0  0  0  0
   46.2270   33.5320   45.3020 N   0  0  0  0  0  0  0  0  0  0  0  0
   45.6910   35.3090   43.3110 S   0  0  0  0  0  0  0  0  0  0  0  0
   44.5950   36.0780   44.5150 C   0  0  0  0  0  0  0  0  0  0  0  0
   44.9000   37.4090   44.6560 F   0  0  0  0  0  0  0  0  0  0  0  0
   44.7720   35.3790   45.7090 F   0  0  0  0  0  0  0  0  0  0  0  0
   43.2920   35.8470   44.1150 F   0  0  0  0  0  0  0  0  0  0  0  0
   47.7020   33.8780   37.2660 S   0  0  0  0  0  0  0  0  0  0  0  0
   49.1210   33.6950   36.8340 O   0  0  0  0  0  0  0  0  0  0  0  0
   46.8760   32.9120   36.4430 O   0  0  0  0  0  0  0  0  0  0  0  0
   48.8905   35.1949   39.4237 H   0  0  0  0  0  0  0  0  0  0  0  0
   48.7291   34.8847   41.8618 H   0  0  0  0  0  0  0  0  0  0  0  0
   45.9978   31.6407   41.3313 H   0  0  0  0  0  0  0  0  0  0  0  0
   46.1499   31.9399   38.8696 H   0  0  0  0  0  0  0  0  0  0  0  0
   48.3015   31.0788   43.1359 H   0  0  0  0  0  0  0  0  0  0  0  0
   46.6027   32.1897   46.8942 H   0  0  0  0  0  0  0  0  0  0  0  0
   47.2868   35.1676   37.0625 H   0  0  0  0  0  0  0  0  0  0  0  0
  1  6  2  0
  1  2  1  0
  2  3  2  0
  3  4  1  0
  4  8  1  0
  5  4  2  0
  6  5  1  0
  7 12  2  0
  8  9  2  0
  8  7  1  0
  9 10  1  0
 10 11  2  0
 12 11  1  0
 13  7  1  0
 13 14  1  0
 14 15  1  0
 14 16  1  0
 17 14  1  0
 18  1  1  0
 19 18  2  0
 20 18  2  0
  2 21  1  0
  3 22  1  0
  5 23  1  0
  6 24  1  0
  9 25  1  0
 11 26  1  0
 18 27  1  0
M  ISO  7  21  14  22  14  23  14  24  14  25  14  26  14  27  11
M  END
>  <minimizedAffinity>  (1) 
-4.81335258

>  <minimizedRMSD>  (1) 
1.3273325

$$$$
