
     RDKit          3D

 32 34  0  0  0  0  0  0  0  0999 V2000
   45.5540   34.5830   43.8310 C   0  0  0  0  0  0  0  0  0  0  0  0
   46.6720   33.9000   43.3770 C   0  0  0  0  0  0  0  0  0  0  0  0
   47.3260   33.0690   44.2940 C   0  0  0  0  0  0  0  0  0  0  0  0
   46.8310   32.9800   45.5720 N   0  0  0  0  0  0  0  0  0  0  0  0
   45.7380   33.6650   45.9670 C   0  0  0  0  0  0  0  0  0  0  0  0
   45.0870   34.4720   45.1070 N   0  0  0  0  0  0  0  0  0  0  0  0
   47.8690   34.0340   39.3320 C   0  0  0  0  0  0  0  0  0  0  0  0
   48.3840   35.0110   40.1920 C   0  0  0  0  0  0  0  0  0  0  0  0
   48.0040   34.9840   41.5130 C   0  0  0  0  0  0  0  0  0  0  0  0
   47.1380   34.0340   42.0310 C   0  0  0  0  0  0  0  0  0  0  0  0
   46.6420   33.0820   41.1760 C   0  0  0  0  0  0  0  0  0  0  0  0
   47.0100   33.0860   39.8300 C   0  0  0  0  0  0  0  0  0  0  0  0
   48.3940   34.1280   37.6610 S   0  0  0  0  0  0  0  0  0  0  0  0
   49.4730   33.1550   37.3570 O   0  0  0  0  0  0  0  0  0  0  0  0
   47.2420   33.8460   36.7020 O   0  0  0  0  0  0  0  0  0  0  0  0
   44.6560   35.6880   42.7140 S   0  0  0  0  0  0  0  0  0  0  0  0
   43.4040   34.8280   41.8100 C   0  0  0  0  0  0  0  0  0  0  0  0
   42.5170   35.6140   41.0640 C   0  0  0  0  0  0  0  0  0  0  0  0
   41.5090   35.0280   40.3280 C   0  0  0  0  0  0  0  0  0  0  0  0
   41.3590   33.7010   40.3120 N   0  0  0  0  0  0  0  0  0  0  0  0
   42.2130   32.9500   41.0300 C   0  0  0  0  0  0  0  0  0  0  0  0
   43.2070   33.4910   41.7590 N   0  0  0  0  0  0  0  0  0  0  0  0
   48.2185   32.4987   43.9970 H   0  0  0  0  0  0  0  0  0  0  0  0
   45.3752   33.5637   47.0005 H   0  0  0  0  0  0  0  0  0  0  0  0
   49.0756   35.7813   39.8201 H   0  0  0  0  0  0  0  0  0  0  0  0
   48.4059   35.7520   42.1902 H   0  0  0  0  0  0  0  0  0  0  0  0
   45.9518   32.3130   41.5531 H   0  0  0  0  0  0  0  0  0  0  0  0
   46.6049   32.3164   39.1565 H   0  0  0  0  0  0  0  0  0  0  0  0
   48.8619   35.4044   37.4910 H   0  0  0  0  0  0  0  0  0  0  0  0
   42.6254   36.7086   41.0652 H   0  0  0  0  0  0  0  0  0  0  0  0
   40.8209   35.6603   39.7477 H   0  0  0  0  0  0  0  0  0  0  0  0
   42.0952   31.8564   41.0213 H   0  0  0  0  0  0  0  0  0  0  0  0
  1  6  2  0
  2  1  1  0
  2  3  2  0
  3  4  1  0
  4  5  2  0
  6  5  1  0
  7 12  2  0
  7  8  1  0
  8  9  2  0
  9 10  1  0
 10  2  1  0
 11 10  2  0
 12 11  1  0
 13  7  1  0
 14 13  2  0
 15 13  2  0
 16  1  1  0
 17 16  1  0
 18 17  2  0
 19 18  1  0
 20 19  2  0
 20 21  1  0
 21 22  2  0
 22 17  1  0
  3 23  1  0
  5 24  1  0
  8 25  1  0
  9 26  1  0
 11 27  1  0
 12 28  1  0
 13 29  1  0
 18 30  1  0
 19 31  1  0
 21 32  1  0
M  ISO  8  23  14  24  14  25  14  26  14  27  14  28  14  29  11  30  14
M  ISO  2  31  14  32  14
M  END
>  <minimizedAffinity>  (1) 
-5.45638752

>  <minimizedRMSD>  (1) 
0.606566727

$$$$
