
     RDKit          3D

 28 30  0  0  1  0  0  0  0  0999 V2000
   46.6170   32.1170   47.3610 C   0  0  0  0  0  0  0  0  0  0  0  0
   47.6170   32.5040   48.1680 N   0  0  0  0  0  0  0  0  0  0  0  0
   48.5030   31.5940   48.6800 C   0  0  0  0  0  0  0  0  0  0  0  0
   48.4500   30.2800   48.4250 N   0  0  0  0  0  0  0  0  0  0  0  0
   47.4680   29.8420   47.6200 C   0  0  0  0  0  0  0  0  0  0  0  0
   47.3910   28.5000   47.3160 C   0  0  0  0  0  0  0  0  0  0  0  0
   46.4150   28.0110   46.4760 C   0  0  0  0  0  0  0  0  0  0  0  0
   45.5160   28.9370   45.9540 C   0  0  0  0  0  0  0  0  0  0  0  0
   45.6340   30.2610   46.2860 C   0  0  0  0  0  0  0  0  0  0  0  0
   46.5830   30.7680   47.1120 C   0  0  0  0  0  0  0  0  0  0  0  0
   45.6970   33.1260   46.8390 C   0  0  0  0  0  0  0  0  0  0  0  0
   44.7800   33.2510   47.7550 O   0  0  0  0  0  0  0  0  0  0  0  0
   44.6450   35.7330   44.5330 C   0  0  0  0  0  0  0  0  0  0  0  0
   45.4450   35.5150   43.3730 C   0  0  0  0  0  0  0  0  0  0  0  0
   46.3580   34.4380   43.3990 C   0  0  0  0  0  0  0  0  0  0  0  0
   46.4280   33.6800   44.5050 N   0  0  0  0  0  0  0  0  0  0  0  0
   45.6500   33.9070   45.6090 C   0  0  0  0  0  0  0  0  0  0  0  0
   44.7780   34.9090   45.6290 N   0  0  0  0  0  0  0  0  0  0  0  0
   49.3036   31.9629   49.3380 H   0  0  0  0  0  0  0  0  0  0  0  0
   48.1236   27.8055   47.7529 H   0  0  0  0  0  0  0  0  0  0  0  0
   46.3491   26.9410   46.2296 H   0  0  0  0  0  0  0  0  0  0  0  0
   44.7139   28.6069   45.2775 H   0  0  0  0  0  0  0  0  0  0  0  0
   44.9071   30.9631   45.8516 H   0  0  0  0  0  0  0  0  0  0  0  0
   45.1051   32.3356   46.3543 H   0  0  0  0  0  0  0  0  0  0  0  0
   45.1982   33.1940   48.6505 H   0  0  0  0  0  0  0  0  0  0  0  0
   43.9205   36.5604   44.5528 H   0  0  0  0  0  0  0  0  0  0  0  0
   45.3542   36.1631   42.4888 H   0  0  0  0  0  0  0  0  0  0  0  0
   46.9988   34.2244   42.5308 H   0  0  0  0  0  0  0  0  0  0  0  0
  1  2  2  0
  2  3  1  0
  4  3  2  0
  5  4  1  0
  6  5  2  0
  7  6  1  0
  8  9  1  0
  8  7  2  0
  9 10  2  0
 10  1  1  0
 10  5  1  0
 11  1  1  0
 11 12  1  0
 13 18  2  0
 14 15  2  0
 14 13  1  0
 15 16  1  0
 16 17  2  0
 17 18  1  0
 17 11  1  0
  3 19  1  0
  6 20  1  0
  7 21  1  0
  8 22  1  0
  9 23  1  0
 11 24  1  0
 12 25  1  0
 13 26  1  0
 14 27  1  0
 15 28  1  0
M  ISO  8  19  14  20  14  21  14  22  14  23  14  24   8  25   3  26  14
M  ISO  2  27  14  28  14
M  END
>  <minimizedAffinity>  (1) 
-4.95293951

>  <minimizedRMSD>  (1) 
1.44576979

$$$$
