
     RDKit          3D

 28 30  0  0  0  0  0  0  0  0999 V2000
   45.5510   33.0750   46.5470 C   0  0  0  0  0  0  0  0  0  0  0  0
   44.9880   33.3120   47.6620 O   0  0  0  0  0  0  0  0  0  0  0  0
   46.2550   31.8060   46.3720 C   0  0  0  0  0  0  0  0  0  0  0  0
   45.9150   30.9000   45.3640 C   0  0  0  0  0  0  0  0  0  0  0  0
   46.5370   29.6870   45.1720 C   0  0  0  0  0  0  0  0  0  0  0  0
   47.5540   29.3170   46.0000 C   0  0  0  0  0  0  0  0  0  0  0  0
   47.9390   30.1600   47.0080 C   0  0  0  0  0  0  0  0  0  0  0  0
   48.9720   29.7810   47.8400 C   0  0  0  0  0  0  0  0  0  0  0  0
   49.4050   30.5910   48.8700 C   0  0  0  0  0  0  0  0  0  0  0  0
   48.7550   31.8120   49.0380 C   0  0  0  0  0  0  0  0  0  0  0  0
   47.7270   32.1530   48.1860 C   0  0  0  0  0  0  0  0  0  0  0  0
   47.2920   31.3540   47.1610 C   0  0  0  0  0  0  0  0  0  0  0  0
   44.6790   35.9170   44.4400 C   0  0  0  0  0  0  0  0  0  0  0  0
   45.5090   35.7610   43.3190 C   0  0  0  0  0  0  0  0  0  0  0  0
   46.3650   34.6640   43.3110 C   0  0  0  0  0  0  0  0  0  0  0  0
   46.3210   33.8440   44.3810 N   0  0  0  0  0  0  0  0  0  0  0  0
   45.5250   34.0080   45.4390 C   0  0  0  0  0  0  0  0  0  0  0  0
   44.6980   35.0510   45.4700 N   0  0  0  0  0  0  0  0  0  0  0  0
   45.0980   31.1735   44.6801 H   0  0  0  0  0  0  0  0  0  0  0  0
   46.2157   29.0219   44.3569 H   0  0  0  0  0  0  0  0  0  0  0  0
   48.0607   28.3507   45.8600 H   0  0  0  0  0  0  0  0  0  0  0  0
   49.4624   28.8097   47.6785 H   0  0  0  0  0  0  0  0  0  0  0  0
   50.2293   30.2853   49.5311 H   0  0  0  0  0  0  0  0  0  0  0  0
   49.0595   32.4971   49.8429 H   0  0  0  0  0  0  0  0  0  0  0  0
   47.2273   33.1212   48.3371 H   0  0  0  0  0  0  0  0  0  0  0  0
   43.9910   36.7745   44.4779 H   0  0  0  0  0  0  0  0  0  0  0  0
   45.4839   36.4752   42.4828 H   0  0  0  0  0  0  0  0  0  0  0  0
   47.0473   34.4740   42.4694 H   0  0  0  0  0  0  0  0  0  0  0  0
  1  2  2  0
  3  1  1  0
  3 12  1  0
  4  3  2  0
  5  4  1  0
  5  6  2  0
  6  7  1  0
  7 12  2  0
  7  8  1  0
  8  9  2  0
  9 10  1  0
 11 10  2  0
 12 11  1  0
 13 18  2  0
 14 13  1  0
 15 14  2  0
 15 16  1  0
 16 17  2  0
 17 18  1  0
 17  1  1  0
  4 19  1  0
  5 20  1  0
  6 21  1  0
  8 22  1  0
  9 23  1  0
 10 24  1  0
 11 25  1  0
 13 26  1  0
 14 27  1  0
 15 28  1  0
M  ISO  8  19  14  20  14  21  14  22  14  23  14  24  14  25  14  26  14
M  ISO  2  27  14  28  14
M  END
>  <minimizedAffinity>  (1) 
-5.18611431

>  <minimizedRMSD>  (1) 
1.32032454

$$$$
