
     RDKit          3D

 34 36  0  0  1  0  0  0  0  0999 V2000
   44.7360   35.1060   45.4830 C   0  0  0  0  0  0  0  0  0  0  0  0
   44.5270   36.0900   44.5040 C   0  0  0  0  0  0  0  0  0  0  0  0
   45.2070   35.9790   43.2780 C   0  0  0  0  0  0  0  0  0  0  0  0
   46.0300   34.9180   43.1170 N   0  0  0  0  0  0  0  0  0  0  0  0
   46.2240   33.9670   44.0780 C   0  0  0  0  0  0  0  0  0  0  0  0
   45.5760   34.0890   45.2250 N   0  0  0  0  0  0  0  0  0  0  0  0
   47.0890   32.8600   43.9050 N   0  0  0  0  0  0  0  0  0  0  0  0
   48.0120   32.9820   42.9120 C   0  0  0  0  0  0  0  0  0  0  0  0
   48.7350   31.7900   42.9440 C   0  0  0  0  0  0  0  0  0  0  0  0
   48.2410   31.0030   43.9300 N   0  0  0  0  0  0  0  0  0  0  0  0
   47.2420   31.6660   44.5060 C   0  0  0  0  0  0  0  0  0  0  0  0
   46.3980   31.1960   45.6210 C   0  0  2  0  0  0  0  0  0  0  0  0
   47.2030   31.4520   46.9070 C   0  0  0  0  0  0  0  0  0  0  0  0
   46.2000   29.7050   45.5190 C   0  0  0  0  0  0  0  0  0  0  0  0
   44.8430   29.2930   45.1610 C   0  0  0  0  0  0  0  0  0  0  0  0
   43.8920   28.6390   45.8950 C   0  0  0  0  0  0  0  0  0  0  0  0
   42.6460   28.3280   45.3910 C   0  0  0  0  0  0  0  0  0  0  0  0
   42.3320   28.6670   44.1430 N   0  0  0  0  0  0  0  0  0  0  0  0
   43.2750   29.3160   43.4110 C   0  0  0  0  0  0  0  0  0  0  0  0
   44.5090   29.6350   43.8820 N   0  0  0  0  0  0  0  0  0  0  0  0
   44.2177   35.1666   46.4513 H   0  0  0  0  0  0  0  0  0  0  0  0
   43.8444   36.9318   44.6922 H   0  0  0  0  0  0  0  0  0  0  0  0
   45.0747   36.7258   42.4813 H   0  0  0  0  0  0  0  0  0  0  0  0
   48.1561   33.8349   42.2325 H   0  0  0  0  0  0  0  0  0  0  0  0
   49.5705   31.5308   42.2771 H   0  0  0  0  0  0  0  0  0  0  0  0
   45.4233   31.7057   45.6085 H   0  0  0  0  0  0  0  0  0  0  0  0
   46.5688   31.2503   47.7828 H   0  0  0  0  0  0  0  0  0  0  0  0
   48.0801   30.7884   46.9288 H   0  0  0  0  0  0  0  0  0  0  0  0
   47.5357   32.5003   46.9288 H   0  0  0  0  0  0  0  0  0  0  0  0
   46.8888   29.3192   44.7530 H   0  0  0  0  0  0  0  0  0  0  0  0
   46.3953   29.2958   46.5212 H   0  0  0  0  0  0  0  0  0  0  0  0
   44.1303   28.3493   46.9290 H   0  0  0  0  0  0  0  0  0  0  0  0
   41.9133   27.8007   46.0196 H   0  0  0  0  0  0  0  0  0  0  0  0
   43.0251   29.5994   42.3779 H   0  0  0  0  0  0  0  0  0  0  0  0
  2  1  2  0
  3  2  1  0
  4  3  2  0
  4  5  1  0
  5  6  2  0
  6  1  1  0
  7  5  1  0
  7 11  1  0
  8  9  2  0
  8  7  1  0
  9 10  1  0
 10 11  2  0
 11 12  1  0
 12 13  1  0
 14 12  1  0
 15 14  1  0
 15 16  2  0
 17 16  1  0
 18 17  2  0
 19 20  2  0
 19 18  1  0
 20 15  1  0
  1 21  1  0
  2 22  1  0
  3 23  1  0
  8 24  1  0
  9 25  1  0
 12 26  1  1
 13 27  1  0
 13 28  1  0
 13 29  1  0
 14 30  1  0
 14 31  1  0
 16 32  1  0
 17 33  1  0
 19 34  1  0
M  ISO  8  21  14  22  14  23  14  24  14  25  14  26   8  27   8  28   8
M  ISO  6  29   8  30   8  31   8  32  14  33  14  34  14
M  END
>  <minimizedAffinity>  (1) 
-4.33494854

>  <minimizedRMSD>  (1) 
3.75639296

$$$$
