
     RDKit          3D

 20 21  0  0  0  0  0  0  0  0999 V2000
   44.7720   35.9050   44.0750 C   0  0  0  0  0  0  0  0  0  0  0  0
   45.6890   35.5410   43.0760 C   0  0  0  0  0  0  0  0  0  0  0  0
   46.5060   34.4310   43.3380 C   0  0  0  0  0  0  0  0  0  0  0  0
   46.3640   33.7880   44.5180 N   0  0  0  0  0  0  0  0  0  0  0  0
   45.4650   34.1730   45.4580 C   0  0  0  0  0  0  0  0  0  0  0  0
   44.6760   35.2260   45.2320 N   0  0  0  0  0  0  0  0  0  0  0  0
   45.3580   33.4390   46.7140 C   0  0  0  0  0  0  0  0  0  0  0  0
   44.5870   33.7700   47.6410 O   0  0  0  0  0  0  0  0  0  0  0  0
   46.2030   32.2440   46.9010 C   0  0  0  0  0  0  0  0  0  0  0  0
   47.3040   32.3520   47.7550 C   0  0  0  0  0  0  0  0  0  0  0  0
   48.0160   31.1730   47.8510 C   0  0  0  0  0  0  0  0  0  0  0  0
   47.7550   30.0090   47.2320 N   0  0  0  0  0  0  0  0  0  0  0  0
   46.6810   29.9800   46.4270 C   0  0  0  0  0  0  0  0  0  0  0  0
   45.9230   31.0900   46.2720 N   0  0  0  0  0  0  0  0  0  0  0  0
   44.1135   36.7699   43.9066 H   0  0  0  0  0  0  0  0  0  0  0  0
   45.7634   36.1002   42.1317 H   0  0  0  0  0  0  0  0  0  0  0  0
   47.2463   34.0914   42.5987 H   0  0  0  0  0  0  0  0  0  0  0  0
   47.5734   33.2739   48.2911 H   0  0  0  0  0  0  0  0  0  0  0  0
   48.8973   31.1881   48.5091 H   0  0  0  0  0  0  0  0  0  0  0  0
   46.4175   29.0546   45.8939 H   0  0  0  0  0  0  0  0  0  0  0  0
  1  6  2  0
  2  3  2  0
  2  1  1  0
  3  4  1  0
  4  5  2  0
  5  7  1  0
  6  5  1  0
  7  9  1  0
  7  8  2  0
  9 10  2  0
 10 11  1  0
 12 11  2  0
 13 12  1  0
 14 13  2  0
 14  9  1  0
  1 15  1  0
  2 16  1  0
  3 17  1  0
 10 18  1  0
 11 19  1  0
 13 20  1  0
M  ISO  6  15  14  16  14  17  14  18  14  19  14  20  14
M  END
>  <minimizedAffinity>  (1) 
-4.04156399

>  <minimizedRMSD>  (1) 
1.04497755

$$$$
