
     RDKit          3D

 18 19  0  0  0  0  0  0  0  0999 V2000
   44.7610   35.9410   44.0830 C   0  0  0  0  0  0  0  0  0  0  0  0
   45.6740   35.5730   43.0640 C   0  0  0  0  0  0  0  0  0  0  0  0
   46.4680   34.4590   43.3200 C   0  0  0  0  0  0  0  0  0  0  0  0
   46.3290   33.8080   44.4960 N   0  0  0  0  0  0  0  0  0  0  0  0
   45.4410   34.1950   45.4490 C   0  0  0  0  0  0  0  0  0  0  0  0
   44.6640   35.2550   45.2390 N   0  0  0  0  0  0  0  0  0  0  0  0
   45.3610   33.4330   46.6840 C   0  0  0  0  0  0  0  0  0  0  0  0
   44.5990   33.8060   47.6220 O   0  0  0  0  0  0  0  0  0  0  0  0
   46.1680   32.2020   46.8840 C   0  0  0  0  0  0  0  0  0  0  0  0
   47.3120   32.2680   47.7140 C   0  0  0  0  0  0  0  0  0  0  0  0
   47.9540   30.5820   47.6580 S   0  0  0  0  0  0  0  0  0  0  0  0
   46.5500   30.0280   46.4980 C   0  0  0  0  0  0  0  0  0  0  0  0
   45.9100   31.0350   46.3500 N   0  0  0  0  0  0  0  0  0  0  0  0
   44.1108   36.8142   43.9257 H   0  0  0  0  0  0  0  0  0  0  0  0
   45.7510   36.1366   42.1225 H   0  0  0  0  0  0  0  0  0  0  0  0
   47.1993   34.1129   42.5747 H   0  0  0  0  0  0  0  0  0  0  0  0
   47.7123   33.1350   48.2600 H   0  0  0  0  0  0  0  0  0  0  0  0
   46.3688   29.0316   46.0687 H   0  0  0  0  0  0  0  0  0  0  0  0
  1  6  2  0
  2  3  2  0
  2  1  1  0
  3  4  1  0
  4  5  2  0
  5  7  1  0
  6  5  1  0
  7  9  1  0
  7  8  2  0
  9 10  2  0
 11 10  1  0
 12 11  1  0
 13 12  2  0
 13  9  1  0
  1 14  1  0
  2 15  1  0
  3 16  1  0
 10 17  1  0
 12 18  1  0
M  ISO  5  14  14  15  14  16  14  17  14  18  14
M  END
>  <minimizedAffinity>  (1) 
-3.8477428

>  <minimizedRMSD>  (1) 
1.06588507

$$$$
