
     RDKit          3D

 30 32  0  0  0  0  0  0  0  0999 V2000
   47.3200   35.2830   41.9460 C   0  0  0  0  0  0  0  0  0  0  0  0
   47.6690   34.2190   40.9690 C   0  0  0  0  0  0  0  0  0  0  0  0
   46.8790   33.8750   39.9360 N   0  0  0  0  0  0  0  0  0  0  0  0
   47.2570   32.8890   39.1030 C   0  0  0  0  0  0  0  0  0  0  0  0
   48.4040   32.2210   39.2570 N   0  0  0  0  0  0  0  0  0  0  0  0
   49.2390   32.5180   40.2720 C   0  0  0  0  0  0  0  0  0  0  0  0
   50.4200   31.7950   40.3840 C   0  0  0  0  0  0  0  0  0  0  0  0
   51.2320   32.1440   41.4320 C   0  0  0  0  0  0  0  0  0  0  0  0
   50.9180   33.1540   42.3410 C   0  0  0  0  0  0  0  0  0  0  0  0
   49.7280   33.8190   42.1580 C   0  0  0  0  0  0  0  0  0  0  0  0
   48.8640   33.5270   41.1350 C   0  0  0  0  0  0  0  0  0  0  0  0
   45.8130   35.2100   42.1890 C   0  0  0  0  0  0  0  0  0  0  0  0
   44.5190   35.2570   45.7700 C   0  0  0  0  0  0  0  0  0  0  0  0
   44.7020   35.6490   44.4210 C   0  0  0  0  0  0  0  0  0  0  0  0
   45.5470   34.8990   43.6220 C   0  0  0  0  0  0  0  0  0  0  0  0
   46.1730   33.7990   44.1880 N   0  0  0  0  0  0  0  0  0  0  0  0
   45.9820   33.4500   45.4680 C   0  0  0  0  0  0  0  0  0  0  0  0
   45.1590   34.1780   46.2550 N   0  0  0  0  0  0  0  0  0  0  0  0
   47.5870   36.2691   41.5382 H   0  0  0  0  0  0  0  0  0  0  0  0
   47.8708   35.1393   42.8873 H   0  0  0  0  0  0  0  0  0  0  0  0
   46.5975   32.6226   38.2639 H   0  0  0  0  0  0  0  0  0  0  0  0
   50.6862   30.9947   39.6778 H   0  0  0  0  0  0  0  0  0  0  0  0
   52.1791   31.5999   41.5625 H   0  0  0  0  0  0  0  0  0  0  0  0
   51.5943   33.4084   43.1704 H   0  0  0  0  0  0  0  0  0  0  0  0
   49.4583   34.6193   42.8628 H   0  0  0  0  0  0  0  0  0  0  0  0
   45.3548   36.1770   41.9341 H   0  0  0  0  0  0  0  0  0  0  0  0
   45.3816   34.4178   41.5594 H   0  0  0  0  0  0  0  0  0  0  0  0
   43.8509   35.8373   46.4233 H   0  0  0  0  0  0  0  0  0  0  0  0
   44.1833   36.5310   44.0172 H   0  0  0  0  0  0  0  0  0  0  0  0
   46.4964   32.5688   45.8790 H   0  0  0  0  0  0  0  0  0  0  0  0
  1 12  1  0
  2 11  1  0
  2  1  1  0
  3  2  2  0
  4  5  2  0
  4  3  1  0
  5  6  1  0
  6  7  1  0
  6 11  2  0
  7  8  2  0
  8  9  1  0
 10  9  2  0
 11 10  1  0
 12 15  1  0
 13 18  2  0
 14 13  1  0
 15 16  1  0
 15 14  2  0
 16 17  2  0
 17 18  1  0
  1 19  1  0
  1 20  1  0
  4 21  1  0
  7 22  1  0
  8 23  1  0
  9 24  1  0
 10 25  1  0
 12 26  1  0
 12 27  1  0
 13 28  1  0
 14 29  1  0
 17 30  1  0
M  ISO  8  19   8  20   8  21  14  22  14  23  14  24  14  25  14  26   8
M  ISO  4  27   8  28  14  29  14  30  14
M  END
>  <minimizedAffinity>  (1) 
-4.99968052

>  <minimizedRMSD>  (1) 
1.80154419

$$$$
