
     RDKit          3D

 19 20  0  0  0  0  0  0  0  0999 V2000
   44.6840   36.0140   44.2710 C   0  0  0  0  0  0  0  0  0  0  0  0
   45.5220   35.7350   43.1810 C   0  0  0  0  0  0  0  0  0  0  0  0
   46.3420   34.5930   43.2810 C   0  0  0  0  0  0  0  0  0  0  0  0
   46.2640   33.8540   44.4100 N   0  0  0  0  0  0  0  0  0  0  0  0
   45.4540   34.1440   45.4360 C   0  0  0  0  0  0  0  0  0  0  0  0
   44.6710   35.2180   45.3640 N   0  0  0  0  0  0  0  0  0  0  0  0
   45.4390   33.2890   46.6090 C   0  0  0  0  0  0  0  0  0  0  0  0
   44.7730   33.5480   47.6570 O   0  0  0  0  0  0  0  0  0  0  0  0
   46.2170   32.0540   46.6310 C   0  0  0  0  0  0  0  0  0  0  0  0
   47.3870   31.8660   47.3570 C   0  0  0  0  0  0  0  0  0  0  0  0
   47.7540   30.5480   47.0620 C   0  0  0  0  0  0  0  0  0  0  0  0
   46.8340   30.0320   46.2160 N   0  0  0  0  0  0  0  0  0  0  0  0
   45.9180   30.9240   45.9580 N   0  0  0  0  0  0  0  0  0  0  0  0
   44.0264   36.8951   44.2359 H   0  0  0  0  0  0  0  0  0  0  0  0
   45.5384   36.3783   42.2889 H   0  0  0  0  0  0  0  0  0  0  0  0
   47.0244   34.3118   42.4654 H   0  0  0  0  0  0  0  0  0  0  0  0
   47.9035   32.5846   48.0103 H   0  0  0  0  0  0  0  0  0  0  0  0
   48.6385   30.0225   47.4513 H   0  0  0  0  0  0  0  0  0  0  0  0
   46.8536   29.0764   45.8323 H   0  0  0  0  0  0  0  0  0  0  0  0
  1  6  2  0
  2  3  2  0
  2  1  1  0
  3  4  1  0
  4  5  2  0
  5  7  1  0
  6  5  1  0
  7  9  1  0
  7  8  2  0
  9 10  1  0
 11 10  2  0
 12 11  1  0
 13 12  1  0
 13  9  2  0
  1 14  1  0
  2 15  1  0
  3 16  1  0
 10 17  1  0
 11 18  1  0
 12 19  1  0
M  ISO  6  14  14  15  14  16  14  17  14  18  14  19   9
M  END
>  <minimizedAffinity>  (1) 
-3.89207649

>  <minimizedRMSD>  (1) 
0.928624332

$$$$
