
     RDKit          3D

 35 38  0  0  0  0  0  0  0  0999 V2000
   45.8700   32.2590   46.9540 C   0  0  0  0  0  0  0  0  0  0  0  0
   47.0540   32.2140   47.6630 C   0  0  0  0  0  0  0  0  0  0  0  0
   47.5640   31.0090   48.1370 C   0  0  0  0  0  0  0  0  0  0  0  0
   46.8620   29.8300   47.8890 C   0  0  0  0  0  0  0  0  0  0  0  0
   45.6700   29.8960   47.1730 C   0  0  0  0  0  0  0  0  0  0  0  0
   45.2260   31.0950   46.7380 N   0  0  0  0  0  0  0  0  0  0  0  0
   44.8970   28.7360   46.8790 N   0  0  0  0  0  0  0  0  0  0  0  0
   44.3680   28.6500   45.6230 C   0  0  0  0  0  0  0  0  0  0  0  0
   43.6670   27.4980   45.5070 N   0  0  0  0  0  0  0  0  0  0  0  0
   43.7570   26.8740   46.6740 C   0  0  0  0  0  0  0  0  0  0  0  0
   43.2820   25.6750   47.2170 C   0  0  0  0  0  0  0  0  0  0  0  0
   42.5760   24.9190   46.4980 O   0  0  0  0  0  0  0  0  0  0  0  0
   43.5980   25.3680   48.5020 N   0  0  0  0  0  0  0  0  0  0  0  0
   44.3520   26.1600   49.2940 C   0  0  0  0  0  0  0  0  0  0  0  0
   44.5580   25.6430   50.6030 N   0  0  0  0  0  0  0  0  0  0  0  0
   44.8300   27.3350   48.7920 N   0  0  0  0  0  0  0  0  0  0  0  0
   44.5210   27.6430   47.5260 C   0  0  0  0  0  0  0  0  0  0  0  0
   45.3750   33.5480   46.4770 C   0  0  0  0  0  0  0  0  0  0  0  0
   44.6260   34.1820   47.2800 O   0  0  0  0  0  0  0  0  0  0  0  0
   45.3470   35.4820   43.3700 C   0  0  0  0  0  0  0  0  0  0  0  0
   46.4530   34.9710   42.6600 C   0  0  0  0  0  0  0  0  0  0  0  0
   47.1800   33.9560   43.2950 C   0  0  0  0  0  0  0  0  0  0  0  0
   46.7930   33.5290   44.5290 N   0  0  0  0  0  0  0  0  0  0  0  0
   45.7310   34.0480   45.1660 C   0  0  0  0  0  0  0  0  0  0  0  0
   45.0280   35.0120   44.5810 N   0  0  0  0  0  0  0  0  0  0  0  0
   47.6037   33.1469   47.8566 H   0  0  0  0  0  0  0  0  0  0  0  0
   48.5087   30.9869   48.7000 H   0  0  0  0  0  0  0  0  0  0  0  0
   47.2435   28.8645   48.2528 H   0  0  0  0  0  0  0  0  0  0  0  0
   44.4923   29.4007   44.8286 H   0  0  0  0  0  0  0  0  0  0  0  0
   43.2434   24.4836   48.8931 H   0  0  0  0  0  0  0  0  0  0  0  0
   45.1204   26.1734   51.2836 H   0  0  0  0  0  0  0  0  0  0  0  0
   44.1448   24.7382   50.8703 H   0  0  0  0  0  0  0  0  0  0  0  0
   44.7370   36.2796   42.9209 H   0  0  0  0  0  0  0  0  0  0  0  0
   46.7291   35.3480   41.6642 H   0  0  0  0  0  0  0  0  0  0  0  0
   48.0552   33.5080   42.8017 H   0  0  0  0  0  0  0  0  0  0  0  0
  1  2  2  0
  2  3  1  0
  4  3  2  0
  5  4  1  0
  6  1  1  0
  6  5  2  0
  7  5  1  0
  7 17  1  0
  8  7  1  0
  9  8  2  0
  9 10  1  0
 10 11  1  0
 10 17  2  0
 11 13  1  0
 12 11  2  0
 13 14  1  0
 14 15  1  0
 16 14  2  0
 17 16  1  0
 18  1  1  0
 18 19  2  0
 20 25  2  0
 21 22  2  0
 21 20  1  0
 22 23  1  0
 23 24  2  0
 24 18  1  0
 25 24  1  0
  2 26  1  0
  3 27  1  0
  4 28  1  0
  8 29  1  0
 13 30  1  0
 15 31  1  0
 15 32  1  0
 20 33  1  0
 21 34  1  0
 22 35  1  0
M  ISO  8  26  14  27  14  28  14  29  14  30   9  33  14  34  14  35  14
M  END
>  <minimizedAffinity>  (1) 
-6.4620204

>  <minimizedRMSD>  (1) 
1.45191276

$$$$
