
     RDKit          3D

 31 33  0  0  0  0  0  0  0  0999 V2000
   46.1670   32.2350   47.2110 C   0  0  0  0  0  0  0  0  0  0  0  0
   47.3680   32.4340   47.8810 C   0  0  0  0  0  0  0  0  0  0  0  0
   48.1180   31.3340   48.3300 C   0  0  0  0  0  0  0  0  0  0  0  0
   47.6530   30.0500   48.1000 C   0  0  0  0  0  0  0  0  0  0  0  0
   46.4530   29.8890   47.4290 C   0  0  0  0  0  0  0  0  0  0  0  0
   45.7770   30.9650   47.0230 N   0  0  0  0  0  0  0  0  0  0  0  0
   45.8240   28.6510   47.1050 N   0  0  0  0  0  0  0  0  0  0  0  0
   44.5410   28.7300   46.6450 C   0  0  0  0  0  0  0  0  0  0  0  0
   43.8930   27.5370   46.3180 C   0  0  0  0  0  0  0  0  0  0  0  0
   44.6030   26.3850   46.4870 C   0  0  0  0  0  0  0  0  0  0  0  0
   43.9690   25.3210   46.1760 O   0  0  0  0  0  0  0  0  0  0  0  0
   45.8570   26.2790   46.9350 N   0  0  0  0  0  0  0  0  0  0  0  0
   46.4420   27.4470   47.2370 C   0  0  0  0  0  0  0  0  0  0  0  0
   47.6090   27.5400   47.6690 O   0  0  0  0  0  0  0  0  0  0  0  0
   45.4210   33.3980   46.7620 C   0  0  0  0  0  0  0  0  0  0  0  0
   44.5740   33.8650   47.5650 O   0  0  0  0  0  0  0  0  0  0  0  0
   45.1110   35.5050   43.7670 C   0  0  0  0  0  0  0  0  0  0  0  0
   46.1550   35.0310   42.9460 C   0  0  0  0  0  0  0  0  0  0  0  0
   46.9270   34.0030   43.4520 C   0  0  0  0  0  0  0  0  0  0  0  0
   46.6610   33.4980   44.6920 N   0  0  0  0  0  0  0  0  0  0  0  0
   45.6510   33.9770   45.4540 C   0  0  0  0  0  0  0  0  0  0  0  0
   44.9080   34.9620   44.9730 N   0  0  0  0  0  0  0  0  0  0  0  0
   47.7328   33.4561   48.0605 H   0  0  0  0  0  0  0  0  0  0  0  0
   49.0685   31.4917   48.8608 H   0  0  0  0  0  0  0  0  0  0  0  0
   48.2256   29.1758   48.4435 H   0  0  0  0  0  0  0  0  0  0  0  0
   44.0349   29.7005   46.5357 H   0  0  0  0  0  0  0  0  0  0  0  0
   42.8593   27.5270   45.9421 H   0  0  0  0  0  0  0  0  0  0  0  0
   46.3358   25.3731   47.0400 H   0  0  0  0  0  0  0  0  0  0  0  0
   44.4631   36.3216   43.4158 H   0  0  0  0  0  0  0  0  0  0  0  0
   46.3455   35.4591   41.9508 H   0  0  0  0  0  0  0  0  0  0  0  0
   47.7552   33.5918   42.8562 H   0  0  0  0  0  0  0  0  0  0  0  0
  1  2  2  0
  2  3  1  0
  4  3  2  0
  5  4  1  0
  6  1  1  0
  6  5  2  0
  7 13  1  0
  7  5  1  0
  8  7  1  0
  9 10  1  0
  9  8  2  0
 10 12  1  0
 11 10  2  0
 12 13  1  0
 13 14  2  0
 15  1  1  0
 15 16  2  0
 17 22  2  0
 18 19  2  0
 18 17  1  0
 19 20  1  0
 20 21  2  0
 21 15  1  0
 22 21  1  0
  2 23  1  0
  3 24  1  0
  4 25  1  0
  8 26  1  0
  9 27  1  0
 12 28  1  0
 17 29  1  0
 18 30  1  0
 19 31  1  0
M  ISO  8  23  14  24  14  25  14  26  14  27  14  28   9  29  14  30  14
M  ISO  1  31  14
M  END
>  <minimizedAffinity>  (1) 
-5.36076593

>  <minimizedRMSD>  (1) 
0.556033313

$$$$
