
     RDKit          3D

 35 38  0  0  0  0  0  0  0  0999 V2000
   46.2630   32.2140   47.2230 C   0  0  0  0  0  0  0  0  0  0  0  0
   47.4150   32.4370   47.9390 C   0  0  0  0  0  0  0  0  0  0  0  0
   48.1630   31.3370   48.3980 C   0  0  0  0  0  0  0  0  0  0  0  0
   47.7390   30.0470   48.1260 C   0  0  0  0  0  0  0  0  0  0  0  0
   46.5680   29.8430   47.3980 C   0  0  0  0  0  0  0  0  0  0  0  0
   45.9610   30.9500   47.0280 N   0  0  0  0  0  0  0  0  0  0  0  0
   46.2380   28.4400   47.1990 C   0  0  0  0  0  0  0  0  0  0  0  0
   47.0660   27.4560   47.5760 N   0  0  0  0  0  0  0  0  0  0  0  0
   46.8420   26.1470   47.4340 C   0  0  0  0  0  0  0  0  0  0  0  0
   45.6790   25.7200   46.8590 N   0  0  0  0  0  0  0  0  0  0  0  0
   44.7770   26.6320   46.4450 C   0  0  0  0  0  0  0  0  0  0  0  0
   43.6180   26.1800   45.8710 C   0  0  0  0  0  0  0  0  0  0  0  0
   42.6610   27.1000   45.4310 C   0  0  0  0  0  0  0  0  0  0  0  0
   42.9530   28.4560   45.6060 C   0  0  0  0  0  0  0  0  0  0  0  0
   44.1420   28.8260   46.1920 C   0  0  0  0  0  0  0  0  0  0  0  0
   45.0880   27.9410   46.6280 C   0  0  0  0  0  0  0  0  0  0  0  0
   45.4820   33.3350   46.7500 C   0  0  0  0  0  0  0  0  0  0  0  0
   44.5930   33.7780   47.5420 O   0  0  0  0  0  0  0  0  0  0  0  0
   45.1550   35.4360   43.7600 C   0  0  0  0  0  0  0  0  0  0  0  0
   46.1820   34.9840   42.9330 C   0  0  0  0  0  0  0  0  0  0  0  0
   46.9700   33.9490   43.4460 C   0  0  0  0  0  0  0  0  0  0  0  0
   46.7170   33.4430   44.6780 N   0  0  0  0  0  0  0  0  0  0  0  0
   45.7100   33.9160   45.4400 C   0  0  0  0  0  0  0  0  0  0  0  0
   44.9330   34.9040   44.9880 N   0  0  0  0  0  0  0  0  0  0  0  0
   47.7484   33.4637   48.1508 H   0  0  0  0  0  0  0  0  0  0  0  0
   49.0857   31.5020   48.9736 H   0  0  0  0  0  0  0  0  0  0  0  0
   48.3241   29.1867   48.4831 H   0  0  0  0  0  0  0  0  0  0  0  0
   47.5897   25.4172   47.7781 H   0  0  0  0  0  0  0  0  0  0  0  0
   43.4413   25.1003   45.7569 H   0  0  0  0  0  0  0  0  0  0  0  0
   41.7193   26.7710   44.9673 H   0  0  0  0  0  0  0  0  0  0  0  0
   42.2363   29.2230   45.2771 H   0  0  0  0  0  0  0  0  0  0  0  0
   44.3434   29.9001   46.3172 H   0  0  0  0  0  0  0  0  0  0  0  0
   44.5044   36.2492   43.4059 H   0  0  0  0  0  0  0  0  0  0  0  0
   46.3617   35.4153   41.9372 H   0  0  0  0  0  0  0  0  0  0  0  0
   47.7989   33.5436   42.8472 H   0  0  0  0  0  0  0  0  0  0  0  0
  1  2  2  0
  2  3  1  0
  4  3  2  0
  5  4  1  0
  6  1  1  0
  6  5  2  0
  7  5  1  0
  7  8  2  0
  9  8  1  0
 10  9  2  0
 11 16  2  0
 11 10  1  0
 12 11  1  0
 13 14  1  0
 13 12  2  0
 14 15  2  0
 15 16  1  0
 16  7  1  0
 17  1  1  0
 17 18  2  0
 19 24  2  0
 20 21  2  0
 20 19  1  0
 21 22  1  0
 22 23  2  0
 23 17  1  0
 24 23  1  0
  2 25  1  0
  3 26  1  0
  4 27  1  0
  9 28  1  0
 12 29  1  0
 13 30  1  0
 14 31  1  0
 15 32  1  0
 19 33  1  0
 20 34  1  0
 21 35  1  0
M  ISO  8  25  14  26  14  27  14  28  14  29  14  30  14  31  14  32  14
M  ISO  3  33  14  34  14  35  14
M  END
>  <minimizedAffinity>  (1) 
-5.52420998

>  <minimizedRMSD>  (1) 
0.817758381

$$$$
