
     RDKit          3D

 26 27  0  0  0  0  0  0  0  0999 V2000
   46.4910   34.5910   41.8000 C   0  0  0  0  0  0  0  0  0  0  0  0
   44.5130   35.9450   44.7470 C   0  0  0  0  0  0  0  0  0  0  0  0
   45.0420   35.8580   43.4610 C   0  0  0  0  0  0  0  0  0  0  0  0
   45.8770   34.7700   43.1550 C   0  0  0  0  0  0  0  0  0  0  0  0
   46.1240   33.8520   44.1440 N   0  0  0  0  0  0  0  0  0  0  0  0
   45.5860   33.9840   45.3730 C   0  0  0  0  0  0  0  0  0  0  0  0
   44.7870   35.0240   45.6700 N   0  0  0  0  0  0  0  0  0  0  0  0
   47.8720   35.2570   41.7760 C   0  0  0  0  0  0  0  0  0  0  0  0
   48.8580   34.2320   41.5230 N   0  0  0  0  0  0  0  0  0  0  0  0
   49.7540   34.0940   42.5440 C   0  0  0  0  0  0  0  0  0  0  0  0
   50.7820   33.1580   42.4880 C   0  0  0  0  0  0  0  0  0  0  0  0
   50.8390   32.3740   41.3340 C   0  0  0  0  0  0  0  0  0  0  0  0
   51.7350   31.4970   41.1890 O   0  0  0  0  0  0  0  0  0  0  0  0
   49.9330   32.5420   40.3450 N   0  0  0  0  0  0  0  0  0  0  0  0
   48.9440   33.4610   40.4260 C   0  0  0  0  0  0  0  0  0  0  0  0
   48.0790   33.6540   39.5360 O   0  0  0  0  0  0  0  0  0  0  0  0
   46.5971   33.5177   41.5838 H   0  0  0  0  0  0  0  0  0  0  0  0
   45.8456   35.0547   41.0394 H   0  0  0  0  0  0  0  0  0  0  0  0
   43.8571   36.7895   45.0050 H   0  0  0  0  0  0  0  0  0  0  0  0
   44.8117   36.6221   42.7040 H   0  0  0  0  0  0  0  0  0  0  0  0
   45.8037   33.2302   46.1439 H   0  0  0  0  0  0  0  0  0  0  0  0
   47.9075   36.0140   40.9787 H   0  0  0  0  0  0  0  0  0  0  0  0
   48.0739   35.7523   42.7372 H   0  0  0  0  0  0  0  0  0  0  0  0
   49.6610   34.7376   43.4312 H   0  0  0  0  0  0  0  0  0  0  0  0
   51.5082   33.0423   43.3060 H   0  0  0  0  0  0  0  0  0  0  0  0
   49.9978   31.9517   39.5034 H   0  0  0  0  0  0  0  0  0  0  0  0
  1  4  1  0
  2  7  2  0
  3  2  1  0
  4  3  2  0
  4  5  1  0
  5  6  2  0
  6  7  1  0
  8  1  1  0
  9  8  1  0
  9 10  1  0
 11 10  2  0
 12 11  1  0
 13 12  2  0
 14 15  1  0
 14 12  1  0
 15  9  1  0
 16 15  2  0
  1 17  1  0
  1 18  1  0
  2 19  1  0
  3 20  1  0
  6 21  1  0
  8 22  1  0
  8 23  1  0
 10 24  1  0
 11 25  1  0
 14 26  1  0
M  ISO  8  17   8  18   8  19  14  20  14  21  14  22   8  23   8  24  14
M  ISO  2  25  14  26   9
M  END
>  <minimizedAffinity>  (1) 
-4.78522348

>  <minimizedRMSD>  (1) 
2.44637203

$$$$
