
     RDKit          3D

 36 38  0  0  0  0  0  0  0  0999 V2000
   46.2770   32.2330   47.2550 C   0  0  0  0  0  0  0  0  0  0  0  0
   47.4360   32.5100   47.9760 C   0  0  0  0  0  0  0  0  0  0  0  0
   48.2050   31.4480   48.4850 C   0  0  0  0  0  0  0  0  0  0  0  0
   47.8110   30.1310   48.2730 C   0  0  0  0  0  0  0  0  0  0  0  0
   46.6490   29.8970   47.5500 C   0  0  0  0  0  0  0  0  0  0  0  0
   45.9580   30.9420   47.0890 N   0  0  0  0  0  0  0  0  0  0  0  0
   46.1920   28.5760   47.2970 N   0  0  0  0  0  0  0  0  0  0  0  0
   44.7740   28.2500   47.1440 C   0  0  0  0  0  0  0  0  0  0  0  0
   44.5720   26.9570   47.9450 C   0  0  0  0  0  0  0  0  0  0  0  0
   45.2620   25.8630   47.1580 C   0  0  0  0  0  0  0  0  0  0  0  0
   46.4290   26.4040   46.3610 C   0  0  0  0  0  0  0  0  0  0  0  0
   47.1470   27.4840   47.1810 C   0  0  0  0  0  0  0  0  0  0  0  0
   45.4990   33.3460   46.7380 C   0  0  0  0  0  0  0  0  0  0  0  0
   44.6030   33.7990   47.5040 O   0  0  0  0  0  0  0  0  0  0  0  0
   45.2310   35.3520   43.6750 C   0  0  0  0  0  0  0  0  0  0  0  0
   46.2860   34.8770   42.8970 C   0  0  0  0  0  0  0  0  0  0  0  0
   47.0660   33.8750   43.4470 C   0  0  0  0  0  0  0  0  0  0  0  0
   46.7790   33.4050   44.6940 N   0  0  0  0  0  0  0  0  0  0  0  0
   45.7620   33.8800   45.4150 C   0  0  0  0  0  0  0  0  0  0  0  0
   44.9900   34.8500   44.9090 N   0  0  0  0  0  0  0  0  0  0  0  0
   47.7475   33.5512   48.1460 H   0  0  0  0  0  0  0  0  0  0  0  0
   49.1225   31.6600   49.0535 H   0  0  0  0  0  0  0  0  0  0  0  0
   48.4059   29.2947   48.6688 H   0  0  0  0  0  0  0  0  0  0  0  0
   44.1463   29.0573   47.5493 H   0  0  0  0  0  0  0  0  0  0  0  0
   44.4907   28.1290   46.0880 H   0  0  0  0  0  0  0  0  0  0  0  0
   45.0238   27.0520   48.9434 H   0  0  0  0  0  0  0  0  0  0  0  0
   43.5040   26.7361   48.0886 H   0  0  0  0  0  0  0  0  0  0  0  0
   45.6308   25.0981   47.8572 H   0  0  0  0  0  0  0  0  0  0  0  0
   44.5340   25.4326   46.4546 H   0  0  0  0  0  0  0  0  0  0  0  0
   47.1302   25.5870   46.1358 H   0  0  0  0  0  0  0  0  0  0  0  0
   46.0618   26.8396   45.4200 H   0  0  0  0  0  0  0  0  0  0  0  0
   47.4142   27.0984   48.1760 H   0  0  0  0  0  0  0  0  0  0  0  0
   48.0835   27.8071   46.7030 H   0  0  0  0  0  0  0  0  0  0  0  0
   44.5834   36.1483   43.2794 H   0  0  0  0  0  0  0  0  0  0  0  0
   46.4887   35.2796   41.8936 H   0  0  0  0  0  0  0  0  0  0  0  0
   47.9130   33.4600   42.8810 H   0  0  0  0  0  0  0  0  0  0  0  0
  1  2  2  0
  2  3  1  0
  4  3  2  0
  5  4  1  0
  6  1  1  0
  6  5  2  0
  7  5  1  0
  8  7  1  0
  8  9  1  0
 10  9  1  0
 11 10  1  0
 11 12  1  0
 12  7  1  0
 13  1  1  0
 13 14  2  0
 15 20  2  0
 16 17  2  0
 16 15  1  0
 17 18  1  0
 18 19  2  0
 19 13  1  0
 20 19  1  0
  2 21  1  0
  3 22  1  0
  4 23  1  0
  8 24  1  0
  8 25  1  0
  9 26  1  0
  9 27  1  0
 10 28  1  0
 10 29  1  0
 11 30  1  0
 11 31  1  0
 12 32  1  0
 12 33  1  0
 15 34  1  0
 16 35  1  0
 17 36  1  0
M  ISO  8  21  14  22  14  23  14  24  13  25  13  26  13  27  13  28  13
M  ISO  8  29  13  30  13  31  13  32  13  33  13  34  14  35  14  36  14
M  END
>  <minimizedAffinity>  (1) 
-5.11065531

>  <minimizedRMSD>  (1) 
0.466076165

$$$$
