
     RDKit          3D

 28 29  0  0  0  0  0  0  0  0999 V2000
   46.2670   32.2250   47.2880 C   0  0  0  0  0  0  0  0  0  0  0  0
   47.4390   32.4840   47.9740 C   0  0  0  0  0  0  0  0  0  0  0  0
   48.2150   31.4460   48.4720 C   0  0  0  0  0  0  0  0  0  0  0  0
   47.8130   30.1350   48.2780 C   0  0  0  0  0  0  0  0  0  0  0  0
   46.6330   29.8930   47.5860 C   0  0  0  0  0  0  0  0  0  0  0  0
   45.9340   30.9400   47.1340 N   0  0  0  0  0  0  0  0  0  0  0  0
   46.0790   28.5960   47.3010 N   0  0  0  0  0  0  0  0  0  0  0  0
   44.7480   28.3910   46.8720 C   0  0  0  0  0  0  0  0  0  0  0  0
   44.1640   29.4310   46.3300 N   0  0  0  0  0  0  0  0  0  0  0  0
   44.1810   27.0830   47.0720 N   0  0  0  0  0  0  0  0  0  0  0  0
   43.1770   29.3510   45.9900 H   0  0  0  0  0  0  0  0  0  0  0  0
   45.4790   33.3390   46.7810 C   0  0  0  0  0  0  0  0  0  0  0  0
   44.5800   33.7910   47.5510 O   0  0  0  0  0  0  0  0  0  0  0  0
   45.1840   35.3850   43.7520 C   0  0  0  0  0  0  0  0  0  0  0  0
   46.2300   34.9110   42.9540 C   0  0  0  0  0  0  0  0  0  0  0  0
   47.0080   33.8990   43.4830 C   0  0  0  0  0  0  0  0  0  0  0  0
   46.7320   33.4140   44.7320 N   0  0  0  0  0  0  0  0  0  0  0  0
   45.7130   33.8960   45.4760 C   0  0  0  0  0  0  0  0  0  0  0  0
   44.9710   34.8650   44.9650 N   0  0  0  0  0  0  0  0  0  0  0  0
   47.7605   33.5248   48.1271 H   0  0  0  0  0  0  0  0  0  0  0  0
   49.1447   31.6639   49.0181 H   0  0  0  0  0  0  0  0  0  0  0  0
   48.4168   29.3008   48.6647 H   0  0  0  0  0  0  0  0  0  0  0  0
   46.6857   27.7716   47.4159 H   0  0  0  0  0  0  0  0  0  0  0  0
   43.2141   26.8898   46.7742 H   0  0  0  0  0  0  0  0  0  0  0  0
   44.7422   26.3403   47.5129 H   0  0  0  0  0  0  0  0  0  0  0  0
   44.5331   36.1898   43.3797 H   0  0  0  0  0  0  0  0  0  0  0  0
   46.4241   35.3240   41.9531 H   0  0  0  0  0  0  0  0  0  0  0  0
   47.8456   33.4852   42.9024 H   0  0  0  0  0  0  0  0  0  0  0  0
  1  2  2  0
  2  3  1  0
  4  3  2  0
  5  4  1  0
  6  1  1  0
  6  5  2  0
  7  5  1  0
  8 10  1  0
  8  7  1  0
  9  8  2  0
 11  9  1  0
 12  1  1  0
 12 13  2  0
 14 19  2  0
 15 16  2  0
 15 14  1  0
 16 17  1  0
 17 18  2  0
 18 12  1  0
 19 18  1  0
  2 20  1  0
  3 21  1  0
  4 22  1  0
  7 23  1  0
 10 24  1  0
 10 25  1  0
 14 26  1  0
 15 27  1  0
 16 28  1  0
M  ISO  6  20  14  21  14  22  14  26  14  27  14  28  14
M  END
>  <minimizedAffinity>  (1) 
-5.10916281

>  <minimizedRMSD>  (1) 
0.418668628

$$$$
