
     RDKit          3D

 28 30  0  0  0  0  0  0  0  0999 V2000
   45.9630   32.3920   47.0400 C   0  0  0  0  0  0  0  0  0  0  0  0
   47.2160   32.4820   47.6620 C   0  0  0  0  0  0  0  0  0  0  0  0
   47.8450   31.3420   48.1750 C   0  0  0  0  0  0  0  0  0  0  0  0
   47.1970   30.1010   48.0570 C   0  0  0  0  0  0  0  0  0  0  0  0
   45.9510   30.0460   47.4320 C   0  0  0  0  0  0  0  0  0  0  0  0
   45.4230   31.1770   46.9720 N   0  0  0  0  0  0  0  0  0  0  0  0
   45.2020   28.8460   47.2550 N   0  0  0  0  0  0  0  0  0  0  0  0
   45.1550   27.7310   47.9900 N   0  0  0  0  0  0  0  0  0  0  0  0
   44.3120   26.8460   47.4560 C   0  0  0  0  0  0  0  0  0  0  0  0
   43.7830   27.4340   46.3010 C   0  0  0  0  0  0  0  0  0  0  0  0
   44.3640   28.7020   46.1970 C   0  0  0  0  0  0  0  0  0  0  0  0
   45.3550   33.6000   46.5260 C   0  0  0  0  0  0  0  0  0  0  0  0
   44.5400   34.1850   47.2980 O   0  0  0  0  0  0  0  0  0  0  0  0
   45.2760   35.5300   43.4090 C   0  0  0  0  0  0  0  0  0  0  0  0
   46.3450   35.0010   42.6760 C   0  0  0  0  0  0  0  0  0  0  0  0
   47.0740   33.9740   43.2880 C   0  0  0  0  0  0  0  0  0  0  0  0
   46.7150   33.5540   44.5360 N   0  0  0  0  0  0  0  0  0  0  0  0
   45.6750   34.0940   45.2090 C   0  0  0  0  0  0  0  0  0  0  0  0
   44.9870   35.0630   44.6280 N   0  0  0  0  0  0  0  0  0  0  0  0
   47.7109   33.4606   47.7479 H   0  0  0  0  0  0  0  0  0  0  0  0
   48.8287   31.4162   48.6617 H   0  0  0  0  0  0  0  0  0  0  0  0
   47.6649   29.1869   48.4513 H   0  0  0  0  0  0  0  0  0  0  0  0
   44.0773   25.8454   47.8482 H   0  0  0  0  0  0  0  0  0  0  0  0
   43.0532   26.9864   45.6103 H   0  0  0  0  0  0  0  0  0  0  0  0
   44.1769   29.4434   45.4062 H   0  0  0  0  0  0  0  0  0  0  0  0
   44.6674   36.3384   42.9775 H   0  0  0  0  0  0  0  0  0  0  0  0
   46.5989   35.3725   41.6722 H   0  0  0  0  0  0  0  0  0  0  0  0
   47.9262   33.5111   42.7689 H   0  0  0  0  0  0  0  0  0  0  0  0
  1  2  2  0
  2  3  1  0
  4  3  2  0
  5  4  1  0
  6  1  1  0
  6  5  2  0
  7  5  1  0
  7  8  1  0
  9  8  2  0
 10  9  1  0
 11 10  2  0
 11  7  1  0
 12  1  1  0
 12 13  2  0
 14 19  2  0
 15 16  2  0
 15 14  1  0
 16 17  1  0
 17 18  2  0
 18 12  1  0
 19 18  1  0
  2 20  1  0
  3 21  1  0
  4 22  1  0
  9 23  1  0
 10 24  1  0
 11 25  1  0
 14 26  1  0
 15 27  1  0
 16 28  1  0
M  ISO  8  20  14  21  14  22  14  23  14  24  14  25  14  26  14  27  14
M  ISO  1  28  14
M  END
>  <minimizedAffinity>  (1) 
-5.07055283

>  <minimizedRMSD>  (1) 
0.922750354

$$$$
