
     RDKit          3D

 29 31  0  0  0  0  0  0  0  0999 V2000
   46.2080   32.2980   47.2080 C   0  0  0  0  0  0  0  0  0  0  0  0
   47.3710   32.5400   47.9080 C   0  0  0  0  0  0  0  0  0  0  0  0
   48.1160   31.4790   48.4290 C   0  0  0  0  0  0  0  0  0  0  0  0
   47.6660   30.1720   48.2320 C   0  0  0  0  0  0  0  0  0  0  0  0
   46.4960   29.9640   47.5250 C   0  0  0  0  0  0  0  0  0  0  0  0
   45.8230   31.0140   47.0490 N   0  0  0  0  0  0  0  0  0  0  0  0
   46.0240   28.5980   47.3170 C   0  0  0  0  0  0  0  0  0  0  0  0
   44.7030   28.3680   46.9840 C   0  0  0  0  0  0  0  0  0  0  0  0
   44.3770   27.0370   46.8130 C   0  0  0  0  0  0  0  0  0  0  0  0
   45.2360   26.0100   46.9480 N   0  0  0  0  0  0  0  0  0  0  0  0
   46.5230   26.2900   47.2770 C   0  0  0  0  0  0  0  0  0  0  0  0
   46.8790   27.5740   47.4510 N   0  0  0  0  0  0  0  0  0  0  0  0
   45.4580   33.4410   46.6790 C   0  0  0  0  0  0  0  0  0  0  0  0
   44.5900   33.9310   47.4270 O   0  0  0  0  0  0  0  0  0  0  0  0
   45.2350   35.4010   43.5850 C   0  0  0  0  0  0  0  0  0  0  0  0
   46.3010   34.8900   42.8090 C   0  0  0  0  0  0  0  0  0  0  0  0
   47.0620   33.8860   43.3800 C   0  0  0  0  0  0  0  0  0  0  0  0
   46.7660   33.4410   44.6300 N   0  0  0  0  0  0  0  0  0  0  0  0
   45.7420   33.9500   45.3430 C   0  0  0  0  0  0  0  0  0  0  0  0
   44.9930   34.9160   44.8190 N   0  0  0  0  0  0  0  0  0  0  0  0
   47.7143   33.5744   48.0571 H   0  0  0  0  0  0  0  0  0  0  0  0
   49.0445   31.6708   48.9868 H   0  0  0  0  0  0  0  0  0  0  0  0
   48.2341   29.3199   48.6335 H   0  0  0  0  0  0  0  0  0  0  0  0
   43.9701   29.1796   46.8647 H   0  0  0  0  0  0  0  0  0  0  0  0
   43.3368   26.7983   46.5464 H   0  0  0  0  0  0  0  0  0  0  0  0
   47.2595   25.4821   47.3987 H   0  0  0  0  0  0  0  0  0  0  0  0
   44.5983   36.2006   43.1783 H   0  0  0  0  0  0  0  0  0  0  0  0
   46.5147   35.2725   41.8000 H   0  0  0  0  0  0  0  0  0  0  0  0
   47.9045   33.4488   42.8241 H   0  0  0  0  0  0  0  0  0  0  0  0
  1  2  2  0
  2  3  1  0
  4  3  2  0
  5  4  1  0
  6  1  1  0
  6  5  2  0
  7 12  1  0
  7  5  1  0
  8  7  2  0
  9 10  2  0
  9  8  1  0
 10 11  1  0
 11 12  2  0
 13  1  1  0
 13 14  2  0
 15 20  2  0
 16 17  2  0
 16 15  1  0
 17 18  1  0
 18 19  2  0
 19 13  1  0
 20 19  1  0
  2 21  1  0
  3 22  1  0
  4 23  1  0
  8 24  1  0
  9 25  1  0
 11 26  1  0
 15 27  1  0
 16 28  1  0
 17 29  1  0
M  ISO  8  21  14  22  14  23  14  24  14  25  14  26  14  27  14  28  14
M  ISO  1  29  14
M  END
>  <minimizedAffinity>  (1) 
-4.86401415

>  <minimizedRMSD>  (1) 
0.575501382

$$$$
