
     RDKit          3D

 28 30  0  0  0  0  0  0  0  0999 V2000
   46.1730   32.3730   47.1790 C   0  0  0  0  0  0  0  0  0  0  0  0
   47.3480   32.6300   47.8990 C   0  0  0  0  0  0  0  0  0  0  0  0
   48.0790   31.5830   48.4450 C   0  0  0  0  0  0  0  0  0  0  0  0
   47.6360   30.2700   48.2720 C   0  0  0  0  0  0  0  0  0  0  0  0
   46.4800   30.0550   47.5600 C   0  0  0  0  0  0  0  0  0  0  0  0
   45.8100   31.0930   47.0530 N   0  0  0  0  0  0  0  0  0  0  0  0
   46.0460   28.6720   47.3970 C   0  0  0  0  0  0  0  0  0  0  0  0
   44.7710   28.1830   47.2030 C   0  0  0  0  0  0  0  0  0  0  0  0
   44.8650   26.7930   47.1050 C   0  0  0  0  0  0  0  0  0  0  0  0
   46.1890   26.4910   47.2430 N   0  0  0  0  0  0  0  0  0  0  0  0
   46.8570   27.6190   47.4140 N   0  0  0  0  0  0  0  0  0  0  0  0
   45.4370   33.5070   46.6240 C   0  0  0  0  0  0  0  0  0  0  0  0
   44.5560   34.0130   47.3570 O   0  0  0  0  0  0  0  0  0  0  0  0
   45.2610   35.4200   43.5070 C   0  0  0  0  0  0  0  0  0  0  0  0
   46.3180   34.9120   42.7530 C   0  0  0  0  0  0  0  0  0  0  0  0
   47.0800   33.9020   43.3520 C   0  0  0  0  0  0  0  0  0  0  0  0
   46.7720   33.4680   44.6030 N   0  0  0  0  0  0  0  0  0  0  0  0
   45.7370   33.9920   45.2940 C   0  0  0  0  0  0  0  0  0  0  0  0
   44.9950   34.9590   44.7420 N   0  0  0  0  0  0  0  0  0  0  0  0
   47.6927   33.6661   48.0322 H   0  0  0  0  0  0  0  0  0  0  0  0
   49.0007   31.7866   49.0099 H   0  0  0  0  0  0  0  0  0  0  0  0
   48.1999   29.4262   48.6963 H   0  0  0  0  0  0  0  0  0  0  0  0
   43.8487   28.7789   47.1374 H   0  0  0  0  0  0  0  0  0  0  0  0
   44.0385   26.0843   46.9482 H   0  0  0  0  0  0  0  0  0  0  0  0
   46.5977   25.5459   47.2182 H   0  0  0  0  0  0  0  0  0  0  0  0
   44.6308   36.2153   43.0824 H   0  0  0  0  0  0  0  0  0  0  0  0
   46.5410   35.2846   41.7423 H   0  0  0  0  0  0  0  0  0  0  0  0
   47.9286   33.4592   42.8101 H   0  0  0  0  0  0  0  0  0  0  0  0
  1  2  2  0
  2  3  1  0
  4  3  2  0
  5  4  1  0
  6  1  1  0
  6  5  2  0
  7 11  2  0
  7  5  1  0
  8  7  1  0
  9  8  2  0
  9 10  1  0
 10 11  1  0
 12  1  1  0
 12 13  2  0
 14 19  2  0
 15 16  2  0
 15 14  1  0
 16 17  1  0
 17 18  2  0
 18 12  1  0
 19 18  1  0
  2 20  1  0
  3 21  1  0
  4 22  1  0
  8 23  1  0
  9 24  1  0
 10 25  1  0
 14 26  1  0
 15 27  1  0
 16 28  1  0
M  ISO  8  20  14  21  14  22  14  23  14  24  14  25   9  26  14  27  14
M  ISO  1  28  14
M  END
>  <minimizedAffinity>  (1) 
-4.75733042

>  <minimizedRMSD>  (1) 
0.661578655

$$$$
