
     RDKit          3D

 24 25  0  0  0  0  0  0  0  0999 V2000
   45.9710   32.4780   47.1220 C   0  0  0  0  0  0  0  0  0  0  0  0
   47.2300   32.6100   47.7230 C   0  0  0  0  0  0  0  0  0  0  0  0
   47.8490   31.5050   48.3060 C   0  0  0  0  0  0  0  0  0  0  0  0
   47.2200   30.2720   48.2930 C   0  0  0  0  0  0  0  0  0  0  0  0
   45.9830   30.1740   47.6950 C   0  0  0  0  0  0  0  0  0  0  0  0
   45.4290   31.2640   47.1470 N   0  0  0  0  0  0  0  0  0  0  0  0
   45.3520   28.8340   47.7050 C   0  0  0  0  0  0  0  0  0  0  0  0
   46.2130   27.7990   47.4830 F   0  0  0  0  0  0  0  0  0  0  0  0
   44.7190   28.5810   48.9120 F   0  0  0  0  0  0  0  0  0  0  0  0
   44.3610   28.7530   46.7360 F   0  0  0  0  0  0  0  0  0  0  0  0
   45.3520   33.6440   46.5230 C   0  0  0  0  0  0  0  0  0  0  0  0
   44.5000   34.2440   47.2190 O   0  0  0  0  0  0  0  0  0  0  0  0
   45.3870   35.4310   43.3150 C   0  0  0  0  0  0  0  0  0  0  0  0
   46.4640   34.8560   42.6390 C   0  0  0  0  0  0  0  0  0  0  0  0
   47.1500   33.8620   43.3120 C   0  0  0  0  0  0  0  0  0  0  0  0
   46.7610   33.4950   44.5670 N   0  0  0  0  0  0  0  0  0  0  0  0
   45.7170   34.0770   45.1820 C   0  0  0  0  0  0  0  0  0  0  0  0
   45.0500   35.0290   44.5540 N   0  0  0  0  0  0  0  0  0  0  0  0
   47.7317   33.5888   47.7349 H   0  0  0  0  0  0  0  0  0  0  0  0
   48.8375   31.6131   48.7764 H   0  0  0  0  0  0  0  0  0  0  0  0
   47.6965   29.3917   48.7492 H   0  0  0  0  0  0  0  0  0  0  0  0
   44.8040   36.2259   42.8269 H   0  0  0  0  0  0  0  0  0  0  0  0
   46.7513   35.1760   41.6265 H   0  0  0  0  0  0  0  0  0  0  0  0
   48.0092   33.3672   42.8356 H   0  0  0  0  0  0  0  0  0  0  0  0
  1  6  1  0
  1  2  2  0
  2  3  1  0
  4  3  2  0
  5  7  1  0
  5  4  1  0
  6  5  2  0
  7  9  1  0
  8  7  1  0
 10  7  1  0
 11  1  1  0
 11 12  2  0
 13 18  2  0
 14 15  2  0
 14 13  1  0
 15 16  1  0
 16 17  2  0
 17 11  1  0
 18 17  1  0
  2 19  1  0
  3 20  1  0
  4 21  1  0
 13 22  1  0
 14 23  1  0
 15 24  1  0
M  ISO  6  19  14  20  14  21  14  22  14  23  14  24  14
M  END
>  <minimizedAffinity>  (1) 
-4.70937395

>  <minimizedRMSD>  (1) 
0.897224069

$$$$
