
     RDKit          3D

 30 32  0  0  0  0  0  0  0  0999 V2000
   47.9160   34.9620   41.9280 C   0  0  0  0  0  0  0  0  0  0  0  0
   48.3510   34.0340   40.9000 N   0  0  0  0  0  0  0  0  0  0  0  0
   47.9090   33.9630   39.6300 C   0  0  0  0  0  0  0  0  0  0  0  0
   48.5440   32.9690   38.9540 N   0  0  0  0  0  0  0  0  0  0  0  0
   49.3990   32.4130   39.8200 C   0  0  0  0  0  0  0  0  0  0  0  0
   50.2710   31.3720   39.6260 C   0  0  0  0  0  0  0  0  0  0  0  0
   50.4010   30.7500   38.5340 O   0  0  0  0  0  0  0  0  0  0  0  0
   51.0420   30.9820   40.6600 N   0  0  0  0  0  0  0  0  0  0  0  0
   50.9150   31.6330   41.8250 C   0  0  0  0  0  0  0  0  0  0  0  0
   51.7410   31.1980   42.9000 N   0  0  0  0  0  0  0  0  0  0  0  0
   50.0650   32.6530   42.0310 N   0  0  0  0  0  0  0  0  0  0  0  0
   49.2850   33.0680   41.0270 C   0  0  0  0  0  0  0  0  0  0  0  0
   46.3780   34.9900   41.8230 C   0  0  0  0  0  0  0  0  0  0  0  0
   44.4600   35.9460   44.9640 C   0  0  0  0  0  0  0  0  0  0  0  0
   44.9530   36.0240   43.6590 C   0  0  0  0  0  0  0  0  0  0  0  0
   45.7970   34.9980   43.2030 C   0  0  0  0  0  0  0  0  0  0  0  0
   46.1000   33.9660   44.0590 N   0  0  0  0  0  0  0  0  0  0  0  0
   45.5940   33.9340   45.3230 C   0  0  0  0  0  0  0  0  0  0  0  0
   44.7950   34.9040   45.7560 N   0  0  0  0  0  0  0  0  0  0  0  0
   48.2284   34.6103   42.9223 H   0  0  0  0  0  0  0  0  0  0  0  0
   48.3555   35.9612   41.7924 H   0  0  0  0  0  0  0  0  0  0  0  0
   47.1392   34.6196   39.1984 H   0  0  0  0  0  0  0  0  0  0  0  0
   51.7105   30.2051   40.5581 H   0  0  0  0  0  0  0  0  0  0  0  0
   51.6822   31.6649   43.8162 H   0  0  0  0  0  0  0  0  0  0  0  0
   52.3974   30.4164   42.7615 H   0  0  0  0  0  0  0  0  0  0  0  0
   46.0612   35.8950   41.2839 H   0  0  0  0  0  0  0  0  0  0  0  0
   46.0259   34.1031   41.2759 H   0  0  0  0  0  0  0  0  0  0  0  0
   43.7970   36.7354   45.3478 H   0  0  0  0  0  0  0  0  0  0  0  0
   44.6869   36.8676   43.0052 H   0  0  0  0  0  0  0  0  0  0  0  0
   45.8487   33.0983   45.9913 H   0  0  0  0  0  0  0  0  0  0  0  0
  2 12  1  0
  2  1  1  0
  3  2  1  0
  4  3  2  0
  4  5  1  0
  5 12  2  0
  6  5  1  0
  6  8  1  0
  7  6  2  0
  8  9  1  0
  9 11  2  0
  9 10  1  0
 12 11  1  0
 13  1  1  0
 13 16  1  0
 14 19  2  0
 15 14  1  0
 16 15  2  0
 16 17  1  0
 17 18  2  0
 18 19  1  0
  1 20  1  0
  1 21  1  0
  3 22  1  0
  8 23  1  0
 10 24  1  0
 10 25  1  0
 13 26  1  0
 13 27  1  0
 14 28  1  0
 15 29  1  0
 18 30  1  0
M  ISO  8  20   8  21   8  22  14  23   9  26   8  27   8  28  14  29  14
M  ISO  1  30  14
M  END
>  <minimizedAffinity>  (1) 
-4.7644763

>  <minimizedRMSD>  (1) 
1.85478449

$$$$
