
     RDKit          3D

 34 36  0  0  0  0  0  0  0  0999 V2000
   46.1510   32.3810   47.0220 C   0  0  0  0  0  0  0  0  0  0  0  0
   47.2480   32.5740   47.8570 C   0  0  0  0  0  0  0  0  0  0  0  0
   47.9800   31.4880   48.3260 C   0  0  0  0  0  0  0  0  0  0  0  0
   47.6030   30.1990   47.9500 C   0  0  0  0  0  0  0  0  0  0  0  0
   46.5120   30.0360   47.1210 C   0  0  0  0  0  0  0  0  0  0  0  0
   45.8420   31.1280   46.6970 N   0  0  0  0  0  0  0  0  0  0  0  0
   46.0420   28.6780   46.6690 C   0  0  0  0  0  0  0  0  0  0  0  0
   45.1320   28.8440   45.4480 C   0  0  0  0  0  0  0  0  0  0  0  0
   43.7860   28.3340   45.9030 C   0  0  0  0  0  0  0  0  0  0  0  0
   44.1720   27.2530   46.8890 C   0  0  0  0  0  0  0  0  0  0  0  0
   45.2560   27.9450   47.6940 C   0  0  0  0  0  0  0  0  0  0  0  0
   45.4190   33.5500   46.5590 C   0  0  0  0  0  0  0  0  0  0  0  0
   44.5700   34.0250   47.3700 O   0  0  0  0  0  0  0  0  0  0  0  0
   45.1060   35.6300   43.5530 C   0  0  0  0  0  0  0  0  0  0  0  0
   46.1600   35.1740   42.7470 C   0  0  0  0  0  0  0  0  0  0  0  0
   46.9610   34.1470   43.2660 C   0  0  0  0  0  0  0  0  0  0  0  0
   46.6750   33.6550   44.5140 N   0  0  0  0  0  0  0  0  0  0  0  0
   45.6570   34.1200   45.2540 C   0  0  0  0  0  0  0  0  0  0  0  0
   44.8900   35.0980   44.7630 N   0  0  0  0  0  0  0  0  0  0  0  0
   47.5385   33.5941   48.1485 H   0  0  0  0  0  0  0  0  0  0  0  0
   48.8462   31.6441   48.9858 H   0  0  0  0  0  0  0  0  0  0  0  0
   48.1669   29.3254   48.3089 H   0  0  0  0  0  0  0  0  0  0  0  0
   46.9519   28.0990   46.4524 H   0  0  0  0  0  0  0  0  0  0  0  0
   45.5063   28.2498   44.6013 H   0  0  0  0  0  0  0  0  0  0  0  0
   45.0869   29.8867   45.1005 H   0  0  0  0  0  0  0  0  0  0  0  0
   43.2021   29.1287   46.3904 H   0  0  0  0  0  0  0  0  0  0  0  0
   43.1482   27.9758   45.0815 H   0  0  0  0  0  0  0  0  0  0  0  0
   43.3209   26.9674   47.5246 H   0  0  0  0  0  0  0  0  0  0  0  0
   44.4963   26.3134   46.4178 H   0  0  0  0  0  0  0  0  0  0  0  0
   45.8843   27.2103   48.2188 H   0  0  0  0  0  0  0  0  0  0  0  0
   44.8511   28.6064   48.4741 H   0  0  0  0  0  0  0  0  0  0  0  0
   44.4498   36.4334   43.1871 H   0  0  0  0  0  0  0  0  0  0  0  0
   46.3495   35.6032   41.7521 H   0  0  0  0  0  0  0  0  0  0  0  0
   47.8025   33.7436   42.6836 H   0  0  0  0  0  0  0  0  0  0  0  0
  1  2  2  0
  2  3  1  0
  4  3  2  0
  5  4  1  0
  6  1  1  0
  6  5  2  0
  7  5  1  0
  7 11  1  0
  8  9  1  0
  8  7  1  0
  9 10  1  0
 10 11  1  0
 12  1  1  0
 12 13  2  0
 14 19  2  0
 15 16  2  0
 15 14  1  0
 16 17  1  0
 17 18  2  0
 18 12  1  0
 19 18  1  0
  2 20  1  0
  3 21  1  0
  4 22  1  0
  7 23  1  0
  8 24  1  0
  8 25  1  0
  9 26  1  0
  9 27  1  0
 10 28  1  0
 10 29  1  0
 11 30  1  0
 11 31  1  0
 14 32  1  0
 15 33  1  0
 16 34  1  0
M  ISO  8  20  14  21  14  22  14  23  13  24  13  25  13  26  13  27  13
M  ISO  7  28  13  29  13  30  13  31  13  32  14  33  14  34  14
M  END
>  <minimizedAffinity>  (1) 
-4.95000362

>  <minimizedRMSD>  (1) 
0.563947439

$$$$
