
     RDKit          3D

 27 29  0  0  0  0  0  0  0  0999 V2000
   46.2600   32.2640   47.2750 C   0  0  0  0  0  0  0  0  0  0  0  0
   47.4340   32.5360   47.9480 C   0  0  0  0  0  0  0  0  0  0  0  0
   48.1940   31.4810   48.4680 C   0  0  0  0  0  0  0  0  0  0  0  0
   47.7500   30.1810   48.2970 C   0  0  0  0  0  0  0  0  0  0  0  0
   46.5770   29.9350   47.6240 C   0  0  0  0  0  0  0  0  0  0  0  0
   45.8710   30.9790   47.1350 N   0  0  0  0  0  0  0  0  0  0  0  0
   46.1080   28.6030   47.4410 N   0  0  0  0  0  0  0  0  0  0  0  0
   46.8850   27.5170   47.2790 C   0  0  0  0  0  0  0  0  0  0  0  0
   46.0900   26.4350   47.1340 N   0  0  0  0  0  0  0  0  0  0  0  0
   44.8150   26.8470   47.2070 C   0  0  0  0  0  0  0  0  0  0  0  0
   44.8550   28.1980   47.3970 N   0  0  0  0  0  0  0  0  0  0  0  0
   45.4800   33.3860   46.7380 C   0  0  0  0  0  0  0  0  0  0  0  0
   44.5830   33.8540   47.4880 O   0  0  0  0  0  0  0  0  0  0  0  0
   45.2390   35.3600   43.6560 C   0  0  0  0  0  0  0  0  0  0  0  0
   46.2880   34.8720   42.8800 C   0  0  0  0  0  0  0  0  0  0  0  0
   47.0580   33.8690   43.4400 C   0  0  0  0  0  0  0  0  0  0  0  0
   46.7700   33.4080   44.7000 N   0  0  0  0  0  0  0  0  0  0  0  0
   45.7420   33.9120   45.4130 C   0  0  0  0  0  0  0  0  0  0  0  0
   44.9830   34.8790   44.9000 N   0  0  0  0  0  0  0  0  0  0  0  0
   47.7707   33.5755   48.0751 H   0  0  0  0  0  0  0  0  0  0  0  0
   49.1322   31.6828   49.0057 H   0  0  0  0  0  0  0  0  0  0  0  0
   48.3372   29.3430   48.7006 H   0  0  0  0  0  0  0  0  0  0  0  0
   47.9849   27.5112   47.2667 H   0  0  0  0  0  0  0  0  0  0  0  0
   43.9149   26.2195   47.1291 H   0  0  0  0  0  0  0  0  0  0  0  0
   44.5998   36.1577   43.2496 H   0  0  0  0  0  0  0  0  0  0  0  0
   46.4934   35.2645   41.8731 H   0  0  0  0  0  0  0  0  0  0  0  0
   47.9002   33.4413   42.8762 H   0  0  0  0  0  0  0  0  0  0  0  0
  1  2  2  0
  2  3  1  0
  4  3  2  0
  5  4  1  0
  6  1  1  0
  6  5  2  0
  7  5  1  0
  8  7  1  0
  9 10  1  0
  9  8  2  0
 10 11  2  0
 11  7  1  0
 12  1  1  0
 12 13  2  0
 14 19  2  0
 15 16  2  0
 15 14  1  0
 16 17  1  0
 17 18  2  0
 18 12  1  0
 19 18  1  0
  2 20  1  0
  3 21  1  0
  4 22  1  0
  8 23  1  0
 10 24  1  0
 14 25  1  0
 15 26  1  0
 16 27  1  0
M  ISO  8  20  14  21  14  22  14  23  14  24  14  25  14  26  14  27  14
M  END
>  <minimizedAffinity>  (1) 
-4.92808723

>  <minimizedRMSD>  (1) 
0.523251176

$$$$
