
     RDKit          3D

 30 31  0  0  0  0  0  0  0  0999 V2000
   46.0900   32.4040   47.1480 C   0  0  0  0  0  0  0  0  0  0  0  0
   47.2890   32.6140   47.8000 C   0  0  0  0  0  0  0  0  0  0  0  0
   47.9680   31.5290   48.3700 C   0  0  0  0  0  0  0  0  0  0  0  0
   47.4310   30.2530   48.2760 C   0  0  0  0  0  0  0  0  0  0  0  0
   46.2350   30.0820   47.6200 C   0  0  0  0  0  0  0  0  0  0  0  0
   45.6090   31.1450   47.0840 N   0  0  0  0  0  0  0  0  0  0  0  0
   45.6330   28.7250   47.5020 C   0  0  0  0  0  0  0  0  0  0  0  0
   46.7050   27.7580   47.0590 C   0  0  0  0  0  0  0  0  0  0  0  0
   44.5190   28.7390   46.4810 C   0  0  0  0  0  0  0  0  0  0  0  0
   45.4070   33.5640   46.5640 C   0  0  0  0  0  0  0  0  0  0  0  0
   44.5340   34.1150   47.2870 O   0  0  0  0  0  0  0  0  0  0  0  0
   45.3420   35.4200   43.4030 C   0  0  0  0  0  0  0  0  0  0  0  0
   46.4080   34.8750   42.6900 C   0  0  0  0  0  0  0  0  0  0  0  0
   47.1220   33.8780   43.3270 C   0  0  0  0  0  0  0  0  0  0  0  0
   46.7620   33.4840   44.5830 N   0  0  0  0  0  0  0  0  0  0  0  0
   45.7340   34.0280   45.2390 C   0  0  0  0  0  0  0  0  0  0  0  0
   45.0260   34.9930   44.6520 N   0  0  0  0  0  0  0  0  0  0  0  0
   47.7090   33.6281   47.8715 H   0  0  0  0  0  0  0  0  0  0  0  0
   48.9239   31.6883   48.8905 H   0  0  0  0  0  0  0  0  0  0  0  0
   47.9536   29.3925   48.7191 H   0  0  0  0  0  0  0  0  0  0  0  0
   45.2209   28.4187   48.4748 H   0  0  0  0  0  0  0  0  0  0  0  0
   47.1912   27.3194   47.9429 H   0  0  0  0  0  0  0  0  0  0  0  0
   46.2508   26.9582   46.4557 H   0  0  0  0  0  0  0  0  0  0  0  0
   47.4539   28.2920   46.4557 H   0  0  0  0  0  0  0  0  0  0  0  0
   43.5481   28.7512   46.9979 H   0  0  0  0  0  0  0  0  0  0  0  0
   44.6103   29.6361   45.8510 H   0  0  0  0  0  0  0  0  0  0  0  0
   44.5877   27.8399   45.8510 H   0  0  0  0  0  0  0  0  0  0  0  0
   44.7408   36.2172   42.9415 H   0  0  0  0  0  0  0  0  0  0  0  0
   46.6665   35.2189   41.6776 H   0  0  0  0  0  0  0  0  0  0  0  0
   47.9773   33.4037   42.8236 H   0  0  0  0  0  0  0  0  0  0  0  0
  1  2  2  0
  2  3  1  0
  4  3  2  0
  5  4  1  0
  6  1  1  0
  6  5  2  0
  7  5  1  0
  8  7  1  0
  9  7  1  0
 10  1  1  0
 10 11  2  0
 12 17  2  0
 13 14  2  0
 13 12  1  0
 14 15  1  0
 15 16  2  0
 16 10  1  0
 17 16  1  0
  2 18  1  0
  3 19  1  0
  4 20  1  0
  7 21  1  0
  8 22  1  0
  8 23  1  0
  8 24  1  0
  9 25  1  0
  9 26  1  0
  9 27  1  0
 12 28  1  0
 13 29  1  0
 14 30  1  0
M  ISO  8  18  14  19  14  20  14  21   8  22   8  23   8  24   8  25   8
M  ISO  5  26   8  27   8  28  14  29  14  30  14
M  END
>  <minimizedAffinity>  (1) 
-4.55941868

>  <minimizedRMSD>  (1) 
0.881348372

$$$$
