
     RDKit          3D

 33 34  0  0  0  0  0  0  0  0999 V2000
   46.0490   32.3310   46.9860 C   0  0  0  0  0  0  0  0  0  0  0  0
   47.1850   32.4500   47.7740 C   0  0  0  0  0  0  0  0  0  0  0  0
   47.8120   31.2920   48.2550 C   0  0  0  0  0  0  0  0  0  0  0  0
   47.2970   30.0430   47.9430 C   0  0  0  0  0  0  0  0  0  0  0  0
   46.1690   29.9640   47.1580 C   0  0  0  0  0  0  0  0  0  0  0  0
   45.5890   31.0940   46.7100 N   0  0  0  0  0  0  0  0  0  0  0  0
   45.6250   28.6160   46.8300 C   0  0  0  0  0  0  0  0  0  0  0  0
   46.6890   27.7090   46.2260 C   0  0  0  0  0  0  0  0  0  0  0  0
   45.0250   27.9100   48.0040 C   0  0  0  0  0  0  0  0  0  0  0  0
   44.5040   28.7810   45.7950 C   0  0  0  0  0  0  0  0  0  0  0  0
   45.4150   33.5510   46.4970 C   0  0  0  0  0  0  0  0  0  0  0  0
   44.5970   34.1080   47.2860 O   0  0  0  0  0  0  0  0  0  0  0  0
   45.2660   35.5360   43.4180 C   0  0  0  0  0  0  0  0  0  0  0  0
   46.3500   35.0490   42.6680 C   0  0  0  0  0  0  0  0  0  0  0  0
   47.0960   34.0450   43.2600 C   0  0  0  0  0  0  0  0  0  0  0  0
   46.7680   33.5790   44.5050 N   0  0  0  0  0  0  0  0  0  0  0  0
   45.7140   34.0820   45.1870 C   0  0  0  0  0  0  0  0  0  0  0  0
   44.9850   35.0450   44.6370 N   0  0  0  0  0  0  0  0  0  0  0  0
   47.5896   33.4432   48.0188 H   0  0  0  0  0  0  0  0  0  0  0  0
   48.7132   31.3743   48.8804 H   0  0  0  0  0  0  0  0  0  0  0  0
   47.7823   29.1294   48.3170 H   0  0  0  0  0  0  0  0  0  0  0  0
   47.2582   27.2238   47.0326 H   0  0  0  0  0  0  0  0  0  0  0  0
   46.2060   26.9405   45.6046 H   0  0  0  0  0  0  0  0  0  0  0  0
   47.3713   28.3076   45.6046 H   0  0  0  0  0  0  0  0  0  0  0  0
   45.4051   28.3573   48.9343 H   0  0  0  0  0  0  0  0  0  0  0  0
   43.9299   28.0084   47.9706 H   0  0  0  0  0  0  0  0  0  0  0  0
   45.2987   26.8451   47.9706 H   0  0  0  0  0  0  0  0  0  0  0  0
   43.5442   28.9223   46.3134 H   0  0  0  0  0  0  0  0  0  0  0  0
   44.7129   29.6581   45.1648 H   0  0  0  0  0  0  0  0  0  0  0  0
   44.4514   27.8809   45.1648 H   0  0  0  0  0  0  0  0  0  0  0  0
   44.6355   36.3343   42.9994 H   0  0  0  0  0  0  0  0  0  0  0  0
   46.5912   35.4425   41.6695 H   0  0  0  0  0  0  0  0  0  0  0  0
   47.9584   33.6184   42.7267 H   0  0  0  0  0  0  0  0  0  0  0  0
  1  2  2  0
  2  3  1  0
  4  3  2  0
  5  4  1  0
  6  1  1  0
  6  5  2  0
  7  5  1  0
  7  9  1  0
  8  7  1  0
 10  7  1  0
 11  1  1  0
 11 12  2  0
 13 18  2  0
 14 15  2  0
 14 13  1  0
 15 16  1  0
 16 17  2  0
 17 11  1  0
 18 17  1  0
  2 19  1  0
  3 20  1  0
  4 21  1  0
  8 22  1  0
  8 23  1  0
  8 24  1  0
  9 25  1  0
  9 26  1  0
  9 27  1  0
 10 28  1  0
 10 29  1  0
 10 30  1  0
 13 31  1  0
 14 32  1  0
 15 33  1  0
M  ISO  8  19  14  20  14  21  14  22   8  23   8  24   8  25   8  26   8
M  ISO  7  27   8  28   8  29   8  30   8  31  14  32  14  33  14
M  END
>  <minimizedAffinity>  (1) 
-4.6314683

>  <minimizedRMSD>  (1) 
0.542284012

$$$$
