
     RDKit          3D

 22 23  0  0  0  0  0  0  0  0999 V2000
   45.4850   33.3280   46.7580 C   0  0  0  0  0  0  0  0  0  0  0  0
   44.6110   33.7560   47.5650 O   0  0  0  0  0  0  0  0  0  0  0  0
   45.1140   35.4720   43.7990 C   0  0  0  0  0  0  0  0  0  0  0  0
   46.1430   35.0430   42.9640 C   0  0  0  0  0  0  0  0  0  0  0  0
   46.9410   34.0220   43.4460 C   0  0  0  0  0  0  0  0  0  0  0  0
   46.7060   33.4840   44.6770 N   0  0  0  0  0  0  0  0  0  0  0  0
   45.6950   33.9310   45.4550 C   0  0  0  0  0  0  0  0  0  0  0  0
   44.9150   34.9150   45.0080 N   0  0  0  0  0  0  0  0  0  0  0  0
   46.2790   32.1930   47.1980 C   0  0  0  0  0  0  0  0  0  0  0  0
   47.4010   32.4190   47.9730 C   0  0  0  0  0  0  0  0  0  0  0  0
   48.1790   31.3400   48.4060 C   0  0  0  0  0  0  0  0  0  0  0  0
   47.8180   30.0470   48.0560 C   0  0  0  0  0  0  0  0  0  0  0  0
   46.6960   29.8560   47.2860 C   0  0  0  0  0  0  0  0  0  0  0  0
   45.9890   30.9280   46.8990 N   0  0  0  0  0  0  0  0  0  0  0  0
   46.2430   28.1860   46.8420 S   0  0  0  0  0  0  0  0  0  0  0  0
   44.4504   36.2826   43.4635 H   0  0  0  0  0  0  0  0  0  0  0  0
   46.3117   35.4924   41.9743 H   0  0  0  0  0  0  0  0  0  0  0  0
   47.7709   33.6411   42.8326 H   0  0  0  0  0  0  0  0  0  0  0  0
   47.6818   33.4461   48.2490 H   0  0  0  0  0  0  0  0  0  0  0  0
   49.0735   31.5161   49.0216 H   0  0  0  0  0  0  0  0  0  0  0  0
   48.4200   29.1888   48.3894 H   0  0  0  0  0  0  0  0  0  0  0  0
   46.0432   27.4493   47.9796 H   0  0  0  0  0  0  0  0  0  0  0  0
  1  9  1  0
  1  2  2  0
  3  8  2  0
  4  5  2  0
  4  3  1  0
  5  6  1  0
  6  7  2  0
  7  1  1  0
  8  7  1  0
  9 10  2  0
 10 11  1  0
 12 11  2  0
 13 12  1  0
 14  9  1  0
 14 13  2  0
 15 13  1  0
  3 16  1  0
  4 17  1  0
  5 18  1  0
 10 19  1  0
 11 20  1  0
 12 21  1  0
 15 22  1  0
M  ISO  7  16  14  17  14  18  14  19  14  20  14  21  14  22  11
M  END
>  <minimizedAffinity>  (1) 
-4.33984661

>  <minimizedRMSD>  (1) 
0.0620152652

$$$$
