
     RDKit          3D

 24 25  0  0  0  0  0  0  0  0999 V2000
   45.4780   33.3320   46.7570 C   0  0  0  0  0  0  0  0  0  0  0  0
   44.6100   33.7490   47.5710 O   0  0  0  0  0  0  0  0  0  0  0  0
   45.1040   35.4840   43.8080 C   0  0  0  0  0  0  0  0  0  0  0  0
   46.1440   35.0520   42.9670 C   0  0  0  0  0  0  0  0  0  0  0  0
   46.9430   34.0310   43.4460 C   0  0  0  0  0  0  0  0  0  0  0  0
   46.6940   33.5000   44.6800 N   0  0  0  0  0  0  0  0  0  0  0  0
   45.6860   33.9380   45.4600 C   0  0  0  0  0  0  0  0  0  0  0  0
   44.9180   34.9160   45.0080 N   0  0  0  0  0  0  0  0  0  0  0  0
   46.2760   32.1940   47.1870 C   0  0  0  0  0  0  0  0  0  0  0  0
   47.3880   32.4120   47.9770 C   0  0  0  0  0  0  0  0  0  0  0  0
   48.1800   31.3440   48.4100 C   0  0  0  0  0  0  0  0  0  0  0  0
   47.8390   30.0520   48.0390 C   0  0  0  0  0  0  0  0  0  0  0  0
   46.7310   29.8560   47.2530 C   0  0  0  0  0  0  0  0  0  0  0  0
   46.0060   30.9200   46.8660 N   0  0  0  0  0  0  0  0  0  0  0  0
   46.1720   28.5790   46.7330 C   0  0  0  0  0  0  0  0  0  0  0  0
   44.4373   36.2947   43.4789 H   0  0  0  0  0  0  0  0  0  0  0  0
   46.3133   35.5034   41.9783 H   0  0  0  0  0  0  0  0  0  0  0  0
   47.7750   33.6479   42.8369 H   0  0  0  0  0  0  0  0  0  0  0  0
   47.6538   33.4386   48.2691 H   0  0  0  0  0  0  0  0  0  0  0  0
   49.0642   31.5268   49.0383 H   0  0  0  0  0  0  0  0  0  0  0  0
   48.4473   29.1972   48.3696 H   0  0  0  0  0  0  0  0  0  0  0  0
   45.8889   27.9322   47.5765 H   0  0  0  0  0  0  0  0  0  0  0  0
   45.2841   28.7905   46.1190 H   0  0  0  0  0  0  0  0  0  0  0  0
   46.9297   28.0701   46.1190 H   0  0  0  0  0  0  0  0  0  0  0  0
  1  9  1  0
  1  2  2  0
  3  8  2  0
  4  5  2  0
  4  3  1  0
  5  6  1  0
  6  7  2  0
  7  1  1  0
  8  7  1  0
  9 10  2  0
 10 11  1  0
 12 11  2  0
 13 12  1  0
 14  9  1  0
 14 13  2  0
 15 13  1  0
  3 16  1  0
  4 17  1  0
  5 18  1  0
 10 19  1  0
 11 20  1  0
 12 21  1  0
 15 22  1  0
 15 23  1  0
 15 24  1  0
M  ISO  8  16  14  17  14  18  14  19  14  20  14  21  14  22   8  23   8
M  ISO  1  24   8
M  END
>  <minimizedAffinity>  (1) 
-4.33323336

>  <minimizedRMSD>  (1) 
0.0372189619

$$$$
