
     RDKit          3D

 39 42  0  0  0  0  0  0  0  0999 V2000
   45.1810   35.5460   43.5140 C   0  0  0  0  0  0  0  0  0  0  0  0
   46.2870   35.0960   42.7730 C   0  0  0  0  0  0  0  0  0  0  0  0
   47.0510   34.1290   43.3720 C   0  0  0  0  0  0  0  0  0  0  0  0
   46.7310   33.6580   44.6060 N   0  0  0  0  0  0  0  0  0  0  0  0
   45.6540   34.1190   45.2900 C   0  0  0  0  0  0  0  0  0  0  0  0
   44.8970   35.0530   44.7380 N   0  0  0  0  0  0  0  0  0  0  0  0
   50.4680   32.3250   41.5340 C   0  0  0  0  0  0  0  0  0  0  0  0
   49.2270   31.7190   41.4980 C   0  0  0  0  0  0  0  0  0  0  0  0
   48.1320   32.3310   42.1060 C   0  0  0  0  0  0  0  0  0  0  0  0
   48.2340   33.5420   42.7560 C   0  0  0  0  0  0  0  0  0  0  0  0
   49.4870   34.1160   42.7720 C   0  0  0  0  0  0  0  0  0  0  0  0
   50.5880   33.5410   42.1840 C   0  0  0  0  0  0  0  0  0  0  0  0
   51.8650   31.5910   40.7840 S   0  0  0  0  0  0  0  0  0  0  0  0
   51.9360   30.1480   41.2460 O   0  0  0  0  0  0  0  0  0  0  0  0
   51.7670   31.5640   39.2940 O   0  0  0  0  0  0  0  0  0  0  0  0
   45.3890   33.5640   46.5950 C   0  0  0  0  0  0  0  0  0  0  0  0
   44.5310   34.0860   47.3780 O   0  0  0  0  0  0  0  0  0  0  0  0
   46.0800   32.3790   47.1000 C   0  0  0  0  0  0  0  0  0  0  0  0
   47.2640   32.5450   47.7790 C   0  0  0  0  0  0  0  0  0  0  0  0
   47.9240   31.4140   48.2620 C   0  0  0  0  0  0  0  0  0  0  0  0
   47.4000   30.1420   48.0640 C   0  0  0  0  0  0  0  0  0  0  0  0
   46.2160   30.0280   47.3820 C   0  0  0  0  0  0  0  0  0  0  0  0
   45.6030   31.1330   46.9280 N   0  0  0  0  0  0  0  0  0  0  0  0
   45.5720   28.7410   47.1160 C   0  0  0  0  0  0  0  0  0  0  0  0
   44.3600   28.6630   46.5310 N   0  0  0  0  0  0  0  0  0  0  0  0
   44.0370   27.4010   46.4200 O   0  0  0  0  0  0  0  0  0  0  0  0
   44.9860   26.6300   46.9060 C   0  0  0  0  0  0  0  0  0  0  0  0
   45.9620   27.4490   47.3500 N   0  0  0  0  0  0  0  0  0  0  0  0
   44.5290   36.3211   43.0849 H   0  0  0  0  0  0  0  0  0  0  0  0
   46.5243   35.4947   41.7756 H   0  0  0  0  0  0  0  0  0  0  0  0
   49.1027   30.7519   40.9887 H   0  0  0  0  0  0  0  0  0  0  0  0
   47.1533   31.8304   42.0656 H   0  0  0  0  0  0  0  0  0  0  0  0
   49.6120   35.0831   43.2811 H   0  0  0  0  0  0  0  0  0  0  0  0
   51.5638   34.0467   42.2299 H   0  0  0  0  0  0  0  0  0  0  0  0
   52.9638   32.3286   41.1383 H   0  0  0  0  0  0  0  0  0  0  0  0
   47.6829   33.5495   47.9384 H   0  0  0  0  0  0  0  0  0  0  0  0
   48.8723   31.5310   48.8071 H   0  0  0  0  0  0  0  0  0  0  0  0
   47.9210   29.2509   48.4441 H   0  0  0  0  0  0  0  0  0  0  0  0
   44.9841   25.5306   46.9431 H   0  0  0  0  0  0  0  0  0  0  0  0
  1  6  2  0
  2  3  2  0
  2  1  1  0
  3  4  1  0
  4  5  2  0
  5 16  1  0
  6  5  1  0
  7 12  2  0
  8  7  1  0
  8  9  2  0
  9 10  1  0
 10 11  2  0
 10  3  1  0
 12 11  1  0
 13 14  2  0
 13  7  1  0
 15 13  2  0
 16 18  1  0
 16 17  2  0
 18 19  2  0
 19 20  1  0
 21 20  2  0
 22 21  1  0
 23 18  1  0
 23 22  2  0
 24 28  1  0
 24 22  1  0
 25 24  2  0
 26 25  1  0
 26 27  1  0
 27 28  2  0
  1 29  1  0
  2 30  1  0
  8 31  1  0
  9 32  1  0
 11 33  1  0
 12 34  1  0
 13 35  1  0
 19 36  1  0
 20 37  1  0
 21 38  1  0
 27 39  1  0
M  ISO  8  29  14  30  14  31  14  32  14  33  14  34  14  35  11  36  14
M  ISO  3  37  14  38  14  39  14
M  END
>  <minimizedAffinity>  (1) 
-6.13921165

>  <minimizedRMSD>  (1) 
0.385471284

$$$$
