
     RDKit          3D

 42 45  0  0  0  0  0  0  0  0999 V2000
   45.2020   33.6080   46.7780 C   0  0  0  0  0  0  0  0  0  0  0  0
   44.4210   34.0100   47.6900 O   0  0  0  0  0  0  0  0  0  0  0  0
   45.9590   32.3880   47.0850 C   0  0  0  0  0  0  0  0  0  0  0  0
   47.2580   32.4890   47.5260 C   0  0  0  0  0  0  0  0  0  0  0  0
   47.9810   31.3290   47.8180 C   0  0  0  0  0  0  0  0  0  0  0  0
   47.3950   30.0870   47.6670 C   0  0  0  0  0  0  0  0  0  0  0  0
   46.0990   30.0170   47.2250 C   0  0  0  0  0  0  0  0  0  0  0  0
   45.4230   31.1540   46.9490 N   0  0  0  0  0  0  0  0  0  0  0  0
   45.3830   28.7520   47.0290 C   0  0  0  0  0  0  0  0  0  0  0  0
   44.2200   28.6840   46.3580 N   0  0  0  0  0  0  0  0  0  0  0  0
   43.8070   27.4620   46.3320 O   0  0  0  0  0  0  0  0  0  0  0  0
   44.6540   26.6720   46.9690 C   0  0  0  0  0  0  0  0  0  0  0  0
   45.6510   27.4760   47.4130 N   0  0  0  0  0  0  0  0  0  0  0  0
   44.7380   35.9540   44.0150 C   0  0  0  0  0  0  0  0  0  0  0  0
   45.6970   35.5410   43.0790 C   0  0  0  0  0  0  0  0  0  0  0  0
   46.4850   34.4530   43.4330 C   0  0  0  0  0  0  0  0  0  0  0  0
   46.2730   33.8670   44.6560 N   0  0  0  0  0  0  0  0  0  0  0  0
   45.3470   34.2900   45.5200 C   0  0  0  0  0  0  0  0  0  0  0  0
   44.5830   35.3240   45.2080 N   0  0  0  0  0  0  0  0  0  0  0  0
   47.5300   33.9190   42.5420 C   0  0  0  0  0  0  0  0  0  0  0  0
   48.4070   32.8950   43.2600 C   0  0  0  0  0  0  0  0  0  0  0  0
   49.4610   32.4740   42.2460 C   0  0  0  0  0  0  0  0  0  0  0  0
   50.5300   33.5710   42.3150 C   0  0  0  0  0  0  0  0  0  0  0  0
   49.8550   34.8900   42.5260 C   0  0  0  0  0  0  0  0  0  0  0  0
   48.4490   34.9510   41.9720 C   0  0  0  0  0  0  0  0  0  0  0  0
   47.7253   33.4773   47.6482 H   0  0  0  0  0  0  0  0  0  0  0  0
   49.0206   31.4052   48.1694 H   0  0  0  0  0  0  0  0  0  0  0  0
   47.9582   29.1706   47.8973 H   0  0  0  0  0  0  0  0  0  0  0  0
   44.5675   25.5845   47.1100 H   0  0  0  0  0  0  0  0  0  0  0  0
   44.0931   36.8125   43.7762 H   0  0  0  0  0  0  0  0  0  0  0  0
   45.8192   36.0528   42.1130 H   0  0  0  0  0  0  0  0  0  0  0  0
   46.9601   33.4647   41.7181 H   0  0  0  0  0  0  0  0  0  0  0  0
   48.8827   33.3485   44.1421 H   0  0  0  0  0  0  0  0  0  0  0  0
   47.8199   32.0358   43.6165 H   0  0  0  0  0  0  0  0  0  0  0  0
   49.0274   32.4183   41.2366 H   0  0  0  0  0  0  0  0  0  0  0  0
   49.8732   31.4778   42.4644 H   0  0  0  0  0  0  0  0  0  0  0  0
   51.2145   33.3680   43.1518 H   0  0  0  0  0  0  0  0  0  0  0  0
   51.1054   33.5915   41.3777 H   0  0  0  0  0  0  0  0  0  0  0  0
   49.8108   35.0881   43.6071 H   0  0  0  0  0  0  0  0  0  0  0  0
   50.4461   35.6430   41.9842 H   0  0  0  0  0  0  0  0  0  0  0  0
   48.0327   35.9452   42.1916 H   0  0  0  0  0  0  0  0  0  0  0  0
   48.5215   34.7537   40.8923 H   0  0  0  0  0  0  0  0  0  0  0  0
  1  3  1  0
  1  2  2  0
  3  4  2  0
  4  5  1  0
  6  5  2  0
  7  6  1  0
  8  3  1  0
  8  7  2  0
  9  7  1  0
  9 13  1  0
 10  9  2  0
 11 10  1  0
 11 12  1  0
 12 13  2  0
 14 19  2  0
 15 16  2  0
 15 14  1  0
 16 17  1  0
 17 18  2  0
 18  1  1  0
 19 18  1  0
 20 21  1  0
 20 16  1  0
 22 23  1  0
 22 21  1  0
 23 24  1  0
 25 24  1  0
 25 20  1  0
  4 26  1  0
  5 27  1  0
  6 28  1  0
 12 29  1  0
 14 30  1  0
 15 31  1  0
 20 32  1  0
 21 33  1  0
 21 34  1  0
 22 35  1  0
 22 36  1  0
 23 37  1  0
 23 38  1  0
 24 39  1  0
 24 40  1  0
 25 41  1  0
 25 42  1  0
M  ISO  8  26  14  27  14  28  14  29  14  30  14  31  14  32  13  33  13
M  ISO  8  34  13  35  13  36  13  37  13  38  13  39  13  40  13  41  13
M  ISO  1  42  13
M  END
>  <minimizedAffinity>  (1) 
-6.27846098

>  <minimizedRMSD>  (1) 
0.846894681

$$$$
