
     RDKit          3D

 36 39  0  0  0  0  0  0  0  0999 V2000
   45.3590   33.6250   46.5030 C   0  0  0  0  0  0  0  0  0  0  0  0
   44.4960   34.2190   47.2310 O   0  0  0  0  0  0  0  0  0  0  0  0
   45.9700   32.4240   47.0820 C   0  0  0  0  0  0  0  0  0  0  0  0
   47.1540   32.5540   47.7600 C   0  0  0  0  0  0  0  0  0  0  0  0
   47.7320   31.3990   48.3120 C   0  0  0  0  0  0  0  0  0  0  0  0
   47.1240   30.1570   48.1760 C   0  0  0  0  0  0  0  0  0  0  0  0
   45.9420   30.0890   47.4870 C   0  0  0  0  0  0  0  0  0  0  0  0
   45.4040   31.2080   46.9660 N   0  0  0  0  0  0  0  0  0  0  0  0
   45.2170   28.8360   47.2850 C   0  0  0  0  0  0  0  0  0  0  0  0
   44.2440   28.7220   46.3540 N   0  0  0  0  0  0  0  0  0  0  0  0
   43.7660   27.5110   46.3820 O   0  0  0  0  0  0  0  0  0  0  0  0
   44.3770   26.7890   47.2970 C   0  0  0  0  0  0  0  0  0  0  0  0
   45.2900   27.6130   47.8710 N   0  0  0  0  0  0  0  0  0  0  0  0
   45.3060   35.4100   43.2990 C   0  0  0  0  0  0  0  0  0  0  0  0
   46.4930   34.9650   42.6750 C   0  0  0  0  0  0  0  0  0  0  0  0
   47.2490   34.0730   43.3910 C   0  0  0  0  0  0  0  0  0  0  0  0
   46.8500   33.6630   44.6250 N   0  0  0  0  0  0  0  0  0  0  0  0
   45.7040   34.1120   45.1930 C   0  0  0  0  0  0  0  0  0  0  0  0
   44.9490   34.9730   44.5310 N   0  0  0  0  0  0  0  0  0  0  0  0
   48.4950   33.5130   42.9060 C   0  0  0  0  0  0  0  0  0  0  0  0
   48.5590   32.1790   42.5710 C   0  0  0  0  0  0  0  0  0  0  0  0
   49.7130   31.5520   42.0970 C   0  0  0  0  0  0  0  0  0  0  0  0
   50.8500   32.3050   41.9540 C   0  0  0  0  0  0  0  0  0  0  0  0
   50.8000   33.6300   42.2820 C   0  0  0  0  0  0  0  0  0  0  0  0
   49.6650   34.2230   42.7430 C   0  0  0  0  0  0  0  0  0  0  0  0
   47.6382   33.5357   47.8688 H   0  0  0  0  0  0  0  0  0  0  0  0
   48.6818   31.4790   48.8611 H   0  0  0  0  0  0  0  0  0  0  0  0
   47.5789   29.2540   48.6093 H   0  0  0  0  0  0  0  0  0  0  0  0
   44.1868   25.7344   47.5455 H   0  0  0  0  0  0  0  0  0  0  0  0
   44.6577   36.1266   42.7734 H   0  0  0  0  0  0  0  0  0  0  0  0
   46.7924   35.3131   41.6754 H   0  0  0  0  0  0  0  0  0  0  0  0
   47.6484   31.5722   42.6833 H   0  0  0  0  0  0  0  0  0  0  0  0
   49.7101   30.4813   41.8447 H   0  0  0  0  0  0  0  0  0  0  0  0
   51.7815   31.8522   41.5835 H   0  0  0  0  0  0  0  0  0  0  0  0
   51.7090   34.2392   42.1696 H   0  0  0  0  0  0  0  0  0  0  0  0
   49.6819   35.2945   42.9914 H   0  0  0  0  0  0  0  0  0  0  0  0
  1  3  1  0
  1  2  2  0
  3  4  2  0
  4  5  1  0
  6  5  2  0
  7  6  1  0
  8  3  1  0
  8  7  2  0
  9  7  1  0
  9 13  1  0
 10 11  1  0
 10  9  2  0
 11 12  1  0
 12 13  2  0
 14 19  2  0
 15 14  1  0
 15 16  2  0
 16 17  1  0
 17 18  2  0
 18  1  1  0
 19 18  1  0
 20 16  1  0
 21 20  2  0
 22 21  1  0
 23 22  2  0
 23 24  1  0
 24 25  2  0
 25 20  1  0
  4 26  1  0
  5 27  1  0
  6 28  1  0
 12 29  1  0
 14 30  1  0
 15 31  1  0
 21 32  1  0
 22 33  1  0
 23 34  1  0
 24 35  1  0
 25 36  1  0
M  ISO  8  26  14  27  14  28  14  29  14  30  14  31  14  32  14  33  14
M  ISO  3  34  14  35  14  36  14
M  END
>  <minimizedAffinity>  (1) 
-6.14726925

>  <minimizedRMSD>  (1) 
0.772584677

$$$$
