
     RDKit          3D

 33 35  0  0  0  0  0  0  0  0999 V2000
   45.3980   33.6060   46.4970 C   0  0  0  0  0  0  0  0  0  0  0  0
   44.5230   34.2340   47.1760 O   0  0  0  0  0  0  0  0  0  0  0  0
   45.9640   32.4100   47.1370 C   0  0  0  0  0  0  0  0  0  0  0  0
   47.1050   32.5410   47.8970 C   0  0  0  0  0  0  0  0  0  0  0  0
   47.6450   31.4020   48.5060 C   0  0  0  0  0  0  0  0  0  0  0  0
   47.0440   30.1750   48.3450 C   0  0  0  0  0  0  0  0  0  0  0  0
   45.9140   30.0790   47.5860 C   0  0  0  0  0  0  0  0  0  0  0  0
   45.4090   31.1880   47.0080 N   0  0  0  0  0  0  0  0  0  0  0  0
   45.1960   28.8310   47.3500 C   0  0  0  0  0  0  0  0  0  0  0  0
   44.2640   28.7010   46.4020 N   0  0  0  0  0  0  0  0  0  0  0  0
   43.7900   27.5020   46.4060 O   0  0  0  0  0  0  0  0  0  0  0  0
   44.3760   26.7750   47.3490 C   0  0  0  0  0  0  0  0  0  0  0  0
   45.2660   27.6060   47.9500 N   0  0  0  0  0  0  0  0  0  0  0  0
   45.5580   35.3440   43.2800 C   0  0  0  0  0  0  0  0  0  0  0  0
   46.6910   34.7890   42.6820 C   0  0  0  0  0  0  0  0  0  0  0  0
   47.3700   33.8360   43.3920 C   0  0  0  0  0  0  0  0  0  0  0  0
   46.8940   33.4910   44.6400 N   0  0  0  0  0  0  0  0  0  0  0  0
   45.8090   34.0380   45.1880 C   0  0  0  0  0  0  0  0  0  0  0  0
   45.1450   34.9610   44.5100 N   0  0  0  0  0  0  0  0  0  0  0  0
   48.5420   33.1650   42.9530 N   0  0  0  0  0  0  0  0  0  0  0  0
   49.6800   33.8330   42.4310 C   0  0  0  0  0  0  0  0  0  0  0  0
   50.0580   34.8950   43.1040 N   0  0  0  0  0  0  0  0  0  0  0  0
   50.3240   33.3340   41.2580 N   0  0  0  0  0  0  0  0  0  0  0  0
   50.8740   35.4740   42.8300 H   0  0  0  0  0  0  0  0  0  0  0  0
   47.5836   33.5233   48.0233 H   0  0  0  0  0  0  0  0  0  0  0  0
   48.5555   31.4886   49.1171 H   0  0  0  0  0  0  0  0  0  0  0  0
   47.4699   29.2806   48.8231 H   0  0  0  0  0  0  0  0  0  0  0  0
   44.1815   25.7201   47.5927 H   0  0  0  0  0  0  0  0  0  0  0  0
   44.9869   36.1118   42.7375 H   0  0  0  0  0  0  0  0  0  0  0  0
   47.0240   35.1044   41.6822 H   0  0  0  0  0  0  0  0  0  0  0  0
   48.5675   32.1373   43.0170 H   0  0  0  0  0  0  0  0  0  0  0  0
   51.1500   33.8183   40.8785 H   0  0  0  0  0  0  0  0  0  0  0  0
   49.9624   32.4899   40.7916 H   0  0  0  0  0  0  0  0  0  0  0  0
  1  3  1  0
  1  2  2  0
  3  4  2  0
  4  5  1  0
  6  5  2  0
  7  6  1  0
  8  3  1  0
  8  7  2  0
  9  7  1  0
  9 13  1  0
 10 11  1  0
 10  9  2  0
 11 12  1  0
 12 13  2  0
 14 19  2  0
 15 14  1  0
 15 16  2  0
 16 17  1  0
 17 18  2  0
 18  1  1  0
 19 18  1  0
 20 16  1  0
 21 20  1  0
 21 22  2  0
 23 21  1  0
 24 22  1  0
  4 25  1  0
  5 26  1  0
  6 27  1  0
 12 28  1  0
 14 29  1  0
 15 30  1  0
 20 31  1  0
 23 32  1  0
 23 33  1  0
M  ISO  6  25  14  26  14  27  14  28  14  29  14  30  14
M  END
>  <minimizedAffinity>  (1) 
-6.09802198

>  <minimizedRMSD>  (1) 
0.644921184

$$$$
