
     RDKit          3D

 34 37  0  0  0  0  0  0  0  0999 V2000
   45.3750   33.6440   46.4540 C   0  0  0  0  0  0  0  0  0  0  0  0
   44.5220   34.2260   47.1860 O   0  0  0  0  0  0  0  0  0  0  0  0
   45.9930   32.4400   47.0270 C   0  0  0  0  0  0  0  0  0  0  0  0
   47.1910   32.5600   47.6900 C   0  0  0  0  0  0  0  0  0  0  0  0
   47.7710   31.4110   48.2330 C   0  0  0  0  0  0  0  0  0  0  0  0
   47.1550   30.1750   48.1080 C   0  0  0  0  0  0  0  0  0  0  0  0
   45.9650   30.0940   47.4430 C   0  0  0  0  0  0  0  0  0  0  0  0
   45.4210   31.2230   46.9250 N   0  0  0  0  0  0  0  0  0  0  0  0
   45.2380   28.8490   47.2560 C   0  0  0  0  0  0  0  0  0  0  0  0
   44.2490   28.7270   46.3400 N   0  0  0  0  0  0  0  0  0  0  0  0
   43.7770   27.5220   46.3880 O   0  0  0  0  0  0  0  0  0  0  0  0
   44.3980   26.8100   47.2930 C   0  0  0  0  0  0  0  0  0  0  0  0
   45.3250   27.6270   47.8570 N   0  0  0  0  0  0  0  0  0  0  0  0
   45.3390   35.4610   43.2760 C   0  0  0  0  0  0  0  0  0  0  0  0
   46.4860   34.9790   42.6210 C   0  0  0  0  0  0  0  0  0  0  0  0
   47.2230   34.0460   43.3080 C   0  0  0  0  0  0  0  0  0  0  0  0
   46.8240   33.6450   44.5450 N   0  0  0  0  0  0  0  0  0  0  0  0
   45.7200   34.1240   45.1470 C   0  0  0  0  0  0  0  0  0  0  0  0
   44.9820   35.0260   44.5170 N   0  0  0  0  0  0  0  0  0  0  0  0
   48.4290   33.4930   42.7020 C   0  0  0  0  0  0  0  0  0  0  0  0
   49.6250   34.1800   42.8090 C   0  0  0  0  0  0  0  0  0  0  0  0
   50.7120   33.5560   42.1910 C   0  0  0  0  0  0  0  0  0  0  0  0
   50.6140   32.3940   41.5500 N   0  0  0  0  0  0  0  0  0  0  0  0
   49.4390   31.7680   41.4740 C   0  0  0  0  0  0  0  0  0  0  0  0
   48.3410   32.3250   42.0560 N   0  0  0  0  0  0  0  0  0  0  0  0
   47.6822   33.5391   47.7908 H   0  0  0  0  0  0  0  0  0  0  0  0
   48.7296   31.4878   48.7671 H   0  0  0  0  0  0  0  0  0  0  0  0
   47.6175   29.2742   48.5376 H   0  0  0  0  0  0  0  0  0  0  0  0
   44.2070   25.7569   47.5471 H   0  0  0  0  0  0  0  0  0  0  0  0
   44.7117   36.2110   42.7720 H   0  0  0  0  0  0  0  0  0  0  0  0
   46.7755   35.3282   41.6189 H   0  0  0  0  0  0  0  0  0  0  0  0
   49.7133   35.1404   43.3381 H   0  0  0  0  0  0  0  0  0  0  0  0
   51.6946   34.0484   42.2365 H   0  0  0  0  0  0  0  0  0  0  0  0
   49.3571   30.8074   40.9443 H   0  0  0  0  0  0  0  0  0  0  0  0
  1  3  1  0
  1  2  2  0
  3  4  2  0
  4  5  1  0
  6  5  2  0
  7  6  1  0
  8  3  1  0
  8  7  2  0
  9  7  1  0
  9 13  1  0
 10 11  1  0
 10  9  2  0
 11 12  1  0
 12 13  2  0
 14 19  2  0
 15 14  1  0
 15 16  2  0
 16 17  1  0
 17 18  2  0
 18  1  1  0
 19 18  1  0
 20 21  2  0
 20 16  1  0
 22 21  1  0
 23 22  2  0
 24 23  1  0
 24 25  2  0
 25 20  1  0
  4 26  1  0
  5 27  1  0
  6 28  1  0
 12 29  1  0
 14 30  1  0
 15 31  1  0
 21 32  1  0
 22 33  1  0
 24 34  1  0
M  ISO  8  26  14  27  14  28  14  29  14  30  14  31  14  32  14  33  14
M  ISO  1  34  14
M  END
>  <minimizedAffinity>  (1) 
-5.82452536

>  <minimizedRMSD>  (1) 
0.667299628

$$$$
