
     RDKit          3D

 32 35  0  0  0  0  0  0  0  0999 V2000
   45.4000   33.6200   46.4730 C   0  0  0  0  0  0  0  0  0  0  0  0
   44.5300   34.1870   47.2190 O   0  0  0  0  0  0  0  0  0  0  0  0
   46.0480   32.4380   47.0330 C   0  0  0  0  0  0  0  0  0  0  0  0
   47.2320   32.5890   47.7050 C   0  0  0  0  0  0  0  0  0  0  0  0
   47.8500   31.4490   48.2410 C   0  0  0  0  0  0  0  0  0  0  0  0
   47.2900   30.2020   48.1000 C   0  0  0  0  0  0  0  0  0  0  0  0
   46.1090   30.1000   47.4210 C   0  0  0  0  0  0  0  0  0  0  0  0
   45.5250   31.1970   46.9130 N   0  0  0  0  0  0  0  0  0  0  0  0
   45.4220   28.8190   47.2110 C   0  0  0  0  0  0  0  0  0  0  0  0
   44.3060   28.7220   46.4530 N   0  0  0  0  0  0  0  0  0  0  0  0
   43.9150   27.4830   46.4400 O   0  0  0  0  0  0  0  0  0  0  0  0
   44.7190   26.7260   47.1590 C   0  0  0  0  0  0  0  0  0  0  0  0
   45.6680   27.5600   47.6450 N   0  0  0  0  0  0  0  0  0  0  0  0
   45.2850   35.4920   43.3180 C   0  0  0  0  0  0  0  0  0  0  0  0
   46.4170   35.0150   42.6480 C   0  0  0  0  0  0  0  0  0  0  0  0
   47.1970   34.0610   43.2940 C   0  0  0  0  0  0  0  0  0  0  0  0
   46.7930   33.6610   44.5380 N   0  0  0  0  0  0  0  0  0  0  0  0
   45.7090   34.1280   45.1600 C   0  0  0  0  0  0  0  0  0  0  0  0
   44.9690   35.0350   44.5460 N   0  0  0  0  0  0  0  0  0  0  0  0
   48.4070   33.4950   42.6770 C   0  0  0  0  0  0  0  0  0  0  0  0
   48.3280   32.2600   41.9100 C   0  0  0  0  0  0  0  0  0  0  0  0
   50.1340   32.0940   41.4220 S   0  0  0  0  0  0  0  0  0  0  0  0
   50.6120   33.6910   42.3360 C   0  0  0  0  0  0  0  0  0  0  0  0
   49.5640   34.1020   42.8190 N   0  0  0  0  0  0  0  0  0  0  0  0
   47.6886   33.5829   47.8220 H   0  0  0  0  0  0  0  0  0  0  0  0
   48.8006   31.5555   48.7842 H   0  0  0  0  0  0  0  0  0  0  0  0
   47.7788   29.3114   48.5218 H   0  0  0  0  0  0  0  0  0  0  0  0
   44.6362   25.6423   47.3288 H   0  0  0  0  0  0  0  0  0  0  0  0
   44.6463   36.2478   42.8375 H   0  0  0  0  0  0  0  0  0  0  0  0
   46.6811   35.3816   41.6451 H   0  0  0  0  0  0  0  0  0  0  0  0
   47.4660   31.6153   41.6835 H   0  0  0  0  0  0  0  0  0  0  0  0
   51.6104   34.1460   42.4140 H   0  0  0  0  0  0  0  0  0  0  0  0
  1  3  1  0
  1  2  2  0
  3  4  2  0
  4  5  1  0
  6  5  2  0
  7  6  1  0
  8  3  1  0
  8  7  2  0
  9  7  1  0
  9 13  1  0
 10  9  2  0
 11 10  1  0
 11 12  1  0
 12 13  2  0
 14 19  2  0
 15 16  2  0
 15 14  1  0
 16 17  1  0
 17 18  2  0
 18  1  1  0
 19 18  1  0
 20 24  1  0
 20 16  1  0
 21 20  2  0
 22 21  1  0
 22 23  1  0
 23 24  2  0
  4 25  1  0
  5 26  1  0
  6 27  1  0
 12 28  1  0
 14 29  1  0
 15 30  1  0
 21 31  1  0
 23 32  1  0
M  ISO  8  25  14  26  14  27  14  28  14  29  14  30  14  31  14  32  14
M  END
>  <minimizedAffinity>  (1) 
-5.6212678

>  <minimizedRMSD>  (1) 
0.416503578

$$$$
