
     RDKit          3D

 33 36  0  0  0  0  0  0  0  0999 V2000
   45.4010   33.6160   46.4490 C   0  0  0  0  0  0  0  0  0  0  0  0
   44.5160   34.2360   47.1320 O   0  0  0  0  0  0  0  0  0  0  0  0
   45.9780   32.4240   47.0820 C   0  0  0  0  0  0  0  0  0  0  0  0
   47.1240   32.5550   47.8300 C   0  0  0  0  0  0  0  0  0  0  0  0
   47.6660   31.4140   48.4300 C   0  0  0  0  0  0  0  0  0  0  0  0
   47.0650   30.1780   48.2750 C   0  0  0  0  0  0  0  0  0  0  0  0
   45.9210   30.0910   47.5190 C   0  0  0  0  0  0  0  0  0  0  0  0
   45.4140   31.2010   46.9500 N   0  0  0  0  0  0  0  0  0  0  0  0
   45.2100   28.8370   47.2960 C   0  0  0  0  0  0  0  0  0  0  0  0
   44.2510   28.7200   46.3670 N   0  0  0  0  0  0  0  0  0  0  0  0
   43.7890   27.5140   46.3820 O   0  0  0  0  0  0  0  0  0  0  0  0
   44.3990   26.7790   47.2990 C   0  0  0  0  0  0  0  0  0  0  0  0
   45.3030   27.6200   47.8810 N   0  0  0  0  0  0  0  0  0  0  0  0
   45.4750   35.2940   43.1980 C   0  0  0  0  0  0  0  0  0  0  0  0
   46.6790   34.8460   42.6420 C   0  0  0  0  0  0  0  0  0  0  0  0
   47.4300   33.9750   43.4100 C   0  0  0  0  0  0  0  0  0  0  0  0
   46.9820   33.5980   44.6440 N   0  0  0  0  0  0  0  0  0  0  0  0
   45.8090   34.0560   45.1440 C   0  0  0  0  0  0  0  0  0  0  0  0
   45.0610   34.8970   44.4290 N   0  0  0  0  0  0  0  0  0  0  0  0
   48.6560   33.4880   42.9000 N   0  0  0  0  0  0  0  0  0  0  0  0
   48.9150   32.2420   42.5620 N   0  0  0  0  0  0  0  0  0  0  0  0
   50.1940   32.1420   42.1120 C   0  0  0  0  0  0  0  0  0  0  0  0
   50.7600   33.3980   42.1760 C   0  0  0  0  0  0  0  0  0  0  0  0
   49.7610   34.2170   42.6750 C   0  0  0  0  0  0  0  0  0  0  0  0
   47.6045   33.5367   47.9539 H   0  0  0  0  0  0  0  0  0  0  0  0
   48.5820   31.5006   49.0329 H   0  0  0  0  0  0  0  0  0  0  0  0
   47.4944   29.2823   48.7476 H   0  0  0  0  0  0  0  0  0  0  0  0
   44.2169   25.7211   47.5394 H   0  0  0  0  0  0  0  0  0  0  0  0
   44.8459   35.9878   42.6211 H   0  0  0  0  0  0  0  0  0  0  0  0
   47.0110   35.1703   41.6447 H   0  0  0  0  0  0  0  0  0  0  0  0
   50.6884   31.2245   41.7602 H   0  0  0  0  0  0  0  0  0  0  0  0
   51.7829   33.6866   41.8923 H   0  0  0  0  0  0  0  0  0  0  0  0
   49.8577   35.2973   42.8586 H   0  0  0  0  0  0  0  0  0  0  0  0
  1  3  1  0
  1  2  2  0
  3  4  2  0
  4  5  1  0
  6  5  2  0
  7  6  1  0
  8  3  1  0
  8  7  2  0
  9  7  1  0
  9 13  1  0
 10 11  1  0
 10  9  2  0
 11 12  1  0
 12 13  2  0
 14 19  2  0
 15 14  1  0
 15 16  2  0
 16 17  1  0
 17 18  2  0
 18  1  1  0
 19 18  1  0
 20 16  1  0
 21 20  1  0
 22 23  1  0
 22 21  2  0
 23 24  2  0
 24 20  1  0
  4 25  1  0
  5 26  1  0
  6 27  1  0
 12 28  1  0
 14 29  1  0
 15 30  1  0
 22 31  1  0
 23 32  1  0
 24 33  1  0
M  ISO  8  25  14  26  14  27  14  28  14  29  14  30  14  31  14  32  14
M  ISO  1  33  14
M  END
>  <minimizedAffinity>  (1) 
-5.65037441

>  <minimizedRMSD>  (1) 
0.632120132

$$$$
