
     RDKit          3D

 38 41  0  0  0  0  0  0  0  0999 V2000
   45.3990   33.6150   46.4780 C   0  0  0  0  0  0  0  0  0  0  0  0
   44.5170   34.2360   47.1580 O   0  0  0  0  0  0  0  0  0  0  0  0
   45.9700   32.4310   47.1050 C   0  0  0  0  0  0  0  0  0  0  0  0
   47.1140   32.5570   47.8500 C   0  0  0  0  0  0  0  0  0  0  0  0
   47.6620   31.4160   48.4540 C   0  0  0  0  0  0  0  0  0  0  0  0
   47.0560   30.1730   48.2970 C   0  0  0  0  0  0  0  0  0  0  0  0
   45.9190   30.0940   47.5470 C   0  0  0  0  0  0  0  0  0  0  0  0
   45.4070   31.2040   46.9760 N   0  0  0  0  0  0  0  0  0  0  0  0
   45.1990   28.8350   47.3180 C   0  0  0  0  0  0  0  0  0  0  0  0
   44.2470   28.7190   46.3720 N   0  0  0  0  0  0  0  0  0  0  0  0
   43.7830   27.5050   46.3930 O   0  0  0  0  0  0  0  0  0  0  0  0
   44.3830   26.7930   47.3150 C   0  0  0  0  0  0  0  0  0  0  0  0
   45.2900   27.6090   47.9240 N   0  0  0  0  0  0  0  0  0  0  0  0
   45.5270   35.3650   43.2520 C   0  0  0  0  0  0  0  0  0  0  0  0
   46.6750   34.8340   42.6460 C   0  0  0  0  0  0  0  0  0  0  0  0
   47.3510   33.8950   43.3830 C   0  0  0  0  0  0  0  0  0  0  0  0
   46.9150   33.5210   44.6160 N   0  0  0  0  0  0  0  0  0  0  0  0
   45.8050   34.0520   45.1710 C   0  0  0  0  0  0  0  0  0  0  0  0
   45.1200   34.9700   44.4860 N   0  0  0  0  0  0  0  0  0  0  0  0
   48.5260   33.3050   42.8440 N   0  0  0  0  0  0  0  0  0  0  0  0
   48.6460   31.9310   42.4000 C   0  0  0  0  0  0  0  0  0  0  0  0
   50.1370   31.6950   42.4010 C   0  0  0  0  0  0  0  0  0  0  0  0
   50.6310   33.0200   41.8050 C   0  0  0  0  0  0  0  0  0  0  0  0
   49.8110   33.9930   42.6470 C   0  0  0  0  0  0  0  0  0  0  0  0
   47.5950   33.5387   47.9722 H   0  0  0  0  0  0  0  0  0  0  0  0
   48.5780   31.5042   49.0566 H   0  0  0  0  0  0  0  0  0  0  0  0
   47.4838   29.2750   48.7667 H   0  0  0  0  0  0  0  0  0  0  0  0
   44.1912   25.7363   47.5529 H   0  0  0  0  0  0  0  0  0  0  0  0
   44.9397   36.1227   42.7126 H   0  0  0  0  0  0  0  0  0  0  0  0
   47.0107   35.1492   41.6470 H   0  0  0  0  0  0  0  0  0  0  0  0
   48.2277   31.8051   41.3904 H   0  0  0  0  0  0  0  0  0  0  0  0
   48.0975   31.2227   43.0384 H   0  0  0  0  0  0  0  0  0  0  0  0
   50.5227   31.5391   43.4193 H   0  0  0  0  0  0  0  0  0  0  0  0
   50.4591   30.7976   41.8525 H   0  0  0  0  0  0  0  0  0  0  0  0
   51.7121   33.1591   41.9527 H   0  0  0  0  0  0  0  0  0  0  0  0
   50.5059   33.1205   40.7168 H   0  0  0  0  0  0  0  0  0  0  0  0
   50.3030   34.1844   43.6120 H   0  0  0  0  0  0  0  0  0  0  0  0
   49.6940   34.9739   42.1632 H   0  0  0  0  0  0  0  0  0  0  0  0
  1  3  1  0
  1  2  2  0
  3  4  2  0
  4  5  1  0
  6  5  2  0
  7  6  1  0
  8  3  1  0
  8  7  2  0
  9  7  1  0
  9 13  1  0
 10 11  1  0
 10  9  2  0
 11 12  1  0
 12 13  2  0
 14 19  2  0
 15 14  1  0
 15 16  2  0
 16 17  1  0
 17 18  2  0
 18  1  1  0
 19 18  1  0
 20 16  1  0
 21 22  1  0
 21 20  1  0
 23 22  1  0
 23 24  1  0
 24 20  1  0
  4 25  1  0
  5 26  1  0
  6 27  1  0
 12 28  1  0
 14 29  1  0
 15 30  1  0
 21 31  1  0
 21 32  1  0
 22 33  1  0
 22 34  1  0
 23 35  1  0
 23 36  1  0
 24 37  1  0
 24 38  1  0
M  ISO  8  25  14  26  14  27  14  28  14  29  14  30  14  31  13  32  13
M  ISO  6  33  13  34  13  35  13  36  13  37  13  38  13
M  END
>  <minimizedAffinity>  (1) 
-5.53092718

>  <minimizedRMSD>  (1) 
0.591844618

$$$$
