
     RDKit          3D

 32 34  0  0  0  0  0  0  0  0999 V2000
   46.0750   32.3570   47.0170 C   0  0  0  0  0  0  0  0  0  0  0  0
   47.2820   32.4870   47.6730 C   0  0  0  0  0  0  0  0  0  0  0  0
   47.8910   31.3350   48.1850 C   0  0  0  0  0  0  0  0  0  0  0  0
   47.3010   30.0920   48.0410 C   0  0  0  0  0  0  0  0  0  0  0  0
   46.1000   30.0110   47.3800 C   0  0  0  0  0  0  0  0  0  0  0  0
   45.5240   31.1310   46.8910 N   0  0  0  0  0  0  0  0  0  0  0  0
   45.3920   28.7540   47.1720 C   0  0  0  0  0  0  0  0  0  0  0  0
   44.2840   28.6760   46.4270 N   0  0  0  0  0  0  0  0  0  0  0  0
   43.8620   27.4570   46.4090 O   0  0  0  0  0  0  0  0  0  0  0  0
   44.6430   26.6700   47.1230 C   0  0  0  0  0  0  0  0  0  0  0  0
   45.6190   27.4930   47.6120 N   0  0  0  0  0  0  0  0  0  0  0  0
   45.4340   33.5610   46.4780 C   0  0  0  0  0  0  0  0  0  0  0  0
   44.5720   34.1200   47.2370 O   0  0  0  0  0  0  0  0  0  0  0  0
   45.3000   35.4110   43.3150 C   0  0  0  0  0  0  0  0  0  0  0  0
   46.4660   35.0020   42.6710 C   0  0  0  0  0  0  0  0  0  0  0  0
   47.2740   34.0980   43.3420 C   0  0  0  0  0  0  0  0  0  0  0  0
   46.8940   33.6570   44.5830 N   0  0  0  0  0  0  0  0  0  0  0  0
   45.7650   34.0710   45.1720 C   0  0  0  0  0  0  0  0  0  0  0  0
   44.9820   34.9360   44.5430 N   0  0  0  0  0  0  0  0  0  0  0  0
   48.5670   33.5260   42.8430 C   0  0  0  0  0  0  0  0  0  0  0  0
   49.5490   34.6510   42.5960 C   0  0  0  0  0  0  0  0  0  0  0  0
   47.7549   33.4731   47.7910 H   0  0  0  0  0  0  0  0  0  0  0  0
   48.8539   31.4196   48.7101 H   0  0  0  0  0  0  0  0  0  0  0  0
   47.7825   29.1899   48.4464 H   0  0  0  0  0  0  0  0  0  0  0  0
   44.5332   25.5881   47.2888 H   0  0  0  0  0  0  0  0  0  0  0  0
   44.6293   36.1287   42.8199 H   0  0  0  0  0  0  0  0  0  0  0  0
   46.7335   35.3803   41.6733 H   0  0  0  0  0  0  0  0  0  0  0  0
   48.9788   32.8373   43.5953 H   0  0  0  0  0  0  0  0  0  0  0  0
   48.3904   32.9784   41.9055 H   0  0  0  0  0  0  0  0  0  0  0  0
   49.8982   35.0510   43.5594 H   0  0  0  0  0  0  0  0  0  0  0  0
   50.4079   34.2692   42.0246 H   0  0  0  0  0  0  0  0  0  0  0  0
   49.0546   35.4504   42.0246 H   0  0  0  0  0  0  0  0  0  0  0  0
  1  2  2  0
  2  3  1  0
  4  3  2  0
  5  4  1  0
  6  1  1  0
  6  5  2  0
  7  5  1  0
  7 11  1  0
  8  7  2  0
  9  8  1  0
  9 10  1  0
 10 11  2  0
 12  1  1  0
 12 13  2  0
 14 19  2  0
 15 14  1  0
 15 16  2  0
 16 17  1  0
 17 18  2  0
 18 12  1  0
 19 18  1  0
 20 16  1  0
 21 20  1  0
  2 22  1  0
  3 23  1  0
  4 24  1  0
 10 25  1  0
 14 26  1  0
 15 27  1  0
 20 28  1  0
 20 29  1  0
 21 30  1  0
 21 31  1  0
 21 32  1  0
M  ISO  8  22  14  23  14  24  14  25  14  26  14  27  14  28   8  29   8
M  ISO  3  30   8  31   8  32   8
M  END
>  <minimizedAffinity>  (1) 
-5.1862793

>  <minimizedRMSD>  (1) 
0.538547516

$$$$
