
     RDKit          3D

 28 30  0  0  0  0  0  0  0  0999 V2000
   46.0350   32.3420   47.0400 C   0  0  0  0  0  0  0  0  0  0  0  0
   47.2630   32.4510   47.6670 C   0  0  0  0  0  0  0  0  0  0  0  0
   47.8650   31.2940   48.1810 C   0  0  0  0  0  0  0  0  0  0  0  0
   47.2420   30.0600   48.0630 C   0  0  0  0  0  0  0  0  0  0  0  0
   46.0320   29.9970   47.4370 C   0  0  0  0  0  0  0  0  0  0  0  0
   45.4610   31.1230   46.9460 N   0  0  0  0  0  0  0  0  0  0  0  0
   45.2760   28.7520   47.2530 C   0  0  0  0  0  0  0  0  0  0  0  0
   44.2600   28.6540   46.3800 N   0  0  0  0  0  0  0  0  0  0  0  0
   43.7790   27.4540   46.4220 O   0  0  0  0  0  0  0  0  0  0  0  0
   44.4400   26.7200   47.3080 C   0  0  0  0  0  0  0  0  0  0  0  0
   45.3850   27.5260   47.8370 N   0  0  0  0  0  0  0  0  0  0  0  0
   45.4130   33.5580   46.5060 C   0  0  0  0  0  0  0  0  0  0  0  0
   44.5690   34.1210   47.2640 O   0  0  0  0  0  0  0  0  0  0  0  0
   45.2940   35.4200   43.3650 C   0  0  0  0  0  0  0  0  0  0  0  0
   46.4560   34.9980   42.6960 C   0  0  0  0  0  0  0  0  0  0  0  0
   47.2450   34.0750   43.3640 C   0  0  0  0  0  0  0  0  0  0  0  0
   46.8630   33.6350   44.6050 N   0  0  0  0  0  0  0  0  0  0  0  0
   45.7490   34.0620   45.2070 C   0  0  0  0  0  0  0  0  0  0  0  0
   44.9630   34.9550   44.5890 N   0  0  0  0  0  0  0  0  0  0  0  0
   48.4600   33.5820   42.7560 C   0  0  0  0  0  0  0  0  0  0  0  0
   49.5110   34.2470   42.7760 O   0  0  0  0  0  0  0  0  0  0  0  0
   47.7586   33.4285   47.7607 H   0  0  0  0  0  0  0  0  0  0  0  0
   48.8412   31.3653   48.6830 H   0  0  0  0  0  0  0  0  0  0  0  0
   47.7140   29.1517   48.4658 H   0  0  0  0  0  0  0  0  0  0  0  0
   44.2550   25.6656   47.5609 H   0  0  0  0  0  0  0  0  0  0  0  0
   44.6338   36.1517   42.8764 H   0  0  0  0  0  0  0  0  0  0  0  0
   46.7238   35.3786   41.6993 H   0  0  0  0  0  0  0  0  0  0  0  0
   48.4552   32.5976   42.2651 H   0  0  0  0  0  0  0  0  0  0  0  0
  1  2  2  0
  2  3  1  0
  4  3  2  0
  5  4  1  0
  6  1  1  0
  6  5  2  0
  7  5  1  0
  7 11  1  0
  8  9  1  0
  8  7  2  0
  9 10  1  0
 10 11  2  0
 12  1  1  0
 12 13  2  0
 14 19  2  0
 15 16  2  0
 15 14  1  0
 16 17  1  0
 17 18  2  0
 18 12  1  0
 19 18  1  0
 20 21  2  0
 20 16  1  0
  2 22  1  0
  3 23  1  0
  4 24  1  0
 10 25  1  0
 14 26  1  0
 15 27  1  0
 20 28  1  0
M  ISO  7  22  14  23  14  24  14  25  14  26  14  27  14  28   6
M  END
>  <minimizedAffinity>  (1) 
-4.97880411

>  <minimizedRMSD>  (1) 
0.509156168

$$$$
