
     RDKit          3D

 27 29  0  0  0  0  0  0  0  0999 V2000
   46.2110   32.2650   47.2140 C   0  0  0  0  0  0  0  0  0  0  0  0
   47.4020   32.4840   47.8810 C   0  0  0  0  0  0  0  0  0  0  0  0
   48.1120   31.3800   48.3860 C   0  0  0  0  0  0  0  0  0  0  0  0
   47.6330   30.0870   48.2200 C   0  0  0  0  0  0  0  0  0  0  0  0
   46.4370   29.9160   47.5460 C   0  0  0  0  0  0  0  0  0  0  0  0
   45.7760   30.9890   47.0720 N   0  0  0  0  0  0  0  0  0  0  0  0
   45.8530   28.6020   47.3220 C   0  0  0  0  0  0  0  0  0  0  0  0
   44.5830   28.4600   46.8810 N   0  0  0  0  0  0  0  0  0  0  0  0
   44.3080   27.1950   46.7650 O   0  0  0  0  0  0  0  0  0  0  0  0
   45.3370   26.4650   47.1070 C   0  0  0  0  0  0  0  0  0  0  0  0
   46.3320   27.3330   47.4660 N   0  0  0  0  0  0  0  0  0  0  0  0
   45.4740   33.4090   46.6910 C   0  0  0  0  0  0  0  0  0  0  0  0
   44.5960   33.8970   47.4550 O   0  0  0  0  0  0  0  0  0  0  0  0
   45.2290   35.3900   43.6180 C   0  0  0  0  0  0  0  0  0  0  0  0
   46.3170   34.9110   42.8540 C   0  0  0  0  0  0  0  0  0  0  0  0
   47.1030   33.9140   43.4270 C   0  0  0  0  0  0  0  0  0  0  0  0
   46.7780   33.4680   44.6780 N   0  0  0  0  0  0  0  0  0  0  0  0
   45.7410   33.9450   45.3720 C   0  0  0  0  0  0  0  0  0  0  0  0
   44.9780   34.8940   44.8480 N   0  0  0  0  0  0  0  0  0  0  0  0
   48.2020   33.3620   42.7690 O   0  0  0  0  0  0  0  0  0  0  0  0
   47.7881   33.5053   48.0146 H   0  0  0  0  0  0  0  0  0  0  0  0
   49.0599   31.5429   48.9199 H   0  0  0  0  0  0  0  0  0  0  0  0
   48.1889   29.2232   48.6134 H   0  0  0  0  0  0  0  0  0  0  0  0
   45.3923   25.3664   47.1063 H   0  0  0  0  0  0  0  0  0  0  0  0
   44.5793   36.1760   43.2057 H   0  0  0  0  0  0  0  0  0  0  0  0
   46.5336   35.3079   41.8512 H   0  0  0  0  0  0  0  0  0  0  0  0
   48.7377   32.6546   43.2079 H   0  0  0  0  0  0  0  0  0  0  0  0
  1  2  2  0
  2  3  1  0
  4  3  2  0
  5  4  1  0
  6  1  1  0
  6  5  2  0
  7 11  1  0
  7  5  1  0
  8  7  2  0
  9  8  1  0
  9 10  1  0
 10 11  2  0
 12  1  1  0
 12 13  2  0
 14 19  2  0
 15 16  2  0
 15 14  1  0
 16 17  1  0
 17 18  2  0
 18 12  1  0
 19 18  1  0
 20 16  1  0
  2 21  1  0
  3 22  1  0
  4 23  1  0
 10 24  1  0
 14 25  1  0
 15 26  1  0
 20 27  1  0
M  ISO  7  21  14  22  14  23  14  24  14  25  14  26  14  27   3
M  END
>  <minimizedAffinity>  (1) 
-4.86018276

>  <minimizedRMSD>  (1) 
0.0318131112

$$$$
