
     RDKit          3D

 16 16  0  0  0  0  0  0  0  0999 V2000
   47.5090   34.5650   42.2270 C   0  0  0  0  0  0  0  0  0  0  0  0
   47.8120   33.4250   43.0050 C   0  0  0  0  0  0  0  0  0  0  0  0
   47.0100   33.2030   44.1540 C   0  0  0  0  0  0  0  0  0  0  0  0
   46.0170   34.0970   44.4180 N   0  0  0  0  0  0  0  0  0  0  0  0
   45.7760   35.1590   43.6450 C   0  0  0  0  0  0  0  0  0  0  0  0
   46.5170   35.4030   42.5460 N   0  0  0  0  0  0  0  0  0  0  0  0
   48.3690   34.7860   41.0140 C   0  0  0  0  0  0  0  0  0  0  0  0
   47.6000   34.6930   39.8760 F   0  0  0  0  0  0  0  0  0  0  0  0
   48.9220   36.0440   41.0520 F   0  0  0  0  0  0  0  0  0  0  0  0
   49.3070   33.7750   40.9560 F   0  0  0  0  0  0  0  0  0  0  0  0
   44.6900   36.0640   44.0070 C   0  0  0  0  0  0  0  0  0  0  0  0
   44.9360   37.2530   44.3150 O   0  0  0  0  0  0  0  0  0  0  0  0
   43.3660   35.7030   44.0380 O   0  0  0  0  0  0  0  0  0  0  0  0
   48.6305   32.7424   42.7328 H   0  0  0  0  0  0  0  0  0  0  0  0
   47.1844   32.3374   44.8100 H   0  0  0  0  0  0  0  0  0  0  0  0
   42.6776   36.3673   44.2929 H   0  0  0  0  0  0  0  0  0  0  0  0
  1  6  2  0
  1  2  1  0
  2  3  2  0
  3  4  1  0
  5 11  1  0
  5  4  2  0
  6  5  1  0
  7  9  1  0
  7  1  1  0
  8  7  1  0
 10  7  1  0
 11 13  1  0
 11 12  2  0
  2 14  1  0
  3 15  1  0
 13 16  1  0
M  ISO  3  14  14  15  14  16   3
M  END
>  <minimizedAffinity>  (1) 
-4.796422

>  <minimizedRMSD>  (1) 
1.74929798

$$$$
