
     RDKit          3D

 16 16  0  0  0  0  0  0  0  0999 V2000
   47.8220   34.7520   42.4510 C   0  0  0  0  0  0  0  0  0  0  0  0
   48.0820   33.5350   43.1050 C   0  0  0  0  0  0  0  0  0  0  0  0
   47.1370   33.1190   44.0780 C   0  0  0  0  0  0  0  0  0  0  0  0
   46.0570   33.9100   44.3120 N   0  0  0  0  0  0  0  0  0  0  0  0
   45.8560   35.0660   43.6560 C   0  0  0  0  0  0  0  0  0  0  0  0
   46.7410   35.4750   42.7330 N   0  0  0  0  0  0  0  0  0  0  0  0
   48.8180   35.1930   41.4250 C   0  0  0  0  0  0  0  0  0  0  0  0
   48.2430   35.1500   40.1610 F   0  0  0  0  0  0  0  0  0  0  0  0
   49.2120   36.4800   41.6610 F   0  0  0  0  0  0  0  0  0  0  0  0
   49.8520   34.2720   41.4020 F   0  0  0  0  0  0  0  0  0  0  0  0
   44.6380   35.8490   43.9980 C   0  0  0  0  0  0  0  0  0  0  0  0
   44.8920   37.2050   44.0700 F   0  0  0  0  0  0  0  0  0  0  0  0
   43.6080   35.6170   43.0890 F   0  0  0  0  0  0  0  0  0  0  0  0
   44.1580   35.4840   45.2570 F   0  0  0  0  0  0  0  0  0  0  0  0
   48.9743   32.9348   42.8737 H   0  0  0  0  0  0  0  0  0  0  0  0
   47.2753   32.1778   44.6303 H   0  0  0  0  0  0  0  0  0  0  0  0
  1  6  2  0
  1  2  1  0
  2  3  2  0
  3  4  1  0
  5 11  1  0
  5  4  2  0
  6  5  1  0
  7  9  1  0
  7  1  1  0
  8  7  1  0
 10  7  1  0
 11 12  1  0
 11 14  1  0
 13 11  1  0
  2 15  1  0
  3 16  1  0
M  ISO  2  15  14  16  14
M  END
>  <minimizedAffinity>  (1) 
-4.92145252

>  <minimizedRMSD>  (1) 
2.08070707

$$$$
