
     RDKit          3D

 15 15  0  0  0  0  0  0  0  0999 V2000
   47.3040   35.0930   41.6190 C   0  0  0  0  0  0  0  0  0  0  0  0
   46.6520   34.1700   40.7730 C   0  0  0  0  0  0  0  0  0  0  0  0
   45.3130   33.8360   41.0910 C   0  0  0  0  0  0  0  0  0  0  0  0
   44.7590   34.4220   42.1780 N   0  0  0  0  0  0  0  0  0  0  0  0
   45.4190   35.2970   42.9570 C   0  0  0  0  0  0  0  0  0  0  0  0
   46.6950   35.6330   42.6770 N   0  0  0  0  0  0  0  0  0  0  0  0
   48.7270   35.4310   41.2610 C   0  0  0  0  0  0  0  0  0  0  0  0
   49.1100   36.5770   41.9060 F   0  0  0  0  0  0  0  0  0  0  0  0
   49.5610   34.4100   41.6790 F   0  0  0  0  0  0  0  0  0  0  0  0
   48.7890   35.6730   39.9120 F   0  0  0  0  0  0  0  0  0  0  0  0
   44.8160   35.9270   44.1290 C   0  0  0  0  0  0  0  0  0  0  0  0
   44.6410   35.3290   45.2190 O   0  0  0  0  0  0  0  0  0  0  0  0
   47.1622   33.7291   39.9039 H   0  0  0  0  0  0  0  0  0  0  0  0
   44.7427   33.1246   40.4756 H   0  0  0  0  0  0  0  0  0  0  0  0
   44.4995   36.9777   44.0527 H   0  0  0  0  0  0  0  0  0  0  0  0
  1  6  2  0
  2  3  2  0
  2  1  1  0
  3  4  1  0
  4  5  2  0
  5 11  1  0
  6  5  1  0
  7  1  1  0
  7  9  1  0
  7  8  1  0
 10  7  1  0
 11 12  2  0
  2 13  1  0
  3 14  1  0
 11 15  1  0
M  ISO  3  13  14  14  14  15   6
M  END
>  <minimizedAffinity>  (1) 
-4.31118822

>  <minimizedRMSD>  (1) 
2.84180474

$$$$
