
     RDKit          3D

 14 14  0  0  0  0  0  0  0  0999 V2000
   48.7820   34.0440   42.0370 C   0  0  0  0  0  0  0  0  0  0  0  0
   47.8060   33.5390   42.9290 C   0  0  0  0  0  0  0  0  0  0  0  0
   47.9870   32.2090   43.3810 C   0  0  0  0  0  0  0  0  0  0  0  0
   49.0720   31.5240   42.9320 N   0  0  0  0  0  0  0  0  0  0  0  0
   49.9640   32.0530   42.0880 C   0  0  0  0  0  0  0  0  0  0  0  0
   49.8390   33.3190   41.6230 N   0  0  0  0  0  0  0  0  0  0  0  0
   48.5780   35.4620   41.5600 C   0  0  0  0  0  0  0  0  0  0  0  0
   49.5880   36.2570   42.0400 F   0  0  0  0  0  0  0  0  0  0  0  0
   48.5940   35.4860   40.1800 F   0  0  0  0  0  0  0  0  0  0  0  0
   47.4100   35.9290   42.1020 F   0  0  0  0  0  0  0  0  0  0  0  0
   51.3560   31.0550   41.5620 S   0  0  0  0  0  0  0  0  0  0  0  0
   46.9502   34.1486   43.2547 H   0  0  0  0  0  0  0  0  0  0  0  0
   47.2710   31.7442   44.0747 H   0  0  0  0  0  0  0  0  0  0  0  0
   52.0189   30.5797   42.6627 H   0  0  0  0  0  0  0  0  0  0  0  0
  1  2  2  0
  2  3  1  0
  4  3  2  0
  5  4  1  0
  6  1  1  0
  6  5  2  0
  7  1  1  0
  7  8  1  0
  7 10  1  0
  9  7  1  0
 11  5  1  0
  2 12  1  0
  3 13  1  0
 11 14  1  0
M  ISO  3  12  14  13  14  14  11
M  END
>  <minimizedAffinity>  (1) 
-3.48922038

>  <minimizedRMSD>  (1) 
5.09036064

$$$$
