
     RDKit          3D

 30 31  0  0  0  0  0  0  0  0999 V2000
   43.9390   35.4990   42.4520 C   0  0  0  0  0  0  0  0  0  0  0  0
   47.6000   34.9420   42.2500 C   0  0  0  0  0  0  0  0  0  0  0  0
   47.8280   34.0680   43.3350 C   0  0  0  0  0  0  0  0  0  0  0  0
   46.7230   33.6860   44.1160 C   0  0  0  0  0  0  0  0  0  0  0  0
   45.5150   34.1870   43.7670 N   0  0  0  0  0  0  0  0  0  0  0  0
   45.3250   35.0170   42.7310 C   0  0  0  0  0  0  0  0  0  0  0  0
   46.3640   35.4050   41.9590 N   0  0  0  0  0  0  0  0  0  0  0  0
   48.7970   35.3270   41.4440 C   0  0  0  0  0  0  0  0  0  0  0  0
   48.4930   35.3340   40.1190 F   0  0  0  0  0  0  0  0  0  0  0  0
   49.2030   36.6110   41.7920 F   0  0  0  0  0  0  0  0  0  0  0  0
   49.7920   34.3970   41.6600 F   0  0  0  0  0  0  0  0  0  0  0  0
   43.5970   35.2490   41.0090 C   0  0  0  0  0  0  0  0  0  0  0  0
   42.2290   34.7540   40.9960 N   0  0  0  0  0  0  0  0  0  0  0  0
   41.2040   35.6250   40.8480 C   0  0  0  0  0  0  0  0  0  0  0  0
   39.9110   35.1380   40.8390 C   0  0  0  0  0  0  0  0  0  0  0  0
   39.6860   33.7830   40.9800 C   0  0  0  0  0  0  0  0  0  0  0  0
   38.4270   33.1150   40.9930 N   0  0  0  0  0  0  0  0  0  0  0  0
   40.7310   32.9270   41.1280 N   0  0  0  0  0  0  0  0  0  0  0  0
   42.0020   33.4180   41.1350 C   0  0  0  0  0  0  0  0  0  0  0  0
   42.9840   32.6310   41.2740 O   0  0  0  0  0  0  0  0  0  0  0  0
   43.2279   34.9599   43.0952 H   0  0  0  0  0  0  0  0  0  0  0  0
   43.8795   36.5777   42.6592 H   0  0  0  0  0  0  0  0  0  0  0  0
   48.8385   33.6975   43.5623 H   0  0  0  0  0  0  0  0  0  0  0  0
   46.8356   33.0081   44.9750 H   0  0  0  0  0  0  0  0  0  0  0  0
   43.6701   36.1829   40.4325 H   0  0  0  0  0  0  0  0  0  0  0  0
   44.2892   34.5262   40.5524 H   0  0  0  0  0  0  0  0  0  0  0  0
   41.3969   36.7022   40.7368 H   0  0  0  0  0  0  0  0  0  0  0  0
   39.0628   35.8282   40.7198 H   0  0  0  0  0  0  0  0  0  0  0  0
   38.3879   32.0920   41.1059 H   0  0  0  0  0  0  0  0  0  0  0  0
   37.5562   33.6553   40.8895 H   0  0  0  0  0  0  0  0  0  0  0  0
  1  6  1  0
  2  3  2  0
  3  4  1  0
  5  4  2  0
  6  5  1  0
  7  2  1  0
  7  6  2  0
  8 11  1  0
  8 10  1  0
  8  2  1  0
  9  8  1  0
 12  1  1  0
 13 12  1  0
 13 19  1  0
 14 13  1  0
 15 14  2  0
 15 16  1  0
 16 17  1  0
 16 18  2  0
 18 19  1  0
 19 20  2  0
  1 21  1  0
  1 22  1  0
  3 23  1  0
  4 24  1  0
 12 25  1  0
 12 26  1  0
 14 27  1  0
 15 28  1  0
 17 29  1  0
 17 30  1  0
M  ISO  8  21   8  22   8  23  14  24  14  25   8  26   8  27  14  28  14
M  END
>  <minimizedAffinity>  (1) 
-6.08740091

>  <minimizedRMSD>  (1) 
1.85939145

$$$$
