
     RDKit          3D

 33 34  0  0  0  0  0  0  0  0999 V2000
   43.9530   35.4390   42.5330 C   0  0  0  0  0  0  0  0  0  0  0  0
   47.6100   34.9240   42.2490 C   0  0  0  0  0  0  0  0  0  0  0  0
   47.8600   34.0440   43.3310 C   0  0  0  0  0  0  0  0  0  0  0  0
   46.7730   33.6470   44.1320 C   0  0  0  0  0  0  0  0  0  0  0  0
   45.5620   34.1430   43.7990 N   0  0  0  0  0  0  0  0  0  0  0  0
   45.3570   34.9810   42.7600 C   0  0  0  0  0  0  0  0  0  0  0  0
   46.3810   35.3670   41.9910 N   0  0  0  0  0  0  0  0  0  0  0  0
   48.7940   35.3160   41.4290 C   0  0  0  0  0  0  0  0  0  0  0  0
   48.4660   35.3110   40.0900 F   0  0  0  0  0  0  0  0  0  0  0  0
   49.1790   36.6110   41.7680 F   0  0  0  0  0  0  0  0  0  0  0  0
   49.8010   34.3880   41.6050 F   0  0  0  0  0  0  0  0  0  0  0  0
   43.6280   35.3800   41.0800 C   0  0  0  0  0  0  0  0  0  0  0  0
   42.3200   34.9280   40.7570 N   0  0  0  0  0  0  0  0  0  0  0  0
   42.0330   34.9810   39.3730 C   0  0  0  0  0  0  0  0  0  0  0  0
   40.6040   34.7050   39.0100 C   0  0  0  0  0  0  0  0  0  0  0  0
   39.6440   35.2500   39.9350 N   0  0  0  0  0  0  0  0  0  0  0  0
   40.3250   36.2650   40.7320 C   0  0  0  0  0  0  0  0  0  0  0  0
   41.2900   35.4570   41.6130 C   0  0  0  0  0  0  0  0  0  0  0  0
   43.2625   34.7867   43.0878 H   0  0  0  0  0  0  0  0  0  0  0  0
   43.8494   36.4760   42.8851 H   0  0  0  0  0  0  0  0  0  0  0  0
   48.8771   33.6806   43.5395 H   0  0  0  0  0  0  0  0  0  0  0  0
   46.9034   32.9667   44.9865 H   0  0  0  0  0  0  0  0  0  0  0  0
   43.7472   36.3922   40.6661 H   0  0  0  0  0  0  0  0  0  0  0  0
   44.3157   34.6370   40.6498 H   0  0  0  0  0  0  0  0  0  0  0  0
   42.2889   35.9873   39.0099 H   0  0  0  0  0  0  0  0  0  0  0  0
   42.6282   34.1829   38.9052 H   0  0  0  0  0  0  0  0  0  0  0  0
   40.4105   35.1375   38.0173 H   0  0  0  0  0  0  0  0  0  0  0  0
   40.4780   33.6124   39.0308 H   0  0  0  0  0  0  0  0  0  0  0  0
   38.8614   35.6760   39.4184 H   0  0  0  0  0  0  0  0  0  0  0  0
   40.8767   36.9643   40.0865 H   0  0  0  0  0  0  0  0  0  0  0  0
   39.6283   36.8806   41.3200 H   0  0  0  0  0  0  0  0  0  0  0  0
   40.7502   34.6336   42.1036 H   0  0  0  0  0  0  0  0  0  0  0  0
   41.7270   36.0958   42.3947 H   0  0  0  0  0  0  0  0  0  0  0  0
  1  6  1  0
  2  3  2  0
  3  4  1  0
  5  4  2  0
  6  5  1  0
  7  2  1  0
  7  6  2  0
  8 11  1  0
  8 10  1  0
  8  2  1  0
  9  8  1  0
 12  1  1  0
 13 12  1  0
 13 18  1  0
 14 13  1  0
 15 14  1  0
 15 16  1  0
 16 17  1  0
 17 18  1  0
  1 19  1  0
  1 20  1  0
  3 21  1  0
  4 22  1  0
 12 23  1  0
 12 24  1  0
 14 25  1  0
 14 26  1  0
 15 27  1  0
 15 28  1  0
 16 29  1  0
 17 30  1  0
 17 31  1  0
 18 32  1  0
 18 33  1  0
M  ISO  8  19   8  20   8  21  14  22  14  23   8  24   8  25  13  26  13
M  ISO  7  27  13  28  13  29   5  30  13  31  13  32  13  33  13
M  END
>  <minimizedAffinity>  (1) 
-5.54455805

>  <minimizedRMSD>  (1) 
1.44511569

$$$$
