
     RDKit          3D

 34 35  0  0  0  0  0  0  0  0999 V2000
   43.8420   35.2940   42.2240 C   0  0  0  0  0  0  0  0  0  0  0  0
   47.5350   34.8980   42.1880 C   0  0  0  0  0  0  0  0  0  0  0  0
   47.7490   34.1140   43.3390 C   0  0  0  0  0  0  0  0  0  0  0  0
   46.6330   33.7420   44.0930 C   0  0  0  0  0  0  0  0  0  0  0  0
   45.4280   34.1590   43.6650 N   0  0  0  0  0  0  0  0  0  0  0  0
   45.2460   34.9120   42.5540 C   0  0  0  0  0  0  0  0  0  0  0  0
   46.3090   35.2810   41.8140 N   0  0  0  0  0  0  0  0  0  0  0  0
   48.7390   35.2900   41.3840 C   0  0  0  0  0  0  0  0  0  0  0  0
   48.4440   35.3010   40.0480 F   0  0  0  0  0  0  0  0  0  0  0  0
   49.1540   36.5600   41.7470 F   0  0  0  0  0  0  0  0  0  0  0  0
   49.7210   34.3170   41.5750 F   0  0  0  0  0  0  0  0  0  0  0  0
   43.6030   35.0970   40.7660 C   0  0  0  0  0  0  0  0  0  0  0  0
   42.2260   35.0640   40.4490 N   0  0  0  0  0  0  0  0  0  0  0  0
   41.3180   35.6900   41.3390 C   0  0  0  0  0  0  0  0  0  0  0  0
   40.0530   36.0320   40.6290 C   0  0  0  0  0  0  0  0  0  0  0  0
   39.5360   35.0470   39.6510 C   0  0  0  0  0  0  0  0  0  0  0  0
   40.5660   34.1460   39.0450 C   0  0  0  0  0  0  0  0  0  0  0  0
   41.6870   33.8180   40.0040 C   0  0  0  0  0  0  0  0  0  0  0  0
   43.1462   34.6644   42.7980 H   0  0  0  0  0  0  0  0  0  0  0  0
   43.6791   36.3507   42.4827 H   0  0  0  0  0  0  0  0  0  0  0  0
   48.7624   33.8046   43.6346 H   0  0  0  0  0  0  0  0  0  0  0  0
   46.7360   33.1313   45.0021 H   0  0  0  0  0  0  0  0  0  0  0  0
   44.0733   35.9249   40.2152 H   0  0  0  0  0  0  0  0  0  0  0  0
   44.0378   34.1276   40.4811 H   0  0  0  0  0  0  0  0  0  0  0  0
   41.0942   35.0054   42.1704 H   0  0  0  0  0  0  0  0  0  0  0  0
   41.7736   36.6139   41.7248 H   0  0  0  0  0  0  0  0  0  0  0  0
   39.2749   36.1794   41.3924 H   0  0  0  0  0  0  0  0  0  0  0  0
   40.2962   36.9229   40.0313 H   0  0  0  0  0  0  0  0  0  0  0  0
   38.7930   34.4178   40.1629 H   0  0  0  0  0  0  0  0  0  0  0  0
   39.1187   35.6342   38.8197 H   0  0  0  0  0  0  0  0  0  0  0  0
   40.0782   33.2087   38.7392 H   0  0  0  0  0  0  0  0  0  0  0  0
   41.0060   34.6732   38.1856 H   0  0  0  0  0  0  0  0  0  0  0  0
   41.2985   33.2461   40.8596 H   0  0  0  0  0  0  0  0  0  0  0  0
   42.4589   33.2057   39.5149 H   0  0  0  0  0  0  0  0  0  0  0  0
  1  6  1  0
  2  3  2  0
  3  4  1  0
  5  4  2  0
  6  5  1  0
  7  2  1  0
  7  6  2  0
  8 11  1  0
  8 10  1  0
  8  2  1  0
  9  8  1  0
 12  1  1  0
 13 12  1  0
 13 14  1  0
 15 14  1  0
 16 15  1  0
 17 16  1  0
 17 18  1  0
 18 13  1  0
  1 19  1  0
  1 20  1  0
  3 21  1  0
  4 22  1  0
 12 23  1  0
 12 24  1  0
 14 25  1  0
 14 26  1  0
 15 27  1  0
 15 28  1  0
 16 29  1  0
 16 30  1  0
 17 31  1  0
 17 32  1  0
 18 33  1  0
 18 34  1  0
M  ISO  8  19   8  20   8  21  14  22  14  23   8  24   8  25  13  26  13
M  ISO  8  27  13  28  13  29  13  30  13  31  13  32  13  33  13  34  13
M  END
>  <minimizedAffinity>  (1) 
-5.69080925

>  <minimizedRMSD>  (1) 
1.24222517

$$$$
