
     RDKit          3D

 29 30  0  0  0  0  0  0  0  0999 V2000
   43.8560   35.2380   42.2640 C   0  0  0  0  0  0  0  0  0  0  0  0
   47.5400   34.8760   42.2090 C   0  0  0  0  0  0  0  0  0  0  0  0
   47.7810   34.1050   43.3600 C   0  0  0  0  0  0  0  0  0  0  0  0
   46.6840   33.7180   44.1370 C   0  0  0  0  0  0  0  0  0  0  0  0
   45.4640   34.1180   43.7230 N   0  0  0  0  0  0  0  0  0  0  0  0
   45.2470   34.8600   42.6170 C   0  0  0  0  0  0  0  0  0  0  0  0
   46.2910   35.2440   41.8500 N   0  0  0  0  0  0  0  0  0  0  0  0
   48.7370   35.2730   41.3990 C   0  0  0  0  0  0  0  0  0  0  0  0
   48.4330   35.2910   40.0740 F   0  0  0  0  0  0  0  0  0  0  0  0
   49.1430   36.5560   41.7560 F   0  0  0  0  0  0  0  0  0  0  0  0
   49.7310   34.3360   41.5940 F   0  0  0  0  0  0  0  0  0  0  0  0
   43.7200   35.3260   40.7660 C   0  0  0  0  0  0  0  0  0  0  0  0
   42.2430   35.1910   40.4960 C   0  0  0  0  0  0  0  0  0  0  0  0
   41.3040   35.0150   41.4920 C   0  0  0  0  0  0  0  0  0  0  0  0
   39.9710   34.9010   41.1310 C   0  0  0  0  0  0  0  0  0  0  0  0
   39.5780   34.9600   39.8060 C   0  0  0  0  0  0  0  0  0  0  0  0
   40.5010   35.1370   38.7800 C   0  0  0  0  0  0  0  0  0  0  0  0
   41.8280   35.2470   39.1730 C   0  0  0  0  0  0  0  0  0  0  0  0
   43.1610   34.4780   42.6505 H   0  0  0  0  0  0  0  0  0  0  0  0
   43.6190   36.2152   42.7100 H   0  0  0  0  0  0  0  0  0  0  0  0
   48.8038   33.8142   43.6416 H   0  0  0  0  0  0  0  0  0  0  0  0
   46.8108   33.1132   45.0470 H   0  0  0  0  0  0  0  0  0  0  0  0
   44.0922   36.2946   40.4009 H   0  0  0  0  0  0  0  0  0  0  0  0
   44.3050   34.5484   40.2531 H   0  0  0  0  0  0  0  0  0  0  0  0
   41.6068   34.9663   42.5484 H   0  0  0  0  0  0  0  0  0  0  0  0
   39.2105   34.7609   41.9133 H   0  0  0  0  0  0  0  0  0  0  0  0
   38.5106   34.8647   39.5577 H   0  0  0  0  0  0  0  0  0  0  0  0
   40.1983   35.1867   37.7236 H   0  0  0  0  0  0  0  0  0  0  0  0
   42.5917   35.3861   38.3936 H   0  0  0  0  0  0  0  0  0  0  0  0
  1  6  1  0
  2  3  2  0
  3  4  1  0
  5  4  2  0
  6  5  1  0
  7  2  1  0
  7  6  2  0
  8 11  1  0
  8 10  1  0
  8  2  1  0
  9  8  1  0
 12  1  1  0
 13 12  1  0
 13 14  2  0
 15 14  1  0
 16 15  2  0
 17 18  2  0
 17 16  1  0
 18 13  1  0
  1 19  1  0
  1 20  1  0
  3 21  1  0
  4 22  1  0
 12 23  1  0
 12 24  1  0
 14 25  1  0
 15 26  1  0
 16 27  1  0
 17 28  1  0
 18 29  1  0
M  ISO  8  19   8  20   8  21  14  22  14  23   8  24   8  25  14  26  14
M  ISO  3  27  14  28  14  29  14
M  END
>  <minimizedAffinity>  (1) 
-5.79369068

>  <minimizedRMSD>  (1) 
1.36341548

$$$$
