
     RDKit          3D

 21 22  0  0  0  0  0  0  0  0999 V2000
   46.2770   33.1420   46.2470 C   0  0  0  0  0  0  0  0  0  0  0  0
   45.2650   29.8200   47.8050 C   0  0  0  0  0  0  0  0  0  0  0  0
   45.6440   30.7200   46.8060 C   0  0  0  0  0  0  0  0  0  0  0  0
   45.8660   32.0370   47.1780 C   0  0  0  0  0  0  0  0  0  0  0  0
   45.7000   32.3770   48.5080 N   0  0  0  0  0  0  0  0  0  0  0  0
   45.3310   31.4680   49.4350 C   0  0  0  0  0  0  0  0  0  0  0  0
   45.1150   30.1880   49.0780 N   0  0  0  0  0  0  0  0  0  0  0  0
   45.1380   34.1530   46.1160 C   0  0  0  0  0  0  0  0  0  0  0  0
   45.2680   34.8400   44.8060 C   0  0  0  0  0  0  0  0  0  0  0  0
   44.6410   36.0070   44.5520 N   0  0  0  0  0  0  0  0  0  0  0  0
   44.9210   36.3890   43.3410 O   0  0  0  0  0  0  0  0  0  0  0  0
   45.7170   35.4850   42.8140 C   0  0  0  0  0  0  0  0  0  0  0  0
   45.9600   34.4890   43.7090 N   0  0  0  0  0  0  0  0  0  0  0  0
   47.1690   33.6455   46.6479 H   0  0  0  0  0  0  0  0  0  0  0  0
   46.5058   32.7195   45.2575 H   0  0  0  0  0  0  0  0  0  0  0  0
   45.0838   28.7700   47.5317 H   0  0  0  0  0  0  0  0  0  0  0  0
   45.7621   30.3954   45.7616 H   0  0  0  0  0  0  0  0  0  0  0  0
   45.2065   31.7736   50.4843 H   0  0  0  0  0  0  0  0  0  0  0  0
   44.1709   33.6315   46.1674 H   0  0  0  0  0  0  0  0  0  0  0  0
   45.1888   34.8869   46.9338 H   0  0  0  0  0  0  0  0  0  0  0  0
   46.1281   35.5276   41.7946 H   0  0  0  0  0  0  0  0  0  0  0  0
  1  4  1  0
  2  7  2  0
  3  4  2  0
  3  2  1  0
  4  5  1  0
  5  6  2  0
  7  6  1  0
  8  1  1  0
  9  8  1  0
 10  9  2  0
 11 10  1  0
 12 11  1  0
 12 13  2  0
 13  9  1  0
  1 14  1  0
  1 15  1  0
  2 16  1  0
  3 17  1  0
  6 18  1  0
  8 19  1  0
  8 20  1  0
 12 21  1  0
M  ISO  8  14   8  15   8  16  14  17  14  18  14  19   8  20   8  21  14
M  END
>  <minimizedAffinity>  (1) 
-4.12553024

>  <minimizedRMSD>  (1) 
5.18930769

$$$$
