
     RDKit          3D

 31 32  0  0  0  0  0  0  0  0999 V2000
   47.7120   34.9380   42.2810 C   0  0  0  0  0  0  0  0  0  0  0  0
   47.9600   34.0150   43.3130 C   0  0  0  0  0  0  0  0  0  0  0  0
   46.8780   33.5870   44.1060 C   0  0  0  0  0  0  0  0  0  0  0  0
   45.6750   34.1020   43.8140 N   0  0  0  0  0  0  0  0  0  0  0  0
   45.4480   34.9910   42.8180 C   0  0  0  0  0  0  0  0  0  0  0  0
   46.4690   35.4080   42.0530 N   0  0  0  0  0  0  0  0  0  0  0  0
   48.8750   35.3790   41.4510 C   0  0  0  0  0  0  0  0  0  0  0  0
   48.5530   35.3680   40.1280 F   0  0  0  0  0  0  0  0  0  0  0  0
   49.2320   36.6710   41.8040 F   0  0  0  0  0  0  0  0  0  0  0  0
   49.9100   34.4600   41.6360 F   0  0  0  0  0  0  0  0  0  0  0  0
   44.0490   35.4590   42.6310 C   0  0  0  0  0  0  0  0  0  0  0  0
   43.4170   34.7470   41.5030 C   0  0  0  0  0  0  0  0  0  0  0  0
   42.3630   35.3790   40.8090 N   0  0  0  0  0  0  0  0  0  0  0  0
   42.0220   34.7940   39.5380 C   0  0  0  0  0  0  0  0  0  0  0  0
   40.8880   35.7390   39.1060 C   0  0  0  0  0  0  0  0  0  0  0  0
   40.1000   35.7800   40.4130 C   0  0  0  0  0  0  0  0  0  0  0  0
   41.1350   35.5690   41.5270 C   0  0  0  0  0  0  0  0  0  0  0  0
   48.9763   33.6361   43.4964 H   0  0  0  0  0  0  0  0  0  0  0  0
   47.0131   32.8653   44.9251 H   0  0  0  0  0  0  0  0  0  0  0  0
   43.4757   35.2650   43.5495 H   0  0  0  0  0  0  0  0  0  0  0  0
   44.0585   36.5372   42.4133 H   0  0  0  0  0  0  0  0  0  0  0  0
   44.2083   34.5366   40.7685 H   0  0  0  0  0  0  0  0  0  0  0  0
   42.9424   33.8720   41.9711 H   0  0  0  0  0  0  0  0  0  0  0  0
   42.8677   34.8228   38.8351 H   0  0  0  0  0  0  0  0  0  0  0  0
   41.7491   33.7291   39.5759 H   0  0  0  0  0  0  0  0  0  0  0  0
   41.2650   36.7321   38.8204 H   0  0  0  0  0  0  0  0  0  0  0  0
   40.3187   35.4207   38.2202 H   0  0  0  0  0  0  0  0  0  0  0  0
   39.6025   36.7540   40.5308 H   0  0  0  0  0  0  0  0  0  0  0  0
   39.3134   35.0114   40.4379 H   0  0  0  0  0  0  0  0  0  0  0  0
   40.8898   34.6816   42.1291 H   0  0  0  0  0  0  0  0  0  0  0  0
   41.1784   36.4079   42.2372 H   0  0  0  0  0  0  0  0  0  0  0  0
  1  2  2  0
  2  3  1  0
  4  3  2  0
  5  4  1  0
  6  1  1  0
  6  5  2  0
  7 10  1  0
  7  9  1  0
  7  1  1  0
  8  7  1  0
 11  5  1  0
 12 11  1  0
 13 12  1  0
 13 17  1  0
 14 13  1  0
 15 14  1  0
 15 16  1  0
 16 17  1  0
  2 18  1  0
  3 19  1  0
 11 20  1  0
 11 21  1  0
 12 22  1  0
 12 23  1  0
 14 24  1  0
 14 25  1  0
 15 26  1  0
 15 27  1  0
 16 28  1  0
 16 29  1  0
 17 30  1  0
 17 31  1  0
M  ISO  8  18  14  19  14  20   8  21   8  22   8  23   8  24  13  25  13
M  ISO  6  26  13  27  13  28  13  29  13  30  13  31  13
M  END
>  <minimizedAffinity>  (1) 
-5.41135359

>  <minimizedRMSD>  (1) 
0.617918372

$$$$
