
     RDKit          3D

 20 20  0  0  0  0  0  0  0  0999 V2000
   47.8250   34.9390   42.3670 C   0  0  0  0  0  0  0  0  0  0  0  0
   48.1140   33.8600   43.2320 C   0  0  0  0  0  0  0  0  0  0  0  0
   47.0730   33.4050   44.0610 C   0  0  0  0  0  0  0  0  0  0  0  0
   45.8760   34.0310   43.9720 N   0  0  0  0  0  0  0  0  0  0  0  0
   45.6370   35.0660   43.1280 C   0  0  0  0  0  0  0  0  0  0  0  0
   46.6130   35.5220   42.3230 N   0  0  0  0  0  0  0  0  0  0  0  0
   48.9500   35.4010   41.4950 C   0  0  0  0  0  0  0  0  0  0  0  0
   48.5680   35.3560   40.1720 F   0  0  0  0  0  0  0  0  0  0  0  0
   49.2720   36.7020   41.7860 F   0  0  0  0  0  0  0  0  0  0  0  0
   50.0160   34.5330   41.6420 F   0  0  0  0  0  0  0  0  0  0  0  0
   44.2730   35.6540   43.1530 C   0  0  0  0  0  0  0  0  0  0  0  0
   43.6320   35.4710   41.8100 C   0  0  0  0  0  0  0  0  0  0  0  0
   42.3050   35.8730   41.7600 O   0  0  0  0  0  0  0  0  0  0  0  0
   49.1108   33.3955   43.2561 H   0  0  0  0  0  0  0  0  0  0  0  0
   47.2263   32.5683   44.7585 H   0  0  0  0  0  0  0  0  0  0  0  0
   43.6687   35.1488   43.9209 H   0  0  0  0  0  0  0  0  0  0  0  0
   44.3374   36.7266   43.3884 H   0  0  0  0  0  0  0  0  0  0  0  0
   44.1995   36.0578   41.0727 H   0  0  0  0  0  0  0  0  0  0  0  0
   43.6468   34.3925   41.5939 H   0  0  0  0  0  0  0  0  0  0  0  0
   41.9572   35.9784   42.6809 H   0  0  0  0  0  0  0  0  0  0  0  0
  1  2  2  0
  2  3  1  0
  4  3  2  0
  5 11  1  0
  5  4  1  0
  6  1  1  0
  6  5  2  0
  7 10  1  0
  7  9  1  0
  7  1  1  0
  8  7  1  0
 12 11  1  0
 13 12  1  0
  2 14  1  0
  3 15  1  0
 11 16  1  0
 11 17  1  0
 12 18  1  0
 12 19  1  0
 13 20  1  0
M  ISO  7  14  14  15  14  16   8  17   8  18   8  19   8  20   3
M  END
>  <minimizedAffinity>  (1) 
-4.44743681

>  <minimizedRMSD>  (1) 
0.179722995

$$$$
