
     RDKit          3D

 32 33  0  0  0  0  0  0  0  0999 V2000
   47.5480   34.9050   42.1340 C   0  0  0  0  0  0  0  0  0  0  0  0
   47.7420   34.1530   43.3100 C   0  0  0  0  0  0  0  0  0  0  0  0
   46.5980   33.7650   44.0480 C   0  0  0  0  0  0  0  0  0  0  0  0
   45.3890   34.1560   43.5560 N   0  0  0  0  0  0  0  0  0  0  0  0
   45.2340   34.8710   42.4350 C   0  0  0  0  0  0  0  0  0  0  0  0
   46.3140   35.2450   41.7250 N   0  0  0  0  0  0  0  0  0  0  0  0
   48.7660   35.3050   41.3660 C   0  0  0  0  0  0  0  0  0  0  0  0
   48.5060   35.3300   40.0320 F   0  0  0  0  0  0  0  0  0  0  0  0
   49.1690   36.5740   41.7630 F   0  0  0  0  0  0  0  0  0  0  0  0
   49.7510   34.3370   41.5910 F   0  0  0  0  0  0  0  0  0  0  0  0
   43.8510   35.2230   42.0250 C   0  0  0  0  0  0  0  0  0  0  0  0
   43.5820   34.7270   40.6520 C   0  0  0  0  0  0  0  0  0  0  0  0
   42.3850   35.2230   40.0240 N   0  0  0  0  0  0  0  0  0  0  0  0
   41.6360   34.1780   39.3570 C   0  0  0  0  0  0  0  0  0  0  0  0
   40.3280   34.7360   38.8680 C   0  0  0  0  0  0  0  0  0  0  0  0
   39.5600   35.2820   39.8830 O   0  0  0  0  0  0  0  0  0  0  0  0
   40.2190   36.1950   40.6560 C   0  0  0  0  0  0  0  0  0  0  0  0
   41.5360   35.6740   41.1330 C   0  0  0  0  0  0  0  0  0  0  0  0
   48.7525   33.8757   43.6446 H   0  0  0  0  0  0  0  0  0  0  0  0
   46.6810   33.1765   44.9736 H   0  0  0  0  0  0  0  0  0  0  0  0
   43.1366   34.7635   42.7239 H   0  0  0  0  0  0  0  0  0  0  0  0
   43.7395   36.3172   42.0399 H   0  0  0  0  0  0  0  0  0  0  0  0
   44.4359   35.0098   40.0189 H   0  0  0  0  0  0  0  0  0  0  0  0
   43.4356   33.6414   40.7527 H   0  0  0  0  0  0  0  0  0  0  0  0
   42.2158   33.7990   38.5025 H   0  0  0  0  0  0  0  0  0  0  0  0
   41.4443   33.3558   40.0621 H   0  0  0  0  0  0  0  0  0  0  0  0
   40.5370   35.5204   38.1257 H   0  0  0  0  0  0  0  0  0  0  0  0
   39.7560   33.9026   38.4342 H   0  0  0  0  0  0  0  0  0  0  0  0
   40.3904   37.1054   40.0629 H   0  0  0  0  0  0  0  0  0  0  0  0
   39.5968   36.4075   41.5379 H   0  0  0  0  0  0  0  0  0  0  0  0
   41.3577   34.8262   41.8109 H   0  0  0  0  0  0  0  0  0  0  0  0
   42.0583   36.4936   41.6482 H   0  0  0  0  0  0  0  0  0  0  0  0
  1  2  2  0
  2  3  1  0
  4  3  2  0
  5  4  1  0
  6  1  1  0
  6  5  2  0
  7 10  1  0
  7  9  1  0
  7  1  1  0
  8  7  1  0
 11  5  1  0
 12 11  1  0
 13 12  1  0
 13 18  1  0
 14 13  1  0
 15 14  1  0
 15 16  1  0
 16 17  1  0
 17 18  1  0
  2 19  1  0
  3 20  1  0
 11 21  1  0
 11 22  1  0
 12 23  1  0
 12 24  1  0
 14 25  1  0
 14 26  1  0
 15 27  1  0
 15 28  1  0
 17 29  1  0
 17 30  1  0
 18 31  1  0
 18 32  1  0
M  ISO  8  19  14  20  14  21   8  22   8  23   8  24   8  25  13  26  13
M  ISO  6  27  13  28  13  29  13  30  13  31  13  32  13
M  END
>  <minimizedAffinity>  (1) 
-5.40940619

>  <minimizedRMSD>  (1) 
1.09323692

$$$$
