
     RDKit          3D

 20 20  0  0  0  0  0  0  0  0999 V2000
   47.7090   34.9410   42.2580 C   0  0  0  0  0  0  0  0  0  0  0  0
   47.9800   34.0450   43.3180 C   0  0  0  0  0  0  0  0  0  0  0  0
   46.8880   33.5930   44.0910 C   0  0  0  0  0  0  0  0  0  0  0  0
   45.6570   34.0550   43.7580 N   0  0  0  0  0  0  0  0  0  0  0  0
   45.4340   34.9120   42.7370 C   0  0  0  0  0  0  0  0  0  0  0  0
   46.4530   35.3580   41.9840 N   0  0  0  0  0  0  0  0  0  0  0  0
   48.8840   35.3960   41.4620 C   0  0  0  0  0  0  0  0  0  0  0  0
   48.5720   35.3900   40.1190 F   0  0  0  0  0  0  0  0  0  0  0  0
   49.2230   36.6800   41.8040 F   0  0  0  0  0  0  0  0  0  0  0  0
   49.9190   34.4950   41.6440 F   0  0  0  0  0  0  0  0  0  0  0  0
   44.0280   35.3390   42.4810 C   0  0  0  0  0  0  0  0  0  0  0  0
   43.3190   34.2710   41.6920 C   0  0  0  0  0  0  0  0  0  0  0  0
   42.7720   35.0380   40.1220 S   0  0  0  0  0  0  0  0  0  0  0  0
   49.0060   33.7116   43.5330 H   0  0  0  0  0  0  0  0  0  0  0  0
   47.0300   32.8947   44.9290 H   0  0  0  0  0  0  0  0  0  0  0  0
   43.5104   35.4924   43.4394 H   0  0  0  0  0  0  0  0  0  0  0  0
   44.0268   36.2798   41.9111 H   0  0  0  0  0  0  0  0  0  0  0  0
   44.0048   33.4361   41.4856 H   0  0  0  0  0  0  0  0  0  0  0  0
   42.4612   33.8728   42.2537 H   0  0  0  0  0  0  0  0  0  0  0  0
   41.9925   36.1310   40.3950 H   0  0  0  0  0  0  0  0  0  0  0  0
  1  2  2  0
  2  3  1  0
  4  3  2  0
  5  4  1  0
  6  1  1  0
  6  5  2  0
  7 10  1  0
  7  9  1  0
  7  1  1  0
  8  7  1  0
 11  5  1  0
 12 11  1  0
 13 12  1  0
  2 14  1  0
  3 15  1  0
 11 16  1  0
 11 17  1  0
 12 18  1  0
 12 19  1  0
 13 20  1  0
M  ISO  7  14  14  15  14  16   8  17   8  18   8  19   8  20  11
M  END
>  <minimizedAffinity>  (1) 
-4.15888309

>  <minimizedRMSD>  (1) 
0.852720201

$$$$
