
     RDKit          3D

 36 38  0  0  1  0  0  0  0  0999 V2000
   43.6860   35.4410   41.2470 C   0  0  0  0  0  0  0  0  0  0  0  0
   42.3060   34.8730   41.0470 C   0  0  1  0  0  0  0  0  0  0  0  0
   41.1470   35.4750   41.7700 C   0  0  0  0  0  0  0  0  0  0  0  0
   41.2910   35.6150   40.2830 C   0  0  2  0  0  0  0  0  0  0  0  0
   40.2330   34.8710   39.5280 C   0  0  0  0  0  0  0  0  0  0  0  0
   39.2540   34.1830   40.2360 C   0  0  0  0  0  0  0  0  0  0  0  0
   38.2540   33.4790   39.5980 C   0  0  0  0  0  0  0  0  0  0  0  0
   38.2070   33.4440   38.2010 C   0  0  0  0  0  0  0  0  0  0  0  0
   39.1970   34.1390   37.4980 C   0  0  0  0  0  0  0  0  0  0  0  0
   40.2040   34.8480   38.1490 C   0  0  0  0  0  0  0  0  0  0  0  0
   44.1000   35.5670   42.6810 C   0  0  0  0  0  0  0  0  0  0  0  0
   47.7330   34.9590   42.2840 C   0  0  0  0  0  0  0  0  0  0  0  0
   47.9900   33.9920   43.2810 C   0  0  0  0  0  0  0  0  0  0  0  0
   46.8920   33.5690   44.0740 C   0  0  0  0  0  0  0  0  0  0  0  0
   45.6990   34.1140   43.8220 N   0  0  0  0  0  0  0  0  0  0  0  0
   45.4770   35.0370   42.8640 C   0  0  0  0  0  0  0  0  0  0  0  0
   46.4860   35.4670   42.0890 N   0  0  0  0  0  0  0  0  0  0  0  0
   48.8980   35.4000   41.4500 C   0  0  0  0  0  0  0  0  0  0  0  0
   48.5710   35.3720   40.1290 F   0  0  0  0  0  0  0  0  0  0  0  0
   49.2670   36.6870   41.7890 F   0  0  0  0  0  0  0  0  0  0  0  0
   49.9290   34.4930   41.6560 F   0  0  0  0  0  0  0  0  0  0  0  0
   43.7160   36.4415   40.7908 H   0  0  0  0  0  0  0  0  0  0  0  0
   44.3875   34.7354   40.7779 H   0  0  0  0  0  0  0  0  0  0  0  0
   42.7377   33.8642   40.9702 H   0  0  0  0  0  0  0  0  0  0  0  0
   40.3622   34.8296   42.1913 H   0  0  0  0  0  0  0  0  0  0  0  0
   41.0241   36.1686   42.6149 H   0  0  0  0  0  0  0  0  0  0  0  0
   41.3740   36.4225   39.5406 H   0  0  0  0  0  0  0  0  0  0  0  0
   39.2776   34.2006   41.3356 H   0  0  0  0  0  0  0  0  0  0  0  0
   37.4941   32.9455   40.1878 H   0  0  0  0  0  0  0  0  0  0  0  0
   37.4182   32.8887   37.6725 H   0  0  0  0  0  0  0  0  0  0  0  0
   39.1797   34.1252   36.3982 H   0  0  0  0  0  0  0  0  0  0  0  0
   40.9691   35.3846   37.5687 H   0  0  0  0  0  0  0  0  0  0  0  0
   44.0761   36.6268   42.9748 H   0  0  0  0  0  0  0  0  0  0  0  0
   43.4055   34.9888   43.3082 H   0  0  0  0  0  0  0  0  0  0  0  0
   48.9996   33.5838   43.4362 H   0  0  0  0  0  0  0  0  0  0  0  0
   47.0189   32.8187   44.8683 H   0  0  0  0  0  0  0  0  0  0  0  0
  1 11  1  0
  2  1  1  0
  2  3  1  0
  4  2  1  0
  4  3  1  0
  5  6  2  0
  5  4  1  0
  7  6  1  0
  8  7  2  0
  9 10  2  0
  9  8  1  0
 10  5  1  0
 11 16  1  0
 12 13  2  0
 13 14  1  0
 15 14  2  0
 16 15  1  0
 17 12  1  0
 17 16  2  0
 18 21  1  0
 18 20  1  0
 18 12  1  0
 19 18  1  0
  1 22  1  0
  1 23  1  0
  2 24  1  6
  3 25  1  0
  3 26  1  0
  4 27  1  1
  6 28  1  0
  7 29  1  0
  8 30  1  0
  9 31  1  0
 10 32  1  0
 11 33  1  0
 11 34  1  0
 13 35  1  0
 14 36  1  0
M  ISO  8  22   8  23   8  24  13  25  13  26  13  27  13  28  14  29  14
M  ISO  7  30  14  31  14  32  14  33   8  34   8  35  14  36  14
M  END
>  <minimizedAffinity>  (1) 
-6.95904064

>  <minimizedRMSD>  (1) 
0.866309524

$$$$
