
     RDKit          3D

 26 27  0  0  0  0  0  0  0  0999 V2000
   47.7340   34.9510   42.3320 C   0  0  0  0  0  0  0  0  0  0  0  0
   48.0040   33.9350   43.2710 C   0  0  0  0  0  0  0  0  0  0  0  0
   46.9420   33.5100   44.0970 C   0  0  0  0  0  0  0  0  0  0  0  0
   45.7490   34.1070   43.9260 N   0  0  0  0  0  0  0  0  0  0  0  0
   45.5170   35.0760   43.0210 C   0  0  0  0  0  0  0  0  0  0  0  0
   46.5080   35.5080   42.2150 N   0  0  0  0  0  0  0  0  0  0  0  0
   48.8770   35.3870   41.4650 C   0  0  0  0  0  0  0  0  0  0  0  0
   48.5150   35.3550   40.1530 F   0  0  0  0  0  0  0  0  0  0  0  0
   49.2440   36.6830   41.7790 F   0  0  0  0  0  0  0  0  0  0  0  0
   49.9160   34.4890   41.6340 F   0  0  0  0  0  0  0  0  0  0  0  0
   44.1420   35.6570   42.9340 C   0  0  0  0  0  0  0  0  0  0  0  0
   43.6590   35.5960   41.5160 C   0  0  0  0  0  0  0  0  0  0  0  0
   42.2940   35.0060   41.3440 C   0  0  0  0  0  0  0  0  0  0  0  0
   41.0920   35.8660   41.2230 C   0  0  0  0  0  0  0  0  0  0  0  0
   41.5840   35.0900   40.0450 C   0  0  0  0  0  0  0  0  0  0  0  0
   49.0062   33.4897   43.3567 H   0  0  0  0  0  0  0  0  0  0  0  0
   47.0841   32.7217   44.8509 H   0  0  0  0  0  0  0  0  0  0  0  0
   43.4603   35.0821   43.5780 H   0  0  0  0  0  0  0  0  0  0  0  0
   44.1666   36.7052   43.2667 H   0  0  0  0  0  0  0  0  0  0  0  0
   43.6422   36.6204   41.1156 H   0  0  0  0  0  0  0  0  0  0  0  0
   44.3536   34.9325   40.9799 H   0  0  0  0  0  0  0  0  0  0  0  0
   42.5941   34.1867   42.0139 H   0  0  0  0  0  0  0  0  0  0  0  0
   40.1550   35.5761   41.7211 H   0  0  0  0  0  0  0  0  0  0  0  0
   40.8682   36.9247   41.4204 H   0  0  0  0  0  0  0  0  0  0  0  0
   41.0097   34.2280   39.6746 H   0  0  0  0  0  0  0  0  0  0  0  0
   41.8734   35.3392   39.0134 H   0  0  0  0  0  0  0  0  0  0  0  0
  1  2  2  0
  2  3  1  0
  4  3  2  0
  5  4  1  0
  6  1  1  0
  6  5  2  0
  7 10  1  0
  7  9  1  0
  7  1  1  0
  8  7  1  0
 11  5  1  0
 12 11  1  0
 13 12  1  0
 14 13  1  0
 15 14  1  0
 15 13  1  0
  2 16  1  0
  3 17  1  0
 11 18  1  0
 11 19  1  0
 12 20  1  0
 12 21  1  0
 13 22  1  0
 14 23  1  0
 14 24  1  0
 15 25  1  0
 15 26  1  0
M  ISO  8  16  14  17  14  18   8  19   8  20   8  21   8  22  13  23  13
M  ISO  3  24  13  25  13  26  13
M  END
>  <minimizedAffinity>  (1) 
-4.85578871

>  <minimizedRMSD>  (1) 
0.665448368

$$$$
