
     RDKit          3D

 41 43  0  0  1  0  0  0  0  0999 V2000
   43.6590   35.6060   41.4750 C   0  0  0  0  0  0  0  0  0  0  0  0
   42.2900   35.0480   41.2500 C   0  0  1  0  0  0  0  0  0  0  0  0
   41.1120   35.9430   41.1990 C   0  0  0  0  0  0  0  0  0  0  0  0
   41.6010   35.2360   39.9670 C   0  0  2  0  0  0  0  0  0  0  0  0
   40.6420   34.3430   39.4060 N   0  0  0  0  0  0  0  0  0  0  0  0
   39.9010   34.8340   38.2760 C   0  0  0  0  0  0  0  0  0  0  0  0
   39.2010   33.6130   37.6690 C   0  0  0  0  0  0  0  0  0  0  0  0
   38.3500   32.9010   38.6910 C   0  0  0  0  0  0  0  0  0  0  0  0
   38.3350   33.7080   39.9840 C   0  0  0  0  0  0  0  0  0  0  0  0
   39.7890   33.8070   40.4320 C   0  0  0  0  0  0  0  0  0  0  0  0
   44.0960   35.5860   42.9160 C   0  0  0  0  0  0  0  0  0  0  0  0
   47.7000   34.9190   42.3280 C   0  0  0  0  0  0  0  0  0  0  0  0
   47.9870   33.9240   43.2850 C   0  0  0  0  0  0  0  0  0  0  0  0
   46.9280   33.4980   44.1210 C   0  0  0  0  0  0  0  0  0  0  0  0
   45.7300   34.0710   43.9410 N   0  0  0  0  0  0  0  0  0  0  0  0
   45.4760   35.0250   43.0170 C   0  0  0  0  0  0  0  0  0  0  0  0
   46.4630   35.4520   42.2070 N   0  0  0  0  0  0  0  0  0  0  0  0
   48.8390   35.3570   41.4530 C   0  0  0  0  0  0  0  0  0  0  0  0
   48.4690   35.3230   40.1420 F   0  0  0  0  0  0  0  0  0  0  0  0
   49.2040   36.6540   41.7550 F   0  0  0  0  0  0  0  0  0  0  0  0
   49.8860   34.4630   41.6290 F   0  0  0  0  0  0  0  0  0  0  0  0
   43.6703   36.6484   41.1239 H   0  0  0  0  0  0  0  0  0  0  0  0
   44.3603   34.9661   40.9194 H   0  0  0  0  0  0  0  0  0  0  0  0
   42.5675   34.1700   41.8517 H   0  0  0  0  0  0  0  0  0  0  0  0
   40.1663   35.6395   41.6719 H   0  0  0  0  0  0  0  0  0  0  0  0
   40.9096   36.9886   41.4743 H   0  0  0  0  0  0  0  0  0  0  0  0
   42.0073   35.4540   38.9683 H   0  0  0  0  0  0  0  0  0  0  0  0
   39.1589   35.5787   38.5996 H   0  0  0  0  0  0  0  0  0  0  0  0
   40.5591   35.3267   37.5451 H   0  0  0  0  0  0  0  0  0  0  0  0
   38.5605   33.9441   36.8383 H   0  0  0  0  0  0  0  0  0  0  0  0
   39.9720   32.9137   37.3132 H   0  0  0  0  0  0  0  0  0  0  0  0
   37.3235   32.8005   38.3086 H   0  0  0  0  0  0  0  0  0  0  0  0
   38.7662   31.9014   38.8852 H   0  0  0  0  0  0  0  0  0  0  0  0
   37.9210   34.7111   39.8041 H   0  0  0  0  0  0  0  0  0  0  0  0
   37.7078   33.2301   40.7510 H   0  0  0  0  0  0  0  0  0  0  0  0
   40.1460   32.8013   40.6988 H   0  0  0  0  0  0  0  0  0  0  0  0
   39.8294   34.4900   41.2933 H   0  0  0  0  0  0  0  0  0  0  0  0
   44.0883   36.6113   43.3144 H   0  0  0  0  0  0  0  0  0  0  0  0
   43.4046   34.9580   43.4971 H   0  0  0  0  0  0  0  0  0  0  0  0
   48.9958   33.4953   43.3781 H   0  0  0  0  0  0  0  0  0  0  0  0
   47.0821   32.7260   44.8893 H   0  0  0  0  0  0  0  0  0  0  0  0
  1 11  1  0
  2  1  1  0
  3  2  1  0
  4  3  1  0
  4  2  1  0
  5  4  1  0
  5 10  1  0
  6  5  1  0
  7  6  1  0
  7  8  1  0
  8  9  1  0
  9 10  1  0
 11 16  1  0
 12 13  2  0
 13 14  1  0
 15 14  2  0
 16 15  1  0
 17 12  1  0
 17 16  2  0
 18 21  1  0
 18 20  1  0
 18 12  1  0
 19 18  1  0
  1 22  1  0
  1 23  1  0
  2 24  1  1
  3 25  1  0
  3 26  1  0
  4 27  1  6
  6 28  1  0
  6 29  1  0
  7 30  1  0
  7 31  1  0
  8 32  1  0
  8 33  1  0
  9 34  1  0
  9 35  1  0
 10 36  1  0
 10 37  1  0
 11 38  1  0
 11 39  1  0
 13 40  1  0
 14 41  1  0
M  ISO  8  22   8  23   8  24  13  25  13  26  13  27  13  28  13  29  13
M  ISO  8  30  13  31  13  32  13  33  13  34  13  35  13  36  13  37  13
M  ISO  4  38   8  39   8  40  14  41  14
M  END
>  <minimizedAffinity>  (1) 
-6.39234638

>  <minimizedRMSD>  (1) 
0.184687153

$$$$
