
     RDKit          3D

 36 38  0  0  1  0  0  0  0  0999 V2000
   43.5780   35.5190   41.5920 C   0  0  0  0  0  0  0  0  0  0  0  0
   42.1440   35.1110   41.6970 C   0  0  1  0  0  0  0  0  0  0  0  0
   41.0550   35.9990   41.2490 C   0  0  0  0  0  0  0  0  0  0  0  0
   41.3480   34.7350   40.4990 C   0  0  2  0  0  0  0  0  0  0  0  0
   40.2760   33.7420   40.6670 N   0  0  0  0  0  0  0  0  0  0  0  0
   40.5120   32.7260   41.5310 C   0  0  0  0  0  0  0  0  0  0  0  0
   39.5680   31.7300   41.7670 C   0  0  0  0  0  0  0  0  0  0  0  0
   38.3710   31.8480   41.0620 C   0  0  0  0  0  0  0  0  0  0  0  0
   37.4710   30.9700   41.2360 O   0  0  0  0  0  0  0  0  0  0  0  0
   38.1560   32.8660   40.2090 N   0  0  0  0  0  0  0  0  0  0  0  0
   39.0950   33.8160   40.0020 C   0  0  0  0  0  0  0  0  0  0  0  0
   38.9630   34.7940   39.2210 O   0  0  0  0  0  0  0  0  0  0  0  0
   44.2190   35.8240   42.9230 C   0  0  0  0  0  0  0  0  0  0  0  0
   47.7720   34.9730   42.3120 C   0  0  0  0  0  0  0  0  0  0  0  0
   48.0040   33.9290   43.2310 C   0  0  0  0  0  0  0  0  0  0  0  0
   46.9210   33.5350   44.0520 C   0  0  0  0  0  0  0  0  0  0  0  0
   45.7670   34.1860   43.8870 N   0  0  0  0  0  0  0  0  0  0  0  0
   45.5570   35.1810   43.0060 C   0  0  0  0  0  0  0  0  0  0  0  0
   46.5650   35.5730   42.2180 N   0  0  0  0  0  0  0  0  0  0  0  0
   48.9320   35.3780   41.4510 C   0  0  0  0  0  0  0  0  0  0  0  0
   48.5780   35.3410   40.1280 F   0  0  0  0  0  0  0  0  0  0  0  0
   49.3170   36.6650   41.7350 F   0  0  0  0  0  0  0  0  0  0  0  0
   49.9520   34.4670   41.6300 F   0  0  0  0  0  0  0  0  0  0  0  0
   44.1382   34.7008   41.1158 H   0  0  0  0  0  0  0  0  0  0  0  0
   43.6067   36.4460   41.0006 H   0  0  0  0  0  0  0  0  0  0  0  0
   42.3963   34.6116   42.6441 H   0  0  0  0  0  0  0  0  0  0  0  0
   40.1343   36.0841   41.8449 H   0  0  0  0  0  0  0  0  0  0  0  0
   40.9796   37.0631   40.9806 H   0  0  0  0  0  0  0  0  0  0  0  0
   41.6273   34.4325   39.4789 H   0  0  0  0  0  0  0  0  0  0  0  0
   41.4754   32.6866   42.0605 H   0  0  0  0  0  0  0  0  0  0  0  0
   39.7550   30.9016   42.4662 H   0  0  0  0  0  0  0  0  0  0  0  0
   37.2597   32.9224   39.7046 H   0  0  0  0  0  0  0  0  0  0  0  0
   44.3314   36.9128   43.0315 H   0  0  0  0  0  0  0  0  0  0  0  0
   43.5806   35.4311   43.7281 H   0  0  0  0  0  0  0  0  0  0  0  0
   48.9868   33.4408   43.3066 H   0  0  0  0  0  0  0  0  0  0  0  0
   47.0251   32.7286   44.7929 H   0  0  0  0  0  0  0  0  0  0  0  0
  1  2  1  0
  1 13  1  0
  3  2  1  0
  4  5  1  0
  4  3  1  0
  4  2  1  0
  5  6  1  0
  6  7  2  0
  8  9  2  0
  8  7  1  0
 10  8  1  0
 11 10  1  0
 11  5  1  0
 12 11  2  0
 13 18  1  0
 14 15  2  0
 15 16  1  0
 17 16  2  0
 18 17  1  0
 19 14  1  0
 19 18  2  0
 20 23  1  0
 20 22  1  0
 20 14  1  0
 21 20  1  0
  1 24  1  0
  1 25  1  0
  2 26  1  1
  3 27  1  0
  3 28  1  0
  4 29  1  6
  6 30  1  0
  7 31  1  0
 10 32  1  0
 13 33  1  0
 13 34  1  0
 15 35  1  0
 16 36  1  0
M  ISO  8  24   8  25   8  26  13  27  13  28  13  29  13  30  14  31  14
M  ISO  5  32   9  33   8  34   8  35  14  36  14
M  END
>  <minimizedAffinity>  (1) 
-6.65160656

>  <minimizedRMSD>  (1) 
0.948508918

$$$$
