
     RDKit          3D

 37 39  0  0  1  0  0  0  0  0999 V2000
   43.6850   35.5400   41.4830 C   0  0  0  0  0  0  0  0  0  0  0  0
   42.3180   34.9300   41.3350 C   0  0  1  0  0  0  0  0  0  0  0  0
   41.1630   35.4780   42.0920 C   0  0  0  0  0  0  0  0  0  0  0  0
   41.2480   35.6900   40.6280 C   0  0  2  0  0  0  0  0  0  0  0  0
   40.3750   35.0710   39.6860 N   0  0  0  0  0  0  0  0  0  0  0  0
   39.2800   34.3620   40.0630 C   0  0  0  0  0  0  0  0  0  0  0  0
   38.4110   33.7490   39.1830 C   0  0  0  0  0  0  0  0  0  0  0  0
   38.6710   33.8630   37.8330 C   0  0  0  0  0  0  0  0  0  0  0  0
   37.7840   33.2340   36.9040 N   0  0  0  0  0  0  0  0  0  0  0  0
   39.7620   34.5700   37.4840 N   0  0  0  0  0  0  0  0  0  0  0  0
   40.5820   35.1500   38.3600 C   0  0  0  0  0  0  0  0  0  0  0  0
   41.5580   35.7780   37.8830 O   0  0  0  0  0  0  0  0  0  0  0  0
   44.1820   35.6710   42.8800 C   0  0  0  0  0  0  0  0  0  0  0  0
   47.7830   34.9620   42.3180 C   0  0  0  0  0  0  0  0  0  0  0  0
   48.0440   33.9450   43.2610 C   0  0  0  0  0  0  0  0  0  0  0  0
   46.9790   33.5230   44.0720 C   0  0  0  0  0  0  0  0  0  0  0  0
   45.7830   34.1180   43.8930 N   0  0  0  0  0  0  0  0  0  0  0  0
   45.5570   35.0800   42.9930 C   0  0  0  0  0  0  0  0  0  0  0  0
   46.5510   35.5080   42.2010 N   0  0  0  0  0  0  0  0  0  0  0  0
   48.9340   35.3970   41.4640 C   0  0  0  0  0  0  0  0  0  0  0  0
   48.5880   35.3780   40.1490 F   0  0  0  0  0  0  0  0  0  0  0  0
   49.2870   36.7050   41.7810 F   0  0  0  0  0  0  0  0  0  0  0  0
   49.9760   34.5130   41.6540 F   0  0  0  0  0  0  0  0  0  0  0  0
   43.6571   36.5455   41.0378 H   0  0  0  0  0  0  0  0  0  0  0  0
   44.3788   34.8505   40.9798 H   0  0  0  0  0  0  0  0  0  0  0  0
   42.7729   33.9338   41.2313 H   0  0  0  0  0  0  0  0  0  0  0  0
   40.4043   34.7970   42.5051 H   0  0  0  0  0  0  0  0  0  0  0  0
   41.0500   36.1362   42.9661 H   0  0  0  0  0  0  0  0  0  0  0  0
   41.2089   36.5748   39.9756 H   0  0  0  0  0  0  0  0  0  0  0  0
   39.0720   34.2702   41.1393 H   0  0  0  0  0  0  0  0  0  0  0  0
   37.5382   33.1870   39.5469 H   0  0  0  0  0  0  0  0  0  0  0  0
   37.9612   33.3077   35.8920 H   0  0  0  0  0  0  0  0  0  0  0  0
   36.9680   32.7073   37.2469 H   0  0  0  0  0  0  0  0  0  0  0  0
   44.2192   36.7354   43.1551 H   0  0  0  0  0  0  0  0  0  0  0  0
   43.5014   35.1343   43.5573 H   0  0  0  0  0  0  0  0  0  0  0  0
   49.0452   33.4995   43.3569 H   0  0  0  0  0  0  0  0  0  0  0  0
   47.1156   32.7347   44.8269 H   0  0  0  0  0  0  0  0  0  0  0  0
  1 13  1  0
  2  1  1  0
  2  3  1  0
  4  2  1  0
  4  3  1  0
  5  6  1  0
  5  4  1  0
  7  6  2  0
  8  7  1  0
  9  8  1  0
 10  8  2  0
 10 11  1  0
 11  5  1  0
 12 11  2  0
 13 18  1  0
 14 15  2  0
 15 16  1  0
 17 16  2  0
 18 17  1  0
 19 14  1  0
 19 18  2  0
 20 23  1  0
 20 22  1  0
 20 14  1  0
 21 20  1  0
  1 24  1  0
  1 25  1  0
  2 26  1  6
  3 27  1  0
  3 28  1  0
  4 29  1  1
  6 30  1  0
  7 31  1  0
  9 32  1  0
  9 33  1  0
 13 34  1  0
 13 35  1  0
 15 36  1  0
 16 37  1  0
M  ISO  8  24   8  25   8  26  13  27  13  28  13  29  13  30  14  31  14
M  ISO  4  34   8  35   8  36  14  37  14
M  END
>  <minimizedAffinity>  (1) 
-6.65596342

>  <minimizedRMSD>  (1) 
1.13089526

$$$$
