
     RDKit          3D

 42 44  0  0  1  0  0  0  0  0999 V2000
   43.5670   35.3340   41.2780 C   0  0  0  0  0  0  0  0  0  0  0  0
   42.1220   34.9330   41.1840 C   0  0  1  0  0  0  0  0  0  0  0  0
   41.0560   35.9730   41.1380 C   0  0  0  0  0  0  0  0  0  0  0  0
   41.3720   35.1290   39.9340 C   0  0  2  0  0  0  0  0  0  0  0  0
   40.3090   34.2190   39.4390 C   0  0  0  0  0  0  0  0  0  0  0  0
   39.4590   34.7650   38.3240 C   0  0  0  0  0  0  0  0  0  0  0  0
   38.7360   33.5810   37.6940 C   0  0  0  0  0  0  0  0  0  0  0  0
   38.5580   32.4560   38.6840 C   0  0  0  0  0  0  0  0  0  0  0  0
   38.3500   32.9140   40.0980 C   0  0  0  0  0  0  0  0  0  0  0  0
   39.3490   33.9160   40.5860 C   0  0  0  0  0  0  0  0  0  0  0  0
   44.0370   35.6150   42.6810 C   0  0  0  0  0  0  0  0  0  0  0  0
   47.6650   34.9590   42.2670 C   0  0  0  0  0  0  0  0  0  0  0  0
   47.9070   34.0030   43.2730 C   0  0  0  0  0  0  0  0  0  0  0  0
   46.8360   33.5920   44.0780 C   0  0  0  0  0  0  0  0  0  0  0  0
   45.6370   34.1510   43.8280 N   0  0  0  0  0  0  0  0  0  0  0  0
   45.4160   35.0640   42.8660 C   0  0  0  0  0  0  0  0  0  0  0  0
   46.4310   35.4660   42.0880 N   0  0  0  0  0  0  0  0  0  0  0  0
   48.8350   35.3710   41.4300 C   0  0  0  0  0  0  0  0  0  0  0  0
   48.5020   35.3480   40.1110 F   0  0  0  0  0  0  0  0  0  0  0  0
   49.2220   36.6490   41.7510 F   0  0  0  0  0  0  0  0  0  0  0  0
   49.8550   34.4520   41.6210 F   0  0  0  0  0  0  0  0  0  0  0  0
   43.7131   36.2431   40.6761 H   0  0  0  0  0  0  0  0  0  0  0  0
   44.1573   34.4817   40.9104 H   0  0  0  0  0  0  0  0  0  0  0  0
   42.3300   34.0668   41.8293 H   0  0  0  0  0  0  0  0  0  0  0  0
   40.1139   35.8241   41.6861 H   0  0  0  0  0  0  0  0  0  0  0  0
   41.0025   37.0515   41.3479 H   0  0  0  0  0  0  0  0  0  0  0  0
   41.7007   35.2752   38.8945 H   0  0  0  0  0  0  0  0  0  0  0  0
   40.8479   33.3421   39.0510 H   0  0  0  0  0  0  0  0  0  0  0  0
   38.7289   35.4845   38.7232 H   0  0  0  0  0  0  0  0  0  0  0  0
   40.0769   35.2887   37.5798 H   0  0  0  0  0  0  0  0  0  0  0  0
   37.7464   33.9104   37.3445 H   0  0  0  0  0  0  0  0  0  0  0  0
   39.3427   33.2112   36.8542 H   0  0  0  0  0  0  0  0  0  0  0  0
   37.6826   31.8632   38.3802 H   0  0  0  0  0  0  0  0  0  0  0  0
   39.4900   31.8718   38.6727 H   0  0  0  0  0  0  0  0  0  0  0  0
   37.3496   33.3661   40.1677 H   0  0  0  0  0  0  0  0  0  0  0  0
   38.4687   32.0235   40.7328 H   0  0  0  0  0  0  0  0  0  0  0  0
   39.9058   33.5030   41.4401 H   0  0  0  0  0  0  0  0  0  0  0  0
   38.8410   34.8352   40.9131 H   0  0  0  0  0  0  0  0  0  0  0  0
   44.0505   36.7015   42.8523 H   0  0  0  0  0  0  0  0  0  0  0  0
   43.3529   35.1386   43.3987 H   0  0  0  0  0  0  0  0  0  0  0  0
   48.9146   33.5882   43.4234 H   0  0  0  0  0  0  0  0  0  0  0  0
   46.9688   32.8475   44.8768 H   0  0  0  0  0  0  0  0  0  0  0  0
  1 11  1  0
  2  1  1  0
  3  2  1  0
  4  3  1  0
  4  2  1  0
  5  4  1  0
  5 10  1  0
  6  5  1  0
  7  6  1  0
  7  8  1  0
  8  9  1  0
  9 10  1  0
 11 16  1  0
 12 13  2  0
 13 14  1  0
 15 14  2  0
 16 15  1  0
 17 12  1  0
 17 16  2  0
 18 21  1  0
 18 20  1  0
 18 12  1  0
 19 18  1  0
  1 22  1  0
  1 23  1  0
  2 24  1  1
  3 25  1  0
  3 26  1  0
  4 27  1  6
  5 28  1  0
  6 29  1  0
  6 30  1  0
  7 31  1  0
  7 32  1  0
  8 33  1  0
  8 34  1  0
  9 35  1  0
  9 36  1  0
 10 37  1  0
 10 38  1  0
 11 39  1  0
 11 40  1  0
 13 41  1  0
 14 42  1  0
M  ISO  8  22   8  23   8  24  13  25  13  26  13  27  13  28  13  29  13
M  ISO  8  30  13  31  13  32  13  33  13  34  13  35  13  36  13  37  13
M  ISO  5  38  13  39   8  40   8  41  14  42  14
M  END
>  <minimizedAffinity>  (1) 
-6.68093634

>  <minimizedRMSD>  (1) 
0.36524418

$$$$
