
     RDKit          3D

 33 35  0  0  1  0  0  0  0  0999 V2000
   44.6950   35.2840   45.4660 C   0  0  0  0  0  0  0  0  0  0  0  0
   44.5530   36.2020   44.4120 C   0  0  0  0  0  0  0  0  0  0  0  0
   45.2330   35.9390   43.2030 C   0  0  0  0  0  0  0  0  0  0  0  0
   45.9750   34.8220   43.1450 N   0  0  0  0  0  0  0  0  0  0  0  0
   46.1070   33.9380   44.1720 C   0  0  0  0  0  0  0  0  0  0  0  0
   45.4650   34.1820   45.3160 N   0  0  0  0  0  0  0  0  0  0  0  0
   46.9060   32.7720   44.0990 N   0  0  0  0  0  0  0  0  0  0  0  0
   47.8480   32.7660   43.1100 C   0  0  0  0  0  0  0  0  0  0  0  0
   48.5050   31.5430   43.2560 C   0  0  0  0  0  0  0  0  0  0  0  0
   47.9600   30.8690   44.2930 N   0  0  0  0  0  0  0  0  0  0  0  0
   46.9940   31.6120   44.8000 C   0  0  0  0  0  0  0  0  0  0  0  0
   46.0990   31.2810   45.9240 C   0  0  2  0  0  0  0  0  0  0  0  0
   46.9660   31.3700   47.1930 C   0  0  0  0  0  0  0  0  0  0  0  0
   45.6500   29.8550   45.7820 C   0  0  0  0  0  0  0  0  0  0  0  0
   44.7760   29.3030   46.8290 C   0  0  0  0  0  0  0  0  0  0  0  0
   45.0410   28.1800   47.7160 C   0  0  0  0  0  0  0  0  0  0  0  0
   44.1810   27.9200   46.5090 C   0  0  0  0  0  0  0  0  0  0  0  0
   44.1766   35.4626   46.4196 H   0  0  0  0  0  0  0  0  0  0  0  0
   43.9292   37.1009   44.5256 H   0  0  0  0  0  0  0  0  0  0  0  0
   45.1578   36.6216   42.3437 H   0  0  0  0  0  0  0  0  0  0  0  0
   48.0451   33.5503   42.3644 H   0  0  0  0  0  0  0  0  0  0  0  0
   49.3338   31.1851   42.6275 H   0  0  0  0  0  0  0  0  0  0  0  0
   45.2261   31.9496   45.9566 H   0  0  0  0  0  0  0  0  0  0  0  0
   46.3221   31.3039   48.0824 H   0  0  0  0  0  0  0  0  0  0  0  0
   47.6894   30.5414   47.2017 H   0  0  0  0  0  0  0  0  0  0  0  0
   47.5060   32.3283   47.2017 H   0  0  0  0  0  0  0  0  0  0  0  0
   45.1092   29.7749   44.8275 H   0  0  0  0  0  0  0  0  0  0  0  0
   46.5755   29.2649   45.8545 H   0  0  0  0  0  0  0  0  0  0  0  0
   44.4671   30.3297   47.0748 H   0  0  0  0  0  0  0  0  0  0  0  0
   46.0536   27.7528   47.7629 H   0  0  0  0  0  0  0  0  0  0  0  0
   44.9094   28.0140   48.7954 H   0  0  0  0  0  0  0  0  0  0  0  0
   43.1022   27.7373   46.6217 H   0  0  0  0  0  0  0  0  0  0  0  0
   44.1984   27.2258   45.6559 H   0  0  0  0  0  0  0  0  0  0  0  0
  2  1  2  0
  3  2  1  0
  4  3  2  0
  4  5  1  0
  5  6  2  0
  6  1  1  0
  7  5  1  0
  7 11  1  0
  8  9  2  0
  8  7  1  0
  9 10  1  0
 10 11  2  0
 11 12  1  0
 12 13  1  0
 14 12  1  0
 14 15  1  0
 15 16  1  0
 17 15  1  0
 17 16  1  0
  1 18  1  0
  2 19  1  0
  3 20  1  0
  8 21  1  0
  9 22  1  0
 12 23  1  1
 13 24  1  0
 13 25  1  0
 13 26  1  0
 14 27  1  0
 14 28  1  0
 15 29  1  0
 16 30  1  0
 16 31  1  0
 17 32  1  0
 17 33  1  0
M  ISO  8  18  14  19  14  20  14  21  14  22  14  23   8  24   8  25   8
M  ISO  8  26   8  27   8  28   8  29  13  30  13  31  13  32  13  33  13
M  END
>  <minimizedAffinity>  (1) 
-4.27936172

>  <minimizedRMSD>  (1) 
2.02176261

$$$$
