
     RDKit          3D

 31 33  0  0  1  0  0  0  0  0999 V2000
   43.6490   35.4800   41.2380 C   0  0  0  0  0  0  0  0  0  0  0  0
   42.2930   34.9420   40.9440 C   0  0  1  0  0  0  0  0  0  0  0  0
   41.1140   35.2800   41.7620 C   0  0  0  0  0  0  0  0  0  0  0  0
   41.2270   35.8280   40.3890 C   0  0  2  0  0  0  0  0  0  0  0  0
   40.4770   35.2640   39.2550 C   0  0  0  0  0  0  0  0  0  0  0  0
   40.7330   35.2760   37.9240 N   0  0  0  0  0  0  0  0  0  0  0  0
   39.7710   34.6420   37.3250 O   0  0  0  0  0  0  0  0  0  0  0  0
   38.8740   34.2010   38.1800 C   0  0  0  0  0  0  0  0  0  0  0  0
   39.3040   34.5850   39.4020 N   0  0  0  0  0  0  0  0  0  0  0  0
   44.0040   35.5080   42.6980 C   0  0  0  0  0  0  0  0  0  0  0  0
   47.6380   34.9160   42.2760 C   0  0  0  0  0  0  0  0  0  0  0  0
   47.9190   33.9780   43.2930 C   0  0  0  0  0  0  0  0  0  0  0  0
   46.8460   33.5600   44.1160 C   0  0  0  0  0  0  0  0  0  0  0  0
   45.6390   34.0980   43.8540 N   0  0  0  0  0  0  0  0  0  0  0  0
   45.3910   34.9890   42.8810 C   0  0  0  0  0  0  0  0  0  0  0  0
   46.3920   35.4020   42.0860 N   0  0  0  0  0  0  0  0  0  0  0  0
   48.7930   35.3380   41.4220 C   0  0  0  0  0  0  0  0  0  0  0  0
   48.4470   35.3220   40.1140 F   0  0  0  0  0  0  0  0  0  0  0  0
   49.1740   36.6340   41.7500 F   0  0  0  0  0  0  0  0  0  0  0  0
   49.8240   34.4310   41.6100 F   0  0  0  0  0  0  0  0  0  0  0  0
   43.7020   36.5085   40.8515 H   0  0  0  0  0  0  0  0  0  0  0  0
   44.3670   34.8017   40.7539 H   0  0  0  0  0  0  0  0  0  0  0  0
   42.7725   33.9995   40.6410 H   0  0  0  0  0  0  0  0  0  0  0  0
   40.3617   34.5089   41.9843 H   0  0  0  0  0  0  0  0  0  0  0  0
   40.9641   35.7176   42.7600 H   0  0  0  0  0  0  0  0  0  0  0  0
   41.1298   36.8482   39.9893 H   0  0  0  0  0  0  0  0  0  0  0  0
   37.9600   33.6349   37.9475 H   0  0  0  0  0  0  0  0  0  0  0  0
   43.9469   36.5417   43.0698 H   0  0  0  0  0  0  0  0  0  0  0  0
   43.2988   34.8777   43.2597 H   0  0  0  0  0  0  0  0  0  0  0  0
   48.9360   33.5858   43.4406 H   0  0  0  0  0  0  0  0  0  0  0  0
   46.9903   32.8326   44.9285 H   0  0  0  0  0  0  0  0  0  0  0  0
  1 10  1  0
  2  1  1  0
  2  3  1  0
  4  2  1  0
  4  3  1  0
  5  9  1  0
  5  4  1  0
  6  5  2  0
  7  6  1  0
  7  8  1  0
  8  9  2  0
 10 15  1  0
 11 12  2  0
 12 13  1  0
 14 13  2  0
 15 14  1  0
 16 11  1  0
 16 15  2  0
 17 20  1  0
 17 19  1  0
 17 11  1  0
 18 17  1  0
  1 21  1  0
  1 22  1  0
  2 23  1  6
  3 24  1  0
  3 25  1  0
  4 26  1  1
  8 27  1  0
 10 28  1  0
 10 29  1  0
 12 30  1  0
 13 31  1  0
M  ISO  8  21   8  22   8  23  13  24  13  25  13  26  13  27  14  28   8
M  ISO  3  29   8  30  14  31  14
M  END
>  <minimizedAffinity>  (1) 
-5.93994045

>  <minimizedRMSD>  (1) 
1.2959342

$$$$
