
     RDKit          3D

 39 41  0  0  1  0  0  0  0  0999 V2000
   43.6060   35.4120   41.4300 C   0  0  0  0  0  0  0  0  0  0  0  0
   42.1530   35.0300   41.3650 C   0  0  1  0  0  0  0  0  0  0  0  0
   41.0990   36.0710   41.3080 C   0  0  0  0  0  0  0  0  0  0  0  0
   41.3920   35.2570   40.1030 C   0  0  2  0  0  0  0  0  0  0  0  0
   40.5400   34.1430   39.7280 N   0  0  0  0  0  0  0  0  0  0  0  0
   39.1710   34.6180   39.7660 C   0  0  0  0  0  0  0  0  0  0  0  0
   38.2930   33.4490   39.4000 C   0  0  0  0  0  0  0  0  0  0  0  0
   38.5530   33.1390   38.0760 O   0  0  0  0  0  0  0  0  0  0  0  0
   39.8590   32.6640   37.9730 C   0  0  0  0  0  0  0  0  0  0  0  0
   40.8040   33.7630   38.3570 C   0  0  0  0  0  0  0  0  0  0  0  0
   44.1110   35.6340   42.8240 C   0  0  0  0  0  0  0  0  0  0  0  0
   47.7220   34.9370   42.3120 C   0  0  0  0  0  0  0  0  0  0  0  0
   47.9820   33.9460   43.2710 C   0  0  0  0  0  0  0  0  0  0  0  0
   46.9130   33.5280   44.0830 C   0  0  0  0  0  0  0  0  0  0  0  0
   45.7130   34.1100   43.8820 N   0  0  0  0  0  0  0  0  0  0  0  0
   45.4830   35.0600   42.9580 C   0  0  0  0  0  0  0  0  0  0  0  0
   46.4820   35.4790   42.1690 N   0  0  0  0  0  0  0  0  0  0  0  0
   48.8670   35.3760   41.4520 C   0  0  0  0  0  0  0  0  0  0  0  0
   48.5190   35.3550   40.1360 F   0  0  0  0  0  0  0  0  0  0  0  0
   49.2390   36.6730   41.7860 F   0  0  0  0  0  0  0  0  0  0  0  0
   49.8990   34.4720   41.6260 F   0  0  0  0  0  0  0  0  0  0  0  0
   43.7463   36.3411   40.8581 H   0  0  0  0  0  0  0  0  0  0  0  0
   44.1778   34.5703   41.0121 H   0  0  0  0  0  0  0  0  0  0  0  0
   42.3513   34.1683   42.0193 H   0  0  0  0  0  0  0  0  0  0  0  0
   40.1541   35.9259   41.8521 H   0  0  0  0  0  0  0  0  0  0  0  0
   41.0605   37.1486   41.5256 H   0  0  0  0  0  0  0  0  0  0  0  0
   41.5965   35.5337   39.0582 H   0  0  0  0  0  0  0  0  0  0  0  0
   38.9226   34.9763   40.7759 H   0  0  0  0  0  0  0  0  0  0  0  0
   39.0246   35.4550   39.0674 H   0  0  0  0  0  0  0  0  0  0  0  0
   38.5270   32.5867   40.0417 H   0  0  0  0  0  0  0  0  0  0  0  0
   37.2312   33.6997   39.5406 H   0  0  0  0  0  0  0  0  0  0  0  0
   39.9950   31.8065   38.6485 H   0  0  0  0  0  0  0  0  0  0  0  0
   40.0595   32.3421   36.9404 H   0  0  0  0  0  0  0  0  0  0  0  0
   41.8412   33.4087   38.2641 H   0  0  0  0  0  0  0  0  0  0  0  0
   40.6617   34.6289   37.6937 H   0  0  0  0  0  0  0  0  0  0  0  0
   44.1438   36.7133   43.0338 H   0  0  0  0  0  0  0  0  0  0  0  0
   43.4372   35.1397   43.5393 H   0  0  0  0  0  0  0  0  0  0  0  0
   48.9864   33.5117   43.3834 H   0  0  0  0  0  0  0  0  0  0  0  0
   47.0502   32.7551   44.8535 H   0  0  0  0  0  0  0  0  0  0  0  0
  1 11  1  0
  2  1  1  0
  3  2  1  0
  4  3  1  0
  4  2  1  0
  5  6  1  0
  5  4  1  0
  7  6  1  0
  8  7  1  0
  9  8  1  0
  9 10  1  0
 10  5  1  0
 11 16  1  0
 12 13  2  0
 13 14  1  0
 15 14  2  0
 16 15  1  0
 17 12  1  0
 17 16  2  0
 18 21  1  0
 18 20  1  0
 18 12  1  0
 19 18  1  0
  1 22  1  0
  1 23  1  0
  2 24  1  1
  3 25  1  0
  3 26  1  0
  4 27  1  6
  6 28  1  0
  6 29  1  0
  7 30  1  0
  7 31  1  0
  9 32  1  0
  9 33  1  0
 10 34  1  0
 10 35  1  0
 11 36  1  0
 11 37  1  0
 13 38  1  0
 14 39  1  0
M  ISO  8  22   8  23   8  24  13  25  13  26  13  27  13  28  13  29  13
M  ISO  8  30  13  31  13  32  13  33  13  34  13  35  13  36   8  37   8
M  ISO  2  38  14  39  14
M  END
>  <minimizedAffinity>  (1) 
-5.89220715

>  <minimizedRMSD>  (1) 
1.25764525

$$$$
