
     RDKit          3D

 33 35  0  0  1  0  0  0  0  0999 V2000
   43.4680   35.0650   41.1210 C   0  0  0  0  0  0  0  0  0  0  0  0
   41.9910   34.8610   40.9560 C   0  0  1  0  0  0  0  0  0  0  0  0
   41.0490   35.9940   41.1860 C   0  0  0  0  0  0  0  0  0  0  0  0
   41.2740   35.4450   39.8080 C   0  0  2  0  0  0  0  0  0  0  0  0
   40.1810   34.7350   39.1510 N   0  0  0  0  0  0  0  0  0  0  0  0
   39.8670   34.7350   37.8510 N   0  0  0  0  0  0  0  0  0  0  0  0
   38.7920   33.9580   37.6390 C   0  0  0  0  0  0  0  0  0  0  0  0
   38.4170   33.4450   38.8810 C   0  0  0  0  0  0  0  0  0  0  0  0
   39.3080   33.9500   39.8080 C   0  0  0  0  0  0  0  0  0  0  0  0
   43.9080   35.4760   42.4890 C   0  0  0  0  0  0  0  0  0  0  0  0
   47.5650   34.9130   42.2490 C   0  0  0  0  0  0  0  0  0  0  0  0
   47.8090   34.0410   43.3330 C   0  0  0  0  0  0  0  0  0  0  0  0
   46.7050   33.6700   44.1220 C   0  0  0  0  0  0  0  0  0  0  0  0
   45.4970   34.1710   43.7850 N   0  0  0  0  0  0  0  0  0  0  0  0
   45.2900   34.9940   42.7540 C   0  0  0  0  0  0  0  0  0  0  0  0
   46.3150   35.3730   41.9770 N   0  0  0  0  0  0  0  0  0  0  0  0
   48.7460   35.3100   41.4060 C   0  0  0  0  0  0  0  0  0  0  0  0
   48.4190   35.2900   40.0920 F   0  0  0  0  0  0  0  0  0  0  0  0
   49.1620   36.5800   41.7470 F   0  0  0  0  0  0  0  0  0  0  0  0
   49.7470   34.3720   41.6110 F   0  0  0  0  0  0  0  0  0  0  0  0
   43.7842   35.8458   40.4136 H   0  0  0  0  0  0  0  0  0  0  0  0
   43.9327   34.0857   40.9339 H   0  0  0  0  0  0  0  0  0  0  0  0
   42.0961   33.8437   41.3612 H   0  0  0  0  0  0  0  0  0  0  0  0
   40.0920   35.8214   41.7002 H   0  0  0  0  0  0  0  0  0  0  0  0
   41.1174   36.9869   41.6545 H   0  0  0  0  0  0  0  0  0  0  0  0
   41.5954   35.8477   38.8361 H   0  0  0  0  0  0  0  0  0  0  0  0
   38.3023   33.7638   36.6733 H   0  0  0  0  0  0  0  0  0  0  0  0
   37.5737   32.7683   39.0833 H   0  0  0  0  0  0  0  0  0  0  0  0
   39.3044   33.7468   40.8891 H   0  0  0  0  0  0  0  0  0  0  0  0
   43.8861   36.5733   42.5627 H   0  0  0  0  0  0  0  0  0  0  0  0
   43.2268   35.0345   43.2314 H   0  0  0  0  0  0  0  0  0  0  0  0
   48.8204   33.6675   43.5512 H   0  0  0  0  0  0  0  0  0  0  0  0
   46.8216   32.9956   44.9831 H   0  0  0  0  0  0  0  0  0  0  0  0
  1 10  1  0
  2  1  1  0
  2  3  1  0
  4  2  1  0
  4  3  1  0
  5  9  1  0
  5  4  1  0
  6  5  1  0
  7  6  2  0
  7  8  1  0
  8  9  2  0
 10 15  1  0
 11 12  2  0
 12 13  1  0
 14 13  2  0
 15 14  1  0
 16 11  1  0
 16 15  2  0
 17 20  1  0
 17 19  1  0
 17 11  1  0
 18 17  1  0
  1 21  1  0
  1 22  1  0
  2 23  1  1
  3 24  1  0
  3 25  1  0
  4 26  1  6
  7 27  1  0
  8 28  1  0
  9 29  1  0
 10 30  1  0
 10 31  1  0
 12 32  1  0
 13 33  1  0
M  ISO  8  21   8  22   8  23  13  24  13  25  13  26  13  27  14  28  14
M  ISO  5  29  14  30   8  31   8  32  14  33  14
M  END
>  <minimizedAffinity>  (1) 
-5.93532372

>  <minimizedRMSD>  (1) 
0.797278941

$$$$
