
     RDKit          3D

 40 42  0  0  1  0  0  0  0  0999 V2000
   43.5840   35.2460   41.4230 C   0  0  0  0  0  0  0  0  0  0  0  0
   43.5680   33.7960   41.1100 C   0  0  1  0  0  0  0  0  0  0  0  0
   42.4590   32.8840   41.4220 C   0  0  0  0  0  0  0  0  0  0  0  0
   42.8020   33.2210   39.9960 C   0  0  1  0  0  0  0  0  0  0  0  0
   41.9120   33.9520   39.1950 N   0  0  0  0  0  0  0  0  0  0  0  0
   40.8770   33.2980   38.4920 C   0  0  0  0  0  0  0  0  0  0  0  0
   39.7750   34.3550   38.2880 C   0  0  0  0  0  0  0  0  0  0  0  0
   40.3150   35.2700   37.2810 N   0  0  0  0  0  0  0  0  0  0  0  0
   41.4640   35.9250   37.8730 C   0  0  0  0  0  0  0  0  0  0  0  0
   42.5200   34.9430   38.3410 C   0  0  0  0  0  0  0  0  0  0  0  0
   44.1160   35.5780   42.7980 C   0  0  0  0  0  0  0  0  0  0  0  0
   47.7440   34.9740   42.3130 C   0  0  0  0  0  0  0  0  0  0  0  0
   48.0130   33.9890   43.2820 C   0  0  0  0  0  0  0  0  0  0  0  0
   46.9330   33.5500   44.0890 C   0  0  0  0  0  0  0  0  0  0  0  0
   45.7320   34.1130   43.8600 N   0  0  0  0  0  0  0  0  0  0  0  0
   45.5010   35.0460   42.9340 C   0  0  0  0  0  0  0  0  0  0  0  0
   46.5030   35.4820   42.1570 N   0  0  0  0  0  0  0  0  0  0  0  0
   48.8990   35.4160   41.4780 C   0  0  0  0  0  0  0  0  0  0  0  0
   48.5600   35.3800   40.1510 F   0  0  0  0  0  0  0  0  0  0  0  0
   49.2610   36.7050   41.7800 F   0  0  0  0  0  0  0  0  0  0  0  0
   49.9350   34.5100   41.6350 F   0  0  0  0  0  0  0  0  0  0  0  0
   42.5541   35.6257   41.3508 H   0  0  0  0  0  0  0  0  0  0  0  0
   44.2644   35.7178   40.6988 H   0  0  0  0  0  0  0  0  0  0  0  0
   44.6310   33.8251   41.3914 H   0  0  0  0  0  0  0  0  0  0  0  0
   42.6655   31.8783   41.8168 H   0  0  0  0  0  0  0  0  0  0  0  0
   41.5523   32.9380   42.0425 H   0  0  0  0  0  0  0  0  0  0  0  0
   43.0757   32.6684   39.0851 H   0  0  0  0  0  0  0  0  0  0  0  0
   41.2438   32.9347   37.5207 H   0  0  0  0  0  0  0  0  0  0  0  0
   40.5021   32.4237   39.0443 H   0  0  0  0  0  0  0  0  0  0  0  0
   38.8489   33.8842   37.9266 H   0  0  0  0  0  0  0  0  0  0  0  0
   39.5185   34.8728   39.2240 H   0  0  0  0  0  0  0  0  0  0  0  0
   39.6045   35.9692   37.0217 H   0  0  0  0  0  0  0  0  0  0  0  0
   41.9127   36.5938   37.1238 H   0  0  0  0  0  0  0  0  0  0  0  0
   41.1123   36.4803   38.7550 H   0  0  0  0  0  0  0  0  0  0  0  0
   42.9720   34.4477   37.4690 H   0  0  0  0  0  0  0  0  0  0  0  0
   43.2982   35.4817   38.9016 H   0  0  0  0  0  0  0  0  0  0  0  0
   44.1271   36.6696   42.9336 H   0  0  0  0  0  0  0  0  0  0  0  0
   43.4700   35.1212   43.5623 H   0  0  0  0  0  0  0  0  0  0  0  0
   49.0242   33.5750   43.4085 H   0  0  0  0  0  0  0  0  0  0  0  0
   47.0703   32.7843   44.8667 H   0  0  0  0  0  0  0  0  0  0  0  0
  1 11  1  0
  2  3  1  0
  2  1  1  0
  4  2  1  0
  4  3  1  0
  5  4  1  0
  6  5  1  0
  7  6  1  0
  8  9  1  0
  8  7  1  0
  9 10  1  0
 10  5  1  0
 11 16  1  0
 12 13  2  0
 13 14  1  0
 15 14  2  0
 16 15  1  0
 17 12  1  0
 17 16  2  0
 18 21  1  0
 18 20  1  0
 18 12  1  0
 19 18  1  0
  1 22  1  0
  1 23  1  0
  2 24  1  6
  3 25  1  0
  3 26  1  0
  4 27  1  6
  6 28  1  0
  6 29  1  0
  7 30  1  0
  7 31  1  0
  8 32  1  0
  9 33  1  0
  9 34  1  0
 10 35  1  0
 10 36  1  0
 11 37  1  0
 11 38  1  0
 13 39  1  0
 14 40  1  0
M  ISO  8  22   8  23   8  24  13  25  13  26  13  27  13  28  13  29  13
M  ISO  8  30  13  31  13  32   5  33  13  34  13  35  13  36  13  37   8
M  ISO  3  38   8  39  14  40  14
M  END
>  <minimizedAffinity>  (1) 
-5.66170263

>  <minimizedRMSD>  (1) 
1.69534707

$$$$
