
     RDKit          3D

 29 30  0  0  1  0  0  0  0  0999 V2000
   43.9600   35.6590   42.5320 C   0  0  0  0  0  0  0  0  0  0  0  0
   47.5790   34.9600   42.2400 C   0  0  0  0  0  0  0  0  0  0  0  0
   47.7950   34.0370   43.2860 C   0  0  0  0  0  0  0  0  0  0  0  0
   46.6880   33.6760   44.0680 C   0  0  0  0  0  0  0  0  0  0  0  0
   45.5040   34.2440   43.7540 N   0  0  0  0  0  0  0  0  0  0  0  0
   45.3230   35.1170   42.7580 C   0  0  0  0  0  0  0  0  0  0  0  0
   46.3570   35.4830   41.9930 N   0  0  0  0  0  0  0  0  0  0  0  0
   48.7820   35.3340   41.4130 C   0  0  0  0  0  0  0  0  0  0  0  0
   48.4610   35.3240   40.0920 F   0  0  0  0  0  0  0  0  0  0  0  0
   49.2190   36.5930   41.7390 F   0  0  0  0  0  0  0  0  0  0  0  0
   49.7510   34.3610   41.6030 F   0  0  0  0  0  0  0  0  0  0  0  0
   43.4730   35.2730   41.1560 C   0  0  0  0  0  0  0  0  0  0  0  0
   42.0290   34.8860   41.1130 C   0  0  1  0  0  0  0  0  0  0  0  0
   40.9710   35.8750   40.8310 C   0  0  0  0  0  0  0  0  0  0  0  0
   41.2930   34.7950   39.8390 C   0  0  1  0  0  0  0  0  0  0  0  0
   41.9160   35.2760   38.5790 C   0  0  0  0  0  0  0  0  0  0  0  0
   41.2770   36.1600   37.9760 O   0  0  0  0  0  0  0  0  0  0  0  0
   43.0880   34.8870   37.9920 O   0  0  0  0  0  0  0  0  0  0  0  0
   43.2750   35.2497   43.2891 H   0  0  0  0  0  0  0  0  0  0  0  0
   43.9898   36.7558   42.6102 H   0  0  0  0  0  0  0  0  0  0  0  0
   48.7930   33.6171   43.4803 H   0  0  0  0  0  0  0  0  0  0  0  0
   46.7803   32.9621   44.8998 H   0  0  0  0  0  0  0  0  0  0  0  0
   43.6226   36.1296   40.4823 H   0  0  0  0  0  0  0  0  0  0  0  0
   44.0508   34.3890   40.8481 H   0  0  0  0  0  0  0  0  0  0  0  0
   42.2308   34.1882   41.9390 H   0  0  0  0  0  0  0  0  0  0  0  0
   40.0247   35.8455   41.3910 H   0  0  0  0  0  0  0  0  0  0  0  0
   40.9158   36.9732   40.8004 H   0  0  0  0  0  0  0  0  0  0  0  0
   40.7677   33.9709   39.3341 H   0  0  0  0  0  0  0  0  0  0  0  0
   43.3775   35.3028   37.1415 H   0  0  0  0  0  0  0  0  0  0  0  0
  1  6  1  0
  2  3  2  0
  3  4  1  0
  5  4  2  0
  6  5  1  0
  7  2  1  0
  7  6  2  0
  8 11  1  0
  8 10  1  0
  8  2  1  0
  9  8  1  0
 12  1  1  0
 13 12  1  0
 14 13  1  0
 15 14  1  0
 15 13  1  0
 16 15  1  0
 17 16  2  0
 18 16  1  0
  1 19  1  0
  1 20  1  0
  3 21  1  0
  4 22  1  0
 12 23  1  0
 12 24  1  0
 13 25  1  1
 14 26  1  0
 14 27  1  0
 15 28  1  6
 18 29  1  0
M  ISO  8  19   8  20   8  21  14  22  14  23   8  24   8  25  13  26  13
M  ISO  3  27  13  28  13  29   3
M  END
>  <minimizedAffinity>  (1) 
-5.56003809

>  <minimizedRMSD>  (1) 
0.543305695

$$$$
