
     RDKit          3D

 33 35  0  0  1  0  0  0  0  0999 V2000
   44.0830   35.7870   42.7760 C   0  0  0  0  0  0  0  0  0  0  0  0
   47.6680   34.9780   42.2750 C   0  0  0  0  0  0  0  0  0  0  0  0
   47.8960   33.9700   43.2390 C   0  0  0  0  0  0  0  0  0  0  0  0
   46.8030   33.5870   44.0480 C   0  0  0  0  0  0  0  0  0  0  0  0
   45.6260   34.2080   43.8420 N   0  0  0  0  0  0  0  0  0  0  0  0
   45.4410   35.1630   42.9160 C   0  0  0  0  0  0  0  0  0  0  0  0
   46.4590   35.5480   42.1340 N   0  0  0  0  0  0  0  0  0  0  0  0
   48.8420   35.3610   41.4360 C   0  0  0  0  0  0  0  0  0  0  0  0
   48.5000   35.3410   40.1130 F   0  0  0  0  0  0  0  0  0  0  0  0
   49.2440   36.6450   41.7350 F   0  0  0  0  0  0  0  0  0  0  0  0
   49.8430   34.4360   41.6130 F   0  0  0  0  0  0  0  0  0  0  0  0
   43.5360   35.5170   41.4180 C   0  0  0  0  0  0  0  0  0  0  0  0
   42.3640   34.5810   41.3900 C   0  0  1  0  0  0  0  0  0  0  0  0
   40.9850   35.0720   41.6460 C   0  0  0  0  0  0  0  0  0  0  0  0
   41.3710   34.6070   40.2890 C   0  0  1  0  0  0  0  0  0  0  0  0
   41.3690   35.6680   39.2390 C   0  0  0  0  0  0  0  0  0  0  0  0
   40.7120   35.2490   37.9250 C   0  0  0  0  0  0  0  0  0  0  0  0
   42.1690   35.5620   37.9960 C   0  0  0  0  0  0  0  0  0  0  0  0
   43.4069   35.3615   43.5322 H   0  0  0  0  0  0  0  0  0  0  0  0
   44.1685   36.8740   42.9212 H   0  0  0  0  0  0  0  0  0  0  0  0
   48.8849   33.5024   43.3548 H   0  0  0  0  0  0  0  0  0  0  0  0
   46.9096   32.8093   44.8186 H   0  0  0  0  0  0  0  0  0  0  0  0
   43.2203   36.4749   40.9789 H   0  0  0  0  0  0  0  0  0  0  0  0
   44.3402   35.0256   40.8507 H   0  0  0  0  0  0  0  0  0  0  0  0
   43.0129   33.8085   41.8284 H   0  0  0  0  0  0  0  0  0  0  0  0
   40.2923   34.4740   42.2564 H   0  0  0  0  0  0  0  0  0  0  0  0
   40.5512   35.9948   42.0587 H   0  0  0  0  0  0  0  0  0  0  0  0
   41.0600   33.8408   39.5637 H   0  0  0  0  0  0  0  0  0  0  0  0
   41.2851   36.4663   39.9911 H   0  0  0  0  0  0  0  0  0  0  0  0
   40.0235   35.9334   37.4076 H   0  0  0  0  0  0  0  0  0  0  0  0
   40.1084   34.3938   37.5869 H   0  0  0  0  0  0  0  0  0  0  0  0
   42.9061   34.7524   37.8898 H   0  0  0  0  0  0  0  0  0  0  0  0
   42.8335   36.2484   37.4507 H   0  0  0  0  0  0  0  0  0  0  0  0
  1  6  1  0
  2  3  2  0
  3  4  1  0
  5  4  2  0
  6  5  1  0
  7  2  1  0
  7  6  2  0
  8 11  1  0
  8 10  1  0
  8  2  1  0
  9  8  1  0
 12  1  1  0
 13 12  1  0
 13 14  1  0
 15 13  1  0
 15 14  1  0
 16 15  1  0
 17 18  1  0
 17 16  1  0
 18 16  1  0
  1 19  1  0
  1 20  1  0
  3 21  1  0
  4 22  1  0
 12 23  1  0
 12 24  1  0
 13 25  1  1
 14 26  1  0
 14 27  1  0
 15 28  1  6
 16 29  1  0
 17 30  1  0
 17 31  1  0
 18 32  1  0
 18 33  1  0
M  ISO  8  19   8  20   8  21  14  22  14  23   8  24   8  25  13  26  13
M  ISO  7  27  13  28  13  29  13  30  13  31  13  32  13  33  13
M  END
>  <minimizedAffinity>  (1) 
-5.45761156

>  <minimizedRMSD>  (1) 
0.471209168

$$$$
