
     RDKit          3D

 33 35  0  0  1  0  0  0  0  0999 V2000
   44.1220   35.6040   42.7650 C   0  0  0  0  0  0  0  0  0  0  0  0
   47.7350   34.9690   42.2990 C   0  0  0  0  0  0  0  0  0  0  0  0
   47.9970   33.9820   43.2780 C   0  0  0  0  0  0  0  0  0  0  0  0
   46.9250   33.5560   44.0790 C   0  0  0  0  0  0  0  0  0  0  0  0
   45.7240   34.1200   43.8530 N   0  0  0  0  0  0  0  0  0  0  0  0
   45.4940   35.0510   42.9240 C   0  0  0  0  0  0  0  0  0  0  0  0
   46.5040   35.4800   42.1420 N   0  0  0  0  0  0  0  0  0  0  0  0
   48.8980   35.4110   41.4540 C   0  0  0  0  0  0  0  0  0  0  0  0
   48.5670   35.3710   40.1370 F   0  0  0  0  0  0  0  0  0  0  0  0
   49.2630   36.6950   41.7930 F   0  0  0  0  0  0  0  0  0  0  0  0
   49.9300   34.5020   41.6370 F   0  0  0  0  0  0  0  0  0  0  0  0
   43.6250   35.3610   41.3670 C   0  0  0  0  0  0  0  0  0  0  0  0
   43.4550   33.9150   41.0070 C   0  0  1  0  0  0  0  0  0  0  0  0
   42.1630   33.2240   41.1370 C   0  0  0  0  0  0  0  0  0  0  0  0
   42.7740   33.4730   39.7960 C   0  0  1  0  0  0  0  0  0  0  0  0
   41.9530   34.2610   38.9440 N   0  0  0  0  0  0  0  0  0  0  0  0
   40.7340   33.8440   38.5410 C   0  0  0  0  0  0  0  0  0  0  0  0
   40.1710   34.7840   37.7390 C   0  0  0  0  0  0  0  0  0  0  0  0
   41.0680   35.8040   37.6470 N   0  0  0  0  0  0  0  0  0  0  0  0
   42.1300   35.4500   38.3900 C   0  0  0  0  0  0  0  0  0  0  0  0
   43.4468   35.1133   43.4815 H   0  0  0  0  0  0  0  0  0  0  0  0
   44.1465   36.6872   42.9548 H   0  0  0  0  0  0  0  0  0  0  0  0
   49.0057   33.5626   43.4074 H   0  0  0  0  0  0  0  0  0  0  0  0
   47.0613   32.7926   44.8592 H   0  0  0  0  0  0  0  0  0  0  0  0
   42.6500   35.8585   41.2582 H   0  0  0  0  0  0  0  0  0  0  0  0
   44.3926   35.7627   40.6892 H   0  0  0  0  0  0  0  0  0  0  0  0
   44.4633   33.7585   41.4180 H   0  0  0  0  0  0  0  0  0  0  0  0
   42.1204   32.2031   41.5444 H   0  0  0  0  0  0  0  0  0  0  0  0
   41.1973   33.4496   41.6130 H   0  0  0  0  0  0  0  0  0  0  0  0
   43.1758   32.9384   38.9227 H   0  0  0  0  0  0  0  0  0  0  0  0
   40.2675   32.8877   38.8200 H   0  0  0  0  0  0  0  0  0  0  0  0
   39.1833   34.7316   37.2577 H   0  0  0  0  0  0  0  0  0  0  0  0
   43.0302   36.0684   38.5210 H   0  0  0  0  0  0  0  0  0  0  0  0
  1  6  1  0
  2  3  2  0
  3  4  1  0
  5  4  2  0
  6  5  1  0
  7  2  1  0
  7  6  2  0
  8 11  1  0
  8 10  1  0
  8  2  1  0
  9  8  1  0
 12  1  1  0
 13 14  1  0
 13 12  1  0
 15 13  1  0
 15 14  1  0
 16 15  1  0
 17 16  1  0
 18 17  2  0
 19 18  1  0
 19 20  2  0
 20 16  1  0
  1 21  1  0
  1 22  1  0
  3 23  1  0
  4 24  1  0
 12 25  1  0
 12 26  1  0
 13 27  1  1
 14 28  1  0
 14 29  1  0
 15 30  1  6
 17 31  1  0
 18 32  1  0
 20 33  1  0
M  ISO  8  21   8  22   8  23  14  24  14  25   8  26   8  27  13  28  13
M  ISO  5  29  13  30  13  31  14  32  14  33  14
M  END
>  <minimizedAffinity>  (1) 
-5.53562546

>  <minimizedRMSD>  (1) 
1.39258587

$$$$
