
     RDKit          3D

 31 32  0  0  0  0  0  0  0  0999 V2000
   45.5620   34.4600   41.2020 C   0  0  0  0  0  0  0  0  0  0  0  0
   44.5930   35.9920   44.5550 C   0  0  0  0  0  0  0  0  0  0  0  0
   44.7940   35.8570   43.1600 C   0  0  0  0  0  0  0  0  0  0  0  0
   45.3230   34.6810   42.6580 C   0  0  0  0  0  0  0  0  0  0  0  0
   45.6370   33.6760   43.5500 N   0  0  0  0  0  0  0  0  0  0  0  0
   45.4350   33.8310   44.8760 C   0  0  0  0  0  0  0  0  0  0  0  0
   44.9200   34.9750   45.3720 N   0  0  0  0  0  0  0  0  0  0  0  0
   47.0000   34.0300   40.9650 C   0  0  0  0  0  0  0  0  0  0  0  0
   47.3070   33.7900   39.6130 N   0  0  0  0  0  0  0  0  0  0  0  0
   46.3280   33.1890   38.7850 C   0  0  0  0  0  0  0  0  0  0  0  0
   47.1620   32.3030   37.8430 C   0  0  0  0  0  0  0  0  0  0  0  0
   47.8170   33.2540   36.8770 C   0  0  0  0  0  0  0  0  0  0  0  0
   48.3740   34.4820   37.5110 C   0  0  0  0  0  0  0  0  0  0  0  0
   48.3180   34.5530   38.9930 C   0  0  0  0  0  0  0  0  0  0  0  0
   44.8833   33.6748   40.8376 H   0  0  0  0  0  0  0  0  0  0  0  0
   45.3748   35.3994   40.6612 H   0  0  0  0  0  0  0  0  0  0  0  0
   44.1728   36.9212   44.9672 H   0  0  0  0  0  0  0  0  0  0  0  0
   44.5315   36.6810   42.4802 H   0  0  0  0  0  0  0  0  0  0  0  0
   45.6944   33.0117   45.5626 H   0  0  0  0  0  0  0  0  0  0  0  0
   47.6647   34.8242   41.3356 H   0  0  0  0  0  0  0  0  0  0  0  0
   47.1412   33.0785   41.4987 H   0  0  0  0  0  0  0  0  0  0  0  0
   45.6269   32.5837   39.3783 H   0  0  0  0  0  0  0  0  0  0  0  0
   45.7056   33.9217   38.2504 H   0  0  0  0  0  0  0  0  0  0  0  0
   47.9223   31.7464   38.4106 H   0  0  0  0  0  0  0  0  0  0  0  0
   46.5407   31.5571   37.3256 H   0  0  0  0  0  0  0  0  0  0  0  0
   47.0673   33.5600   36.1324 H   0  0  0  0  0  0  0  0  0  0  0  0
   48.6663   32.7159   36.4308 H   0  0  0  0  0  0  0  0  0  0  0  0
   49.4301   34.5607   37.2135 H   0  0  0  0  0  0  0  0  0  0  0  0
   47.7340   35.3043   37.1585 H   0  0  0  0  0  0  0  0  0  0  0  0
   49.2868   34.2073   39.3829 H   0  0  0  0  0  0  0  0  0  0  0  0
   48.0841   35.6014   39.2299 H   0  0  0  0  0  0  0  0  0  0  0  0
  1  4  1  0
  2  7  2  0
  3  2  1  0
  4  3  2  0
  4  5  1  0
  5  6  2  0
  6  7  1  0
  8  1  1  0
  9  8  1  0
 10  9  1  0
 11 10  1  0
 12 13  1  0
 12 11  1  0
 13 14  1  0
 14  9  1  0
  1 15  1  0
  1 16  1  0
  2 17  1  0
  3 18  1  0
  6 19  1  0
  8 20  1  0
  8 21  1  0
 10 22  1  0
 10 23  1  0
 11 24  1  0
 11 25  1  0
 12 26  1  0
 12 27  1  0
 13 28  1  0
 13 29  1  0
 14 30  1  0
 14 31  1  0
M  ISO  8  15   8  16   8  17  14  18  14  19  14  20   8  21   8  22  13
M  ISO  8  23  13  24  13  25  13  26  13  27  13  28  13  29  13  30  13
M  ISO  1  31  13
M  END
>  <minimizedAffinity>  (1) 
-3.92801809

>  <minimizedRMSD>  (1) 
2.07336783

$$$$
