
     RDKit          3D

 28 29  0  0  1  0  0  0  0  0999 V2000
   44.1080   35.6430   42.7950 C   0  0  0  0  0  0  0  0  0  0  0  0
   47.7100   34.9500   42.3040 C   0  0  0  0  0  0  0  0  0  0  0  0
   47.9660   33.9630   43.2640 C   0  0  0  0  0  0  0  0  0  0  0  0
   46.9000   33.5400   44.0740 C   0  0  0  0  0  0  0  0  0  0  0  0
   45.7060   34.1210   43.8640 N   0  0  0  0  0  0  0  0  0  0  0  0
   45.4790   35.0620   42.9440 C   0  0  0  0  0  0  0  0  0  0  0  0
   46.4790   35.4930   42.1470 N   0  0  0  0  0  0  0  0  0  0  0  0
   48.8750   35.3740   41.4570 C   0  0  0  0  0  0  0  0  0  0  0  0
   48.5290   35.3570   40.1350 F   0  0  0  0  0  0  0  0  0  0  0  0
   49.2470   36.6700   41.7750 F   0  0  0  0  0  0  0  0  0  0  0  0
   49.8950   34.4700   41.6250 F   0  0  0  0  0  0  0  0  0  0  0  0
   43.5690   35.3630   41.4350 C   0  0  0  0  0  0  0  0  0  0  0  0
   42.1260   34.9540   41.3950 C   0  0  1  0  0  0  0  0  0  0  0  0
   41.0520   35.8970   41.0490 C   0  0  0  0  0  0  0  0  0  0  0  0
   41.4230   34.8330   40.0820 C   0  0  1  0  0  0  0  0  0  0  0  0
   42.2930   35.1960   38.9090 C   0  0  0  0  0  0  0  0  0  0  0  0
   41.8590   35.8280   37.9450 O   0  0  0  0  0  0  0  0  0  0  0  0
   43.4416   35.1965   43.5477 H   0  0  0  0  0  0  0  0  0  0  0  0
   44.1651   36.7321   42.9383 H   0  0  0  0  0  0  0  0  0  0  0  0
   48.9715   33.5323   43.3799 H   0  0  0  0  0  0  0  0  0  0  0  0
   47.0357   32.7679   44.8457 H   0  0  0  0  0  0  0  0  0  0  0  0
   43.6820   36.2742   40.8292 H   0  0  0  0  0  0  0  0  0  0  0  0
   44.1413   34.5068   41.0485 H   0  0  0  0  0  0  0  0  0  0  0  0
   42.3151   34.2951   42.2552 H   0  0  0  0  0  0  0  0  0  0  0  0
   40.0877   35.8466   41.5759 H   0  0  0  0  0  0  0  0  0  0  0  0
   40.9711   36.9929   40.9998 H   0  0  0  0  0  0  0  0  0  0  0  0
   40.8411   34.0763   39.5353 H   0  0  0  0  0  0  0  0  0  0  0  0
   43.3488   34.8875   38.9126 H   0  0  0  0  0  0  0  0  0  0  0  0
  1  6  1  0
  2  3  2  0
  3  4  1  0
  5  4  2  0
  6  5  1  0
  7  2  1  0
  7  6  2  0
  8 11  1  0
  8 10  1  0
  8  2  1  0
  9  8  1  0
 12  1  1  0
 13 12  1  0
 14 13  1  0
 15 14  1  0
 15 13  1  0
 16 15  1  0
 17 16  2  0
  1 18  1  0
  1 19  1  0
  3 20  1  0
  4 21  1  0
 12 22  1  0
 12 23  1  0
 13 24  1  1
 14 25  1  0
 14 26  1  0
 15 27  1  6
 16 28  1  0
M  ISO  8  18   8  19   8  20  14  21  14  22   8  23   8  24  13  25  13
M  ISO  3  26  13  27  13  28   6
M  END
>  <minimizedAffinity>  (1) 
-5.11394835

>  <minimizedRMSD>  (1) 
0.24511531

$$$$
