
     RDKit          3D

 29 30  0  0  0  0  0  0  0  0999 V2000
   46.8840   33.8080   42.4680 C   0  0  0  0  0  0  0  0  0  0  0  0
   44.5630   36.0270   44.5350 C   0  0  0  0  0  0  0  0  0  0  0  0
   45.2940   35.5950   43.4250 C   0  0  0  0  0  0  0  0  0  0  0  0
   46.0260   34.4320   43.5460 C   0  0  0  0  0  0  0  0  0  0  0  0
   45.9860   33.7640   44.7610 N   0  0  0  0  0  0  0  0  0  0  0  0
   45.2590   34.2220   45.8110 C   0  0  0  0  0  0  0  0  0  0  0  0
   44.5560   35.3500   45.6820 N   0  0  0  0  0  0  0  0  0  0  0  0
   47.9820   34.8110   42.0630 C   0  0  0  0  0  0  0  0  0  0  0  0
   48.7680   34.2740   40.9590 N   0  0  0  0  0  0  0  0  0  0  0  0
   48.7390   32.8110   41.1930 C   0  0  0  0  0  0  0  0  0  0  0  0
   49.4880   32.1530   40.0980 C   0  0  0  0  0  0  0  0  0  0  0  0
   49.1970   32.5400   38.8330 O   0  0  0  0  0  0  0  0  0  0  0  0
   48.2670   33.5090   38.6510 C   0  0  0  0  0  0  0  0  0  0  0  0
   47.8460   34.3400   39.7840 C   0  0  0  0  0  0  0  0  0  0  0  0
   47.3478   32.8873   42.8517 H   0  0  0  0  0  0  0  0  0  0  0  0
   46.2638   33.5603   41.5939 H   0  0  0  0  0  0  0  0  0  0  0  0
   43.9757   36.9540   44.4591 H   0  0  0  0  0  0  0  0  0  0  0  0
   45.2859   36.1647   42.4840 H   0  0  0  0  0  0  0  0  0  0  0  0
   45.2487   33.6683   46.7614 H   0  0  0  0  0  0  0  0  0  0  0  0
   47.5141   35.7562   41.7506 H   0  0  0  0  0  0  0  0  0  0  0  0
   48.6437   34.9877   42.9238 H   0  0  0  0  0  0  0  0  0  0  0  0
   49.2110   32.5789   42.1591 H   0  0  0  0  0  0  0  0  0  0  0  0
   47.7002   32.4498   41.2138 H   0  0  0  0  0  0  0  0  0  0  0  0
   50.5579   32.3456   40.2658 H   0  0  0  0  0  0  0  0  0  0  0  0
   49.1932   31.0944   40.1471 H   0  0  0  0  0  0  0  0  0  0  0  0
   48.6648   34.1921   37.8860 H   0  0  0  0  0  0  0  0  0  0  0  0
   47.3575   32.9441   38.3984 H   0  0  0  0  0  0  0  0  0  0  0  0
   47.7907   35.3851   39.4454 H   0  0  0  0  0  0  0  0  0  0  0  0
   46.8726   33.9529   40.1197 H   0  0  0  0  0  0  0  0  0  0  0  0
  1  4  1  0
  2  7  2  0
  3  4  2  0
  3  2  1  0
  4  5  1  0
  5  6  2  0
  7  6  1  0
  8  1  1  0
  9 10  1  0
  9  8  1  0
 11 10  1  0
 12 11  1  0
 13 12  1  0
 13 14  1  0
 14  9  1  0
  1 15  1  0
  1 16  1  0
  2 17  1  0
  3 18  1  0
  6 19  1  0
  8 20  1  0
  8 21  1  0
 10 22  1  0
 10 23  1  0
 11 24  1  0
 11 25  1  0
 13 26  1  0
 13 27  1  0
 14 28  1  0
 14 29  1  0
M  ISO  8  15   8  16   8  17  14  18  14  19  14  20   8  21   8  22  13
M  ISO  7  23  13  24  13  25  13  26  13  27  13  28  13  29  13
M  END
>  <minimizedAffinity>  (1) 
-3.91797042

>  <minimizedRMSD>  (1) 
4.03538847

$$$$
