
     RDKit          3D

 43 45  0  0  1  0  0  0  0  0999 V2000
   43.4370   35.2880   41.4900 C   0  0  0  0  0  0  0  0  0  0  0  0
   41.9610   35.0040   41.6380 C   0  0  1  0  0  0  0  0  0  0  0  0
   40.9840   35.9830   41.0950 C   0  0  0  0  0  0  0  0  0  0  0  0
   41.1570   34.6290   40.4630 C   0  0  1  0  0  0  0  0  0  0  0  0
   41.7650   34.5490   39.2120 O   0  0  0  0  0  0  0  0  0  0  0  0
   41.0400   33.7670   38.3220 C   0  0  0  0  0  0  0  0  0  0  0  0
   40.3740   32.6090   39.0340 C   0  0  0  0  0  0  0  0  0  0  0  0
   39.5800   31.8200   38.0110 C   0  0  0  0  0  0  0  0  0  0  0  0
   38.4350   32.6830   37.5030 C   0  0  0  0  0  0  0  0  0  0  0  0
   38.5920   34.1280   37.8590 C   0  0  0  0  0  0  0  0  0  0  0  0
   39.9820   34.6660   37.6960 C   0  0  0  0  0  0  0  0  0  0  0  0
   44.0900   35.7650   42.7600 C   0  0  0  0  0  0  0  0  0  0  0  0
   47.6720   34.9790   42.2710 C   0  0  0  0  0  0  0  0  0  0  0  0
   47.8970   33.9910   43.2380 C   0  0  0  0  0  0  0  0  0  0  0  0
   46.8060   33.6030   44.0520 C   0  0  0  0  0  0  0  0  0  0  0  0
   45.6440   34.2120   43.8350 N   0  0  0  0  0  0  0  0  0  0  0  0
   45.4460   35.1660   42.8950 C   0  0  0  0  0  0  0  0  0  0  0  0
   46.4600   35.5450   42.1190 N   0  0  0  0  0  0  0  0  0  0  0  0
   48.8360   35.3730   41.4230 C   0  0  0  0  0  0  0  0  0  0  0  0
   48.5080   35.3320   40.1070 F   0  0  0  0  0  0  0  0  0  0  0  0
   49.2630   36.6450   41.7460 F   0  0  0  0  0  0  0  0  0  0  0  0
   49.8430   34.4180   41.6100 F   0  0  0  0  0  0  0  0  0  0  0  0
   43.9382   34.3635   41.1674 H   0  0  0  0  0  0  0  0  0  0  0  0
   43.5370   36.0979   40.7523 H   0  0  0  0  0  0  0  0  0  0  0  0
   42.1374   34.5426   42.6209 H   0  0  0  0  0  0  0  0  0  0  0  0
   40.0674   36.2182   41.6558 H   0  0  0  0  0  0  0  0  0  0  0  0
   41.0310   37.0240   40.7428 H   0  0  0  0  0  0  0  0  0  0  0  0
   40.4921   33.7878   40.2175 H   0  0  0  0  0  0  0  0  0  0  0  0
   41.7085   33.3433   37.5581 H   0  0  0  0  0  0  0  0  0  0  0  0
   41.1382   31.9634   39.4913 H   0  0  0  0  0  0  0  0  0  0  0  0
   39.7092   32.9813   39.8273 H   0  0  0  0  0  0  0  0  0  0  0  0
   40.2335   31.5419   37.1710 H   0  0  0  0  0  0  0  0  0  0  0  0
   39.1803   30.9058   38.4742 H   0  0  0  0  0  0  0  0  0  0  0  0
   37.4961   32.3137   37.9411 H   0  0  0  0  0  0  0  0  0  0  0  0
   38.4304   32.6123   36.4053 H   0  0  0  0  0  0  0  0  0  0  0  0
   37.9199   34.7145   37.2153 H   0  0  0  0  0  0  0  0  0  0  0  0
   38.3496   34.2125   38.9286 H   0  0  0  0  0  0  0  0  0  0  0  0
   40.1965   34.7658   36.6217 H   0  0  0  0  0  0  0  0  0  0  0  0
   40.0242   35.6363   38.2124 H   0  0  0  0  0  0  0  0  0  0  0  0
   44.1775   36.8612   42.7344 H   0  0  0  0  0  0  0  0  0  0  0  0
   43.4742   35.4583   43.6183 H   0  0  0  0  0  0  0  0  0  0  0  0
   48.8890   33.5317   43.3608 H   0  0  0  0  0  0  0  0  0  0  0  0
   46.9145   32.8322   44.8293 H   0  0  0  0  0  0  0  0  0  0  0  0
  1  2  1  0
  1 12  1  0
  3  2  1  0
  4  3  1  0
  4  2  1  0
  5  4  1  0
  6  7  1  0
  6  5  1  0
  8  7  1  0
  9 10  1  0
  9  8  1  0
 11 10  1  0
 11  6  1  0
 12 17  1  0
 13 14  2  0
 14 15  1  0
 16 15  2  0
 17 16  1  0
 18 13  1  0
 18 17  2  0
 19 22  1  0
 19 21  1  0
 19 13  1  0
 20 19  1  0
  1 23  1  0
  1 24  1  0
  2 25  1  1
  3 26  1  0
  3 27  1  0
  4 28  1  1
  6 29  1  0
  7 30  1  0
  7 31  1  0
  8 32  1  0
  8 33  1  0
  9 34  1  0
  9 35  1  0
 10 36  1  0
 10 37  1  0
 11 38  1  0
 11 39  1  0
 12 40  1  0
 12 41  1  0
 14 42  1  0
 15 43  1  0
M  ISO  8  23   8  24   8  25  13  26  13  27  13  28  13  29  13  30  13
M  ISO  8  31  13  32  13  33  13  34  13  35  13  36  13  37  13  38  13
M  ISO  5  39  13  40   8  41   8  42  14  43  14
M  END
>  <minimizedAffinity>  (1) 
-6.28145075

>  <minimizedRMSD>  (1) 
1.0826323

$$$$
