
     RDKit          3D

 39 40  0  0  1  0  0  0  0  0999 V2000
   44.0770   35.7670   42.8250 C   0  0  0  0  0  0  0  0  0  0  0  0
   47.6560   34.9750   42.2780 C   0  0  0  0  0  0  0  0  0  0  0  0
   47.8850   33.9710   43.2530 C   0  0  0  0  0  0  0  0  0  0  0  0
   46.8080   33.5900   44.0710 C   0  0  0  0  0  0  0  0  0  0  0  0
   45.6500   34.2030   43.8710 N   0  0  0  0  0  0  0  0  0  0  0  0
   45.4360   35.1560   42.9460 C   0  0  0  0  0  0  0  0  0  0  0  0
   46.4460   35.5290   42.1600 N   0  0  0  0  0  0  0  0  0  0  0  0
   48.8130   35.3590   41.4240 C   0  0  0  0  0  0  0  0  0  0  0  0
   48.4620   35.3030   40.1140 F   0  0  0  0  0  0  0  0  0  0  0  0
   49.2240   36.6430   41.7350 F   0  0  0  0  0  0  0  0  0  0  0  0
   49.8250   34.4230   41.6080 F   0  0  0  0  0  0  0  0  0  0  0  0
   43.5170   35.5120   41.4590 C   0  0  0  0  0  0  0  0  0  0  0  0
   42.2600   34.6720   41.4490 C   0  0  1  0  0  0  0  0  0  0  0  0
   40.9850   35.2980   41.8920 C   0  0  0  0  0  0  0  0  0  0  0  0
   41.2090   34.9430   40.4490 C   0  0  1  0  0  0  0  0  0  0  0  0
   41.3660   35.9450   39.5240 O   0  0  0  0  0  0  0  0  0  0  0  0
   41.3500   35.4340   38.2280 C   0  0  0  0  0  0  0  0  0  0  0  0
   41.3640   36.5030   37.1630 C   0  0  0  0  0  0  0  0  0  0  0  0
   42.5680   34.5550   37.9910 C   0  0  0  0  0  0  0  0  0  0  0  0
   40.1300   34.5700   37.9870 C   0  0  0  0  0  0  0  0  0  0  0  0
   43.4106   35.3241   43.5798 H   0  0  0  0  0  0  0  0  0  0  0  0
   44.1550   36.8525   42.9850 H   0  0  0  0  0  0  0  0  0  0  0  0
   48.8750   33.5050   43.3654 H   0  0  0  0  0  0  0  0  0  0  0  0
   46.9211   32.8160   44.8444 H   0  0  0  0  0  0  0  0  0  0  0  0
   43.2868   36.4821   40.9944 H   0  0  0  0  0  0  0  0  0  0  0  0
   44.2800   34.9439   40.9067 H   0  0  0  0  0  0  0  0  0  0  0  0
   42.8297   33.7762   41.7372 H   0  0  0  0  0  0  0  0  0  0  0  0
   40.2686   34.7233   42.4974 H   0  0  0  0  0  0  0  0  0  0  0  0
   40.7103   36.2114   42.4400 H   0  0  0  0  0  0  0  0  0  0  0  0
   40.6821   34.3344   39.6993 H   0  0  0  0  0  0  0  0  0  0  0  0
   41.3770   37.4946   37.6390 H   0  0  0  0  0  0  0  0  0  0  0  0
   42.2607   36.3851   36.5369 H   0  0  0  0  0  0  0  0  0  0  0  0
   40.4645   36.4086   36.5369 H   0  0  0  0  0  0  0  0  0  0  0  0
   42.9928   34.2485   38.9583 H   0  0  0  0  0  0  0  0  0  0  0  0
   42.2706   33.6620   37.4216 H   0  0  0  0  0  0  0  0  0  0  0  0
   43.3218   35.1186   37.4216 H   0  0  0  0  0  0  0  0  0  0  0  0
   39.6999   34.2654   38.9525 H   0  0  0  0  0  0  0  0  0  0  0  0
   39.3829   35.1414   37.4167 H   0  0  0  0  0  0  0  0  0  0  0  0
   40.4210   33.6755   37.4167 H   0  0  0  0  0  0  0  0  0  0  0  0
  1  6  1  0
  2  3  2  0
  3  4  1  0
  5  4  2  0
  6  5  1  0
  7  2  1  0
  7  6  2  0
  8 11  1  0
  8 10  1  0
  8  2  1  0
  9  8  1  0
 12  1  1  0
 13 12  1  0
 13 14  1  0
 15 13  1  0
 15 14  1  0
 16 15  1  0
 17 16  1  0
 18 17  1  0
 19 17  1  0
 20 17  1  0
  1 21  1  0
  1 22  1  0
  3 23  1  0
  4 24  1  0
 12 25  1  0
 12 26  1  0
 13 27  1  1
 14 28  1  0
 14 29  1  0
 15 30  1  6
 18 31  1  0
 18 32  1  0
 18 33  1  0
 19 34  1  0
 19 35  1  0
 19 36  1  0
 20 37  1  0
 20 38  1  0
 20 39  1  0
M  ISO  8  21   8  22   8  23  14  24  14  25   8  26   8  27  13  28  13
M  ISO  8  29  13  30  13  31   8  32   8  33   8  34   8  35   8  36   8
M  ISO  3  37   8  38   8  39   8
M  END
>  <minimizedAffinity>  (1) 
-5.46511698

>  <minimizedRMSD>  (1) 
0.578176975

$$$$
