
     RDKit          3D

 34 36  0  0  1  0  0  0  0  0999 V2000
   44.3310   35.5720   43.2840 C   0  0  0  0  0  0  0  0  0  0  0  0
   47.8640   34.8860   42.4310 C   0  0  0  0  0  0  0  0  0  0  0  0
   48.1710   33.7840   43.2440 C   0  0  0  0  0  0  0  0  0  0  0  0
   47.1530   33.2850   44.0830 C   0  0  0  0  0  0  0  0  0  0  0  0
   45.9700   33.9050   44.0350 N   0  0  0  0  0  0  0  0  0  0  0  0
   45.7010   34.9610   43.2470 C   0  0  0  0  0  0  0  0  0  0  0  0
   46.6450   35.4490   42.4470 N   0  0  0  0  0  0  0  0  0  0  0  0
   48.9660   35.3980   41.5460 C   0  0  0  0  0  0  0  0  0  0  0  0
   48.6190   35.2890   40.2540 F   0  0  0  0  0  0  0  0  0  0  0  0
   49.2280   36.7210   41.8350 F   0  0  0  0  0  0  0  0  0  0  0  0
   50.0870   34.5900   41.7480 F   0  0  0  0  0  0  0  0  0  0  0  0
   43.7740   35.6690   41.8980 C   0  0  0  0  0  0  0  0  0  0  0  0
   42.5940   34.7670   41.6430 C   0  0  1  0  0  0  0  0  0  0  0  0
   41.2360   35.3210   41.5100 C   0  0  0  0  0  0  0  0  0  0  0  0
   41.9240   34.7700   40.3180 C   0  0  1  0  0  0  0  0  0  0  0  0
   42.3970   35.5970   39.3240 O   0  0  0  0  0  0  0  0  0  0  0  0
   41.9620   35.2360   38.0530 C   0  0  0  0  0  0  0  0  0  0  0  0
   41.2330   36.3370   37.2720 C   0  0  0  0  0  0  0  0  0  0  0  0
   40.4470   35.1840   37.8690 C   0  0  0  0  0  0  0  0  0  0  0  0
   43.6692   34.9446   43.8991 H   0  0  0  0  0  0  0  0  0  0  0  0
   44.3981   36.5811   43.7167 H   0  0  0  0  0  0  0  0  0  0  0  0
   49.1707   33.3254   43.2275 H   0  0  0  0  0  0  0  0  0  0  0  0
   47.3249   32.4247   44.7466 H   0  0  0  0  0  0  0  0  0  0  0  0
   43.4578   36.7083   41.7251 H   0  0  0  0  0  0  0  0  0  0  0  0
   44.5722   35.3473   41.2129 H   0  0  0  0  0  0  0  0  0  0  0  0
   43.0573   34.0004   42.2815 H   0  0  0  0  0  0  0  0  0  0  0  0
   40.3795   34.7859   41.9460 H   0  0  0  0  0  0  0  0  0  0  0  0
   40.7626   36.2827   41.7573 H   0  0  0  0  0  0  0  0  0  0  0  0
   41.6668   34.0154   39.5601 H   0  0  0  0  0  0  0  0  0  0  0  0
   42.7988   34.5524   37.8471 H   0  0  0  0  0  0  0  0  0  0  0  0
   41.3569   36.4118   36.1816 H   0  0  0  0  0  0  0  0  0  0  0  0
   41.1786   37.4335   37.3412 H   0  0  0  0  0  0  0  0  0  0  0  0
   39.7836   35.3593   38.7288 H   0  0  0  0  0  0  0  0  0  0  0  0
   39.7397   34.4408   37.4722 H   0  0  0  0  0  0  0  0  0  0  0  0
  2  7  2  0
  2  3  1  0
  3  4  2  0
  5  4  1  0
  6  1  1  0
  6  5  2  0
  7  6  1  0
  8 11  1  0
  8 10  1  0
  8  2  1  0
  9  8  1  0
 12  1  1  0
 13 12  1  0
 14 13  1  0
 15 14  1  0
 15 13  1  0
 16 15  1  0
 17 16  1  0
 18 19  1  0
 18 17  1  0
 19 17  1  0
  1 20  1  0
  1 21  1  0
  3 22  1  0
  4 23  1  0
 12 24  1  0
 12 25  1  0
 13 26  1  1
 14 27  1  0
 14 28  1  0
 15 29  1  6
 17 30  1  0
 18 31  1  0
 18 32  1  0
 19 33  1  0
 19 34  1  0
M  ISO  8  20   8  21   8  22  14  23  14  24   8  25   8  26  13  27  13
M  ISO  7  28  13  29  13  30  13  31  13  32  13  33  13  34  13
M  END
>  <minimizedAffinity>  (1) 
-5.45268011

>  <minimizedRMSD>  (1) 
0.780462205

$$$$
