
     RDKit          3D

 36 37  0  0  1  0  0  0  0  0999 V2000
   44.1980   35.6600   42.9490 C   0  0  0  0  0  0  0  0  0  0  0  0
   47.7820   34.9590   42.3240 C   0  0  0  0  0  0  0  0  0  0  0  0
   48.0590   33.9420   43.2520 C   0  0  0  0  0  0  0  0  0  0  0  0
   47.0050   33.5030   44.0930 C   0  0  0  0  0  0  0  0  0  0  0  0
   45.8230   34.1000   43.9260 N   0  0  0  0  0  0  0  0  0  0  0  0
   45.5720   35.0760   43.0300 C   0  0  0  0  0  0  0  0  0  0  0  0
   46.5530   35.5020   42.2310 N   0  0  0  0  0  0  0  0  0  0  0  0
   48.9140   35.4020   41.4520 C   0  0  0  0  0  0  0  0  0  0  0  0
   48.5570   35.3610   40.1500 F   0  0  0  0  0  0  0  0  0  0  0  0
   49.2720   36.7000   41.7880 F   0  0  0  0  0  0  0  0  0  0  0  0
   49.9710   34.5080   41.6250 F   0  0  0  0  0  0  0  0  0  0  0  0
   43.6550   35.4640   41.5620 C   0  0  0  0  0  0  0  0  0  0  0  0
   42.3200   34.7640   41.5150 C   0  0  1  0  0  0  0  0  0  0  0  0
   41.0750   35.5770   41.4850 C   0  0  0  0  0  0  0  0  0  0  0  0
   41.5220   34.8000   40.2780 C   0  0  1  0  0  0  0  0  0  0  0  0
   41.9660   35.5160   39.1690 O   0  0  0  0  0  0  0  0  0  0  0  0
   40.8960   35.8150   38.3080 C   0  0  0  0  0  0  0  0  0  0  0  0
   41.3830   36.5410   37.0680 C   0  0  0  0  0  0  0  0  0  0  0  0
   40.3180   34.4910   37.8570 C   0  0  0  0  0  0  0  0  0  0  0  0
   43.5419   35.1572   43.6747 H   0  0  0  0  0  0  0  0  0  0  0  0
   44.2408   36.7348   43.1790 H   0  0  0  0  0  0  0  0  0  0  0  0
   49.0634   33.4993   43.3243 H   0  0  0  0  0  0  0  0  0  0  0  0
   47.1537   32.7124   44.8432 H   0  0  0  0  0  0  0  0  0  0  0  0
   43.5432   36.4523   41.0922 H   0  0  0  0  0  0  0  0  0  0  0  0
   44.3698   34.8185   41.0305 H   0  0  0  0  0  0  0  0  0  0  0  0
   42.7038   33.9594   42.1594 H   0  0  0  0  0  0  0  0  0  0  0  0
   40.1903   35.2544   42.0536 H   0  0  0  0  0  0  0  0  0  0  0  0
   40.8195   36.6270   41.6907 H   0  0  0  0  0  0  0  0  0  0  0  0
   41.0888   34.0262   39.6271 H   0  0  0  0  0  0  0  0  0  0  0  0
   40.1662   36.4497   38.8319 H   0  0  0  0  0  0  0  0  0  0  0  0
   41.9729   37.4204   37.3659 H   0  0  0  0  0  0  0  0  0  0  0  0
   42.0105   35.8642   36.4695 H   0  0  0  0  0  0  0  0  0  0  0  0
   40.5187   36.8648   36.4695 H   0  0  0  0  0  0  0  0  0  0  0  0
   40.0543   33.8870   38.7377 H   0  0  0  0  0  0  0  0  0  0  0  0
   39.4167   34.6712   37.2527 H   0  0  0  0  0  0  0  0  0  0  0  0
   41.0629   33.9525   37.2527 H   0  0  0  0  0  0  0  0  0  0  0  0
  1  6  1  0
  2  3  2  0
  3  4  1  0
  5  4  2  0
  6  5  1  0
  7  2  1  0
  7  6  2  0
  8 11  1  0
  8 10  1  0
  8  2  1  0
  9  8  1  0
 12  1  1  0
 13 12  1  0
 14 13  1  0
 15 14  1  0
 15 13  1  0
 16 15  1  0
 17 16  1  0
 18 17  1  0
 19 17  1  0
  1 20  1  0
  1 21  1  0
  3 22  1  0
  4 23  1  0
 12 24  1  0
 12 25  1  0
 13 26  1  1
 14 27  1  0
 14 28  1  0
 15 29  1  6
 17 30  1  0
 18 31  1  0
 18 32  1  0
 18 33  1  0
 19 34  1  0
 19 35  1  0
 19 36  1  0
M  ISO  8  20   8  21   8  22  14  23  14  24   8  25   8  26  13  27  13
M  ISO  8  28  13  29  13  30   8  31   8  32   8  33   8  34   8  35   8
M  ISO  1  36   8
M  END
>  <minimizedAffinity>  (1) 
-5.59285307

>  <minimizedRMSD>  (1) 
0.73131758

$$$$
