
     RDKit          3D

 30 31  0  0  1  0  0  0  0  0999 V2000
   44.1840   35.7080   42.9430 C   0  0  0  0  0  0  0  0  0  0  0  0
   47.7620   34.9640   42.3190 C   0  0  0  0  0  0  0  0  0  0  0  0
   48.0140   33.9380   43.2550 C   0  0  0  0  0  0  0  0  0  0  0  0
   46.9550   33.5180   44.0860 C   0  0  0  0  0  0  0  0  0  0  0  0
   45.7880   34.1250   43.9220 N   0  0  0  0  0  0  0  0  0  0  0  0
   45.5480   35.1010   43.0310 C   0  0  0  0  0  0  0  0  0  0  0  0
   46.5430   35.5210   42.2260 N   0  0  0  0  0  0  0  0  0  0  0  0
   48.9000   35.3910   41.4520 C   0  0  0  0  0  0  0  0  0  0  0  0
   48.5460   35.3630   40.1560 F   0  0  0  0  0  0  0  0  0  0  0  0
   49.2700   36.6940   41.7770 F   0  0  0  0  0  0  0  0  0  0  0  0
   49.9510   34.5060   41.6410 F   0  0  0  0  0  0  0  0  0  0  0  0
   43.6280   35.5160   41.5610 C   0  0  0  0  0  0  0  0  0  0  0  0
   42.2690   34.8790   41.5350 C   0  0  1  0  0  0  0  0  0  0  0  0
   41.0460   35.6840   41.4000 C   0  0  0  0  0  0  0  0  0  0  0  0
   41.4900   34.8390   40.2630 C   0  0  1  0  0  0  0  0  0  0  0  0
   42.0250   35.4060   39.1290 O   0  0  0  0  0  0  0  0  0  0  0  0
   41.3640   35.5840   37.9240 C   0  0  0  0  0  0  0  0  0  0  0  0
   40.2670   35.0890   37.6330 O   0  0  0  0  0  0  0  0  0  0  0  0
   41.9240   36.3700   36.9220 O   0  0  0  0  0  0  0  0  0  0  0  0
   43.5207   35.2224   43.6739 H   0  0  0  0  0  0  0  0  0  0  0  0
   44.2515   36.7842   43.1602 H   0  0  0  0  0  0  0  0  0  0  0  0
   49.0102   33.4782   43.3341 H   0  0  0  0  0  0  0  0  0  0  0  0
   47.0909   32.7240   44.8351 H   0  0  0  0  0  0  0  0  0  0  0  0
   43.5582   36.5008   41.0759 H   0  0  0  0  0  0  0  0  0  0  0  0
   44.3108   34.8331   41.0343 H   0  0  0  0  0  0  0  0  0  0  0  0
   42.6220   34.1352   42.2645 H   0  0  0  0  0  0  0  0  0  0  0  0
   40.1441   35.4101   41.9671 H   0  0  0  0  0  0  0  0  0  0  0  0
   40.8033   36.7497   41.5237 H   0  0  0  0  0  0  0  0  0  0  0  0
   41.0167   34.0591   39.6484 H   0  0  0  0  0  0  0  0  0  0  0  0
   41.4460   36.4926   36.0638 H   0  0  0  0  0  0  0  0  0  0  0  0
  1  6  1  0
  2  3  2  0
  3  4  1  0
  5  4  2  0
  6  5  1  0
  7  2  1  0
  7  6  2  0
  8 11  1  0
  8 10  1  0
  8  2  1  0
  9  8  1  0
 12  1  1  0
 13 12  1  0
 14 13  1  0
 15 14  1  0
 15 13  1  0
 16 15  1  0
 17 16  1  0
 18 17  2  0
 19 17  1  0
  1 20  1  0
  1 21  1  0
  3 22  1  0
  4 23  1  0
 12 24  1  0
 12 25  1  0
 13 26  1  1
 14 27  1  0
 14 28  1  0
 15 29  1  6
 19 30  1  0
M  ISO  8  20   8  21   8  22  14  23  14  24   8  25   8  26  13  27  13
M  ISO  3  28  13  29  13  30   3
M  END
>  <minimizedAffinity>  (1) 
-5.57036877

>  <minimizedRMSD>  (1) 
0.568434954

$$$$
