
     RDKit          3D

 30 31  0  0  1  0  0  0  0  0999 V2000
   44.1320   35.6340   42.8080 C   0  0  0  0  0  0  0  0  0  0  0  0
   47.7400   34.9640   42.3020 C   0  0  0  0  0  0  0  0  0  0  0  0
   48.0000   33.9720   43.2610 C   0  0  0  0  0  0  0  0  0  0  0  0
   46.9280   33.5440   44.0730 C   0  0  0  0  0  0  0  0  0  0  0  0
   45.7480   34.1120   43.8700 N   0  0  0  0  0  0  0  0  0  0  0  0
   45.5100   35.0660   42.9440 C   0  0  0  0  0  0  0  0  0  0  0  0
   46.5120   35.4870   42.1630 N   0  0  0  0  0  0  0  0  0  0  0  0
   48.8960   35.4010   41.4530 C   0  0  0  0  0  0  0  0  0  0  0  0
   48.5550   35.3540   40.1370 F   0  0  0  0  0  0  0  0  0  0  0  0
   49.2620   36.6980   41.7790 F   0  0  0  0  0  0  0  0  0  0  0  0
   49.9440   34.5060   41.6360 F   0  0  0  0  0  0  0  0  0  0  0  0
   43.6070   35.3770   41.4250 C   0  0  0  0  0  0  0  0  0  0  0  0
   42.2230   34.7840   41.3830 C   0  0  1  0  0  0  0  0  0  0  0  0
   41.0480   35.6920   41.4090 C   0  0  0  0  0  0  0  0  0  0  0  0
   41.3960   34.9190   40.1730 C   0  0  1  0  0  0  0  0  0  0  0  0
   41.8920   35.5670   39.0600 O   0  0  0  0  0  0  0  0  0  0  0  0
   41.0470   35.3670   37.9640 C   0  0  0  0  0  0  0  0  0  0  0  0
   43.4674   35.1587   43.5445 H   0  0  0  0  0  0  0  0  0  0  0  0
   44.1686   36.7190   42.9854 H   0  0  0  0  0  0  0  0  0  0  0  0
   49.0062   33.5425   43.3757 H   0  0  0  0  0  0  0  0  0  0  0  0
   47.0662   32.7706   44.8429 H   0  0  0  0  0  0  0  0  0  0  0  0
   43.5878   36.3332   40.8815 H   0  0  0  0  0  0  0  0  0  0  0  0
   44.2791   34.6360   40.9677 H   0  0  0  0  0  0  0  0  0  0  0  0
   42.5612   33.9298   41.9879 H   0  0  0  0  0  0  0  0  0  0  0  0
   40.1562   35.4248   41.9949 H   0  0  0  0  0  0  0  0  0  0  0  0
   40.8834   36.7529   41.6487 H   0  0  0  0  0  0  0  0  0  0  0  0
   40.8572   34.2204   39.5160 H   0  0  0  0  0  0  0  0  0  0  0  0
   40.0344   35.1273   38.3206 H   0  0  0  0  0  0  0  0  0  0  0  0
   41.0141   36.2822   37.3546 H   0  0  0  0  0  0  0  0  0  0  0  0
   41.4278   34.5342   37.3546 H   0  0  0  0  0  0  0  0  0  0  0  0
  1  6  1  0
  2  3  2  0
  3  4  1  0
  5  4  2  0
  6  5  1  0
  7  2  1  0
  7  6  2  0
  8 11  1  0
  8 10  1  0
  8  2  1  0
  9  8  1  0
 12  1  1  0
 13 14  1  0
 13 12  1  0
 15 13  1  0
 15 14  1  0
 16 15  1  0
 17 16  1  0
  1 18  1  0
  1 19  1  0
  3 20  1  0
  4 21  1  0
 12 22  1  0
 12 23  1  0
 13 24  1  1
 14 25  1  0
 14 26  1  0
 15 27  1  6
 17 28  1  0
 17 29  1  0
 17 30  1  0
M  ISO  8  18   8  19   8  20  14  21  14  22   8  23   8  24  13  25  13
M  ISO  5  26  13  27  13  28   8  29   8  30   8
M  END
>  <minimizedAffinity>  (1) 
-5.03120375

>  <minimizedRMSD>  (1) 
0.300992429

$$$$
