
     RDKit          3D

 23 24  0  0  0  0  0  0  0  0999 V2000
   46.0850   31.6290   45.0670 C   0  0  0  0  0  0  0  0  0  0  0  0
   45.5580   30.4640   48.6590 C   0  0  0  0  0  0  0  0  0  0  0  0
   45.3320   30.5980   47.2780 C   0  0  0  0  0  0  0  0  0  0  0  0
   46.2020   31.3910   46.5500 C   0  0  0  0  0  0  0  0  0  0  0  0
   47.2360   32.0050   47.2030 N   0  0  0  0  0  0  0  0  0  0  0  0
   47.4320   31.8580   48.5370 C   0  0  0  0  0  0  0  0  0  0  0  0
   46.5960   31.0920   49.2540 N   0  0  0  0  0  0  0  0  0  0  0  0
   46.9900   32.8090   44.6700 C   0  0  0  0  0  0  0  0  0  0  0  0
   46.2370   33.9800   44.2830 C   0  0  0  0  0  0  0  0  0  0  0  0
   46.2190   34.7480   43.1280 C   0  0  0  0  0  0  0  0  0  0  0  0
   45.4020   35.8120   43.0260 C   0  0  0  0  0  0  0  0  0  0  0  0
   44.5830   36.0850   44.1570 C   0  0  0  0  0  0  0  0  0  0  0  0
   45.0530   34.7270   45.3700 S   0  0  0  0  0  0  0  0  0  0  0  0
   46.3991   30.7256   44.5236 H   0  0  0  0  0  0  0  0  0  0  0  0
   45.0408   31.8624   44.8118 H   0  0  0  0  0  0  0  0  0  0  0  0
   44.8818   29.8405   49.2624 H   0  0  0  0  0  0  0  0  0  0  0  0
   44.4885   30.0876   46.7902 H   0  0  0  0  0  0  0  0  0  0  0  0
   48.2743   32.3656   49.0298 H   0  0  0  0  0  0  0  0  0  0  0  0
   47.6282   33.0679   45.5277 H   0  0  0  0  0  0  0  0  0  0  0  0
   47.5868   32.4941   43.8013 H   0  0  0  0  0  0  0  0  0  0  0  0
   46.8786   34.4847   42.2880 H   0  0  0  0  0  0  0  0  0  0  0  0
   45.3691   36.4352   42.1201 H   0  0  0  0  0  0  0  0  0  0  0  0
   43.8511   36.8953   44.2899 H   0  0  0  0  0  0  0  0  0  0  0  0
  1  4  1  0
  2  7  2  0
  3  2  1  0
  4  5  1  0
  4  3  2  0
  5  6  2  0
  6  7  1  0
  8  1  1  0
  9  8  1  0
  9 13  1  0
 10  9  2  0
 11 10  1  0
 11 12  2  0
 12 13  1  0
  1 14  1  0
  1 15  1  0
  2 16  1  0
  3 17  1  0
  6 18  1  0
  8 19  1  0
  8 20  1  0
 10 21  1  0
 11 22  1  0
 12 23  1  0
M  ISO  8  14   8  15   8  16  14  17  14  18  14  19   8  20   8  21  14
M  ISO  2  22  14  23  14
M  END
>  <minimizedAffinity>  (1) 
-3.88195181

>  <minimizedRMSD>  (1) 
5.08896208

$$$$
