
     RDKit          3D

 40 42  0  0  1  0  0  0  0  0999 V2000
   43.6740   35.4120   41.4540 C   0  0  0  0  0  0  0  0  0  0  0  0
   43.8010   33.9880   40.9580 C   0  0  1  0  0  0  0  0  0  0  0  0
   42.8250   32.9830   41.4570 C   0  0  0  0  0  0  0  0  0  0  0  0
   42.7820   33.4530   40.0380 C   0  0  1  0  0  0  0  0  0  0  0  0
   41.7530   34.2420   39.5850 O   0  0  0  0  0  0  0  0  0  0  0  0
   38.8830   32.9980   38.9280 N   0  0  0  0  0  0  0  0  0  0  0  0
   39.8490   32.0440   38.5620 C   0  0  0  0  0  0  0  0  0  0  0  0
   41.1280   32.5670   38.0110 C   0  0  0  0  0  0  0  0  0  0  0  0
   41.3500   34.0500   38.3060 C   0  0  1  0  0  0  0  0  0  0  0  0
   40.1630   34.7760   37.8060 C   0  0  0  0  0  0  0  0  0  0  0  0
   38.8420   34.2280   38.2530 C   0  0  0  0  0  0  0  0  0  0  0  0
   44.1850   35.6350   42.8470 C   0  0  0  0  0  0  0  0  0  0  0  0
   47.7900   34.9970   42.3380 C   0  0  0  0  0  0  0  0  0  0  0  0
   48.0640   33.9870   43.2750 C   0  0  0  0  0  0  0  0  0  0  0  0
   46.9960   33.5380   44.0720 C   0  0  0  0  0  0  0  0  0  0  0  0
   45.8050   34.1030   43.8810 N   0  0  0  0  0  0  0  0  0  0  0  0
   45.5680   35.0790   42.9670 C   0  0  0  0  0  0  0  0  0  0  0  0
   46.5610   35.5190   42.2030 N   0  0  0  0  0  0  0  0  0  0  0  0
   48.9390   35.4640   41.4970 C   0  0  0  0  0  0  0  0  0  0  0  0
   48.6200   35.3800   40.1780 F   0  0  0  0  0  0  0  0  0  0  0  0
   49.2700   36.7620   41.8130 F   0  0  0  0  0  0  0  0  0  0  0  0
   50.0070   34.5980   41.7040 F   0  0  0  0  0  0  0  0  0  0  0  0
   42.6101   35.6903   41.4300 H   0  0  0  0  0  0  0  0  0  0  0  0
   44.2963   36.0304   40.7904 H   0  0  0  0  0  0  0  0  0  0  0  0
   44.8980   34.0630   40.9282 H   0  0  0  0  0  0  0  0  0  0  0  0
   43.1560   31.9602   41.6901 H   0  0  0  0  0  0  0  0  0  0  0  0
   42.1057   32.9363   42.2879 H   0  0  0  0  0  0  0  0  0  0  0  0
   42.8048   32.9602   39.0548 H   0  0  0  0  0  0  0  0  0  0  0  0
   38.2125   32.7963   39.6835 H   0  0  0  0  0  0  0  0  0  0  0  0
   40.0890   31.4519   39.4575 H   0  0  0  0  0  0  0  0  0  0  0  0
   39.3932   31.4707   37.7413 H   0  0  0  0  0  0  0  0  0  0  0  0
   41.1227   32.4247   36.9203 H   0  0  0  0  0  0  0  0  0  0  0  0
   41.9440   32.0118   38.4967 H   0  0  0  0  0  0  0  0  0  0  0  0
   42.2007   34.4914   37.7661 H   0  0  0  0  0  0  0  0  0  0  0  0
   40.2440   35.6566   37.1518 H   0  0  0  0  0  0  0  0  0  0  0  0
   37.8968   34.7578   38.0635 H   0  0  0  0  0  0  0  0  0  0  0  0
   44.2037   36.7136   43.0621 H   0  0  0  0  0  0  0  0  0  0  0  0
   43.5233   35.1287   43.5651 H   0  0  0  0  0  0  0  0  0  0  0  0
   49.0739   33.5641   43.3811 H   0  0  0  0  0  0  0  0  0  0  0  0
   47.1389   32.7493   44.8254 H   0  0  0  0  0  0  0  0  0  0  0  0
  1 12  1  0
  2  1  1  0
  2  3  1  0
  4  2  1  0
  4  3  1  0
  5  4  1  0
  7  6  1  0
  8  9  1  0
  8  7  1  0
  9  5  1  0
 10 11  2  0
 10  9  1  0
 11  6  1  0
 12 17  1  0
 13 14  2  0
 14 15  1  0
 16 15  2  0
 17 16  1  0
 18 13  1  0
 18 17  2  0
 19 22  1  0
 19 21  1  0
 19 13  1  0
 20 19  1  0
  1 23  1  0
  1 24  1  0
  2 25  1  6
  3 26  1  0
  3 27  1  0
  4 28  1  6
  6 29  1  0
  7 30  1  0
  7 31  1  0
  8 32  1  0
  8 33  1  0
  9 34  1  6
 10 35  1  0
 11 36  1  0
 12 37  1  0
 12 38  1  0
 14 39  1  0
 15 40  1  0
M  ISO  8  23   8  24   8  25  13  26  13  27  13  28  13  30  13  31  13
M  ISO  8  32  13  33  13  34  13  35  13  36  13  37   8  38   8  39  14
M  ISO  1  40  14
M  END
>  <minimizedAffinity>  (1) 
-5.60564709

>  <minimizedRMSD>  (1) 
1.3337369

$$$$
