
     RDKit          3D

 54 57  0  0  1  0  0  0  0  0999 V2000
   43.5990   35.4850   41.4060 C   0  0  0  0  0  0  0  0  0  0  0  0
   43.6920   34.0500   40.9930 C   0  0  1  0  0  0  0  0  0  0  0  0
   42.7310   33.0450   41.4710 C   0  0  0  0  0  0  0  0  0  0  0  0
   42.7270   33.5110   40.0200 C   0  0  1  0  0  0  0  0  0  0  0  0
   41.6570   34.1690   39.6170 O   0  0  0  0  0  0  0  0  0  0  0  0
   38.8310   33.0020   38.8510 N   0  0  0  0  0  0  0  0  0  0  0  0
   39.8290   32.0470   38.5170 C   0  0  0  0  0  0  0  0  0  0  0  0
   41.0860   32.5720   38.0020 C   0  0  0  0  0  0  0  0  0  0  0  0
   41.3040   34.1420   38.2870 C   0  0  1  0  0  0  0  0  0  0  0  0
   40.1490   34.7910   37.7540 C   0  0  0  0  0  0  0  0  0  0  0  0
   38.8470   34.1940   38.0890 C   0  0  0  0  0  0  0  0  0  0  0  0
   44.1210   35.7530   42.7830 C   0  0  0  0  0  0  0  0  0  0  0  0
   47.7120   34.9830   42.3390 C   0  0  0  0  0  0  0  0  0  0  0  0
   47.9330   33.9870   43.3100 C   0  0  0  0  0  0  0  0  0  0  0  0
   46.8430   33.6030   44.0980 C   0  0  0  0  0  0  0  0  0  0  0  0
   45.6750   34.1980   43.8810 N   0  0  0  0  0  0  0  0  0  0  0  0
   45.4830   35.1630   42.9320 C   0  0  0  0  0  0  0  0  0  0  0  0
   46.5040   35.5540   42.1620 N   0  0  0  0  0  0  0  0  0  0  0  0
   46.9650   32.6070   45.1050 N   0  0  0  0  0  0  0  0  0  0  0  0
   47.3870   31.2630   44.7460 C   0  0  0  0  0  0  0  0  0  0  0  0
   46.3130   30.2600   45.1260 C   0  0  0  0  0  0  0  0  0  0  0  0
   45.3910   30.8320   46.0940 N   0  0  0  0  0  0  0  0  0  0  0  0
   46.2120   31.5340   47.0860 C   0  0  0  0  0  0  0  0  0  0  0  0
   46.6900   32.8570   46.4980 C   0  0  0  0  0  0  0  0  0  0  0  0
   48.8870   35.3830   41.5000 C   0  0  0  0  0  0  0  0  0  0  0  0
   48.5670   35.3230   40.1760 F   0  0  0  0  0  0  0  0  0  0  0  0
   49.2960   36.6520   41.8300 F   0  0  0  0  0  0  0  0  0  0  0  0
   49.9030   34.4420   41.6940 F   0  0  0  0  0  0  0  0  0  0  0  0
   42.5422   35.7881   41.3708 H   0  0  0  0  0  0  0  0  0  0  0  0
   44.2257   36.0601   40.7085 H   0  0  0  0  0  0  0  0  0  0  0  0
   44.7886   34.1223   41.0407 H   0  0  0  0  0  0  0  0  0  0  0  0
   43.0721   32.0306   41.7252 H   0  0  0  0  0  0  0  0  0  0  0  0
   41.9877   32.9931   42.2802 H   0  0  0  0  0  0  0  0  0  0  0  0
   42.8448   33.0810   39.0144 H   0  0  0  0  0  0  0  0  0  0  0  0
   38.1416   32.8373   39.5984 H   0  0  0  0  0  0  0  0  0  0  0  0
   40.0555   31.4692   39.4252 H   0  0  0  0  0  0  0  0  0  0  0  0
   39.4017   31.4562   37.6934 H   0  0  0  0  0  0  0  0  0  0  0  0
   41.1085   32.4112   36.9140 H   0  0  0  0  0  0  0  0  0  0  0  0
   41.8929   32.0378   38.5250 H   0  0  0  0  0  0  0  0  0  0  0  0
   42.1028   34.7237   37.8036 H   0  0  0  0  0  0  0  0  0  0  0  0
   40.2288   35.6904   37.1257 H   0  0  0  0  0  0  0  0  0  0  0  0
   37.9093   34.6626   37.7554 H   0  0  0  0  0  0  0  0  0  0  0  0
   44.1737   36.8392   42.9483 H   0  0  0  0  0  0  0  0  0  0  0  0
   43.4455   35.2974   43.5220 H   0  0  0  0  0  0  0  0  0  0  0  0
   48.9242   33.5290   43.4435 H   0  0  0  0  0  0  0  0  0  0  0  0
   47.5627   31.2144   43.6612 H   0  0  0  0  0  0  0  0  0  0  0  0
   48.3137   31.0202   45.2866 H   0  0  0  0  0  0  0  0  0  0  0  0
   45.7546   29.9704   44.2236 H   0  0  0  0  0  0  0  0  0  0  0  0
   46.7959   29.3803   45.5764 H   0  0  0  0  0  0  0  0  0  0  0  0
   44.7518   31.4926   45.6294 H   0  0  0  0  0  0  0  0  0  0  0  0
   45.6130   31.7277   47.9881 H   0  0  0  0  0  0  0  0  0  0  0  0
   47.0804   30.9133   47.3518 H   0  0  0  0  0  0  0  0  0  0  0  0
   47.6025   33.1941   47.0115 H   0  0  0  0  0  0  0  0  0  0  0  0
   45.9321   33.6449   46.6199 H   0  0  0  0  0  0  0  0  0  0  0  0
  1 12  1  0
  2  1  1  0
  2  3  1  0
  4  2  1  0
  4  3  1  0
  5  4  1  0
  7  6  1  0
  8  9  1  0
  8  7  1  0
  9  5  1  0
 10 11  2  0
 10  9  1  0
 11  6  1  0
 12 17  1  0
 13 14  2  0
 14 15  1  0
 15 19  1  0
 16 15  2  0
 17 16  1  0
 18 13  1  0
 18 17  2  0
 19 24  1  0
 20 19  1  0
 20 21  1  0
 21 22  1  0
 22 23  1  0
 24 23  1  0
 25 28  1  0
 25 27  1  0
 25 13  1  0
 26 25  1  0
  1 29  1  0
  1 30  1  0
  2 31  1  6
  3 32  1  0
  3 33  1  0
  4 34  1  6
  6 35  1  0
  7 36  1  0
  7 37  1  0
  8 38  1  0
  8 39  1  0
  9 40  1  6
 10 41  1  0
 11 42  1  0
 12 43  1  0
 12 44  1  0
 14 45  1  0
 20 46  1  0
 20 47  1  0
 21 48  1  0
 21 49  1  0
 22 50  1  0
 23 51  1  0
 23 52  1  0
 24 53  1  0
 24 54  1  0
M  ISO  8  29   8  30   8  31  13  32  13  33  13  34  13  36  13  37  13
M  ISO  8  38  13  39  13  40  13  41  13  42  13  43   8  44   8  45  14
M  ISO  8  46  13  47  13  48  13  49  13  50   5  51  13  52  13  53  13
M  ISO  1  54  13
M  END
>  <minimizedAffinity>  (1) 
-6.80860758

>  <minimizedRMSD>  (1) 
0.166281193

$$$$
