
     RDKit          3D

 53 56  0  0  1  0  0  0  0  0999 V2000
   43.4790   35.0060   40.5640 C   0  0  0  0  0  0  0  0  0  0  0  0
   43.3300   33.5160   40.5700 C   0  0  1  0  0  0  0  0  0  0  0  0
   42.3810   32.8440   41.4790 C   0  0  0  0  0  0  0  0  0  0  0  0
   42.1240   32.9110   39.9780 C   0  0  1  0  0  0  0  0  0  0  0  0
   41.0730   33.6010   39.5900 O   0  0  0  0  0  0  0  0  0  0  0  0
   38.3730   32.2960   38.6250 N   0  0  0  0  0  0  0  0  0  0  0  0
   39.4490   31.4550   38.2370 C   0  0  0  0  0  0  0  0  0  0  0  0
   40.6750   32.1210   37.8210 C   0  0  0  0  0  0  0  0  0  0  0  0
   40.7600   33.6720   38.2520 C   0  0  1  0  0  0  0  0  0  0  0  0
   39.5730   34.2790   37.7400 C   0  0  0  0  0  0  0  0  0  0  0  0
   38.3140   33.5500   37.9720 C   0  0  0  0  0  0  0  0  0  0  0  0
   43.8220   35.5900   41.8970 C   0  0  0  0  0  0  0  0  0  0  0  0
   47.4730   35.0070   42.0540 C   0  0  0  0  0  0  0  0  0  0  0  0
   47.6010   34.2090   43.2110 C   0  0  0  0  0  0  0  0  0  0  0  0
   46.4380   33.8900   43.9120 C   0  0  0  0  0  0  0  0  0  0  0  0
   45.2770   34.3610   43.4420 N   0  0  0  0  0  0  0  0  0  0  0  0
   45.1790   35.1290   42.3220 C   0  0  0  0  0  0  0  0  0  0  0  0
   46.2780   35.4510   41.6290 N   0  0  0  0  0  0  0  0  0  0  0  0
   46.3460   31.6260   47.4480 C   0  0  0  0  0  0  0  0  0  0  0  0
   45.6060   32.7950   47.3500 C   0  0  0  0  0  0  0  0  0  0  0  0
   45.6660   33.5060   46.1680 C   0  0  0  0  0  0  0  0  0  0  0  0
   46.4330   33.0860   45.1060 C   0  0  0  0  0  0  0  0  0  0  0  0
   47.1440   31.9160   45.2700 C   0  0  0  0  0  0  0  0  0  0  0  0
   47.1440   31.1420   46.4110 C   0  0  0  0  0  0  0  0  0  0  0  0
   46.2290   30.7690   48.9640 S   0  0  0  0  0  0  0  0  0  0  0  0
   45.2540   31.4940   49.8570 O   0  0  0  0  0  0  0  0  0  0  0  0
   47.5790   30.7370   49.6170 O   0  0  0  0  0  0  0  0  0  0  0  0
   48.7320   35.3330   41.3140 C   0  0  0  0  0  0  0  0  0  0  0  0
   48.5030   35.3310   39.9700 F   0  0  0  0  0  0  0  0  0  0  0  0
   49.2120   36.5550   41.7150 F   0  0  0  0  0  0  0  0  0  0  0  0
   49.6540   34.3060   41.5480 F   0  0  0  0  0  0  0  0  0  0  0  0
   44.2774   35.2706   39.8551 H   0  0  0  0  0  0  0  0  0  0  0  0
   42.5017   35.4216   40.2773 H   0  0  0  0  0  0  0  0  0  0  0  0
   44.4124   33.4134   40.4030 H   0  0  0  0  0  0  0  0  0  0  0  0
   42.6504   31.8882   41.9521 H   0  0  0  0  0  0  0  0  0  0  0  0
   41.8248   33.1298   42.3840 H   0  0  0  0  0  0  0  0  0  0  0  0
   41.9783   32.2215   39.1334 H   0  0  0  0  0  0  0  0  0  0  0  0
   37.6818   32.0125   39.3341 H   0  0  0  0  0  0  0  0  0  0  0  0
   39.6934   30.8084   39.0926 H   0  0  0  0  0  0  0  0  0  0  0  0
   39.0924   30.9173   37.3461 H   0  0  0  0  0  0  0  0  0  0  0  0
   41.5266   31.5901   38.2715 H   0  0  0  0  0  0  0  0  0  0  0  0
   40.6924   32.0958   36.7214 H   0  0  0  0  0  0  0  0  0  0  0  0
   41.5221   34.3556   37.8496 H   0  0  0  0  0  0  0  0  0  0  0  0
   39.5974   35.2381   37.2020 H   0  0  0  0  0  0  0  0  0  0  0  0
   37.3513   33.9703   37.6455 H   0  0  0  0  0  0  0  0  0  0  0  0
   43.8155   36.6877   41.8266 H   0  0  0  0  0  0  0  0  0  0  0  0
   43.0794   35.2598   42.6383 H   0  0  0  0  0  0  0  0  0  0  0  0
   48.5847   33.8507   43.5486 H   0  0  0  0  0  0  0  0  0  0  0  0
   44.9888   33.1457   48.1902 H   0  0  0  0  0  0  0  0  0  0  0  0
   45.0840   34.4346   46.0728 H   0  0  0  0  0  0  0  0  0  0  0  0
   47.7590   31.5735   44.4248 H   0  0  0  0  0  0  0  0  0  0  0  0
   47.7284   30.2140   46.4971 H   0  0  0  0  0  0  0  0  0  0  0  0
   45.7967   29.4868   48.7495 H   0  0  0  0  0  0  0  0  0  0  0  0
  1  2  1  0
  1 12  1  0
  2  3  1  0
  4  2  1  0
  4  3  1  0
  5  4  1  0
  7  6  1  0
  8  7  1  0
  8  9  1  0
  9  5  1  0
 10 11  2  0
 10  9  1  0
 11  6  1  0
 12 17  1  0
 13 14  2  0
 14 15  1  0
 15 22  1  0
 16 15  2  0
 17 16  1  0
 18 13  1  0
 18 17  2  0
 19 25  1  0
 20 19  2  0
 21 20  1  0
 22 23  1  0
 22 21  2  0
 23 24  2  0
 24 19  1  0
 25 27  2  0
 25 26  2  0
 28 31  1  0
 28 30  1  0
 28 13  1  0
 29 28  1  0
  1 32  1  0
  1 33  1  0
  2 34  1  6
  3 35  1  0
  3 36  1  0
  4 37  1  6
  6 38  1  0
  7 39  1  0
  7 40  1  0
  8 41  1  0
  8 42  1  0
  9 43  1  6
 10 44  1  0
 11 45  1  0
 12 46  1  0
 12 47  1  0
 14 48  1  0
 20 49  1  0
 21 50  1  0
 23 51  1  0
 24 52  1  0
 25 53  1  0
M  ISO  8  32   8  33   8  34  13  35  13  36  13  37  13  39  13  40  13
M  ISO  8  41  13  42  13  43  13  44  13  45  13  46   8  47   8  48  14
M  ISO  5  49  14  50  14  51  14  52  14  53  11
M  END
>  <minimizedAffinity>  (1) 
-6.81452656

>  <minimizedRMSD>  (1) 
1.03671098

$$$$
