
     RDKit          3D

 54 58  0  0  1  0  0  0  0  0999 V2000
   43.6230   35.4020   41.5300 C   0  0  0  0  0  0  0  0  0  0  0  0
   43.7180   33.9870   41.0470 C   0  0  1  0  0  0  0  0  0  0  0  0
   42.7310   32.9680   41.4640 C   0  0  0  0  0  0  0  0  0  0  0  0
   42.7610   33.5050   40.0360 C   0  0  1  0  0  0  0  0  0  0  0  0
   41.7130   34.1900   39.6350 O   0  0  0  0  0  0  0  0  0  0  0  0
   38.8810   33.0380   38.8800 N   0  0  0  0  0  0  0  0  0  0  0  0
   39.8700   32.0850   38.5190 C   0  0  0  0  0  0  0  0  0  0  0  0
   41.1380   32.6040   38.0170 C   0  0  0  0  0  0  0  0  0  0  0  0
   41.3510   34.1710   38.3060 C   0  0  1  0  0  0  0  0  0  0  0  0
   40.1980   34.8340   37.7800 C   0  0  0  0  0  0  0  0  0  0  0  0
   38.8970   34.2350   38.1250 C   0  0  0  0  0  0  0  0  0  0  0  0
   44.1840   35.6100   42.9010 C   0  0  0  0  0  0  0  0  0  0  0  0
   47.7880   34.9620   42.3610 C   0  0  0  0  0  0  0  0  0  0  0  0
   48.0200   33.8800   43.2190 C   0  0  0  0  0  0  0  0  0  0  0  0
   46.9610   33.3830   43.9620 C   0  0  0  0  0  0  0  0  0  0  0  0
   45.7820   33.9890   43.8010 N   0  0  0  0  0  0  0  0  0  0  0  0
   45.5690   35.0420   42.9650 C   0  0  0  0  0  0  0  0  0  0  0  0
   46.5720   35.5130   42.2570 N   0  0  0  0  0  0  0  0  0  0  0  0
   47.0080   32.3050   44.9100 C   0  0  0  0  0  0  0  0  0  0  0  0
   47.6770   31.1090   44.6130 C   0  0  0  0  0  0  0  0  0  0  0  0
   47.6050   30.2570   45.6480 N   0  0  0  0  0  0  0  0  0  0  0  0
   46.9190   30.8000   46.6530 C   0  0  0  0  0  0  0  0  0  0  0  0
   46.5500   30.4080   47.9200 C   0  0  0  0  0  0  0  0  0  0  0  0
   45.8210   31.2340   48.7680 C   0  0  0  0  0  0  0  0  0  0  0  0
   45.4810   32.4870   48.2650 C   0  0  0  0  0  0  0  0  0  0  0  0
   45.8520   32.8640   47.0080 C   0  0  0  0  0  0  0  0  0  0  0  0
   46.5690   32.0420   46.1800 C   0  0  0  0  0  0  0  0  0  0  0  0
   48.9550   35.4620   41.5690 C   0  0  0  0  0  0  0  0  0  0  0  0
   48.6850   35.3940   40.2330 F   0  0  0  0  0  0  0  0  0  0  0  0
   49.2340   36.7730   41.9110 F   0  0  0  0  0  0  0  0  0  0  0  0
   50.0400   34.6250   41.7980 F   0  0  0  0  0  0  0  0  0  0  0  0
   42.5626   35.6944   41.5409 H   0  0  0  0  0  0  0  0  0  0  0  0
   44.2217   36.0167   40.8418 H   0  0  0  0  0  0  0  0  0  0  0  0
   44.8146   34.0441   41.1120 H   0  0  0  0  0  0  0  0  0  0  0  0
   43.0543   31.9380   41.6750 H   0  0  0  0  0  0  0  0  0  0  0  0
   41.9729   32.8871   42.2569 H   0  0  0  0  0  0  0  0  0  0  0  0
   42.8908   33.1198   39.0138 H   0  0  0  0  0  0  0  0  0  0  0  0
   38.2018   32.8704   39.6359 H   0  0  0  0  0  0  0  0  0  0  0  0
   40.0890   31.4799   39.4111 H   0  0  0  0  0  0  0  0  0  0  0  0
   39.4355   31.5278   37.6759 H   0  0  0  0  0  0  0  0  0  0  0  0
   41.1737   32.4429   36.9295 H   0  0  0  0  0  0  0  0  0  0  0  0
   41.9389   32.0664   38.5458 H   0  0  0  0  0  0  0  0  0  0  0  0
   42.1443   34.7548   37.8163 H   0  0  0  0  0  0  0  0  0  0  0  0
   40.2778   35.7363   37.1558 H   0  0  0  0  0  0  0  0  0  0  0  0
   37.9578   34.7081   37.8026 H   0  0  0  0  0  0  0  0  0  0  0  0
   44.2185   36.6867   43.1237 H   0  0  0  0  0  0  0  0  0  0  0  0
   43.5453   35.1033   43.6395 H   0  0  0  0  0  0  0  0  0  0  0  0
   49.0220   33.4338   43.3016 H   0  0  0  0  0  0  0  0  0  0  0  0
   48.1900   30.8980   43.6631 H   0  0  0  0  0  0  0  0  0  0  0  0
   48.0218   29.3152   45.6631 H   0  0  0  0  0  0  0  0  0  0  0  0
   46.8417   29.4079   48.2732 H   0  0  0  0  0  0  0  0  0  0  0  0
   45.5292   30.9155   49.7796 H   0  0  0  0  0  0  0  0  0  0  0  0
   44.9042   33.1836   48.8912 H   0  0  0  0  0  0  0  0  0  0  0  0
   45.5655   33.8627   46.6468 H   0  0  0  0  0  0  0  0  0  0  0  0
  1 12  1  0
  2  3  1  0
  2  1  1  0
  4  2  1  0
  4  3  1  0
  5  4  1  0
  7  6  1  0
  8  9  1  0
  8  7  1  0
  9  5  1  0
 10 11  2  0
 10  9  1  0
 11  6  1  0
 12 17  1  0
 13 14  2  0
 14 15  1  0
 15 19  1  0
 16 15  2  0
 17 16  1  0
 18 13  1  0
 18 17  2  0
 19 27  1  0
 20 19  2  0
 20 21  1  0
 21 22  1  0
 22 23  2  0
 23 24  1  0
 25 24  2  0
 26 25  1  0
 27 22  1  0
 27 26  2  0
 28 31  1  0
 28 30  1  0
 28 13  1  0
 29 28  1  0
  1 32  1  0
  1 33  1  0
  2 34  1  6
  3 35  1  0
  3 36  1  0
  4 37  1  6
  6 38  1  0
  7 39  1  0
  7 40  1  0
  8 41  1  0
  8 42  1  0
  9 43  1  6
 10 44  1  0
 11 45  1  0
 12 46  1  0
 12 47  1  0
 14 48  1  0
 20 49  1  0
 21 50  1  0
 23 51  1  0
 24 52  1  0
 25 53  1  0
 26 54  1  0
M  ISO  8  32   8  33   8  34  13  35  13  36  13  37  13  39  13  40  13
M  ISO  8  41  13  42  13  43  13  44  13  45  13  46   8  47   8  48  14
M  ISO  6  49  14  50   9  51  14  52  14  53  14  54  14
M  END
>  <minimizedAffinity>  (1) 
-7.22585392

>  <minimizedRMSD>  (1) 
0.786212385

$$$$
