
     RDKit          3D

 47 49  0  0  1  0  0  0  0  0999 V2000
   43.5800   35.4710   41.4210 C   0  0  0  0  0  0  0  0  0  0  0  0
   43.6860   34.0370   40.9990 C   0  0  1  0  0  0  0  0  0  0  0  0
   42.7240   33.0270   41.4860 C   0  0  0  0  0  0  0  0  0  0  0  0
   42.7120   33.4970   40.0360 C   0  0  1  0  0  0  0  0  0  0  0  0
   41.6440   34.1500   39.6270 O   0  0  0  0  0  0  0  0  0  0  0  0
   38.8230   32.9970   38.8310 N   0  0  0  0  0  0  0  0  0  0  0  0
   39.8200   32.0420   38.4960 C   0  0  0  0  0  0  0  0  0  0  0  0
   41.0870   32.5660   37.9960 C   0  0  0  0  0  0  0  0  0  0  0  0
   41.3020   34.1370   38.2950 C   0  0  1  0  0  0  0  0  0  0  0  0
   40.1550   34.7890   37.7510 C   0  0  0  0  0  0  0  0  0  0  0  0
   38.8480   34.1890   38.0700 C   0  0  0  0  0  0  0  0  0  0  0  0
   44.0930   35.7330   42.8030 C   0  0  0  0  0  0  0  0  0  0  0  0
   47.6640   34.9580   42.2470 C   0  0  0  0  0  0  0  0  0  0  0  0
   47.9690   34.0980   43.3270 C   0  0  0  0  0  0  0  0  0  0  0  0
   46.9320   33.8090   44.2210 C   0  0  0  0  0  0  0  0  0  0  0  0
   45.7350   34.3620   43.9950 N   0  0  0  0  0  0  0  0  0  0  0  0
   45.4730   35.1870   42.9440 C   0  0  0  0  0  0  0  0  0  0  0  0
   46.4410   35.4830   42.0710 N   0  0  0  0  0  0  0  0  0  0  0  0
   47.1460   32.9550   45.3390 N   0  0  0  0  0  0  0  0  0  0  0  0
   46.3930   33.1480   46.5240 C   0  0  0  0  0  0  0  0  0  0  0  0
   45.2610   33.7200   46.3670 N   0  0  0  0  0  0  0  0  0  0  0  0
   46.9900   32.6800   47.7480 N   0  0  0  0  0  0  0  0  0  0  0  0
   44.5990   33.9290   47.1370 H   0  0  0  0  0  0  0  0  0  0  0  0
   48.7840   35.2590   41.2900 C   0  0  0  0  0  0  0  0  0  0  0  0
   48.3420   35.1730   40.0050 F   0  0  0  0  0  0  0  0  0  0  0  0
   49.2920   36.5110   41.5420 F   0  0  0  0  0  0  0  0  0  0  0  0
   49.7560   34.2610   41.4330 F   0  0  0  0  0  0  0  0  0  0  0  0
   42.5212   35.7667   41.3821 H   0  0  0  0  0  0  0  0  0  0  0  0
   44.2057   36.0556   40.7305 H   0  0  0  0  0  0  0  0  0  0  0  0
   44.7830   34.1111   41.0330 H   0  0  0  0  0  0  0  0  0  0  0  0
   43.0662   32.0119   41.7360 H   0  0  0  0  0  0  0  0  0  0  0  0
   41.9864   32.9735   42.3003 H   0  0  0  0  0  0  0  0  0  0  0  0
   42.8220   33.0663   39.0298 H   0  0  0  0  0  0  0  0  0  0  0  0
   38.1306   32.8329   39.5757 H   0  0  0  0  0  0  0  0  0  0  0  0
   40.0359   31.4542   39.4003 H   0  0  0  0  0  0  0  0  0  0  0  0
   39.3972   31.4627   37.6620 H   0  0  0  0  0  0  0  0  0  0  0  0
   41.1213   32.4117   36.9074 H   0  0  0  0  0  0  0  0  0  0  0  0
   41.8883   32.0260   38.5217 H   0  0  0  0  0  0  0  0  0  0  0  0
   42.1033   34.7276   37.8269 H   0  0  0  0  0  0  0  0  0  0  0  0
   40.2422   35.6908   37.1272 H   0  0  0  0  0  0  0  0  0  0  0  0
   37.9141   34.6566   37.7248 H   0  0  0  0  0  0  0  0  0  0  0  0
   44.1093   36.8175   42.9865 H   0  0  0  0  0  0  0  0  0  0  0  0
   43.4330   35.2422   43.5334 H   0  0  0  0  0  0  0  0  0  0  0  0
   48.9759   33.6752   43.4585 H   0  0  0  0  0  0  0  0  0  0  0  0
   47.8449   32.2002   45.2872 H   0  0  0  0  0  0  0  0  0  0  0  0
   46.4895   32.7929   48.6411 H   0  0  0  0  0  0  0  0  0  0  0  0
   47.9175   32.2324   47.7304 H   0  0  0  0  0  0  0  0  0  0  0  0
  1 12  1  0
  2  1  1  0
  2  3  1  0
  4  2  1  0
  4  3  1  0
  5  4  1  0
  7  6  1  0
  8  9  1  0
  8  7  1  0
  9  5  1  0
 10 11  2  0
 10  9  1  0
 11  6  1  0
 12 17  1  0
 13 14  2  0
 14 15  1  0
 15 19  1  0
 16 15  2  0
 17 16  1  0
 18 13  1  0
 18 17  2  0
 19 20  1  0
 20 22  1  0
 21 20  2  0
 21 23  1  0
 24 27  1  0
 24 26  1  0
 24 13  1  0
 25 24  1  0
  1 28  1  0
  1 29  1  0
  2 30  1  6
  3 31  1  0
  3 32  1  0
  4 33  1  6
  6 34  1  0
  7 35  1  0
  7 36  1  0
  8 37  1  0
  8 38  1  0
  9 39  1  6
 10 40  1  0
 11 41  1  0
 12 42  1  0
 12 43  1  0
 14 44  1  0
 19 45  1  0
 22 46  1  0
 22 47  1  0
M  ISO  8  28   8  29   8  30  13  31  13  32  13  33  13  35  13  36  13
M  ISO  8  37  13  38  13  39  13  40  13  41  13  42   8  43   8  44  14
M  END
>  <minimizedAffinity>  (1) 
-7.00738621

>  <minimizedRMSD>  (1) 
0.349040449

$$$$
