
     RDKit          3D

 51 55  0  0  1  0  0  0  0  0999 V2000
   43.5870   35.4310   41.6400 C   0  0  0  0  0  0  0  0  0  0  0  0
   43.7080   34.0270   41.1300 C   0  0  1  0  0  0  0  0  0  0  0  0
   42.7220   32.9920   41.4990 C   0  0  0  0  0  0  0  0  0  0  0  0
   42.7790   33.5610   40.0870 C   0  0  1  0  0  0  0  0  0  0  0  0
   41.7360   34.2480   39.6700 O   0  0  0  0  0  0  0  0  0  0  0  0
   38.9310   33.0770   38.8480 N   0  0  0  0  0  0  0  0  0  0  0  0
   39.9370   32.1280   38.5270 C   0  0  0  0  0  0  0  0  0  0  0  0
   41.2020   32.6620   38.0330 C   0  0  0  0  0  0  0  0  0  0  0  0
   41.4070   34.2330   38.3340 C   0  0  1  0  0  0  0  0  0  0  0  0
   40.2590   34.8760   37.7820 C   0  0  0  0  0  0  0  0  0  0  0  0
   38.9530   34.2720   38.0890 C   0  0  0  0  0  0  0  0  0  0  0  0
   44.2160   35.6450   42.9820 C   0  0  0  0  0  0  0  0  0  0  0  0
   47.7890   34.9540   42.3250 C   0  0  0  0  0  0  0  0  0  0  0  0
   48.0410   33.8370   43.1450 C   0  0  0  0  0  0  0  0  0  0  0  0
   46.9780   33.3430   43.9100 C   0  0  0  0  0  0  0  0  0  0  0  0
   45.7980   33.9720   43.8030 N   0  0  0  0  0  0  0  0  0  0  0  0
   45.5820   35.0500   43.0020 C   0  0  0  0  0  0  0  0  0  0  0  0
   46.5780   35.5370   42.2670 N   0  0  0  0  0  0  0  0  0  0  0  0
   47.1480   32.2170   44.7650 N   0  0  0  0  0  0  0  0  0  0  0  0
   47.8550   31.0680   44.6490 C   0  0  0  0  0  0  0  0  0  0  0  0
   47.6460   30.3510   45.7790 N   0  0  0  0  0  0  0  0  0  0  0  0
   46.8160   31.0470   46.5970 C   0  0  0  0  0  0  0  0  0  0  0  0
   46.3160   30.7280   47.8570 C   0  0  0  0  0  0  0  0  0  0  0  0
   45.4850   31.6150   48.4760 N   0  0  0  0  0  0  0  0  0  0  0  0
   45.1830   32.7640   47.8420 C   0  0  0  0  0  0  0  0  0  0  0  0
   45.6740   33.0580   46.6240 N   0  0  0  0  0  0  0  0  0  0  0  0
   46.5020   32.2280   45.9520 C   0  0  0  0  0  0  0  0  0  0  0  0
   48.9390   35.4690   41.5080 C   0  0  0  0  0  0  0  0  0  0  0  0
   48.6480   35.3880   40.1770 F   0  0  0  0  0  0  0  0  0  0  0  0
   49.2210   36.7660   41.8580 F   0  0  0  0  0  0  0  0  0  0  0  0
   50.0330   34.6190   41.7140 F   0  0  0  0  0  0  0  0  0  0  0  0
   42.5185   35.6817   41.7143 H   0  0  0  0  0  0  0  0  0  0  0  0
   44.1236   36.0765   40.9291 H   0  0  0  0  0  0  0  0  0  0  0  0
   44.8021   34.0910   41.2237 H   0  0  0  0  0  0  0  0  0  0  0  0
   43.0494   31.9600   41.6934 H   0  0  0  0  0  0  0  0  0  0  0  0
   41.9467   32.8866   42.2721 H   0  0  0  0  0  0  0  0  0  0  0  0
   42.9337   33.1990   39.0599 H   0  0  0  0  0  0  0  0  0  0  0  0
   38.2313   32.9073   39.5845 H   0  0  0  0  0  0  0  0  0  0  0  0
   40.1516   31.5478   39.4366 H   0  0  0  0  0  0  0  0  0  0  0  0
   39.5255   31.5377   37.6950 H   0  0  0  0  0  0  0  0  0  0  0  0
   41.2414   32.5094   36.9443 H   0  0  0  0  0  0  0  0  0  0  0  0
   42.0042   32.1270   38.5623 H   0  0  0  0  0  0  0  0  0  0  0  0
   42.2098   34.8273   37.8733 H   0  0  0  0  0  0  0  0  0  0  0  0
   40.3460   35.7779   37.1583 H   0  0  0  0  0  0  0  0  0  0  0  0
   38.0193   34.7361   37.7385 H   0  0  0  0  0  0  0  0  0  0  0  0
   44.2850   36.7240   43.1847 H   0  0  0  0  0  0  0  0  0  0  0  0
   43.5985   35.1609   43.7529 H   0  0  0  0  0  0  0  0  0  0  0  0
   49.0363   33.3701   43.1828 H   0  0  0  0  0  0  0  0  0  0  0  0
   48.4826   30.7718   43.7955 H   0  0  0  0  0  0  0  0  0  0  0  0
   46.5860   29.7791   48.3436 H   0  0  0  0  0  0  0  0  0  0  0  0
   44.5141   33.4847   48.3351 H   0  0  0  0  0  0  0  0  0  0  0  0
  1 12  1  0
  2  3  1  0
  2  1  1  0
  4  2  1  0
  4  3  1  0
  5  4  1  0
  7  6  1  0
  8  9  1  0
  8  7  1  0
  9  5  1  0
 10 11  2  0
 10  9  1  0
 11  6  1  0
 12 17  1  0
 13 14  2  0
 14 15  1  0
 15 19  1  0
 16 15  2  0
 17 16  1  0
 18 13  1  0
 18 17  2  0
 19 27  1  0
 20 19  1  0
 20 21  2  0
 21 22  1  0
 22 23  2  0
 23 24  1  0
 25 24  2  0
 26 25  1  0
 27 22  1  0
 27 26  2  0
 28 31  1  0
 28 30  1  0
 28 13  1  0
 29 28  1  0
  1 32  1  0
  1 33  1  0
  2 34  1  6
  3 35  1  0
  3 36  1  0
  4 37  1  6
  6 38  1  0
  7 39  1  0
  7 40  1  0
  8 41  1  0
  8 42  1  0
  9 43  1  6
 10 44  1  0
 11 45  1  0
 12 46  1  0
 12 47  1  0
 14 48  1  0
 20 49  1  0
 23 50  1  0
 25 51  1  0
M  ISO  8  32   8  33   8  34  13  35  13  36  13  37  13  39  13  40  13
M  ISO  8  41  13  42  13  43  13  44  13  45  13  46   8  47   8  48  14
M  ISO  3  49  14  50  14  51  14
M  END
>  <minimizedAffinity>  (1) 
-7.24863815

>  <minimizedRMSD>  (1) 
0.335448444

$$$$
