
     RDKit          3D

 50 53  0  0  1  0  0  0  0  0999 V2000
   43.5810   35.4800   41.4020 C   0  0  0  0  0  0  0  0  0  0  0  0
   43.6930   34.0480   40.9780 C   0  0  1  0  0  0  0  0  0  0  0  0
   42.7380   33.0310   41.4650 C   0  0  0  0  0  0  0  0  0  0  0  0
   42.7130   33.5080   40.0190 C   0  0  1  0  0  0  0  0  0  0  0  0
   41.6430   34.1580   39.6170 O   0  0  0  0  0  0  0  0  0  0  0  0
   38.8200   32.9950   38.8460 N   0  0  0  0  0  0  0  0  0  0  0  0
   39.8150   32.0420   38.5040 C   0  0  0  0  0  0  0  0  0  0  0  0
   41.0780   32.5650   37.9990 C   0  0  0  0  0  0  0  0  0  0  0  0
   41.2920   34.1350   38.2850 C   0  0  1  0  0  0  0  0  0  0  0  0
   40.1390   34.7860   37.7510 C   0  0  0  0  0  0  0  0  0  0  0  0
   38.8370   34.1880   38.0840 C   0  0  0  0  0  0  0  0  0  0  0  0
   44.1100   35.7500   42.7750 C   0  0  0  0  0  0  0  0  0  0  0  0
   47.6980   34.9920   42.3260 C   0  0  0  0  0  0  0  0  0  0  0  0
   47.9200   34.0050   43.3000 C   0  0  0  0  0  0  0  0  0  0  0  0
   46.8370   33.6180   44.0930 C   0  0  0  0  0  0  0  0  0  0  0  0
   45.6610   34.2220   43.8630 N   0  0  0  0  0  0  0  0  0  0  0  0
   45.4710   35.1670   42.9220 C   0  0  0  0  0  0  0  0  0  0  0  0
   46.4950   35.5530   42.1520 N   0  0  0  0  0  0  0  0  0  0  0  0
   46.9740   32.6020   45.1290 C   0  0  0  0  0  0  0  0  0  0  0  0
   47.3780   31.3140   44.9160 C   0  0  0  0  0  0  0  0  0  0  0  0
   47.4850   30.3980   45.9580 C   0  0  0  0  0  0  0  0  0  0  0  0
   47.1800   30.7760   47.2480 C   0  0  0  0  0  0  0  0  0  0  0  0
   46.7710   32.0670   47.4940 C   0  0  0  0  0  0  0  0  0  0  0  0
   46.6780   32.9440   46.4320 C   0  0  0  0  0  0  0  0  0  0  0  0
   48.8770   35.3900   41.4820 C   0  0  0  0  0  0  0  0  0  0  0  0
   48.5540   35.3280   40.1610 F   0  0  0  0  0  0  0  0  0  0  0  0
   49.2820   36.6620   41.8170 F   0  0  0  0  0  0  0  0  0  0  0  0
   49.8910   34.4490   41.6820 F   0  0  0  0  0  0  0  0  0  0  0  0
   42.5191   35.7661   41.3777 H   0  0  0  0  0  0  0  0  0  0  0  0
   44.1936   36.0683   40.7030 H   0  0  0  0  0  0  0  0  0  0  0  0
   44.7898   34.1260   41.0081 H   0  0  0  0  0  0  0  0  0  0  0  0
   43.0862   32.0160   41.7068 H   0  0  0  0  0  0  0  0  0  0  0  0
   42.0062   32.9701   42.2840 H   0  0  0  0  0  0  0  0  0  0  0  0
   42.8161   33.0814   39.0103 H   0  0  0  0  0  0  0  0  0  0  0  0
   38.1337   32.8300   39.5961 H   0  0  0  0  0  0  0  0  0  0  0  0
   40.0356   31.4525   39.4061 H   0  0  0  0  0  0  0  0  0  0  0  0
   39.3877   31.4653   37.6704 H   0  0  0  0  0  0  0  0  0  0  0  0
   41.1104   32.4030   36.9115 H   0  0  0  0  0  0  0  0  0  0  0  0
   41.8806   32.0306   38.5283 H   0  0  0  0  0  0  0  0  0  0  0  0
   42.0893   34.7192   37.8022 H   0  0  0  0  0  0  0  0  0  0  0  0
   40.2200   35.6864   37.1243 H   0  0  0  0  0  0  0  0  0  0  0  0
   37.8996   34.6562   37.7492 H   0  0  0  0  0  0  0  0  0  0  0  0
   44.1600   36.8366   42.9385 H   0  0  0  0  0  0  0  0  0  0  0  0
   43.4394   35.2906   43.5161 H   0  0  0  0  0  0  0  0  0  0  0  0
   48.9133   33.5518   43.4340 H   0  0  0  0  0  0  0  0  0  0  0  0
   47.6252   30.9927   43.8934 H   0  0  0  0  0  0  0  0  0  0  0  0
   47.8141   29.3689   45.7516 H   0  0  0  0  0  0  0  0  0  0  0  0
   47.2627   30.0529   48.0728 H   0  0  0  0  0  0  0  0  0  0  0  0
   46.5235   32.3930   48.5150 H   0  0  0  0  0  0  0  0  0  0  0  0
   46.3493   33.9736   46.6364 H   0  0  0  0  0  0  0  0  0  0  0  0
  1 12  1  0
  2  1  1  0
  2  3  1  0
  4  2  1  0
  4  3  1  0
  5  4  1  0
  7  6  1  0
  8  9  1  0
  8  7  1  0
  9  5  1  0
 10 11  2  0
 10  9  1  0
 11  6  1  0
 12 17  1  0
 13 14  2  0
 14 15  1  0
 15 19  1  0
 16 15  2  0
 17 16  1  0
 18 13  1  0
 18 17  2  0
 19 24  1  0
 20 19  2  0
 20 21  1  0
 21 22  2  0
 22 23  1  0
 24 23  2  0
 25 28  1  0
 25 27  1  0
 25 13  1  0
 26 25  1  0
  1 29  1  0
  1 30  1  0
  2 31  1  6
  3 32  1  0
  3 33  1  0
  4 34  1  6
  6 35  1  0
  7 36  1  0
  7 37  1  0
  8 38  1  0
  8 39  1  0
  9 40  1  6
 10 41  1  0
 11 42  1  0
 12 43  1  0
 12 44  1  0
 14 45  1  0
 20 46  1  0
 21 47  1  0
 22 48  1  0
 23 49  1  0
 24 50  1  0
M  ISO  8  29   8  30   8  31  13  32  13  33  13  34  13  36  13  37  13
M  ISO  8  38  13  39  13  40  13  41  13  42  13  43   8  44   8  45  14
M  ISO  5  46  14  47  14  48  14  49  14  50  14
M  END
>  <minimizedAffinity>  (1) 
-6.61474562

>  <minimizedRMSD>  (1) 
0.216598824

$$$$
