
     RDKit          3D

 23 24  0  0  0  0  0  0  0  0999 V2000
   45.5800   34.4440   41.1940 C   0  0  0  0  0  0  0  0  0  0  0  0
   44.6080   35.9830   44.5460 C   0  0  0  0  0  0  0  0  0  0  0  0
   44.8000   35.8730   43.1520 C   0  0  0  0  0  0  0  0  0  0  0  0
   45.3260   34.6960   42.6440 C   0  0  0  0  0  0  0  0  0  0  0  0
   45.6360   33.6840   43.5420 N   0  0  0  0  0  0  0  0  0  0  0  0
   45.4380   33.8240   44.8640 C   0  0  0  0  0  0  0  0  0  0  0  0
   44.9290   34.9660   45.3550 N   0  0  0  0  0  0  0  0  0  0  0  0
   47.0440   34.0360   40.9960 C   0  0  0  0  0  0  0  0  0  0  0  0
   47.2900   33.9120   39.5750 N   0  0  0  0  0  0  0  0  0  0  0  0
   48.3180   34.5680   38.9790 C   0  0  0  0  0  0  0  0  0  0  0  0
   48.3520   34.2990   37.6350 C   0  0  0  0  0  0  0  0  0  0  0  0
   47.3210   33.4590   37.4100 N   0  0  0  0  0  0  0  0  0  0  0  0
   46.6910   33.2370   38.5980 C   0  0  0  0  0  0  0  0  0  0  0  0
   44.9229   33.6352   40.8416 H   0  0  0  0  0  0  0  0  0  0  0  0
   45.3735   35.3598   40.6207 H   0  0  0  0  0  0  0  0  0  0  0  0
   44.1925   36.9092   44.9697 H   0  0  0  0  0  0  0  0  0  0  0  0
   44.5373   36.7051   42.4822 H   0  0  0  0  0  0  0  0  0  0  0  0
   45.6938   33.0002   45.5465 H   0  0  0  0  0  0  0  0  0  0  0  0
   47.7057   34.8040   41.4230 H   0  0  0  0  0  0  0  0  0  0  0  0
   47.2439   33.0797   41.5014 H   0  0  0  0  0  0  0  0  0  0  0  0
   49.0272   35.2258   39.5029 H   0  0  0  0  0  0  0  0  0  0  0  0
   49.0689   34.6865   36.8961 H   0  0  0  0  0  0  0  0  0  0  0  0
   45.8109   32.5905   38.7302 H   0  0  0  0  0  0  0  0  0  0  0  0
  1  4  1  0
  2  7  2  0
  3  2  1  0
  4  3  2  0
  4  5  1  0
  5  6  2  0
  6  7  1  0
  8  1  1  0
  9  8  1  0
 10  9  1  0
 11 10  2  0
 12 11  1  0
 12 13  2  0
 13  9  1  0
  1 14  1  0
  1 15  1  0
  2 16  1  0
  3 17  1  0
  6 18  1  0
  8 19  1  0
  8 20  1  0
 10 21  1  0
 11 22  1  0
 13 23  1  0
M  ISO  8  14   8  15   8  16  14  17  14  18  14  19   8  20   8  21  14
M  ISO  2  22  14  23  14
M  END
>  <minimizedAffinity>  (1) 
-3.66542339

>  <minimizedRMSD>  (1) 
1.7943418

$$$$
