
     RDKit          3D

 47 50  0  0  1  0  0  0  0  0999 V2000
   43.7140   34.0070   41.0080 C   0  0  1  0  0  0  0  0  0  0  0  0
   42.7330   33.0000   41.4600 C   0  0  0  0  0  0  0  0  0  0  0  0
   42.7470   33.5000   40.0210 C   0  0  1  0  0  0  0  0  0  0  0  0
   43.6210   35.4330   41.4590 C   0  0  0  0  0  0  0  0  0  0  0  0
   44.1500   35.6660   42.8400 C   0  0  0  0  0  0  0  0  0  0  0  0
   47.7460   34.9770   42.3500 C   0  0  0  0  0  0  0  0  0  0  0  0
   48.0000   33.9460   43.2820 C   0  0  0  0  0  0  0  0  0  0  0  0
   46.9140   33.5100   44.0670 C   0  0  0  0  0  0  0  0  0  0  0  0
   45.7320   34.1000   43.8720 N   0  0  0  0  0  0  0  0  0  0  0  0
   45.5250   35.0970   42.9570 C   0  0  0  0  0  0  0  0  0  0  0  0
   46.5320   35.5290   42.2030 N   0  0  0  0  0  0  0  0  0  0  0  0
   48.9130   35.4310   41.5160 C   0  0  0  0  0  0  0  0  0  0  0  0
   48.6060   35.3490   40.1930 F   0  0  0  0  0  0  0  0  0  0  0  0
   49.2500   36.7210   41.8530 F   0  0  0  0  0  0  0  0  0  0  0  0
   49.9690   34.5410   41.7270 F   0  0  0  0  0  0  0  0  0  0  0  0
   47.1210   32.4340   45.0610 C   0  0  0  0  0  0  0  0  0  0  0  0
   46.0150   31.7740   45.7560 C   0  0  0  0  0  0  0  0  0  0  0  0
   46.7770   32.8040   46.5340 C   0  0  0  0  0  0  0  0  0  0  0  0
   41.6920   34.1750   39.6180 O   0  0  0  0  0  0  0  0  0  0  0  0
   38.8560   33.0140   38.8840 N   0  0  0  0  0  0  0  0  0  0  0  0
   39.8460   32.0600   38.5260 C   0  0  0  0  0  0  0  0  0  0  0  0
   41.1060   32.5840   38.0090 C   0  0  0  0  0  0  0  0  0  0  0  0
   41.3240   34.1540   38.2930 C   0  0  1  0  0  0  0  0  0  0  0  0
   40.1660   34.8060   37.7700 C   0  0  0  0  0  0  0  0  0  0  0  0
   38.8660   34.2070   38.1210 C   0  0  0  0  0  0  0  0  0  0  0  0
   44.8112   34.0663   41.0584 H   0  0  0  0  0  0  0  0  0  0  0  0
   43.0589   31.9756   41.6932 H   0  0  0  0  0  0  0  0  0  0  0  0
   41.9835   32.9391   42.2628 H   0  0  0  0  0  0  0  0  0  0  0  0
   42.8663   33.0900   39.0072 H   0  0  0  0  0  0  0  0  0  0  0  0
   44.1952   36.0565   40.7579 H   0  0  0  0  0  0  0  0  0  0  0  0
   42.5526   35.6941   41.4770 H   0  0  0  0  0  0  0  0  0  0  0  0
   44.1838   36.7470   43.0406 H   0  0  0  0  0  0  0  0  0  0  0  0
   43.4899   35.1742   43.5697 H   0  0  0  0  0  0  0  0  0  0  0  0
   49.0011   33.5032   43.3901 H   0  0  0  0  0  0  0  0  0  0  0  0
   47.9743   32.0412   44.4887 H   0  0  0  0  0  0  0  0  0  0  0  0
   44.9804   31.9856   45.4482 H   0  0  0  0  0  0  0  0  0  0  0  0
   45.7589   30.7206   45.9426 H   0  0  0  0  0  0  0  0  0  0  0  0
   47.4438   32.5020   47.3551 H   0  0  0  0  0  0  0  0  0  0  0  0
   46.5325   33.7240   47.0852 H   0  0  0  0  0  0  0  0  0  0  0  0
   38.1799   32.8498   39.6435 H   0  0  0  0  0  0  0  0  0  0  0  0
   40.0754   31.4655   39.4226 H   0  0  0  0  0  0  0  0  0  0  0  0
   39.4084   31.4882   37.6944 H   0  0  0  0  0  0  0  0  0  0  0  0
   41.1283   32.4222   36.9212 H   0  0  0  0  0  0  0  0  0  0  0  0
   41.9130   32.0495   38.5315 H   0  0  0  0  0  0  0  0  0  0  0  0
   42.1149   34.7404   37.8025 H   0  0  0  0  0  0  0  0  0  0  0  0
   40.2402   35.7050   37.1404 H   0  0  0  0  0  0  0  0  0  0  0  0
   37.9249   34.6759   37.7977 H   0  0  0  0  0  0  0  0  0  0  0  0
  1  4  1  0
  1  2  1  0
  3  1  1  0
  3  2  1  0
  4  5  1  0
  5 10  1  0
  6  7  2  0
  7  8  1  0
  8 16  1  0
  9  8  2  0
 10  9  1  0
 11  6  1  0
 11 10  2  0
 12 15  1  0
 12 14  1  0
 12  6  1  0
 13 12  1  0
 16 17  1  0
 16 18  1  0
 17 18  1  0
 19  3  1  0
 21 20  1  0
 22 23  1  0
 22 21  1  0
 23 19  1  0
 24 25  2  0
 24 23  1  0
 25 20  1  0
  1 26  1  6
  2 27  1  0
  2 28  1  0
  3 29  1  6
  4 30  1  0
  4 31  1  0
  5 32  1  0
  5 33  1  0
  7 34  1  0
 16 35  1  0
 17 36  1  0
 17 37  1  0
 18 38  1  0
 18 39  1  0
 20 40  1  0
 21 41  1  0
 21 42  1  0
 22 43  1  0
 22 44  1  0
 23 45  1  6
 24 46  1  0
 25 47  1  0
M  ISO  8  26  13  27  13  28  13  29  13  30   8  31   8  32   8  33   8
M  ISO  8  34  14  35  13  36  13  37  13  38  13  39  13  41  13  42  13
M  ISO  5  43  13  44  13  45  13  46  13  47  13
M  END
>  <minimizedAffinity>  (1) 
-6.01757383

>  <minimizedRMSD>  (1) 
0.243499294

$$$$
