
     RDKit          3D

 47 50  0  0  1  0  0  0  0  0999 V2000
   43.5980   35.3890   41.1910 C   0  0  0  0  0  0  0  0  0  0  0  0
   43.6370   33.9360   40.8330 C   0  0  1  0  0  0  0  0  0  0  0  0
   42.6770   32.9760   41.4230 C   0  0  0  0  0  0  0  0  0  0  0  0
   42.5890   33.3850   39.9580 C   0  0  1  0  0  0  0  0  0  0  0  0
   41.5190   34.0490   39.5810 O   0  0  0  0  0  0  0  0  0  0  0  0
   38.6740   32.8630   38.9320 N   0  0  0  0  0  0  0  0  0  0  0  0
   39.6590   31.9100   38.5640 C   0  0  0  0  0  0  0  0  0  0  0  0
   40.9010   32.4320   38.0090 C   0  0  0  0  0  0  0  0  0  0  0  0
   41.1190   34.0070   38.2650 C   0  0  1  0  0  0  0  0  0  0  0  0
   39.9430   34.6470   37.7690 C   0  0  0  0  0  0  0  0  0  0  0  0
   38.6550   34.0480   38.1570 C   0  0  0  0  0  0  0  0  0  0  0  0
   44.0410   35.6830   42.5900 C   0  0  0  0  0  0  0  0  0  0  0  0
   47.6560   34.9570   42.3110 C   0  0  0  0  0  0  0  0  0  0  0  0
   47.8640   34.0240   43.3510 C   0  0  0  0  0  0  0  0  0  0  0  0
   46.7480   33.6660   44.1280 C   0  0  0  0  0  0  0  0  0  0  0  0
   45.5790   34.2320   43.8280 N   0  0  0  0  0  0  0  0  0  0  0  0
   45.4100   35.1320   42.8170 C   0  0  0  0  0  0  0  0  0  0  0  0
   46.4480   35.4920   42.0610 N   0  0  0  0  0  0  0  0  0  0  0  0
   46.8970   32.7170   45.2040 C   0  0  0  0  0  0  0  0  0  0  0  0
   46.5970   32.9410   46.5200 C   0  0  0  0  0  0  0  0  0  0  0  0
   46.8810   31.7880   47.2220 C   0  0  0  0  0  0  0  0  0  0  0  0
   47.3570   30.8810   46.2730 C   0  0  0  0  0  0  0  0  0  0  0  0
   47.3400   31.4910   45.1140 O   0  0  0  0  0  0  0  0  0  0  0  0
   48.8540   35.3280   41.4870 C   0  0  0  0  0  0  0  0  0  0  0  0
   48.5510   35.2690   40.1590 F   0  0  0  0  0  0  0  0  0  0  0  0
   49.2860   36.5860   41.8240 F   0  0  0  0  0  0  0  0  0  0  0  0
   49.8440   34.3600   41.6980 F   0  0  0  0  0  0  0  0  0  0  0  0
   42.5645   35.7468   41.0730 H   0  0  0  0  0  0  0  0  0  0  0  0
   44.3027   35.9014   40.5196 H   0  0  0  0  0  0  0  0  0  0  0  0
   44.7357   33.9773   40.7986 H   0  0  0  0  0  0  0  0  0  0  0  0
   43.0050   31.9621   41.6960 H   0  0  0  0  0  0  0  0  0  0  0  0
   41.9901   32.9797   42.2822 H   0  0  0  0  0  0  0  0  0  0  0  0
   42.6237   32.9081   38.9674 H   0  0  0  0  0  0  0  0  0  0  0  0
   38.0177   32.7036   39.7097 H   0  0  0  0  0  0  0  0  0  0  0  0
   39.9138   31.3301   39.4633 H   0  0  0  0  0  0  0  0  0  0  0  0
   39.2041   31.3236   37.7521 H   0  0  0  0  0  0  0  0  0  0  0  0
   40.8966   32.2549   36.9234 H   0  0  0  0  0  0  0  0  0  0  0  0
   41.7233   31.9088   38.5189 H   0  0  0  0  0  0  0  0  0  0  0  0
   41.8946   34.5863   37.7428 H   0  0  0  0  0  0  0  0  0  0  0  0
   39.9964   35.5410   37.1303 H   0  0  0  0  0  0  0  0  0  0  0  0
   37.7035   34.5087   37.8530 H   0  0  0  0  0  0  0  0  0  0  0  0
   44.0556   36.7717   42.7466 H   0  0  0  0  0  0  0  0  0  0  0  0
   43.3407   35.2145   43.2972 H   0  0  0  0  0  0  0  0  0  0  0  0
   48.8582   33.5951   43.5451 H   0  0  0  0  0  0  0  0  0  0  0  0
   46.1996   33.8753   46.9433 H   0  0  0  0  0  0  0  0  0  0  0  0
   46.7583   31.6187   48.3020 H   0  0  0  0  0  0  0  0  0  0  0  0
   47.6847   29.8483   46.4630 H   0  0  0  0  0  0  0  0  0  0  0  0
  1 12  1  0
  2  1  1  0
  2  3  1  0
  4  2  1  0
  4  3  1  0
  5  4  1  0
  7  6  1  0
  8  9  1  0
  8  7  1  0
  9  5  1  0
 10 11  2  0
 10  9  1  0
 11  6  1  0
 12 17  1  0
 13 14  2  0
 14 15  1  0
 15 19  1  0
 16 15  2  0
 17 16  1  0
 18 13  1  0
 18 17  2  0
 19 20  2  0
 20 21  1  0
 22 21  2  0
 23 19  1  0
 23 22  1  0
 24 27  1  0
 24 26  1  0
 24 13  1  0
 25 24  1  0
  1 28  1  0
  1 29  1  0
  2 30  1  6
  3 31  1  0
  3 32  1  0
  4 33  1  6
  6 34  1  0
  7 35  1  0
  7 36  1  0
  8 37  1  0
  8 38  1  0
  9 39  1  6
 10 40  1  0
 11 41  1  0
 12 42  1  0
 12 43  1  0
 14 44  1  0
 20 45  1  0
 21 46  1  0
 22 47  1  0
M  ISO  8  28   8  29   8  30  13  31  13  32  13  33  13  35  13  36  13
M  ISO  8  37  13  38  13  39  13  40  13  41  13  42   8  43   8  44  14
M  ISO  3  45  14  46  14  47  14
M  END
>  <minimizedAffinity>  (1) 
-6.32977676

>  <minimizedRMSD>  (1) 
0.476296127

$$$$
