
     RDKit          3D

 32 34  0  0  1  0  0  0  0  0999 V2000
   44.7490   35.0510   45.7260 C   0  0  0  0  0  0  0  0  0  0  0  0
   44.3860   35.6520   44.5200 C   0  0  0  0  0  0  0  0  0  0  0  0
   44.8720   35.1100   43.3210 C   0  0  0  0  0  0  0  0  0  0  0  0
   45.6650   34.0370   43.3890 N   0  0  0  0  0  0  0  0  0  0  0  0
   46.0160   33.4540   44.5790 C   0  0  0  0  0  0  0  0  0  0  0  0
   45.5510   33.9750   45.7090 N   0  0  0  0  0  0  0  0  0  0  0  0
   46.8600   32.3030   44.6380 N   0  0  0  0  0  0  0  0  0  0  0  0
   47.6060   32.0390   43.5490 C   0  0  0  0  0  0  0  0  0  0  0  0
   48.3200   30.8960   43.8650 C   0  0  0  0  0  0  0  0  0  0  0  0
   47.9920   30.5040   45.1190 N   0  0  0  0  0  0  0  0  0  0  0  0
   47.0950   31.3730   45.5850 C   0  0  0  0  0  0  0  0  0  0  0  0
   46.4610   31.3290   46.8910 C   0  0  2  0  0  0  0  0  0  0  0  0
   47.2200   32.3130   47.8020 C   0  0  0  0  0  0  0  0  0  0  0  0
   46.5880   29.9640   47.5180 C   0  0  0  0  0  0  0  0  0  0  0  0
   45.5170   29.0870   47.0930 N   0  0  0  0  0  0  0  0  0  0  0  0
   44.5140   29.2300   46.2410 C   0  0  0  0  0  0  0  0  0  0  0  0
   43.7520   28.1240   46.1790 N   0  0  0  0  0  0  0  0  0  0  0  0
   44.3460   27.2730   47.0560 C   0  0  0  0  0  0  0  0  0  0  0  0
   45.4020   27.8650   47.5960 N   0  0  0  0  0  0  0  0  0  0  0  0
   44.3816   35.4550   46.6808 H   0  0  0  0  0  0  0  0  0  0  0  0
   43.7303   36.5352   44.5098 H   0  0  0  0  0  0  0  0  0  0  0  0
   44.6074   35.5563   42.3511 H   0  0  0  0  0  0  0  0  0  0  0  0
   47.6408   32.6095   42.6091 H   0  0  0  0  0  0  0  0  0  0  0  0
   49.0379   30.3881   43.2042 H   0  0  0  0  0  0  0  0  0  0  0  0
   45.3955   31.5778   46.7775 H   0  0  0  0  0  0  0  0  0  0  0  0
   47.0261   32.0616   48.8552 H   0  0  0  0  0  0  0  0  0  0  0  0
   48.2990   32.2414   47.6006 H   0  0  0  0  0  0  0  0  0  0  0  0
   46.8767   33.3385   47.6006 H   0  0  0  0  0  0  0  0  0  0  0  0
   47.5511   29.5224   47.2225 H   0  0  0  0  0  0  0  0  0  0  0  0
   46.5303   30.0776   48.6106 H   0  0  0  0  0  0  0  0  0  0  0  0
   44.3269   30.1421   45.6554 H   0  0  0  0  0  0  0  0  0  0  0  0
   44.0040   26.2523   47.2825 H   0  0  0  0  0  0  0  0  0  0  0  0
  2  1  2  0
  3  4  2  0
  3  2  1  0
  4  5  1  0
  5  7  1  0
  5  6  2  0
  6  1  1  0
  7 11  1  0
  8  9  2  0
  8  7  1  0
  9 10  1  0
 10 11  2  0
 11 12  1  0
 12 14  1  0
 12 13  1  0
 15 14  1  0
 15 19  1  0
 16 15  1  0
 17 16  2  0
 17 18  1  0
 18 19  2  0
  1 20  1  0
  2 21  1  0
  3 22  1  0
  8 23  1  0
  9 24  1  0
 12 25  1  6
 13 26  1  0
 13 27  1  0
 13 28  1  0
 14 29  1  0
 14 30  1  0
 16 31  1  0
 18 32  1  0
M  ISO  8  20  14  21  14  22  14  23  14  24  14  25   8  26   8  27   8
M  ISO  5  28   8  29   8  30   8  31  14  32  14
M  END
>  <minimizedAffinity>  (1) 
-4.24815083

>  <minimizedRMSD>  (1) 
1.24558568

$$$$
