
     RDKit          3D

 43 45  0  0  1  0  0  0  0  0999 V2000
   43.7020   34.0330   41.0100 C   0  0  1  0  0  0  0  0  0  0  0  0
   42.7320   33.0190   41.4640 C   0  0  0  0  0  0  0  0  0  0  0  0
   42.7380   33.5160   40.0230 C   0  0  1  0  0  0  0  0  0  0  0  0
   43.6000   35.4630   41.4480 C   0  0  0  0  0  0  0  0  0  0  0  0
   44.1350   35.7100   42.8270 C   0  0  0  0  0  0  0  0  0  0  0  0
   47.7260   34.9790   42.3350 C   0  0  0  0  0  0  0  0  0  0  0  0
   47.9640   33.9610   43.2820 C   0  0  0  0  0  0  0  0  0  0  0  0
   46.8850   33.5450   44.0740 C   0  0  0  0  0  0  0  0  0  0  0  0
   45.7040   34.1480   43.8710 N   0  0  0  0  0  0  0  0  0  0  0  0
   45.5030   35.1280   42.9500 C   0  0  0  0  0  0  0  0  0  0  0  0
   46.5170   35.5410   42.1830 N   0  0  0  0  0  0  0  0  0  0  0  0
   48.8950   35.4060   41.4950 C   0  0  0  0  0  0  0  0  0  0  0  0
   48.5760   35.3390   40.1720 F   0  0  0  0  0  0  0  0  0  0  0  0
   49.2730   36.6810   41.8320 F   0  0  0  0  0  0  0  0  0  0  0  0
   49.9310   34.4830   41.6890 F   0  0  0  0  0  0  0  0  0  0  0  0
   47.0860   32.4780   45.0830 C   0  0  0  0  0  0  0  0  0  0  0  0
   41.6760   34.1800   39.6180 O   0  0  0  0  0  0  0  0  0  0  0  0
   38.8490   33.0080   38.8690 N   0  0  0  0  0  0  0  0  0  0  0  0
   39.8450   32.0560   38.5250 C   0  0  0  0  0  0  0  0  0  0  0  0
   41.1030   32.5830   38.0080 C   0  0  0  0  0  0  0  0  0  0  0  0
   41.3160   34.1560   38.2900 C   0  0  1  0  0  0  0  0  0  0  0  0
   40.1570   34.8030   37.7640 C   0  0  0  0  0  0  0  0  0  0  0  0
   38.8580   34.2000   38.1050 C   0  0  0  0  0  0  0  0  0  0  0  0
   44.7985   34.1001   41.0655 H   0  0  0  0  0  0  0  0  0  0  0  0
   43.0678   31.9981   41.6985 H   0  0  0  0  0  0  0  0  0  0  0  0
   41.9844   32.9529   42.2682 H   0  0  0  0  0  0  0  0  0  0  0  0
   42.8592   33.1058   39.0096 H   0  0  0  0  0  0  0  0  0  0  0  0
   44.1665   36.0847   40.7391 H   0  0  0  0  0  0  0  0  0  0  0  0
   42.5301   35.7180   41.4675 H   0  0  0  0  0  0  0  0  0  0  0  0
   44.1810   36.7933   43.0122 H   0  0  0  0  0  0  0  0  0  0  0  0
   43.4709   35.2357   43.5646 H   0  0  0  0  0  0  0  0  0  0  0  0
   48.9608   33.5097   43.3949 H   0  0  0  0  0  0  0  0  0  0  0  0
   47.0050   32.9078   46.0923 H   0  0  0  0  0  0  0  0  0  0  0  0
   46.3184   31.7009   44.9528 H   0  0  0  0  0  0  0  0  0  0  0  0
   48.0837   32.0334   44.9528 H   0  0  0  0  0  0  0  0  0  0  0  0
   38.1667   32.8427   39.6227 H   0  0  0  0  0  0  0  0  0  0  0  0
   40.0743   31.4720   39.4285 H   0  0  0  0  0  0  0  0  0  0  0  0
   39.4142   31.4722   37.6982 H   0  0  0  0  0  0  0  0  0  0  0  0
   41.1263   32.4196   36.9205 H   0  0  0  0  0  0  0  0  0  0  0  0
   41.9115   32.0519   38.5317 H   0  0  0  0  0  0  0  0  0  0  0  0
   42.1078   34.7422   37.8006 H   0  0  0  0  0  0  0  0  0  0  0  0
   40.2308   35.7040   37.1373 H   0  0  0  0  0  0  0  0  0  0  0  0
   37.9172   34.6643   37.7743 H   0  0  0  0  0  0  0  0  0  0  0  0
  1  4  1  0
  1  2  1  0
  3  1  1  0
  3  2  1  0
  4  5  1  0
  5 10  1  0
  6  7  2  0
  7  8  1  0
  8 16  1  0
  9  8  2  0
 10  9  1  0
 11  6  1  0
 11 10  2  0
 12 15  1  0
 12 14  1  0
 12  6  1  0
 13 12  1  0
 17  3  1  0
 19 18  1  0
 20 21  1  0
 20 19  1  0
 21 17  1  0
 22 23  2  0
 22 21  1  0
 23 18  1  0
  1 24  1  6
  2 25  1  0
  2 26  1  0
  3 27  1  6
  4 28  1  0
  4 29  1  0
  5 30  1  0
  5 31  1  0
  7 32  1  0
 16 33  1  0
 16 34  1  0
 16 35  1  0
 18 36  1  0
 19 37  1  0
 19 38  1  0
 20 39  1  0
 20 40  1  0
 21 41  1  6
 22 42  1  0
 23 43  1  0
M  ISO  8  24  13  25  13  26  13  27  13  28   8  29   8  30   8  31   8
M  ISO  8  32  14  33   8  34   8  35   8  37  13  38  13  39  13  40  13
M  ISO  3  41  13  42  13  43  13
M  END
>  <minimizedAffinity>  (1) 
-5.8145771

>  <minimizedRMSD>  (1) 
0.092912145

$$$$
