
     RDKit          3D

 41 43  0  0  1  0  0  0  0  0999 V2000
   43.6940   34.0440   41.0060 C   0  0  1  0  0  0  0  0  0  0  0  0
   42.7240   33.0320   41.4650 C   0  0  0  0  0  0  0  0  0  0  0  0
   42.7330   33.5200   40.0200 C   0  0  1  0  0  0  0  0  0  0  0  0
   43.5910   35.4730   41.4400 C   0  0  0  0  0  0  0  0  0  0  0  0
   44.1310   35.7310   42.8130 C   0  0  0  0  0  0  0  0  0  0  0  0
   47.7210   34.9760   42.3380 C   0  0  0  0  0  0  0  0  0  0  0  0
   47.9490   33.9530   43.2860 C   0  0  0  0  0  0  0  0  0  0  0  0
   46.8560   33.5450   44.0730 C   0  0  0  0  0  0  0  0  0  0  0  0
   45.6840   34.1560   43.8640 N   0  0  0  0  0  0  0  0  0  0  0  0
   45.4950   35.1400   42.9420 C   0  0  0  0  0  0  0  0  0  0  0  0
   46.5150   35.5490   42.1810 N   0  0  0  0  0  0  0  0  0  0  0  0
   48.8930   35.3980   41.5030 C   0  0  0  0  0  0  0  0  0  0  0  0
   48.5790   35.3290   40.1780 F   0  0  0  0  0  0  0  0  0  0  0  0
   49.2780   36.6720   41.8390 F   0  0  0  0  0  0  0  0  0  0  0  0
   49.9230   34.4690   41.7000 F   0  0  0  0  0  0  0  0  0  0  0  0
   47.0140   32.2740   45.2930 S   0  0  0  0  0  0  0  0  0  0  0  0
   41.6670   34.1780   39.6170 O   0  0  0  0  0  0  0  0  0  0  0  0
   38.8420   33.0030   38.8660 N   0  0  0  0  0  0  0  0  0  0  0  0
   39.8370   32.0520   38.5180 C   0  0  0  0  0  0  0  0  0  0  0  0
   41.0960   32.5780   38.0060 C   0  0  0  0  0  0  0  0  0  0  0  0
   41.3090   34.1510   38.2880 C   0  0  1  0  0  0  0  0  0  0  0  0
   40.1510   34.7980   37.7600 C   0  0  0  0  0  0  0  0  0  0  0  0
   38.8510   34.1950   38.1010 C   0  0  0  0  0  0  0  0  0  0  0  0
   44.7905   34.1133   41.0602 H   0  0  0  0  0  0  0  0  0  0  0  0
   43.0602   32.0130   41.7070 H   0  0  0  0  0  0  0  0  0  0  0  0
   41.9747   32.9704   42.2680 H   0  0  0  0  0  0  0  0  0  0  0  0
   42.8593   33.1065   39.0085 H   0  0  0  0  0  0  0  0  0  0  0  0
   44.1516   36.0933   40.7252 H   0  0  0  0  0  0  0  0  0  0  0  0
   42.5199   35.7222   41.4663 H   0  0  0  0  0  0  0  0  0  0  0  0
   44.1859   36.8160   42.9853 H   0  0  0  0  0  0  0  0  0  0  0  0
   43.4647   35.2695   43.5567 H   0  0  0  0  0  0  0  0  0  0  0  0
   48.9416   33.4938   43.4041 H   0  0  0  0  0  0  0  0  0  0  0  0
   46.9449   32.8299   46.5432 H   0  0  0  0  0  0  0  0  0  0  0  0
   38.1616   32.8378   39.6214 H   0  0  0  0  0  0  0  0  0  0  0  0
   40.0639   31.4626   39.4186 H   0  0  0  0  0  0  0  0  0  0  0  0
   39.4061   31.4746   37.6868 H   0  0  0  0  0  0  0  0  0  0  0  0
   41.1233   32.4142   36.9186 H   0  0  0  0  0  0  0  0  0  0  0  0
   41.9022   32.0468   38.5332 H   0  0  0  0  0  0  0  0  0  0  0  0
   42.1026   34.7352   37.7993 H   0  0  0  0  0  0  0  0  0  0  0  0
   40.2256   35.6983   37.1324 H   0  0  0  0  0  0  0  0  0  0  0  0
   37.9103   34.6590   37.7697 H   0  0  0  0  0  0  0  0  0  0  0  0
  1  4  1  0
  1  2  1  0
  3  1  1  0
  3  2  1  0
  4  5  1  0
  5 10  1  0
  6  7  2  0
  7  8  1  0
  8 16  1  0
  9  8  2  0
 10  9  1  0
 11  6  1  0
 11 10  2  0
 12 15  1  0
 12 14  1  0
 12  6  1  0
 13 12  1  0
 17  3  1  0
 19 18  1  0
 20 21  1  0
 20 19  1  0
 21 17  1  0
 22 23  2  0
 22 21  1  0
 23 18  1  0
  1 24  1  6
  2 25  1  0
  2 26  1  0
  3 27  1  6
  4 28  1  0
  4 29  1  0
  5 30  1  0
  5 31  1  0
  7 32  1  0
 16 33  1  0
 18 34  1  0
 19 35  1  0
 19 36  1  0
 20 37  1  0
 20 38  1  0
 21 39  1  6
 22 40  1  0
 23 41  1  0
M  ISO  8  24  13  25  13  26  13  27  13  28   8  29   8  30   8  31   8
M  ISO  8  32  14  33  11  35  13  36  13  37  13  38  13  39  13  40  13
M  ISO  1  41  13
M  END
>  <minimizedAffinity>  (1) 
-5.76240444

>  <minimizedRMSD>  (1) 
0.103054449

$$$$
