
     RDKit          3D

 42 44  0  0  1  0  0  0  0  0999 V2000
   43.6960   34.0480   40.9820 C   0  0  1  0  0  0  0  0  0  0  0  0
   42.7430   33.0320   41.4650 C   0  0  0  0  0  0  0  0  0  0  0  0
   42.7180   33.5140   40.0190 C   0  0  1  0  0  0  0  0  0  0  0  0
   43.5910   35.4800   41.4060 C   0  0  0  0  0  0  0  0  0  0  0  0
   44.1130   35.7460   42.7830 C   0  0  0  0  0  0  0  0  0  0  0  0
   47.7040   34.9870   42.3350 C   0  0  0  0  0  0  0  0  0  0  0  0
   47.9320   33.9940   43.3080 C   0  0  0  0  0  0  0  0  0  0  0  0
   46.8500   33.6040   44.1000 C   0  0  0  0  0  0  0  0  0  0  0  0
   45.6700   34.2030   43.8790 N   0  0  0  0  0  0  0  0  0  0  0  0
   45.4790   35.1630   42.9280 C   0  0  0  0  0  0  0  0  0  0  0  0
   46.4970   35.5510   42.1610 N   0  0  0  0  0  0  0  0  0  0  0  0
   48.8800   35.3910   41.4890 C   0  0  0  0  0  0  0  0  0  0  0  0
   48.5580   35.3260   40.1680 F   0  0  0  0  0  0  0  0  0  0  0  0
   49.2820   36.6620   41.8230 F   0  0  0  0  0  0  0  0  0  0  0  0
   49.8990   34.4520   41.6880 F   0  0  0  0  0  0  0  0  0  0  0  0
   47.0250   32.5810   45.1230 C   0  0  0  0  0  0  0  0  0  0  0  0
   46.8090   32.8660   46.3300 O   0  0  0  0  0  0  0  0  0  0  0  0
   41.6460   34.1640   39.6210 O   0  0  0  0  0  0  0  0  0  0  0  0
   38.8250   32.9950   38.8550 N   0  0  0  0  0  0  0  0  0  0  0  0
   39.8200   32.0440   38.5040 C   0  0  0  0  0  0  0  0  0  0  0  0
   41.0830   32.5690   38.0020 C   0  0  0  0  0  0  0  0  0  0  0  0
   41.2940   34.1390   38.2890 C   0  0  1  0  0  0  0  0  0  0  0  0
   40.1420   34.7900   37.7530 C   0  0  0  0  0  0  0  0  0  0  0  0
   38.8390   34.1870   38.0910 C   0  0  0  0  0  0  0  0  0  0  0  0
   44.7929   34.1236   41.0162 H   0  0  0  0  0  0  0  0  0  0  0  0
   43.0910   32.0162   41.7037 H   0  0  0  0  0  0  0  0  0  0  0  0
   42.0113   32.9688   42.2839 H   0  0  0  0  0  0  0  0  0  0  0  0
   42.8227   33.0935   39.0079 H   0  0  0  0  0  0  0  0  0  0  0  0
   44.1624   36.0943   40.6946 H   0  0  0  0  0  0  0  0  0  0  0  0
   42.5202   35.7313   41.4171 H   0  0  0  0  0  0  0  0  0  0  0  0
   44.1597   36.8319   42.9522 H   0  0  0  0  0  0  0  0  0  0  0  0
   43.4411   35.2840   43.5213 H   0  0  0  0  0  0  0  0  0  0  0  0
   48.9263   33.5422   43.4391 H   0  0  0  0  0  0  0  0  0  0  0  0
   47.3438   31.5663   44.8423 H   0  0  0  0  0  0  0  0  0  0  0  0
   38.1437   32.8297   39.6095 H   0  0  0  0  0  0  0  0  0  0  0  0
   40.0409   31.4471   39.4012 H   0  0  0  0  0  0  0  0  0  0  0  0
   39.3913   31.4753   37.6657 H   0  0  0  0  0  0  0  0  0  0  0  0
   41.1180   32.4075   36.9145 H   0  0  0  0  0  0  0  0  0  0  0  0
   41.8853   32.0356   38.5329 H   0  0  0  0  0  0  0  0  0  0  0  0
   42.0910   34.7241   37.8068 H   0  0  0  0  0  0  0  0  0  0  0  0
   40.2215   35.6892   37.1244 H   0  0  0  0  0  0  0  0  0  0  0  0
   37.8999   34.6526   37.7573 H   0  0  0  0  0  0  0  0  0  0  0  0
  1  4  1  0
  1  2  1  0
  3  1  1  0
  3  2  1  0
  4  5  1  0
  5 10  1  0
  6  7  2  0
  7  8  1  0
  8 16  1  0
  9  8  2  0
 10  9  1  0
 11  6  1  0
 11 10  2  0
 12 15  1  0
 12 14  1  0
 12  6  1  0
 13 12  1  0
 16 17  2  0
 18  3  1  0
 20 19  1  0
 21 22  1  0
 21 20  1  0
 22 18  1  0
 23 24  2  0
 23 22  1  0
 24 19  1  0
  1 25  1  6
  2 26  1  0
  2 27  1  0
  3 28  1  6
  4 29  1  0
  4 30  1  0
  5 31  1  0
  5 32  1  0
  7 33  1  0
 16 34  1  0
 19 35  1  0
 20 36  1  0
 20 37  1  0
 21 38  1  0
 21 39  1  0
 22 40  1  6
 23 41  1  0
 24 42  1  0
M  ISO  8  25  13  26  13  27  13  28  13  29   8  30   8  31   8  32   8
M  ISO  8  33  14  34   6  36  13  37  13  38  13  39  13  40  13  41  13
M  ISO  1  42  13
M  END
>  <minimizedAffinity>  (1) 
-5.79634714

>  <minimizedRMSD>  (1) 
0.388830811

$$$$
