
     RDKit          3D

 42 44  0  0  1  0  0  0  0  0999 V2000
   43.7280   33.9930   40.9960 C   0  0  1  0  0  0  0  0  0  0  0  0
   42.7520   32.9930   41.4620 C   0  0  0  0  0  0  0  0  0  0  0  0
   42.7540   33.4790   40.0180 C   0  0  1  0  0  0  0  0  0  0  0  0
   43.6460   35.4240   41.4260 C   0  0  0  0  0  0  0  0  0  0  0  0
   44.1470   35.6700   42.8140 C   0  0  0  0  0  0  0  0  0  0  0  0
   47.7530   35.0140   42.3230 C   0  0  0  0  0  0  0  0  0  0  0  0
   48.0340   34.0650   43.3270 C   0  0  0  0  0  0  0  0  0  0  0  0
   46.9710   33.6690   44.1580 C   0  0  0  0  0  0  0  0  0  0  0  0
   45.7770   34.2210   43.9350 N   0  0  0  0  0  0  0  0  0  0  0  0
   45.5350   35.1370   42.9550 C   0  0  0  0  0  0  0  0  0  0  0  0
   46.5260   35.5320   42.1510 N   0  0  0  0  0  0  0  0  0  0  0  0
   47.1640   32.7210   45.1900 N   0  0  0  0  0  0  0  0  0  0  0  0
   48.8960   35.4250   41.4390 C   0  0  0  0  0  0  0  0  0  0  0  0
   48.5350   35.3440   40.1270 F   0  0  0  0  0  0  0  0  0  0  0  0
   49.2960   36.7010   41.7470 F   0  0  0  0  0  0  0  0  0  0  0  0
   49.9320   34.4970   41.6120 F   0  0  0  0  0  0  0  0  0  0  0  0
   41.6920   34.1460   39.6210 O   0  0  0  0  0  0  0  0  0  0  0  0
   38.8490   33.0090   38.8820 N   0  0  0  0  0  0  0  0  0  0  0  0
   39.8310   32.0460   38.5240 C   0  0  0  0  0  0  0  0  0  0  0  0
   41.0930   32.5620   38.0070 C   0  0  0  0  0  0  0  0  0  0  0  0
   41.3260   34.1310   38.2950 C   0  0  1  0  0  0  0  0  0  0  0  0
   40.1730   34.7890   37.7750 C   0  0  0  0  0  0  0  0  0  0  0  0
   38.8680   34.2030   38.1210 C   0  0  0  0  0  0  0  0  0  0  0  0
   44.8255   34.0500   41.0440 H   0  0  0  0  0  0  0  0  0  0  0  0
   43.0793   31.9706   41.7020 H   0  0  0  0  0  0  0  0  0  0  0  0
   42.0084   32.9401   42.2709 H   0  0  0  0  0  0  0  0  0  0  0  0
   42.8679   33.0640   39.0057 H   0  0  0  0  0  0  0  0  0  0  0  0
   44.2443   36.0297   40.7295 H   0  0  0  0  0  0  0  0  0  0  0  0
   42.5810   35.6991   41.4177 H   0  0  0  0  0  0  0  0  0  0  0  0
   44.1494   36.7515   43.0146 H   0  0  0  0  0  0  0  0  0  0  0  0
   43.4884   35.1602   43.5326 H   0  0  0  0  0  0  0  0  0  0  0  0
   49.0449   33.6507   43.4552 H   0  0  0  0  0  0  0  0  0  0  0  0
   46.3732   32.4433   45.7887 H   0  0  0  0  0  0  0  0  0  0  0  0
   48.0953   32.3085   45.3428 H   0  0  0  0  0  0  0  0  0  0  0  0
   38.1715   32.8497   39.6412 H   0  0  0  0  0  0  0  0  0  0  0  0
   40.0564   31.4499   39.4206 H   0  0  0  0  0  0  0  0  0  0  0  0
   39.3889   31.4756   37.6939 H   0  0  0  0  0  0  0  0  0  0  0  0
   41.1118   32.4034   36.9187 H   0  0  0  0  0  0  0  0  0  0  0  0
   41.8961   32.0198   38.5276 H   0  0  0  0  0  0  0  0  0  0  0  0
   42.1228   34.7117   37.8074 H   0  0  0  0  0  0  0  0  0  0  0  0
   40.2546   35.6886   37.1473 H   0  0  0  0  0  0  0  0  0  0  0  0
   37.9315   34.6803   37.7968 H   0  0  0  0  0  0  0  0  0  0  0  0
  1  4  1  0
  1  2  1  0
  3  1  1  0
  3  2  1  0
  4  5  1  0
  5 10  1  0
  6  7  2  0
  7  8  1  0
  8 12  1  0
  9  8  2  0
 10  9  1  0
 11  6  1  0
 11 10  2  0
 13 16  1  0
 13 15  1  0
 13  6  1  0
 14 13  1  0
 17  3  1  0
 19 18  1  0
 20 21  1  0
 20 19  1  0
 21 17  1  0
 22 23  2  0
 22 21  1  0
 23 18  1  0
  1 24  1  6
  2 25  1  0
  2 26  1  0
  3 27  1  6
  4 28  1  0
  4 29  1  0
  5 30  1  0
  5 31  1  0
  7 32  1  0
 12 33  1  0
 12 34  1  0
 18 35  1  0
 19 36  1  0
 19 37  1  0
 20 38  1  0
 20 39  1  0
 21 40  1  6
 22 41  1  0
 23 42  1  0
M  ISO  8  24  13  25  13  26  13  27  13  28   8  29   8  30   8  31   8
M  ISO  8  32  14  36  13  37  13  38  13  39  13  40  13  41  13  42  13
M  END
>  <minimizedAffinity>  (1) 
-5.88940239

>  <minimizedRMSD>  (1) 
0.0963140577

$$$$
