
     RDKit          3D

 22 24  0  0  0  0  0  0  0  0999 V2000
   44.8500   35.1970   44.1760 C   0  0  0  0  0  0  0  0  0  0  0  0
   45.4090   35.7630   43.0190 C   0  0  0  0  0  0  0  0  0  0  0  0
   46.5490   35.1040   42.4930 C   0  0  0  0  0  0  0  0  0  0  0  0
   47.0280   34.0020   43.1060 N   0  0  0  0  0  0  0  0  0  0  0  0
   46.4430   33.5100   44.2160 C   0  0  0  0  0  0  0  0  0  0  0  0
   45.3680   34.1050   44.7390 N   0  0  0  0  0  0  0  0  0  0  0  0
   46.8770   32.3540   44.9310 N   0  0  0  0  0  0  0  0  0  0  0  0
   47.6770   31.3370   44.5630 C   0  0  0  0  0  0  0  0  0  0  0  0
   47.7500   30.5090   45.6450 N   0  0  0  0  0  0  0  0  0  0  0  0
   47.0170   31.0080   46.6400 C   0  0  0  0  0  0  0  0  0  0  0  0
   46.7870   30.5190   47.9330 C   0  0  0  0  0  0  0  0  0  0  0  0
   45.9890   31.2560   48.7220 N   0  0  0  0  0  0  0  0  0  0  0  0
   45.4280   32.4110   48.3120 C   0  0  0  0  0  0  0  0  0  0  0  0
   45.6630   32.8600   47.0650 N   0  0  0  0  0  0  0  0  0  0  0  0
   46.4430   32.2030   46.2000 C   0  0  0  0  0  0  0  0  0  0  0  0
   43.7440   35.8340   44.6860 O   0  0  0  0  0  0  0  0  0  0  0  0
   44.9877   36.6638   42.5488 H   0  0  0  0  0  0  0  0  0  0  0  0
   47.0411   35.4901   41.5881 H   0  0  0  0  0  0  0  0  0  0  0  0
   48.1709   31.2009   43.5896 H   0  0  0  0  0  0  0  0  0  0  0  0
   47.2375   29.5788   48.2838 H   0  0  0  0  0  0  0  0  0  0  0  0
   44.7814   32.9838   48.9930 H   0  0  0  0  0  0  0  0  0  0  0  0
   43.3887   36.6429   44.2393 H   0  0  0  0  0  0  0  0  0  0  0  0
  1 16  1  0
  1  6  2  0
  2  1  1  0
  3  2  2  0
  3  4  1  0
  4  5  2  0
  5  6  1  0
  5  7  1  0
  7 15  1  0
  8  7  1  0
  8  9  2  0
  9 10  1  0
 10 11  2  0
 11 12  1  0
 13 12  2  0
 14 13  1  0
 15 10  1  0
 15 14  2  0
  2 17  1  0
  3 18  1  0
  8 19  1  0
 11 20  1  0
 13 21  1  0
 16 22  1  0
M  ISO  6  17  14  18  14  19  14  20  14  21  14  22   3
M  END
>  <minimizedAffinity>  (1) 
-5.32843637

>  <minimizedRMSD>  (1) 
0.974618018

$$$$
