
     RDKit          3D

 18 18  0  0  0  0  0  0  0  0999 V2000
   44.5730   35.2840   43.8860 C   0  0  0  0  0  0  0  0  0  0  0  0
   45.2240   35.5950   42.6850 C   0  0  0  0  0  0  0  0  0  0  0  0
   46.4970   35.0540   42.4660 C   0  0  0  0  0  0  0  0  0  0  0  0
   47.0350   34.2560   43.4290 N   0  0  0  0  0  0  0  0  0  0  0  0
   46.3760   33.9850   44.5630 C   0  0  0  0  0  0  0  0  0  0  0  0
   45.1660   34.4900   44.7890 N   0  0  0  0  0  0  0  0  0  0  0  0
   46.9990   33.1340   45.5420 N   0  0  0  0  0  0  0  0  0  0  0  0
   46.5170   33.0600   46.8640 C   0  0  0  0  0  0  0  0  0  0  0  0
   45.2620   33.2680   47.0730 N   0  0  0  0  0  0  0  0  0  0  0  0
   47.5070   32.7500   47.8670 N   0  0  0  0  0  0  0  0  0  0  0  0
   44.9540   33.2020   48.0700 H   0  0  0  0  0  0  0  0  0  0  0  0
   43.3350   35.8090   44.1010 O   0  0  0  0  0  0  0  0  0  0  0  0
   44.7489   36.2453   41.9357 H   0  0  0  0  0  0  0  0  0  0  0  0
   47.0486   35.2685   41.5388 H   0  0  0  0  0  0  0  0  0  0  0  0
   47.8148   32.5668   45.2706 H   0  0  0  0  0  0  0  0  0  0  0  0
   47.2322   32.6784   48.8571 H   0  0  0  0  0  0  0  0  0  0  0  0
   48.4885   32.6003   47.5929 H   0  0  0  0  0  0  0  0  0  0  0  0
   42.9194   36.3926   43.4178 H   0  0  0  0  0  0  0  0  0  0  0  0
  1 12  1  0
  1  6  2  0
  2  1  1  0
  3  2  2  0
  3  4  1  0
  4  5  2  0
  5  6  1  0
  5  7  1  0
  7  8  1  0
  8  9  2  0
  8 10  1  0
  9 11  1  0
  2 13  1  0
  3 14  1  0
  7 15  1  0
 10 16  1  0
 10 17  1  0
 12 18  1  0
M  ISO  3  13  14  14  14  18   3
M  END
>  <minimizedAffinity>  (1) 
-5.33958626

>  <minimizedRMSD>  (1) 
0.445751488

$$$$
