
     RDKit          3D

 25 27  0  0  0  0  0  0  0  0999 V2000
   46.5370   32.1830   45.1910 C   0  0  0  0  0  0  0  0  0  0  0  0
   47.3560   31.4040   44.4440 N   0  0  0  0  0  0  0  0  0  0  0  0
   48.0120   30.3430   44.9150 C   0  0  0  0  0  0  0  0  0  0  0  0
   47.9100   29.9550   46.1970 N   0  0  0  0  0  0  0  0  0  0  0  0
   47.1170   30.6690   47.0240 C   0  0  0  0  0  0  0  0  0  0  0  0
   47.0140   30.2700   48.3370 C   0  0  0  0  0  0  0  0  0  0  0  0
   46.2170   30.9670   49.2210 C   0  0  0  0  0  0  0  0  0  0  0  0
   45.5390   32.0750   48.7070 C   0  0  0  0  0  0  0  0  0  0  0  0
   45.6770   32.4260   47.3940 C   0  0  0  0  0  0  0  0  0  0  0  0
   46.4600   31.7540   46.4940 C   0  0  0  0  0  0  0  0  0  0  0  0
   44.7140   35.2770   45.4100 C   0  0  0  0  0  0  0  0  0  0  0  0
   44.4140   35.6790   44.1090 C   0  0  0  0  0  0  0  0  0  0  0  0
   44.8630   34.8380   43.0930 C   0  0  0  0  0  0  0  0  0  0  0  0
   45.5370   33.7280   43.4160 N   0  0  0  0  0  0  0  0  0  0  0  0
   45.8220   33.3490   44.6590 C   0  0  0  0  0  0  0  0  0  0  0  0
   45.3880   34.1570   45.6100 N   0  0  0  0  0  0  0  0  0  0  0  0
   44.3020   36.0590   46.4760 O   0  0  0  0  0  0  0  0  0  0  0  0
   48.6561   29.7682   44.2333 H   0  0  0  0  0  0  0  0  0  0  0  0
   47.5719   29.3879   48.6844 H   0  0  0  0  0  0  0  0  0  0  0  0
   46.1204   30.6664   50.2747 H   0  0  0  0  0  0  0  0  0  0  0  0
   44.8885   32.6698   49.3651 H   0  0  0  0  0  0  0  0  0  0  0  0
   45.1227   33.3063   47.0364 H   0  0  0  0  0  0  0  0  0  0  0  0
   43.8569   36.6036   43.8977 H   0  0  0  0  0  0  0  0  0  0  0  0
   44.6660   35.0833   42.0389 H   0  0  0  0  0  0  0  0  0  0  0  0
   43.7981   36.8950   46.3110 H   0  0  0  0  0  0  0  0  0  0  0  0
  1 10  2  0
  2  3  2  0
  2  1  1  0
  3  4  1  0
  4  5  2  0
  5  6  1  0
  6  7  2  0
  8  7  1  0
  9  8  2  0
 10  5  1  0
 10  9  1  0
 11 16  2  0
 11 17  1  0
 12 11  1  0
 13 14  1  0
 13 12  2  0
 14 15  2  0
 15  1  1  0
 15 16  1  0
  3 18  1  0
  6 19  1  0
  7 20  1  0
  8 21  1  0
  9 22  1  0
 12 23  1  0
 13 24  1  0
 17 25  1  0
M  ISO  8  18  14  19  14  20  14  21  14  22  14  23  14  24  14  25   3
M  END
>  <minimizedAffinity>  (1) 
-5.41133976

>  <minimizedRMSD>  (1) 
1.767488

$$$$
