
     RDKit          3D

 17 18  0  0  0  0  0  0  0  0999 V2000
   44.8550   34.9850   44.6210 C   0  0  0  0  0  0  0  0  0  0  0  0
   45.6890   34.8890   43.5040 C   0  0  0  0  0  0  0  0  0  0  0  0
   46.7970   34.0380   43.5950 C   0  0  0  0  0  0  0  0  0  0  0  0
   47.0030   33.3600   44.7430 N   0  0  0  0  0  0  0  0  0  0  0  0
   46.1790   33.4710   45.8090 C   0  0  0  0  0  0  0  0  0  0  0  0
   45.1070   34.2880   45.7370 N   0  0  0  0  0  0  0  0  0  0  0  0
   46.3660   32.7730   47.0360 N   0  0  0  0  0  0  0  0  0  0  0  0
   47.3710   32.1050   47.6480 C   0  0  0  0  0  0  0  0  0  0  0  0
   46.8910   31.6670   48.8220 N   0  0  0  0  0  0  0  0  0  0  0  0
   45.6040   32.0480   48.9500 C   0  0  0  0  0  0  0  0  0  0  0  0
   45.3130   32.7260   47.8350 N   0  0  0  0  0  0  0  0  0  0  0  0
   43.7750   35.8120   44.5360 O   0  0  0  0  0  0  0  0  0  0  0  0
   45.4827   35.4608   42.5872 H   0  0  0  0  0  0  0  0  0  0  0  0
   47.4870   33.9243   42.7459 H   0  0  0  0  0  0  0  0  0  0  0  0
   48.3877   31.9505   47.2576 H   0  0  0  0  0  0  0  0  0  0  0  0
   44.9323   31.8433   49.7967 H   0  0  0  0  0  0  0  0  0  0  0  0
   43.6044   36.3194   43.7032 H   0  0  0  0  0  0  0  0  0  0  0  0
  1  6  2  0
  2  3  2  0
  2  1  1  0
  3  4  1  0
  4  5  2  0
  5  7  1  0
  6  5  1  0
  7  8  1  0
  7 11  1  0
  8  9  2  0
  9 10  1  0
 11 10  2  0
 12  1  1  0
  2 13  1  0
  3 14  1  0
  8 15  1  0
 10 16  1  0
 12 17  1  0
M  ISO  5  13  14  14  14  15  14  16  14  17   3
M  END
>  <minimizedAffinity>  (1) 
-4.93284893

>  <minimizedRMSD>  (1) 
1.29163051

$$$$
