
     RDKit          3D

 20 21  0  0  0  0  0  0  0  0999 V2000
   44.8640   35.0760   44.5460 C   0  0  0  0  0  0  0  0  0  0  0  0
   45.7360   35.0290   43.4520 C   0  0  0  0  0  0  0  0  0  0  0  0
   46.8340   34.1380   43.5430 C   0  0  0  0  0  0  0  0  0  0  0  0
   46.9730   33.3940   44.6700 N   0  0  0  0  0  0  0  0  0  0  0  0
   46.1080   33.4800   45.6870 C   0  0  0  0  0  0  0  0  0  0  0  0
   45.0590   34.3160   45.6260 N   0  0  0  0  0  0  0  0  0  0  0  0
   46.3000   32.6590   46.8790 C   0  0  0  0  0  0  0  0  0  0  0  0
   45.3150   32.5780   47.8420 C   0  0  0  0  0  0  0  0  0  0  0  0
   45.3930   31.8380   48.9970 C   0  0  0  0  0  0  0  0  0  0  0  0
   46.5830   31.1280   49.1650 C   0  0  0  0  0  0  0  0  0  0  0  0
   47.5520   31.2250   48.1910 C   0  0  0  0  0  0  0  0  0  0  0  0
   47.4250   31.9640   47.0790 N   0  0  0  0  0  0  0  0  0  0  0  0
   43.7970   35.9380   44.4650 O   0  0  0  0  0  0  0  0  0  0  0  0
   45.5761   35.6554   42.5620 H   0  0  0  0  0  0  0  0  0  0  0  0
   47.5575   34.0511   42.7190 H   0  0  0  0  0  0  0  0  0  0  0  0
   44.3926   33.1524   47.6711 H   0  0  0  0  0  0  0  0  0  0  0  0
   44.5778   31.8073   49.7349 H   0  0  0  0  0  0  0  0  0  0  0  0
   46.7435   30.5041   50.0566 H   0  0  0  0  0  0  0  0  0  0  0  0
   48.4864   30.6624   48.3338 H   0  0  0  0  0  0  0  0  0  0  0  0
   43.6696   36.4933   43.6554 H   0  0  0  0  0  0  0  0  0  0  0  0
  1  6  2  0
  2  3  2  0
  2  1  1  0
  3  4  1  0
  4  5  2  0
  5  7  1  0
  6  5  1  0
  7 12  1  0
  7  8  2  0
  8  9  1  0
  9 10  2  0
 11 10  1  0
 12 11  2  0
 13  1  1  0
  2 14  1  0
  3 15  1  0
  8 16  1  0
  9 17  1  0
 10 18  1  0
 11 19  1  0
 13 20  1  0
M  ISO  7  14  14  15  14  16  14  17  14  18  14  19  14  20   3
M  END
>  <minimizedAffinity>  (1) 
-5.09629107

>  <minimizedRMSD>  (1) 
1.34403455

$$$$
