
     RDKit          3D

 25 26  0  0  1  0  0  0  0  0999 V2000
   44.8630   35.0760   44.5300 C   0  0  0  0  0  0  0  0  0  0  0  0
   45.7250   35.0540   43.4250 C   0  0  0  0  0  0  0  0  0  0  0  0
   46.8300   34.1820   43.4890 C   0  0  0  0  0  0  0  0  0  0  0  0
   47.0060   33.4200   44.5870 N   0  0  0  0  0  0  0  0  0  0  0  0
   46.1430   33.4760   45.6320 C   0  0  0  0  0  0  0  0  0  0  0  0
   45.0780   34.3030   45.5970 N   0  0  0  0  0  0  0  0  0  0  0  0
   46.3880   32.6090   46.8230 C   0  0  1  0  0  0  0  0  0  0  0  0
   45.3060   32.6900   47.8300 C   0  0  0  0  0  0  0  0  0  0  0  0
   44.9200   31.4560   48.5470 C   0  0  0  0  0  0  0  0  0  0  0  0
   45.6040   30.1960   48.1890 C   0  0  0  0  0  0  0  0  0  0  0  0
   46.9410   30.3700   47.5050 C   0  0  0  0  0  0  0  0  0  0  0  0
   46.6390   31.2250   46.2760 C   0  0  0  0  0  0  0  0  0  0  0  0
   43.7920   35.9250   44.4640 O   0  0  0  0  0  0  0  0  0  0  0  0
   45.5465   35.6902   42.5456 H   0  0  0  0  0  0  0  0  0  0  0  0
   47.5414   34.1237   42.6520 H   0  0  0  0  0  0  0  0  0  0  0  0
   47.2623   32.9471   47.3986 H   0  0  0  0  0  0  0  0  0  0  0  0
   44.8016   33.6448   48.0397 H   0  0  0  0  0  0  0  0  0  0  0  0
   44.1441   31.4753   49.3264 H   0  0  0  0  0  0  0  0  0  0  0  0
   45.7649   29.6202   49.1123 H   0  0  0  0  0  0  0  0  0  0  0  0
   44.9514   29.6853   47.4656 H   0  0  0  0  0  0  0  0  0  0  0  0
   47.6526   30.8826   48.1689 H   0  0  0  0  0  0  0  0  0  0  0  0
   47.4012   29.4069   47.2393 H   0  0  0  0  0  0  0  0  0  0  0  0
   45.7489   30.8483   45.7509 H   0  0  0  0  0  0  0  0  0  0  0  0
   47.4619   31.2093   45.5462 H   0  0  0  0  0  0  0  0  0  0  0  0
   43.6552   36.4878   43.6611 H   0  0  0  0  0  0  0  0  0  0  0  0
  1  6  2  0
  2  3  2  0
  2  1  1  0
  3  4  1  0
  4  5  2  0
  6  5  1  0
  7  5  1  0
  7  8  1  0
  8  9  2  0
 10  9  1  0
 11 10  1  0
 12  7  1  0
 12 11  1  0
 13  1  1  0
  2 14  1  0
  3 15  1  0
  7 16  1  1
  8 17  1  0
  9 18  1  0
 10 19  1  0
 10 20  1  0
 11 21  1  0
 11 22  1  0
 12 23  1  0
 12 24  1  0
 13 25  1  0
M  ISO  8  14  14  15  14  16  13  17  13  18  13  19  13  20  13  21  13
M  ISO  4  22  13  23  13  24  13  25   3
M  END
>  <minimizedAffinity>  (1) 
-5.06933594

>  <minimizedRMSD>  (1) 
1.3849951

$$$$
