
     RDKit          3D

 16 17  0  0  0  0  0  0  0  0999 V2000
   44.8440   35.0550   44.5310 C   0  0  0  0  0  0  0  0  0  0  0  0
   45.6960   34.9140   43.4290 C   0  0  0  0  0  0  0  0  0  0  0  0
   46.7790   34.0400   43.5610 C   0  0  0  0  0  0  0  0  0  0  0  0
   46.9540   33.3790   44.7250 N   0  0  0  0  0  0  0  0  0  0  0  0
   46.1120   33.5440   45.7600 C   0  0  0  0  0  0  0  0  0  0  0  0
   45.0700   34.3690   45.6690 N   0  0  0  0  0  0  0  0  0  0  0  0
   46.2360   32.8630   47.0540 C   0  0  0  0  0  0  0  0  0  0  0  0
   47.3490   32.3980   47.6570 N   0  0  0  0  0  0  0  0  0  0  0  0
   47.0130   31.8580   48.8030 O   0  0  0  0  0  0  0  0  0  0  0  0
   45.7120   31.9420   48.9970 C   0  0  0  0  0  0  0  0  0  0  0  0
   45.2040   32.5750   47.9010 N   0  0  0  0  0  0  0  0  0  0  0  0
   43.7810   35.9060   44.4160 O   0  0  0  0  0  0  0  0  0  0  0  0
   45.5201   35.4692   42.4958 H   0  0  0  0  0  0  0  0  0  0  0  0
   47.4802   33.8926   42.7264 H   0  0  0  0  0  0  0  0  0  0  0  0
   45.1491   31.5752   49.8680 H   0  0  0  0  0  0  0  0  0  0  0  0
   43.6322   36.4009   43.5716 H   0  0  0  0  0  0  0  0  0  0  0  0
  1  6  2  0
  2  3  2  0
  2  1  1  0
  3  4  1  0
  4  5  2  0
  5  7  1  0
  6  5  1  0
  7  8  2  0
  7 11  1  0
  8  9  1  0
  9 10  1  0
 11 10  2  0
 12  1  1  0
  2 13  1  0
  3 14  1  0
 10 15  1  0
 12 16  1  0
M  ISO  4  13  14  14  14  15  14  16   3
M  END
>  <minimizedAffinity>  (1) 
-4.68394613

>  <minimizedRMSD>  (1) 
1.33179498

$$$$
