
     RDKit          3D

 23 24  0  0  0  0  0  0  0  0999 V2000
   44.8830   35.0820   44.5780 C   0  0  0  0  0  0  0  0  0  0  0  0
   45.7450   34.9810   43.4710 C   0  0  0  0  0  0  0  0  0  0  0  0
   46.8040   34.0550   43.5720 C   0  0  0  0  0  0  0  0  0  0  0  0
   46.9320   33.3230   44.7190 N   0  0  0  0  0  0  0  0  0  0  0  0
   46.0820   33.4600   45.7440 C   0  0  0  0  0  0  0  0  0  0  0  0
   45.0640   34.3300   45.6790 N   0  0  0  0  0  0  0  0  0  0  0  0
   46.2380   32.6840   46.9260 N   0  0  0  0  0  0  0  0  0  0  0  0
   45.1690   32.5840   47.8910 C   0  0  0  0  0  0  0  0  0  0  0  0
   45.6290   31.4660   48.8090 C   0  0  0  0  0  0  0  0  0  0  0  0
   47.1260   31.7410   48.8280 C   0  0  0  0  0  0  0  0  0  0  0  0
   47.3800   31.9260   47.3470 C   0  0  0  0  0  0  0  0  0  0  0  0
   43.8520   35.9820   44.4820 O   0  0  0  0  0  0  0  0  0  0  0  0
   45.6001   35.5948   42.5698 H   0  0  0  0  0  0  0  0  0  0  0  0
   47.5143   33.9243   42.7423 H   0  0  0  0  0  0  0  0  0  0  0  0
   45.0504   33.5260   48.4464 H   0  0  0  0  0  0  0  0  0  0  0  0
   44.1903   32.3862   47.4295 H   0  0  0  0  0  0  0  0  0  0  0  0
   45.1851   31.5521   49.8118 H   0  0  0  0  0  0  0  0  0  0  0  0
   45.3474   30.4535   48.4842 H   0  0  0  0  0  0  0  0  0  0  0  0
   47.3667   32.6494   49.3998 H   0  0  0  0  0  0  0  0  0  0  0  0
   47.7338   30.9596   49.3075 H   0  0  0  0  0  0  0  0  0  0  0  0
   47.4268   30.9572   46.8281 H   0  0  0  0  0  0  0  0  0  0  0  0
   48.3381   32.4190   47.1257 H   0  0  0  0  0  0  0  0  0  0  0  0
   43.7419   36.5228   43.6601 H   0  0  0  0  0  0  0  0  0  0  0  0
  1  6  2  0
  2  3  2  0
  2  1  1  0
  3  4  1  0
  4  5  2  0
  5  7  1  0
  6  5  1  0
  7 11  1  0
  7  8  1  0
  8  9  1  0
  9 10  1  0
 11 10  1  0
 12  1  1  0
  2 13  1  0
  3 14  1  0
  8 15  1  0
  8 16  1  0
  9 17  1  0
  9 18  1  0
 10 19  1  0
 10 20  1  0
 11 21  1  0
 11 22  1  0
 12 23  1  0
M  ISO  8  13  14  14  14  15  13  16  13  17  13  18  13  19  13  20  13
M  ISO  3  21  13  22  13  23   3
M  END
>  <minimizedAffinity>  (1) 
-4.87428093

>  <minimizedRMSD>  (1) 
1.30704772

$$$$
