
     RDKit          3D

 18 19  0  0  0  0  0  0  0  0999 V2000
   44.7930   35.1250   44.4280 C   0  0  0  0  0  0  0  0  0  0  0  0
   45.6640   35.0240   43.3260 C   0  0  0  0  0  0  0  0  0  0  0  0
   46.7650   34.1750   43.4440 C   0  0  0  0  0  0  0  0  0  0  0  0
   46.9380   33.4920   44.6150 N   0  0  0  0  0  0  0  0  0  0  0  0
   46.0820   33.6190   45.6370 C   0  0  0  0  0  0  0  0  0  0  0  0
   45.0210   34.4220   45.5550 N   0  0  0  0  0  0  0  0  0  0  0  0
   46.2300   32.9060   46.9050 C   0  0  0  0  0  0  0  0  0  0  0  0
   47.2070   32.1900   47.5730 C   0  0  0  0  0  0  0  0  0  0  0  0
   46.6260   31.7850   48.7800 C   0  0  0  0  0  0  0  0  0  0  0  0
   45.3510   32.2570   48.8020 N   0  0  0  0  0  0  0  0  0  0  0  0
   45.1290   32.9180   47.6910 N   0  0  0  0  0  0  0  0  0  0  0  0
   43.7220   35.9570   44.3020 O   0  0  0  0  0  0  0  0  0  0  0  0
   45.4825   35.5950   42.4035 H   0  0  0  0  0  0  0  0  0  0  0  0
   47.4771   34.0582   42.6138 H   0  0  0  0  0  0  0  0  0  0  0  0
   48.2301   31.9818   47.2267 H   0  0  0  0  0  0  0  0  0  0  0  0
   47.1127   31.1921   49.5684 H   0  0  0  0  0  0  0  0  0  0  0  0
   44.6723   32.1185   49.5643 H   0  0  0  0  0  0  0  0  0  0  0  0
   43.5821   36.4599   43.4608 H   0  0  0  0  0  0  0  0  0  0  0  0
  1  6  2  0
  2  3  2  0
  2  1  1  0
  3  4  1  0
  4  5  2  0
  5  7  1  0
  6  5  1  0
  7  8  1  0
  7 11  2  0
  8  9  2  0
  9 10  1  0
 11 10  1  0
 12  1  1  0
  2 13  1  0
  3 14  1  0
  8 15  1  0
  9 16  1  0
 10 17  1  0
 12 18  1  0
M  ISO  6  13  14  14  14  15  14  16  14  17   9  18   3
M  END
>  <minimizedAffinity>  (1) 
-4.87835884

>  <minimizedRMSD>  (1) 
1.2084626

$$$$
