
     RDKit          3D

 12 12  0  0  0  0  0  0  0  0999 V2000
   44.7620   35.2150   44.1400 C   0  0  0  0  0  0  0  0  0  0  0  0
   45.4660   35.5710   42.9840 C   0  0  0  0  0  0  0  0  0  0  0  0
   46.7030   34.9600   42.7600 C   0  0  0  0  0  0  0  0  0  0  0  0
   47.1620   34.0630   43.6590 N   0  0  0  0  0  0  0  0  0  0  0  0
   46.4530   33.7480   44.7610 C   0  0  0  0  0  0  0  0  0  0  0  0
   45.2720   34.3140   45.0000 N   0  0  0  0  0  0  0  0  0  0  0  0
   43.5590   35.8160   44.3480 O   0  0  0  0  0  0  0  0  0  0  0  0
   46.8550   32.8370   45.7300 O   0  0  0  0  0  0  0  0  0  0  0  0
   45.0593   36.3073   42.2752 H   0  0  0  0  0  0  0  0  0  0  0  0
   47.2935   35.2061   41.8652 H   0  0  0  0  0  0  0  0  0  0  0  0
   43.2149   36.4744   43.6937 H   0  0  0  0  0  0  0  0  0  0  0  0
   46.2760   32.6596   46.5132 H   0  0  0  0  0  0  0  0  0  0  0  0
  1  7  1  0
  1  6  2  0
  2  1  1  0
  3  2  2  0
  3  4  1  0
  4  5  2  0
  5  6  1  0
  5  8  1  0
  2  9  1  0
  3 10  1  0
  7 11  1  0
  8 12  1  0
M  ISO  4   9  14  10  14  11   3  12   3
M  END
>  <minimizedAffinity>  (1) 
-3.53917861

>  <minimizedRMSD>  (1) 
0.0746522993

$$$$
