
     RDKit          3D

 18 19  0  0  0  0  0  0  0  0999 V2000
   44.8350   35.0880   44.5090 C   0  0  0  0  0  0  0  0  0  0  0  0
   45.6660   35.0270   43.3650 C   0  0  0  0  0  0  0  0  0  0  0  0
   46.7840   34.1780   43.4200 C   0  0  0  0  0  0  0  0  0  0  0  0
   47.0100   33.4700   44.5450 N   0  0  0  0  0  0  0  0  0  0  0  0
   46.1900   33.5560   45.6230 C   0  0  0  0  0  0  0  0  0  0  0  0
   45.1220   34.3590   45.5860 N   0  0  0  0  0  0  0  0  0  0  0  0
   46.4970   32.7420   46.8420 C   0  0  0  0  0  0  0  0  0  0  0  0
   45.3860   32.4710   47.8270 C   0  0  0  0  0  0  0  0  0  0  0  0
   45.9700   31.3700   46.9960 C   0  0  0  0  0  0  0  0  0  0  0  0
   43.7510   35.9130   44.4520 O   0  0  0  0  0  0  0  0  0  0  0  0
   45.4448   35.6219   42.4666 H   0  0  0  0  0  0  0  0  0  0  0  0
   47.4638   34.0923   42.5594 H   0  0  0  0  0  0  0  0  0  0  0  0
   47.5049   33.1804   46.8864 H   0  0  0  0  0  0  0  0  0  0  0  0
   45.5833   32.5120   48.9084 H   0  0  0  0  0  0  0  0  0  0  0  0
   44.3764   32.8718   48.0005 H   0  0  0  0  0  0  0  0  0  0  0  0
   45.3744   30.9186   46.1888 H   0  0  0  0  0  0  0  0  0  0  0  0
   46.4192   30.3906   47.2174 H   0  0  0  0  0  0  0  0  0  0  0  0
   43.5717   36.4389   43.6326 H   0  0  0  0  0  0  0  0  0  0  0  0
  1  6  2  0
  2  3  2  0
  2  1  1  0
  3  4  1  0
  4  5  2  0
  5  7  1  0
  6  5  1  0
  7  9  1  0
  7  8  1  0
  9  8  1  0
 10  1  1  0
  2 11  1  0
  3 12  1  0
  7 13  1  0
  8 14  1  0
  8 15  1  0
  9 16  1  0
  9 17  1  0
 10 18  1  0
M  ISO  8  11  14  12  14  13  13  14  13  15  13  16  13  17  13  18   3
M  END
>  <minimizedAffinity>  (1) 
-4.04624462

>  <minimizedRMSD>  (1) 
0.974838614

$$$$
