
     RDKit          3D

 14 14  0  0  0  0  0  0  0  0999 V2000
   44.8630   35.0770   44.5610 C   0  0  0  0  0  0  0  0  0  0  0  0
   45.7690   34.9790   43.4750 C   0  0  0  0  0  0  0  0  0  0  0  0
   46.8340   34.0820   43.5970 C   0  0  0  0  0  0  0  0  0  0  0  0
   46.9470   33.3520   44.7440 N   0  0  0  0  0  0  0  0  0  0  0  0
   46.0600   33.4800   45.7510 C   0  0  0  0  0  0  0  0  0  0  0  0
   45.0400   34.3300   45.6500 N   0  0  0  0  0  0  0  0  0  0  0  0
   46.2210   32.6680   46.9800 C   0  0  0  0  0  0  0  0  0  0  0  0
   47.4680   32.8610   47.5610 F   0  0  0  0  0  0  0  0  0  0  0  0
   45.2090   33.0000   47.8670 F   0  0  0  0  0  0  0  0  0  0  0  0
   46.0740   31.3190   46.6660 F   0  0  0  0  0  0  0  0  0  0  0  0
   43.8290   35.9560   44.4280 O   0  0  0  0  0  0  0  0  0  0  0  0
   45.6384   35.5876   42.5681 H   0  0  0  0  0  0  0  0  0  0  0  0
   47.5664   33.9670   42.7844 H   0  0  0  0  0  0  0  0  0  0  0  0
   43.7373   36.4907   43.5999 H   0  0  0  0  0  0  0  0  0  0  0  0
  1  6  2  0
  2  3  2  0
  2  1  1  0
  3  4  1  0
  4  5  2  0
  5  7  1  0
  6  5  1  0
  7  8  1  0
  7  9  1  0
 10  7  1  0
 11  1  1  0
  2 12  1  0
  3 13  1  0
 11 14  1  0
M  ISO  3  12  14  13  14  14   3
M  END
>  <minimizedAffinity>  (1) 
-4.29066324

>  <minimizedRMSD>  (1) 
1.18855822

$$$$
