
     RDKit          3D

 24 25  0  0  0  0  0  0  0  0999 V2000
   45.6840   35.2810   42.8750 C   0  0  0  0  0  0  0  0  0  0  0  0
   46.8200   35.0650   42.0710 C   0  0  0  0  0  0  0  0  0  0  0  0
   47.8140   34.1930   42.5620 C   0  0  0  0  0  0  0  0  0  0  0  0
   47.6320   33.6110   43.7650 N   0  0  0  0  0  0  0  0  0  0  0  0
   46.5320   33.8390   44.5110 C   0  0  0  0  0  0  0  0  0  0  0  0
   45.5760   34.6630   44.0660 N   0  0  0  0  0  0  0  0  0  0  0  0
   46.2590   33.2700   45.7850 N   0  0  0  0  0  0  0  0  0  0  0  0
   46.9320   32.2160   46.2800 C   0  0  0  0  0  0  0  0  0  0  0  0
   46.5800   31.7420   47.5410 C   0  0  0  0  0  0  0  0  0  0  0  0
   45.5710   32.3380   48.2590 C   0  0  0  0  0  0  0  0  0  0  0  0
   45.3120   31.8540   49.3850 O   0  0  0  0  0  0  0  0  0  0  0  0
   44.9430   33.3920   47.6920 N   0  0  0  0  0  0  0  0  0  0  0  0
   45.2760   33.8560   46.4760 C   0  0  0  0  0  0  0  0  0  0  0  0
   44.5880   34.8400   46.1110 O   0  0  0  0  0  0  0  0  0  0  0  0
   44.7350   36.1160   42.4020 O   0  0  0  0  0  0  0  0  0  0  0  0
   43.5410   35.5610   41.9530 C   0  0  0  0  0  0  0  0  0  0  0  0
   43.5840   35.1160   40.7590 O   0  0  0  0  0  0  0  0  0  0  0  0
   42.3620   35.4740   42.7130 O   0  0  0  0  0  0  0  0  0  0  0  0
   46.9283   35.5591   41.0942 H   0  0  0  0  0  0  0  0  0  0  0  0
   48.7216   33.9912   41.9742 H   0  0  0  0  0  0  0  0  0  0  0  0
   47.7395   31.7408   45.7037 H   0  0  0  0  0  0  0  0  0  0  0  0
   47.1155   30.8809   47.9673 H   0  0  0  0  0  0  0  0  0  0  0  0
   44.1829   33.8555   48.2101 H   0  0  0  0  0  0  0  0  0  0  0  0
   41.5502   35.0638   42.3221 H   0  0  0  0  0  0  0  0  0  0  0  0
  1  6  2  0
  2  3  2  0
  2  1  1  0
  3  4  1  0
  4  5  2  0
  5  7  1  0
  6  5  1  0
  7  8  1  0
  7 13  1  0
  8  9  2  0
  9 10  1  0
 10 11  2  0
 12 10  1  0
 13 12  1  0
 14 13  2  0
 15  1  1  0
 16 15  1  0
 16 18  1  0
 17 16  2  0
  2 19  1  0
  3 20  1  0
  8 21  1  0
  9 22  1  0
 12 23  1  0
 18 24  1  0
M  ISO  6  19  14  20  14  21  14  22  14  23   9  24   3
M  END
>  <minimizedAffinity>  (1) 
-6.2675004

>  <minimizedRMSD>  (1) 
1.10637164

$$$$
