
     RDKit          3D

 37 39  0  0  0  0  0  0  0  0999 V2000
   45.6080   35.1210   42.7620 C   0  0  0  0  0  0  0  0  0  0  0  0
   46.7660   34.9300   41.9850 C   0  0  0  0  0  0  0  0  0  0  0  0
   47.8120   34.1400   42.5160 C   0  0  0  0  0  0  0  0  0  0  0  0
   47.6650   33.5970   43.7450 N   0  0  0  0  0  0  0  0  0  0  0  0
   46.5330   33.8070   44.4610 C   0  0  0  0  0  0  0  0  0  0  0  0
   45.5300   34.5540   43.9730 N   0  0  0  0  0  0  0  0  0  0  0  0
   46.2960   33.2750   45.7620 N   0  0  0  0  0  0  0  0  0  0  0  0
   47.0180   32.2860   46.3140 C   0  0  0  0  0  0  0  0  0  0  0  0
   46.6940   31.8490   47.5900 C   0  0  0  0  0  0  0  0  0  0  0  0
   45.6510   32.4210   48.2780 C   0  0  0  0  0  0  0  0  0  0  0  0
   45.4070   31.9800   49.4350 O   0  0  0  0  0  0  0  0  0  0  0  0
   44.9680   33.4110   47.6610 N   0  0  0  0  0  0  0  0  0  0  0  0
   45.2780   33.8390   46.4210 C   0  0  0  0  0  0  0  0  0  0  0  0
   44.5340   34.7670   46.0090 O   0  0  0  0  0  0  0  0  0  0  0  0
   44.6170   35.8750   42.2510 O   0  0  0  0  0  0  0  0  0  0  0  0
   43.7040   35.5910   41.2410 C   0  0  0  0  0  0  0  0  0  0  0  0
   44.0500   34.2740   40.5950 C   0  0  0  0  0  0  0  0  0  0  0  0
   42.9800   33.7720   39.6700 C   0  0  0  0  0  0  0  0  0  0  0  0
   41.5890   33.9450   40.2010 C   0  0  0  0  0  0  0  0  0  0  0  0
   41.3350   35.3000   40.8080 C   0  0  0  0  0  0  0  0  0  0  0  0
   42.3360   35.4790   41.9310 C   0  0  0  0  0  0  0  0  0  0  0  0
   46.8554   35.3848   40.9874 H   0  0  0  0  0  0  0  0  0  0  0  0
   48.7318   33.9699   41.9372 H   0  0  0  0  0  0  0  0  0  0  0  0
   47.8533   31.8296   45.7627 H   0  0  0  0  0  0  0  0  0  0  0  0
   47.2759   31.0391   48.0543 H   0  0  0  0  0  0  0  0  0  0  0  0
   44.1817   33.8547   48.1567 H   0  0  0  0  0  0  0  0  0  0  0  0
   43.7086   36.3666   40.4610 H   0  0  0  0  0  0  0  0  0  0  0  0
   44.9791   34.3998   40.0198 H   0  0  0  0  0  0  0  0  0  0  0  0
   44.1609   33.5331   41.4004 H   0  0  0  0  0  0  0  0  0  0  0  0
   43.1517   32.7004   39.4908 H   0  0  0  0  0  0  0  0  0  0  0  0
   43.0473   34.3698   38.7491 H   0  0  0  0  0  0  0  0  0  0  0  0
   40.8805   33.7976   39.3725 H   0  0  0  0  0  0  0  0  0  0  0  0
   41.4576   33.2043   41.0036 H   0  0  0  0  0  0  0  0  0  0  0  0
   41.4736   36.0851   40.0501 H   0  0  0  0  0  0  0  0  0  0  0  0
   40.3046   35.3730   41.1862 H   0  0  0  0  0  0  0  0  0  0  0  0
   42.3155   34.6117   42.6073 H   0  0  0  0  0  0  0  0  0  0  0  0
   42.1116   36.3652   42.5428 H   0  0  0  0  0  0  0  0  0  0  0  0
  1  6  2  0
  2  3  2  0
  2  1  1  0
  3  4  1  0
  4  5  2  0
  5  7  1  0
  6  5  1  0
  7  8  1  0
  7 13  1  0
  8  9  2  0
  9 10  1  0
 10 11  2  0
 12 10  1  0
 13 12  1  0
 14 13  2  0
 15  1  1  0
 16 21  1  0
 16 15  1  0
 17 16  1  0
 18 19  1  0
 18 17  1  0
 19 20  1  0
 20 21  1  0
  2 22  1  0
  3 23  1  0
  8 24  1  0
  9 25  1  0
 12 26  1  0
 16 27  1  0
 17 28  1  0
 17 29  1  0
 18 30  1  0
 18 31  1  0
 19 32  1  0
 19 33  1  0
 20 34  1  0
 20 35  1  0
 21 36  1  0
 21 37  1  0
M  ISO  8  22  14  23  14  24  14  25  14  26   9  27  13  28  13  29  13
M  ISO  8  30  13  31  13  32  13  33  13  34  13  35  13  36  13  37  13
M  END
>  <minimizedAffinity>  (1) 
-6.49465084

>  <minimizedRMSD>  (1) 
1.67750168

$$$$
