
     RDKit          3D

 24 25  0  0  0  0  0  0  0  0999 V2000
   45.4440   35.1880   42.9260 C   0  0  0  0  0  0  0  0  0  0  0  0
   46.5820   35.0190   42.1010 C   0  0  0  0  0  0  0  0  0  0  0  0
   47.6310   34.2150   42.5910 C   0  0  0  0  0  0  0  0  0  0  0  0
   47.5170   33.6480   43.8000 N   0  0  0  0  0  0  0  0  0  0  0  0
   46.4090   33.8360   44.5590 C   0  0  0  0  0  0  0  0  0  0  0  0
   45.3920   34.5930   44.1260 N   0  0  0  0  0  0  0  0  0  0  0  0
   46.2280   33.2630   45.8480 N   0  0  0  0  0  0  0  0  0  0  0  0
   46.9510   32.2640   46.3610 C   0  0  0  0  0  0  0  0  0  0  0  0
   46.6580   31.8100   47.6370 C   0  0  0  0  0  0  0  0  0  0  0  0
   45.6430   32.3750   48.3680 C   0  0  0  0  0  0  0  0  0  0  0  0
   45.4410   31.9090   49.5180 O   0  0  0  0  0  0  0  0  0  0  0  0
   44.9570   33.3810   47.7880 N   0  0  0  0  0  0  0  0  0  0  0  0
   45.2270   33.8320   46.5520 C   0  0  0  0  0  0  0  0  0  0  0  0
   44.4710   34.7730   46.1970 O   0  0  0  0  0  0  0  0  0  0  0  0
   44.4550   35.9620   42.4350 O   0  0  0  0  0  0  0  0  0  0  0  0
   43.4110   35.2970   41.7110 C   0  0  0  0  0  0  0  0  0  0  0  0
   43.5310   35.6620   40.3650 F   0  0  0  0  0  0  0  0  0  0  0  0
   43.6810   33.9480   41.8450 F   0  0  0  0  0  0  0  0  0  0  0  0
   42.1700   35.5650   42.2170 F   0  0  0  0  0  0  0  0  0  0  0  0
   46.6454   35.4980   41.1128 H   0  0  0  0  0  0  0  0  0  0  0  0
   48.5356   34.0543   41.9861 H   0  0  0  0  0  0  0  0  0  0  0  0
   47.7663   31.8087   45.7796 H   0  0  0  0  0  0  0  0  0  0  0  0
   47.2459   30.9869   48.0693 H   0  0  0  0  0  0  0  0  0  0  0  0
   44.1916   33.8233   48.3167 H   0  0  0  0  0  0  0  0  0  0  0  0
  1  6  2  0
  2  3  2  0
  2  1  1  0
  3  4  1  0
  4  5  2  0
  5  7  1  0
  6  5  1  0
  7  8  1  0
  7 13  1  0
  8  9  2  0
  9 10  1  0
 10 11  2  0
 12 10  1  0
 13 12  1  0
 14 13  2  0
 15  1  1  0
 16 18  1  0
 16 19  1  0
 16 15  1  0
 17 16  1  0
  2 20  1  0
  3 21  1  0
  8 22  1  0
  9 23  1  0
 12 24  1  0
M  ISO  5  20  14  21  14  22  14  23  14  24   9
M  END
>  <minimizedAffinity>  (1) 
-6.17033195

>  <minimizedRMSD>  (1) 
1.10103655

$$$$
