
     RDKit          3D

 34 36  0  0  1  0  0  0  0  0999 V2000
   45.6770   34.2840   42.7770 C   0  0  0  0  0  0  0  0  0  0  0  0
   46.8560   34.0070   42.0270 C   0  0  0  0  0  0  0  0  0  0  0  0
   47.9210   33.3500   42.6390 C   0  0  0  0  0  0  0  0  0  0  0  0
   47.8100   32.9910   43.9240 N   0  0  0  0  0  0  0  0  0  0  0  0
   46.6850   33.2540   44.6380 C   0  0  0  0  0  0  0  0  0  0  0  0
   45.6390   33.8870   44.0800 N   0  0  0  0  0  0  0  0  0  0  0  0
   46.4900   32.9010   46.0050 N   0  0  0  0  0  0  0  0  0  0  0  0
   47.2790   32.0370   46.6610 C   0  0  0  0  0  0  0  0  0  0  0  0
   46.9760   31.7750   47.9980 C   0  0  0  0  0  0  0  0  0  0  0  0
   45.9080   32.3830   48.6130 C   0  0  0  0  0  0  0  0  0  0  0  0
   45.7030   32.0920   49.8190 O   0  0  0  0  0  0  0  0  0  0  0  0
   45.1570   33.2470   47.8740 N   0  0  0  0  0  0  0  0  0  0  0  0
   45.4400   33.5040   46.5920 C   0  0  0  0  0  0  0  0  0  0  0  0
   44.6460   34.3190   46.0760 O   0  0  0  0  0  0  0  0  0  0  0  0
   44.6500   34.9130   42.2010 O   0  0  0  0  0  0  0  0  0  0  0  0
   41.9420   33.9910   41.9310 N   0  0  0  0  0  0  0  0  0  0  0  0
   41.8600   35.1660   41.1480 C   0  0  0  0  0  0  0  0  0  0  0  0
   43.1200   35.7320   40.6290 C   0  0  0  0  0  0  0  0  0  0  0  0
   44.3550   34.8790   40.8450 C   0  0  2  0  0  0  0  0  0  0  0  0
   43.8610   33.4630   40.4840 C   0  0  0  0  0  0  0  0  0  0  0  0
   42.9950   33.0850   41.6560 C   0  0  0  0  0  0  0  0  0  0  0  0
   46.9249   34.3099   40.9718 H   0  0  0  0  0  0  0  0  0  0  0  0
   48.8393   33.1295   42.0750 H   0  0  0  0  0  0  0  0  0  0  0  0
   48.1327   31.5532   46.1639 H   0  0  0  0  0  0  0  0  0  0  0  0
   47.6011   31.0717   48.5677 H   0  0  0  0  0  0  0  0  0  0  0  0
   44.3510   33.7140   48.3135 H   0  0  0  0  0  0  0  0  0  0  0  0
   41.2579   33.8005   42.6771 H   0  0  0  0  0  0  0  0  0  0  0  0
   40.8913   35.6410   40.9335 H   0  0  0  0  0  0  0  0  0  0  0  0
   43.1607   36.7063   40.1201 H   0  0  0  0  0  0  0  0  0  0  0  0
   45.2378   35.1958   40.2703 H   0  0  0  0  0  0  0  0  0  0  0  0
   43.2775   33.4757   39.5516 H   0  0  0  0  0  0  0  0  0  0  0  0
   44.6831   32.7529   40.3114 H   0  0  0  0  0  0  0  0  0  0  0  0
   42.5534   32.0985   41.4515 H   0  0  0  0  0  0  0  0  0  0  0  0
   43.6492   33.0918   42.5403 H   0  0  0  0  0  0  0  0  0  0  0  0
  1  6  2  0
  2  3  2  0
  2  1  1  0
  3  4  1  0
  4  5  2  0
  5  7  1  0
  6  5  1  0
  7 13  1  0
  7  8  1  0
  8  9  2  0
  9 10  1  0
 10 11  2  0
 12 10  1  0
 13 12  1  0
 14 13  2  0
 15  1  1  0
 17 16  1  0
 18 19  1  0
 18 17  2  0
 19 15  1  0
 20 19  1  0
 20 21  1  0
 21 16  1  0
  2 22  1  0
  3 23  1  0
  8 24  1  0
  9 25  1  0
 12 26  1  0
 16 27  1  0
 17 28  1  0
 18 29  1  0
 19 30  1  6
 20 31  1  0
 20 32  1  0
 21 33  1  0
 21 34  1  0
M  ISO  8  22  14  23  14  24  14  25  14  26   9  28  13  29  13  30  13
M  ISO  4  31  13  32  13  33  13  34  13
M  END
>  <minimizedAffinity>  (1) 
-5.48521709

>  <minimizedRMSD>  (1) 
1.52121234

$$$$
