
     RDKit          3D

 25 26  0  0  0  0  0  0  0  0999 V2000
   45.7750   35.2430   42.7890 C   0  0  0  0  0  0  0  0  0  0  0  0
   46.9270   35.0120   42.0170 C   0  0  0  0  0  0  0  0  0  0  0  0
   47.8990   34.1420   42.5320 C   0  0  0  0  0  0  0  0  0  0  0  0
   47.6910   33.5710   43.7350 N   0  0  0  0  0  0  0  0  0  0  0  0
   46.5650   33.8190   44.4560 C   0  0  0  0  0  0  0  0  0  0  0  0
   45.6140   34.6440   43.9930 N   0  0  0  0  0  0  0  0  0  0  0  0
   46.2770   33.2530   45.7310 N   0  0  0  0  0  0  0  0  0  0  0  0
   46.9140   32.1920   46.2450 C   0  0  0  0  0  0  0  0  0  0  0  0
   46.5300   31.7480   47.5020 C   0  0  0  0  0  0  0  0  0  0  0  0
   45.5300   32.3670   48.2090 C   0  0  0  0  0  0  0  0  0  0  0  0
   45.2590   31.8910   49.3310 O   0  0  0  0  0  0  0  0  0  0  0  0
   44.9400   33.4270   47.6240 N   0  0  0  0  0  0  0  0  0  0  0  0
   45.3000   33.8690   46.4060 C   0  0  0  0  0  0  0  0  0  0  0  0
   44.6340   34.8710   46.0230 O   0  0  0  0  0  0  0  0  0  0  0  0
   44.8460   36.0750   42.2930 O   0  0  0  0  0  0  0  0  0  0  0  0
   43.5860   35.5700   41.9930 C   0  0  0  0  0  0  0  0  0  0  0  0
   42.3050   35.4410   42.5970 N   0  0  0  0  0  0  0  0  0  0  0  0
   43.8270   35.1520   40.8290 O   0  0  0  0  0  0  0  0  0  0  0  0
   47.0618   35.4984   41.0396 H   0  0  0  0  0  0  0  0  0  0  0  0
   48.8162   33.9291   41.9633 H   0  0  0  0  0  0  0  0  0  0  0  0
   47.7171   31.6883   45.6871 H   0  0  0  0  0  0  0  0  0  0  0  0
   47.0396   30.8785   47.9427 H   0  0  0  0  0  0  0  0  0  0  0  0
   44.1864   33.9165   48.1273 H   0  0  0  0  0  0  0  0  0  0  0  0
   41.5352   34.9917   42.0809 H   0  0  0  0  0  0  0  0  0  0  0  0
   42.1470   35.7969   43.5506 H   0  0  0  0  0  0  0  0  0  0  0  0
  1  6  2  0
  2  3  2  0
  2  1  1  0
  3  4  1  0
  4  5  2  0
  5  7  1  0
  6  5  1  0
  7  8  1  0
  7 13  1  0
  8  9  2  0
  9 10  1  0
 10 11  2  0
 12 10  1  0
 13 12  1  0
 14 13  2  0
 15  1  1  0
 16 15  1  0
 16 17  1  0
 18 16  2  0
  2 19  1  0
  3 20  1  0
  8 21  1  0
  9 22  1  0
 12 23  1  0
 17 24  1  0
 17 25  1  0
M  ISO  5  19  14  20  14  21  14  22  14  23   9
M  END
>  <minimizedAffinity>  (1) 
-6.21651077

>  <minimizedRMSD>  (1) 
1.17819226

$$$$
