
     RDKit          3D

 28 30  0  0  0  0  0  0  0  0999 V2000
   45.6630   35.0860   42.8750 C   0  0  0  0  0  0  0  0  0  0  0  0
   46.8390   34.8780   42.0820 C   0  0  0  0  0  0  0  0  0  0  0  0
   47.8620   34.0570   42.6140 C   0  0  0  0  0  0  0  0  0  0  0  0
   47.6970   33.5040   43.8350 N   0  0  0  0  0  0  0  0  0  0  0  0
   46.5650   33.7280   44.5550 C   0  0  0  0  0  0  0  0  0  0  0  0
   45.5840   34.4960   44.0820 N   0  0  0  0  0  0  0  0  0  0  0  0
   46.3330   33.1800   45.8490 N   0  0  0  0  0  0  0  0  0  0  0  0
   47.0340   32.1910   46.4080 C   0  0  0  0  0  0  0  0  0  0  0  0
   46.6900   31.7640   47.6840 C   0  0  0  0  0  0  0  0  0  0  0  0
   45.6480   32.3470   48.3610 C   0  0  0  0  0  0  0  0  0  0  0  0
   45.3930   31.9100   49.5110 O   0  0  0  0  0  0  0  0  0  0  0  0
   44.9740   33.3470   47.7370 N   0  0  0  0  0  0  0  0  0  0  0  0
   45.3030   33.7640   46.5040 C   0  0  0  0  0  0  0  0  0  0  0  0
   44.5660   34.6990   46.0940 O   0  0  0  0  0  0  0  0  0  0  0  0
   44.7180   35.8620   42.3530 O   0  0  0  0  0  0  0  0  0  0  0  0
   43.4280   35.4190   42.0260 C   0  0  0  0  0  0  0  0  0  0  0  0
   43.0770   35.3440   40.5320 C   0  0  0  0  0  0  0  0  0  0  0  0
   43.2590   34.1120   41.3160 C   0  0  0  0  0  0  0  0  0  0  0  0
   46.9432   35.3423   41.0902 H   0  0  0  0  0  0  0  0  0  0  0  0
   48.7813   33.8714   42.0392 H   0  0  0  0  0  0  0  0  0  0  0  0
   47.8696   31.7224   45.8674 H   0  0  0  0  0  0  0  0  0  0  0  0
   47.2587   30.9499   48.1571 H   0  0  0  0  0  0  0  0  0  0  0  0
   44.1870   33.7990   48.2240 H   0  0  0  0  0  0  0  0  0  0  0  0
   42.9965   35.8711   42.9312 H   0  0  0  0  0  0  0  0  0  0  0  0
   43.8225   35.6310   39.7758 H   0  0  0  0  0  0  0  0  0  0  0  0
   42.2774   35.7535   39.8972 H   0  0  0  0  0  0  0  0  0  0  0  0
   42.3886   33.4788   41.5430 H   0  0  0  0  0  0  0  0  0  0  0  0
   43.8904   33.2188   41.1995 H   0  0  0  0  0  0  0  0  0  0  0  0
  1  6  2  0
  2  3  2  0
  2  1  1  0
  3  4  1  0
  4  5  2  0
  5  7  1  0
  6  5  1  0
  7  8  1  0
  7 13  1  0
  8  9  2  0
  9 10  1  0
 10 11  2  0
 12 10  1  0
 13 12  1  0
 14 13  2  0
 15  1  1  0
 16 15  1  0
 17 18  1  0
 17 16  1  0
 18 16  1  0
  2 19  1  0
  3 20  1  0
  8 21  1  0
  9 22  1  0
 12 23  1  0
 16 24  1  0
 17 25  1  0
 17 26  1  0
 18 27  1  0
 18 28  1  0
M  ISO  8  19  14  20  14  21  14  22  14  23   9  24  13  25  13  26  13
M  ISO  2  27  13  28  13
M  END
>  <minimizedAffinity>  (1) 
-5.83912611

>  <minimizedRMSD>  (1) 
2.04632759

$$$$
