
     RDKit          3D

 30 31  0  0  0  0  0  0  0  0999 V2000
   45.5740   35.2160   42.9260 C   0  0  0  0  0  0  0  0  0  0  0  0
   46.7190   35.0330   42.1140 C   0  0  0  0  0  0  0  0  0  0  0  0
   47.7180   34.2220   42.6040 C   0  0  0  0  0  0  0  0  0  0  0  0
   47.5770   33.6490   43.8010 N   0  0  0  0  0  0  0  0  0  0  0  0
   46.4860   33.8340   44.5560 C   0  0  0  0  0  0  0  0  0  0  0  0
   45.4900   34.6130   44.1210 N   0  0  0  0  0  0  0  0  0  0  0  0
   46.2590   33.2660   45.8400 N   0  0  0  0  0  0  0  0  0  0  0  0
   46.9810   32.2440   46.3480 C   0  0  0  0  0  0  0  0  0  0  0  0
   46.6450   31.7890   47.6210 C   0  0  0  0  0  0  0  0  0  0  0  0
   45.6190   32.3550   48.3370 C   0  0  0  0  0  0  0  0  0  0  0  0
   45.3870   31.8850   49.4650 O   0  0  0  0  0  0  0  0  0  0  0  0
   44.9370   33.3860   47.7490 N   0  0  0  0  0  0  0  0  0  0  0  0
   45.2500   33.8300   46.5300 C   0  0  0  0  0  0  0  0  0  0  0  0
   44.5180   34.7810   46.1530 O   0  0  0  0  0  0  0  0  0  0  0  0
   44.6050   36.0230   42.4090 O   0  0  0  0  0  0  0  0  0  0  0  0
   43.5820   35.5990   41.6390 C   0  0  0  0  0  0  0  0  0  0  0  0
   42.3270   35.3000   41.9090 O   0  0  0  0  0  0  0  0  0  0  0  0
   43.5910   35.3480   40.1910 N   0  0  0  0  0  0  0  0  0  0  0  0
   42.4980   35.1810   39.3240 C   0  0  0  0  0  0  0  0  0  0  0  0
   41.2940   35.2100   39.6310 N   0  0  0  0  0  0  0  0  0  0  0  0
   42.7040   34.9480   37.9130 N   0  0  0  0  0  0  0  0  0  0  0  0
   40.6770   35.3260   40.3920 H   0  0  0  0  0  0  0  0  0  0  0  0
   46.8071   35.5191   41.1312 H   0  0  0  0  0  0  0  0  0  0  0  0
   48.6282   34.0472   42.0115 H   0  0  0  0  0  0  0  0  0  0  0  0
   47.8037   31.7879   45.7778 H   0  0  0  0  0  0  0  0  0  0  0  0
   47.2143   30.9577   48.0626 H   0  0  0  0  0  0  0  0  0  0  0  0
   44.1618   33.8308   48.2609 H   0  0  0  0  0  0  0  0  0  0  0  0
   44.5216   35.2864   39.7539 H   0  0  0  0  0  0  0  0  0  0  0  0
   43.6602   34.9021   37.5328 H   0  0  0  0  0  0  0  0  0  0  0  0
   41.8947   34.8278   37.2873 H   0  0  0  0  0  0  0  0  0  0  0  0
  1  6  2  0
  2  3  2  0
  2  1  1  0
  3  4  1  0
  4  5  2  0
  5  7  1  0
  6  5  1  0
  7  8  1  0
  7 13  1  0
  8  9  2  0
  9 10  1  0
 10 11  2  0
 12 10  1  0
 13 12  1  0
 14 13  2  0
 15  1  1  0
 16 17  2  0
 16 15  1  0
 18 16  1  0
 19 20  2  0
 19 18  1  0
 20 22  1  0
 21 19  1  0
  2 23  1  0
  3 24  1  0
  8 25  1  0
  9 26  1  0
 12 27  1  0
 18 28  1  0
 21 29  1  0
 21 30  1  0
M  ISO  5  23  14  24  14  25  14  26  14  27   9
M  END
>  <minimizedAffinity>  (1) 
-7.24778557

>  <minimizedRMSD>  (1) 
0.380333394

$$$$
