
     RDKit          3D

 23 24  0  0  0  0  0  0  0  0999 V2000
   45.5990   35.2850   42.9020 C   0  0  0  0  0  0  0  0  0  0  0  0
   46.7330   35.0850   42.0880 C   0  0  0  0  0  0  0  0  0  0  0  0
   47.7280   34.2330   42.5760 C   0  0  0  0  0  0  0  0  0  0  0  0
   47.5770   33.6470   43.7750 N   0  0  0  0  0  0  0  0  0  0  0  0
   46.4880   33.8530   44.5300 C   0  0  0  0  0  0  0  0  0  0  0  0
   45.5190   34.6580   44.0990 N   0  0  0  0  0  0  0  0  0  0  0  0
   46.2440   33.2760   45.8080 N   0  0  0  0  0  0  0  0  0  0  0  0
   46.9420   32.2290   46.2990 C   0  0  0  0  0  0  0  0  0  0  0  0
   46.6170   31.7490   47.5580 C   0  0  0  0  0  0  0  0  0  0  0  0
   45.5980   32.3340   48.2890 C   0  0  0  0  0  0  0  0  0  0  0  0
   45.3430   31.8650   49.4180 O   0  0  0  0  0  0  0  0  0  0  0  0
   44.9460   33.3820   47.7220 N   0  0  0  0  0  0  0  0  0  0  0  0
   45.2580   33.8490   46.5060 C   0  0  0  0  0  0  0  0  0  0  0  0
   44.5500   34.8220   46.1440 O   0  0  0  0  0  0  0  0  0  0  0  0
   44.6220   36.1150   42.4360 O   0  0  0  0  0  0  0  0  0  0  0  0
   43.6820   35.6010   41.5440 C   0  0  0  0  0  0  0  0  0  0  0  0
   42.5140   35.1630   41.7790 O   0  0  0  0  0  0  0  0  0  0  0  0
   46.8305   35.5788   41.1099 H   0  0  0  0  0  0  0  0  0  0  0  0
   48.6324   34.0430   41.9794 H   0  0  0  0  0  0  0  0  0  0  0  0
   47.7503   31.7676   45.7127 H   0  0  0  0  0  0  0  0  0  0  0  0
   47.1725   30.8978   47.9787 H   0  0  0  0  0  0  0  0  0  0  0  0
   44.1836   33.8343   48.2464 H   0  0  0  0  0  0  0  0  0  0  0  0
   43.9961   35.5708   40.4902 H   0  0  0  0  0  0  0  0  0  0  0  0
  1  6  2  0
  2  3  2  0
  2  1  1  0
  3  4  1  0
  4  5  2  0
  5  7  1  0
  6  5  1  0
  7  8  1  0
  7 13  1  0
  8  9  2  0
  9 10  1  0
 10 11  2  0
 12 10  1  0
 13 12  1  0
 14 13  2  0
 15  1  1  0
 16 17  2  0
 16 15  1  0
  2 18  1  0
  3 19  1  0
  8 20  1  0
  9 21  1  0
 12 22  1  0
 16 23  1  0
M  ISO  6  18  14  19  14  20  14  21  14  22   9  23   6
M  END
>  <minimizedAffinity>  (1) 
-5.68579578

>  <minimizedRMSD>  (1) 
1.12966919

$$$$
