
     RDKit          3D

 37 40  0  0  0  0  0  0  0  0999 V2000
   44.5060   34.6520   41.6150 C   0  0  0  0  0  0  0  0  0  0  0  0
   45.1960   33.9820   40.5720 C   0  0  0  0  0  0  0  0  0  0  0  0
   46.0540   32.9670   40.9270 C   0  0  0  0  0  0  0  0  0  0  0  0
   46.2050   32.6550   42.2220 N   0  0  0  0  0  0  0  0  0  0  0  0
   45.5480   33.2980   43.1890 C   0  0  0  0  0  0  0  0  0  0  0  0
   44.7160   34.2760   42.8800 N   0  0  0  0  0  0  0  0  0  0  0  0
   45.6480   33.0370   44.5880 N   0  0  0  0  0  0  0  0  0  0  0  0
   46.1890   31.9200   45.1010 C   0  0  0  0  0  0  0  0  0  0  0  0
   46.2510   31.7490   46.4700 C   0  0  0  0  0  0  0  0  0  0  0  0
   45.7460   32.7510   47.2990 C   0  0  0  0  0  0  0  0  0  0  0  0
   45.8000   32.6000   48.5430 O   0  0  0  0  0  0  0  0  0  0  0  0
   45.2100   33.8640   46.7090 N   0  0  0  0  0  0  0  0  0  0  0  0
   45.1680   33.9910   45.3780 C   0  0  0  0  0  0  0  0  0  0  0  0
   44.6420   35.0790   45.0080 O   0  0  0  0  0  0  0  0  0  0  0  0
   43.6640   35.6420   41.2260 O   0  0  0  0  0  0  0  0  0  0  0  0
   42.3330   35.5460   41.1240 C   0  0  0  0  0  0  0  0  0  0  0  0
   41.4350   35.6070   42.0540 O   0  0  0  0  0  0  0  0  0  0  0  0
   41.5150   35.3460   39.8460 C   0  0  0  0  0  0  0  0  0  0  0  0
   41.8870   35.9790   38.7330 N   0  0  0  0  0  0  0  0  0  0  0  0
   41.2700   35.8820   37.5740 C   0  0  0  0  0  0  0  0  0  0  0  0
   40.1820   35.1040   37.4390 N   0  0  0  0  0  0  0  0  0  0  0  0
   39.7300   34.4270   38.5010 C   0  0  0  0  0  0  0  0  0  0  0  0
   38.6380   33.6280   38.3980 C   0  0  0  0  0  0  0  0  0  0  0  0
   38.1320   32.8970   39.4740 C   0  0  0  0  0  0  0  0  0  0  0  0
   38.8420   33.0500   40.6730 C   0  0  0  0  0  0  0  0  0  0  0  0
   39.9420   33.8650   40.7460 C   0  0  0  0  0  0  0  0  0  0  0  0
   40.4100   34.5670   39.6740 C   0  0  0  0  0  0  0  0  0  0  0  0
   45.0503   34.2637   39.5187 H   0  0  0  0  0  0  0  0  0  0  0  0
   46.6113   32.4162   40.1550 H   0  0  0  0  0  0  0  0  0  0  0  0
   46.5826   31.1415   44.4310 H   0  0  0  0  0  0  0  0  0  0  0  0
   46.6915   30.8373   46.8999 H   0  0  0  0  0  0  0  0  0  0  0  0
   44.8321   34.6175   47.3009 H   0  0  0  0  0  0  0  0  0  0  0  0
   41.6487   36.4434   36.7071 H   0  0  0  0  0  0  0  0  0  0  0  0
   38.1300   33.5532   37.4252 H   0  0  0  0  0  0  0  0  0  0  0  0
   37.2455   32.2514   39.3879 H   0  0  0  0  0  0  0  0  0  0  0  0
   38.5109   32.5069   41.5705 H   0  0  0  0  0  0  0  0  0  0  0  0
   40.4683   33.9565   41.7076 H   0  0  0  0  0  0  0  0  0  0  0  0
  1  6  2  0
  2  3  2  0
  2  1  1  0
  3  4  1  0
  4  5  2  0
  5  7  1  0
  6  5  1  0
  7  8  1  0
  7 13  1  0
  8  9  2  0
  9 10  1  0
 10 11  2  0
 12 10  1  0
 13 12  1  0
 14 13  2  0
 15  1  1  0
 16 15  1  0
 16 17  2  0
 18 16  1  0
 19 18  2  0
 20 19  1  0
 21 20  2  0
 21 22  1  0
 22 27  2  0
 23 22  1  0
 23 24  2  0
 24 25  1  0
 25 26  2  0
 27 18  1  0
 27 26  1  0
  2 28  1  0
  3 29  1  0
  8 30  1  0
  9 31  1  0
 12 32  1  0
 20 33  1  0
 23 34  1  0
 24 35  1  0
 25 36  1  0
 26 37  1  0
M  ISO  8  28  14  29  14  30  14  31  14  32   9  33  14  34  14  35  14
M  ISO  2  36  14  37  14
M  END
>  <minimizedAffinity>  (1) 
-7.28748989

>  <minimizedRMSD>  (1) 
2.41062498

$$$$
