
     RDKit          3D

 30 32  0  0  0  0  0  0  0  0999 V2000
   45.4510   35.1730   42.8430 C   0  0  0  0  0  0  0  0  0  0  0  0
   46.5800   34.9860   42.0040 C   0  0  0  0  0  0  0  0  0  0  0  0
   47.5970   34.2000   42.4920 C   0  0  0  0  0  0  0  0  0  0  0  0
   47.5040   33.6490   43.7010 N   0  0  0  0  0  0  0  0  0  0  0  0
   46.4210   33.8420   44.4820 C   0  0  0  0  0  0  0  0  0  0  0  0
   45.4150   34.5930   44.0510 N   0  0  0  0  0  0  0  0  0  0  0  0
   46.2420   33.2900   45.7830 N   0  0  0  0  0  0  0  0  0  0  0  0
   46.9860   32.2900   46.2900 C   0  0  0  0  0  0  0  0  0  0  0  0
   46.6860   31.8510   47.5710 C   0  0  0  0  0  0  0  0  0  0  0  0
   45.6660   32.4110   48.3050 C   0  0  0  0  0  0  0  0  0  0  0  0
   45.4400   31.9760   49.4520 O   0  0  0  0  0  0  0  0  0  0  0  0
   44.9620   33.4170   47.7190 N   0  0  0  0  0  0  0  0  0  0  0  0
   45.2400   33.8510   46.4840 C   0  0  0  0  0  0  0  0  0  0  0  0
   44.4840   34.7890   46.1090 O   0  0  0  0  0  0  0  0  0  0  0  0
   44.4570   35.9510   42.3380 O   0  0  0  0  0  0  0  0  0  0  0  0
   43.4000   35.4740   41.6380 C   0  0  0  0  0  0  0  0  0  0  0  0
   42.1260   35.3370   41.9460 O   0  0  0  0  0  0  0  0  0  0  0  0
   42.7820   34.5080   38.1410 N   0  0  0  0  0  0  0  0  0  0  0  0
   42.5800   35.3400   39.1660 N   0  0  0  0  0  0  0  0  0  0  0  0
   43.2540   34.9240   40.2390 C   0  0  0  0  0  0  0  0  0  0  0  0
   43.8740   33.7760   39.7700 C   0  0  0  0  0  0  0  0  0  0  0  0
   43.5900   33.4970   38.4570 C   0  0  0  0  0  0  0  0  0  0  0  0
   46.6389   35.4491   41.0080 H   0  0  0  0  0  0  0  0  0  0  0  0
   48.4938   34.0250   41.8796 H   0  0  0  0  0  0  0  0  0  0  0  0
   47.8030   31.8369   45.7093 H   0  0  0  0  0  0  0  0  0  0  0  0
   47.2782   31.0350   48.0109 H   0  0  0  0  0  0  0  0  0  0  0  0
   44.1918   33.8579   48.2417 H   0  0  0  0  0  0  0  0  0  0  0  0
   42.3601   34.6340   37.2099 H   0  0  0  0  0  0  0  0  0  0  0  0
   44.5306   33.1490   40.3910 H   0  0  0  0  0  0  0  0  0  0  0  0
   43.9370   32.6612   37.8318 H   0  0  0  0  0  0  0  0  0  0  0  0
  1  6  2  0
  2  3  2  0
  2  1  1  0
  3  4  1  0
  4  5  2  0
  5  7  1  0
  6  5  1  0
  7  8  1  0
  7 13  1  0
  8  9  2  0
  9 10  1  0
 10 11  2  0
 12 10  1  0
 13 12  1  0
 14 13  2  0
 15  1  1  0
 16 17  2  0
 16 15  1  0
 18 22  1  0
 18 19  1  0
 19 20  2  0
 20 16  1  0
 21 20  1  0
 22 21  2  0
  2 23  1  0
  3 24  1  0
  8 25  1  0
  9 26  1  0
 12 27  1  0
 18 28  1  0
 21 29  1  0
 22 30  1  0
M  ISO  8  23  14  24  14  25  14  26  14  27   9  28   9  29  14  30  14
M  END
>  <minimizedAffinity>  (1) 
-6.5961318

>  <minimizedRMSD>  (1) 
0.78544271

$$$$
