
     RDKit          3D

 36 38  0  0  0  0  0  0  0  0999 V2000
   46.2740   34.6840   42.9640 C   0  0  0  0  0  0  0  0  0  0  0  0
   47.4460   34.3300   42.2480 C   0  0  0  0  0  0  0  0  0  0  0  0
   48.2890   33.4040   42.8260 C   0  0  0  0  0  0  0  0  0  0  0  0
   47.9730   32.8860   44.0180 N   0  0  0  0  0  0  0  0  0  0  0  0
   46.8500   33.2370   44.6840 C   0  0  0  0  0  0  0  0  0  0  0  0
   46.0160   34.1270   44.1560 N   0  0  0  0  0  0  0  0  0  0  0  0
   46.4610   32.7360   45.9510 N   0  0  0  0  0  0  0  0  0  0  0  0
   46.9900   31.6370   46.5290 C   0  0  0  0  0  0  0  0  0  0  0  0
   46.5170   31.2550   47.7780 C   0  0  0  0  0  0  0  0  0  0  0  0
   45.5190   31.9980   48.4080 C   0  0  0  0  0  0  0  0  0  0  0  0
   45.1240   31.6170   49.5310 O   0  0  0  0  0  0  0  0  0  0  0  0
   45.0400   33.0920   47.7570 N   0  0  0  0  0  0  0  0  0  0  0  0
   45.4970   33.4590   46.5540 C   0  0  0  0  0  0  0  0  0  0  0  0
   44.9400   34.4920   46.1080 O   0  0  0  0  0  0  0  0  0  0  0  0
   45.4680   35.5970   42.3570 O   0  0  0  0  0  0  0  0  0  0  0  0
   44.1180   35.5800   42.4030 C   0  0  0  0  0  0  0  0  0  0  0  0
   43.2790   35.9370   43.3500 O   0  0  0  0  0  0  0  0  0  0  0  0
   40.9890   34.4300   39.6560 C   0  0  0  0  0  0  0  0  0  0  0  0
   42.2940   34.1780   39.3210 C   0  0  0  0  0  0  0  0  0  0  0  0
   43.3390   34.5380   40.1740 C   0  0  0  0  0  0  0  0  0  0  0  0
   43.0980   35.1520   41.3740 C   0  0  0  0  0  0  0  0  0  0  0  0
   41.7480   35.3590   41.6150 C   0  0  0  0  0  0  0  0  0  0  0  0
   40.6590   35.0430   40.8410 C   0  0  0  0  0  0  0  0  0  0  0  0
   39.7030   33.9690   38.5660 S   0  0  0  0  0  0  0  0  0  0  0  0
   39.7070   34.8710   37.3410 O   0  0  0  0  0  0  0  0  0  0  0  0
   38.3650   34.0670   39.2400 O   0  0  0  0  0  0  0  0  0  0  0  0
   47.6739   34.7769   41.2691 H   0  0  0  0  0  0  0  0  0  0  0  0
   49.2112   33.0948   42.3123 H   0  0  0  0  0  0  0  0  0  0  0  0
   47.7766   31.0578   46.0233 H   0  0  0  0  0  0  0  0  0  0  0  0
   46.9310   30.3635   48.2718 H   0  0  0  0  0  0  0  0  0  0  0  0
   44.3026   33.6555   48.2039 H   0  0  0  0  0  0  0  0  0  0  0  0
   42.5216   33.6842   38.3648 H   0  0  0  0  0  0  0  0  0  0  0  0
   44.3761   34.3242   39.8763 H   0  0  0  0  0  0  0  0  0  0  0  0
   41.5145   35.8507   42.5709 H   0  0  0  0  0  0  0  0  0  0  0  0
   39.6229   35.2594   41.1403 H   0  0  0  0  0  0  0  0  0  0  0  0
   39.9183   32.6695   38.1892 H   0  0  0  0  0  0  0  0  0  0  0  0
  1  6  2  0
  2  3  2  0
  2  1  1  0
  3  4  1  0
  4  5  2  0
  5  7  1  0
  6  5  1  0
  7  8  1  0
  7 13  1  0
  8  9  2  0
  9 10  1  0
 10 11  2  0
 12 10  1  0
 13 12  1  0
 14 13  2  0
 15 16  1  0
 15  1  1  0
 16 17  2  0
 18 23  2  0
 19 18  1  0
 19 20  2  0
 20 21  1  0
 21 22  2  0
 21 16  1  0
 23 22  1  0
 24 26  2  0
 24 18  1  0
 25 24  2  0
  2 27  1  0
  3 28  1  0
  8 29  1  0
  9 30  1  0
 12 31  1  0
 19 32  1  0
 20 33  1  0
 22 34  1  0
 23 35  1  0
 24 36  1  0
M  ISO  8  27  14  28  14  29  14  30  14  31   9  32  14  33  14  34  14
M  ISO  2  35  14  36  11
M  END
>  <minimizedAffinity>  (1) 
-6.71636105

>  <minimizedRMSD>  (1) 
2.46266961

$$$$
