
     RDKit          3D

 30 32  0  0  0  0  0  0  0  0999 V2000
   45.4680   35.1750   42.8120 C   0  0  0  0  0  0  0  0  0  0  0  0
   46.5970   34.9900   41.9790 C   0  0  0  0  0  0  0  0  0  0  0  0
   47.6300   34.2040   42.4550 C   0  0  0  0  0  0  0  0  0  0  0  0
   47.5210   33.6530   43.6730 N   0  0  0  0  0  0  0  0  0  0  0  0
   46.4340   33.8430   44.4520 C   0  0  0  0  0  0  0  0  0  0  0  0
   45.4200   34.5990   44.0200 N   0  0  0  0  0  0  0  0  0  0  0  0
   46.2420   33.3020   45.7540 N   0  0  0  0  0  0  0  0  0  0  0  0
   46.9830   32.3130   46.2750 C   0  0  0  0  0  0  0  0  0  0  0  0
   46.7220   31.8560   47.5480 C   0  0  0  0  0  0  0  0  0  0  0  0
   45.6860   32.4290   48.2820 C   0  0  0  0  0  0  0  0  0  0  0  0
   45.4560   32.0090   49.4340 O   0  0  0  0  0  0  0  0  0  0  0  0
   44.9710   33.4340   47.6890 N   0  0  0  0  0  0  0  0  0  0  0  0
   45.2480   33.8580   46.4520 C   0  0  0  0  0  0  0  0  0  0  0  0
   44.4890   34.7890   46.0680 O   0  0  0  0  0  0  0  0  0  0  0  0
   44.4840   35.9520   42.3010 O   0  0  0  0  0  0  0  0  0  0  0  0
   43.3890   35.4880   41.6550 C   0  0  0  0  0  0  0  0  0  0  0  0
   42.1280   35.3360   42.0210 O   0  0  0  0  0  0  0  0  0  0  0  0
   43.2290   34.9770   40.2390 C   0  0  0  0  0  0  0  0  0  0  0  0
   43.8330   33.7970   39.7900 C   0  0  0  0  0  0  0  0  0  0  0  0
   43.5780   33.4830   38.4820 C   0  0  0  0  0  0  0  0  0  0  0  0
   42.7940   34.5100   38.1330 N   0  0  0  0  0  0  0  0  0  0  0  0
   42.5970   35.3510   39.1220 N   0  0  0  0  0  0  0  0  0  0  0  0
   46.6510   35.4567   40.9844 H   0  0  0  0  0  0  0  0  0  0  0  0
   48.5283   34.0330   41.8436 H   0  0  0  0  0  0  0  0  0  0  0  0
   47.7984   31.8672   45.6864 H   0  0  0  0  0  0  0  0  0  0  0  0
   47.3265   31.0455   47.9812 H   0  0  0  0  0  0  0  0  0  0  0  0
   44.1993   33.8751   48.2094 H   0  0  0  0  0  0  0  0  0  0  0  0
   44.4637   33.1704   40.4378 H   0  0  0  0  0  0  0  0  0  0  0  0
   43.9217   32.6257   37.8846 H   0  0  0  0  0  0  0  0  0  0  0  0
   42.3900   34.6276   37.1929 H   0  0  0  0  0  0  0  0  0  0  0  0
  1  6  2  0
  2  3  2  0
  2  1  1  0
  3  4  1  0
  4  5  2  0
  5  7  1  0
  6  5  1  0
  7  8  1  0
  7 13  1  0
  8  9  2  0
  9 10  1  0
 10 11  2  0
 12 10  1  0
 13 12  1  0
 14 13  2  0
 15  1  1  0
 16 17  2  0
 16 15  1  0
 18 16  1  0
 19 18  1  0
 20 19  2  0
 21 20  1  0
 21 22  1  0
 22 18  2  0
  2 23  1  0
  3 24  1  0
  8 25  1  0
  9 26  1  0
 12 27  1  0
 19 28  1  0
 20 29  1  0
 21 30  1  0
M  ISO  8  23  14  24  14  25  14  26  14  27   9  28  14  29  14  30   9
M  END
>  <minimizedAffinity>  (1) 
-6.56100702

>  <minimizedRMSD>  (1) 
1.07271218

$$$$
