
     RDKit          3D

 25 26  0  0  0  0  0  0  0  0999 V2000
   45.5930   35.2570   42.8960 C   0  0  0  0  0  0  0  0  0  0  0  0
   46.7280   35.0560   42.0860 C   0  0  0  0  0  0  0  0  0  0  0  0
   47.7170   34.2250   42.5770 C   0  0  0  0  0  0  0  0  0  0  0  0
   47.5740   33.6510   43.7740 N   0  0  0  0  0  0  0  0  0  0  0  0
   46.4850   33.8570   44.5270 C   0  0  0  0  0  0  0  0  0  0  0  0
   45.5100   34.6510   44.0880 N   0  0  0  0  0  0  0  0  0  0  0  0
   46.2530   33.2870   45.8100 N   0  0  0  0  0  0  0  0  0  0  0  0
   46.9670   32.2530   46.3200 C   0  0  0  0  0  0  0  0  0  0  0  0
   46.6320   31.7960   47.5810 C   0  0  0  0  0  0  0  0  0  0  0  0
   45.6060   32.3710   48.3010 C   0  0  0  0  0  0  0  0  0  0  0  0
   45.3760   31.8910   49.4320 O   0  0  0  0  0  0  0  0  0  0  0  0
   44.9400   33.3960   47.7300 N   0  0  0  0  0  0  0  0  0  0  0  0
   45.2490   33.8580   46.5010 C   0  0  0  0  0  0  0  0  0  0  0  0
   44.5290   34.8130   46.1290 O   0  0  0  0  0  0  0  0  0  0  0  0
   44.6150   36.0750   42.4140 O   0  0  0  0  0  0  0  0  0  0  0  0
   43.6580   35.6280   41.5340 C   0  0  0  0  0  0  0  0  0  0  0  0
   42.4090   35.3390   41.7350 O   0  0  0  0  0  0  0  0  0  0  0  0
   43.4370   35.2660   40.1250 N   0  0  0  0  0  0  0  0  0  0  0  0
   46.8231   35.5406   41.1031 H   0  0  0  0  0  0  0  0  0  0  0  0
   48.6224   34.0364   41.9814 H   0  0  0  0  0  0  0  0  0  0  0  0
   47.7865   31.7926   45.7486 H   0  0  0  0  0  0  0  0  0  0  0  0
   47.1945   30.9579   48.0183 H   0  0  0  0  0  0  0  0  0  0  0  0
   44.1699   33.8405   48.2499 H   0  0  0  0  0  0  0  0  0  0  0  0
   44.2125   35.3270   39.4499 H   0  0  0  0  0  0  0  0  0  0  0  0
   42.5068   34.9516   39.8138 H   0  0  0  0  0  0  0  0  0  0  0  0
  1  6  2  0
  2  3  2  0
  2  1  1  0
  3  4  1  0
  4  5  2  0
  5  7  1  0
  6  5  1  0
  7  8  1  0
  7 13  1  0
  8  9  2  0
  9 10  1  0
 10 11  2  0
 12 10  1  0
 13 12  1  0
 14 13  2  0
 15  1  1  0
 16 17  2  0
 16 15  1  0
 18 16  1  0
  2 19  1  0
  3 20  1  0
  8 21  1  0
  9 22  1  0
 12 23  1  0
 18 24  1  0
 18 25  1  0
M  ISO  5  19  14  20  14  21  14  22  14  23   9
M  END
>  <minimizedAffinity>  (1) 
-6.18753147

>  <minimizedRMSD>  (1) 
0.118358664

$$$$
