
     RDKit          3D

 30 32  0  0  0  0  0  0  0  0999 V2000
   45.5470   35.1740   42.8380 C   0  0  0  0  0  0  0  0  0  0  0  0
   46.6750   34.9590   42.0060 C   0  0  0  0  0  0  0  0  0  0  0  0
   47.6820   34.1470   42.4940 C   0  0  0  0  0  0  0  0  0  0  0  0
   47.5510   33.6050   43.7170 N   0  0  0  0  0  0  0  0  0  0  0  0
   46.4830   33.8190   44.4830 C   0  0  0  0  0  0  0  0  0  0  0  0
   45.4840   34.5990   44.0490 N   0  0  0  0  0  0  0  0  0  0  0  0
   46.2630   33.2870   45.7910 N   0  0  0  0  0  0  0  0  0  0  0  0
   47.0060   32.2980   46.3060 C   0  0  0  0  0  0  0  0  0  0  0  0
   46.7370   31.8280   47.5850 C   0  0  0  0  0  0  0  0  0  0  0  0
   45.6870   32.4100   48.2980 C   0  0  0  0  0  0  0  0  0  0  0  0
   45.4500   31.9800   49.4490 O   0  0  0  0  0  0  0  0  0  0  0  0
   44.9800   33.4070   47.7090 N   0  0  0  0  0  0  0  0  0  0  0  0
   45.2600   33.8420   46.4720 C   0  0  0  0  0  0  0  0  0  0  0  0
   44.5140   34.7630   46.0820 O   0  0  0  0  0  0  0  0  0  0  0  0
   44.5810   35.9720   42.3220 O   0  0  0  0  0  0  0  0  0  0  0  0
   43.4390   35.5270   41.7480 C   0  0  0  0  0  0  0  0  0  0  0  0
   42.1730   35.5220   42.1370 O   0  0  0  0  0  0  0  0  0  0  0  0
   43.2260   34.8640   40.4020 C   0  0  0  0  0  0  0  0  0  0  0  0
   42.1450   35.1570   39.5850 C   0  0  0  0  0  0  0  0  0  0  0  0
   42.1180   34.4600   38.4060 C   0  0  0  0  0  0  0  0  0  0  0  0
   43.2600   33.7150   38.5540 C   0  0  0  0  0  0  0  0  0  0  0  0
   43.8360   33.9720   39.6690 O   0  0  0  0  0  0  0  0  0  0  0  0
   46.7461   35.4207   41.0101 H   0  0  0  0  0  0  0  0  0  0  0  0
   48.5788   33.9471   41.8892 H   0  0  0  0  0  0  0  0  0  0  0  0
   47.8260   31.8599   45.7180 H   0  0  0  0  0  0  0  0  0  0  0  0
   47.3363   31.0174   48.0253 H   0  0  0  0  0  0  0  0  0  0  0  0
   44.2045   33.8431   48.2280 H   0  0  0  0  0  0  0  0  0  0  0  0
   41.3720   35.8894   39.8609 H   0  0  0  0  0  0  0  0  0  0  0  0
   41.3916   34.4893   37.5805 H   0  0  0  0  0  0  0  0  0  0  0  0
   43.6322   32.9922   37.8130 H   0  0  0  0  0  0  0  0  0  0  0  0
  1  6  2  0
  2  3  2  0
  2  1  1  0
  3  4  1  0
  4  5  2  0
  5  7  1  0
  6  5  1  0
  7  8  1  0
  7 13  1  0
  8  9  2  0
  9 10  1  0
 10 11  2  0
 12 10  1  0
 13 12  1  0
 14 13  2  0
 15  1  1  0
 16 17  2  0
 16 15  1  0
 18 16  1  0
 19 18  2  0
 20 21  2  0
 20 19  1  0
 21 22  1  0
 22 18  1  0
  2 23  1  0
  3 24  1  0
  8 25  1  0
  9 26  1  0
 12 27  1  0
 19 28  1  0
 20 29  1  0
 21 30  1  0
M  ISO  8  23  14  24  14  25  14  26  14  27   9  28  14  29  14  30  14
M  END
>  <minimizedAffinity>  (1) 
-6.40511799

>  <minimizedRMSD>  (1) 
0.944821775

$$$$
