
     RDKit          3D

 30 32  0  0  0  0  0  0  0  0999 V2000
   45.6210   35.1390   42.7900 C   0  0  0  0  0  0  0  0  0  0  0  0
   46.7600   34.9190   41.9840 C   0  0  0  0  0  0  0  0  0  0  0  0
   47.7560   34.1200   42.4970 C   0  0  0  0  0  0  0  0  0  0  0  0
   47.6250   33.5860   43.7120 N   0  0  0  0  0  0  0  0  0  0  0  0
   46.5370   33.8060   44.4630 C   0  0  0  0  0  0  0  0  0  0  0  0
   45.5410   34.5770   44.0050 N   0  0  0  0  0  0  0  0  0  0  0  0
   46.2960   33.2770   45.7720 N   0  0  0  0  0  0  0  0  0  0  0  0
   47.0130   32.2820   46.3100 C   0  0  0  0  0  0  0  0  0  0  0  0
   46.6930   31.8350   47.5800 C   0  0  0  0  0  0  0  0  0  0  0  0
   45.6520   32.4110   48.2760 C   0  0  0  0  0  0  0  0  0  0  0  0
   45.3810   31.9920   49.4190 O   0  0  0  0  0  0  0  0  0  0  0  0
   44.9780   33.4100   47.6620 N   0  0  0  0  0  0  0  0  0  0  0  0
   45.2840   33.8470   46.4320 C   0  0  0  0  0  0  0  0  0  0  0  0
   44.5510   34.7800   46.0250 O   0  0  0  0  0  0  0  0  0  0  0  0
   44.6580   35.9300   42.2520 O   0  0  0  0  0  0  0  0  0  0  0  0
   43.4930   35.4860   41.7340 C   0  0  0  0  0  0  0  0  0  0  0  0
   42.2440   35.4650   42.1640 O   0  0  0  0  0  0  0  0  0  0  0  0
   43.3010   34.8430   40.3770 C   0  0  0  0  0  0  0  0  0  0  0  0
   42.1770   34.9180   39.5680 C   0  0  0  0  0  0  0  0  0  0  0  0
   42.3820   34.2030   38.4490 N   0  0  0  0  0  0  0  0  0  0  0  0
   43.6150   33.6560   38.5010 C   0  0  0  0  0  0  0  0  0  0  0  0
   44.1290   34.0670   39.6730 N   0  0  0  0  0  0  0  0  0  0  0  0
   46.8475   35.3693   40.9842 H   0  0  0  0  0  0  0  0  0  0  0  0
   48.6612   33.9215   41.9043 H   0  0  0  0  0  0  0  0  0  0  0  0
   47.8438   31.8269   45.7508 H   0  0  0  0  0  0  0  0  0  0  0  0
   47.2712   31.0175   48.0354 H   0  0  0  0  0  0  0  0  0  0  0  0
   44.1948   33.8549   48.1616 H   0  0  0  0  0  0  0  0  0  0  0  0
   41.2596   35.4765   39.8057 H   0  0  0  0  0  0  0  0  0  0  0  0
   44.0948   33.0136   37.7480 H   0  0  0  0  0  0  0  0  0  0  0  0
   45.0717   33.8081   39.9972 H   0  0  0  0  0  0  0  0  0  0  0  0
  1  6  2  0
  2  3  2  0
  2  1  1  0
  3  4  1  0
  4  5  2  0
  5  7  1  0
  6  5  1  0
  7  8  1  0
  7 13  1  0
  8  9  2  0
  9 10  1  0
 10 11  2  0
 12 10  1  0
 13 12  1  0
 14 13  2  0
 15  1  1  0
 16 17  2  0
 16 15  1  0
 18 16  1  0
 19 18  2  0
 20 21  2  0
 20 19  1  0
 21 22  1  0
 22 18  1  0
  2 23  1  0
  3 24  1  0
  8 25  1  0
  9 26  1  0
 12 27  1  0
 19 28  1  0
 21 29  1  0
 22 30  1  0
M  ISO  8  23  14  24  14  25  14  26  14  27   9  28  14  29  14  30   9
M  END
>  <minimizedAffinity>  (1) 
-6.41277361

>  <minimizedRMSD>  (1) 
1.04244006

$$$$
