
     RDKit          3D

 36 38  0  0  0  0  0  0  0  0999 V2000
   45.4150   35.0090   42.6650 C   0  0  0  0  0  0  0  0  0  0  0  0
   46.5600   34.8800   41.8640 C   0  0  0  0  0  0  0  0  0  0  0  0
   47.6290   34.1920   42.4040 C   0  0  0  0  0  0  0  0  0  0  0  0
   47.5400   33.6840   43.6410 N   0  0  0  0  0  0  0  0  0  0  0  0
   46.4310   33.8220   44.3860 C   0  0  0  0  0  0  0  0  0  0  0  0
   45.3860   34.4730   43.9050 N   0  0  0  0  0  0  0  0  0  0  0  0
   46.2640   33.3170   45.6990 N   0  0  0  0  0  0  0  0  0  0  0  0
   47.0480   32.3840   46.2640 C   0  0  0  0  0  0  0  0  0  0  0  0
   46.7980   31.9610   47.5580 C   0  0  0  0  0  0  0  0  0  0  0  0
   45.7300   32.5100   48.2680 C   0  0  0  0  0  0  0  0  0  0  0  0
   45.5280   32.1130   49.4280 O   0  0  0  0  0  0  0  0  0  0  0  0
   44.9770   33.4570   47.6240 N   0  0  0  0  0  0  0  0  0  0  0  0
   45.2410   33.8450   46.3760 C   0  0  0  0  0  0  0  0  0  0  0  0
   44.4370   34.7260   45.9530 O   0  0  0  0  0  0  0  0  0  0  0  0
   44.3400   35.6850   42.1560 O   0  0  0  0  0  0  0  0  0  0  0  0
   43.6390   35.2430   41.0670 C   0  0  0  0  0  0  0  0  0  0  0  0
   43.9880   34.3360   40.2530 O   0  0  0  0  0  0  0  0  0  0  0  0
   42.4550   35.2590   40.1450 C   0  0  0  0  0  0  0  0  0  0  0  0
   41.7810   33.9540   40.0020 C   0  0  0  0  0  0  0  0  0  0  0  0
   40.9480   33.7900   41.2570 C   0  0  0  0  0  0  0  0  0  0  0  0
   41.0420   35.1290   41.9800 C   0  0  0  0  0  0  0  0  0  0  0  0
   41.3410   36.0800   40.8120 C   0  0  0  0  0  0  0  0  0  0  0  0
   46.6042   35.3076   40.8515 H   0  0  0  0  0  0  0  0  0  0  0  0
   48.5518   34.0612   41.8198 H   0  0  0  0  0  0  0  0  0  0  0  0
   47.8888   31.9561   45.6983 H   0  0  0  0  0  0  0  0  0  0  0  0
   47.4375   31.1967   48.0236 H   0  0  0  0  0  0  0  0  0  0  0  0
   44.1812   33.8828   48.1203 H   0  0  0  0  0  0  0  0  0  0  0  0
   42.8512   35.6226   39.1854 H   0  0  0  0  0  0  0  0  0  0  0  0
   41.1375   33.9492   39.1099 H   0  0  0  0  0  0  0  0  0  0  0  0
   42.5026   33.1327   39.8805 H   0  0  0  0  0  0  0  0  0  0  0  0
   39.9029   33.5640   40.9989 H   0  0  0  0  0  0  0  0  0  0  0  0
   41.3080   32.9599   41.8826 H   0  0  0  0  0  0  0  0  0  0  0  0
   40.0947   35.3861   42.4765 H   0  0  0  0  0  0  0  0  0  0  0  0
   41.7906   35.1549   42.7855 H   0  0  0  0  0  0  0  0  0  0  0  0
   41.6967   37.0625   41.1557 H   0  0  0  0  0  0  0  0  0  0  0  0
   40.4854   36.3411   40.1718 H   0  0  0  0  0  0  0  0  0  0  0  0
  1  6  2  0
  2  3  2  0
  2  1  1  0
  3  4  1  0
  4  5  2  0
  5  7  1  0
  6  5  1  0
  7  8  1  0
  7 13  1  0
  8  9  2  0
  9 10  1  0
 10 11  2  0
 12 10  1  0
 13 12  1  0
 14 13  2  0
 15  1  1  0
 16 15  1  0
 17 16  2  0
 18 22  1  0
 18 16  1  0
 19 18  1  0
 19 20  1  0
 20 21  1  0
 22 21  1  0
  2 23  1  0
  3 24  1  0
  8 25  1  0
  9 26  1  0
 12 27  1  0
 18 28  1  0
 19 29  1  0
 19 30  1  0
 20 31  1  0
 20 32  1  0
 21 33  1  0
 21 34  1  0
 22 35  1  0
 22 36  1  0
M  ISO  8  23  14  24  14  25  14  26  14  27   9  28  13  29  13  30  13
M  ISO  6  31  13  32  13  33  13  34  13  35  13  36  13
M  END
>  <minimizedAffinity>  (1) 
-6.29454947

>  <minimizedRMSD>  (1) 
1.02986109

$$$$
