
     RDKit          3D

 31 33  0  0  1  0  0  0  0  0999 V2000
   44.7460   35.1060   45.5200 C   0  0  0  0  0  0  0  0  0  0  0  0
   44.5070   36.0730   44.5210 C   0  0  0  0  0  0  0  0  0  0  0  0
   45.1570   35.9280   43.2840 C   0  0  0  0  0  0  0  0  0  0  0  0
   45.9710   34.8660   43.1350 N   0  0  0  0  0  0  0  0  0  0  0  0
   46.1930   33.9380   44.1100 C   0  0  0  0  0  0  0  0  0  0  0  0
   45.5800   34.0740   45.2770 N   0  0  0  0  0  0  0  0  0  0  0  0
   47.0700   32.8400   43.9330 N   0  0  0  0  0  0  0  0  0  0  0  0
   47.9640   32.9470   42.9150 C   0  0  0  0  0  0  0  0  0  0  0  0
   48.7040   31.7720   42.9560 C   0  0  0  0  0  0  0  0  0  0  0  0
   48.2480   30.9990   43.9800 N   0  0  0  0  0  0  0  0  0  0  0  0
   47.2530   31.6640   44.5630 C   0  0  0  0  0  0  0  0  0  0  0  0
   46.4520   31.2090   45.7070 C   0  0  2  0  0  0  0  0  0  0  0  0
   47.1770   31.7010   46.9720 C   0  0  0  0  0  0  0  0  0  0  0  0
   46.4360   29.7030   45.7670 C   0  0  0  0  0  0  0  0  0  0  0  0
   45.0450   29.2850   45.3860 C   0  0  0  0  0  0  0  0  0  0  0  0
   44.1140   28.8480   46.2790 N   0  0  0  0  0  0  0  0  0  0  0  0
   43.0240   28.5680   45.6310 O   0  0  0  0  0  0  0  0  0  0  0  0
   43.1630   28.7910   44.3610 C   0  0  0  0  0  0  0  0  0  0  0  0
   44.4340   29.2460   44.1720 N   0  0  0  0  0  0  0  0  0  0  0  0
   44.2515   35.1937   46.4987 H   0  0  0  0  0  0  0  0  0  0  0  0
   43.8289   36.9191   44.7059 H   0  0  0  0  0  0  0  0  0  0  0  0
   45.0070   36.6527   42.4702 H   0  0  0  0  0  0  0  0  0  0  0  0
   48.0773   33.7839   42.2102 H   0  0  0  0  0  0  0  0  0  0  0  0
   49.5247   31.5089   42.2725 H   0  0  0  0  0  0  0  0  0  0  0  0
   45.4226   31.5873   45.6221 H   0  0  0  0  0  0  0  0  0  0  0  0
   46.6443   31.3395   47.8639 H   0  0  0  0  0  0  0  0  0  0  0  0
   48.2068   31.3144   46.9782 H   0  0  0  0  0  0  0  0  0  0  0  0
   47.1981   32.8008   46.9782 H   0  0  0  0  0  0  0  0  0  0  0  0
   47.1673   29.2851   45.0595 H   0  0  0  0  0  0  0  0  0  0  0  0
   46.7045   29.3382   46.7694 H   0  0  0  0  0  0  0  0  0  0  0  0
   42.3996   28.6413   43.5833 H   0  0  0  0  0  0  0  0  0  0  0  0
  2  1  2  0
  3  2  1  0
  4  3  2  0
  4  5  1  0
  5  6  2  0
  6  1  1  0
  7  5  1  0
  7 11  1  0
  8  9  2  0
  8  7  1  0
  9 10  1  0
 10 11  2  0
 11 12  1  0
 12 14  1  0
 12 13  1  0
 15 14  1  0
 15 16  2  0
 17 16  1  0
 18 17  1  0
 19 18  2  0
 19 15  1  0
  1 20  1  0
  2 21  1  0
  3 22  1  0
  8 23  1  0
  9 24  1  0
 12 25  1  6
 13 26  1  0
 13 27  1  0
 13 28  1  0
 14 29  1  0
 14 30  1  0
 18 31  1  0
M  ISO  8  20  14  21  14  22  14  23  14  24  14  25   8  26   8  27   8
M  ISO  4  28   8  29   8  30   8  31  14
M  END
>  <minimizedAffinity>  (1) 
-4.22143984

>  <minimizedRMSD>  (1) 
3.31072521

$$$$
