
     RDKit          3D

 42 46  0  0  0  0  0  0  0  0999 V2000
   46.4160   32.5800   45.7010 C   0  0  0  0  0  0  0  0  0  0  0  0
   46.8860   32.9030   46.9950 C   0  0  0  0  0  0  0  0  0  0  0  0
   47.0640   31.9930   48.0050 C   0  0  0  0  0  0  0  0  0  0  0  0
   46.7730   30.6770   47.7700 C   0  0  0  0  0  0  0  0  0  0  0  0
   46.3130   30.2990   46.5360 C   0  0  0  0  0  0  0  0  0  0  0  0
   46.0370   28.9670   46.3450 C   0  0  0  0  0  0  0  0  0  0  0  0
   45.5690   28.5180   45.1240 C   0  0  0  0  0  0  0  0  0  0  0  0
   45.4020   29.4870   44.1310 C   0  0  0  0  0  0  0  0  0  0  0  0
   45.6970   30.8190   44.3770 C   0  0  0  0  0  0  0  0  0  0  0  0
   46.1530   31.2530   45.5590 C   0  0  0  0  0  0  0  0  0  0  0  0
   45.3460   31.4830   43.1670 N   0  0  0  0  0  0  0  0  0  0  0  0
   44.1750   32.0490   42.7140 C   0  0  0  0  0  0  0  0  0  0  0  0
   44.3490   32.5010   41.4570 N   0  0  0  0  0  0  0  0  0  0  0  0
   45.6030   32.2630   41.0290 C   0  0  0  0  0  0  0  0  0  0  0  0
   46.3610   32.4720   39.8970 C   0  0  0  0  0  0  0  0  0  0  0  0
   45.7630   33.0500   38.9560 O   0  0  0  0  0  0  0  0  0  0  0  0
   47.6450   32.0820   39.8210 N   0  0  0  0  0  0  0  0  0  0  0  0
   48.2300   31.4660   40.8700 C   0  0  0  0  0  0  0  0  0  0  0  0
   49.6000   31.0510   40.7850 N   0  0  0  0  0  0  0  0  0  0  0  0
   47.5280   31.2400   41.9970 N   0  0  0  0  0  0  0  0  0  0  0  0
   46.2270   31.6220   42.1090 C   0  0  0  0  0  0  0  0  0  0  0  0
   44.7880   35.2180   43.8910 C   0  0  0  0  0  0  0  0  0  0  0  0
   45.6860   35.6290   42.9060 C   0  0  0  0  0  0  0  0  0  0  0  0
   46.9080   34.9700   42.8560 C   0  0  0  0  0  0  0  0  0  0  0  0
   47.1300   34.0030   43.7440 N   0  0  0  0  0  0  0  0  0  0  0  0
   46.2790   33.6020   44.6860 C   0  0  0  0  0  0  0  0  0  0  0  0
   45.1030   34.2490   44.7230 N   0  0  0  0  0  0  0  0  0  0  0  0
   43.4870   35.7980   44.0730 N   0  0  0  0  0  0  0  0  0  0  0  0
   47.1250   33.9559   47.2056 H   0  0  0  0  0  0  0  0  0  0  0  0
   47.4350   32.3160   48.9889 H   0  0  0  0  0  0  0  0  0  0  0  0
   46.9072   29.9287   48.5650 H   0  0  0  0  0  0  0  0  0  0  0  0
   46.1892   28.2535   47.1682 H   0  0  0  0  0  0  0  0  0  0  0  0
   45.3408   27.4571   44.9442 H   0  0  0  0  0  0  0  0  0  0  0  0
   45.0310   29.1884   43.1395 H   0  0  0  0  0  0  0  0  0  0  0  0
   43.2408   32.1209   43.2903 H   0  0  0  0  0  0  0  0  0  0  0  0
   48.1839   32.2536   38.9602 H   0  0  0  0  0  0  0  0  0  0  0  0
   50.0463   30.5810   41.5855 H   0  0  0  0  0  0  0  0  0  0  0  0
   50.1377   31.2230   39.9235 H   0  0  0  0  0  0  0  0  0  0  0  0
   45.4383   36.4370   42.2019 H   0  0  0  0  0  0  0  0  0  0  0  0
   47.6676   35.2384   42.1070 H   0  0  0  0  0  0  0  0  0  0  0  0
   43.1729   36.5618   43.4574 H   0  0  0  0  0  0  0  0  0  0  0  0
   42.8679   35.4502   44.8191 H   0  0  0  0  0  0  0  0  0  0  0  0
  1  2  2  0
  2  3  1  0
  4  3  2  0
  5  4  1  0
  6  5  2  0
  7  6  1  0
  8  9  1  0
  8  7  2  0
  9 10  2  0
 10  1  1  0
 10  5  1  0
 11  9  1  0
 12 11  1  0
 13 12  2  0
 14 13  1  0
 14 21  2  0
 15 14  1  0
 16 15  2  0
 17 15  1  0
 17 18  1  0
 18 20  2  0
 19 18  1  0
 20 21  1  0
 21 11  1  0
 22 28  1  0
 22 27  2  0
 23 22  1  0
 24 23  2  0
 24 25  1  0
 25 26  2  0
 26 27  1  0
 26  1  1  0
  2 29  1  0
  3 30  1  0
  4 31  1  0
  6 32  1  0
  7 33  1  0
  8 34  1  0
 12 35  1  0
 17 36  1  0
 19 37  1  0
 19 38  1  0
 23 39  1  0
 24 40  1  0
 28 41  1  0
 28 42  1  0
M  ISO  8  29  14  30  14  31  14  32  14  33  14  34  14  35  14  36   9
M  ISO  2  39  14  40  14
M  END
>  <minimizedAffinity>  (1) 
-6.08660793

>  <minimizedRMSD>  (1) 
2.58944249

$$$$
