
     RDKit          3D

 41 44  0  0  0  0  0  0  0  0999 V2000
   45.9830   32.3060   46.4830 C   0  0  0  0  0  0  0  0  0  0  0  0
   46.1050   32.8290   47.7920 C   0  0  0  0  0  0  0  0  0  0  0  0
   45.9260   32.1030   48.9370 C   0  0  0  0  0  0  0  0  0  0  0  0
   45.6080   30.7770   48.8410 C   0  0  0  0  0  0  0  0  0  0  0  0
   45.4740   30.2050   47.5920 C   0  0  0  0  0  0  0  0  0  0  0  0
   45.1540   28.8710   47.5480 C   0  0  0  0  0  0  0  0  0  0  0  0
   45.0050   28.2390   46.3270 C   0  0  0  0  0  0  0  0  0  0  0  0
   45.1950   29.0290   45.1780 C   0  0  0  0  0  0  0  0  0  0  0  0
   45.5170   30.3710   45.3080 C   0  0  0  0  0  0  0  0  0  0  0  0
   45.6630   30.9810   46.4920 C   0  0  0  0  0  0  0  0  0  0  0  0
   45.1650   34.7880   44.0110 C   0  0  0  0  0  0  0  0  0  0  0  0
   46.2890   34.8850   43.1820 C   0  0  0  0  0  0  0  0  0  0  0  0
   47.3660   34.0710   43.4810 C   0  0  0  0  0  0  0  0  0  0  0  0
   47.2510   33.2580   44.5290 N   0  0  0  0  0  0  0  0  0  0  0  0
   46.2070   33.1430   45.3250 C   0  0  0  0  0  0  0  0  0  0  0  0
   45.1750   33.9440   45.0170 N   0  0  0  0  0  0  0  0  0  0  0  0
   43.9550   35.5580   43.8510 N   0  0  0  0  0  0  0  0  0  0  0  0
   45.5830   30.7960   43.9560 N   0  0  0  0  0  0  0  0  0  0  0  0
   44.4410   31.3570   43.4100 C   0  0  0  0  0  0  0  0  0  0  0  0
   44.3970   31.8680   42.1050 C   0  0  0  0  0  0  0  0  0  0  0  0
   43.1430   32.4510   41.5920 C   0  0  0  0  0  0  0  0  0  0  0  0
   45.5590   31.7900   41.3660 C   0  0  0  0  0  0  0  0  0  0  0  0
   45.5510   32.2410   40.1870 O   0  0  0  0  0  0  0  0  0  0  0  0
   46.6590   31.2400   41.9180 N   0  0  0  0  0  0  0  0  0  0  0  0
   46.7130   30.7470   43.1720 C   0  0  0  0  0  0  0  0  0  0  0  0
   47.7550   30.2460   43.6550 O   0  0  0  0  0  0  0  0  0  0  0  0
   46.3617   33.8936   47.8959 H   0  0  0  0  0  0  0  0  0  0  0  0
   46.0364   32.5797   49.9222 H   0  0  0  0  0  0  0  0  0  0  0  0
   45.4606   30.1730   49.7484 H   0  0  0  0  0  0  0  0  0  0  0  0
   45.0164   28.3060   48.4817 H   0  0  0  0  0  0  0  0  0  0  0  0
   44.7504   27.1711   46.2573 H   0  0  0  0  0  0  0  0  0  0  0  0
   45.0882   28.5824   44.1785 H   0  0  0  0  0  0  0  0  0  0  0  0
   46.3143   35.5792   42.3291 H   0  0  0  0  0  0  0  0  0  0  0  0
   48.2839   34.0943   42.8753 H   0  0  0  0  0  0  0  0  0  0  0  0
   43.8762   36.2398   43.0830 H   0  0  0  0  0  0  0  0  0  0  0  0
   43.1702   35.4258   44.5048 H   0  0  0  0  0  0  0  0  0  0  0  0
   43.5305   31.4038   44.0255 H   0  0  0  0  0  0  0  0  0  0  0  0
   42.5042   32.7480   42.4368 H   0  0  0  0  0  0  0  0  0  0  0  0
   43.3734   33.3343   40.9783 H   0  0  0  0  0  0  0  0  0  0  0  0
   42.6162   31.7055   40.9783 H   0  0  0  0  0  0  0  0  0  0  0  0
   47.5135   31.1933   41.3449 H   0  0  0  0  0  0  0  0  0  0  0  0
  1 10  1  0
  1  2  2  0
  2  3  1  0
  4  3  2  0
  5  4  1  0
  6  5  2  0
  7  6  1  0
  8  9  1  0
  8  7  2  0
  9 10  2  0
 10  5  1  0
 11 16  2  0
 12 13  2  0
 12 11  1  0
 13 14  1  0
 14 15  2  0
 15  1  1  0
 16 15  1  0
 17 11  1  0
 18  9  1  0
 19 18  1  0
 20 19  2  0
 21 20  1  0
 22 24  1  0
 22 20  1  0
 23 22  2  0
 24 25  1  0
 25 26  2  0
 25 18  1  0
  2 27  1  0
  3 28  1  0
  4 29  1  0
  6 30  1  0
  7 31  1  0
  8 32  1  0
 12 33  1  0
 13 34  1  0
 17 35  1  0
 17 36  1  0
 19 37  1  0
 21 38  1  0
 21 39  1  0
 21 40  1  0
 24 41  1  0
M  ISO  8  27  14  28  14  29  14  30  14  31  14  32  14  33  14  34  14
M  ISO  5  37  14  38   8  39   8  40   8  41   9
M  END
>  <minimizedAffinity>  (1) 
-5.72439671

>  <minimizedRMSD>  (1) 
0.552142441

$$$$
