
     RDKit          3D

 41 45  0  0  0  0  0  0  0  0999 V2000
   45.9590   32.3750   46.5120 C   0  0  0  0  0  0  0  0  0  0  0  0
   46.0350   32.9280   47.8150 C   0  0  0  0  0  0  0  0  0  0  0  0
   45.8440   32.2160   48.9710 C   0  0  0  0  0  0  0  0  0  0  0  0
   45.5600   30.8800   48.8940 C   0  0  0  0  0  0  0  0  0  0  0  0
   45.4760   30.2940   47.6630 C   0  0  0  0  0  0  0  0  0  0  0  0
   45.2040   28.9430   47.6220 C   0  0  0  0  0  0  0  0  0  0  0  0
   45.1190   28.2750   46.4260 C   0  0  0  0  0  0  0  0  0  0  0  0
   45.3190   29.0470   45.2670 C   0  0  0  0  0  0  0  0  0  0  0  0
   45.5870   30.4030   45.3670 C   0  0  0  0  0  0  0  0  0  0  0  0
   45.6740   31.0440   46.5390 C   0  0  0  0  0  0  0  0  0  0  0  0
   45.1300   34.7760   43.9700 C   0  0  0  0  0  0  0  0  0  0  0  0
   46.2720   34.8960   43.1710 C   0  0  0  0  0  0  0  0  0  0  0  0
   47.3840   34.1080   43.5220 C   0  0  0  0  0  0  0  0  0  0  0  0
   47.2690   33.3120   44.5810 N   0  0  0  0  0  0  0  0  0  0  0  0
   46.1910   33.1910   45.3420 C   0  0  0  0  0  0  0  0  0  0  0  0
   45.1440   33.9510   44.9910 N   0  0  0  0  0  0  0  0  0  0  0  0
   43.9210   35.4980   43.7490 N   0  0  0  0  0  0  0  0  0  0  0  0
   45.6610   30.8260   44.0070 N   0  0  0  0  0  0  0  0  0  0  0  0
   44.7050   31.3470   43.1620 C   0  0  0  0  0  0  0  0  0  0  0  0
   45.2260   31.5420   41.9380 N   0  0  0  0  0  0  0  0  0  0  0  0
   46.5170   31.1650   41.9230 C   0  0  0  0  0  0  0  0  0  0  0  0
   47.5400   31.1250   40.9970 C   0  0  0  0  0  0  0  0  0  0  0  0
   48.7710   30.6610   41.3510 N   0  0  0  0  0  0  0  0  0  0  0  0
   49.0170   30.2320   42.6080 C   0  0  0  0  0  0  0  0  0  0  0  0
   48.0380   30.2580   43.5320 N   0  0  0  0  0  0  0  0  0  0  0  0
   46.7900   30.7150   43.2230 C   0  0  0  0  0  0  0  0  0  0  0  0
   47.1980   31.5950   39.6990 N   0  0  0  0  0  0  0  0  0  0  0  0
   46.2625   34.0005   47.9047 H   0  0  0  0  0  0  0  0  0  0  0  0
   45.9183   32.7134   49.9493 H   0  0  0  0  0  0  0  0  0  0  0  0
   45.4020   30.2880   49.8075 H   0  0  0  0  0  0  0  0  0  0  0  0
   45.0528   28.3921   48.5620 H   0  0  0  0  0  0  0  0  0  0  0  0
   44.9065   27.1969   46.3765 H   0  0  0  0  0  0  0  0  0  0  0  0
   45.2624   28.5719   44.2765 H   0  0  0  0  0  0  0  0  0  0  0  0
   46.2996   35.5760   42.3068 H   0  0  0  0  0  0  0  0  0  0  0  0
   48.3166   34.1492   42.9401 H   0  0  0  0  0  0  0  0  0  0  0  0
   43.8526   36.1595   42.9625 H   0  0  0  0  0  0  0  0  0  0  0  0
   43.1158   35.3582   44.3758 H   0  0  0  0  0  0  0  0  0  0  0  0
   43.6665   31.5708   43.4475 H   0  0  0  0  0  0  0  0  0  0  0  0
   50.0172   29.8614   42.8768 H   0  0  0  0  0  0  0  0  0  0  0  0
   46.2433   31.9311   39.5080 H   0  0  0  0  0  0  0  0  0  0  0  0
   47.9050   31.5993   38.9500 H   0  0  0  0  0  0  0  0  0  0  0  0
  1 10  1  0
  1  2  2  0
  2  3  1  0
  4  3  2  0
  5  4  1  0
  6  5  2  0
  7  6  1  0
  8  9  1  0
  8  7  2  0
  9 10  2  0
 10  5  1  0
 11 16  2  0
 12 13  2  0
 12 11  1  0
 13 14  1  0
 14 15  2  0
 15  1  1  0
 16 15  1  0
 17 11  1  0
 18  9  1  0
 19 18  1  0
 20 19  2  0
 21 20  1  0
 21 26  2  0
 22 23  2  0
 22 21  1  0
 23 24  1  0
 24 25  2  0
 26 25  1  0
 26 18  1  0
 27 22  1  0
  2 28  1  0
  3 29  1  0
  4 30  1  0
  6 31  1  0
  7 32  1  0
  8 33  1  0
 12 34  1  0
 13 35  1  0
 17 36  1  0
 17 37  1  0
 19 38  1  0
 24 39  1  0
 27 40  1  0
 27 41  1  0
M  ISO  8  28  14  29  14  30  14  31  14  32  14  33  14  34  14  35  14
M  ISO  2  38  14  39  14
M  END
>  <minimizedAffinity>  (1) 
-5.84162426

>  <minimizedRMSD>  (1) 
0.526904702

$$$$
