
     RDKit          3D

 30 32  0  0  0  0  0  0  0  0999 V2000
   46.0380   32.2800   46.6900 C   0  0  0  0  0  0  0  0  0  0  0  0
   46.3740   32.7440   47.9820 C   0  0  0  0  0  0  0  0  0  0  0  0
   46.2800   31.9880   49.1180 C   0  0  0  0  0  0  0  0  0  0  0  0
   45.8320   30.6860   49.0360 C   0  0  0  0  0  0  0  0  0  0  0  0
   45.4910   30.1820   47.8150 C   0  0  0  0  0  0  0  0  0  0  0  0
   45.0500   28.8880   47.7610 C   0  0  0  0  0  0  0  0  0  0  0  0
   44.6880   28.3080   46.5600 C   0  0  0  0  0  0  0  0  0  0  0  0
   44.7960   29.1110   45.4180 C   0  0  0  0  0  0  0  0  0  0  0  0
   45.2490   30.4150   45.5390 C   0  0  0  0  0  0  0  0  0  0  0  0
   45.6050   30.9860   46.7040 C   0  0  0  0  0  0  0  0  0  0  0  0
   45.0580   34.8410   44.3560 C   0  0  0  0  0  0  0  0  0  0  0  0
   46.0610   34.9050   43.4030 C   0  0  0  0  0  0  0  0  0  0  0  0
   47.1430   34.0200   43.5600 C   0  0  0  0  0  0  0  0  0  0  0  0
   47.1200   33.1930   44.6090 N   0  0  0  0  0  0  0  0  0  0  0  0
   46.1670   33.1280   45.5180 C   0  0  0  0  0  0  0  0  0  0  0  0
   45.1580   33.9750   45.3450 N   0  0  0  0  0  0  0  0  0  0  0  0
   43.8850   35.6730   44.3500 N   0  0  0  0  0  0  0  0  0  0  0  0
   45.2570   31.0360   44.2590 N   0  0  0  0  0  0  0  0  0  0  0  0
   46.7340   33.7788   48.0802 H   0  0  0  0  0  0  0  0  0  0  0  0
   46.5602   32.4160   50.0918 H   0  0  0  0  0  0  0  0  0  0  0  0
   45.7510   30.0645   49.9400 H   0  0  0  0  0  0  0  0  0  0  0  0
   44.9825   28.3000   48.6882 H   0  0  0  0  0  0  0  0  0  0  0  0
   44.3331   27.2683   46.5040 H   0  0  0  0  0  0  0  0  0  0  0  0
   44.5230   28.7093   44.4311 H   0  0  0  0  0  0  0  0  0  0  0  0
   46.0137   35.6141   42.5634 H   0  0  0  0  0  0  0  0  0  0  0  0
   47.9784   34.0092   42.8445 H   0  0  0  0  0  0  0  0  0  0  0  0
   43.7509   36.3688   43.6025 H   0  0  0  0  0  0  0  0  0  0  0  0
   43.1789   35.5731   45.0932 H   0  0  0  0  0  0  0  0  0  0  0  0
   45.5675   32.0134   44.1627 H   0  0  0  0  0  0  0  0  0  0  0  0
   44.9523   30.5082   43.4286 H   0  0  0  0  0  0  0  0  0  0  0  0
  1 10  1  0
  1  2  2  0
  2  3  1  0
  4  3  2  0
  5  4  1  0
  6  5  2  0
  7  6  1  0
  8  9  1  0
  8  7  2  0
  9 10  2  0
 10  5  1  0
 11 16  2  0
 12 13  2  0
 12 11  1  0
 13 14  1  0
 14 15  2  0
 15  1  1  0
 16 15  1  0
 17 11  1  0
 18  9  1  0
  2 19  1  0
  3 20  1  0
  4 21  1  0
  6 22  1  0
  7 23  1  0
  8 24  1  0
 12 25  1  0
 13 26  1  0
 17 27  1  0
 17 28  1  0
 18 29  1  0
 18 30  1  0
M  ISO  8  19  14  20  14  21  14  22  14  23  14  24  14  25  14  26  14
M  END
>  <minimizedAffinity>  (1) 
-5.5891118

>  <minimizedRMSD>  (1) 
0.347116411

$$$$
