
     RDKit          3D

 39 42  0  0  0  0  0  0  0  0999 V2000
   45.9690   32.3280   46.4460 C   0  0  0  0  0  0  0  0  0  0  0  0
   46.0720   32.8520   47.7570 C   0  0  0  0  0  0  0  0  0  0  0  0
   45.8860   32.1220   48.9010 C   0  0  0  0  0  0  0  0  0  0  0  0
   45.5770   30.7920   48.7990 C   0  0  0  0  0  0  0  0  0  0  0  0
   45.4620   30.2250   47.5590 C   0  0  0  0  0  0  0  0  0  0  0  0
   45.1490   28.8870   47.4970 C   0  0  0  0  0  0  0  0  0  0  0  0
   45.0140   28.2540   46.2730 C   0  0  0  0  0  0  0  0  0  0  0  0
   45.2120   29.0470   45.1270 C   0  0  0  0  0  0  0  0  0  0  0  0
   45.5260   30.3890   45.2650 C   0  0  0  0  0  0  0  0  0  0  0  0
   45.6580   31.0020   46.4510 C   0  0  0  0  0  0  0  0  0  0  0  0
   45.1700   34.7850   43.9440 C   0  0  0  0  0  0  0  0  0  0  0  0
   46.3090   34.9010   43.1390 C   0  0  0  0  0  0  0  0  0  0  0  0
   47.3920   34.1020   43.4690 C   0  0  0  0  0  0  0  0  0  0  0  0
   47.2660   33.2940   44.5200 N   0  0  0  0  0  0  0  0  0  0  0  0
   46.2070   33.1650   45.2900 C   0  0  0  0  0  0  0  0  0  0  0  0
   45.1700   33.9420   44.9590 N   0  0  0  0  0  0  0  0  0  0  0  0
   43.9500   35.5340   43.7510 N   0  0  0  0  0  0  0  0  0  0  0  0
   45.6020   30.8170   43.9120 N   0  0  0  0  0  0  0  0  0  0  0  0
   44.4660   31.3730   43.3470 C   0  0  0  0  0  0  0  0  0  0  0  0
   44.4500   31.8820   42.0410 C   0  0  0  0  0  0  0  0  0  0  0  0
   45.6260   31.8060   41.3230 C   0  0  0  0  0  0  0  0  0  0  0  0
   45.6460   32.3150   39.9880 N   0  0  0  0  0  0  0  0  0  0  0  0
   46.7230   31.2590   41.8950 N   0  0  0  0  0  0  0  0  0  0  0  0
   46.7470   30.7700   43.1500 C   0  0  0  0  0  0  0  0  0  0  0  0
   47.7860   30.2750   43.6420 O   0  0  0  0  0  0  0  0  0  0  0  0
   46.3183   33.9187   47.8644 H   0  0  0  0  0  0  0  0  0  0  0  0
   45.9835   32.5977   49.8880 H   0  0  0  0  0  0  0  0  0  0  0  0
   45.4229   30.1860   49.7040 H   0  0  0  0  0  0  0  0  0  0  0  0
   45.0050   28.3160   48.4261 H   0  0  0  0  0  0  0  0  0  0  0  0
   44.7646   27.1852   46.1998 H   0  0  0  0  0  0  0  0  0  0  0  0
   45.1177   28.6025   44.1253 H   0  0  0  0  0  0  0  0  0  0  0  0
   46.3429   35.5935   42.2850 H   0  0  0  0  0  0  0  0  0  0  0  0
   48.3227   34.1340   42.8836 H   0  0  0  0  0  0  0  0  0  0  0  0
   43.8780   36.2108   42.9779 H   0  0  0  0  0  0  0  0  0  0  0  0
   43.1521   35.3913   44.3865 H   0  0  0  0  0  0  0  0  0  0  0  0
   43.5435   31.4167   43.9445 H   0  0  0  0  0  0  0  0  0  0  0  0
   43.5401   32.3226   41.6076 H   0  0  0  0  0  0  0  0  0  0  0  0
   44.7938   32.7257   39.5806 H   0  0  0  0  0  0  0  0  0  0  0  0
   46.5126   32.2712   39.4331 H   0  0  0  0  0  0  0  0  0  0  0  0
  1 10  1  0
  1  2  2  0
  2  3  1  0
  4  3  2  0
  5  4  1  0
  6  5  2  0
  7  6  1  0
  8  9  1  0
  8  7  2  0
  9 10  2  0
 10  5  1  0
 11 16  2  0
 12 13  2  0
 12 11  1  0
 13 14  1  0
 14 15  2  0
 15  1  1  0
 16 15  1  0
 17 11  1  0
 18  9  1  0
 19 18  1  0
 20 19  2  0
 21 23  2  0
 21 20  1  0
 22 21  1  0
 23 24  1  0
 24 25  2  0
 24 18  1  0
  2 26  1  0
  3 27  1  0
  4 28  1  0
  6 29  1  0
  7 30  1  0
  8 31  1  0
 12 32  1  0
 13 33  1  0
 17 34  1  0
 17 35  1  0
 19 36  1  0
 20 37  1  0
 22 38  1  0
 22 39  1  0
M  ISO  8  26  14  27  14  28  14  29  14  30  14  31  14  32  14  33  14
M  ISO  2  36  14  37  14
M  END
>  <minimizedAffinity>  (1) 
-5.55097342

>  <minimizedRMSD>  (1) 
0.662042141

$$$$
