
     RDKit          3D

 29 31  0  0  0  0  0  0  0  0999 V2000
   45.8400   32.2120   46.8110 C   0  0  0  0  0  0  0  0  0  0  0  0
   45.9410   32.7470   48.1160 C   0  0  0  0  0  0  0  0  0  0  0  0
   45.7920   32.0260   49.2560 C   0  0  0  0  0  0  0  0  0  0  0  0
   45.5210   30.6820   49.1740 C   0  0  0  0  0  0  0  0  0  0  0  0
   45.4070   30.0920   47.9250 C   0  0  0  0  0  0  0  0  0  0  0  0
   45.1370   28.7510   47.8810 C   0  0  0  0  0  0  0  0  0  0  0  0
   45.0070   28.1090   46.6630 C   0  0  0  0  0  0  0  0  0  0  0  0
   45.1660   28.9020   45.5110 C   0  0  0  0  0  0  0  0  0  0  0  0
   45.4380   30.2510   45.6430 C   0  0  0  0  0  0  0  0  0  0  0  0
   45.5690   30.8790   46.8210 C   0  0  0  0  0  0  0  0  0  0  0  0
   45.0910   34.7830   44.4170 C   0  0  0  0  0  0  0  0  0  0  0  0
   46.1550   34.8070   43.5190 C   0  0  0  0  0  0  0  0  0  0  0  0
   47.1740   33.8990   43.7290 C   0  0  0  0  0  0  0  0  0  0  0  0
   47.0740   33.0630   44.7700 N   0  0  0  0  0  0  0  0  0  0  0  0
   46.0460   33.0440   45.6320 C   0  0  0  0  0  0  0  0  0  0  0  0
   45.0700   33.9230   45.4200 N   0  0  0  0  0  0  0  0  0  0  0  0
   43.9540   35.6790   44.3710 N   0  0  0  0  0  0  0  0  0  0  0  0
   45.4980   30.9630   44.0130 S   0  0  0  0  0  0  0  0  0  0  0  0
   46.1551   33.8215   48.2139 H   0  0  0  0  0  0  0  0  0  0  0  0
   45.8874   32.5138   50.2373 H   0  0  0  0  0  0  0  0  0  0  0  0
   45.3961   30.0819   50.0874 H   0  0  0  0  0  0  0  0  0  0  0  0
   45.0232   28.1829   48.8160 H   0  0  0  0  0  0  0  0  0  0  0  0
   44.7902   27.0326   46.5978 H   0  0  0  0  0  0  0  0  0  0  0  0
   45.0744   28.4511   44.5118 H   0  0  0  0  0  0  0  0  0  0  0  0
   46.1826   35.5176   42.6798 H   0  0  0  0  0  0  0  0  0  0  0  0
   48.0452   33.8635   43.0584 H   0  0  0  0  0  0  0  0  0  0  0  0
   43.8840   36.3843   43.6236 H   0  0  0  0  0  0  0  0  0  0  0  0
   43.2154   35.6109   45.0857 H   0  0  0  0  0  0  0  0  0  0  0  0
   45.6127   32.3245   44.1133 H   0  0  0  0  0  0  0  0  0  0  0  0
  1 10  1  0
  1  2  2  0
  2  3  1  0
  4  3  2  0
  5  4  1  0
  6  5  2  0
  7  6  1  0
  8  9  1  0
  8  7  2  0
  9 10  2  0
 10  5  1  0
 11 16  2  0
 12 13  2  0
 12 11  1  0
 13 14  1  0
 14 15  2  0
 15  1  1  0
 16 15  1  0
 17 11  1  0
 18  9  1  0
  2 19  1  0
  3 20  1  0
  4 21  1  0
  6 22  1  0
  7 23  1  0
  8 24  1  0
 12 25  1  0
 13 26  1  0
 17 27  1  0
 17 28  1  0
 18 29  1  0
M  ISO  8  19  14  20  14  21  14  22  14  23  14  24  14  25  14  26  14
M  ISO  1  29  11
M  END
>  <minimizedAffinity>  (1) 
-5.58746433

>  <minimizedRMSD>  (1) 
0.0777675137

$$$$
