
     RDKit          3D

 35 38  0  0  0  0  0  0  0  0999 V2000
   45.9490   32.3190   46.5180 C   0  0  0  0  0  0  0  0  0  0  0  0
   46.0860   32.8580   47.8170 C   0  0  0  0  0  0  0  0  0  0  0  0
   45.9250   32.1400   48.9730 C   0  0  0  0  0  0  0  0  0  0  0  0
   45.6110   30.8110   48.8920 C   0  0  0  0  0  0  0  0  0  0  0  0
   45.4650   30.2270   47.6650 C   0  0  0  0  0  0  0  0  0  0  0  0
   45.1790   28.8870   47.6250 C   0  0  0  0  0  0  0  0  0  0  0  0
   45.0470   28.2350   46.4190 C   0  0  0  0  0  0  0  0  0  0  0  0
   45.2160   29.0090   45.2670 C   0  0  0  0  0  0  0  0  0  0  0  0
   45.5000   30.3620   45.3590 C   0  0  0  0  0  0  0  0  0  0  0  0
   45.6340   30.9900   46.5320 C   0  0  0  0  0  0  0  0  0  0  0  0
   45.1950   34.7730   44.0060 C   0  0  0  0  0  0  0  0  0  0  0  0
   46.3250   34.8400   43.1780 C   0  0  0  0  0  0  0  0  0  0  0  0
   47.3910   34.0100   43.4910 C   0  0  0  0  0  0  0  0  0  0  0  0
   47.2810   33.2040   44.5490 N   0  0  0  0  0  0  0  0  0  0  0  0
   46.1930   33.1380   45.3440 C   0  0  0  0  0  0  0  0  0  0  0  0
   45.1650   33.9440   45.0390 N   0  0  0  0  0  0  0  0  0  0  0  0
   43.9980   35.5440   43.8320 N   0  0  0  0  0  0  0  0  0  0  0  0
   45.5210   30.8080   43.9630 C   0  0  0  0  0  0  0  0  0  0  0  0
   46.4840   30.7670   42.9370 C   0  0  0  0  0  0  0  0  0  0  0  0
   46.0250   31.3460   41.7770 C   0  0  0  0  0  0  0  0  0  0  0  0
   44.7580   31.7330   42.1490 C   0  0  0  0  0  0  0  0  0  0  0  0
   44.4830   31.4240   43.3890 O   0  0  0  0  0  0  0  0  0  0  0  0
   46.3387   33.9249   47.9062 H   0  0  0  0  0  0  0  0  0  0  0  0
   46.0466   32.6256   49.9525 H   0  0  0  0  0  0  0  0  0  0  0  0
   45.4770   30.2166   49.8079 H   0  0  0  0  0  0  0  0  0  0  0  0
   45.0539   28.3277   48.5639 H   0  0  0  0  0  0  0  0  0  0  0  0
   44.8202   27.1600   46.3649 H   0  0  0  0  0  0  0  0  0  0  0  0
   45.1225   28.5388   44.2770 H   0  0  0  0  0  0  0  0  0  0  0  0
   46.3641   35.5225   42.3162 H   0  0  0  0  0  0  0  0  0  0  0  0
   48.3064   34.0158   42.8811 H   0  0  0  0  0  0  0  0  0  0  0  0
   43.9270   36.2166   43.0551 H   0  0  0  0  0  0  0  0  0  0  0  0
   43.2095   35.4251   44.4839 H   0  0  0  0  0  0  0  0  0  0  0  0
   47.4847   30.3244   43.0497 H   0  0  0  0  0  0  0  0  0  0  0  0
   46.5348   31.4674   40.8098 H   0  0  0  0  0  0  0  0  0  0  0  0
   44.0542   32.2459   41.4770 H   0  0  0  0  0  0  0  0  0  0  0  0
  1 10  1  0
  1  2  2  0
  2  3  1  0
  4  3  2  0
  5  4  1  0
  6  5  2  0
  7  6  1  0
  8  9  1  0
  8  7  2  0
  9 10  2  0
 10  5  1  0
 11 16  2  0
 12 13  2  0
 12 11  1  0
 13 14  1  0
 14 15  2  0
 15  1  1  0
 16 15  1  0
 17 11  1  0
 18  9  1  0
 19 18  2  0
 20 21  2  0
 20 19  1  0
 21 22  1  0
 22 18  1  0
  2 23  1  0
  3 24  1  0
  4 25  1  0
  6 26  1  0
  7 27  1  0
  8 28  1  0
 12 29  1  0
 13 30  1  0
 17 31  1  0
 17 32  1  0
 19 33  1  0
 20 34  1  0
 21 35  1  0
M  ISO  8  23  14  24  14  25  14  26  14  27  14  28  14  29  14  30  14
M  ISO  3  33  14  34  14  35  14
M  END
>  <minimizedAffinity>  (1) 
-5.38838053

>  <minimizedRMSD>  (1) 
0.509041846

$$$$
