
     RDKit          3D

 40 43  0  0  0  0  0  0  0  0999 V2000
   46.6730   33.9940   40.2630 C   0  0  0  0  0  0  0  0  0  0  0  0
   47.4070   33.6880   39.1550 C   0  0  0  0  0  0  0  0  0  0  0  0
   46.9460   33.2120   37.9650 C   0  0  0  0  0  0  0  0  0  0  0  0
   45.6060   33.0310   37.9080 N   0  0  0  0  0  0  0  0  0  0  0  0
   44.8060   33.3180   38.9860 C   0  0  0  0  0  0  0  0  0  0  0  0
   45.3520   33.7910   40.1330 N   0  0  0  0  0  0  0  0  0  0  0  0
   43.4010   33.0440   38.7170 C   0  0  0  0  0  0  0  0  0  0  0  0
   43.0450   31.9360   37.9600 C   0  0  0  0  0  0  0  0  0  0  0  0
   41.7520   31.5970   37.6520 C   0  0  0  0  0  0  0  0  0  0  0  0
   40.7120   32.3610   38.0900 C   0  0  0  0  0  0  0  0  0  0  0  0
   41.0160   33.4600   38.8370 C   0  0  0  0  0  0  0  0  0  0  0  0
   39.9590   34.2410   39.2800 C   0  0  0  0  0  0  0  0  0  0  0  0
   40.1740   35.3730   40.0370 C   0  0  0  0  0  0  0  0  0  0  0  0
   41.5060   35.6780   40.3250 C   0  0  0  0  0  0  0  0  0  0  0  0
   42.5190   34.8770   39.8650 C   0  0  0  0  0  0  0  0  0  0  0  0
   42.3240   33.7580   39.1190 C   0  0  0  0  0  0  0  0  0  0  0  0
   47.2240   34.4910   41.5300 C   0  0  0  0  0  0  0  0  0  0  0  0
   46.8520   33.5620   42.6550 C   0  0  0  0  0  0  0  0  0  0  0  0
   44.5870   35.9760   44.4900 C   0  0  0  0  0  0  0  0  0  0  0  0
   45.3390   35.4060   43.4620 C   0  0  0  0  0  0  0  0  0  0  0  0
   46.0270   34.2300   43.6860 C   0  0  0  0  0  0  0  0  0  0  0  0
   45.9320   33.6710   44.9370 N   0  0  0  0  0  0  0  0  0  0  0  0
   45.1940   34.2480   45.9100 C   0  0  0  0  0  0  0  0  0  0  0  0
   44.5380   35.3760   45.6860 N   0  0  0  0  0  0  0  0  0  0  0  0
   48.4934   33.8430   39.2309 H   0  0  0  0  0  0  0  0  0  0  0  0
   47.6108   32.9919   37.1167 H   0  0  0  0  0  0  0  0  0  0  0  0
   43.8509   31.2889   37.5833 H   0  0  0  0  0  0  0  0  0  0  0  0
   41.5529   30.7007   37.0462 H   0  0  0  0  0  0  0  0  0  0  0  0
   39.6702   32.1016   37.8506 H   0  0  0  0  0  0  0  0  0  0  0  0
   38.9294   33.9517   39.0225 H   0  0  0  0  0  0  0  0  0  0  0  0
   39.3437   36.0002   40.3938 H   0  0  0  0  0  0  0  0  0  0  0  0
   41.7443   36.5681   40.9258 H   0  0  0  0  0  0  0  0  0  0  0  0
   43.5529   35.1572   40.1150 H   0  0  0  0  0  0  0  0  0  0  0  0
   48.3198   34.5485   41.4527 H   0  0  0  0  0  0  0  0  0  0  0  0
   46.8108   35.4895   41.7356 H   0  0  0  0  0  0  0  0  0  0  0  0
   46.2842   32.7155   42.2415 H   0  0  0  0  0  0  0  0  0  0  0  0
   47.7828   33.2255   43.1351 H   0  0  0  0  0  0  0  0  0  0  0  0
   44.0374   36.9133   44.3187 H   0  0  0  0  0  0  0  0  0  0  0  0
   45.3836   35.8921   42.4762 H   0  0  0  0  0  0  0  0  0  0  0  0
   45.1373   33.7746   46.9013 H   0  0  0  0  0  0  0  0  0  0  0  0
  1 17  1  0
  2  1  2  0
  3  2  1  0
  4  3  2  0
  4  5  1  0
  5  6  2  0
  6  1  1  0
  7  5  1  0
  7 16  1  0
  8  7  2  0
  9  8  1  0
  9 10  2  0
 10 11  1  0
 11 16  2  0
 11 12  1  0
 12 13  2  0
 13 14  1  0
 15 14  2  0
 16 15  1  0
 17 18  1  0
 18 21  1  0
 19 24  2  0
 20 21  2  0
 20 19  1  0
 21 22  1  0
 22 23  2  0
 24 23  1  0
  2 25  1  0
  3 26  1  0
  8 27  1  0
  9 28  1  0
 10 29  1  0
 12 30  1  0
 13 31  1  0
 14 32  1  0
 15 33  1  0
 17 34  1  0
 17 35  1  0
 18 36  1  0
 18 37  1  0
 19 38  1  0
 20 39  1  0
 23 40  1  0
M  ISO  8  25  14  26  14  27  14  28  14  29  14  30  14  31  14  32  14
M  ISO  8  33  14  34   8  35   8  36   8  37   8  38  14  39  14  40  14
M  END
>  <minimizedAffinity>  (1) 
-5.97317886

>  <minimizedRMSD>  (1) 
2.82911444

$$$$
