
     RDKit          3D

 34 37  0  0  0  0  0  0  0  0999 V2000
   45.9490   32.3480   46.5340 C   0  0  0  0  0  0  0  0  0  0  0  0
   46.0650   32.8880   47.8340 C   0  0  0  0  0  0  0  0  0  0  0  0
   45.9000   32.1880   48.9900 C   0  0  0  0  0  0  0  0  0  0  0  0
   45.5960   30.8410   48.9090 C   0  0  0  0  0  0  0  0  0  0  0  0
   45.4680   30.2450   47.6680 C   0  0  0  0  0  0  0  0  0  0  0  0
   45.1760   28.9120   47.6430 C   0  0  0  0  0  0  0  0  0  0  0  0
   45.0430   28.2570   46.4380 C   0  0  0  0  0  0  0  0  0  0  0  0
   45.2180   29.0330   45.2930 C   0  0  0  0  0  0  0  0  0  0  0  0
   45.5120   30.3870   45.3700 C   0  0  0  0  0  0  0  0  0  0  0  0
   45.6450   31.0160   46.5460 C   0  0  0  0  0  0  0  0  0  0  0  0
   45.1730   34.7850   44.0150 C   0  0  0  0  0  0  0  0  0  0  0  0
   46.3010   34.8670   43.1870 C   0  0  0  0  0  0  0  0  0  0  0  0
   47.3760   34.0490   43.5040 C   0  0  0  0  0  0  0  0  0  0  0  0
   47.2700   33.2400   44.5710 N   0  0  0  0  0  0  0  0  0  0  0  0
   46.1860   33.1680   45.3590 C   0  0  0  0  0  0  0  0  0  0  0  0
   45.1580   33.9580   45.0480 N   0  0  0  0  0  0  0  0  0  0  0  0
   43.9820   35.5390   43.8120 N   0  0  0  0  0  0  0  0  0  0  0  0
   45.5950   30.8430   43.9820 C   0  0  0  0  0  0  0  0  0  0  0  0
   46.9590   30.7800   43.1410 C   0  0  0  0  0  0  0  0  0  0  0  0
   46.4930   31.6040   41.6320 S   0  0  0  0  0  0  0  0  0  0  0  0
   44.7150   31.9200   42.2070 C   0  0  0  0  0  0  0  0  0  0  0  0
   44.6260   31.4580   43.3080 N   0  0  0  0  0  0  0  0  0  0  0  0
   46.3076   33.9575   47.9190 H   0  0  0  0  0  0  0  0  0  0  0  0
   46.0061   32.6826   49.9668 H   0  0  0  0  0  0  0  0  0  0  0  0
   45.4571   30.2483   49.8252 H   0  0  0  0  0  0  0  0  0  0  0  0
   45.0467   28.3600   48.5857 H   0  0  0  0  0  0  0  0  0  0  0  0
   44.8119   27.1830   46.3826 H   0  0  0  0  0  0  0  0  0  0  0  0
   45.1206   28.5604   44.3045 H   0  0  0  0  0  0  0  0  0  0  0  0
   46.3326   35.5492   42.3247 H   0  0  0  0  0  0  0  0  0  0  0  0
   48.2928   34.0627   42.8963 H   0  0  0  0  0  0  0  0  0  0  0  0
   43.9205   36.2033   43.0273 H   0  0  0  0  0  0  0  0  0  0  0  0
   43.1821   35.4200   44.4499 H   0  0  0  0  0  0  0  0  0  0  0  0
   47.9283   30.3426   43.4222 H   0  0  0  0  0  0  0  0  0  0  0  0
   43.9207   32.4281   41.6405 H   0  0  0  0  0  0  0  0  0  0  0  0
  1 10  1  0
  1  2  2  0
  2  3  1  0
  4  3  2  0
  5  4  1  0
  6  5  2  0
  7  6  1  0
  8  9  1  0
  8  7  2  0
  9 10  2  0
 10  5  1  0
 11 16  2  0
 12 13  2  0
 12 11  1  0
 13 14  1  0
 14 15  2  0
 15  1  1  0
 16 15  1  0
 17 11  1  0
 18  9  1  0
 19 18  2  0
 20 21  1  0
 20 19  1  0
 21 22  2  0
 22 18  1  0
  2 23  1  0
  3 24  1  0
  4 25  1  0
  6 26  1  0
  7 27  1  0
  8 28  1  0
 12 29  1  0
 13 30  1  0
 17 31  1  0
 17 32  1  0
 19 33  1  0
 21 34  1  0
M  ISO  8  23  14  24  14  25  14  26  14  27  14  28  14  29  14  30  14
M  ISO  2  33  14  34  14
M  END
>  <minimizedAffinity>  (1) 
-5.44578314

>  <minimizedRMSD>  (1) 
0.407881975

$$$$
