
     RDKit          3D

 34 37  0  0  0  0  0  0  0  0999 V2000
   45.9660   32.3400   46.5110 C   0  0  0  0  0  0  0  0  0  0  0  0
   46.0910   32.8800   47.8130 C   0  0  0  0  0  0  0  0  0  0  0  0
   45.9240   32.1730   48.9710 C   0  0  0  0  0  0  0  0  0  0  0  0
   45.6060   30.8270   48.8860 C   0  0  0  0  0  0  0  0  0  0  0  0
   45.4710   30.2500   47.6550 C   0  0  0  0  0  0  0  0  0  0  0  0
   45.1570   28.9150   47.6170 C   0  0  0  0  0  0  0  0  0  0  0  0
   45.0030   28.2680   46.4030 C   0  0  0  0  0  0  0  0  0  0  0  0
   45.1820   29.0480   45.2510 C   0  0  0  0  0  0  0  0  0  0  0  0
   45.4990   30.3920   45.3560 C   0  0  0  0  0  0  0  0  0  0  0  0
   45.6520   31.0160   46.5350 C   0  0  0  0  0  0  0  0  0  0  0  0
   45.1880   34.7650   43.9780 C   0  0  0  0  0  0  0  0  0  0  0  0
   46.3230   34.8610   43.1640 C   0  0  0  0  0  0  0  0  0  0  0  0
   47.4010   34.0550   43.5000 C   0  0  0  0  0  0  0  0  0  0  0  0
   47.2780   33.2560   44.5620 N   0  0  0  0  0  0  0  0  0  0  0  0
   46.1930   33.1620   45.3390 C   0  0  0  0  0  0  0  0  0  0  0  0
   45.1600   33.9390   45.0120 N   0  0  0  0  0  0  0  0  0  0  0  0
   43.9790   35.5250   43.7840 N   0  0  0  0  0  0  0  0  0  0  0  0
   45.5460   30.8320   43.9940 N   0  0  0  0  0  0  0  0  0  0  0  0
   46.6440   30.7530   43.1680 C   0  0  0  0  0  0  0  0  0  0  0  0
   46.3830   31.3080   41.9700 N   0  0  0  0  0  0  0  0  0  0  0  0
   45.1020   31.7280   42.0800 C   0  0  0  0  0  0  0  0  0  0  0  0
   44.5600   31.4520   43.3050 N   0  0  0  0  0  0  0  0  0  0  0  0
   46.3411   33.9477   47.8997 H   0  0  0  0  0  0  0  0  0  0  0  0
   46.0396   32.6622   49.9494 H   0  0  0  0  0  0  0  0  0  0  0  0
   45.4639   30.2301   49.7990 H   0  0  0  0  0  0  0  0  0  0  0  0
   45.0270   28.3562   48.5555 H   0  0  0  0  0  0  0  0  0  0  0  0
   44.7533   27.1983   46.3447 H   0  0  0  0  0  0  0  0  0  0  0  0
   45.0698   28.5891   44.2576 H   0  0  0  0  0  0  0  0  0  0  0  0
   46.3583   35.5418   42.3007 H   0  0  0  0  0  0  0  0  0  0  0  0
   48.3287   34.0739   42.9092 H   0  0  0  0  0  0  0  0  0  0  0  0
   43.9105   36.1933   43.0033 H   0  0  0  0  0  0  0  0  0  0  0  0
   43.1834   35.3998   44.4261 H   0  0  0  0  0  0  0  0  0  0  0  0
   47.6051   30.2977   43.4490 H   0  0  0  0  0  0  0  0  0  0  0  0
   44.5555   32.2363   41.2720 H   0  0  0  0  0  0  0  0  0  0  0  0
  1 10  1  0
  1  2  2  0
  2  3  1  0
  4  3  2  0
  5  4  1  0
  6  5  2  0
  7  6  1  0
  8  9  1  0
  8  7  2  0
  9 10  2  0
 10  5  1  0
 11 16  2  0
 12 13  2  0
 12 11  1  0
 13 14  1  0
 14 15  2  0
 15  1  1  0
 16 15  1  0
 17 11  1  0
 18  9  1  0
 19 18  1  0
 20 21  1  0
 20 19  2  0
 21 22  2  0
 22 18  1  0
  2 23  1  0
  3 24  1  0
  4 25  1  0
  6 26  1  0
  7 27  1  0
  8 28  1  0
 12 29  1  0
 13 30  1  0
 17 31  1  0
 17 32  1  0
 19 33  1  0
 21 34  1  0
M  ISO  8  23  14  24  14  25  14  26  14  27  14  28  14  29  14  30  14
M  ISO  2  33  14  34  14
M  END
>  <minimizedAffinity>  (1) 
-5.36957359

>  <minimizedRMSD>  (1) 
0.435738206

$$$$
