
     RDKit          3D

 51 55  0  0  0  0  0  0  0  0999 V2000
   46.4180   32.5210   45.6570 C   0  0  0  0  0  0  0  0  0  0  0  0
   46.9080   32.8530   46.9450 C   0  0  0  0  0  0  0  0  0  0  0  0
   47.1030   31.9440   47.9540 C   0  0  0  0  0  0  0  0  0  0  0  0
   46.8100   30.6290   47.7220 C   0  0  0  0  0  0  0  0  0  0  0  0
   46.3350   30.2590   46.4950 C   0  0  0  0  0  0  0  0  0  0  0  0
   46.0600   28.9250   46.3090 C   0  0  0  0  0  0  0  0  0  0  0  0
   45.5720   28.4800   45.0800 C   0  0  0  0  0  0  0  0  0  0  0  0
   45.3880   29.4530   44.0890 C   0  0  0  0  0  0  0  0  0  0  0  0
   45.6870   30.7850   44.3430 C   0  0  0  0  0  0  0  0  0  0  0  0
   46.1550   31.1980   45.5200 C   0  0  0  0  0  0  0  0  0  0  0  0
   44.8290   35.1990   43.8680 C   0  0  0  0  0  0  0  0  0  0  0  0
   45.7260   35.5910   42.8730 C   0  0  0  0  0  0  0  0  0  0  0  0
   46.9210   34.9130   42.8120 C   0  0  0  0  0  0  0  0  0  0  0  0
   47.1380   33.9390   43.6940 N   0  0  0  0  0  0  0  0  0  0  0  0
   46.2700   33.5570   44.6590 C   0  0  0  0  0  0  0  0  0  0  0  0
   45.1150   34.2190   44.7130 N   0  0  0  0  0  0  0  0  0  0  0  0
   43.5340   35.7970   44.0800 N   0  0  0  0  0  0  0  0  0  0  0  0
   45.3230   31.4570   43.0980 C   0  0  0  0  0  0  0  0  0  0  0  0
   44.0800   32.0590   42.7630 C   0  0  0  0  0  0  0  0  0  0  0  0
   43.8570   32.6240   41.5340 C   0  0  0  0  0  0  0  0  0  0  0  0
   44.8290   32.6290   40.5790 C   0  0  0  0  0  0  0  0  0  0  0  0
   46.0620   32.0730   40.8030 C   0  0  0  0  0  0  0  0  0  0  0  0
   46.2700   31.4970   42.0730 C   0  0  0  0  0  0  0  0  0  0  0  0
   47.6100   30.9480   42.1020 N   0  0  0  0  0  0  0  0  0  0  0  0
   48.1810   29.7400   42.6650 C   0  0  0  0  0  0  0  0  0  0  0  0
   49.2130   30.0630   43.6920 C   0  0  0  0  0  0  0  0  0  0  0  0
   50.2850   30.6750   43.0460 O   0  0  0  0  0  0  0  0  0  0  0  0
   49.8130   31.8730   42.5020 C   0  0  0  0  0  0  0  0  0  0  0  0
   48.7450   31.6510   41.4760 C   0  0  0  0  0  0  0  0  0  0  0  0
   47.1473   33.9072   47.1486 H   0  0  0  0  0  0  0  0  0  0  0  0
   47.4882   32.2675   48.9322 H   0  0  0  0  0  0  0  0  0  0  0  0
   46.9547   29.8782   48.5128 H   0  0  0  0  0  0  0  0  0  0  0  0
   46.2245   28.2094   47.1280 H   0  0  0  0  0  0  0  0  0  0  0  0
   45.3434   27.4194   44.8984 H   0  0  0  0  0  0  0  0  0  0  0  0
   45.0034   29.1593   43.1012 H   0  0  0  0  0  0  0  0  0  0  0  0
   45.4883   36.4037   42.1709 H   0  0  0  0  0  0  0  0  0  0  0  0
   47.6772   35.1683   42.0551 H   0  0  0  0  0  0  0  0  0  0  0  0
   43.2174   36.5679   43.4747 H   0  0  0  0  0  0  0  0  0  0  0  0
   42.9256   35.4532   44.8367 H   0  0  0  0  0  0  0  0  0  0  0  0
   43.2738   32.0720   43.5112 H   0  0  0  0  0  0  0  0  0  0  0  0
   42.8799   33.0796   41.3158 H   0  0  0  0  0  0  0  0  0  0  0  0
   44.6189   33.0911   39.6031 H   0  0  0  0  0  0  0  0  0  0  0  0
   46.8473   32.0761   40.0328 H   0  0  0  0  0  0  0  0  0  0  0  0
   47.3805   29.1486   43.1335 H   0  0  0  0  0  0  0  0  0  0  0  0
   48.6597   29.1693   41.8556 H   0  0  0  0  0  0  0  0  0  0  0  0
   48.7908   30.7460   44.4439 H   0  0  0  0  0  0  0  0  0  0  0  0
   49.5459   29.1466   44.2013 H   0  0  0  0  0  0  0  0  0  0  0  0
   49.4010   32.4914   43.3131 H   0  0  0  0  0  0  0  0  0  0  0  0
   50.6579   32.3721   42.0049 H   0  0  0  0  0  0  0  0  0  0  0  0
   49.1465   31.0416   40.6529 H   0  0  0  0  0  0  0  0  0  0  0  0
   48.4065   32.6195   41.0793 H   0  0  0  0  0  0  0  0  0  0  0  0
  1  2  2  0
  2  3  1  0
  4  3  2  0
  5  4  1  0
  6  5  2  0
  7  6  1  0
  8  9  1  0
  8  7  2  0
  9 10  2  0
 10  1  1  0
 10  5  1  0
 11 17  1  0
 11 16  2  0
 12 11  1  0
 13 12  2  0
 13 14  1  0
 14 15  2  0
 15 16  1  0
 15  1  1  0
 18  9  1  0
 19 18  2  0
 20 19  1  0
 21 22  1  0
 21 20  2  0
 22 23  2  0
 23 24  1  0
 23 18  1  0
 24 25  1  0
 25 26  1  0
 27 26  1  0
 28 27  1  0
 29 24  1  0
 29 28  1  0
  2 30  1  0
  3 31  1  0
  4 32  1  0
  6 33  1  0
  7 34  1  0
  8 35  1  0
 12 36  1  0
 13 37  1  0
 17 38  1  0
 17 39  1  0
 19 40  1  0
 20 41  1  0
 21 42  1  0
 22 43  1  0
 25 44  1  0
 25 45  1  0
 26 46  1  0
 26 47  1  0
 28 48  1  0
 28 49  1  0
 29 50  1  0
 29 51  1  0
M  ISO  8  30  14  31  14  32  14  33  14  34  14  35  14  36  14  37  14
M  ISO  8  40  14  41  14  42  14  43  14  44  13  45  13  46  13  47  13
M  ISO  4  48  13  49  13  50  13  51  13
M  END
>  <minimizedAffinity>  (1) 
-5.79410076

>  <minimizedRMSD>  (1) 
1.52005684

$$$$
