
     RDKit          3D

 47 51  0  0  0  0  0  0  0  0999 V2000
   46.4370   32.5240   45.7140 C   0  0  0  0  0  0  0  0  0  0  0  0
   46.8900   32.8800   47.0100 C   0  0  0  0  0  0  0  0  0  0  0  0
   47.0820   31.9800   48.0330 C   0  0  0  0  0  0  0  0  0  0  0  0
   46.8240   30.6550   47.8030 C   0  0  0  0  0  0  0  0  0  0  0  0
   46.3820   30.2550   46.5680 C   0  0  0  0  0  0  0  0  0  0  0  0
   46.1450   28.9280   46.3830 C   0  0  0  0  0  0  0  0  0  0  0  0
   45.7030   28.4590   45.1490 C   0  0  0  0  0  0  0  0  0  0  0  0
   45.5190   29.4150   44.1340 C   0  0  0  0  0  0  0  0  0  0  0  0
   45.7830   30.7570   44.4060 C   0  0  0  0  0  0  0  0  0  0  0  0
   46.2080   31.1870   45.5900 C   0  0  0  0  0  0  0  0  0  0  0  0
   44.8540   35.1920   43.9020 C   0  0  0  0  0  0  0  0  0  0  0  0
   45.7400   35.5600   42.8940 C   0  0  0  0  0  0  0  0  0  0  0  0
   46.9250   34.8670   42.8320 C   0  0  0  0  0  0  0  0  0  0  0  0
   47.1450   33.9050   43.7260 N   0  0  0  0  0  0  0  0  0  0  0  0
   46.2830   33.5470   44.7060 C   0  0  0  0  0  0  0  0  0  0  0  0
   45.1370   34.2230   44.7600 N   0  0  0  0  0  0  0  0  0  0  0  0
   43.5620   35.8050   44.1240 N   0  0  0  0  0  0  0  0  0  0  0  0
   45.4230   31.4120   43.1410 C   0  0  0  0  0  0  0  0  0  0  0  0
   44.2140   32.0970   42.8290 C   0  0  0  0  0  0  0  0  0  0  0  0
   43.9880   32.6350   41.5860 C   0  0  0  0  0  0  0  0  0  0  0  0
   44.9400   32.5260   40.5970 C   0  0  0  0  0  0  0  0  0  0  0  0
   46.1430   31.8820   40.8020 C   0  0  0  0  0  0  0  0  0  0  0  0
   46.3330   31.3450   42.0840 C   0  0  0  0  0  0  0  0  0  0  0  0
   47.6080   30.6670   42.2840 C   0  0  0  0  0  0  0  0  0  0  0  0
   48.6450   31.4560   42.7760 C   0  0  0  0  0  0  0  0  0  0  0  0
   49.8720   30.8620   42.9830 C   0  0  0  0  0  0  0  0  0  0  0  0
   50.0880   29.5300   42.7170 C   0  0  0  0  0  0  0  0  0  0  0  0
   49.0390   28.7740   42.2310 C   0  0  0  0  0  0  0  0  0  0  0  0
   47.8500   29.3670   42.0340 N   0  0  0  0  0  0  0  0  0  0  0  0
   47.1008   33.9410   47.2097 H   0  0  0  0  0  0  0  0  0  0  0  0
   47.4363   32.3188   49.0177 H   0  0  0  0  0  0  0  0  0  0  0  0
   46.9704   29.9157   48.6043 H   0  0  0  0  0  0  0  0  0  0  0  0
   46.3033   28.2227   47.2121 H   0  0  0  0  0  0  0  0  0  0  0  0
   45.5068   27.3906   44.9759 H   0  0  0  0  0  0  0  0  0  0  0  0
   45.1708   29.1076   43.1369 H   0  0  0  0  0  0  0  0  0  0  0  0
   45.5037   36.3651   42.1827 H   0  0  0  0  0  0  0  0  0  0  0  0
   47.6744   35.1015   42.0617 H   0  0  0  0  0  0  0  0  0  0  0  0
   43.2430   36.5699   43.5124 H   0  0  0  0  0  0  0  0  0  0  0  0
   42.9615   35.4764   44.8936 H   0  0  0  0  0  0  0  0  0  0  0  0
   43.4405   32.1978   43.6046 H   0  0  0  0  0  0  0  0  0  0  0  0
   43.0414   33.1558   41.3792 H   0  0  0  0  0  0  0  0  0  0  0  0
   44.7345   32.9671   39.6105 H   0  0  0  0  0  0  0  0  0  0  0  0
   46.9033   31.7953   40.0118 H   0  0  0  0  0  0  0  0  0  0  0  0
   48.4895   32.5230   42.9933 H   0  0  0  0  0  0  0  0  0  0  0  0
   50.7016   31.4707   43.3719 H   0  0  0  0  0  0  0  0  0  0  0  0
   51.0754   29.0762   42.8877 H   0  0  0  0  0  0  0  0  0  0  0  0
   49.1750   27.7052   42.0092 H   0  0  0  0  0  0  0  0  0  0  0  0
  1  2  2  0
  2  3  1  0
  4  3  2  0
  5  4  1  0
  6  5  2  0
  7  6  1  0
  8  9  1  0
  8  7  2  0
  9 10  2  0
 10  1  1  0
 10  5  1  0
 11 17  1  0
 11 16  2  0
 12 11  1  0
 13 12  2  0
 13 14  1  0
 14 15  2  0
 15 16  1  0
 15  1  1  0
 18  9  1  0
 19 18  2  0
 20 19  1  0
 21 22  1  0
 21 20  2  0
 22 23  2  0
 23 24  1  0
 23 18  1  0
 24 25  2  0
 25 26  1  0
 27 26  2  0
 28 27  1  0
 29 28  2  0
 29 24  1  0
  2 30  1  0
  3 31  1  0
  4 32  1  0
  6 33  1  0
  7 34  1  0
  8 35  1  0
 12 36  1  0
 13 37  1  0
 17 38  1  0
 17 39  1  0
 19 40  1  0
 20 41  1  0
 21 42  1  0
 22 43  1  0
 25 44  1  0
 26 45  1  0
 27 46  1  0
 28 47  1  0
M  ISO  8  30  14  31  14  32  14  33  14  34  14  35  14  36  14  37  14
M  ISO  8  40  14  41  14  42  14  43  14  44  14  45  14  46  14  47  14
M  END
>  <minimizedAffinity>  (1) 
-5.72655964

>  <minimizedRMSD>  (1) 
1.55431354

$$$$
