
     RDKit          3D

 50 53  0  0  0  0  0  0  0  0999 V2000
   45.9490   32.3330   46.5180 C   0  0  0  0  0  0  0  0  0  0  0  0
   46.0430   32.8900   47.8180 C   0  0  0  0  0  0  0  0  0  0  0  0
   45.8670   32.1980   48.9800 C   0  0  0  0  0  0  0  0  0  0  0  0
   45.5760   30.8530   48.9050 C   0  0  0  0  0  0  0  0  0  0  0  0
   45.4700   30.2550   47.6710 C   0  0  0  0  0  0  0  0  0  0  0  0
   45.1590   28.9200   47.6410 C   0  0  0  0  0  0  0  0  0  0  0  0
   45.0140   28.2630   46.4260 C   0  0  0  0  0  0  0  0  0  0  0  0
   45.2040   29.0420   45.2740 C   0  0  0  0  0  0  0  0  0  0  0  0
   45.5190   30.3770   45.3750 C   0  0  0  0  0  0  0  0  0  0  0  0
   45.6590   31.0110   46.5510 C   0  0  0  0  0  0  0  0  0  0  0  0
   45.2100   34.7520   43.9690 C   0  0  0  0  0  0  0  0  0  0  0  0
   46.3430   34.8390   43.1740 C   0  0  0  0  0  0  0  0  0  0  0  0
   47.4120   34.0340   43.5170 C   0  0  0  0  0  0  0  0  0  0  0  0
   47.2680   33.2490   44.5730 N   0  0  0  0  0  0  0  0  0  0  0  0
   46.1750   33.1560   45.3550 C   0  0  0  0  0  0  0  0  0  0  0  0
   45.1530   33.9370   45.0110 N   0  0  0  0  0  0  0  0  0  0  0  0
   44.0060   35.5170   43.7530 N   0  0  0  0  0  0  0  0  0  0  0  0
   45.6480   30.7960   43.9780 C   0  0  0  0  0  0  0  0  0  0  0  0
   44.6340   31.3900   43.1950 C   0  0  0  0  0  0  0  0  0  0  0  0
   44.7990   31.7020   41.8770 C   0  0  0  0  0  0  0  0  0  0  0  0
   45.9730   31.4440   41.2580 C   0  0  0  0  0  0  0  0  0  0  0  0
   47.0200   30.8700   41.9310 C   0  0  0  0  0  0  0  0  0  0  0  0
   46.8550   30.5450   43.3040 C   0  0  0  0  0  0  0  0  0  0  0  0
   48.0560   29.8840   43.8650 C   0  0  0  0  0  0  0  0  0  0  0  0
   49.3750   30.1000   43.2010 C   0  0  0  0  0  0  0  0  0  0  0  0
   48.2160   30.0010   45.3570 C   0  0  0  0  0  0  0  0  0  0  0  0
   47.9180   28.3320   43.6640 C   0  0  0  0  0  0  0  0  0  0  0  0
   46.2757   33.9623   47.8956 H   0  0  0  0  0  0  0  0  0  0  0  0
   45.9552   32.7015   49.9540 H   0  0  0  0  0  0  0  0  0  0  0  0
   45.4300   30.2639   49.8224 H   0  0  0  0  0  0  0  0  0  0  0  0
   45.0239   28.3674   48.5825 H   0  0  0  0  0  0  0  0  0  0  0  0
   44.7645   27.1932   46.3697 H   0  0  0  0  0  0  0  0  0  0  0  0
   45.1000   28.5804   44.2810 H   0  0  0  0  0  0  0  0  0  0  0  0
   46.3884   35.5180   42.3098 H   0  0  0  0  0  0  0  0  0  0  0  0
   48.3458   34.0449   42.9357 H   0  0  0  0  0  0  0  0  0  0  0  0
   43.9512   36.1800   42.9667 H   0  0  0  0  0  0  0  0  0  0  0  0
   43.2012   35.4002   44.3851 H   0  0  0  0  0  0  0  0  0  0  0  0
   43.6666   31.6114   43.6695 H   0  0  0  0  0  0  0  0  0  0  0  0
   43.9739   32.1651   41.3160 H   0  0  0  0  0  0  0  0  0  0  0  0
   46.0901   31.6995   40.1945 H   0  0  0  0  0  0  0  0  0  0  0  0
   47.9708   30.6647   41.4173 H   0  0  0  0  0  0  0  0  0  0  0  0
   50.1544   30.2276   43.9667 H   0  0  0  0  0  0  0  0  0  0  0  0
   49.6165   29.2294   42.5735 H   0  0  0  0  0  0  0  0  0  0  0  0
   49.3262   31.0021   42.5735 H   0  0  0  0  0  0  0  0  0  0  0  0
   47.4251   29.4227   45.8570 H   0  0  0  0  0  0  0  0  0  0  0  0
   49.2001   29.6079   45.6522 H   0  0  0  0  0  0  0  0  0  0  0  0
   48.1398   31.0579   45.6522 H   0  0  0  0  0  0  0  0  0  0  0  0
   47.8740   27.8376   44.6457 H   0  0  0  0  0  0  0  0  0  0  0  0
   46.9971   28.1154   43.1028 H   0  0  0  0  0  0  0  0  0  0  0  0
   48.7863   27.9563   43.1028 H   0  0  0  0  0  0  0  0  0  0  0  0
  1 10  1  0
  1  2  2  0
  2  3  1  0
  4  3  2  0
  5  4  1  0
  6  5  2  0
  7  6  1  0
  8  9  1  0
  8  7  2  0
  9 10  2  0
 10  5  1  0
 11 16  2  0
 12 13  2  0
 12 11  1  0
 13 14  1  0
 14 15  2  0
 15  1  1  0
 16 15  1  0
 17 11  1  0
 18  9  1  0
 19 18  2  0
 20 19  1  0
 21 20  2  0
 21 22  1  0
 22 23  2  0
 23 24  1  0
 23 18  1  0
 24 26  1  0
 25 24  1  0
 27 24  1  0
  2 28  1  0
  3 29  1  0
  4 30  1  0
  6 31  1  0
  7 32  1  0
  8 33  1  0
 12 34  1  0
 13 35  1  0
 17 36  1  0
 17 37  1  0
 19 38  1  0
 20 39  1  0
 21 40  1  0
 22 41  1  0
 25 42  1  0
 25 43  1  0
 25 44  1  0
 26 45  1  0
 26 46  1  0
 26 47  1  0
 27 48  1  0
 27 49  1  0
 27 50  1  0
M  ISO  8  28  14  29  14  30  14  31  14  32  14  33  14  34  14  35  14
M  ISO  8  38  14  39  14  40  14  41  14  42   8  43   8  44   8  45   8
M  ISO  5  46   8  47   8  48   8  49   8  50   8
M  END
>  <minimizedAffinity>  (1) 
-5.59460449

>  <minimizedRMSD>  (1) 
0.102020375

$$$$
