
     RDKit          3D

 37 39  0  0  0  0  0  0  0  0999 V2000
   47.3230   34.2340   40.2120 C   0  0  0  0  0  0  0  0  0  0  0  0
   48.2300   34.1590   39.1740 C   0  0  0  0  0  0  0  0  0  0  0  0
   47.9700   33.6940   37.9130 C   0  0  0  0  0  0  0  0  0  0  0  0
   46.7020   33.2740   37.6910 N   0  0  0  0  0  0  0  0  0  0  0  0
   45.7800   33.3380   38.7060 C   0  0  0  0  0  0  0  0  0  0  0  0
   46.0450   33.8000   39.9490 N   0  0  0  0  0  0  0  0  0  0  0  0
   44.4200   32.9240   38.5790 N   0  0  0  0  0  0  0  0  0  0  0  0
   43.4940   33.1580   39.5120 C   0  0  0  0  0  0  0  0  0  0  0  0
   42.2380   32.6930   39.2330 C   0  0  0  0  0  0  0  0  0  0  0  0
   41.1270   32.9020   40.2090 C   0  0  0  0  0  0  0  0  0  0  0  0
   41.9190   32.0240   38.0700 C   0  0  0  0  0  0  0  0  0  0  0  0
   40.7870   31.5900   37.7910 O   0  0  0  0  0  0  0  0  0  0  0  0
   42.9130   31.8360   37.1940 N   0  0  0  0  0  0  0  0  0  0  0  0
   44.1630   32.2710   37.4190 C   0  0  0  0  0  0  0  0  0  0  0  0
   45.0360   32.0460   36.5310 O   0  0  0  0  0  0  0  0  0  0  0  0
   47.6760   34.7380   41.5570 C   0  0  0  0  0  0  0  0  0  0  0  0
   47.1950   33.7460   42.5870 C   0  0  0  0  0  0  0  0  0  0  0  0
   44.6780   36.0200   44.2640 C   0  0  0  0  0  0  0  0  0  0  0  0
   45.5390   35.5010   43.2950 C   0  0  0  0  0  0  0  0  0  0  0  0
   46.2610   34.3540   43.5640 C   0  0  0  0  0  0  0  0  0  0  0  0
   46.1020   33.7640   44.7800 N   0  0  0  0  0  0  0  0  0  0  0  0
   45.2470   34.3000   45.7060 C   0  0  0  0  0  0  0  0  0  0  0  0
   44.5570   35.4020   45.4410 N   0  0  0  0  0  0  0  0  0  0  0  0
   49.2542   34.5041   39.3787 H   0  0  0  0  0  0  0  0  0  0  0  0
   48.7420   33.6635   37.1300 H   0  0  0  0  0  0  0  0  0  0  0  0
   43.7263   33.6909   40.4458 H   0  0  0  0  0  0  0  0  0  0  0  0
   41.5203   32.8280   41.2336 H   0  0  0  0  0  0  0  0  0  0  0  0
   40.6873   33.8986   40.0561 H   0  0  0  0  0  0  0  0  0  0  0  0
   40.3552   32.1333   40.0561 H   0  0  0  0  0  0  0  0  0  0  0  0
   42.7116   31.3391   36.3145 H   0  0  0  0  0  0  0  0  0  0  0  0
   48.7673   34.8525   41.6347 H   0  0  0  0  0  0  0  0  0  0  0  0
   47.2010   35.7154   41.7275 H   0  0  0  0  0  0  0  0  0  0  0  0
   46.6796   32.9227   42.0708 H   0  0  0  0  0  0  0  0  0  0  0  0
   48.0738   33.3863   43.1422 H   0  0  0  0  0  0  0  0  0  0  0  0
   44.1019   36.9342   44.0584 H   0  0  0  0  0  0  0  0  0  0  0  0
   45.6421   36.0031   42.3217 H   0  0  0  0  0  0  0  0  0  0  0  0
   45.1306   33.8097   46.6838 H   0  0  0  0  0  0  0  0  0  0  0  0
  1 16  1  0
  2  1  2  0
  3  2  1  0
  4  3  2  0
  4  5  1  0
  5  6  2  0
  6  1  1  0
  7  5  1  0
  7  8  1  0
  9  8  2  0
  9 10  1  0
 11  9  1  0
 12 11  2  0
 13 14  1  0
 13 11  1  0
 14  7  1  0
 15 14  2  0
 16 17  1  0
 17 20  1  0
 18 23  2  0
 19 20  2  0
 19 18  1  0
 20 21  1  0
 21 22  2  0
 23 22  1  0
  2 24  1  0
  3 25  1  0
  8 26  1  0
 10 27  1  0
 10 28  1  0
 10 29  1  0
 13 30  1  0
 16 31  1  0
 16 32  1  0
 17 33  1  0
 17 34  1  0
 18 35  1  0
 19 36  1  0
 22 37  1  0
M  ISO  8  24  14  25  14  26  14  27   8  28   8  29   8  30   9  31   8
M  ISO  6  32   8  33   8  34   8  35  14  36  14  37  14
M  END
>  <minimizedAffinity>  (1) 
-5.54826593

>  <minimizedRMSD>  (1) 
0.979448318

$$$$
