
     RDKit          3D

 37 39  0  0  0  0  0  0  0  0999 V2000
   46.6810   34.0140   40.5050 C   0  0  0  0  0  0  0  0  0  0  0  0
   47.3380   33.2420   39.5640 C   0  0  0  0  0  0  0  0  0  0  0  0
   46.7750   32.6050   38.4850 C   0  0  0  0  0  0  0  0  0  0  0  0
   45.4280   32.7730   38.3600 N   0  0  0  0  0  0  0  0  0  0  0  0
   44.7440   33.5330   39.2770 C   0  0  0  0  0  0  0  0  0  0  0  0
   45.3370   34.1390   40.3180 N   0  0  0  0  0  0  0  0  0  0  0  0
   40.5460   33.9690   38.7930 C   0  0  0  0  0  0  0  0  0  0  0  0
   41.2630   34.8970   39.5200 C   0  0  0  0  0  0  0  0  0  0  0  0
   42.6350   34.7610   39.6840 C   0  0  0  0  0  0  0  0  0  0  0  0
   43.3020   33.6950   39.1180 C   0  0  0  0  0  0  0  0  0  0  0  0
   42.5400   32.8040   38.4060 C   0  0  0  0  0  0  0  0  0  0  0  0
   41.1880   32.8900   38.2150 C   0  0  0  0  0  0  0  0  0  0  0  0
   38.8130   34.1510   38.5940 S   0  0  0  0  0  0  0  0  0  0  0  0
   38.1170   33.7080   39.8400 O   0  0  0  0  0  0  0  0  0  0  0  0
   38.2960   33.3450   37.4500 O   0  0  0  0  0  0  0  0  0  0  0  0
   47.3520   34.6730   41.6460 C   0  0  0  0  0  0  0  0  0  0  0  0
   47.2830   33.7590   42.8450 C   0  0  0  0  0  0  0  0  0  0  0  0
   44.6130   35.7360   44.6640 C   0  0  0  0  0  0  0  0  0  0  0  0
   45.4930   35.3270   43.6610 C   0  0  0  0  0  0  0  0  0  0  0  0
   46.3270   34.2440   43.8700 C   0  0  0  0  0  0  0  0  0  0  0  0
   46.2570   33.6110   45.0670 N   0  0  0  0  0  0  0  0  0  0  0  0
   45.3880   34.0240   46.0430 C   0  0  0  0  0  0  0  0  0  0  0  0
   44.5860   35.0790   45.8160 N   0  0  0  0  0  0  0  0  0  0  0  0
   48.4242   33.1261   39.6931 H   0  0  0  0  0  0  0  0  0  0  0  0
   47.3655   32.0056   37.7765 H   0  0  0  0  0  0  0  0  0  0  0  0
   40.7425   35.7530   39.9741 H   0  0  0  0  0  0  0  0  0  0  0  0
   43.1928   35.5075   40.2685 H   0  0  0  0  0  0  0  0  0  0  0  0
   43.0597   31.9483   37.9502 H   0  0  0  0  0  0  0  0  0  0  0  0
   40.6389   32.1374   37.6302 H   0  0  0  0  0  0  0  0  0  0  0  0
   38.5656   35.4743   38.3401 H   0  0  0  0  0  0  0  0  0  0  0  0
   48.4038   34.8710   41.3921 H   0  0  0  0  0  0  0  0  0  0  0  0
   46.8524   35.6262   41.8735 H   0  0  0  0  0  0  0  0  0  0  0  0
   46.9659   32.7603   42.5103 H   0  0  0  0  0  0  0  0  0  0  0  0
   48.2822   33.7312   43.3041 H   0  0  0  0  0  0  0  0  0  0  0  0
   43.9472   36.5962   44.5006 H   0  0  0  0  0  0  0  0  0  0  0  0
   45.5232   35.8668   42.7030 H   0  0  0  0  0  0  0  0  0  0  0  0
   45.3469   33.4953   47.0067 H   0  0  0  0  0  0  0  0  0  0  0  0
  1 16  1  0
  2  1  2  0
  3  2  1  0
  4  3  2  0
  4  5  1  0
  5  6  2  0
  6  1  1  0
  7  8  2  0
  8  9  1  0
 10  5  1  0
 10  9  2  0
 11 10  1  0
 12 11  2  0
 12  7  1  0
 13  7  1  0
 13 14  2  0
 15 13  2  0
 16 17  1  0
 17 20  1  0
 18 23  2  0
 19 20  2  0
 19 18  1  0
 20 21  1  0
 21 22  2  0
 23 22  1  0
  2 24  1  0
  3 25  1  0
  8 26  1  0
  9 27  1  0
 11 28  1  0
 12 29  1  0
 13 30  1  0
 16 31  1  0
 16 32  1  0
 17 33  1  0
 17 34  1  0
 18 35  1  0
 19 36  1  0
 22 37  1  0
M  ISO  8  24  14  25  14  26  14  27  14  28  14  29  14  30  11  31   8
M  ISO  6  32   8  33   8  34   8  35  14  36  14  37  14
M  END
>  <minimizedAffinity>  (1) 
-5.36975336

>  <minimizedRMSD>  (1) 
2.75064421

$$$$
