
     RDKit          3D

 47 50  0  0  0  0  0  0  0  0999 V2000
   46.4260   32.5100   45.7400 C   0  0  0  0  0  0  0  0  0  0  0  0
   46.8680   32.8770   47.0390 C   0  0  0  0  0  0  0  0  0  0  0  0
   47.0620   31.9890   48.0660 C   0  0  0  0  0  0  0  0  0  0  0  0
   46.8180   30.6580   47.8430 C   0  0  0  0  0  0  0  0  0  0  0  0
   46.3860   30.2460   46.6040 C   0  0  0  0  0  0  0  0  0  0  0  0
   46.1580   28.9140   46.4300 C   0  0  0  0  0  0  0  0  0  0  0  0
   45.7170   28.4390   45.1960 C   0  0  0  0  0  0  0  0  0  0  0  0
   45.5310   29.3950   44.1790 C   0  0  0  0  0  0  0  0  0  0  0  0
   45.7870   30.7370   44.4370 C   0  0  0  0  0  0  0  0  0  0  0  0
   46.2110   31.1790   45.6190 C   0  0  0  0  0  0  0  0  0  0  0  0
   44.8610   35.1700   43.9020 C   0  0  0  0  0  0  0  0  0  0  0  0
   45.7630   35.5300   42.8920 C   0  0  0  0  0  0  0  0  0  0  0  0
   46.9470   34.8330   42.8430 C   0  0  0  0  0  0  0  0  0  0  0  0
   47.1410   33.8850   43.7460 N   0  0  0  0  0  0  0  0  0  0  0  0
   46.2820   33.5290   44.7240 C   0  0  0  0  0  0  0  0  0  0  0  0
   45.1380   34.2050   44.7680 N   0  0  0  0  0  0  0  0  0  0  0  0
   43.5660   35.7860   44.1100 N   0  0  0  0  0  0  0  0  0  0  0  0
   45.4380   31.3830   43.1690 C   0  0  0  0  0  0  0  0  0  0  0  0
   44.2250   32.0430   42.8220 C   0  0  0  0  0  0  0  0  0  0  0  0
   44.0040   32.5710   41.5830 C   0  0  0  0  0  0  0  0  0  0  0  0
   44.9620   32.4780   40.6150 C   0  0  0  0  0  0  0  0  0  0  0  0
   46.1770   31.8580   40.8390 C   0  0  0  0  0  0  0  0  0  0  0  0
   46.3730   31.3230   42.1300 C   0  0  0  0  0  0  0  0  0  0  0  0
   47.6880   30.6380   42.2160 C   0  0  0  0  0  0  0  0  0  0  0  0
   47.6210   29.1370   42.2490 C   0  0  0  0  0  0  0  0  0  0  0  0
   48.4470   31.0600   43.4600 C   0  0  0  0  0  0  0  0  0  0  0  0
   47.0674   33.9411   47.2337 H   0  0  0  0  0  0  0  0  0  0  0  0
   47.4070   32.3379   49.0505 H   0  0  0  0  0  0  0  0  0  0  0  0
   46.9668   29.9250   48.6496 H   0  0  0  0  0  0  0  0  0  0  0  0
   46.3218   28.2141   47.2627 H   0  0  0  0  0  0  0  0  0  0  0  0
   45.5237   27.3697   45.0250 H   0  0  0  0  0  0  0  0  0  0  0  0
   45.1842   29.0810   43.1834 H   0  0  0  0  0  0  0  0  0  0  0  0
   45.5349   36.3311   42.1735 H   0  0  0  0  0  0  0  0  0  0  0  0
   47.7070   35.0556   42.0795 H   0  0  0  0  0  0  0  0  0  0  0  0
   43.2525   36.5474   43.4912 H   0  0  0  0  0  0  0  0  0  0  0  0
   42.9590   35.4624   44.8766 H   0  0  0  0  0  0  0  0  0  0  0  0
   43.4350   32.1308   43.5824 H   0  0  0  0  0  0  0  0  0  0  0  0
   43.0503   33.0734   41.3636 H   0  0  0  0  0  0  0  0  0  0  0  0
   44.7605   32.9107   39.6240 H   0  0  0  0  0  0  0  0  0  0  0  0
   46.9465   31.7858   40.0563 H   0  0  0  0  0  0  0  0  0  0  0  0
   48.1957   30.9445   41.2896 H   0  0  0  0  0  0  0  0  0  0  0  0
   47.6057   28.7935   43.2939 H   0  0  0  0  0  0  0  0  0  0  0  0
   46.7069   28.7995   41.7386 H   0  0  0  0  0  0  0  0  0  0  0  0
   48.5014   28.7194   41.7386 H   0  0  0  0  0  0  0  0  0  0  0  0
   47.8872   30.7488   44.3543 H   0  0  0  0  0  0  0  0  0  0  0  0
   49.4385   30.5836   43.4638 H   0  0  0  0  0  0  0  0  0  0  0  0
   48.5656   32.1536   43.4638 H   0  0  0  0  0  0  0  0  0  0  0  0
  1  2  2  0
  2  3  1  0
  4  3  2  0
  5  4  1  0
  6  5  2  0
  7  6  1  0
  8  9  1  0
  8  7  2  0
  9 10  2  0
 10  1  1  0
 10  5  1  0
 11 17  1  0
 11 16  2  0
 12 11  1  0
 13 12  2  0
 13 14  1  0
 14 15  2  0
 15 16  1  0
 15  1  1  0
 18  9  1  0
 19 18  2  0
 20 19  1  0
 21 22  1  0
 21 20  2  0
 22 23  2  0
 23 24  1  0
 23 18  1  0
 24 25  1  0
 24 26  1  0
  2 27  1  0
  3 28  1  0
  4 29  1  0
  6 30  1  0
  7 31  1  0
  8 32  1  0
 12 33  1  0
 13 34  1  0
 17 35  1  0
 17 36  1  0
 19 37  1  0
 20 38  1  0
 21 39  1  0
 22 40  1  0
 24 41  1  0
 25 42  1  0
 25 43  1  0
 25 44  1  0
 26 45  1  0
 26 46  1  0
 26 47  1  0
M  ISO  8  27  14  28  14  29  14  30  14  31  14  32  14  33  14  34  14
M  ISO  8  37  14  38  14  39  14  40  14  41   8  42   8  43   8  44   8
M  ISO  3  45   8  46   8  47   8
M  END
>  <minimizedAffinity>  (1) 
-5.4488039

>  <minimizedRMSD>  (1) 
1.31407666

$$$$
