
     RDKit          3D

 41 44  0  0  0  0  0  0  0  0999 V2000
   45.9540   32.3470   46.4890 C   0  0  0  0  0  0  0  0  0  0  0  0
   46.0440   32.9150   47.7880 C   0  0  0  0  0  0  0  0  0  0  0  0
   45.8660   32.2170   48.9490 C   0  0  0  0  0  0  0  0  0  0  0  0
   45.5810   30.8630   48.8770 C   0  0  0  0  0  0  0  0  0  0  0  0
   45.4850   30.2800   47.6520 C   0  0  0  0  0  0  0  0  0  0  0  0
   45.2140   28.9420   47.6260 C   0  0  0  0  0  0  0  0  0  0  0  0
   45.1130   28.2640   46.4120 C   0  0  0  0  0  0  0  0  0  0  0  0
   45.3020   29.0270   45.2450 C   0  0  0  0  0  0  0  0  0  0  0  0
   45.5740   30.3890   45.3570 C   0  0  0  0  0  0  0  0  0  0  0  0
   45.6700   31.0220   46.5220 C   0  0  0  0  0  0  0  0  0  0  0  0
   45.1940   34.7620   43.9430 C   0  0  0  0  0  0  0  0  0  0  0  0
   46.3290   34.8590   43.1450 C   0  0  0  0  0  0  0  0  0  0  0  0
   47.3990   34.0680   43.4880 C   0  0  0  0  0  0  0  0  0  0  0  0
   47.2810   33.2700   44.5490 N   0  0  0  0  0  0  0  0  0  0  0  0
   46.1760   33.1740   45.3280 C   0  0  0  0  0  0  0  0  0  0  0  0
   45.1490   33.9460   44.9830 N   0  0  0  0  0  0  0  0  0  0  0  0
   43.9920   35.5190   43.7170 N   0  0  0  0  0  0  0  0  0  0  0  0
   45.6350   30.8160   43.9540 C   0  0  0  0  0  0  0  0  0  0  0  0
   44.6050   31.4130   43.1710 C   0  0  0  0  0  0  0  0  0  0  0  0
   44.7910   31.7290   41.8500 C   0  0  0  0  0  0  0  0  0  0  0  0
   45.9990   31.4710   41.2420 C   0  0  0  0  0  0  0  0  0  0  0  0
   47.0580   30.8990   41.9030 C   0  0  0  0  0  0  0  0  0  0  0  0
   46.8260   30.5900   43.2540 C   0  0  0  0  0  0  0  0  0  0  0  0
   47.9620   29.9710   43.9840 C   0  0  0  0  0  0  0  0  0  0  0  0
   46.2722   33.9884   47.8642 H   0  0  0  0  0  0  0  0  0  0  0  0
   45.9475   32.7210   49.9234 H   0  0  0  0  0  0  0  0  0  0  0  0
   45.4352   30.2712   49.7927 H   0  0  0  0  0  0  0  0  0  0  0  0
   45.0743   28.3949   48.5700 H   0  0  0  0  0  0  0  0  0  0  0  0
   44.8964   27.1864   46.3687 H   0  0  0  0  0  0  0  0  0  0  0  0
   45.2357   28.5532   44.2545 H   0  0  0  0  0  0  0  0  0  0  0  0
   46.3683   35.5372   42.2798 H   0  0  0  0  0  0  0  0  0  0  0  0
   48.3294   34.0928   42.9017 H   0  0  0  0  0  0  0  0  0  0  0  0
   43.9398   36.1792   42.9281 H   0  0  0  0  0  0  0  0  0  0  0  0
   43.1834   35.4009   44.3440 H   0  0  0  0  0  0  0  0  0  0  0  0
   43.6330   31.6264   43.6398 H   0  0  0  0  0  0  0  0  0  0  0  0
   43.9740   32.1893   41.2751 H   0  0  0  0  0  0  0  0  0  0  0  0
   46.1211   31.7344   40.1810 H   0  0  0  0  0  0  0  0  0  0  0  0
   48.0202   30.6969   41.4097 H   0  0  0  0  0  0  0  0  0  0  0  0
   47.7949   30.0621   45.0674 H   0  0  0  0  0  0  0  0  0  0  0  0
   48.0364   28.9076   43.7126 H   0  0  0  0  0  0  0  0  0  0  0  0
   48.8959   30.4849   43.7126 H   0  0  0  0  0  0  0  0  0  0  0  0
  1 10  1  0
  1  2  2  0
  2  3  1  0
  4  3  2  0
  5  4  1  0
  6  5  2  0
  7  6  1  0
  8  9  1  0
  8  7  2  0
  9 10  2  0
 10  5  1  0
 11 16  2  0
 12 13  2  0
 12 11  1  0
 13 14  1  0
 14 15  2  0
 15  1  1  0
 16 15  1  0
 17 11  1  0
 18  9  1  0
 19 18  2  0
 20 19  1  0
 21 20  2  0
 21 22  1  0
 22 23  2  0
 23 18  1  0
 23 24  1  0
  2 25  1  0
  3 26  1  0
  4 27  1  0
  6 28  1  0
  7 29  1  0
  8 30  1  0
 12 31  1  0
 13 32  1  0
 17 33  1  0
 17 34  1  0
 19 35  1  0
 20 36  1  0
 21 37  1  0
 22 38  1  0
 24 39  1  0
 24 40  1  0
 24 41  1  0
M  ISO  8  25  14  26  14  27  14  28  14  29  14  30  14  31  14  32  14
M  ISO  7  35  14  36  14  37  14  38  14  39   8  40   8  41   8
M  END
>  <minimizedAffinity>  (1) 
-5.55157185

>  <minimizedRMSD>  (1) 
0.0691305995

$$$$
