
     RDKit          3D

 39 42  0  0  0  0  0  0  0  0999 V2000
   45.9570   32.3490   46.4800 C   0  0  0  0  0  0  0  0  0  0  0  0
   46.0530   32.9130   47.7820 C   0  0  0  0  0  0  0  0  0  0  0  0
   45.8720   32.2070   48.9440 C   0  0  0  0  0  0  0  0  0  0  0  0
   45.5800   30.8710   48.8640 C   0  0  0  0  0  0  0  0  0  0  0  0
   45.4760   30.2740   47.6390 C   0  0  0  0  0  0  0  0  0  0  0  0
   45.1930   28.9450   47.6060 C   0  0  0  0  0  0  0  0  0  0  0  0
   45.0800   28.2710   46.3970 C   0  0  0  0  0  0  0  0  0  0  0  0
   45.2730   29.0390   45.2270 C   0  0  0  0  0  0  0  0  0  0  0  0
   45.5570   30.3960   45.3430 C   0  0  0  0  0  0  0  0  0  0  0  0
   45.6640   31.0220   46.5110 C   0  0  0  0  0  0  0  0  0  0  0  0
   45.1910   34.7700   43.9440 C   0  0  0  0  0  0  0  0  0  0  0  0
   46.3260   34.8710   43.1490 C   0  0  0  0  0  0  0  0  0  0  0  0
   47.4000   34.0830   43.4860 C   0  0  0  0  0  0  0  0  0  0  0  0
   47.2820   33.2800   44.5430 N   0  0  0  0  0  0  0  0  0  0  0  0
   46.1780   33.1780   45.3210 C   0  0  0  0  0  0  0  0  0  0  0  0
   45.1470   33.9490   44.9820 N   0  0  0  0  0  0  0  0  0  0  0  0
   43.9800   35.5200   43.7330 N   0  0  0  0  0  0  0  0  0  0  0  0
   45.6200   30.8280   43.9410 C   0  0  0  0  0  0  0  0  0  0  0  0
   44.5660   31.3600   43.1420 C   0  0  0  0  0  0  0  0  0  0  0  0
   44.7490   31.6920   41.8260 C   0  0  0  0  0  0  0  0  0  0  0  0
   45.9800   31.5160   41.2300 C   0  0  0  0  0  0  0  0  0  0  0  0
   47.0600   31.0120   41.9080 C   0  0  0  0  0  0  0  0  0  0  0  0
   46.8310   30.6850   43.2550 C   0  0  0  0  0  0  0  0  0  0  0  0
   47.9140   30.1730   43.9590 O   0  0  0  0  0  0  0  0  0  0  0  0
   46.2876   33.9847   47.8624 H   0  0  0  0  0  0  0  0  0  0  0  0
   45.9596   32.7041   49.9214 H   0  0  0  0  0  0  0  0  0  0  0  0
   45.4300   30.2819   49.7808 H   0  0  0  0  0  0  0  0  0  0  0  0
   45.0517   28.3963   48.5489 H   0  0  0  0  0  0  0  0  0  0  0  0
   44.8522   27.1958   46.3527 H   0  0  0  0  0  0  0  0  0  0  0  0
   45.1995   28.5692   44.2351 H   0  0  0  0  0  0  0  0  0  0  0  0
   46.3632   35.5528   42.2865 H   0  0  0  0  0  0  0  0  0  0  0  0
   48.3305   34.1141   42.9001 H   0  0  0  0  0  0  0  0  0  0  0  0
   43.9164   36.1858   42.9497 H   0  0  0  0  0  0  0  0  0  0  0  0
   43.1773   35.3907   44.3654 H   0  0  0  0  0  0  0  0  0  0  0  0
   43.5753   31.5084   43.5965 H   0  0  0  0  0  0  0  0  0  0  0  0
   43.9109   32.1006   41.2423 H   0  0  0  0  0  0  0  0  0  0  0  0
   46.1000   31.7901   40.1715 H   0  0  0  0  0  0  0  0  0  0  0  0
   48.0405   30.8730   41.4291 H   0  0  0  0  0  0  0  0  0  0  0  0
   47.8122   29.9246   44.9119 H   0  0  0  0  0  0  0  0  0  0  0  0
  1 10  1  0
  1  2  2  0
  2  3  1  0
  4  3  2  0
  5  4  1  0
  6  5  2  0
  7  6  1  0
  8  9  1  0
  8  7  2  0
  9 10  2  0
 10  5  1  0
 11 16  2  0
 12 13  2  0
 12 11  1  0
 13 14  1  0
 14 15  2  0
 15  1  1  0
 16 15  1  0
 17 11  1  0
 18  9  1  0
 19 18  2  0
 20 19  1  0
 21 20  2  0
 21 22  1  0
 22 23  2  0
 23 18  1  0
 23 24  1  0
  2 25  1  0
  3 26  1  0
  4 27  1  0
  6 28  1  0
  7 29  1  0
  8 30  1  0
 12 31  1  0
 13 32  1  0
 17 33  1  0
 17 34  1  0
 19 35  1  0
 20 36  1  0
 21 37  1  0
 22 38  1  0
 24 39  1  0
M  ISO  8  25  14  26  14  27  14  28  14  29  14  30  14  31  14  32  14
M  ISO  5  35  14  36  14  37  14  38  14  39   3
M  END
>  <minimizedAffinity>  (1) 
-5.50977182

>  <minimizedRMSD>  (1) 
0.107961223

$$$$
