
     RDKit          3D

 26 28  0  0  0  0  0  0  0  0999 V2000
   47.2470   34.9510   41.9150 C   0  0  0  0  0  0  0  0  0  0  0  0
   48.4950   35.5420   41.7830 C   0  0  0  0  0  0  0  0  0  0  0  0
   48.9730   35.2870   40.5430 N   0  0  0  0  0  0  0  0  0  0  0  0
   48.0530   34.5510   39.9000 C   0  0  0  0  0  0  0  0  0  0  0  0
   48.0760   34.0400   38.6090 C   0  0  0  0  0  0  0  0  0  0  0  0
   46.9970   33.3100   38.1860 C   0  0  0  0  0  0  0  0  0  0  0  0
   45.8690   33.0380   38.9490 C   0  0  0  0  0  0  0  0  0  0  0  0
   45.9110   33.5780   40.2270 C   0  0  0  0  0  0  0  0  0  0  0  0
   46.9560   34.3170   40.7200 C   0  0  0  0  0  0  0  0  0  0  0  0
   45.7030   34.0180   45.1780 C   0  0  0  0  0  0  0  0  0  0  0  0
   46.5370   33.9910   44.0550 C   0  0  0  0  0  0  0  0  0  0  0  0
   46.3770   34.9780   43.0890 C   0  0  0  0  0  0  0  0  0  0  0  0
   45.4150   35.9260   43.2810 N   0  0  0  0  0  0  0  0  0  0  0  0
   44.6280   35.9170   44.3810 C   0  0  0  0  0  0  0  0  0  0  0  0
   44.7700   34.9700   45.3240 N   0  0  0  0  0  0  0  0  0  0  0  0
   45.9260   32.9540   46.1510 C   0  0  0  0  0  0  0  0  0  0  0  0
   46.9820   32.8170   46.8220 O   0  0  0  0  0  0  0  0  0  0  0  0
   49.0122   36.1236   42.5603 H   0  0  0  0  0  0  0  0  0  0  0  0
   49.8773   35.6003   40.1623 H   0  0  0  0  0  0  0  0  0  0  0  0
   48.9355   34.2163   37.9456 H   0  0  0  0  0  0  0  0  0  0  0  0
   47.0262   32.9080   37.1625 H   0  0  0  0  0  0  0  0  0  0  0  0
   45.0194   32.4482   38.5746 H   0  0  0  0  0  0  0  0  0  0  0  0
   45.0495   33.4017   40.8879 H   0  0  0  0  0  0  0  0  0  0  0  0
   47.3008   33.2079   43.9392 H   0  0  0  0  0  0  0  0  0  0  0  0
   43.8610   36.6956   44.5055 H   0  0  0  0  0  0  0  0  0  0  0  0
   45.1185   32.2238   46.3085 H   0  0  0  0  0  0  0  0  0  0  0  0
  1 12  1  0
  2  1  2  0
  3  2  1  0
  4  3  1  0
  4  9  2  0
  5  4  1  0
  6  5  2  0
  6  7  1  0
  7  8  2  0
  8  9  1  0
  9  1  1  0
 10 15  2  0
 10 16  1  0
 11 10  1  0
 12 13  1  0
 12 11  2  0
 13 14  2  0
 14 15  1  0
 16 17  2  0
  2 18  1  0
  3 19  1  0
  5 20  1  0
  6 21  1  0
  7 22  1  0
  8 23  1  0
 11 24  1  0
 14 25  1  0
 16 26  1  0
M  ISO  8  18  14  19   9  20  14  21  14  22  14  23  14  24  14  25  14
M  ISO  1  26   6
M  END
>  <minimizedAffinity>  (1) 
-5.89211845

>  <minimizedRMSD>  (1) 
2.3214128

$$$$
