
     RDKit          3D

 27 29  0  0  0  0  0  0  0  0999 V2000
   47.7040   34.6150   41.6190 C   0  0  0  0  0  0  0  0  0  0  0  0
   48.6970   35.5620   41.4000 C   0  0  0  0  0  0  0  0  0  0  0  0
   48.9900   35.5920   40.0890 N   0  0  0  0  0  0  0  0  0  0  0  0
   48.2110   34.6920   39.4760 C   0  0  0  0  0  0  0  0  0  0  0  0
   48.1310   34.3420   38.1300 C   0  0  0  0  0  0  0  0  0  0  0  0
   47.2350   33.3740   37.7680 C   0  0  0  0  0  0  0  0  0  0  0  0
   46.3880   32.7050   38.6430 C   0  0  0  0  0  0  0  0  0  0  0  0
   46.5090   33.0900   39.9650 C   0  0  0  0  0  0  0  0  0  0  0  0
   47.3740   34.0410   40.4040 C   0  0  0  0  0  0  0  0  0  0  0  0
   45.4920   34.7400   44.6250 C   0  0  0  0  0  0  0  0  0  0  0  0
   46.0770   35.0760   43.3930 C   0  0  0  0  0  0  0  0  0  0  0  0
   47.0950   34.2650   42.9050 C   0  0  0  0  0  0  0  0  0  0  0  0
   47.4940   33.1710   43.6320 N   0  0  0  0  0  0  0  0  0  0  0  0
   46.8930   32.8920   44.8210 C   0  0  0  0  0  0  0  0  0  0  0  0
   45.9060   33.6530   45.3240 N   0  0  0  0  0  0  0  0  0  0  0  0
   44.4080   35.5990   45.1530 C   0  0  0  0  0  0  0  0  0  0  0  0
   49.1671   36.1860   42.1744 H   0  0  0  0  0  0  0  0  0  0  0  0
   49.6887   36.1987   39.6367 H   0  0  0  0  0  0  0  0  0  0  0  0
   48.7702   34.8302   37.3796 H   0  0  0  0  0  0  0  0  0  0  0  0
   47.1808   33.1046   36.7029 H   0  0  0  0  0  0  0  0  0  0  0  0
   45.6792   31.9322   38.3108 H   0  0  0  0  0  0  0  0  0  0  0  0
   45.8651   32.5958   40.7074 H   0  0  0  0  0  0  0  0  0  0  0  0
   45.7384   35.9577   42.8292 H   0  0  0  0  0  0  0  0  0  0  0  0
   47.2271   32.0122   45.3905 H   0  0  0  0  0  0  0  0  0  0  0  0
   44.4294   35.5820   46.2527 H   0  0  0  0  0  0  0  0  0  0  0  0
   44.5524   36.6305   44.7993 H   0  0  0  0  0  0  0  0  0  0  0  0
   43.4368   35.2227   44.7993 H   0  0  0  0  0  0  0  0  0  0  0  0
  1 12  1  0
  2  1  2  0
  3  2  1  0
  4  3  1  0
  4  9  2  0
  5  4  1  0
  6  5  2  0
  6  7  1  0
  7  8  2  0
  8  9  1  0
  9  1  1  0
 10 16  1  0
 10 15  2  0
 11 10  1  0
 12 11  2  0
 12 13  1  0
 13 14  2  0
 14 15  1  0
  2 17  1  0
  3 18  1  0
  5 19  1  0
  6 20  1  0
  7 21  1  0
  8 22  1  0
 11 23  1  0
 14 24  1  0
 16 25  1  0
 16 26  1  0
 16 27  1  0
M  ISO  8  17  14  18   9  19  14  20  14  21  14  22  14  23  14  24  14
M  ISO  3  25   8  26   8  27   8
M  END
>  <minimizedAffinity>  (1) 
-5.20435762

>  <minimizedRMSD>  (1) 
1.05849707

$$$$
