
     RDKit          3D

 37 41  0  0  1  0  0  0  0  0999 V2000
   45.8330   33.8140   45.4920 C   0  0  0  0  0  0  0  0  0  0  0  0
   46.6410   33.8110   44.3550 C   0  0  0  0  0  0  0  0  0  0  0  0
   46.3950   34.7630   43.3660 C   0  0  0  0  0  0  0  0  0  0  0  0
   45.3760   35.6550   43.5530 N   0  0  0  0  0  0  0  0  0  0  0  0
   44.6030   35.6390   44.6650 C   0  0  0  0  0  0  0  0  0  0  0  0
   44.8330   34.7200   45.6310 N   0  0  0  0  0  0  0  0  0  0  0  0
   47.2300   34.7700   42.1780 C   0  0  0  0  0  0  0  0  0  0  0  0
   48.5060   35.3380   42.0600 C   0  0  0  0  0  0  0  0  0  0  0  0
   48.9580   35.1390   40.8000 N   0  0  0  0  0  0  0  0  0  0  0  0
   47.9830   34.4560   40.1340 C   0  0  0  0  0  0  0  0  0  0  0  0
   47.9650   34.0140   38.8170 C   0  0  0  0  0  0  0  0  0  0  0  0
   46.8620   33.3410   38.3650 C   0  0  0  0  0  0  0  0  0  0  0  0
   45.7510   33.0730   39.1590 C   0  0  0  0  0  0  0  0  0  0  0  0
   45.8420   33.5410   40.4510 C   0  0  0  0  0  0  0  0  0  0  0  0
   46.9010   34.2110   40.9560 C   0  0  0  0  0  0  0  0  0  0  0  0
   46.0100   32.9130   46.5060 O   0  0  0  0  0  0  0  0  0  0  0  0
   45.3100   32.8870   47.7100 C   0  0  1  0  0  0  0  0  0  0  0  0
   44.7620   31.5730   48.1560 C   0  0  0  0  0  0  0  0  0  0  0  0
   45.9870   32.1290   48.8210 C   0  0  1  0  0  0  0  0  0  0  0  0
   47.2240   31.3650   48.5710 C   0  0  0  0  0  0  0  0  0  0  0  0
   48.4840   31.7670   48.8130 N   0  0  0  0  0  0  0  0  0  0  0  0
   49.3270   30.8600   48.4800 O   0  0  0  0  0  0  0  0  0  0  0  0
   48.6030   29.8540   48.0130 C   0  0  0  0  0  0  0  0  0  0  0  0
   47.2680   30.1380   48.0550 N   0  0  0  0  0  0  0  0  0  0  0  0
   47.4517   33.0763   44.2413 H   0  0  0  0  0  0  0  0  0  0  0  0
   43.7905   36.3711   44.7825 H   0  0  0  0  0  0  0  0  0  0  0  0
   49.0508   35.8600   42.8605 H   0  0  0  0  0  0  0  0  0  0  0  0
   49.8642   35.4446   40.4174 H   0  0  0  0  0  0  0  0  0  0  0  0
   48.8200   34.2011   38.1508 H   0  0  0  0  0  0  0  0  0  0  0  0
   46.8534   32.9944   37.3211 H   0  0  0  0  0  0  0  0  0  0  0  0
   44.8703   32.5306   38.7845 H   0  0  0  0  0  0  0  0  0  0  0  0
   44.9897   33.3557   41.1212 H   0  0  0  0  0  0  0  0  0  0  0  0
   44.8798   33.8914   47.5832 H   0  0  0  0  0  0  0  0  0  0  0  0
   43.8096   31.5334   48.7050 H   0  0  0  0  0  0  0  0  0  0  0  0
   44.5143   30.6258   47.6546 H   0  0  0  0  0  0  0  0  0  0  0  0
   46.3073   32.4175   49.8330 H   0  0  0  0  0  0  0  0  0  0  0  0
   49.0239   28.9092   47.6386 H   0  0  0  0  0  0  0  0  0  0  0  0
  1  6  1  0
  1 16  1  0
  2  1  2  0
  3  4  2  0
  3  2  1  0
  4  5  1  0
  5  6  2  0
  7  3  1  0
  8  7  2  0
  9  8  1  0
 10  9  1  0
 10 15  2  0
 11 10  1  0
 12 11  2  0
 12 13  1  0
 13 14  2  0
 14 15  1  0
 15  7  1  0
 16 17  1  0
 17 18  1  0
 17 19  1  0
 18 19  1  0
 20 21  2  0
 20 19  1  0
 22 21  1  0
 23 24  2  0
 23 22  1  0
 24 20  1  0
  2 25  1  0
  5 26  1  0
  8 27  1  0
  9 28  1  0
 11 29  1  0
 12 30  1  0
 13 31  1  0
 14 32  1  0
 17 33  1  1
 18 34  1  0
 18 35  1  0
 19 36  1  1
 23 37  1  0
M  ISO  8  25  14  26  14  27  14  28   9  29  14  30  14  31  14  32  14
M  ISO  5  33  13  34  13  35  13  36  13  37  14
M  END
>  <minimizedAffinity>  (1) 
-6.84733343

>  <minimizedRMSD>  (1) 
0.432359964

$$$$
