
     RDKit          3D

 40 44  0  0  1  0  0  0  0  0999 V2000
   45.7960   33.8000   45.3740 C   0  0  0  0  0  0  0  0  0  0  0  0
   46.6140   33.8140   44.2270 C   0  0  0  0  0  0  0  0  0  0  0  0
   46.3820   34.8280   43.2910 C   0  0  0  0  0  0  0  0  0  0  0  0
   45.3920   35.7390   43.5270 N   0  0  0  0  0  0  0  0  0  0  0  0
   44.6260   35.6940   44.6370 C   0  0  0  0  0  0  0  0  0  0  0  0
   44.8260   34.7280   45.5590 N   0  0  0  0  0  0  0  0  0  0  0  0
   47.2150   34.8620   42.1020 C   0  0  0  0  0  0  0  0  0  0  0  0
   48.4530   35.5060   41.9650 C   0  0  0  0  0  0  0  0  0  0  0  0
   48.9190   35.3150   40.7210 N   0  0  0  0  0  0  0  0  0  0  0  0
   47.9950   34.5570   40.0620 C   0  0  0  0  0  0  0  0  0  0  0  0
   48.0100   34.0930   38.7650 C   0  0  0  0  0  0  0  0  0  0  0  0
   46.9550   33.3390   38.3180 C   0  0  0  0  0  0  0  0  0  0  0  0
   45.8490   33.0110   39.1210 C   0  0  0  0  0  0  0  0  0  0  0  0
   45.9130   33.5140   40.4030 C   0  0  0  0  0  0  0  0  0  0  0  0
   46.9360   34.2660   40.8930 C   0  0  0  0  0  0  0  0  0  0  0  0
   45.9680   32.8270   46.3410 O   0  0  0  0  0  0  0  0  0  0  0  0
   45.4420   32.8820   47.6190 C   0  0  1  0  0  0  0  0  0  0  0  0
   44.8000   31.6670   48.1710 C   0  0  0  0  0  0  0  0  0  0  0  0
   46.1480   32.0910   48.6780 C   0  0  1  0  0  0  0  0  0  0  0  0
   47.3350   31.2900   48.4190 C   0  0  0  0  0  0  0  0  0  0  0  0
   47.4740   30.3260   47.4450 C   0  0  0  0  0  0  0  0  0  0  0  0
   48.6190   29.5820   47.2270 C   0  0  0  0  0  0  0  0  0  0  0  0
   49.7050   29.7830   48.0040 N   0  0  0  0  0  0  0  0  0  0  0  0
   49.5730   30.7340   48.9690 C   0  0  0  0  0  0  0  0  0  0  0  0
   48.4570   31.4560   49.1780 N   0  0  0  0  0  0  0  0  0  0  0  0
   47.4008   33.0606   44.0739 H   0  0  0  0  0  0  0  0  0  0  0  0
   43.8375   36.4454   44.7910 H   0  0  0  0  0  0  0  0  0  0  0  0
   48.9627   36.0784   42.7540 H   0  0  0  0  0  0  0  0  0  0  0  0
   49.8053   35.6724   40.3368 H   0  0  0  0  0  0  0  0  0  0  0  0
   48.8543   34.3234   38.0987 H   0  0  0  0  0  0  0  0  0  0  0  0
   46.9755   32.9733   37.2808 H   0  0  0  0  0  0  0  0  0  0  0  0
   45.0055   32.4054   38.7580 H   0  0  0  0  0  0  0  0  0  0  0  0
   45.0752   33.2910   41.0800 H   0  0  0  0  0  0  0  0  0  0  0  0
   45.1267   33.9293   47.5017 H   0  0  0  0  0  0  0  0  0  0  0  0
   43.9158   31.7593   48.8188 H   0  0  0  0  0  0  0  0  0  0  0  0
   44.3890   30.7424   47.7395 H   0  0  0  0  0  0  0  0  0  0  0  0
   46.5903   32.3348   49.6552 H   0  0  0  0  0  0  0  0  0  0  0  0
   46.6099   30.1337   46.7920 H   0  0  0  0  0  0  0  0  0  0  0  0
   48.6451   28.8301   46.4245 H   0  0  0  0  0  0  0  0  0  0  0  0
   50.4372   30.9252   49.6221 H   0  0  0  0  0  0  0  0  0  0  0  0
  1  6  1  0
  1 16  1  0
  2  1  2  0
  3  4  2  0
  3  2  1  0
  4  5  1  0
  5  6  2  0
  7  3  1  0
  8  7  2  0
  9  8  1  0
 10  9  1  0
 10 15  2  0
 11 10  1  0
 12 11  2  0
 12 13  1  0
 13 14  2  0
 14 15  1  0
 15  7  1  0
 16 17  1  0
 17 18  1  0
 17 19  1  0
 18 19  1  0
 20 19  1  0
 20 25  1  0
 21 20  2  0
 22 21  1  0
 22 23  2  0
 23 24  1  0
 24 25  2  0
  2 26  1  0
  5 27  1  0
  8 28  1  0
  9 29  1  0
 11 30  1  0
 12 31  1  0
 13 32  1  0
 14 33  1  0
 17 34  1  1
 18 35  1  0
 18 36  1  0
 19 37  1  1
 21 38  1  0
 22 39  1  0
 24 40  1  0
M  ISO  8  26  14  27  14  28  14  29   9  30  14  31  14  32  14  33  14
M  ISO  7  34  13  35  13  36  13  37  13  38  14  39  14  40  14
M  END
>  <minimizedAffinity>  (1) 
-7.06446791

>  <minimizedRMSD>  (1) 
0.466620624

$$$$
