
     RDKit          3D

 34 37  0  0  1  0  0  0  0  0999 V2000
   45.8180   33.8630   45.2290 C   0  0  0  0  0  0  0  0  0  0  0  0
   46.6340   33.8620   44.1010 C   0  0  0  0  0  0  0  0  0  0  0  0
   46.4190   34.8610   43.1540 C   0  0  0  0  0  0  0  0  0  0  0  0
   45.4340   35.7820   43.3700 N   0  0  0  0  0  0  0  0  0  0  0  0
   44.6600   35.7520   44.4800 C   0  0  0  0  0  0  0  0  0  0  0  0
   44.8500   34.7920   45.4120 N   0  0  0  0  0  0  0  0  0  0  0  0
   47.2590   34.8880   41.9590 C   0  0  0  0  0  0  0  0  0  0  0  0
   48.4920   35.5350   41.8330 C   0  0  0  0  0  0  0  0  0  0  0  0
   48.9700   35.3400   40.5910 N   0  0  0  0  0  0  0  0  0  0  0  0
   48.0570   34.5790   39.9270 C   0  0  0  0  0  0  0  0  0  0  0  0
   48.0690   34.1010   38.6250 C   0  0  0  0  0  0  0  0  0  0  0  0
   47.0140   33.3460   38.1910 C   0  0  0  0  0  0  0  0  0  0  0  0
   45.9070   33.0210   38.9880 C   0  0  0  0  0  0  0  0  0  0  0  0
   45.9720   33.5340   40.2660 C   0  0  0  0  0  0  0  0  0  0  0  0
   46.9870   34.2870   40.7590 C   0  0  0  0  0  0  0  0  0  0  0  0
   45.9580   32.9100   46.2210 O   0  0  0  0  0  0  0  0  0  0  0  0
   45.3040   32.8970   47.4410 C   0  0  1  0  0  0  0  0  0  0  0  0
   45.0330   31.5880   48.0670 C   0  0  0  0  0  0  0  0  0  0  0  0
   46.1600   32.3890   48.5990 C   0  0  1  0  0  0  0  0  0  0  0  0
   47.5170   32.0130   48.3360 N   0  0  0  0  0  0  0  0  0  0  0  0
   47.4176   33.1024   43.9629 H   0  0  0  0  0  0  0  0  0  0  0  0
   43.8756   36.5097   44.6236 H   0  0  0  0  0  0  0  0  0  0  0  0
   48.9921   36.1123   42.6246 H   0  0  0  0  0  0  0  0  0  0  0  0
   49.8587   35.6986   40.2136 H   0  0  0  0  0  0  0  0  0  0  0  0
   48.9113   34.3249   37.9538 H   0  0  0  0  0  0  0  0  0  0  0  0
   47.0353   32.9721   37.1567 H   0  0  0  0  0  0  0  0  0  0  0  0
   45.0645   32.4129   38.6269 H   0  0  0  0  0  0  0  0  0  0  0  0
   45.1319   33.3147   40.9414 H   0  0  0  0  0  0  0  0  0  0  0  0
   44.6847   33.7792   47.2215 H   0  0  0  0  0  0  0  0  0  0  0  0
   44.1265   31.4533   48.6754 H   0  0  0  0  0  0  0  0  0  0  0  0
   44.9384   30.5615   47.6831 H   0  0  0  0  0  0  0  0  0  0  0  0
   46.4471   32.7501   49.5976 H   0  0  0  0  0  0  0  0  0  0  0  0
   48.0141   31.8753   49.2276 H   0  0  0  0  0  0  0  0  0  0  0  0
   47.5318   31.1362   47.7957 H   0  0  0  0  0  0  0  0  0  0  0  0
  1  6  1  0
  1 16  1  0
  2  1  2  0
  3  4  2  0
  3  2  1  0
  4  5  1  0
  5  6  2  0
  7  3  1  0
  8  7  2  0
  9  8  1  0
 10  9  1  0
 10 15  2  0
 11 10  1  0
 12 11  2  0
 12 13  1  0
 13 14  2  0
 14 15  1  0
 15  7  1  0
 16 17  1  0
 17 18  1  0
 17 19  1  0
 18 19  1  0
 20 19  1  0
  2 21  1  0
  5 22  1  0
  8 23  1  0
  9 24  1  0
 11 25  1  0
 12 26  1  0
 13 27  1  0
 14 28  1  0
 17 29  1  1
 18 30  1  0
 18 31  1  0
 19 32  1  1
 20 33  1  0
 20 34  1  0
M  ISO  8  21  14  22  14  23  14  24   9  25  14  26  14  27  14  28  14
M  ISO  6  29  13  30  13  31  13  32  13  33   5  34   5
M  END
>  <minimizedAffinity>  (1) 
-6.48224592

>  <minimizedRMSD>  (1) 
0.0402281024

$$$$
