
     RDKit          3D

 37 39  0  0  0  0  0  0  0  0999 V2000
   47.9420   34.8550   41.6190 C   0  0  0  0  0  0  0  0  0  0  0  0
   47.5760   34.3520   40.2770 C   0  0  0  0  0  0  0  0  0  0  0  0
   48.3140   34.5870   39.1410 C   0  0  0  0  0  0  0  0  0  0  0  0
   48.0430   34.1450   37.8720 C   0  0  0  0  0  0  0  0  0  0  0  0
   46.9130   33.3950   37.7600 N   0  0  0  0  0  0  0  0  0  0  0  0
   46.1490   33.1380   38.8720 C   0  0  0  0  0  0  0  0  0  0  0  0
   46.4460   33.5890   40.1050 N   0  0  0  0  0  0  0  0  0  0  0  0
   44.9800   32.3410   38.6610 N   0  0  0  0  0  0  0  0  0  0  0  0
   43.7220   32.6960   39.2410 C   0  0  0  0  0  0  0  0  0  0  0  0
   42.6950   32.7210   38.1190 C   0  0  0  0  0  0  0  0  0  0  0  0
   42.7550   31.5610   37.3610 O   0  0  0  0  0  0  0  0  0  0  0  0
   43.9740   31.3270   36.7710 C   0  0  0  0  0  0  0  0  0  0  0  0
   45.0550   31.1440   37.8450 C   0  0  0  0  0  0  0  0  0  0  0  0
   47.4710   33.8650   42.6540 C   0  0  0  0  0  0  0  0  0  0  0  0
   44.7150   36.0250   44.0970 C   0  0  0  0  0  0  0  0  0  0  0  0
   45.6790   35.5370   43.2100 C   0  0  0  0  0  0  0  0  0  0  0  0
   46.4350   34.4340   43.5480 C   0  0  0  0  0  0  0  0  0  0  0  0
   46.2080   33.8530   44.7530 N   0  0  0  0  0  0  0  0  0  0  0  0
   45.2600   34.3390   45.6170 C   0  0  0  0  0  0  0  0  0  0  0  0
   44.5360   35.4170   45.2650 N   0  0  0  0  0  0  0  0  0  0  0  0
   47.4607   35.8287   41.7928 H   0  0  0  0  0  0  0  0  0  0  0  0
   49.0331   34.9770   41.6877 H   0  0  0  0  0  0  0  0  0  0  0  0
   49.2214   35.1965   39.2639 H   0  0  0  0  0  0  0  0  0  0  0  0
   48.6881   34.3782   37.0120 H   0  0  0  0  0  0  0  0  0  0  0  0
   43.4337   31.9520   39.9982 H   0  0  0  0  0  0  0  0  0  0  0  0
   43.7842   33.6780   39.7327 H   0  0  0  0  0  0  0  0  0  0  0  0
   41.6892   32.8138   38.5546 H   0  0  0  0  0  0  0  0  0  0  0  0
   42.9135   33.5777   37.4645 H   0  0  0  0  0  0  0  0  0  0  0  0
   43.9123   30.4156   36.1582 H   0  0  0  0  0  0  0  0  0  0  0  0
   44.2380   32.1872   36.1382 H   0  0  0  0  0  0  0  0  0  0  0  0
   44.8501   30.2493   38.4513 H   0  0  0  0  0  0  0  0  0  0  0  0
   46.0541   31.0050   37.4062 H   0  0  0  0  0  0  0  0  0  0  0  0
   47.0510   32.9883   42.1392 H   0  0  0  0  0  0  0  0  0  0  0  0
   48.3366   33.5906   43.2748 H   0  0  0  0  0  0  0  0  0  0  0  0
   44.1101   36.9043   43.8306 H   0  0  0  0  0  0  0  0  0  0  0  0
   45.8349   36.0335   42.2409 H   0  0  0  0  0  0  0  0  0  0  0  0
   45.0932   33.8518   46.5890 H   0  0  0  0  0  0  0  0  0  0  0  0
  1 14  1  0
  2  1  1  0
  3  2  2  0
  4  3  1  0
  5  4  2  0
  5  6  1  0
  6  7  2  0
  7  2  1  0
  8  6  1  0
  8  9  1  0
 10  9  1  0
 11 10  1  0
 12 11  1  0
 12 13  1  0
 13  8  1  0
 14 17  1  0
 15 20  2  0
 16 17  2  0
 16 15  1  0
 17 18  1  0
 18 19  2  0
 20 19  1  0
  1 21  1  0
  1 22  1  0
  3 23  1  0
  4 24  1  0
  9 25  1  0
  9 26  1  0
 10 27  1  0
 10 28  1  0
 12 29  1  0
 12 30  1  0
 13 31  1  0
 13 32  1  0
 14 33  1  0
 14 34  1  0
 15 35  1  0
 16 36  1  0
 19 37  1  0
M  ISO  8  21   8  22   8  23  14  24  14  25  13  26  13  27  13  28  13
M  ISO  8  29  13  30  13  31  13  32  13  33   8  34   8  35  14  36  14
M  ISO  1  37  14
M  END
>  <minimizedAffinity>  (1) 
-4.92941236

>  <minimizedRMSD>  (1) 
0.260381252

$$$$
