
     RDKit          3D

 39 43  0  0  1  0  0  0  0  0999 V2000
   46.2240   34.0220   45.1220 C   0  0  0  0  0  0  0  0  0  0  0  0
   46.9940   34.0540   43.9600 C   0  0  0  0  0  0  0  0  0  0  0  0
   46.5140   34.8040   42.8810 C   0  0  0  0  0  0  0  0  0  0  0  0
   45.3330   35.4600   43.0090 N   0  0  0  0  0  0  0  0  0  0  0  0
   44.6060   35.4090   44.1500 C   0  0  0  0  0  0  0  0  0  0  0  0
   45.0440   34.6960   45.2040 N   0  0  0  0  0  0  0  0  0  0  0  0
   47.3080   34.8470   41.6610 C   0  0  0  0  0  0  0  0  0  0  0  0
   48.5210   35.5440   41.4840 C   0  0  0  0  0  0  0  0  0  0  0  0
   48.9580   35.3470   40.2270 N   0  0  0  0  0  0  0  0  0  0  0  0
   48.0440   34.5390   39.6020 C   0  0  0  0  0  0  0  0  0  0  0  0
   48.0360   34.0530   38.3170 C   0  0  0  0  0  0  0  0  0  0  0  0
   46.9990   33.2520   37.9190 C   0  0  0  0  0  0  0  0  0  0  0  0
   45.9320   32.8940   38.7530 C   0  0  0  0  0  0  0  0  0  0  0  0
   46.0150   33.4220   40.0280 C   0  0  0  0  0  0  0  0  0  0  0  0
   47.0170   34.2220   40.4830 C   0  0  0  0  0  0  0  0  0  0  0  0
   46.6170   33.3100   46.2330 O   0  0  0  0  0  0  0  0  0  0  0  0
   45.9040   32.2890   46.8340 C   0  0  1  0  0  0  0  0  0  0  0  0
   46.0010   30.9270   46.2370 C   0  0  0  0  0  0  0  0  0  0  0  0
   46.7510   31.2120   47.4790 C   0  0  2  0  0  0  0  0  0  0  0  0
   46.2800   30.7500   48.8370 C   0  0  0  0  0  0  0  0  0  0  0  0
   45.0690   31.2960   49.4650 C   0  0  0  0  0  0  0  0  0  0  0  0
   45.0780   29.8600   48.9090 C   0  0  0  0  0  0  0  0  0  0  0  0
   47.9466   33.5080   43.8939 H   0  0  0  0  0  0  0  0  0  0  0  0
   43.6523   35.9532   44.2159 H   0  0  0  0  0  0  0  0  0  0  0  0
   49.0276   36.1503   42.2494 H   0  0  0  0  0  0  0  0  0  0  0  0
   49.8186   35.7315   39.8118 H   0  0  0  0  0  0  0  0  0  0  0  0
   48.8490   34.3031   37.6195 H   0  0  0  0  0  0  0  0  0  0  0  0
   47.0042   32.8687   36.8879 H   0  0  0  0  0  0  0  0  0  0  0  0
   45.1029   32.2508   38.4232 H   0  0  0  0  0  0  0  0  0  0  0  0
   45.2058   33.1755   40.7312 H   0  0  0  0  0  0  0  0  0  0  0  0
   45.0686   32.9388   47.1339 H   0  0  0  0  0  0  0  0  0  0  0  0
   45.1310   30.2545   46.2663 H   0  0  0  0  0  0  0  0  0  0  0  0
   46.2741   30.5391   45.2446 H   0  0  0  0  0  0  0  0  0  0  0  0
   47.8025   31.0500   47.7585 H   0  0  0  0  0  0  0  0  0  0  0  0
   47.3250   30.6839   49.1740 H   0  0  0  0  0  0  0  0  0  0  0  0
   45.0405   31.4661   50.5514 H   0  0  0  0  0  0  0  0  0  0  0  0
   44.4447   32.1884   49.3104 H   0  0  0  0  0  0  0  0  0  0  0  0
   44.5136   29.6132   47.9976 H   0  0  0  0  0  0  0  0  0  0  0  0
   44.8596   28.8576   49.3058 H   0  0  0  0  0  0  0  0  0  0  0  0
  1  6  1  0
  1 16  1  0
  2  1  2  0
  3  4  2  0
  3  2  1  0
  4  5  1  0
  5  6  2  0
  7  3  1  0
  8  7  2  0
  9  8  1  0
 10  9  1  0
 10 15  2  0
 11 10  1  0
 12 11  2  0
 12 13  1  0
 13 14  2  0
 14 15  1  0
 15  7  1  0
 16 17  1  0
 17 19  1  0
 18 17  1  0
 18 19  1  0
 19 20  1  0
 20 22  1  0
 20 21  1  0
 22 21  1  0
  2 23  1  0
  5 24  1  0
  8 25  1  0
  9 26  1  0
 11 27  1  0
 12 28  1  0
 13 29  1  0
 14 30  1  0
 17 31  1  1
 18 32  1  0
 18 33  1  0
 19 34  1  6
 20 35  1  0
 21 36  1  0
 21 37  1  0
 22 38  1  0
 22 39  1  0
M  ISO  8  23  14  24  14  25  14  26   9  27  14  28  14  29  14  30  14
M  ISO  8  31  13  32  13  33  13  34  13  35  13  36  13  37  13  38  13
M  ISO  1  39  13
M  END
>  <minimizedAffinity>  (1) 
-6.38389778

>  <minimizedRMSD>  (1) 
1.31846142

$$$$
