
     RDKit          3D

 43 47  0  0  1  0  0  0  0  0999 V2000
   45.7030   33.8070   45.3780 C   0  0  0  0  0  0  0  0  0  0  0  0
   46.5030   33.8310   44.2410 C   0  0  0  0  0  0  0  0  0  0  0  0
   46.3240   34.8550   43.3100 C   0  0  0  0  0  0  0  0  0  0  0  0
   45.3800   35.7860   43.5470 N   0  0  0  0  0  0  0  0  0  0  0  0
   44.6110   35.7480   44.6580 C   0  0  0  0  0  0  0  0  0  0  0  0
   44.7780   34.7600   45.5640 N   0  0  0  0  0  0  0  0  0  0  0  0
   47.1720   34.8650   42.1270 C   0  0  0  0  0  0  0  0  0  0  0  0
   48.4240   35.4780   42.0050 C   0  0  0  0  0  0  0  0  0  0  0  0
   48.9110   35.2770   40.7740 N   0  0  0  0  0  0  0  0  0  0  0  0
   47.9880   34.5420   40.1000 C   0  0  0  0  0  0  0  0  0  0  0  0
   47.9990   34.0560   38.7960 C   0  0  0  0  0  0  0  0  0  0  0  0
   46.9380   33.3320   38.3570 C   0  0  0  0  0  0  0  0  0  0  0  0
   45.8160   33.0300   39.1320 C   0  0  0  0  0  0  0  0  0  0  0  0
   45.8720   33.5410   40.4110 C   0  0  0  0  0  0  0  0  0  0  0  0
   46.8920   34.2720   40.9230 C   0  0  0  0  0  0  0  0  0  0  0  0
   45.8230   32.8270   46.3420 O   0  0  0  0  0  0  0  0  0  0  0  0
   45.3520   32.9070   47.6520 C   0  0  1  0  0  0  0  0  0  0  0  0
   44.8290   31.6530   48.2580 C   0  0  0  0  0  0  0  0  0  0  0  0
   46.1990   32.2160   48.6750 C   0  0  1  0  0  0  0  0  0  0  0  0
   47.3780   31.4270   48.1870 C   0  0  0  0  0  0  0  0  0  0  0  0
   47.7670   31.5780   46.9980 O   0  0  0  0  0  0  0  0  0  0  0  0
   48.1130   30.5260   48.8920 O   0  0  0  0  0  0  0  0  0  0  0  0
   49.2170   30.8600   49.6640 C   0  0  0  0  0  0  0  0  0  0  0  0
   49.9400   32.0430   49.6940 C   0  0  0  0  0  0  0  0  0  0  0  0
   51.0100   32.1250   50.5610 C   0  0  0  0  0  0  0  0  0  0  0  0
   51.3670   31.1150   51.3650 N   0  0  0  0  0  0  0  0  0  0  0  0
   50.6600   29.9680   51.3300 C   0  0  0  0  0  0  0  0  0  0  0  0
   49.6110   29.8540   50.4960 N   0  0  0  0  0  0  0  0  0  0  0  0
   47.2652   33.0548   44.0779 H   0  0  0  0  0  0  0  0  0  0  0  0
   43.8481   36.5227   44.8246 H   0  0  0  0  0  0  0  0  0  0  0  0
   48.9323   36.0410   42.8016 H   0  0  0  0  0  0  0  0  0  0  0  0
   49.8126   35.6148   40.4081 H   0  0  0  0  0  0  0  0  0  0  0  0
   48.8532   34.2552   38.1322 H   0  0  0  0  0  0  0  0  0  0  0  0
   46.9636   32.9585   37.3227 H   0  0  0  0  0  0  0  0  0  0  0  0
   44.9671   32.4396   38.7568 H   0  0  0  0  0  0  0  0  0  0  0  0
   45.0165   33.3383   41.0720 H   0  0  0  0  0  0  0  0  0  0  0  0
   44.9410   33.9211   47.5394 H   0  0  0  0  0  0  0  0  0  0  0  0
   43.9809   31.6899   48.9576 H   0  0  0  0  0  0  0  0  0  0  0  0
   44.4641   30.6902   47.8708 H   0  0  0  0  0  0  0  0  0  0  0  0
   46.6881   32.5300   49.6089 H   0  0  0  0  0  0  0  0  0  0  0  0
   49.6687   32.8898   49.0465 H   0  0  0  0  0  0  0  0  0  0  0  0
   51.5932   33.0571   50.5933 H   0  0  0  0  0  0  0  0  0  0  0  0
   50.9402   29.1274   51.9818 H   0  0  0  0  0  0  0  0  0  0  0  0
  1  6  1  0
  1 16  1  0
  2  1  2  0
  3  4  2  0
  3  2  1  0
  4  5  1  0
  5  6  2  0
  7  3  1  0
  8  7  2  0
  9  8  1  0
 10  9  1  0
 10 15  2  0
 11 10  1  0
 12 11  2  0
 12 13  1  0
 13 14  2  0
 14 15  1  0
 15  7  1  0
 16 17  1  0
 17 18  1  0
 17 19  1  0
 18 19  1  0
 20 19  1  0
 20 22  1  0
 21 20  2  0
 22 23  1  0
 23 24  2  0
 23 28  1  0
 24 25  1  0
 25 26  2  0
 27 26  1  0
 28 27  2  0
  2 29  1  0
  5 30  1  0
  8 31  1  0
  9 32  1  0
 11 33  1  0
 12 34  1  0
 13 35  1  0
 14 36  1  0
 17 37  1  1
 18 38  1  0
 18 39  1  0
 19 40  1  1
 24 41  1  0
 25 42  1  0
 27 43  1  0
M  ISO  8  29  14  30  14  31  14  32   9  33  14  34  14  35  14  36  14
M  ISO  7  37  13  38  13  39  13  40  13  41  14  42  14  43  14
M  END
>  <minimizedAffinity>  (1) 
-7.28747654

>  <minimizedRMSD>  (1) 
0.991991401

$$$$
