
     RDKit          3D

 42 46  0  0  1  0  0  0  0  0999 V2000
   45.9170   33.6800   45.3630 C   0  0  0  0  0  0  0  0  0  0  0  0
   46.6930   33.7660   44.2110 C   0  0  0  0  0  0  0  0  0  0  0  0
   46.4260   34.7730   43.2880 C   0  0  0  0  0  0  0  0  0  0  0  0
   45.4160   35.6370   43.5450 N   0  0  0  0  0  0  0  0  0  0  0  0
   44.6730   35.5390   44.6690 C   0  0  0  0  0  0  0  0  0  0  0  0
   44.9280   34.5630   45.5690 N   0  0  0  0  0  0  0  0  0  0  0  0
   47.2470   34.8500   42.0900 C   0  0  0  0  0  0  0  0  0  0  0  0
   48.4540   35.5350   41.9520 C   0  0  0  0  0  0  0  0  0  0  0  0
   48.9230   35.3850   40.7090 N   0  0  0  0  0  0  0  0  0  0  0  0
   48.0340   34.6100   40.0410 C   0  0  0  0  0  0  0  0  0  0  0  0
   48.0410   34.1520   38.7280 C   0  0  0  0  0  0  0  0  0  0  0  0
   47.0150   33.3680   38.2820 C   0  0  0  0  0  0  0  0  0  0  0  0
   45.9320   32.9910   39.0870 C   0  0  0  0  0  0  0  0  0  0  0  0
   45.9870   33.4800   40.3760 C   0  0  0  0  0  0  0  0  0  0  0  0
   46.9740   34.2580   40.8770 C   0  0  0  0  0  0  0  0  0  0  0  0
   46.1300   32.7030   46.3210 O   0  0  0  0  0  0  0  0  0  0  0  0
   45.3020   32.4460   47.4110 C   0  0  1  0  0  0  0  0  0  0  0  0
   45.2140   31.0270   47.8530 C   0  0  0  0  0  0  0  0  0  0  0  0
   46.0120   32.0580   48.6700 C   0  0  1  0  0  0  0  0  0  0  0  0
   47.5000   31.8880   48.6080 C   0  0  0  0  0  0  0  0  0  0  0  0
   48.2130   32.8780   48.2860 O   0  0  0  0  0  0  0  0  0  0  0  0
   48.2210   30.7660   48.8540 O   0  0  0  0  0  0  0  0  0  0  0  0
   50.6340   30.3440   51.4440 N   0  0  0  0  0  0  0  0  0  0  0  0
   49.6070   29.8710   50.7570 N   0  0  0  0  0  0  0  0  0  0  0  0
   49.2140   30.7400   49.8250 C   0  0  0  0  0  0  0  0  0  0  0  0
   50.0570   31.8280   49.9400 C   0  0  0  0  0  0  0  0  0  0  0  0
   50.9670   31.5800   50.9740 C   0  0  0  0  0  0  0  0  0  0  0  0
   47.5066   33.0476   44.0322 H   0  0  0  0  0  0  0  0  0  0  0  0
   43.8585   36.2552   44.8524 H   0  0  0  0  0  0  0  0  0  0  0  0
   48.9469   36.1129   42.7477 H   0  0  0  0  0  0  0  0  0  0  0  0
   49.7945   35.7829   40.3308 H   0  0  0  0  0  0  0  0  0  0  0  0
   48.8673   34.4193   38.0529 H   0  0  0  0  0  0  0  0  0  0  0  0
   47.0404   33.0156   37.2403 H   0  0  0  0  0  0  0  0  0  0  0  0
   45.1085   32.3593   38.7226 H   0  0  0  0  0  0  0  0  0  0  0  0
   45.1604   33.2156   41.0519 H   0  0  0  0  0  0  0  0  0  0  0  0
   44.5535   33.2078   47.1475 H   0  0  0  0  0  0  0  0  0  0  0  0
   44.2660   30.6279   48.2428 H   0  0  0  0  0  0  0  0  0  0  0  0
   45.4341   30.0505   47.3970 H   0  0  0  0  0  0  0  0  0  0  0  0
   46.0123   32.4405   49.7014 H   0  0  0  0  0  0  0  0  0  0  0  0
   51.1091   29.8539   52.2154 H   0  0  0  0  0  0  0  0  0  0  0  0
   50.0194   32.7374   49.3222 H   0  0  0  0  0  0  0  0  0  0  0  0
   51.7738   32.2378   51.3295 H   0  0  0  0  0  0  0  0  0  0  0  0
  1  6  1  0
  1 16  1  0
  2  1  2  0
  3  4  2  0
  3  2  1  0
  4  5  1  0
  5  6  2  0
  7  3  1  0
  8  7  2  0
  9  8  1  0
 10  9  1  0
 10 15  2  0
 11 10  1  0
 12 11  2  0
 12 13  1  0
 13 14  2  0
 14 15  1  0
 15  7  1  0
 16 17  1  0
 17 18  1  0
 17 19  1  0
 18 19  1  0
 20 19  1  0
 20 22  1  0
 21 20  2  0
 22 25  1  0
 24 23  1  0
 25 26  1  0
 25 24  2  0
 26 27  2  0
 27 23  1  0
  2 28  1  0
  5 29  1  0
  8 30  1  0
  9 31  1  0
 11 32  1  0
 12 33  1  0
 13 34  1  0
 14 35  1  0
 17 36  1  1
 18 37  1  0
 18 38  1  0
 19 39  1  1
 23 40  1  0
 26 41  1  0
 27 42  1  0
M  ISO  8  28  14  29  14  30  14  31   9  32  14  33  14  34  14  35  14
M  ISO  7  36  13  37  13  38  13  39  13  40   9  41  14  42  14
M  END
>  <minimizedAffinity>  (1) 
-7.01793861

>  <minimizedRMSD>  (1) 
0.953168988

$$$$
