
     RDKit          3D

 34 36  0  0  0  0  0  0  0  0999 V2000
   47.2860   34.2090   40.1600 C   0  0  0  0  0  0  0  0  0  0  0  0
   48.1650   34.1910   39.0920 C   0  0  0  0  0  0  0  0  0  0  0  0
   47.8890   33.7650   37.8160 C   0  0  0  0  0  0  0  0  0  0  0  0
   46.6180   33.3250   37.6150 N   0  0  0  0  0  0  0  0  0  0  0  0
   45.7250   33.3340   38.6590 C   0  0  0  0  0  0  0  0  0  0  0  0
   46.0210   33.7570   39.9030 N   0  0  0  0  0  0  0  0  0  0  0  0
   44.3760   32.8470   38.3690 C   0  0  0  0  0  0  0  0  0  0  0  0
   43.2740   33.5490   38.8010 C   0  0  0  0  0  0  0  0  0  0  0  0
   41.9980   33.1290   38.5510 C   0  0  0  0  0  0  0  0  0  0  0  0
   41.8400   31.9420   37.8300 C   0  0  0  0  0  0  0  0  0  0  0  0
   42.9310   31.2010   37.3730 C   0  0  0  0  0  0  0  0  0  0  0  0
   44.2120   31.6780   37.6570 C   0  0  0  0  0  0  0  0  0  0  0  0
   47.6660   34.6790   41.5110 C   0  0  0  0  0  0  0  0  0  0  0  0
   47.1330   33.7050   42.5250 C   0  0  0  0  0  0  0  0  0  0  0  0
   44.6850   36.0370   44.2210 C   0  0  0  0  0  0  0  0  0  0  0  0
   45.5260   35.4880   43.2460 C   0  0  0  0  0  0  0  0  0  0  0  0
   46.2270   34.3290   43.5130 C   0  0  0  0  0  0  0  0  0  0  0  0
   46.0550   33.7670   44.7420 N   0  0  0  0  0  0  0  0  0  0  0  0
   45.2360   34.3140   45.6670 C   0  0  0  0  0  0  0  0  0  0  0  0
   44.5610   35.4400   45.3990 N   0  0  0  0  0  0  0  0  0  0  0  0
   49.1856   34.5537   39.2837 H   0  0  0  0  0  0  0  0  0  0  0  0
   48.6419   33.7787   37.0141 H   0  0  0  0  0  0  0  0  0  0  0  0
   43.4255   34.4800   39.3669 H   0  0  0  0  0  0  0  0  0  0  0  0
   41.1284   33.7030   38.9036 H   0  0  0  0  0  0  0  0  0  0  0  0
   40.8235   31.5803   37.6159 H   0  0  0  0  0  0  0  0  0  0  0  0
   42.7859   30.2695   36.8063 H   0  0  0  0  0  0  0  0  0  0  0  0
   45.0939   31.1188   37.3113 H   0  0  0  0  0  0  0  0  0  0  0  0
   48.7618   34.7336   41.5898 H   0  0  0  0  0  0  0  0  0  0  0  0
   47.2456   35.6790   41.6932 H   0  0  0  0  0  0  0  0  0  0  0  0
   46.5808   32.9153   41.9944 H   0  0  0  0  0  0  0  0  0  0  0  0
   47.9953   33.3059   43.0791 H   0  0  0  0  0  0  0  0  0  0  0  0
   44.1279   36.9619   44.0107 H   0  0  0  0  0  0  0  0  0  0  0  0
   45.6283   35.9798   42.2674 H   0  0  0  0  0  0  0  0  0  0  0  0
   45.1224   33.8307   46.6486 H   0  0  0  0  0  0  0  0  0  0  0  0
  1 13  1  0
  2  1  2  0
  3  2  1  0
  4  3  2  0
  4  5  1  0
  5  6  2  0
  6  1  1  0
  7  5  1  0
  7  8  2  0
  9  8  1  0
 10  9  2  0
 11 12  2  0
 11 10  1  0
 12  7  1  0
 13 14  1  0
 14 17  1  0
 15 20  2  0
 16 17  2  0
 16 15  1  0
 17 18  1  0
 18 19  2  0
 20 19  1  0
  2 21  1  0
  3 22  1  0
  8 23  1  0
  9 24  1  0
 10 25  1  0
 11 26  1  0
 12 27  1  0
 13 28  1  0
 13 29  1  0
 14 30  1  0
 14 31  1  0
 15 32  1  0
 16 33  1  0
 19 34  1  0
M  ISO  8  21  14  22  14  23  14  24  14  25  14  26  14  27  14  28   8
M  ISO  6  29   8  30   8  31   8  32  14  33  14  34  14
M  END
>  <minimizedAffinity>  (1) 
-4.8625617

>  <minimizedRMSD>  (1) 
1.18921006

$$$$
