
     RDKit          3D

 41 44  0  0  1  0  0  0  0  0999 V2000
   45.7460   33.8520   45.4740 C   0  0  0  0  0  0  0  0  0  0  0  0
   46.5430   33.8560   44.3310 C   0  0  0  0  0  0  0  0  0  0  0  0
   46.3240   34.8380   43.3610 C   0  0  0  0  0  0  0  0  0  0  0  0
   45.3490   35.7460   43.5650 N   0  0  0  0  0  0  0  0  0  0  0  0
   44.5860   35.7260   44.6800 C   0  0  0  0  0  0  0  0  0  0  0  0
   44.7890   34.7810   45.6250 N   0  0  0  0  0  0  0  0  0  0  0  0
   47.1680   34.8260   42.1740 C   0  0  0  0  0  0  0  0  0  0  0  0
   48.4360   35.4010   42.0470 C   0  0  0  0  0  0  0  0  0  0  0  0
   48.9110   35.1880   40.8110 N   0  0  0  0  0  0  0  0  0  0  0  0
   47.9660   34.4850   40.1420 C   0  0  0  0  0  0  0  0  0  0  0  0
   47.9590   34.0150   38.8500 C   0  0  0  0  0  0  0  0  0  0  0  0
   46.8670   33.3140   38.3840 C   0  0  0  0  0  0  0  0  0  0  0  0
   45.7400   33.0490   39.1780 C   0  0  0  0  0  0  0  0  0  0  0  0
   45.8160   33.5480   40.4600 C   0  0  0  0  0  0  0  0  0  0  0  0
   46.8630   34.2410   40.9650 C   0  0  0  0  0  0  0  0  0  0  0  0
   45.9040   32.9200   46.4670 O   0  0  0  0  0  0  0  0  0  0  0  0
   45.1580   32.8440   47.6490 C   0  0  1  0  0  0  0  0  0  0  0  0
   44.8030   31.4760   48.1190 C   0  0  0  0  0  0  0  0  0  0  0  0
   45.8820   32.2980   48.8360 C   0  0  1  0  0  0  0  0  0  0  0  0
   47.2850   31.8130   48.6440 C   0  0  0  0  0  0  0  0  0  0  0  0
   48.1800   32.6410   48.3240 O   0  0  0  0  0  0  0  0  0  0  0  0
   47.7340   30.5340   48.7700 O   0  0  0  0  0  0  0  0  0  0  0  0
   49.0760   30.1730   48.8900 C   0  0  0  0  0  0  0  0  0  0  0  0
   49.6120   30.2070   50.2950 C   0  0  0  0  0  0  0  0  0  0  0  0
   47.3303   33.0999   44.1946 H   0  0  0  0  0  0  0  0  0  0  0  0
   43.7978   36.4805   44.8190 H   0  0  0  0  0  0  0  0  0  0  0  0
   48.9651   35.9467   42.8422 H   0  0  0  0  0  0  0  0  0  0  0  0
   49.8205   35.4994   40.4412 H   0  0  0  0  0  0  0  0  0  0  0  0
   48.8207   34.1974   38.1911 H   0  0  0  0  0  0  0  0  0  0  0  0
   46.8794   32.9472   37.3470 H   0  0  0  0  0  0  0  0  0  0  0  0
   44.8685   32.4894   38.8074 H   0  0  0  0  0  0  0  0  0  0  0  0
   44.9584   33.3691   41.1252 H   0  0  0  0  0  0  0  0  0  0  0  0
   44.5788   33.7580   47.4514 H   0  0  0  0  0  0  0  0  0  0  0  0
   43.8335   31.2935   48.6055 H   0  0  0  0  0  0  0  0  0  0  0  0
   44.7563   30.4780   47.6588 H   0  0  0  0  0  0  0  0  0  0  0  0
   46.0662   32.6613   49.8578 H   0  0  0  0  0  0  0  0  0  0  0  0
   49.1915   29.1496   48.5037 H   0  0  0  0  0  0  0  0  0  0  0  0
   49.6506   30.9178   48.3198 H   0  0  0  0  0  0  0  0  0  0  0  0
   48.7759   30.1540   51.0078 H   0  0  0  0  0  0  0  0  0  0  0  0
   50.2829   29.3496   50.4523 H   0  0  0  0  0  0  0  0  0  0  0  0
   50.1692   31.1423   50.4523 H   0  0  0  0  0  0  0  0  0  0  0  0
  1  6  1  0
  1 16  1  0
  2  1  2  0
  3  4  2  0
  3  2  1  0
  4  5  1  0
  5  6  2  0
  7  3  1  0
  8  7  2  0
  9  8  1  0
 10  9  1  0
 10 15  2  0
 11 10  1  0
 12 11  2  0
 12 13  1  0
 13 14  2  0
 14 15  1  0
 15  7  1  0
 16 17  1  0
 17 18  1  0
 17 19  1  0
 18 19  1  0
 20 22  1  0
 20 19  1  0
 21 20  2  0
 22 23  1  0
 23 24  1  0
  2 25  1  0
  5 26  1  0
  8 27  1  0
  9 28  1  0
 11 29  1  0
 12 30  1  0
 13 31  1  0
 14 32  1  0
 17 33  1  1
 18 34  1  0
 18 35  1  0
 19 36  1  1
 23 37  1  0
 23 38  1  0
 24 39  1  0
 24 40  1  0
 24 41  1  0
M  ISO  8  25  14  26  14  27  14  28   9  29  14  30  14  31  14  32  14
M  ISO  8  33  13  34  13  35  13  36  13  37   8  38   8  39   8  40   8
M  ISO  1  41   8
M  END
>  <minimizedAffinity>  (1) 
-6.43156528

>  <minimizedRMSD>  (1) 
0.254278928

$$$$
