
     RDKit          3D

 44 47  0  0  1  0  0  0  0  0999 V2000
   45.7050   33.8230   45.2400 C   0  0  0  0  0  0  0  0  0  0  0  0
   46.5060   33.8460   44.1030 C   0  0  0  0  0  0  0  0  0  0  0  0
   46.3590   34.8810   43.1860 C   0  0  0  0  0  0  0  0  0  0  0  0
   45.4300   35.8420   43.4310 N   0  0  0  0  0  0  0  0  0  0  0  0
   44.6560   35.8100   44.5410 C   0  0  0  0  0  0  0  0  0  0  0  0
   44.7920   34.8060   45.4410 N   0  0  0  0  0  0  0  0  0  0  0  0
   47.2060   34.8850   42.0060 C   0  0  0  0  0  0  0  0  0  0  0  0
   48.4500   35.5150   41.8810 C   0  0  0  0  0  0  0  0  0  0  0  0
   48.9390   35.3130   40.6550 N   0  0  0  0  0  0  0  0  0  0  0  0
   48.0230   34.5620   39.9910 C   0  0  0  0  0  0  0  0  0  0  0  0
   48.0330   34.0740   38.6890 C   0  0  0  0  0  0  0  0  0  0  0  0
   46.9800   33.3340   38.2450 C   0  0  0  0  0  0  0  0  0  0  0  0
   45.8670   33.0250   39.0260 C   0  0  0  0  0  0  0  0  0  0  0  0
   45.9170   33.5420   40.3190 C   0  0  0  0  0  0  0  0  0  0  0  0
   46.9280   34.2760   40.8030 C   0  0  0  0  0  0  0  0  0  0  0  0
   45.7940   32.8300   46.1850 O   0  0  0  0  0  0  0  0  0  0  0  0
   45.4610   32.9570   47.5380 C   0  0  1  0  0  0  0  0  0  0  0  0
   44.9110   31.7320   48.1860 C   0  0  0  0  0  0  0  0  0  0  0  0
   46.3380   32.2190   48.4950 C   0  0  1  0  0  0  0  0  0  0  0  0
   47.4290   31.3600   47.9200 C   0  0  0  0  0  0  0  0  0  0  0  0
   47.7610   31.5230   46.7150 O   0  0  0  0  0  0  0  0  0  0  0  0
   48.1320   30.3810   48.5540 O   0  0  0  0  0  0  0  0  0  0  0  0
   48.9440   30.6090   49.6620 C   0  0  0  0  0  0  0  0  0  0  0  0
   49.8700   29.4240   49.8860 C   0  0  0  0  0  0  0  0  0  0  0  0
   49.8300   31.8300   49.5050 C   0  0  0  0  0  0  0  0  0  0  0  0
   47.2487   33.0530   43.9309 H   0  0  0  0  0  0  0  0  0  0  0  0
   43.9131   36.6027   44.7133 H   0  0  0  0  0  0  0  0  0  0  0  0
   48.9498   36.0904   42.6742 H   0  0  0  0  0  0  0  0  0  0  0  0
   49.8358   35.6592   40.2852 H   0  0  0  0  0  0  0  0  0  0  0  0
   48.8837   34.2839   38.0240 H   0  0  0  0  0  0  0  0  0  0  0  0
   47.0089   32.9586   37.2115 H   0  0  0  0  0  0  0  0  0  0  0  0
   45.0232   32.4254   38.6539 H   0  0  0  0  0  0  0  0  0  0  0  0
   45.0689   33.3334   40.9877 H   0  0  0  0  0  0  0  0  0  0  0  0
   45.1224   34.0005   47.4575 H   0  0  0  0  0  0  0  0  0  0  0  0
   44.1213   31.8165   48.9470 H   0  0  0  0  0  0  0  0  0  0  0  0
   44.4636   30.7917   47.8315 H   0  0  0  0  0  0  0  0  0  0  0  0
   46.9130   32.5061   49.3877 H   0  0  0  0  0  0  0  0  0  0  0  0
   48.2579   30.7643   50.5077 H   0  0  0  0  0  0  0  0  0  0  0  0
   49.9992   29.2586   50.9658 H   0  0  0  0  0  0  0  0  0  0  0  0
   49.4326   28.5250   49.4271 H   0  0  0  0  0  0  0  0  0  0  0  0
   50.8480   29.6311   49.4271 H   0  0  0  0  0  0  0  0  0  0  0  0
   50.1072   32.2121   50.4986 H   0  0  0  0  0  0  0  0  0  0  0  0
   50.7396   31.5542   48.9513 H   0  0  0  0  0  0  0  0  0  0  0  0
   49.2857   32.6092   48.9513 H   0  0  0  0  0  0  0  0  0  0  0  0
  1  6  1  0
  1 16  1  0
  2  1  2  0
  3  4  2  0
  3  2  1  0
  4  5  1  0
  5  6  2  0
  7  3  1  0
  8  7  2  0
  9  8  1  0
 10  9  1  0
 10 15  2  0
 11 10  1  0
 12 11  2  0
 12 13  1  0
 13 14  2  0
 14 15  1  0
 15  7  1  0
 16 17  1  0
 17 18  1  0
 17 19  1  0
 18 19  1  0
 20 19  1  0
 20 22  1  0
 21 20  2  0
 22 23  1  0
 23 24  1  0
 25 23  1  0
  2 26  1  0
  5 27  1  0
  8 28  1  0
  9 29  1  0
 11 30  1  0
 12 31  1  0
 13 32  1  0
 14 33  1  0
 17 34  1  1
 18 35  1  0
 18 36  1  0
 19 37  1  1
 23 38  1  0
 24 39  1  0
 24 40  1  0
 24 41  1  0
 25 42  1  0
 25 43  1  0
 25 44  1  0
M  ISO  8  26  14  27  14  28  14  29   9  30  14  31  14  32  14  33  14
M  ISO  8  34  13  35  13  36  13  37  13  38   8  39   8  40   8  41   8
M  ISO  3  42   8  43   8  44   8
M  END
>  <minimizedAffinity>  (1) 
-6.60546064

>  <minimizedRMSD>  (1) 
0.818459451

$$$$
