
     RDKit          3D

 31 33  0  0  0  0  0  0  0  0999 V2000
   47.8350   34.8400   41.5870 C   0  0  0  0  0  0  0  0  0  0  0  0
   47.5310   34.3590   40.2220 C   0  0  0  0  0  0  0  0  0  0  0  0
   48.3820   34.5580   39.1480 C   0  0  0  0  0  0  0  0  0  0  0  0
   48.1570   34.1240   37.8600 C   0  0  0  0  0  0  0  0  0  0  0  0
   46.9950   33.4470   37.6630 N   0  0  0  0  0  0  0  0  0  0  0  0
   46.1510   33.2450   38.7050 C   0  0  0  0  0  0  0  0  0  0  0  0
   46.3680   33.6690   39.9690 N   0  0  0  0  0  0  0  0  0  0  0  0
   44.9170   32.5450   38.5690 N   0  0  0  0  0  0  0  0  0  0  0  0
   44.4990   31.2680   38.6150 C   0  0  0  0  0  0  0  0  0  0  0  0
   43.1260   31.2890   38.3960 C   0  0  0  0  0  0  0  0  0  0  0  0
   42.7410   32.5810   38.2210 N   0  0  0  0  0  0  0  0  0  0  0  0
   43.8540   33.3360   38.3330 C   0  0  0  0  0  0  0  0  0  0  0  0
   47.3270   33.8270   42.5780 C   0  0  0  0  0  0  0  0  0  0  0  0
   44.6960   36.0110   44.1890 C   0  0  0  0  0  0  0  0  0  0  0  0
   45.5990   35.5190   43.2460 C   0  0  0  0  0  0  0  0  0  0  0  0
   46.3480   34.3940   43.5310 C   0  0  0  0  0  0  0  0  0  0  0  0
   46.1740   33.8010   44.7360 N   0  0  0  0  0  0  0  0  0  0  0  0
   45.2840   34.2890   45.6600 C   0  0  0  0  0  0  0  0  0  0  0  0
   44.5650   35.3810   45.3690 N   0  0  0  0  0  0  0  0  0  0  0  0
   47.3390   35.8068   41.7582 H   0  0  0  0  0  0  0  0  0  0  0  0
   48.9207   34.9703   41.7062 H   0  0  0  0  0  0  0  0  0  0  0  0
   49.3151   35.1083   39.3391 H   0  0  0  0  0  0  0  0  0  0  0  0
   48.8708   34.3129   37.0447 H   0  0  0  0  0  0  0  0  0  0  0  0
   45.1223   30.3790   38.7916 H   0  0  0  0  0  0  0  0  0  0  0  0
   42.4646   30.4105   38.3690 H   0  0  0  0  0  0  0  0  0  0  0  0
   43.8873   34.4319   38.2448 H   0  0  0  0  0  0  0  0  0  0  0  0
   46.8446   33.0071   42.0257 H   0  0  0  0  0  0  0  0  0  0  0  0
   48.1902   33.4753   43.1621 H   0  0  0  0  0  0  0  0  0  0  0  0
   44.0966   36.9066   43.9686 H   0  0  0  0  0  0  0  0  0  0  0  0
   45.7143   36.0264   42.2768 H   0  0  0  0  0  0  0  0  0  0  0  0
   45.1622   33.7875   46.6314 H   0  0  0  0  0  0  0  0  0  0  0  0
  1 13  1  0
  2  1  1  0
  3  2  2  0
  4  3  1  0
  5  4  2  0
  5  6  1  0
  6  7  2  0
  7  2  1  0
  8  9  1  0
  8  6  1  0
 10  9  2  0
 11 12  2  0
 11 10  1  0
 12  8  1  0
 13 16  1  0
 14 19  2  0
 15 16  2  0
 15 14  1  0
 16 17  1  0
 17 18  2  0
 19 18  1  0
  1 20  1  0
  1 21  1  0
  3 22  1  0
  4 23  1  0
  9 24  1  0
 10 25  1  0
 12 26  1  0
 13 27  1  0
 13 28  1  0
 14 29  1  0
 15 30  1  0
 18 31  1  0
M  ISO  8  20   8  21   8  22  14  23  14  24  14  25  14  26  14  27   8
M  ISO  4  28   8  29  14  30  14  31  14
M  END
>  <minimizedAffinity>  (1) 
-4.84455872

>  <minimizedRMSD>  (1) 
0.245738462

$$$$
