
     RDKit          3D

 38 41  0  0  1  0  0  0  0  0999 V2000
   45.7500   33.8550   45.4240 C   0  0  0  0  0  0  0  0  0  0  0  0
   46.5550   33.8660   44.2800 C   0  0  0  0  0  0  0  0  0  0  0  0
   46.3390   34.8560   43.3200 C   0  0  0  0  0  0  0  0  0  0  0  0
   45.3610   35.7670   43.5290 N   0  0  0  0  0  0  0  0  0  0  0  0
   44.5930   35.7370   44.6440 C   0  0  0  0  0  0  0  0  0  0  0  0
   44.7940   34.7840   45.5800 N   0  0  0  0  0  0  0  0  0  0  0  0
   47.1820   34.8570   42.1370 C   0  0  0  0  0  0  0  0  0  0  0  0
   48.4380   35.4620   42.0090 C   0  0  0  0  0  0  0  0  0  0  0  0
   48.9130   35.2540   40.7730 N   0  0  0  0  0  0  0  0  0  0  0  0
   47.9830   34.5270   40.1110 C   0  0  0  0  0  0  0  0  0  0  0  0
   47.9880   34.0460   38.8000 C   0  0  0  0  0  0  0  0  0  0  0  0
   46.9130   33.3210   38.3540 C   0  0  0  0  0  0  0  0  0  0  0  0
   45.7970   33.0360   39.1550 C   0  0  0  0  0  0  0  0  0  0  0  0
   45.8610   33.5400   40.4270 C   0  0  0  0  0  0  0  0  0  0  0  0
   46.8870   34.2580   40.9270 C   0  0  0  0  0  0  0  0  0  0  0  0
   45.9130   32.9010   46.4090 O   0  0  0  0  0  0  0  0  0  0  0  0
   45.2620   32.9090   47.6480 C   0  0  1  0  0  0  0  0  0  0  0  0
   44.7810   31.5830   48.1320 C   0  0  0  0  0  0  0  0  0  0  0  0
   46.0010   32.2600   48.7710 C   0  0  1  0  0  0  0  0  0  0  0  0
   47.3220   31.6200   48.4600 C   0  0  0  0  0  0  0  0  0  0  0  0
   48.3740   32.2950   48.5950 O   0  0  0  0  0  0  0  0  0  0  0  0
   47.5300   30.3430   48.0270 O   0  0  0  0  0  0  0  0  0  0  0  0
   48.8500   29.8310   47.9460 C   0  0  0  0  0  0  0  0  0  0  0  0
   47.3418   33.1102   44.1399 H   0  0  0  0  0  0  0  0  0  0  0  0
   43.8041   36.4900   44.7877 H   0  0  0  0  0  0  0  0  0  0  0  0
   48.9558   36.0223   42.8015 H   0  0  0  0  0  0  0  0  0  0  0  0
   49.8138   35.5844   40.3985 H   0  0  0  0  0  0  0  0  0  0  0  0
   48.8413   34.2457   38.1352 H   0  0  0  0  0  0  0  0  0  0  0  0
   46.9262   32.9454   37.3202 H   0  0  0  0  0  0  0  0  0  0  0  0
   44.9381   32.4536   38.7902 H   0  0  0  0  0  0  0  0  0  0  0  0
   45.0081   33.3435   41.0933 H   0  0  0  0  0  0  0  0  0  0  0  0
   44.7903   33.8926   47.5063 H   0  0  0  0  0  0  0  0  0  0  0  0
   43.8357   31.5080   48.6894 H   0  0  0  0  0  0  0  0  0  0  0  0
   44.5811   30.6057   47.6685 H   0  0  0  0  0  0  0  0  0  0  0  0
   46.3015   32.5776   49.7804 H   0  0  0  0  0  0  0  0  0  0  0  0
   49.2465   29.6772   48.9605 H   0  0  0  0  0  0  0  0  0  0  0  0
   48.8389   28.8720   47.4074 H   0  0  0  0  0  0  0  0  0  0  0  0
   49.4885   30.5467   47.4074 H   0  0  0  0  0  0  0  0  0  0  0  0
  1  6  1  0
  1 16  1  0
  2  1  2  0
  3  4  2  0
  3  2  1  0
  4  5  1  0
  5  6  2  0
  7  3  1  0
  8  7  2  0
  9  8  1  0
 10  9  1  0
 10 15  2  0
 11 10  1  0
 12 11  2  0
 12 13  1  0
 13 14  2  0
 14 15  1  0
 15  7  1  0
 16 17  1  0
 17 18  1  0
 17 19  1  0
 18 19  1  0
 20 21  2  0
 20 19  1  0
 22 20  1  0
 23 22  1  0
  2 24  1  0
  5 25  1  0
  8 26  1  0
  9 27  1  0
 11 28  1  0
 12 29  1  0
 13 30  1  0
 14 31  1  0
 17 32  1  1
 18 33  1  0
 18 34  1  0
 19 35  1  1
 23 36  1  0
 23 37  1  0
 23 38  1  0
M  ISO  8  24  14  25  14  26  14  27   9  28  14  29  14  30  14  31  14
M  ISO  7  32  13  33  13  34  13  35  13  36   8  37   8  38   8
M  END
>  <minimizedAffinity>  (1) 
-6.42583084

>  <minimizedRMSD>  (1) 
0.502055049

$$$$
