
     RDKit          3D

 16 17  0  0  0  0  0  0  0  0999 V2000
   44.5430   35.7620   44.6780 C   0  0  0  0  0  0  0  0  0  0  0  0
   45.2250   35.5530   43.4570 C   0  0  0  0  0  0  0  0  0  0  0  0
   46.1330   34.4950   43.3770 C   0  0  0  0  0  0  0  0  0  0  0  0
   46.3120   33.7170   44.4970 N   0  0  0  0  0  0  0  0  0  0  0  0
   45.6450   33.9490   45.6390 C   0  0  0  0  0  0  0  0  0  0  0  0
   44.7700   34.9540   45.7390 N   0  0  0  0  0  0  0  0  0  0  0  0
   45.8400   33.1330   46.7910 N   0  0  0  0  0  0  0  0  0  0  0  0
   47.0050   32.5060   47.0790 C   0  0  0  0  0  0  0  0  0  0  0  0
   46.8790   31.8150   48.2260 N   0  0  0  0  0  0  0  0  0  0  0  0
   45.6200   32.0100   48.6640 C   0  0  0  0  0  0  0  0  0  0  0  0
   45.0150   32.8130   47.7730 N   0  0  0  0  0  0  0  0  0  0  0  0
   43.8221   36.5882   44.7658 H   0  0  0  0  0  0  0  0  0  0  0  0
   45.0448   36.2076   42.5916 H   0  0  0  0  0  0  0  0  0  0  0  0
   46.6868   34.2906   42.4488 H   0  0  0  0  0  0  0  0  0  0  0  0
   47.9176   32.5545   46.4668 H   0  0  0  0  0  0  0  0  0  0  0  0
   45.1725   31.5913   49.5775 H   0  0  0  0  0  0  0  0  0  0  0  0
  1  6  2  0
  2  1  1  0
  3  2  2  0
  3  4  1  0
  4  5  2  0
  5  6  1  0
  5  7  1  0
  7  8  1  0
  7 11  1  0
  8  9  2  0
  9 10  1  0
 11 10  2  0
  1 12  1  0
  2 13  1  0
  3 14  1  0
  8 15  1  0
 10 16  1  0
M  ISO  5  12  14  13  14  14  14  15  14  16  14
M  END
>  <minimizedAffinity>  (1) 
-4.28193998

>  <minimizedRMSD>  (1) 
0.373460531

$$$$
