
     RDKit          3D

 19 20  0  0  0  0  0  0  0  0999 V2000
   44.4550   35.9310   44.6960 C   0  0  0  0  0  0  0  0  0  0  0  0
   44.5910   35.7860   43.3050 C   0  0  0  0  0  0  0  0  0  0  0  0
   45.2110   34.6410   42.8240 C   0  0  0  0  0  0  0  0  0  0  0  0
   45.6540   33.7170   43.7440 N   0  0  0  0  0  0  0  0  0  0  0  0
   45.5040   33.8940   45.0590 C   0  0  0  0  0  0  0  0  0  0  0  0
   44.9080   34.9950   45.5570 N   0  0  0  0  0  0  0  0  0  0  0  0
   45.9660   32.9320   46.0040 N   0  0  0  0  0  0  0  0  0  0  0  0
   47.0340   32.1350   45.7860 C   0  0  0  0  0  0  0  0  0  0  0  0
   47.2170   31.3400   46.8580 N   0  0  0  0  0  0  0  0  0  0  0  0
   46.2650   31.6360   47.7510 C   0  0  0  0  0  0  0  0  0  0  0  0
   45.5150   32.6100   47.2070 N   0  0  0  0  0  0  0  0  0  0  0  0
   45.9840   31.0780   49.1020 C   0  0  0  0  0  0  0  0  0  0  0  0
   47.1620   30.7070   49.6950 F   0  0  0  0  0  0  0  0  0  0  0  0
   45.3360   31.9770   49.9230 F   0  0  0  0  0  0  0  0  0  0  0  0
   45.1830   29.9640   49.0200 F   0  0  0  0  0  0  0  0  0  0  0  0
   43.9659   36.8321   45.0944 H   0  0  0  0  0  0  0  0  0  0  0  0
   44.2167   36.5581   42.6167 H   0  0  0  0  0  0  0  0  0  0  0  0
   45.3440   34.4772   41.7444 H   0  0  0  0  0  0  0  0  0  0  0  0
   47.6552   32.1349   44.8782 H   0  0  0  0  0  0  0  0  0  0  0  0
  1  6  2  0
  2  1  1  0
  3  2  2  0
  3  4  1  0
  4  5  2  0
  5  6  1  0
  5  7  1  0
  7 11  1  0
  8  7  1  0
  8  9  2  0
  9 10  1  0
 10 12  1  0
 11 10  2  0
 12 13  1  0
 12 14  1  0
 15 12  1  0
  1 16  1  0
  2 17  1  0
  3 18  1  0
  8 19  1  0
M  ISO  4  16  14  17  14  18  14  19  14
M  END
>  <minimizedAffinity>  (1) 
-5.14827633

>  <minimizedRMSD>  (1) 
1.3154968

$$$$
