
     RDKit          3D

 22 23  0  0  0  0  0  0  0  0999 V2000
   44.4480   36.0940   44.5310 C   0  0  0  0  0  0  0  0  0  0  0  0
   45.0310   35.9870   43.2490 C   0  0  0  0  0  0  0  0  0  0  0  0
   45.9230   34.9460   43.0130 C   0  0  0  0  0  0  0  0  0  0  0  0
   46.1870   34.0760   44.0470 N   0  0  0  0  0  0  0  0  0  0  0  0
   45.6070   34.2220   45.2420 C   0  0  0  0  0  0  0  0  0  0  0  0
   44.7360   35.2200   45.5100 N   0  0  0  0  0  0  0  0  0  0  0  0
   45.8700   33.3300   46.3330 N   0  0  0  0  0  0  0  0  0  0  0  0
   47.0710   32.6950   46.4660 C   0  0  0  0  0  0  0  0  0  0  0  0
   47.0210   31.9330   47.5770 N   0  0  0  0  0  0  0  0  0  0  0  0
   45.8130   32.0880   48.1300 C   0  0  0  0  0  0  0  0  0  0  0  0
   45.1340   32.9370   47.3610 N   0  0  0  0  0  0  0  0  0  0  0  0
   45.2860   31.4490   49.3730 C   0  0  0  0  0  0  0  0  0  0  0  0
   45.0470   29.9750   49.1520 C   0  0  0  0  0  0  0  0  0  0  0  0
   43.7413   36.9124   44.7328 H   0  0  0  0  0  0  0  0  0  0  0  0
   44.7857   36.7093   42.4565 H   0  0  0  0  0  0  0  0  0  0  0  0
   46.4025   34.8217   42.0309 H   0  0  0  0  0  0  0  0  0  0  0  0
   47.9300   32.7887   45.7853 H   0  0  0  0  0  0  0  0  0  0  0  0
   46.0173   31.5791   50.1844 H   0  0  0  0  0  0  0  0  0  0  0  0
   44.3320   31.9269   49.6405 H   0  0  0  0  0  0  0  0  0  0  0  0
   44.9646   29.4671   50.1242 H   0  0  0  0  0  0  0  0  0  0  0  0
   44.1145   29.8356   48.5854 H   0  0  0  0  0  0  0  0  0  0  0  0
   45.8877   29.5481   48.5854 H   0  0  0  0  0  0  0  0  0  0  0  0
  1  6  2  0
  2  1  1  0
  3  2  2  0
  3  4  1  0
  4  5  2  0
  5  6  1  0
  5  7  1  0
  7  8  1  0
  7 11  1  0
  8  9  2  0
  9 10  1  0
 10 12  1  0
 11 10  2  0
 13 12  1  0
  1 14  1  0
  2 15  1  0
  3 16  1  0
  8 17  1  0
 12 18  1  0
 12 19  1  0
 13 20  1  0
 13 21  1  0
 13 22  1  0
M  ISO  8  14  14  15  14  16  14  17  14  18   8  19   8  20   8  21   8
M  ISO  1  22   8
M  END
>  <minimizedAffinity>  (1) 
-4.69380093

>  <minimizedRMSD>  (1) 
0.557538807

$$$$
