
     RDKit          3D

 18 19  0  0  0  0  0  0  0  0999 V2000
   44.5000   35.8080   44.6230 C   0  0  0  0  0  0  0  0  0  0  0  0
   45.1040   35.5390   43.3660 C   0  0  0  0  0  0  0  0  0  0  0  0
   45.9730   34.4610   43.2650 C   0  0  0  0  0  0  0  0  0  0  0  0
   46.2080   33.7020   44.3920 N   0  0  0  0  0  0  0  0  0  0  0  0
   45.6110   33.9960   45.5650 C   0  0  0  0  0  0  0  0  0  0  0  0
   44.7690   35.0300   45.6890 N   0  0  0  0  0  0  0  0  0  0  0  0
   45.8650   33.2020   46.7200 N   0  0  0  0  0  0  0  0  0  0  0  0
   47.0310   32.5630   46.9690 C   0  0  0  0  0  0  0  0  0  0  0  0
   46.9590   31.9030   48.1280 N   0  0  0  0  0  0  0  0  0  0  0  0
   45.7190   32.1310   48.6230 C   0  0  0  0  0  0  0  0  0  0  0  0
   45.0620   32.9270   47.7490 N   0  0  0  0  0  0  0  0  0  0  0  0
   45.1830   31.6310   49.8420 N   0  0  0  0  0  0  0  0  0  0  0  0
   43.8082   36.6570   44.7265 H   0  0  0  0  0  0  0  0  0  0  0  0
   44.8880   36.1708   42.4918 H   0  0  0  0  0  0  0  0  0  0  0  0
   46.4618   34.2184   42.3099 H   0  0  0  0  0  0  0  0  0  0  0  0
   47.9123   32.5839   46.3111 H   0  0  0  0  0  0  0  0  0  0  0  0
   44.2206   31.8720   50.1186 H   0  0  0  0  0  0  0  0  0  0  0  0
   45.7573   31.0279   50.4481 H   0  0  0  0  0  0  0  0  0  0  0  0
  1  6  2  0
  2  1  1  0
  3  2  2  0
  3  4  1  0
  4  5  2  0
  5  6  1  0
  5  7  1  0
  7  8  1  0
  7 11  1  0
  8  9  2  0
  9 10  1  0
 10 12  1  0
 11 10  2  0
  1 13  1  0
  2 14  1  0
  3 15  1  0
  8 16  1  0
 12 17  1  0
 12 18  1  0
M  ISO  4  13  14  14  14  15  14  16  14
M  END
>  <minimizedAffinity>  (1) 
-5.04971123

>  <minimizedRMSD>  (1) 
0.145118013

$$$$
