
     RDKit          3D

 18 19  0  0  0  0  0  0  0  0999 V2000
   44.4530   36.0460   44.5720 C   0  0  0  0  0  0  0  0  0  0  0  0
   45.0460   35.9290   43.3040 C   0  0  0  0  0  0  0  0  0  0  0  0
   45.9560   34.8810   43.0760 C   0  0  0  0  0  0  0  0  0  0  0  0
   46.2230   34.0180   44.1090 N   0  0  0  0  0  0  0  0  0  0  0  0
   45.6260   34.1710   45.3140 C   0  0  0  0  0  0  0  0  0  0  0  0
   44.7690   35.1580   45.5280 N   0  0  0  0  0  0  0  0  0  0  0  0
   45.9090   33.2710   46.3780 N   0  0  0  0  0  0  0  0  0  0  0  0
   47.0830   32.6150   46.5380 C   0  0  0  0  0  0  0  0  0  0  0  0
   47.0330   31.8450   47.6340 N   0  0  0  0  0  0  0  0  0  0  0  0
   45.8180   32.0130   48.1720 C   0  0  0  0  0  0  0  0  0  0  0  0
   45.1410   32.8890   47.3930 N   0  0  0  0  0  0  0  0  0  0  0  0
   45.2610   31.3860   49.3910 C   0  0  0  0  0  0  0  0  0  0  0  0
   44.9110   30.1650   49.3810 O   0  0  0  0  0  0  0  0  0  0  0  0
   43.7380   36.8558   44.7792 H   0  0  0  0  0  0  0  0  0  0  0  0
   44.8032   36.6439   42.5040 H   0  0  0  0  0  0  0  0  0  0  0  0
   46.4405   34.7566   42.0963 H   0  0  0  0  0  0  0  0  0  0  0  0
   47.9503   32.7014   45.8670 H   0  0  0  0  0  0  0  0  0  0  0  0
   45.1495   31.9800   50.3101 H   0  0  0  0  0  0  0  0  0  0  0  0
  1  6  2  0
  2  1  1  0
  3  2  2  0
  3  4  1  0
  4  5  2  0
  5  6  1  0
  5  7  1  0
  7  8  1  0
  7 11  1  0
  8  9  2  0
  9 10  1  0
 10 12  1  0
 11 10  2  0
 13 12  2  0
  1 14  1  0
  2 15  1  0
  3 16  1  0
  8 17  1  0
 12 18  1  0
M  ISO  5  14  14  15  14  16  14  17  14  18   6
M  END
>  <minimizedAffinity>  (1) 
-4.57592058

>  <minimizedRMSD>  (1) 
0.585692346

$$$$
