
     RDKit          3D

 23 25  0  0  0  0  0  0  0  0999 V2000
   44.5850   35.8250   44.9360 C   0  0  0  0  0  0  0  0  0  0  0  0
   44.9290   36.3820   43.6860 C   0  0  0  0  0  0  0  0  0  0  0  0
   45.7290   35.6420   42.8210 C   0  0  0  0  0  0  0  0  0  0  0  0
   46.1330   34.4050   43.2530 N   0  0  0  0  0  0  0  0  0  0  0  0
   45.7870   33.9020   44.4500 C   0  0  0  0  0  0  0  0  0  0  0  0
   45.0150   34.5920   45.3100 N   0  0  0  0  0  0  0  0  0  0  0  0
   46.2210   32.6110   44.8760 N   0  0  0  0  0  0  0  0  0  0  0  0
   47.3850   32.0480   44.4760 C   0  0  0  0  0  0  0  0  0  0  0  0
   47.5090   30.8370   45.0440 N   0  0  0  0  0  0  0  0  0  0  0  0
   46.4250   30.6340   45.8020 C   0  0  0  0  0  0  0  0  0  0  0  0
   45.6710   31.7270   45.6740 N   0  0  0  0  0  0  0  0  0  0  0  0
   46.1340   29.4650   46.5970 N   0  0  0  0  0  0  0  0  0  0  0  0
   46.9580   28.4150   46.7330 C   0  0  0  0  0  0  0  0  0  0  0  0
   46.2650   27.5440   47.5780 C   0  0  0  0  0  0  0  0  0  0  0  0
   45.0660   28.0920   47.9170 N   0  0  0  0  0  0  0  0  0  0  0  0
   45.0000   29.2890   47.2960 C   0  0  0  0  0  0  0  0  0  0  0  0
   43.9526   36.4040   45.6251 H   0  0  0  0  0  0  0  0  0  0  0  0
   44.5714   37.3824   43.4008 H   0  0  0  0  0  0  0  0  0  0  0  0
   46.0239   36.0316   41.8355 H   0  0  0  0  0  0  0  0  0  0  0  0
   48.1142   32.5092   43.7937 H   0  0  0  0  0  0  0  0  0  0  0  0
   47.9514   28.2724   46.2826 H   0  0  0  0  0  0  0  0  0  0  0  0
   46.6326   26.5644   47.9176 H   0  0  0  0  0  0  0  0  0  0  0  0
   44.1615   29.9987   47.3526 H   0  0  0  0  0  0  0  0  0  0  0  0
  1  6  2  0
  2  1  1  0
  3  4  1  0
  3  2  2  0
  4  5  2  0
  5  7  1  0
  5  6  1  0
  7 11  1  0
  8  7  1  0
  8  9  2  0
  9 10  1  0
 10 12  1  0
 11 10  2  0
 12 13  1  0
 12 16  1  0
 13 14  2  0
 14 15  1  0
 16 15  2  0
  1 17  1  0
  2 18  1  0
  3 19  1  0
  8 20  1  0
 13 21  1  0
 14 22  1  0
 16 23  1  0
M  ISO  7  17  14  18  14  19  14  20  14  21  14  22  14  23  14
M  END
>  <minimizedAffinity>  (1) 
-4.2594862

>  <minimizedRMSD>  (1) 
3.07376814

$$$$
