
     RDKit          3D

 29 31  0  0  0  0  0  0  0  0999 V2000
   44.6000   35.8100   44.9820 C   0  0  0  0  0  0  0  0  0  0  0  0
   44.8090   36.2980   43.6600 C   0  0  0  0  0  0  0  0  0  0  0  0
   45.5440   35.5090   42.7570 C   0  0  0  0  0  0  0  0  0  0  0  0
   46.0170   34.3020   43.2180 N   0  0  0  0  0  0  0  0  0  0  0  0
   45.7990   33.8800   44.4660 C   0  0  0  0  0  0  0  0  0  0  0  0
   45.1010   34.6160   45.3420 N   0  0  0  0  0  0  0  0  0  0  0  0
   46.3010   32.6210   44.9200 N   0  0  0  0  0  0  0  0  0  0  0  0
   47.4390   32.0560   44.4710 C   0  0  0  0  0  0  0  0  0  0  0  0
   47.6410   30.8800   45.0890 N   0  0  0  0  0  0  0  0  0  0  0  0
   46.6030   30.7060   45.9460 C   0  0  0  0  0  0  0  0  0  0  0  0
   45.8090   31.7800   45.8180 N   0  0  0  0  0  0  0  0  0  0  0  0
   46.3340   29.6240   46.8380 N   0  0  0  0  0  0  0  0  0  0  0  0
   47.3490   28.7990   47.4750 C   0  0  0  0  0  0  0  0  0  0  0  0
   47.0450   27.3330   47.2670 C   0  0  0  0  0  0  0  0  0  0  0  0
   45.7670   27.1050   46.8180 O   0  0  0  0  0  0  0  0  0  0  0  0
   44.8020   27.8760   47.4580 C   0  0  0  0  0  0  0  0  0  0  0  0
   44.9350   29.3440   47.1180 C   0  0  0  0  0  0  0  0  0  0  0  0
   44.0296   36.4094   45.7068 H   0  0  0  0  0  0  0  0  0  0  0  0
   44.4034   37.2729   43.3515 H   0  0  0  0  0  0  0  0  0  0  0  0
   45.7327   35.8427   41.7260 H   0  0  0  0  0  0  0  0  0  0  0  0
   48.1039   32.4927   43.7113 H   0  0  0  0  0  0  0  0  0  0  0  0
   48.3312   29.0309   47.0375 H   0  0  0  0  0  0  0  0  0  0  0  0
   47.3555   29.0119   48.5542 H   0  0  0  0  0  0  0  0  0  0  0  0
   47.7527   26.9305   46.5273 H   0  0  0  0  0  0  0  0  0  0  0  0
   47.1424   26.8366   48.2438 H   0  0  0  0  0  0  0  0  0  0  0  0
   43.8057   27.5281   47.1476 H   0  0  0  0  0  0  0  0  0  0  0  0
   44.9413   27.7638   48.5434 H   0  0  0  0  0  0  0  0  0  0  0  0
   44.5966   29.9546   47.9681 H   0  0  0  0  0  0  0  0  0  0  0  0
   44.3175   29.5868   46.2407 H   0  0  0  0  0  0  0  0  0  0  0  0
  1  6  2  0
  2  1  1  0
  3  4  1  0
  3  2  2  0
  4  5  2  0
  5  7  1  0
  5  6  1  0
  7 11  1  0
  8  7  1  0
  8  9  2  0
  9 10  1  0
 10 12  1  0
 11 10  2  0
 12 17  1  0
 12 13  1  0
 14 13  1  0
 15 14  1  0
 15 16  1  0
 17 16  1  0
  1 18  1  0
  2 19  1  0
  3 20  1  0
  8 21  1  0
 13 22  1  0
 13 23  1  0
 14 24  1  0
 14 25  1  0
 16 26  1  0
 16 27  1  0
 17 28  1  0
 17 29  1  0
M  ISO  8  18  14  19  14  20  14  21  14  22  13  23  13  24  13  25  13
M  ISO  4  26  13  27  13  28  13  29  13
M  END
>  <minimizedAffinity>  (1) 
-4.43536329

>  <minimizedRMSD>  (1) 
3.08908367

$$$$
