
     RDKit          3D

 29 31  0  0  0  0  0  0  0  0999 V2000
   45.1500   36.0460   43.0800 C   0  0  0  0  0  0  0  0  0  0  0  0
   44.1970   35.8770   42.0590 C   0  0  0  0  0  0  0  0  0  0  0  0
   43.7140   34.5860   41.8110 C   0  0  0  0  0  0  0  0  0  0  0  0
   44.1910   33.5430   42.5750 N   0  0  0  0  0  0  0  0  0  0  0  0
   45.1070   33.7550   43.5430 C   0  0  0  0  0  0  0  0  0  0  0  0
   45.5840   34.9830   43.7990 N   0  0  0  0  0  0  0  0  0  0  0  0
   45.6050   32.6940   44.3350 N   0  0  0  0  0  0  0  0  0  0  0  0
   45.7200   31.4180   43.8810 C   0  0  0  0  0  0  0  0  0  0  0  0
   46.2250   30.6260   44.8560 N   0  0  0  0  0  0  0  0  0  0  0  0
   46.4250   31.4280   45.9320 C   0  0  0  0  0  0  0  0  0  0  0  0
   46.0440   32.6600   45.5910 N   0  0  0  0  0  0  0  0  0  0  0  0
   46.9660   30.9560   47.2120 C   0  0  0  0  0  0  0  0  0  0  0  0
   47.6010   32.0910   48.0290 C   0  0  0  0  0  0  0  0  0  0  0  0
   48.1420   31.2490   49.1930 C   0  0  0  0  0  0  0  0  0  0  0  0
   48.6700   29.9910   48.5060 C   0  0  0  0  0  0  0  0  0  0  0  0
   48.1710   30.0480   47.0750 C   0  0  0  0  0  0  0  0  0  0  0  0
   45.5459   37.0493   43.2962 H   0  0  0  0  0  0  0  0  0  0  0  0
   43.8408   36.7358   41.4712 H   0  0  0  0  0  0  0  0  0  0  0  0
   42.9686   34.4081   41.0219 H   0  0  0  0  0  0  0  0  0  0  0  0
   45.4438   31.0792   42.8716 H   0  0  0  0  0  0  0  0  0  0  0  0
   46.0865   30.4731   47.6628 H   0  0  0  0  0  0  0  0  0  0  0  0
   48.4040   32.6014   47.4770 H   0  0  0  0  0  0  0  0  0  0  0  0
   46.9297   32.9174   48.3055 H   0  0  0  0  0  0  0  0  0  0  0  0
   48.9499   31.7784   49.7193 H   0  0  0  0  0  0  0  0  0  0  0  0
   47.3803   31.0332   49.9567 H   0  0  0  0  0  0  0  0  0  0  0  0
   49.7698   29.9789   48.5260 H   0  0  0  0  0  0  0  0  0  0  0  0
   48.3218   29.0804   49.0155 H   0  0  0  0  0  0  0  0  0  0  0  0
   47.8836   29.0511   46.7095 H   0  0  0  0  0  0  0  0  0  0  0  0
   48.9204   30.4029   46.3522 H   0  0  0  0  0  0  0  0  0  0  0  0
  1  6  2  0
  2  1  1  0
  3  2  2  0
  3  4  1  0
  4  5  2  0
  5  6  1  0
  5  7  1  0
  7 11  1  0
  8  7  1  0
  8  9  2  0
  9 10  1  0
 10 12  1  0
 11 10  2  0
 12 13  1  0
 13 14  1  0
 15 14  1  0
 16 12  1  0
 16 15  1  0
  1 17  1  0
  2 18  1  0
  3 19  1  0
  8 20  1  0
 12 21  1  0
 13 22  1  0
 13 23  1  0
 14 24  1  0
 14 25  1  0
 15 26  1  0
 15 27  1  0
 16 28  1  0
 16 29  1  0
M  ISO  8  17  14  18  14  19  14  20  14  21  13  22  13  23  13  24  13
M  ISO  5  25  13  26  13  27  13  28  13  29  13
M  END
>  <minimizedAffinity>  (1) 
-4.22708464

>  <minimizedRMSD>  (1) 
3.37757921

$$$$
