
     RDKit          3D

 35 39  0  0  0  0  0  0  0  0999 V2000
   47.1830   31.6600   48.2220 C   0  0  0  0  0  0  0  0  0  0  0  0
   45.9830   31.0400   48.2310 N   0  0  0  0  0  0  0  0  0  0  0  0
   45.1730   31.6690   47.4500 O   0  0  0  0  0  0  0  0  0  0  0  0
   45.7740   32.7080   46.9000 C   0  0  0  0  0  0  0  0  0  0  0  0
   47.0470   32.7080   47.3840 N   0  0  0  0  0  0  0  0  0  0  0  0
   45.3970   33.7320   45.9880 N   0  0  0  0  0  0  0  0  0  0  0  0
   44.6810   34.8230   46.3320 C   0  0  0  0  0  0  0  0  0  0  0  0
   44.4940   35.5930   45.2400 N   0  0  0  0  0  0  0  0  0  0  0  0
   45.1030   34.9640   44.2120 C   0  0  0  0  0  0  0  0  0  0  0  0
   45.2100   35.3310   42.8660 C   0  0  0  0  0  0  0  0  0  0  0  0
   44.6880   36.4050   42.4400 O   0  0  0  0  0  0  0  0  0  0  0  0
   45.8880   34.4920   42.0660 N   0  0  0  0  0  0  0  0  0  0  0  0
   46.4430   33.3420   42.5370 C   0  0  0  0  0  0  0  0  0  0  0  0
   47.1260   32.5640   41.5610 N   0  0  0  0  0  0  0  0  0  0  0  0
   46.3390   32.9920   43.8320 N   0  0  0  0  0  0  0  0  0  0  0  0
   45.6720   33.7950   44.6750 C   0  0  0  0  0  0  0  0  0  0  0  0
   51.1620   26.8510   50.8590 C   0  0  0  0  0  0  0  0  0  0  0  0
   52.0120   27.0970   51.9390 C   0  0  0  0  0  0  0  0  0  0  0  0
   52.1330   28.3990   52.3730 C   0  0  0  0  0  0  0  0  0  0  0  0
   51.4240   29.3840   51.7360 N   0  0  0  0  0  0  0  0  0  0  0  0
   50.6140   29.1040   50.6970 C   0  0  0  0  0  0  0  0  0  0  0  0
   50.4800   27.8550   50.2590 N   0  0  0  0  0  0  0  0  0  0  0  0
   49.8870   30.1350   50.0490 N   0  0  0  0  0  0  0  0  0  0  0  0
   50.3040   31.4210   49.9470 C   0  0  0  0  0  0  0  0  0  0  0  0
   49.3870   32.1390   49.2760 N   0  0  0  0  0  0  0  0  0  0  0  0
   48.3850   31.2940   48.9550 C   0  0  0  0  0  0  0  0  0  0  0  0
   48.7170   30.1040   49.4330 N   0  0  0  0  0  0  0  0  0  0  0  0
   44.3089   35.0486   47.3423 H   0  0  0  0  0  0  0  0  0  0  0  0
   45.9909   34.7254   41.0681 H   0  0  0  0  0  0  0  0  0  0  0  0
   47.5757   31.6777   41.8314 H   0  0  0  0  0  0  0  0  0  0  0  0
   47.1707   32.8871   40.5840 H   0  0  0  0  0  0  0  0  0  0  0  0
   51.0442   25.8220   50.4886 H   0  0  0  0  0  0  0  0  0  0  0  0
   52.5653   26.2805   52.4260 H   0  0  0  0  0  0  0  0  0  0  0  0
   52.7903   28.6449   53.2200 H   0  0  0  0  0  0  0  0  0  0  0  0
   51.2477   31.8161   50.3512 H   0  0  0  0  0  0  0  0  0  0  0  0
  1  2  2  0
  1 26  1  0
  3  2  1  0
  4  5  2  0
  4  3  1  0
  5  1  1  0
  6  7  1  0
  6  4  1  0
  8  7  2  0
  9 16  2  0
  9  8  1  0
 10  9  1  0
 11 10  2  0
 12 13  1  0
 12 10  1  0
 13 15  2  0
 14 13  1  0
 15 16  1  0
 16  6  1  0
 17 18  2  0
 18 19  1  0
 20 19  2  0
 21 20  1  0
 22 21  2  0
 22 17  1  0
 23 21  1  0
 24 23  1  0
 25 24  2  0
 26 25  1  0
 26 27  2  0
 27 23  1  0
  7 28  1  0
 12 29  1  0
 14 30  1  0
 14 31  1  0
 17 32  1  0
 18 33  1  0
 19 34  1  0
 24 35  1  0
M  ISO  6  28  14  29   9  32  14  33  14  34  14  35  14
M  END
>  <minimizedAffinity>  (1) 
-6.87328625

>  <minimizedRMSD>  (1) 
9.07244778

$$$$
