
     RDKit          3D

 28 30  0  0  0  0  0  0  0  0999 V2000
   44.5950   35.7550   44.9400 C   0  0  0  0  0  0  0  0  0  0  0  0
   44.9260   36.3920   43.7160 C   0  0  0  0  0  0  0  0  0  0  0  0
   45.7330   35.7010   42.8010 C   0  0  0  0  0  0  0  0  0  0  0  0
   46.1680   34.4320   43.1350 N   0  0  0  0  0  0  0  0  0  0  0  0
   45.8250   33.8720   44.3090 C   0  0  0  0  0  0  0  0  0  0  0  0
   45.0520   34.5140   45.2030 N   0  0  0  0  0  0  0  0  0  0  0  0
   46.2700   32.5630   44.6620 N   0  0  0  0  0  0  0  0  0  0  0  0
   47.4310   32.0320   44.2410 C   0  0  0  0  0  0  0  0  0  0  0  0
   47.5700   30.7950   44.7350 N   0  0  0  0  0  0  0  0  0  0  0  0
   46.4740   30.5410   45.4830 C   0  0  0  0  0  0  0  0  0  0  0  0
   45.7170   31.6370   45.4090 N   0  0  0  0  0  0  0  0  0  0  0  0
   46.2020   29.3410   46.1970 N   0  0  0  0  0  0  0  0  0  0  0  0
   47.2240   28.4690   46.7610 C   0  0  0  0  0  0  0  0  0  0  0  0
   46.4510   27.3820   47.4780 C   0  0  0  0  0  0  0  0  0  0  0  0
   45.1480   28.0900   47.7900 C   0  0  0  0  0  0  0  0  0  0  0  0
   44.8850   28.7980   46.4740 C   0  0  0  0  0  0  0  0  0  0  0  0
   43.9641   36.2748   45.6760 H   0  0  0  0  0  0  0  0  0  0  0  0
   44.5582   37.4038   43.4904 H   0  0  0  0  0  0  0  0  0  0  0  0
   46.0133   36.1577   41.8404 H   0  0  0  0  0  0  0  0  0  0  0  0
   48.1579   32.5378   43.5885 H   0  0  0  0  0  0  0  0  0  0  0  0
   47.8493   28.0391   45.9647 H   0  0  0  0  0  0  0  0  0  0  0  0
   47.9048   29.0088   47.4356 H   0  0  0  0  0  0  0  0  0  0  0  0
   46.2882   26.5097   46.8279 H   0  0  0  0  0  0  0  0  0  0  0  0
   46.9638   26.9778   48.3632 H   0  0  0  0  0  0  0  0  0  0  0  0
   44.3473   27.3756   48.0321 H   0  0  0  0  0  0  0  0  0  0  0  0
   45.1904   28.7562   48.6643 H   0  0  0  0  0  0  0  0  0  0  0  0
   44.1330   29.5932   46.5840 H   0  0  0  0  0  0  0  0  0  0  0  0
   44.4790   28.1536   45.6803 H   0  0  0  0  0  0  0  0  0  0  0  0
  1  6  2  0
  2  1  1  0
  3  4  1  0
  3  2  2  0
  4  5  2  0
  5  7  1  0
  5  6  1  0
  7 11  1  0
  8  7  1  0
  8  9  2  0
  9 10  1  0
 10 12  1  0
 11 10  2  0
 12 16  1  0
 12 13  1  0
 13 14  1  0
 14 15  1  0
 16 15  1  0
  1 17  1  0
  2 18  1  0
  3 19  1  0
  8 20  1  0
 13 21  1  0
 13 22  1  0
 14 23  1  0
 14 24  1  0
 15 25  1  0
 15 26  1  0
 16 27  1  0
 16 28  1  0
M  ISO  8  17  14  18  14  19  14  20  14  21  13  22  13  23  13  24  13
M  ISO  4  25  13  26  13  27  13  28  13
M  END
>  <minimizedAffinity>  (1) 
-4.18002081

>  <minimizedRMSD>  (1) 
3.39360595

$$$$
