
     RDKit          3D

 28 30  0  0  0  0  0  0  0  0999 V2000
   44.5840   35.5870   45.3140 C   0  0  0  0  0  0  0  0  0  0  0  0
   44.7210   36.2520   44.0720 C   0  0  0  0  0  0  0  0  0  0  0  0
   45.4510   35.6350   43.0530 C   0  0  0  0  0  0  0  0  0  0  0  0
   45.9860   34.4130   43.3470 N   0  0  0  0  0  0  0  0  0  0  0  0
   45.8480   33.8000   44.5190 C   0  0  0  0  0  0  0  0  0  0  0  0
   45.1570   34.3840   45.4830 N   0  0  0  0  0  0  0  0  0  0  0  0
   46.4240   32.5320   44.7720 N   0  0  0  0  0  0  0  0  0  0  0  0
   47.5490   32.0730   44.1510 C   0  0  0  0  0  0  0  0  0  0  0  0
   47.8380   30.8470   44.6020 N   0  0  0  0  0  0  0  0  0  0  0  0
   46.8920   30.5300   45.5100 C   0  0  0  0  0  0  0  0  0  0  0  0
   46.0490   31.5600   45.5970 N   0  0  0  0  0  0  0  0  0  0  0  0
   46.8390   29.2760   46.2400 C   0  0  0  0  0  0  0  0  0  0  0  0
   47.7280   28.2800   46.2720 N   0  0  0  0  0  0  0  0  0  0  0  0
   47.2880   27.3410   47.0530 O   0  0  0  0  0  0  0  0  0  0  0  0
   46.1120   27.6570   47.5690 C   0  0  0  0  0  0  0  0  0  0  0  0
   45.8530   28.8760   47.0420 N   0  0  0  0  0  0  0  0  0  0  0  0
   45.3410   26.8750   48.4580 N   0  0  0  0  0  0  0  0  0  0  0  0
   45.7920   25.6030   48.9080 C   0  0  0  0  0  0  0  0  0  0  0  0
   47.0520   25.4340   49.1160 N   0  0  0  0  0  0  0  0  0  0  0  0
   44.8610   24.5520   49.1180 N   0  0  0  0  0  0  0  0  0  0  0  0
   47.7540   26.1630   48.9780 H   0  0  0  0  0  0  0  0  0  0  0  0
   44.0140   36.0508   46.1326 H   0  0  0  0  0  0  0  0  0  0  0  0
   44.2604   37.2380   43.9118 H   0  0  0  0  0  0  0  0  0  0  0  0
   45.5873   36.1070   42.0688 H   0  0  0  0  0  0  0  0  0  0  0  0
   48.1284   32.6253   43.3966 H   0  0  0  0  0  0  0  0  0  0  0  0
   44.4332   27.2334   48.7872 H   0  0  0  0  0  0  0  0  0  0  0  0
   45.1884   23.6314   49.4438 H   0  0  0  0  0  0  0  0  0  0  0  0
   43.8581   24.7101   48.9445 H   0  0  0  0  0  0  0  0  0  0  0  0
  1  6  2  0
  2  1  1  0
  3  4  1  0
  3  2  2  0
  4  5  2  0
  5  7  1  0
  5  6  1  0
  7 11  1  0
  8  9  2  0
  8  7  1  0
  9 10  1  0
 10 11  2  0
 10 12  1  0
 12 13  2  0
 12 16  1  0
 13 14  1  0
 14 15  1  0
 15 17  1  0
 16 15  2  0
 17 18  1  0
 18 19  2  0
 18 20  1  0
 21 19  1  0
  1 22  1  0
  2 23  1  0
  3 24  1  0
  8 25  1  0
 17 26  1  0
 20 27  1  0
 20 28  1  0
M  ISO  4  22  14  23  14  24  14  25  14
M  END
>  <minimizedAffinity>  (1) 
-5.16262913

>  <minimizedRMSD>  (1) 
0.949795961

$$$$
