
     RDKit          3D

 32 36  0  0  0  0  0  0  0  0999 V2000
   44.6080   35.3360   45.5050 C   0  0  0  0  0  0  0  0  0  0  0  0
   44.7270   36.1690   44.3690 C   0  0  0  0  0  0  0  0  0  0  0  0
   45.4510   35.7040   43.2910 C   0  0  0  0  0  0  0  0  0  0  0  0
   46.0200   34.4520   43.3790 N   0  0  0  0  0  0  0  0  0  0  0  0
   45.8840   33.6930   44.4720 C   0  0  0  0  0  0  0  0  0  0  0  0
   45.1930   34.1250   45.5140 N   0  0  0  0  0  0  0  0  0  0  0  0
   46.4820   32.4030   44.5360 N   0  0  0  0  0  0  0  0  0  0  0  0
   47.6390   32.0620   43.9060 C   0  0  0  0  0  0  0  0  0  0  0  0
   47.9160   30.7720   44.1770 N   0  0  0  0  0  0  0  0  0  0  0  0
   46.9470   30.3090   44.9670 C   0  0  0  0  0  0  0  0  0  0  0  0
   46.0800   31.3100   45.1780 N   0  0  0  0  0  0  0  0  0  0  0  0
   46.8660   28.9550   45.4920 C   0  0  0  0  0  0  0  0  0  0  0  0
   47.4490   27.8410   45.0130 N   0  0  0  0  0  0  0  0  0  0  0  0
   47.1330   26.8430   45.7620 O   0  0  0  0  0  0  0  0  0  0  0  0
   46.3480   27.2240   46.7490 C   0  0  0  0  0  0  0  0  0  0  0  0
   46.1760   28.5630   46.5820 N   0  0  0  0  0  0  0  0  0  0  0  0
   45.7200   26.5540   47.8370 N   0  0  0  0  0  0  0  0  0  0  0  0
   44.4400   26.7580   48.2170 C   0  0  0  0  0  0  0  0  0  0  0  0
   44.2160   25.9420   49.2800 N   0  0  0  0  0  0  0  0  0  0  0  0
   45.3400   25.2440   49.5540 C   0  0  0  0  0  0  0  0  0  0  0  0
   45.7240   24.2920   50.4820 C   0  0  0  0  0  0  0  0  0  0  0  0
   46.9830   23.7770   50.4770 N   0  0  0  0  0  0  0  0  0  0  0  0
   47.8850   24.2000   49.5460 C   0  0  0  0  0  0  0  0  0  0  0  0
   47.5400   25.1280   48.6280 N   0  0  0  0  0  0  0  0  0  0  0  0
   46.3010   25.6370   48.6290 C   0  0  0  0  0  0  0  0  0  0  0  0
   44.0373   35.6781   46.3810 H   0  0  0  0  0  0  0  0  0  0  0  0
   44.2545   37.1621   44.3454 H   0  0  0  0  0  0  0  0  0  0  0  0
   45.5710   36.3163   42.3851 H   0  0  0  0  0  0  0  0  0  0  0  0
   48.2477   32.7298   43.2788 H   0  0  0  0  0  0  0  0  0  0  0  0
   43.7196   27.4497   47.7559 H   0  0  0  0  0  0  0  0  0  0  0  0
   45.0003   23.9466   51.2350 H   0  0  0  0  0  0  0  0  0  0  0  0
   48.9023   23.7816   49.5428 H   0  0  0  0  0  0  0  0  0  0  0  0
  1  6  2  0
  2  1  1  0
  3  4  1  0
  3  2  2  0
  4  5  2  0
  5  7  1  0
  5  6  1  0
  7 11  1  0
  8  9  2  0
  8  7  1  0
  9 10  1  0
 10 11  2  0
 10 12  1  0
 12 16  1  0
 13 12  2  0
 13 14  1  0
 14 15  1  0
 15 17  1  0
 16 15  2  0
 17 18  1  0
 17 25  1  0
 18 19  2  0
 19 20  1  0
 20 21  2  0
 22 21  1  0
 23 22  2  0
 24 25  2  0
 24 23  1  0
 25 20  1  0
  1 26  1  0
  2 27  1  0
  3 28  1  0
  8 29  1  0
 18 30  1  0
 21 31  1  0
 23 32  1  0
M  ISO  7  26  14  27  14  28  14  29  14  30  14  31  14  32  14
M  END
>  <minimizedAffinity>  (1) 
-5.4470191

>  <minimizedRMSD>  (1) 
2.15679288

$$$$
