
     RDKit          3D

 34 38  0  0  0  0  0  0  0  0999 V2000
   46.9430   28.8420   45.8300 C   0  0  0  0  0  0  0  0  0  0  0  0
   47.6020   27.7500   45.4230 N   0  0  0  0  0  0  0  0  0  0  0  0
   47.3120   26.7740   46.2150 O   0  0  0  0  0  0  0  0  0  0  0  0
   46.4660   27.1610   47.1610 C   0  0  0  0  0  0  0  0  0  0  0  0
   46.2320   28.4680   46.9220 N   0  0  0  0  0  0  0  0  0  0  0  0
   45.8750   26.4430   48.2390 N   0  0  0  0  0  0  0  0  0  0  0  0
   44.6550   26.6780   48.7560 C   0  0  0  0  0  0  0  0  0  0  0  0
   44.4170   25.8280   49.7470 N   0  0  0  0  0  0  0  0  0  0  0  0
   45.4760   25.0320   49.8850 C   0  0  0  0  0  0  0  0  0  0  0  0
   45.7300   23.9920   50.7610 C   0  0  0  0  0  0  0  0  0  0  0  0
   46.9290   23.3650   50.6470 N   0  0  0  0  0  0  0  0  0  0  0  0
   47.8270   23.7600   49.7010 C   0  0  0  0  0  0  0  0  0  0  0  0
   47.5930   24.7830   48.8290 N   0  0  0  0  0  0  0  0  0  0  0  0
   46.4040   25.4090   48.9410 C   0  0  0  0  0  0  0  0  0  0  0  0
   44.6320   35.2190   45.7140 C   0  0  0  0  0  0  0  0  0  0  0  0
   44.6290   35.9750   44.5430 C   0  0  0  0  0  0  0  0  0  0  0  0
   45.2490   35.4470   43.4320 C   0  0  0  0  0  0  0  0  0  0  0  0
   45.8410   34.2140   43.5120 N   0  0  0  0  0  0  0  0  0  0  0  0
   45.8230   33.5120   44.6660 C   0  0  0  0  0  0  0  0  0  0  0  0
   45.2260   34.0020   45.7650 N   0  0  0  0  0  0  0  0  0  0  0  0
   46.4330   32.2350   44.7480 N   0  0  0  0  0  0  0  0  0  0  0  0
   47.5240   31.8720   44.0340 C   0  0  0  0  0  0  0  0  0  0  0  0
   47.8580   30.5970   44.3300 N   0  0  0  0  0  0  0  0  0  0  0  0
   46.9600   30.1700   45.2390 C   0  0  0  0  0  0  0  0  0  0  0  0
   46.1020   31.1760   45.4820 N   0  0  0  0  0  0  0  0  0  0  0  0
   44.7420   23.6340   51.7250 N   0  0  0  0  0  0  0  0  0  0  0  0
   43.9600   27.4570   48.4095 H   0  0  0  0  0  0  0  0  0  0  0  0
   48.7877   23.2279   49.6373 H   0  0  0  0  0  0  0  0  0  0  0  0
   44.1425   35.6181   46.6146 H   0  0  0  0  0  0  0  0  0  0  0  0
   44.1464   36.9628   44.5072 H   0  0  0  0  0  0  0  0  0  0  0  0
   45.2687   36.0110   42.4878 H   0  0  0  0  0  0  0  0  0  0  0  0
   48.0578   32.5173   43.3208 H   0  0  0  0  0  0  0  0  0  0  0  0
   44.9201   22.8613   52.3824 H   0  0  0  0  0  0  0  0  0  0  0  0
   43.8503   24.1481   51.7639 H   0  0  0  0  0  0  0  0  0  0  0  0
  1  5  1  0
  2  1  2  0
  2  3  1  0
  3  4  1  0
  4  6  1  0
  5  4  2  0
  6  7  1  0
  6 14  1  0
  7  8  2  0
  8  9  1  0
  9 10  2  0
 10 26  1  0
 11 10  1  0
 12 11  2  0
 13 14  2  0
 13 12  1  0
 14  9  1  0
 15 20  2  0
 16 15  1  0
 17 18  1  0
 17 16  2  0
 18 19  2  0
 19 21  1  0
 19 20  1  0
 21 25  1  0
 22 23  2  0
 22 21  1  0
 23 24  1  0
 24 25  2  0
 24  1  1  0
  7 27  1  0
 12 28  1  0
 15 29  1  0
 16 30  1  0
 17 31  1  0
 22 32  1  0
 26 33  1  0
 26 34  1  0
M  ISO  6  27  14  28  14  29  14  30  14  31  14  32  14
M  END
>  <minimizedAffinity>  (1) 
-6.29635096

>  <minimizedRMSD>  (1) 
2.13587666

$$$$
