
     RDKit          3D

 33 35  0  0  0  0  0  0  0  0999 V2000
   47.6450   34.6780   41.5200 C   0  0  0  0  0  0  0  0  0  0  0  0
   47.2950   34.2140   40.1580 C   0  0  0  0  0  0  0  0  0  0  0  0
   48.1870   34.1970   39.1100 C   0  0  0  0  0  0  0  0  0  0  0  0
   47.9230   33.7670   37.8220 C   0  0  0  0  0  0  0  0  0  0  0  0
   46.6610   33.3280   37.6080 N   0  0  0  0  0  0  0  0  0  0  0  0
   45.7510   33.3340   38.6370 C   0  0  0  0  0  0  0  0  0  0  0  0
   46.0260   33.7590   39.8890 N   0  0  0  0  0  0  0  0  0  0  0  0
   44.3950   32.8580   38.3850 C   0  0  0  0  0  0  0  0  0  0  0  0
   43.2870   33.5750   38.7830 C   0  0  0  0  0  0  0  0  0  0  0  0
   42.0010   33.1420   38.5530 C   0  0  0  0  0  0  0  0  0  0  0  0
   41.7760   31.9590   37.9090 C   0  0  0  0  0  0  0  0  0  0  0  0
   42.8980   31.2550   37.5180 C   0  0  0  0  0  0  0  0  0  0  0  0
   44.1290   31.7010   37.7540 N   0  0  0  0  0  0  0  0  0  0  0  0
   47.1040   33.6990   42.5240 C   0  0  0  0  0  0  0  0  0  0  0  0
   44.6780   36.0500   44.2360 C   0  0  0  0  0  0  0  0  0  0  0  0
   45.5100   35.5010   43.2550 C   0  0  0  0  0  0  0  0  0  0  0  0
   46.2060   34.3360   43.5150 C   0  0  0  0  0  0  0  0  0  0  0  0
   46.0490   33.7590   44.7330 N   0  0  0  0  0  0  0  0  0  0  0  0
   45.2320   34.3040   45.6810 C   0  0  0  0  0  0  0  0  0  0  0  0
   44.5650   35.4400   45.4080 N   0  0  0  0  0  0  0  0  0  0  0  0
   47.2032   35.6698   41.6967 H   0  0  0  0  0  0  0  0  0  0  0  0
   48.7383   34.7471   41.6198 H   0  0  0  0  0  0  0  0  0  0  0  0
   49.2050   34.5592   39.3159 H   0  0  0  0  0  0  0  0  0  0  0  0
   48.6846   33.7809   37.0284 H   0  0  0  0  0  0  0  0  0  0  0  0
   43.4366   34.5315   39.3053 H   0  0  0  0  0  0  0  0  0  0  0  0
   41.1499   33.7521   38.8897 H   0  0  0  0  0  0  0  0  0  0  0  0
   40.7592   31.5880   37.7129 H   0  0  0  0  0  0  0  0  0  0  0  0
   42.7699   30.2957   36.9952 H   0  0  0  0  0  0  0  0  0  0  0  0
   46.5414   32.9200   41.9885 H   0  0  0  0  0  0  0  0  0  0  0  0
   47.9594   33.2777   43.0724 H   0  0  0  0  0  0  0  0  0  0  0  0
   44.1228   36.9786   44.0373 H   0  0  0  0  0  0  0  0  0  0  0  0
   45.6102   35.9960   42.2778 H   0  0  0  0  0  0  0  0  0  0  0  0
   45.1198   33.8178   46.6613 H   0  0  0  0  0  0  0  0  0  0  0  0
  1 14  1  0
  2  1  1  0
  3  2  2  0
  4  3  1  0
  5  4  2  0
  5  6  1  0
  6  7  2  0
  7  2  1  0
  8  6  1  0
  8  9  2  0
 10  9  1  0
 11 10  2  0
 12 13  2  0
 12 11  1  0
 13  8  1  0
 14 17  1  0
 15 20  2  0
 16 17  2  0
 16 15  1  0
 17 18  1  0
 18 19  2  0
 20 19  1  0
  1 21  1  0
  1 22  1  0
  3 23  1  0
  4 24  1  0
  9 25  1  0
 10 26  1  0
 11 27  1  0
 12 28  1  0
 14 29  1  0
 14 30  1  0
 15 31  1  0
 16 32  1  0
 19 33  1  0
M  ISO  8  21   8  22   8  23  14  24  14  25  14  26  14  27  14  28  14
M  ISO  5  29   8  30   8  31  14  32  14  33  14
M  END
>  <minimizedAffinity>  (1) 
-4.80706787

>  <minimizedRMSD>  (1) 
1.18284762

$$$$
