
     RDKit          3D

 28 31  0  0  0  0  0  0  0  0999 V2000
   44.5660   35.9520   44.8320 C   0  0  0  0  0  0  0  0  0  0  0  0
   44.8660   36.5290   43.5810 C   0  0  0  0  0  0  0  0  0  0  0  0
   45.6800   35.8300   42.6880 C   0  0  0  0  0  0  0  0  0  0  0  0
   46.1230   34.6140   43.1260 N   0  0  0  0  0  0  0  0  0  0  0  0
   45.8300   34.0850   44.3110 C   0  0  0  0  0  0  0  0  0  0  0  0
   45.0610   34.7370   45.1650 N   0  0  0  0  0  0  0  0  0  0  0  0
   46.3300   32.8140   44.6990 N   0  0  0  0  0  0  0  0  0  0  0  0
   47.5260   32.3030   44.2630 C   0  0  0  0  0  0  0  0  0  0  0  0
   47.7180   31.0920   44.8010 N   0  0  0  0  0  0  0  0  0  0  0  0
   46.6470   30.8350   45.5760 C   0  0  0  0  0  0  0  0  0  0  0  0
   45.8260   31.8930   45.4930 N   0  0  0  0  0  0  0  0  0  0  0  0
   46.4470   29.6210   46.3440 C   0  0  0  0  0  0  0  0  0  0  0  0
   47.3820   28.8890   46.9890 N   0  0  0  0  0  0  0  0  0  0  0  0
   46.7780   27.8750   47.5500 O   0  0  0  0  0  0  0  0  0  0  0  0
   45.4840   27.8970   47.3080 C   0  0  0  0  0  0  0  0  0  0  0  0
   45.2610   28.9970   46.5470 N   0  0  0  0  0  0  0  0  0  0  0  0
   44.4920   26.9340   47.7680 C   0  0  0  0  0  0  0  0  0  0  0  0
   43.5280   26.3640   46.9720 C   0  0  0  0  0  0  0  0  0  0  0  0
   42.8410   25.5330   47.8450 C   0  0  0  0  0  0  0  0  0  0  0  0
   43.3690   25.6060   49.0950 N   0  0  0  0  0  0  0  0  0  0  0  0
   44.3700   26.4650   49.0120 N   0  0  0  0  0  0  0  0  0  0  0  0
   43.9246   36.4935   45.5430 H   0  0  0  0  0  0  0  0  0  0  0  0
   44.4639   37.5170   43.3122 H   0  0  0  0  0  0  0  0  0  0  0  0
   45.9466   36.2309   41.6990 H   0  0  0  0  0  0  0  0  0  0  0  0
   48.2205   32.8101   43.5770 H   0  0  0  0  0  0  0  0  0  0  0  0
   43.3449   26.5274   45.8997 H   0  0  0  0  0  0  0  0  0  0  0  0
   41.9856   24.9012   47.5637 H   0  0  0  0  0  0  0  0  0  0  0  0
   43.0543   25.0973   49.9335 H   0  0  0  0  0  0  0  0  0  0  0  0
  1  6  2  0
  2  1  1  0
  3  4  1  0
  3  2  2  0
  4  5  2  0
  5  7  1  0
  5  6  1  0
  7 11  1  0
  8  7  1  0
  8  9  2  0
  9 10  1  0
 10 12  1  0
 11 10  2  0
 12 16  1  0
 12 13  2  0
 13 14  1  0
 15 14  1  0
 15 17  1  0
 16 15  2  0
 17 21  2  0
 18 17  1  0
 18 19  2  0
 19 20  1  0
 21 20  1  0
  1 22  1  0
  2 23  1  0
  3 24  1  0
  8 25  1  0
 18 26  1  0
 19 27  1  0
 20 28  1  0
M  ISO  7  22  14  23  14  24  14  25  14  26  14  27  14  28   9
M  END
>  <minimizedAffinity>  (1) 
-4.95723343

>  <minimizedRMSD>  (1) 
0.809373021

$$$$
