
     RDKit          3D

 34 37  0  0  0  0  0  0  0  0999 V2000
   44.5590   35.7250   45.1540 C   0  0  0  0  0  0  0  0  0  0  0  0
   44.7180   36.3690   43.9200 C   0  0  0  0  0  0  0  0  0  0  0  0
   45.4710   35.7390   42.9290 C   0  0  0  0  0  0  0  0  0  0  0  0
   46.0070   34.5160   43.2440 N   0  0  0  0  0  0  0  0  0  0  0  0
   45.8440   33.9210   44.4250 C   0  0  0  0  0  0  0  0  0  0  0  0
   45.1280   34.5220   45.3640 N   0  0  0  0  0  0  0  0  0  0  0  0
   46.4130   32.6610   44.7070 N   0  0  0  0  0  0  0  0  0  0  0  0
   47.5500   32.1920   44.1230 C   0  0  0  0  0  0  0  0  0  0  0  0
   47.8340   30.9710   44.5960 N   0  0  0  0  0  0  0  0  0  0  0  0
   46.8670   30.6700   45.4860 C   0  0  0  0  0  0  0  0  0  0  0  0
   46.0160   31.7050   45.5410 N   0  0  0  0  0  0  0  0  0  0  0  0
   46.7900   29.4270   46.2410 C   0  0  0  0  0  0  0  0  0  0  0  0
   47.7690   28.8090   46.9150 N   0  0  0  0  0  0  0  0  0  0  0  0
   47.2980   27.7320   47.4520 O   0  0  0  0  0  0  0  0  0  0  0  0
   46.0270   27.5830   47.1720 C   0  0  0  0  0  0  0  0  0  0  0  0
   45.7010   28.6550   46.4060 N   0  0  0  0  0  0  0  0  0  0  0  0
   45.0270   26.5700   47.5120 C   0  0  0  0  0  0  0  0  0  0  0  0
   44.4560   26.7680   48.9220 C   0  0  0  0  0  0  0  0  0  0  0  0
   43.4140   25.6650   48.9190 C   0  0  0  0  0  0  0  0  0  0  0  0
   42.8310   25.7250   47.5200 C   0  0  0  0  0  0  0  0  0  0  0  0
   43.7670   26.6170   46.7040 C   0  0  0  0  0  0  0  0  0  0  0  0
   43.9697   36.2015   45.9513 H   0  0  0  0  0  0  0  0  0  0  0  0
   44.2584   37.3514   43.7363 H   0  0  0  0  0  0  0  0  0  0  0  0
   45.6274   36.2004   41.9428 H   0  0  0  0  0  0  0  0  0  0  0  0
   48.1464   32.7345   43.3746 H   0  0  0  0  0  0  0  0  0  0  0  0
   45.6018   25.6458   47.3524 H   0  0  0  0  0  0  0  0  0  0  0  0
   45.2178   26.6125   49.7001 H   0  0  0  0  0  0  0  0  0  0  0  0
   44.0738   27.7766   49.1381 H   0  0  0  0  0  0  0  0  0  0  0  0
   43.8785   24.6861   49.1088 H   0  0  0  0  0  0  0  0  0  0  0  0
   42.6539   25.7945   49.7035 H   0  0  0  0  0  0  0  0  0  0  0  0
   42.7873   24.7170   47.0819 H   0  0  0  0  0  0  0  0  0  0  0  0
   41.8060   26.1241   47.5304 H   0  0  0  0  0  0  0  0  0  0  0  0
   43.3776   27.6431   46.6306 H   0  0  0  0  0  0  0  0  0  0  0  0
   43.8962   26.2879   45.6624 H   0  0  0  0  0  0  0  0  0  0  0  0
  1  6  2  0
  2  1  1  0
  3  4  1  0
  3  2  2  0
  4  5  2  0
  5  7  1  0
  5  6  1  0
  7 11  1  0
  8  9  2  0
  8  7  1  0
  9 10  1  0
 10 11  2  0
 10 12  1  0
 12 16  1  0
 12 13  2  0
 13 14  1  0
 15 14  1  0
 15 17  1  0
 16 15  2  0
 17 18  1  0
 19 18  1  0
 20 19  1  0
 21 17  1  0
 21 20  1  0
  1 22  1  0
  2 23  1  0
  3 24  1  0
  8 25  1  0
 17 26  1  0
 18 27  1  0
 18 28  1  0
 19 29  1  0
 19 30  1  0
 20 31  1  0
 20 32  1  0
 21 33  1  0
 21 34  1  0
M  ISO  8  22  14  23  14  24  14  25  14  26  13  27  13  28  13  29  13
M  ISO  5  30  13  31  13  32  13  33  13  34  13
M  END
>  <minimizedAffinity>  (1) 
-4.81614304

>  <minimizedRMSD>  (1) 
1.20995605

$$$$
