
     RDKit          3D

 33 36  0  0  0  0  0  0  0  0999 V2000
   44.5990   35.3670   45.5960 C   0  0  0  0  0  0  0  0  0  0  0  0
   44.4890   35.9700   44.3240 C   0  0  0  0  0  0  0  0  0  0  0  0
   45.0640   35.3180   43.2290 C   0  0  0  0  0  0  0  0  0  0  0  0
   45.7050   34.1220   43.4560 N   0  0  0  0  0  0  0  0  0  0  0  0
   45.7820   33.5860   44.6960 C   0  0  0  0  0  0  0  0  0  0  0  0
   45.2410   34.1880   45.7620 N   0  0  0  0  0  0  0  0  0  0  0  0
   46.4460   32.3570   44.9090 N   0  0  0  0  0  0  0  0  0  0  0  0
   47.4860   31.9050   44.1520 C   0  0  0  0  0  0  0  0  0  0  0  0
   47.9070   30.7130   44.5960 N   0  0  0  0  0  0  0  0  0  0  0  0
   47.1340   30.4030   45.6410 C   0  0  0  0  0  0  0  0  0  0  0  0
   46.2620   31.4100   45.8110 N   0  0  0  0  0  0  0  0  0  0  0  0
   47.2290   29.1930   46.4520 C   0  0  0  0  0  0  0  0  0  0  0  0
   48.2390   28.8400   47.2670 N   0  0  0  0  0  0  0  0  0  0  0  0
   47.9440   27.7070   47.8150 O   0  0  0  0  0  0  0  0  0  0  0  0
   46.7800   27.2690   47.4130 C   0  0  0  0  0  0  0  0  0  0  0  0
   46.3130   28.2070   46.5430 N   0  0  0  0  0  0  0  0  0  0  0  0
   46.0140   26.1280   47.6930 N   0  0  0  0  0  0  0  0  0  0  0  0
   44.8770   26.1870   48.6030 C   0  0  0  0  0  0  0  0  0  0  0  0
   45.3290   25.1490   49.6250 C   0  0  0  0  0  0  0  0  0  0  0  0
   45.6500   23.9940   48.6650 C   0  0  0  0  0  0  0  0  0  0  0  0
   45.9630   24.7220   47.3500 C   0  0  0  0  0  0  0  0  0  0  0  0
   44.1537   35.8659   46.4694 H   0  0  0  0  0  0  0  0  0  0  0  0
   43.9642   36.9285   44.1978 H   0  0  0  0  0  0  0  0  0  0  0  0
   45.0057   35.7476   42.2181 H   0  0  0  0  0  0  0  0  0  0  0  0
   47.9190   32.4437   43.2962 H   0  0  0  0  0  0  0  0  0  0  0  0
   44.7609   27.1841   49.0527 H   0  0  0  0  0  0  0  0  0  0  0  0
   43.8953   25.9995   48.1434 H   0  0  0  0  0  0  0  0  0  0  0  0
   46.2166   25.4797   50.1844 H   0  0  0  0  0  0  0  0  0  0  0  0
   44.6031   24.9179   50.4185 H   0  0  0  0  0  0  0  0  0  0  0  0
   46.5189   23.4174   49.0153 H   0  0  0  0  0  0  0  0  0  0  0  0
   44.8330   23.2630   48.5744 H   0  0  0  0  0  0  0  0  0  0  0  0
   45.1722   24.5349   46.6086 H   0  0  0  0  0  0  0  0  0  0  0  0
   46.9067   24.3747   46.9041 H   0  0  0  0  0  0  0  0  0  0  0  0
  1  6  2  0
  2  1  1  0
  3  4  1  0
  3  2  2  0
  4  5  2  0
  5  7  1  0
  5  6  1  0
  7 11  1  0
  8  9  2  0
  8  7  1  0
  9 10  1  0
 10 11  2  0
 10 12  1  0
 12 16  1  0
 12 13  2  0
 13 14  1  0
 15 17  1  0
 15 14  1  0
 16 15  2  0
 17 18  1  0
 18 19  1  0
 20 19  1  0
 21 17  1  0
 21 20  1  0
  1 22  1  0
  2 23  1  0
  3 24  1  0
  8 25  1  0
 18 26  1  0
 18 27  1  0
 19 28  1  0
 19 29  1  0
 20 30  1  0
 20 31  1  0
 21 32  1  0
 21 33  1  0
M  ISO  8  22  14  23  14  24  14  25  14  26  13  27  13  28  13  29  13
M  ISO  4  30  13  31  13  32  13  33  13
M  END
>  <minimizedAffinity>  (1) 
-4.74216843

>  <minimizedRMSD>  (1) 
1.77701974

$$$$
