
     RDKit          3D

 22 24  0  0  0  0  0  0  0  0999 V2000
   44.5990   35.5800   45.3090 C   0  0  0  0  0  0  0  0  0  0  0  0
   44.7490   36.1850   44.0600 C   0  0  0  0  0  0  0  0  0  0  0  0
   45.4630   35.5110   43.0810 C   0  0  0  0  0  0  0  0  0  0  0  0
   45.9750   34.2810   43.4150 N   0  0  0  0  0  0  0  0  0  0  0  0
   45.8100   33.7330   44.6220 C   0  0  0  0  0  0  0  0  0  0  0  0
   45.1290   34.3610   45.5830 N   0  0  0  0  0  0  0  0  0  0  0  0
   46.3580   32.4600   44.9220 N   0  0  0  0  0  0  0  0  0  0  0  0
   47.5020   31.9710   44.3860 C   0  0  0  0  0  0  0  0  0  0  0  0
   47.7440   30.7360   44.8780 N   0  0  0  0  0  0  0  0  0  0  0  0
   46.7540   30.4550   45.7210 C   0  0  0  0  0  0  0  0  0  0  0  0
   45.9260   31.5020   45.7380 N   0  0  0  0  0  0  0  0  0  0  0  0
   46.6030   29.2190   46.4880 C   0  0  0  0  0  0  0  0  0  0  0  0
   47.5740   28.4270   46.9470 N   0  0  0  0  0  0  0  0  0  0  0  0
   47.0590   27.4270   47.5810 O   0  0  0  0  0  0  0  0  0  0  0  0
   45.7400   27.5040   47.5740 C   0  0  0  0  0  0  0  0  0  0  0  0
   45.4680   28.6420   46.8800 N   0  0  0  0  0  0  0  0  0  0  0  0
   44.4760   26.4610   48.2570 S   0  0  0  0  0  0  0  0  0  0  0  0
   44.0352   36.1062   46.0934 H   0  0  0  0  0  0  0  0  0  0  0  0
   44.3110   37.1734   43.8572 H   0  0  0  0  0  0  0  0  0  0  0  0
   45.6129   35.9426   42.0804 H   0  0  0  0  0  0  0  0  0  0  0  0
   48.1377   32.4993   43.6602 H   0  0  0  0  0  0  0  0  0  0  0  0
   44.5341   26.5090   49.6249 H   0  0  0  0  0  0  0  0  0  0  0  0
  1  6  2  0
  2  1  1  0
  3  4  1  0
  3  2  2  0
  4  5  2  0
  5  7  1  0
  5  6  1  0
  7 11  1  0
  8  9  2  0
  8  7  1  0
  9 10  1  0
 10 11  2  0
 10 12  1  0
 12 16  1  0
 12 13  2  0
 13 14  1  0
 15 14  1  0
 15 17  1  0
 16 15  2  0
  1 18  1  0
  2 19  1  0
  3 20  1  0
  8 21  1  0
 17 22  1  0
M  ISO  5  18  14  19  14  20  14  21  14  22  11
M  END
>  <minimizedAffinity>  (1) 
-4.14983606

>  <minimizedRMSD>  (1) 
0.617649853

$$$$
