
     RDKit          3D

 23 25  0  0  0  0  0  0  0  0999 V2000
   44.6060   35.7650   44.9850 C   0  0  0  0  0  0  0  0  0  0  0  0
   44.8140   36.3040   43.7170 C   0  0  0  0  0  0  0  0  0  0  0  0
   45.5480   35.5720   42.8110 C   0  0  0  0  0  0  0  0  0  0  0  0
   46.0470   34.3550   43.1750 N   0  0  0  0  0  0  0  0  0  0  0  0
   45.8270   33.8590   44.4170 C   0  0  0  0  0  0  0  0  0  0  0  0
   45.1140   34.5490   45.3220 N   0  0  0  0  0  0  0  0  0  0  0  0
   46.3410   32.5940   44.7870 N   0  0  0  0  0  0  0  0  0  0  0  0
   47.4990   32.0730   44.3320 C   0  0  0  0  0  0  0  0  0  0  0  0
   47.6960   30.8550   44.8750 N   0  0  0  0  0  0  0  0  0  0  0  0
   46.6440   30.6160   45.6780 C   0  0  0  0  0  0  0  0  0  0  0  0
   45.8380   31.6790   45.6110 N   0  0  0  0  0  0  0  0  0  0  0  0
   46.4480   29.4070   46.4580 C   0  0  0  0  0  0  0  0  0  0  0  0
   47.2470   28.3210   46.5120 N   0  0  0  0  0  0  0  0  0  0  0  0
   46.7220   27.4600   47.3150 O   0  0  0  0  0  0  0  0  0  0  0  0
   45.5900   27.9140   47.8160 C   0  0  0  0  0  0  0  0  0  0  0  0
   45.4050   29.1470   47.2830 N   0  0  0  0  0  0  0  0  0  0  0  0
   44.7200   27.2600   48.7360 N   0  0  0  0  0  0  0  0  0  0  0  0
   44.0219   36.3317   45.7250 H   0  0  0  0  0  0  0  0  0  0  0  0
   44.4028   37.2879   43.4471 H   0  0  0  0  0  0  0  0  0  0  0  0
   45.7311   35.9655   41.8002 H   0  0  0  0  0  0  0  0  0  0  0  0
   48.1803   32.5677   43.6241 H   0  0  0  0  0  0  0  0  0  0  0  0
   43.8586   27.7280   49.0519 H   0  0  0  0  0  0  0  0  0  0  0  0
   44.9526   26.3193   49.0850 H   0  0  0  0  0  0  0  0  0  0  0  0
  1  6  2  0
  2  1  1  0
  3  4  1  0
  3  2  2  0
  4  5  2  0
  5  7  1  0
  5  6  1  0
  7 11  1  0
  8  7  1  0
  8  9  2  0
  9 10  1  0
 10 12  1  0
 11 10  2  0
 12 13  2  0
 12 16  1  0
 13 14  1  0
 14 15  1  0
 15 17  1  0
 16 15  2  0
  1 18  1  0
  2 19  1  0
  3 20  1  0
  8 21  1  0
 17 22  1  0
 17 23  1  0
M  ISO  4  18  14  19  14  20  14  21  14
M  END
>  <minimizedAffinity>  (1) 
-4.26740694

>  <minimizedRMSD>  (1) 
0.366166502

$$$$
