
     RDKit          3D

 35 38  0  0  0  0  0  0  0  0999 V2000
   46.6430   29.3270   45.5810 C   0  0  0  0  0  0  0  0  0  0  0  0
   47.3730   28.2150   45.3540 N   0  0  0  0  0  0  0  0  0  0  0  0
   46.9130   27.2650   46.1110 O   0  0  0  0  0  0  0  0  0  0  0  0
   45.9100   27.6790   46.8380 C   0  0  0  0  0  0  0  0  0  0  0  0
   45.7260   28.9860   46.5110 N   0  0  0  0  0  0  0  0  0  0  0  0
   44.5810   35.7320   44.9390 C   0  0  0  0  0  0  0  0  0  0  0  0
   44.8430   36.4940   43.8060 C   0  0  0  0  0  0  0  0  0  0  0  0
   45.6780   35.9570   42.8120 C   0  0  0  0  0  0  0  0  0  0  0  0
   46.1780   34.6920   43.0460 N   0  0  0  0  0  0  0  0  0  0  0  0
   45.9070   33.9860   44.1410 C   0  0  0  0  0  0  0  0  0  0  0  0
   45.1140   34.5120   45.0720 N   0  0  0  0  0  0  0  0  0  0  0  0
   46.4430   32.6870   44.3410 N   0  0  0  0  0  0  0  0  0  0  0  0
   47.6070   32.2630   43.8020 C   0  0  0  0  0  0  0  0  0  0  0  0
   47.8280   31.0000   44.1800 N   0  0  0  0  0  0  0  0  0  0  0  0
   46.8050   30.6260   44.9550 C   0  0  0  0  0  0  0  0  0  0  0  0
   45.9880   31.6730   45.0290 N   0  0  0  0  0  0  0  0  0  0  0  0
   45.1720   26.8640   47.7870 C   0  0  0  0  0  0  0  0  0  0  0  0
   43.8980   26.4050   47.5470 C   0  0  0  0  0  0  0  0  0  0  0  0
   43.5250   25.6700   48.6690 C   0  0  0  0  0  0  0  0  0  0  0  0
   44.6100   25.7240   49.5440 C   0  0  0  0  0  0  0  0  0  0  0  0
   45.5330   26.4410   48.9570 O   0  0  0  0  0  0  0  0  0  0  0  0
   44.6830   25.1130   50.8240 N   0  0  0  0  0  0  0  0  0  0  0  0
   45.2050   23.7970   50.9350 C   0  0  0  0  0  0  0  0  0  0  0  0
   45.8580   23.2130   50.0020 N   0  0  0  0  0  0  0  0  0  0  0  0
   44.9630   23.1350   52.1660 N   0  0  0  0  0  0  0  0  0  0  0  0
   46.2140   22.2550   50.1360 H   0  0  0  0  0  0  0  0  0  0  0  0
   43.9318   36.1344   45.7306 H   0  0  0  0  0  0  0  0  0  0  0  0
   44.4055   37.4966   43.6903 H   0  0  0  0  0  0  0  0  0  0  0  0
   45.9205   36.5152   41.8957 H   0  0  0  0  0  0  0  0  0  0  0  0
   48.2667   32.8609   43.1560 H   0  0  0  0  0  0  0  0  0  0  0  0
   43.2928   26.5835   46.6459 H   0  0  0  0  0  0  0  0  0  0  0  0
   42.5686   25.1518   48.8324 H   0  0  0  0  0  0  0  0  0  0  0  0
   44.3612   25.6184   51.6618 H   0  0  0  0  0  0  0  0  0  0  0  0
   45.3139   22.1779   52.3137 H   0  0  0  0  0  0  0  0  0  0  0  0
   44.4364   23.6114   52.9121 H   0  0  0  0  0  0  0  0  0  0  0  0
  1  5  1  0
  2  1  2  0
  2  3  1  0
  3  4  1  0
  4 17  1  0
  5  4  2  0
  6 11  2  0
  7  6  1  0
  8  9  1  0
  8  7  2  0
  9 10  2  0
 10 12  1  0
 10 11  1  0
 12 16  1  0
 13 14  2  0
 13 12  1  0
 14 15  1  0
 15 16  2  0
 15  1  1  0
 17 21  1  0
 18 17  2  0
 18 19  1  0
 19 20  2  0
 20 22  1  0
 21 20  1  0
 22 23  1  0
 23 25  1  0
 24 26  1  0
 24 23  2  0
  6 27  1  0
  7 28  1  0
  8 29  1  0
 13 30  1  0
 18 31  1  0
 19 32  1  0
 22 33  1  0
 25 34  1  0
 25 35  1  0
M  ISO  6  27  14  28  14  29  14  30  14  31  14  32  14
M  END
>  <minimizedAffinity>  (1) 
-5.84827518

>  <minimizedRMSD>  (1) 
0.916284382

$$$$
