
     RDKit          3D

 31 33  0  0  0  0  0  0  0  0999 V2000
   47.8150   34.8300   41.5770 C   0  0  0  0  0  0  0  0  0  0  0  0
   47.5190   34.3510   40.2090 C   0  0  0  0  0  0  0  0  0  0  0  0
   48.3520   34.5550   39.1360 C   0  0  0  0  0  0  0  0  0  0  0  0
   48.1460   34.1300   37.8440 C   0  0  0  0  0  0  0  0  0  0  0  0
   46.9810   33.4340   37.6460 N   0  0  0  0  0  0  0  0  0  0  0  0
   46.1380   33.2190   38.6940 C   0  0  0  0  0  0  0  0  0  0  0  0
   46.3630   33.6500   39.9630 N   0  0  0  0  0  0  0  0  0  0  0  0
   44.9080   32.4730   38.4320 C   0  0  0  0  0  0  0  0  0  0  0  0
   44.5960   31.1990   38.8180 C   0  0  0  0  0  0  0  0  0  0  0  0
   43.3500   30.9020   38.3620 N   0  0  0  0  0  0  0  0  0  0  0  0
   42.8850   31.9740   37.6990 C   0  0  0  0  0  0  0  0  0  0  0  0
   43.8460   32.9360   37.7460 N   0  0  0  0  0  0  0  0  0  0  0  0
   47.3160   33.8150   42.5730 C   0  0  0  0  0  0  0  0  0  0  0  0
   44.6940   36.0150   44.1940 C   0  0  0  0  0  0  0  0  0  0  0  0
   45.5940   35.5190   43.2500 C   0  0  0  0  0  0  0  0  0  0  0  0
   46.3420   34.3910   43.5310 C   0  0  0  0  0  0  0  0  0  0  0  0
   46.1690   33.7960   44.7410 N   0  0  0  0  0  0  0  0  0  0  0  0
   45.2810   34.3000   45.6500 C   0  0  0  0  0  0  0  0  0  0  0  0
   44.5670   35.3820   45.3750 N   0  0  0  0  0  0  0  0  0  0  0  0
   47.3105   35.7925   41.7476 H   0  0  0  0  0  0  0  0  0  0  0  0
   48.9003   34.9641   41.6962 H   0  0  0  0  0  0  0  0  0  0  0  0
   49.2785   35.1155   39.3297 H   0  0  0  0  0  0  0  0  0  0  0  0
   48.8604   34.3327   37.0325 H   0  0  0  0  0  0  0  0  0  0  0  0
   45.2442   30.5271   39.3998 H   0  0  0  0  0  0  0  0  0  0  0  0
   41.9047   32.0586   37.2072 H   0  0  0  0  0  0  0  0  0  0  0  0
   43.7726   33.8722   37.3229 H   0  0  0  0  0  0  0  0  0  0  0  0
   46.8295   32.9938   42.0262 H   0  0  0  0  0  0  0  0  0  0  0  0
   48.1822   33.4593   43.1502 H   0  0  0  0  0  0  0  0  0  0  0  0
   44.0959   36.9120   43.9757 H   0  0  0  0  0  0  0  0  0  0  0  0
   45.7084   36.0264   42.2807 H   0  0  0  0  0  0  0  0  0  0  0  0
   45.1575   33.8009   46.6224 H   0  0  0  0  0  0  0  0  0  0  0  0
  1 13  1  0
  2  1  1  0
  3  2  2  0
  4  3  1  0
  5  4  2  0
  5  6  1  0
  6  7  2  0
  7  2  1  0
  8  6  1  0
  8  9  2  0
 10  9  1  0
 11 12  1  0
 11 10  2  0
 12  8  1  0
 13 16  1  0
 14 19  2  0
 15 16  2  0
 15 14  1  0
 16 17  1  0
 17 18  2  0
 19 18  1  0
  1 20  1  0
  1 21  1  0
  3 22  1  0
  4 23  1  0
  9 24  1  0
 11 25  1  0
 12 26  1  0
 13 27  1  0
 13 28  1  0
 14 29  1  0
 15 30  1  0
 18 31  1  0
M  ISO  8  20   8  21   8  22  14  23  14  24  14  25  14  26   9  27   8
M  ISO  4  28   8  29  14  30  14  31  14
M  END
>  <minimizedAffinity>  (1) 
-4.70051813

>  <minimizedRMSD>  (1) 
0.27326867

$$$$
