
     RDKit          3D

 41 45  0  0  0  0  0  0  0  0999 V2000
   47.2650   29.2270   45.4620 C   0  0  0  0  0  0  0  0  0  0  0  0
   48.1000   28.2230   45.1260 N   0  0  0  0  0  0  0  0  0  0  0  0
   47.8170   27.1870   45.8720 O   0  0  0  0  0  0  0  0  0  0  0  0
   46.8340   27.4580   46.6850 C   0  0  0  0  0  0  0  0  0  0  0  0
   46.4610   28.7440   46.4490 N   0  0  0  0  0  0  0  0  0  0  0  0
   44.5990   35.4490   45.4370 C   0  0  0  0  0  0  0  0  0  0  0  0
   44.6210   36.2470   44.3030 C   0  0  0  0  0  0  0  0  0  0  0  0
   45.3280   35.8200   43.1640 C   0  0  0  0  0  0  0  0  0  0  0  0
   45.9630   34.6030   43.2740 N   0  0  0  0  0  0  0  0  0  0  0  0
   45.9310   33.8450   44.3780 C   0  0  0  0  0  0  0  0  0  0  0  0
   45.2560   34.2760   45.4340 N   0  0  0  0  0  0  0  0  0  0  0  0
   46.5990   32.6060   44.4350 N   0  0  0  0  0  0  0  0  0  0  0  0
   47.7190   32.3100   43.7280 C   0  0  0  0  0  0  0  0  0  0  0  0
   48.0990   31.0570   44.0080 N   0  0  0  0  0  0  0  0  0  0  0  0
   47.2180   30.5640   44.8920 C   0  0  0  0  0  0  0  0  0  0  0  0
   46.3300   31.5180   45.1300 N   0  0  0  0  0  0  0  0  0  0  0  0
   46.2750   26.5200   47.6480 C   0  0  0  0  0  0  0  0  0  0  0  0
   45.0160   26.7080   48.2070 C   0  0  0  0  0  0  0  0  0  0  0  0
   44.8150   25.6310   49.0710 C   0  0  0  0  0  0  0  0  0  0  0  0
   45.9590   24.8600   48.9840 C   0  0  0  0  0  0  0  0  0  0  0  0
   46.7960   25.4230   48.1310 O   0  0  0  0  0  0  0  0  0  0  0  0
   46.2220   23.5820   49.7360 C   0  0  0  0  0  0  0  0  0  0  0  0
   45.7850   23.6770   51.1600 C   0  0  0  0  0  0  0  0  0  0  0  0
   46.8570   23.1220   52.0360 C   0  0  0  0  0  0  0  0  0  0  0  0
   48.0370   22.8090   51.1640 C   0  0  0  0  0  0  0  0  0  0  0  0
   47.7130   23.3340   49.7960 C   0  0  0  0  0  0  0  0  0  0  0  0
   44.0482   35.7733   46.3322 H   0  0  0  0  0  0  0  0  0  0  0  0
   44.0882   37.2093   44.2941 H   0  0  0  0  0  0  0  0  0  0  0  0
   45.3708   36.4206   42.2434 H   0  0  0  0  0  0  0  0  0  0  0  0
   48.2333   32.9917   43.0346 H   0  0  0  0  0  0  0  0  0  0  0  0
   44.3203   27.5367   48.0086 H   0  0  0  0  0  0  0  0  0  0  0  0
   43.9290   25.4358   49.6930 H   0  0  0  0  0  0  0  0  0  0  0  0
   45.6717   22.7873   49.2110 H   0  0  0  0  0  0  0  0  0  0  0  0
   45.6044   24.7303   51.4207 H   0  0  0  0  0  0  0  0  0  0  0  0
   44.8562   23.1051   51.3022 H   0  0  0  0  0  0  0  0  0  0  0  0
   47.1397   23.8628   52.7984 H   0  0  0  0  0  0  0  0  0  0  0  0
   46.5053   22.2158   52.5508 H   0  0  0  0  0  0  0  0  0  0  0  0
   48.9391   23.3019   51.5555 H   0  0  0  0  0  0  0  0  0  0  0  0
   48.2330   21.7270   51.1366 H   0  0  0  0  0  0  0  0  0  0  0  0
   48.0001   22.5945   49.0339 H   0  0  0  0  0  0  0  0  0  0  0  0
   48.2651   24.2653   49.6016 H   0  0  0  0  0  0  0  0  0  0  0  0
  1  5  1  0
  2  1  2  0
  2  3  1  0
  3  4  1  0
  4 17  1  0
  5  4  2  0
  7  6  2  0
  8  9  2  0
  8  7  1  0
  9 10  1  0
 10 12  1  0
 10 11  2  0
 11  6  1  0
 12 16  1  0
 13 14  2  0
 13 12  1  0
 14 15  1  0
 15 16  2  0
 15  1  1  0
 17 21  1  0
 17 18  2  0
 18 19  1  0
 20 19  2  0
 20 22  1  0
 21 20  1  0
 22 26  1  0
 22 23  1  0
 23 24  1  0
 25 24  1  0
 26 25  1  0
  6 27  1  0
  7 28  1  0
  8 29  1  0
 13 30  1  0
 18 31  1  0
 19 32  1  0
 22 33  1  0
 23 34  1  0
 23 35  1  0
 24 36  1  0
 24 37  1  0
 25 38  1  0
 25 39  1  0
 26 40  1  0
 26 41  1  0
M  ISO  8  27  14  28  14  29  14  30  14  31  14  32  14  33  13  34  13
M  ISO  7  35  13  36  13  37  13  38  13  39  13  40  13  41  13
M  END
>  <minimizedAffinity>  (1) 
-5.43437767

>  <minimizedRMSD>  (1) 
0.670283854

$$$$
