
     RDKit          3D

 44 49  0  0  0  0  0  0  0  0999 V2000
   48.1180   29.4550   44.6270 C   0  0  0  0  0  0  0  0  0  0  0  0
   49.1320   28.6430   44.2150 N   0  0  0  0  0  0  0  0  0  0  0  0
   48.9940   27.4940   44.8080 O   0  0  0  0  0  0  0  0  0  0  0  0
   47.9430   27.4910   45.5940 C   0  0  0  0  0  0  0  0  0  0  0  0
   47.3710   28.7280   45.4960 N   0  0  0  0  0  0  0  0  0  0  0  0
   44.7070   35.2350   45.4970 C   0  0  0  0  0  0  0  0  0  0  0  0
   44.5100   36.1410   44.4480 C   0  0  0  0  0  0  0  0  0  0  0  0
   45.1560   35.9130   43.2330 C   0  0  0  0  0  0  0  0  0  0  0  0
   45.9570   34.7950   43.1430 N   0  0  0  0  0  0  0  0  0  0  0  0
   46.1260   33.9420   44.1740 C   0  0  0  0  0  0  0  0  0  0  0  0
   45.5070   34.1660   45.3290 N   0  0  0  0  0  0  0  0  0  0  0  0
   46.9520   32.8020   44.0590 N   0  0  0  0  0  0  0  0  0  0  0  0
   48.0680   32.7570   43.2760 C   0  0  0  0  0  0  0  0  0  0  0  0
   48.6320   31.5410   43.3830 N   0  0  0  0  0  0  0  0  0  0  0  0
   47.8720   30.8270   44.2280 C   0  0  0  0  0  0  0  0  0  0  0  0
   46.8690   31.6170   44.6170 N   0  0  0  0  0  0  0  0  0  0  0  0
   47.5050   26.3590   46.4030 C   0  0  0  0  0  0  0  0  0  0  0  0
   46.7870   25.3070   45.9130 C   0  0  0  0  0  0  0  0  0  0  0  0
   46.5830   24.4660   46.9990 C   0  0  0  0  0  0  0  0  0  0  0  0
   47.1860   25.0420   48.1060 C   0  0  0  0  0  0  0  0  0  0  0  0
   47.6940   26.1400   47.6530 O   0  0  0  0  0  0  0  0  0  0  0  0
   47.1360   24.3800   49.4010 C   0  0  0  0  0  0  0  0  0  0  0  0
   45.9450   24.1420   50.0550 C   0  0  0  0  0  0  0  0  0  0  0  0
   45.8320   23.5280   51.2670 C   0  0  0  0  0  0  0  0  0  0  0  0
   46.9550   23.0990   51.9230 C   0  0  0  0  0  0  0  0  0  0  0  0
   48.1770   23.3060   51.3230 C   0  0  0  0  0  0  0  0  0  0  0  0
   49.3040   22.8720   51.9890 C   0  0  0  0  0  0  0  0  0  0  0  0
   50.5540   23.0540   51.4330 C   0  0  0  0  0  0  0  0  0  0  0  0
   50.6400   23.6830   50.1970 C   0  0  0  0  0  0  0  0  0  0  0  0
   49.4770   24.0920   49.5860 C   0  0  0  0  0  0  0  0  0  0  0  0
   48.2110   23.9320   50.1000 C   0  0  0  0  0  0  0  0  0  0  0  0
   44.2058   35.3976   46.4626 H   0  0  0  0  0  0  0  0  0  0  0  0
   43.8576   37.0168   44.5796 H   0  0  0  0  0  0  0  0  0  0  0  0
   45.0312   36.5977   42.3812 H   0  0  0  0  0  0  0  0  0  0  0  0
   48.4461   33.5833   42.6561 H   0  0  0  0  0  0  0  0  0  0  0  0
   46.4433   25.1572   44.8789 H   0  0  0  0  0  0  0  0  0  0  0  0
   46.0384   23.5104   46.9834 H   0  0  0  0  0  0  0  0  0  0  0  0
   45.0184   24.4718   49.5625 H   0  0  0  0  0  0  0  0  0  0  0  0
   44.8399   23.3773   51.7175 H   0  0  0  0  0  0  0  0  0  0  0  0
   46.8828   22.6028   52.9021 H   0  0  0  0  0  0  0  0  0  0  0  0
   49.2062   22.3788   52.9673 H   0  0  0  0  0  0  0  0  0  0  0  0
   51.4591   22.7099   51.9550 H   0  0  0  0  0  0  0  0  0  0  0  0
   51.6159   23.8502   49.7178 H   0  0  0  0  0  0  0  0  0  0  0  0
   49.5667   24.5868   48.6077 H   0  0  0  0  0  0  0  0  0  0  0  0
  1  5  1  0
  2  1  2  0
  2  3  1  0
  3  4  1  0
  4 17  1  0
  5  4  2  0
  7  6  2  0
  8  7  1  0
  9  8  2  0
  9 10  1  0
 10 11  2  0
 11  6  1  0
 12 10  1  0
 12 16  1  0
 13 14  2  0
 13 12  1  0
 14 15  1  0
 15 16  2  0
 15  1  1  0
 17 21  1  0
 18 17  2  0
 18 19  1  0
 19 20  2  0
 20 22  1  0
 21 20  1  0
 22 23  2  0
 22 31  1  0
 23 24  1  0
 24 25  2  0
 26 25  1  0
 26 27  2  0
 28 27  1  0
 29 28  2  0
 30 31  2  0
 30 29  1  0
 31 26  1  0
  6 32  1  0
  7 33  1  0
  8 34  1  0
 13 35  1  0
 18 36  1  0
 19 37  1  0
 23 38  1  0
 24 39  1  0
 25 40  1  0
 27 41  1  0
 28 42  1  0
 29 43  1  0
 30 44  1  0
M  ISO  8  32  14  33  14  34  14  35  14  36  14  37  14  38  14  39  14
M  ISO  5  40  14  41  14  42  14  43  14  44  14
M  END
>  <minimizedAffinity>  (1) 
-5.71655798

>  <minimizedRMSD>  (1) 
1.89052498

$$$$
