
     RDKit          3D

 44 48  0  0  0  0  0  0  0  0999 V2000
   46.8740   29.2800   45.1850 C   0  0  0  0  0  0  0  0  0  0  0  0
   47.4350   28.1720   44.6310 N   0  0  0  0  0  0  0  0  0  0  0  0
   47.1270   27.1540   45.3790 O   0  0  0  0  0  0  0  0  0  0  0  0
   46.3870   27.5260   46.4060 C   0  0  0  0  0  0  0  0  0  0  0  0
   46.2240   28.8600   46.2910 N   0  0  0  0  0  0  0  0  0  0  0  0
   44.5490   35.6370   45.2620 C   0  0  0  0  0  0  0  0  0  0  0  0
   44.6820   36.4840   44.1490 C   0  0  0  0  0  0  0  0  0  0  0  0
   45.4380   36.0480   43.0590 C   0  0  0  0  0  0  0  0  0  0  0  0
   46.0110   34.8030   43.1510 N   0  0  0  0  0  0  0  0  0  0  0  0
   45.8660   34.0110   44.2320 C   0  0  0  0  0  0  0  0  0  0  0  0
   45.1450   34.4330   45.2620 N   0  0  0  0  0  0  0  0  0  0  0  0
   46.4710   32.7290   44.2910 N   0  0  0  0  0  0  0  0  0  0  0  0
   47.6510   32.4290   43.6840 C   0  0  0  0  0  0  0  0  0  0  0  0
   47.9450   31.1430   43.9310 N   0  0  0  0  0  0  0  0  0  0  0  0
   46.9560   30.6420   44.6870 C   0  0  0  0  0  0  0  0  0  0  0  0
   46.0780   31.6280   44.8890 N   0  0  0  0  0  0  0  0  0  0  0  0
   45.8850   26.6150   47.4220 C   0  0  0  0  0  0  0  0  0  0  0  0
   44.6660   26.8190   48.0420 C   0  0  0  0  0  0  0  0  0  0  0  0
   44.5090   25.7620   48.9490 C   0  0  0  0  0  0  0  0  0  0  0  0
   45.6460   24.9880   48.8160 C   0  0  0  0  0  0  0  0  0  0  0  0
   46.4140   25.5360   47.9090 O   0  0  0  0  0  0  0  0  0  0  0  0
   46.0240   23.7290   49.5370 C   0  0  0  0  0  0  0  0  0  0  0  0
   45.8730   23.9800   50.9970 C   0  0  0  0  0  0  0  0  0  0  0  0
   46.6940   23.1090   51.8960 C   0  0  0  0  0  0  0  0  0  0  0  0
   48.0660   22.8070   51.3460 C   0  0  0  0  0  0  0  0  0  0  0  0
   48.3820   23.7670   50.1910 C   0  0  0  0  0  0  0  0  0  0  0  0
   47.4140   23.3710   49.0910 C   0  0  0  0  0  0  0  0  0  0  0  0
   43.9579   35.9591   46.1319 H   0  0  0  0  0  0  0  0  0  0  0  0
   44.1995   37.4724   44.1365 H   0  0  0  0  0  0  0  0  0  0  0  0
   45.5691   36.6749   42.1647 H   0  0  0  0  0  0  0  0  0  0  0  0
   48.2621   33.1244   43.0899 H   0  0  0  0  0  0  0  0  0  0  0  0
   43.9617   27.6442   47.8601 H   0  0  0  0  0  0  0  0  0  0  0  0
   43.6592   25.5856   49.6248 H   0  0  0  0  0  0  0  0  0  0  0  0
   45.3828   22.8647   49.3094 H   0  0  0  0  0  0  0  0  0  0  0  0
   46.1548   25.0255   51.1906 H   0  0  0  0  0  0  0  0  0  0  0  0
   44.8239   23.7483   51.2331 H   0  0  0  0  0  0  0  0  0  0  0  0
   46.8105   23.6183   52.8640 H   0  0  0  0  0  0  0  0  0  0  0  0
   46.1639   22.1500   51.9926 H   0  0  0  0  0  0  0  0  0  0  0  0
   48.8150   22.9330   52.1417 H   0  0  0  0  0  0  0  0  0  0  0  0
   48.0909   21.7712   50.9765 H   0  0  0  0  0  0  0  0  0  0  0  0
   48.2170   24.8107   50.4968 H   0  0  0  0  0  0  0  0  0  0  0  0
   49.4314   23.7011   49.8680 H   0  0  0  0  0  0  0  0  0  0  0  0
   47.4795   22.2881   48.9095 H   0  0  0  0  0  0  0  0  0  0  0  0
   47.6617   23.8995   48.1586 H   0  0  0  0  0  0  0  0  0  0  0  0
  1  5  1  0
  2  1  2  0
  2  3  1  0
  3  4  1  0
  4 17  1  0
  5  4  2  0
  7  6  2  0
  8  9  2  0
  8  7  1  0
  9 10  1  0
 10 12  1  0
 10 11  2  0
 11  6  1  0
 12 16  1  0
 13 14  2  0
 13 12  1  0
 14 15  1  0
 15 16  2  0
 15  1  1  0
 17 21  1  0
 17 18  2  0
 18 19  1  0
 20 19  2  0
 20 22  1  0
 21 20  1  0
 22 23  1  0
 23 24  1  0
 25 24  1  0
 26 25  1  0
 27 22  1  0
 27 26  1  0
  6 28  1  0
  7 29  1  0
  8 30  1  0
 13 31  1  0
 18 32  1  0
 19 33  1  0
 22 34  1  0
 23 35  1  0
 23 36  1  0
 24 37  1  0
 24 38  1  0
 25 39  1  0
 25 40  1  0
 26 41  1  0
 26 42  1  0
 27 43  1  0
 27 44  1  0
M  ISO  8  28  14  29  14  30  14  31  14  32  14  33  14  34  13  35  13
M  ISO  8  36  13  37  13  38  13  39  13  40  13  41  13  42  13  43  13
M  ISO  1  44  13
M  END
>  <minimizedAffinity>  (1) 
-5.39302206

>  <minimizedRMSD>  (1) 
0.794480801

$$$$
