
     RDKit          3D

 37 41  0  0  0  0  0  0  0  0999 V2000
   47.9390   29.5360   44.9200 C   0  0  0  0  0  0  0  0  0  0  0  0
   49.0130   28.7340   44.6870 N   0  0  0  0  0  0  0  0  0  0  0  0
   48.8190   27.6100   45.3210 O   0  0  0  0  0  0  0  0  0  0  0  0
   47.6800   27.6190   45.9640 C   0  0  0  0  0  0  0  0  0  0  0  0
   47.0990   28.8330   45.7260 N   0  0  0  0  0  0  0  0  0  0  0  0
   44.6420   35.4160   45.3380 C   0  0  0  0  0  0  0  0  0  0  0  0
   44.5580   36.3010   44.2460 C   0  0  0  0  0  0  0  0  0  0  0  0
   45.2750   36.0140   43.0670 C   0  0  0  0  0  0  0  0  0  0  0  0
   46.0050   34.8630   43.1120 N   0  0  0  0  0  0  0  0  0  0  0  0
   46.0760   34.0360   44.1460 C   0  0  0  0  0  0  0  0  0  0  0  0
   45.4010   34.3180   45.2360 N   0  0  0  0  0  0  0  0  0  0  0  0
   46.8640   32.8590   44.1090 N   0  0  0  0  0  0  0  0  0  0  0  0
   47.9640   32.7210   43.3060 C   0  0  0  0  0  0  0  0  0  0  0  0
   48.4900   31.4960   43.5020 N   0  0  0  0  0  0  0  0  0  0  0  0
   47.7330   30.8790   44.4110 C   0  0  0  0  0  0  0  0  0  0  0  0
   46.7660   31.7290   44.7520 N   0  0  0  0  0  0  0  0  0  0  0  0
   47.1660   26.5200   46.7690 C   0  0  0  0  0  0  0  0  0  0  0  0
   46.0800   25.7590   46.3530 C   0  0  0  0  0  0  0  0  0  0  0  0
   45.8780   24.8110   47.3710 C   0  0  0  0  0  0  0  0  0  0  0  0
   46.8490   25.0660   48.3220 C   0  0  0  0  0  0  0  0  0  0  0  0
   47.5980   26.0910   47.9290 O   0  0  0  0  0  0  0  0  0  0  0  0
   47.0280   24.3250   49.5670 C   0  0  0  0  0  0  0  0  0  0  0  0
   45.9540   24.0580   50.3820 C   0  0  0  0  0  0  0  0  0  0  0  0
   46.0960   23.3530   51.5750 C   0  0  0  0  0  0  0  0  0  0  0  0
   47.3950   22.9680   51.8330 C   0  0  0  0  0  0  0  0  0  0  0  0
   48.5050   23.2050   51.0580 C   0  0  0  0  0  0  0  0  0  0  0  0
   48.2440   23.8940   49.9330 N   0  0  0  0  0  0  0  0  0  0  0  0
   44.0893   35.6248   46.2659 H   0  0  0  0  0  0  0  0  0  0  0  0
   43.9387   37.2077   44.3125 H   0  0  0  0  0  0  0  0  0  0  0  0
   45.2479   36.6661   42.1816 H   0  0  0  0  0  0  0  0  0  0  0  0
   48.3538   33.4834   42.6155 H   0  0  0  0  0  0  0  0  0  0  0  0
   45.5015   25.8741   45.4245 H   0  0  0  0  0  0  0  0  0  0  0  0
   45.1065   24.0277   47.4043 H   0  0  0  0  0  0  0  0  0  0  0  0
   44.9555   24.4105   50.0842 H   0  0  0  0  0  0  0  0  0  0  0  0
   45.2543   23.1256   52.2457 H   0  0  0  0  0  0  0  0  0  0  0  0
   47.5615   22.4077   52.7648 H   0  0  0  0  0  0  0  0  0  0  0  0
   49.5137   22.8627   51.3326 H   0  0  0  0  0  0  0  0  0  0  0  0
  1  5  1  0
  2  1  2  0
  2  3  1  0
  3  4  1  0
  4 17  1  0
  5  4  2  0
  7  6  2  0
  8  9  2  0
  8  7  1  0
  9 10  1  0
 10 11  2  0
 11  6  1  0
 12 10  1  0
 12 16  1  0
 13 14  2  0
 13 12  1  0
 14 15  1  0
 15 16  2  0
 15  1  1  0
 17 21  1  0
 18 17  2  0
 18 19  1  0
 19 20  2  0
 20 22  1  0
 21 20  1  0
 22 27  1  0
 22 23  2  0
 23 24  1  0
 24 25  2  0
 26 25  1  0
 27 26  2  0
  6 28  1  0
  7 29  1  0
  8 30  1  0
 13 31  1  0
 18 32  1  0
 19 33  1  0
 23 34  1  0
 24 35  1  0
 25 36  1  0
 26 37  1  0
M  ISO  8  28  14  29  14  30  14  31  14  32  14  33  14  34  14  35  14
M  ISO  2  36  14  37  14
M  END
>  <minimizedAffinity>  (1) 
-5.13239622

>  <minimizedRMSD>  (1) 
1.52916658

$$$$
