
     RDKit          3D

 42 46  0  0  0  0  0  0  0  0999 V2000
   47.6310   29.4300   44.9190 C   0  0  0  0  0  0  0  0  0  0  0  0
   48.2070   28.3900   44.2770 N   0  0  0  0  0  0  0  0  0  0  0  0
   48.1030   27.3480   45.0460 O   0  0  0  0  0  0  0  0  0  0  0  0
   47.4850   27.6400   46.1750 C   0  0  0  0  0  0  0  0  0  0  0  0
   47.1840   28.9560   46.0980 N   0  0  0  0  0  0  0  0  0  0  0  0
   44.6160   35.4790   45.3200 C   0  0  0  0  0  0  0  0  0  0  0  0
   44.5710   36.3520   44.2420 C   0  0  0  0  0  0  0  0  0  0  0  0
   45.2830   36.0380   43.0840 C   0  0  0  0  0  0  0  0  0  0  0  0
   45.9940   34.8570   43.1010 N   0  0  0  0  0  0  0  0  0  0  0  0
   46.0220   34.0350   44.1500 C   0  0  0  0  0  0  0  0  0  0  0  0
   45.3400   34.3470   45.2400 N   0  0  0  0  0  0  0  0  0  0  0  0
   46.7680   32.8270   44.1240 N   0  0  0  0  0  0  0  0  0  0  0  0
   47.8970   32.6540   43.4060 C   0  0  0  0  0  0  0  0  0  0  0  0
   48.3530   31.4110   43.5980 N   0  0  0  0  0  0  0  0  0  0  0  0
   47.5100   30.7980   44.4400 C   0  0  0  0  0  0  0  0  0  0  0  0
   46.5630   31.6810   44.7400 N   0  0  0  0  0  0  0  0  0  0  0  0
   47.2300   26.6710   47.2230 C   0  0  0  0  0  0  0  0  0  0  0  0
   45.9490   26.4880   47.7280 C   0  0  0  0  0  0  0  0  0  0  0  0
   46.0560   25.4910   48.7110 C   0  0  0  0  0  0  0  0  0  0  0  0
   47.3930   25.1430   48.7320 C   0  0  0  0  0  0  0  0  0  0  0  0
   48.0330   25.8600   47.8440 O   0  0  0  0  0  0  0  0  0  0  0  0
   47.9460   24.1570   49.5940 N   0  0  0  0  0  0  0  0  0  0  0  0
   47.1470   23.0150   49.9930 C   0  0  0  0  0  0  0  0  0  0  0  0
   48.0550   21.8110   49.8990 C   0  0  0  0  0  0  0  0  0  0  0  0
   49.0790   21.9430   50.9130 N   0  0  0  0  0  0  0  0  0  0  0  0
   49.4210   23.2920   51.2400 C   0  0  0  0  0  0  0  0  0  0  0  0
   49.3050   24.2640   50.0920 C   0  0  0  0  0  0  0  0  0  0  0  0
   44.0599   35.7122   46.2400 H   0  0  0  0  0  0  0  0  0  0  0  0
   43.9818   37.2791   44.2998 H   0  0  0  0  0  0  0  0  0  0  0  0
   45.2774   36.6979   42.2039 H   0  0  0  0  0  0  0  0  0  0  0  0
   48.3676   33.4139   42.7649 H   0  0  0  0  0  0  0  0  0  0  0  0
   45.0352   27.0173   47.4200 H   0  0  0  0  0  0  0  0  0  0  0  0
   45.2482   25.0758   49.3316 H   0  0  0  0  0  0  0  0  0  0  0  0
   46.7885   23.1425   51.0251 H   0  0  0  0  0  0  0  0  0  0  0  0
   46.2622   22.9007   49.3495 H   0  0  0  0  0  0  0  0  0  0  0  0
   47.4755   20.8920   50.0711 H   0  0  0  0  0  0  0  0  0  0  0  0
   48.5116   21.7538   48.8999 H   0  0  0  0  0  0  0  0  0  0  0  0
   48.7446   21.4794   51.7698 H   0  0  0  0  0  0  0  0  0  0  0  0
   48.7522   23.6302   52.0452 H   0  0  0  0  0  0  0  0  0  0  0  0
   50.4805   23.2827   51.5355 H   0  0  0  0  0  0  0  0  0  0  0  0
   50.0214   24.0024   49.2993 H   0  0  0  0  0  0  0  0  0  0  0  0
   49.5287   25.2907   50.4173 H   0  0  0  0  0  0  0  0  0  0  0  0
  1  5  1  0
  2  1  2  0
  2  3  1  0
  3  4  1  0
  4 17  1  0
  5  4  2  0
  7  6  2  0
  8  9  2  0
  8  7  1  0
  9 10  1  0
 10 11  2  0
 11  6  1  0
 12 10  1  0
 12 16  1  0
 13 14  2  0
 13 12  1  0
 14 15  1  0
 15 16  2  0
 15  1  1  0
 17 18  2  0
 17 21  1  0
 18 19  1  0
 19 20  2  0
 20 22  1  0
 21 20  1  0
 22 23  1  0
 22 27  1  0
 24 23  1  0
 24 25  1  0
 25 26  1  0
 27 26  1  0
  6 28  1  0
  7 29  1  0
  8 30  1  0
 13 31  1  0
 18 32  1  0
 19 33  1  0
 23 34  1  0
 23 35  1  0
 24 36  1  0
 24 37  1  0
 25 38  1  0
 26 39  1  0
 26 40  1  0
 27 41  1  0
 27 42  1  0
M  ISO  8  28  14  29  14  30  14  31  14  32  14  33  14  34  13  35  13
M  ISO  7  36  13  37  13  38   5  39  13  40  13  41  13  42  13
M  END
>  <minimizedAffinity>  (1) 
-5.13580799

>  <minimizedRMSD>  (1) 
1.94623983

$$$$
