
     RDKit          3D

 35 39  0  0  0  0  0  0  0  0999 V2000
   46.9710   29.4070   45.1810 C   0  0  0  0  0  0  0  0  0  0  0  0
   47.6670   28.3210   44.7710 N   0  0  0  0  0  0  0  0  0  0  0  0
   47.3160   27.3250   45.5220 O   0  0  0  0  0  0  0  0  0  0  0  0
   46.4170   27.6790   46.4170 C   0  0  0  0  0  0  0  0  0  0  0  0
   46.1990   28.9900   46.2050 N   0  0  0  0  0  0  0  0  0  0  0  0
   44.5440   35.7190   45.0780 C   0  0  0  0  0  0  0  0  0  0  0  0
   44.7290   36.5720   43.9760 C   0  0  0  0  0  0  0  0  0  0  0  0
   45.5510   36.1410   42.9220 C   0  0  0  0  0  0  0  0  0  0  0  0
   46.1130   34.9010   43.0610 N   0  0  0  0  0  0  0  0  0  0  0  0
   45.9240   34.1110   44.1130 C   0  0  0  0  0  0  0  0  0  0  0  0
   45.1540   34.5290   45.0900 N   0  0  0  0  0  0  0  0  0  0  0  0
   46.5390   32.8350   44.1900 N   0  0  0  0  0  0  0  0  0  0  0  0
   47.6910   32.5020   43.5750 C   0  0  0  0  0  0  0  0  0  0  0  0
   47.9990   31.2290   43.8490 N   0  0  0  0  0  0  0  0  0  0  0  0
   47.0170   30.7590   44.6520 C   0  0  0  0  0  0  0  0  0  0  0  0
   46.1610   31.7510   44.8340 N   0  0  0  0  0  0  0  0  0  0  0  0
   45.8450   26.7660   47.3890 C   0  0  0  0  0  0  0  0  0  0  0  0
   44.4810   26.5300   47.4380 C   0  0  0  0  0  0  0  0  0  0  0  0
   44.3190   25.6070   48.4890 C   0  0  0  0  0  0  0  0  0  0  0  0
   45.5940   25.3430   49.0080 C   0  0  0  0  0  0  0  0  0  0  0  0
   46.4420   26.0570   48.3150 O   0  0  0  0  0  0  0  0  0  0  0  0
   45.9420   24.4510   50.1070 C   0  0  0  0  0  0  0  0  0  0  0  0
   47.1190   23.7310   50.1260 C   0  0  0  0  0  0  0  0  0  0  0  0
   47.0390   23.0270   51.3330 C   0  0  0  0  0  0  0  0  0  0  0  0
   45.8750   23.3240   51.9820 N   0  0  0  0  0  0  0  0  0  0  0  0
   45.2240   24.1920   51.2140 N   0  0  0  0  0  0  0  0  0  0  0  0
   43.9058   36.0264   45.9195 H   0  0  0  0  0  0  0  0  0  0  0  0
   44.2400   37.5567   43.9400 H   0  0  0  0  0  0  0  0  0  0  0  0
   45.7329   36.7651   42.0346 H   0  0  0  0  0  0  0  0  0  0  0  0
   48.2883   33.1755   42.9428 H   0  0  0  0  0  0  0  0  0  0  0  0
   43.6992   26.9661   46.7988 H   0  0  0  0  0  0  0  0  0  0  0  0
   43.3697   25.1742   48.8375 H   0  0  0  0  0  0  0  0  0  0  0  0
   47.9234   23.7144   49.3759 H   0  0  0  0  0  0  0  0  0  0  0  0
   47.8059   22.3323   51.7062 H   0  0  0  0  0  0  0  0  0  0  0  0
   45.5626   22.9490   52.8890 H   0  0  0  0  0  0  0  0  0  0  0  0
  1  5  1  0
  2  1  2  0
  2  3  1  0
  3  4  1  0
  4 17  1  0
  5  4  2  0
  6 11  2  0
  7  6  1  0
  8  9  1  0
  8  7  2  0
  9 10  2  0
 10 12  1  0
 10 11  1  0
 12 16  1  0
 13 14  2  0
 13 12  1  0
 14 15  1  0
 15 16  2  0
 15  1  1  0
 17 18  2  0
 17 21  1  0
 18 19  1  0
 19 20  2  0
 20 22  1  0
 21 20  1  0
 22 23  1  0
 22 26  2  0
 23 24  2  0
 24 25  1  0
 26 25  1  0
  6 27  1  0
  7 28  1  0
  8 29  1  0
 13 30  1  0
 18 31  1  0
 19 32  1  0
 23 33  1  0
 24 34  1  0
 25 35  1  0
M  ISO  8  27  14  28  14  29  14  30  14  31  14  32  14  33  14  34  14
M  ISO  1  35   9
M  END
>  <minimizedAffinity>  (1) 
-5.25549698

>  <minimizedRMSD>  (1) 
0.684465349

$$$$
