
     RDKit          3D

 30 32  0  0  0  0  0  0  0  0999 V2000
   47.6780   34.7160   41.5240 C   0  0  0  0  0  0  0  0  0  0  0  0
   47.3660   34.2530   40.1550 C   0  0  0  0  0  0  0  0  0  0  0  0
   48.2330   34.3460   39.0940 C   0  0  0  0  0  0  0  0  0  0  0  0
   48.0270   33.9310   37.8080 C   0  0  0  0  0  0  0  0  0  0  0  0
   46.8040   33.3600   37.5870 N   0  0  0  0  0  0  0  0  0  0  0  0
   45.9280   33.2540   38.6130 C   0  0  0  0  0  0  0  0  0  0  0  0
   46.1510   33.6720   39.8810 N   0  0  0  0  0  0  0  0  0  0  0  0
   44.6270   32.6210   38.2750 C   0  0  0  0  0  0  0  0  0  0  0  0
   44.3580   31.4200   37.5510 C   0  0  0  0  0  0  0  0  0  0  0  0
   42.4940   31.4120   37.6170 S   0  0  0  0  0  0  0  0  0  0  0  0
   42.4510   33.0250   38.6060 C   0  0  0  0  0  0  0  0  0  0  0  0
   43.6470   33.3560   38.7630 N   0  0  0  0  0  0  0  0  0  0  0  0
   47.1290   33.7140   42.5100 C   0  0  0  0  0  0  0  0  0  0  0  0
   44.6850   36.0360   44.2210 C   0  0  0  0  0  0  0  0  0  0  0  0
   45.5180   35.4930   43.2540 C   0  0  0  0  0  0  0  0  0  0  0  0
   46.2260   34.3340   43.5050 C   0  0  0  0  0  0  0  0  0  0  0  0
   46.0760   33.7560   44.7220 N   0  0  0  0  0  0  0  0  0  0  0  0
   45.2480   34.3050   45.6660 C   0  0  0  0  0  0  0  0  0  0  0  0
   44.5710   35.4210   45.4140 N   0  0  0  0  0  0  0  0  0  0  0  0
   47.2142   35.6983   41.6973 H   0  0  0  0  0  0  0  0  0  0  0  0
   48.7669   34.8079   41.6497 H   0  0  0  0  0  0  0  0  0  0  0  0
   49.2084   34.8092   39.3038 H   0  0  0  0  0  0  0  0  0  0  0  0
   48.7822   34.0467   37.0166 H   0  0  0  0  0  0  0  0  0  0  0  0
   45.0520   30.7039   37.0868 H   0  0  0  0  0  0  0  0  0  0  0  0
   41.5602   33.5598   38.9673 H   0  0  0  0  0  0  0  0  0  0  0  0
   46.5697   32.9450   41.9570 H   0  0  0  0  0  0  0  0  0  0  0  0
   47.9804   33.2811   43.0555 H   0  0  0  0  0  0  0  0  0  0  0  0
   44.1233   36.9593   44.0158 H   0  0  0  0  0  0  0  0  0  0  0  0
   45.6157   35.9903   42.2777 H   0  0  0  0  0  0  0  0  0  0  0  0
   45.1422   33.8156   46.6454 H   0  0  0  0  0  0  0  0  0  0  0  0
  1 13  1  0
  2  1  1  0
  3  2  2  0
  4  3  1  0
  5  4  2  0
  5  6  1  0
  6  7  2  0
  7  2  1  0
  8  6  1  0
  8 12  1  0
  9 10  1  0
  9  8  2  0
 10 11  1  0
 11 12  2  0
 13 16  1  0
 14 19  2  0
 15 16  2  0
 15 14  1  0
 16 17  1  0
 17 18  2  0
 19 18  1  0
  1 20  1  0
  1 21  1  0
  3 22  1  0
  4 23  1  0
  9 24  1  0
 11 25  1  0
 13 26  1  0
 13 27  1  0
 14 28  1  0
 15 29  1  0
 18 30  1  0
M  ISO  8  20   8  21   8  22  14  23  14  24  14  25  14  26   8  27   8
M  ISO  3  28  14  29  14  30  14
M  END
>  <minimizedAffinity>  (1) 
-4.65447712

>  <minimizedRMSD>  (1) 
0.550842822

$$$$
