
     RDKit          3D

 36 40  0  0  0  0  0  0  0  0999 V2000
   47.7900   29.4490   44.8100 C   0  0  0  0  0  0  0  0  0  0  0  0
   48.7310   28.5620   44.4390 N   0  0  0  0  0  0  0  0  0  0  0  0
   48.5260   27.4500   45.0860 O   0  0  0  0  0  0  0  0  0  0  0  0
   47.4780   27.5540   45.8840 C   0  0  0  0  0  0  0  0  0  0  0  0
   47.0030   28.8160   45.7180 N   0  0  0  0  0  0  0  0  0  0  0  0
   44.6390   35.4180   45.3130 C   0  0  0  0  0  0  0  0  0  0  0  0
   44.5790   36.3230   44.2480 C   0  0  0  0  0  0  0  0  0  0  0  0
   45.3010   36.0400   43.0960 C   0  0  0  0  0  0  0  0  0  0  0  0
   46.0310   34.8720   43.0910 N   0  0  0  0  0  0  0  0  0  0  0  0
   46.0680   34.0300   44.1200 C   0  0  0  0  0  0  0  0  0  0  0  0
   45.3830   34.3040   45.2070 N   0  0  0  0  0  0  0  0  0  0  0  0
   46.8400   32.8340   44.0660 N   0  0  0  0  0  0  0  0  0  0  0  0
   47.9570   32.6880   43.3120 C   0  0  0  0  0  0  0  0  0  0  0  0
   48.4390   31.4510   43.4860 N   0  0  0  0  0  0  0  0  0  0  0  0
   47.6310   30.8200   44.3440 C   0  0  0  0  0  0  0  0  0  0  0  0
   46.6830   31.6820   44.6700 N   0  0  0  0  0  0  0  0  0  0  0  0
   46.9890   26.4810   46.7430 C   0  0  0  0  0  0  0  0  0  0  0  0
   45.8550   25.7590   46.4080 C   0  0  0  0  0  0  0  0  0  0  0  0
   45.7090   24.8370   47.4580 C   0  0  0  0  0  0  0  0  0  0  0  0
   46.7470   25.0580   48.3440 C   0  0  0  0  0  0  0  0  0  0  0  0
   47.4850   26.0510   47.8720 O   0  0  0  0  0  0  0  0  0  0  0  0
   46.9910   24.3160   49.5970 C   0  0  0  0  0  0  0  0  0  0  0  0
   45.9330   24.0540   50.4370 C   0  0  0  0  0  0  0  0  0  0  0  0
   46.1830   23.3510   51.6170 C   0  0  0  0  0  0  0  0  0  0  0  0
   47.4380   22.9660   51.8750 N   0  0  0  0  0  0  0  0  0  0  0  0
   48.4570   23.2370   51.0350 C   0  0  0  0  0  0  0  0  0  0  0  0
   48.2330   23.9180   49.8840 N   0  0  0  0  0  0  0  0  0  0  0  0
   44.0771   35.6183   46.2372 H   0  0  0  0  0  0  0  0  0  0  0  0
   43.9734   37.2384   44.3214 H   0  0  0  0  0  0  0  0  0  0  0  0
   45.2904   36.7165   42.2287 H   0  0  0  0  0  0  0  0  0  0  0  0
   48.3959   33.4600   42.6629 H   0  0  0  0  0  0  0  0  0  0  0  0
   45.2148   25.8801   45.5218 H   0  0  0  0  0  0  0  0  0  0  0  0
   44.9166   24.0804   47.5567 H   0  0  0  0  0  0  0  0  0  0  0  0
   44.9163   24.3899   50.1852 H   0  0  0  0  0  0  0  0  0  0  0  0
   45.3675   23.1192   52.3179 H   0  0  0  0  0  0  0  0  0  0  0  0
   49.4753   22.9040   51.2845 H   0  0  0  0  0  0  0  0  0  0  0  0
  1  5  1  0
  2  1  2  0
  2  3  1  0
  3  4  1  0
  4 17  1  0
  5  4  2  0
  7  6  2  0
  8  7  1  0
  9  8  2  0
  9 10  1  0
 10 11  2  0
 11  6  1  0
 12 10  1  0
 12 16  1  0
 13 14  2  0
 13 12  1  0
 14 15  1  0
 15 16  2  0
 15  1  1  0
 17 21  1  0
 18 17  2  0
 18 19  1  0
 19 20  2  0
 20 22  1  0
 21 20  1  0
 22 27  1  0
 22 23  2  0
 23 24  1  0
 24 25  2  0
 26 25  1  0
 27 26  2  0
  6 28  1  0
  7 29  1  0
  8 30  1  0
 13 31  1  0
 18 32  1  0
 19 33  1  0
 23 34  1  0
 24 35  1  0
 26 36  1  0
M  ISO  8  28  14  29  14  30  14  31  14  32  14  33  14  34  14  35  14
M  ISO  1  36  14
M  END
>  <minimizedAffinity>  (1) 
-5.05168676

>  <minimizedRMSD>  (1) 
1.45508218

$$$$
