
     RDKit          3D

 36 40  0  0  0  0  0  0  0  0999 V2000
   47.7820   29.4450   44.8060 C   0  0  0  0  0  0  0  0  0  0  0  0
   48.7260   28.5650   44.4340 N   0  0  0  0  0  0  0  0  0  0  0  0
   48.5190   27.4560   45.0790 O   0  0  0  0  0  0  0  0  0  0  0  0
   47.4720   27.5560   45.8720 C   0  0  0  0  0  0  0  0  0  0  0  0
   46.9950   28.8090   45.7090 N   0  0  0  0  0  0  0  0  0  0  0  0
   44.6290   35.4200   45.3260 C   0  0  0  0  0  0  0  0  0  0  0  0
   44.5880   36.3260   44.2530 C   0  0  0  0  0  0  0  0  0  0  0  0
   45.3220   36.0480   43.0860 C   0  0  0  0  0  0  0  0  0  0  0  0
   46.0370   34.8790   43.1010 N   0  0  0  0  0  0  0  0  0  0  0  0
   46.0700   34.0270   44.1240 C   0  0  0  0  0  0  0  0  0  0  0  0
   45.3720   34.3040   45.2140 N   0  0  0  0  0  0  0  0  0  0  0  0
   46.8330   32.8350   44.0650 N   0  0  0  0  0  0  0  0  0  0  0  0
   47.9420   32.6760   43.3080 C   0  0  0  0  0  0  0  0  0  0  0  0
   48.4250   31.4390   43.4770 N   0  0  0  0  0  0  0  0  0  0  0  0
   47.6190   30.8150   44.3430 C   0  0  0  0  0  0  0  0  0  0  0  0
   46.6730   31.6790   44.6770 N   0  0  0  0  0  0  0  0  0  0  0  0
   46.9780   26.4810   46.7320 C   0  0  0  0  0  0  0  0  0  0  0  0
   45.8510   25.7460   46.4080 C   0  0  0  0  0  0  0  0  0  0  0  0
   45.7010   24.8300   47.4560 C   0  0  0  0  0  0  0  0  0  0  0  0
   46.7380   25.0670   48.3370 C   0  0  0  0  0  0  0  0  0  0  0  0
   47.4700   26.0550   47.8660 O   0  0  0  0  0  0  0  0  0  0  0  0
   46.9710   24.3380   49.5780 C   0  0  0  0  0  0  0  0  0  0  0  0
   45.9320   24.0580   50.4400 C   0  0  0  0  0  0  0  0  0  0  0  0
   46.2220   23.3640   51.5970 C   0  0  0  0  0  0  0  0  0  0  0  0
   47.4660   22.9540   51.9130 N   0  0  0  0  0  0  0  0  0  0  0  0
   48.4630   23.2380   51.0550 C   0  0  0  0  0  0  0  0  0  0  0  0
   48.2080   23.9230   49.9030 N   0  0  0  0  0  0  0  0  0  0  0  0
   44.0607   35.6206   46.2462 H   0  0  0  0  0  0  0  0  0  0  0  0
   43.9872   37.2446   44.3250 H   0  0  0  0  0  0  0  0  0  0  0  0
   45.3222   36.7243   42.2184 H   0  0  0  0  0  0  0  0  0  0  0  0
   48.3798   33.4446   42.6541 H   0  0  0  0  0  0  0  0  0  0  0  0
   45.2118   25.8574   45.5197 H   0  0  0  0  0  0  0  0  0  0  0  0
   44.9119   24.0704   47.5579 H   0  0  0  0  0  0  0  0  0  0  0  0
   44.9043   24.3777   50.2126 H   0  0  0  0  0  0  0  0  0  0  0  0
   45.4009   23.1353   52.2923 H   0  0  0  0  0  0  0  0  0  0  0  0
   49.4896   22.9160   51.2838 H   0  0  0  0  0  0  0  0  0  0  0  0
  1  5  1  0
  2  1  2  0
  2  3  1  0
  3  4  1  0
  4 17  1  0
  5  4  2  0
  7  6  2  0
  8  9  2  0
  8  7  1  0
  9 10  1  0
 10 11  2  0
 11  6  1  0
 12 10  1  0
 12 16  1  0
 13 14  2  0
 13 12  1  0
 14 15  1  0
 15 16  2  0
 15  1  1  0
 17 21  1  0
 18 17  2  0
 18 19  1  0
 19 20  2  0
 20 22  1  0
 21 20  1  0
 22 27  1  0
 22 23  2  0
 23 24  1  0
 24 25  2  0
 26 25  1  0
 27 26  2  0
  6 28  1  0
  7 29  1  0
  8 30  1  0
 13 31  1  0
 18 32  1  0
 19 33  1  0
 23 34  1  0
 24 35  1  0
 26 36  1  0
M  ISO  8  28  14  29  14  30  14  31  14  32  14  33  14  34  14  35  14
M  ISO  1  36  14
M  END
>  <minimizedAffinity>  (1) 
-5.0562253

>  <minimizedRMSD>  (1) 
1.44628739

$$$$
