
     RDKit          3D

 31 34  0  0  0  0  0  0  0  0999 V2000
   44.6030   35.5030   45.3190 C   0  0  0  0  0  0  0  0  0  0  0  0
   44.7030   36.2790   44.1490 C   0  0  0  0  0  0  0  0  0  0  0  0
   45.4390   35.7780   43.0700 C   0  0  0  0  0  0  0  0  0  0  0  0
   46.0120   34.5440   43.2510 N   0  0  0  0  0  0  0  0  0  0  0  0
   45.9110   33.8200   44.3620 C   0  0  0  0  0  0  0  0  0  0  0  0
   45.2140   34.3160   45.3580 N   0  0  0  0  0  0  0  0  0  0  0  0
   46.5200   32.5590   44.4920 N   0  0  0  0  0  0  0  0  0  0  0  0
   47.6490   32.1870   43.8170 C   0  0  0  0  0  0  0  0  0  0  0  0
   47.9700   30.9350   44.1630 N   0  0  0  0  0  0  0  0  0  0  0  0
   47.0540   30.5170   45.0450 C   0  0  0  0  0  0  0  0  0  0  0  0
   46.2090   31.5190   45.2130 N   0  0  0  0  0  0  0  0  0  0  0  0
   47.0470   29.2060   45.6640 C   0  0  0  0  0  0  0  0  0  0  0  0
   47.8240   28.1390   45.3690 N   0  0  0  0  0  0  0  0  0  0  0  0
   47.4890   27.1600   46.1660 O   0  0  0  0  0  0  0  0  0  0  0  0
   46.5250   27.5220   46.9790 C   0  0  0  0  0  0  0  0  0  0  0  0
   46.2270   28.8190   46.6780 N   0  0  0  0  0  0  0  0  0  0  0  0
   45.9180   26.6630   47.9980 C   0  0  0  0  0  0  0  0  0  0  0  0
   44.6070   26.8340   48.4050 C   0  0  0  0  0  0  0  0  0  0  0  0
   44.4070   25.8350   49.3730 C   0  0  0  0  0  0  0  0  0  0  0  0
   45.6000   25.1300   49.4870 C   0  0  0  0  0  0  0  0  0  0  0  0
   46.4720   25.6670   48.6420 O   0  0  0  0  0  0  0  0  0  0  0  0
   45.9090   23.9730   50.3800 C   0  0  0  0  0  0  0  0  0  0  0  0
   44.0319   35.8676   46.1856 H   0  0  0  0  0  0  0  0  0  0  0  0
   44.2116   37.2610   44.0843 H   0  0  0  0  0  0  0  0  0  0  0  0
   45.5519   36.3402   42.1313 H   0  0  0  0  0  0  0  0  0  0  0  0
   48.2038   32.8153   43.1047 H   0  0  0  0  0  0  0  0  0  0  0  0
   43.8838   27.5833   48.0507 H   0  0  0  0  0  0  0  0  0  0  0  0
   43.4805   25.6462   49.9350 H   0  0  0  0  0  0  0  0  0  0  0  0
   45.8249   24.2880   51.4306 H   0  0  0  0  0  0  0  0  0  0  0  0
   45.1971   23.1578   50.1835 H   0  0  0  0  0  0  0  0  0  0  0  0
   46.9326   23.6213   50.1835 H   0  0  0  0  0  0  0  0  0  0  0  0
  1  6  2  0
  2  1  1  0
  3  4  1  0
  3  2  2  0
  4  5  2  0
  5  7  1  0
  5  6  1  0
  7 11  1  0
  8  9  2  0
  8  7  1  0
  9 10  1  0
 10 11  2  0
 10 12  1  0
 12 16  1  0
 13 12  2  0
 13 14  1  0
 14 15  1  0
 15 17  1  0
 16 15  2  0
 17 18  2  0
 17 21  1  0
 18 19  1  0
 19 20  2  0
 20 22  1  0
 21 20  1  0
  1 23  1  0
  2 24  1  0
  3 25  1  0
  8 26  1  0
 18 27  1  0
 19 28  1  0
 22 29  1  0
 22 30  1  0
 22 31  1  0
M  ISO  8  23  14  24  14  25  14  26  14  27  14  28  14  29   8  30   8
M  ISO  1  31   8
M  END
>  <minimizedAffinity>  (1) 
-4.94316435

>  <minimizedRMSD>  (1) 
0.0727449134

$$$$
