
     RDKit          3D

 31 33  0  0  0  0  0  0  0  0999 V2000
   47.6700   34.6820   41.5080 C   0  0  0  0  0  0  0  0  0  0  0  0
   47.3650   34.2390   40.1290 C   0  0  0  0  0  0  0  0  0  0  0  0
   48.2510   34.3160   39.0880 C   0  0  0  0  0  0  0  0  0  0  0  0
   48.0470   33.9150   37.7900 C   0  0  0  0  0  0  0  0  0  0  0  0
   46.8090   33.3870   37.5500 N   0  0  0  0  0  0  0  0  0  0  0  0
   45.8970   33.2980   38.5740 C   0  0  0  0  0  0  0  0  0  0  0  0
   46.1540   33.7070   39.8280 N   0  0  0  0  0  0  0  0  0  0  0  0
   44.5730   32.7270   38.2880 C   0  0  0  0  0  0  0  0  0  0  0  0
   43.3610   33.2620   38.6750 C   0  0  0  0  0  0  0  0  0  0  0  0
   42.3160   32.4590   38.2320 C   0  0  0  0  0  0  0  0  0  0  0  0
   42.9770   31.4460   37.5790 C   0  0  0  0  0  0  0  0  0  0  0  0
   44.2700   31.6230   37.6240 O   0  0  0  0  0  0  0  0  0  0  0  0
   47.0840   33.6900   42.4810 C   0  0  0  0  0  0  0  0  0  0  0  0
   44.6810   36.0510   44.2020 C   0  0  0  0  0  0  0  0  0  0  0  0
   45.5010   35.4990   43.2130 C   0  0  0  0  0  0  0  0  0  0  0  0
   46.1950   34.3320   43.4800 C   0  0  0  0  0  0  0  0  0  0  0  0
   46.0470   33.7600   44.7060 N   0  0  0  0  0  0  0  0  0  0  0  0
   45.2330   34.3310   45.6480 C   0  0  0  0  0  0  0  0  0  0  0  0
   44.5730   35.4540   45.3800 N   0  0  0  0  0  0  0  0  0  0  0  0
   47.2297   35.6748   41.6827 H   0  0  0  0  0  0  0  0  0  0  0  0
   48.7595   34.7418   41.6477 H   0  0  0  0  0  0  0  0  0  0  0  0
   49.2367   34.7473   39.3166 H   0  0  0  0  0  0  0  0  0  0  0  0
   48.8156   34.0108   37.0089 H   0  0  0  0  0  0  0  0  0  0  0  0
   43.2392   34.1909   39.2515 H   0  0  0  0  0  0  0  0  0  0  0  0
   41.2336   32.5990   38.3694 H   0  0  0  0  0  0  0  0  0  0  0  0
   42.4819   30.5978   37.0837 H   0  0  0  0  0  0  0  0  0  0  0  0
   46.5023   32.9451   41.9181 H   0  0  0  0  0  0  0  0  0  0  0  0
   47.9179   33.2238   43.0262 H   0  0  0  0  0  0  0  0  0  0  0  0
   44.1263   36.9797   44.0023 H   0  0  0  0  0  0  0  0  0  0  0  0
   45.5935   35.9879   42.2319 H   0  0  0  0  0  0  0  0  0  0  0  0
   45.1243   33.8567   46.6345 H   0  0  0  0  0  0  0  0  0  0  0  0
  1 13  1  0
  2  1  1  0
  3  2  2  0
  4  3  1  0
  5  4  2  0
  5  6  1  0
  6  7  2  0
  7  2  1  0
  8  6  1  0
  8  9  2  0
 10  9  1  0
 11 12  1  0
 11 10  2  0
 12  8  1  0
 13 16  1  0
 14 19  2  0
 15 16  2  0
 15 14  1  0
 16 17  1  0
 17 18  2  0
 19 18  1  0
  1 20  1  0
  1 21  1  0
  3 22  1  0
  4 23  1  0
  9 24  1  0
 10 25  1  0
 11 26  1  0
 13 27  1  0
 13 28  1  0
 14 29  1  0
 15 30  1  0
 18 31  1  0
M  ISO  8  20   8  21   8  22  14  23  14  24  14  25  14  26  14  27   8
M  ISO  4  28   8  29  14  30  14  31  14
M  END
>  <minimizedAffinity>  (1) 
-4.63107824

>  <minimizedRMSD>  (1) 
0.57927388

$$$$
