
     RDKit          3D

 29 31  0  0  0  0  0  0  0  0999 V2000
   47.8260   34.8340   41.5800 C   0  0  0  0  0  0  0  0  0  0  0  0
   47.5400   34.3620   40.2080 C   0  0  0  0  0  0  0  0  0  0  0  0
   48.3970   34.5700   39.1480 C   0  0  0  0  0  0  0  0  0  0  0  0
   48.1950   34.1460   37.8530 C   0  0  0  0  0  0  0  0  0  0  0  0
   47.0430   33.4690   37.6300 N   0  0  0  0  0  0  0  0  0  0  0  0
   46.1750   33.2510   38.6720 C   0  0  0  0  0  0  0  0  0  0  0  0
   46.3840   33.6720   39.9370 N   0  0  0  0  0  0  0  0  0  0  0  0
   44.9110   32.5320   38.5240 C   0  0  0  0  0  0  0  0  0  0  0  0
   43.8470   33.2840   38.1730 N   0  0  0  0  0  0  0  0  0  0  0  0
   42.8130   32.4750   38.0880 O   0  0  0  0  0  0  0  0  0  0  0  0
   43.2020   31.2530   38.3730 C   0  0  0  0  0  0  0  0  0  0  0  0
   44.5280   31.2330   38.6570 N   0  0  0  0  0  0  0  0  0  0  0  0
   47.3100   33.8170   42.5620 C   0  0  0  0  0  0  0  0  0  0  0  0
   44.6940   36.0100   44.2000 C   0  0  0  0  0  0  0  0  0  0  0  0
   45.5900   35.5230   43.2430 C   0  0  0  0  0  0  0  0  0  0  0  0
   46.3380   34.3940   43.5220 C   0  0  0  0  0  0  0  0  0  0  0  0
   46.1600   33.8020   44.7400 N   0  0  0  0  0  0  0  0  0  0  0  0
   45.2850   34.2980   45.6440 C   0  0  0  0  0  0  0  0  0  0  0  0
   44.5650   35.3880   45.3700 N   0  0  0  0  0  0  0  0  0  0  0  0
   47.3260   35.7989   41.7504 H   0  0  0  0  0  0  0  0  0  0  0  0
   48.9105   34.9629   41.7117 H   0  0  0  0  0  0  0  0  0  0  0  0
   49.3246   35.1238   39.3549 H   0  0  0  0  0  0  0  0  0  0  0  0
   48.9221   34.3443   37.0518 H   0  0  0  0  0  0  0  0  0  0  0  0
   42.5451   30.3707   38.3803 H   0  0  0  0  0  0  0  0  0  0  0  0
   46.8163   33.0075   42.0043 H   0  0  0  0  0  0  0  0  0  0  0  0
   48.1692   33.4458   43.1400 H   0  0  0  0  0  0  0  0  0  0  0  0
   44.0954   36.9077   43.9859 H   0  0  0  0  0  0  0  0  0  0  0  0
   45.6989   36.0344   42.2752 H   0  0  0  0  0  0  0  0  0  0  0  0
   45.1653   33.7975   46.6162 H   0  0  0  0  0  0  0  0  0  0  0  0
  1 13  1  0
  2  1  1  0
  3  2  2  0
  4  3  1  0
  5  4  2  0
  5  6  1  0
  6  7  2  0
  7  2  1  0
  8 12  1  0
  8  6  1  0
  9  8  2  0
 10  9  1  0
 10 11  1  0
 11 12  2  0
 13 16  1  0
 14 19  2  0
 15 16  2  0
 15 14  1  0
 16 17  1  0
 17 18  2  0
 19 18  1  0
  1 20  1  0
  1 21  1  0
  3 22  1  0
  4 23  1  0
 11 24  1  0
 13 25  1  0
 13 26  1  0
 14 27  1  0
 15 28  1  0
 18 29  1  0
M  ISO  8  20   8  21   8  22  14  23  14  24  14  25   8  26   8  27  14
M  ISO  2  28  14  29  14
M  END
>  <minimizedAffinity>  (1) 
-4.60964775

>  <minimizedRMSD>  (1) 
0.305383146

$$$$
