
     RDKit          3D

 38 42  0  0  0  0  0  0  0  0999 V2000
   47.0400   29.2270   45.5350 C   0  0  0  0  0  0  0  0  0  0  0  0
   47.7860   28.1480   45.1860 N   0  0  0  0  0  0  0  0  0  0  0  0
   47.4690   27.1570   45.9830 O   0  0  0  0  0  0  0  0  0  0  0  0
   46.5560   27.5230   46.8370 C   0  0  0  0  0  0  0  0  0  0  0  0
   46.2670   28.8320   46.5720 N   0  0  0  0  0  0  0  0  0  0  0  0
   44.5800   35.5230   45.3070 C   0  0  0  0  0  0  0  0  0  0  0  0
   44.7100   36.3310   44.1670 C   0  0  0  0  0  0  0  0  0  0  0  0
   45.4710   35.8640   43.0920 C   0  0  0  0  0  0  0  0  0  0  0  0
   46.0320   34.6270   43.2590 N   0  0  0  0  0  0  0  0  0  0  0  0
   45.9100   33.8630   44.3340 C   0  0  0  0  0  0  0  0  0  0  0  0
   45.1910   34.3350   45.3180 N   0  0  0  0  0  0  0  0  0  0  0  0
   46.5220   32.6000   44.4250 N   0  0  0  0  0  0  0  0  0  0  0  0
   47.6270   32.2310   43.7310 C   0  0  0  0  0  0  0  0  0  0  0  0
   47.9500   30.9670   44.0460 N   0  0  0  0  0  0  0  0  0  0  0  0
   47.0450   30.5480   44.9390 C   0  0  0  0  0  0  0  0  0  0  0  0
   46.2150   31.5460   45.1370 N   0  0  0  0  0  0  0  0  0  0  0  0
   45.9680   26.6590   47.8760 C   0  0  0  0  0  0  0  0  0  0  0  0
   44.6730   26.8250   48.2980 C   0  0  0  0  0  0  0  0  0  0  0  0
   44.5020   25.8250   49.2770 C   0  0  0  0  0  0  0  0  0  0  0  0
   45.7080   25.1250   49.3790 C   0  0  0  0  0  0  0  0  0  0  0  0
   46.5590   25.6680   48.5140 O   0  0  0  0  0  0  0  0  0  0  0  0
   46.0500   23.9830   50.2620 C   0  0  0  0  0  0  0  0  0  0  0  0
   47.5030   23.6540   50.3030 C   0  0  0  0  0  0  0  0  0  0  0  0
   47.7720   22.1500   50.1500 C   0  0  0  0  0  0  0  0  0  0  0  0
   48.1270   22.8840   51.4050 C   0  0  0  0  0  0  0  0  0  0  0  0
   43.9889   35.8599   46.1713 H   0  0  0  0  0  0  0  0  0  0  0  0
   44.2211   37.3153   44.1204 H   0  0  0  0  0  0  0  0  0  0  0  0
   45.6099   36.4517   42.1726 H   0  0  0  0  0  0  0  0  0  0  0  0
   48.1736   32.8685   43.0204 H   0  0  0  0  0  0  0  0  0  0  0  0
   43.9381   27.5669   47.9523 H   0  0  0  0  0  0  0  0  0  0  0  0
   43.5866   25.6309   49.8552 H   0  0  0  0  0  0  0  0  0  0  0  0
   45.7230   24.2272   51.2835 H   0  0  0  0  0  0  0  0  0  0  0  0
   45.5385   23.1010   49.8491 H   0  0  0  0  0  0  0  0  0  0  0  0
   47.7866   24.6113   49.8414 H   0  0  0  0  0  0  0  0  0  0  0  0
   46.9358   21.4354   50.1437 H   0  0  0  0  0  0  0  0  0  0  0  0
   48.3110   21.5167   49.4300 H   0  0  0  0  0  0  0  0  0  0  0  0
   49.1846   23.0529   51.6561 H   0  0  0  0  0  0  0  0  0  0  0  0
   47.8887   22.7405   52.4692 H   0  0  0  0  0  0  0  0  0  0  0  0
  1  5  1  0
  2  1  2  0
  2  3  1  0
  3  4  1  0
  4 17  1  0
  5  4  2  0
  6 11  2  0
  7  6  1  0
  8  9  1  0
  8  7  2  0
  9 10  2  0
 10 12  1  0
 10 11  1  0
 12 16  1  0
 13 14  2  0
 13 12  1  0
 14 15  1  0
 15 16  2  0
 15  1  1  0
 17 18  2  0
 17 21  1  0
 18 19  1  0
 19 20  2  0
 20 22  1  0
 21 20  1  0
 22 23  1  0
 23 25  1  0
 24 23  1  0
 24 25  1  0
  6 26  1  0
  7 27  1  0
  8 28  1  0
 13 29  1  0
 18 30  1  0
 19 31  1  0
 22 32  1  0
 22 33  1  0
 23 34  1  0
 24 35  1  0
 24 36  1  0
 25 37  1  0
 25 38  1  0
M  ISO  8  26  14  27  14  28  14  29  14  30  14  31  14  32   8  33   8
M  ISO  5  34  13  35  13  36  13  37  13  38  13
M  END
>  <minimizedAffinity>  (1) 
-5.13231611

>  <minimizedRMSD>  (1) 
1.02698886

$$$$
