
     RDKit          3D

 43 47  0  0  0  0  0  0  0  0999 V2000
   47.0850   29.3050   45.0300 C   0  0  0  0  0  0  0  0  0  0  0  0
   47.9070   28.2930   44.6630 N   0  0  0  0  0  0  0  0  0  0  0  0
   47.5540   27.2280   45.3260 O   0  0  0  0  0  0  0  0  0  0  0  0
   46.5310   27.4780   46.1230 C   0  0  0  0  0  0  0  0  0  0  0  0
   46.2290   28.7900   45.9410 N   0  0  0  0  0  0  0  0  0  0  0  0
   44.5620   35.5650   45.2880 C   0  0  0  0  0  0  0  0  0  0  0  0
   44.6620   36.4600   44.2120 C   0  0  0  0  0  0  0  0  0  0  0  0
   45.4250   36.0860   43.0970 C   0  0  0  0  0  0  0  0  0  0  0  0
   46.0240   34.8460   43.1600 N   0  0  0  0  0  0  0  0  0  0  0  0
   45.9120   34.0130   44.2000 C   0  0  0  0  0  0  0  0  0  0  0  0
   45.1930   34.3910   45.2220 N   0  0  0  0  0  0  0  0  0  0  0  0
   46.5430   32.7560   44.2140 N   0  0  0  0  0  0  0  0  0  0  0  0
   47.7120   32.4840   43.5430 C   0  0  0  0  0  0  0  0  0  0  0  0
   48.0420   31.2050   43.7610 N   0  0  0  0  0  0  0  0  0  0  0  0
   47.0990   30.6730   44.5570 C   0  0  0  0  0  0  0  0  0  0  0  0
   46.2210   31.6380   44.8030 N   0  0  0  0  0  0  0  0  0  0  0  0
   45.8950   26.5000   47.0000 C   0  0  0  0  0  0  0  0  0  0  0  0
   44.5300   26.4130   47.1270 C   0  0  0  0  0  0  0  0  0  0  0  0
   44.3160   25.3730   48.0430 C   0  0  0  0  0  0  0  0  0  0  0  0
   45.5610   24.9000   48.4090 C   0  0  0  0  0  0  0  0  0  0  0  0
   46.4610   25.6080   47.7580 O   0  0  0  0  0  0  0  0  0  0  0  0
   45.8910   23.7920   49.3650 C   0  0  0  0  0  0  0  0  0  0  0  0
   46.8780   24.1610   50.3370 N   0  0  0  0  0  0  0  0  0  0  0  0
   48.2200   23.8880   49.9290 C   0  0  0  0  0  0  0  0  0  0  0  0
   48.7040   22.7070   50.7400 C   0  0  0  0  0  0  0  0  0  0  0  0
   47.9120   22.8050   52.0040 C   0  0  0  0  0  0  0  0  0  0  0  0
   46.6300   23.4780   51.5670 C   0  0  0  0  0  0  0  0  0  0  0  0
   43.9696   35.8283   46.1767 H   0  0  0  0  0  0  0  0  0  0  0  0
   44.1525   37.4344   44.2427 H   0  0  0  0  0  0  0  0  0  0  0  0
   45.5391   36.7437   42.2227 H   0  0  0  0  0  0  0  0  0  0  0  0
   48.2810   33.1981   42.9295 H   0  0  0  0  0  0  0  0  0  0  0  0
   43.7700   27.0259   46.6203 H   0  0  0  0  0  0  0  0  0  0  0  0
   43.3434   25.0046   48.4012 H   0  0  0  0  0  0  0  0  0  0  0  0
   44.9714   23.5006   49.8936 H   0  0  0  0  0  0  0  0  0  0  0  0
   46.3077   22.9631   48.7740 H   0  0  0  0  0  0  0  0  0  0  0  0
   48.2454   23.6443   48.8566 H   0  0  0  0  0  0  0  0  0  0  0  0
   48.8637   24.7645   50.0943 H   0  0  0  0  0  0  0  0  0  0  0  0
   48.4974   21.7607   50.2187 H   0  0  0  0  0  0  0  0  0  0  0  0
   49.7903   22.7214   50.9124 H   0  0  0  0  0  0  0  0  0  0  0  0
   47.7100   21.8068   52.4196 H   0  0  0  0  0  0  0  0  0  0  0  0
   48.4373   23.3581   52.7966 H   0  0  0  0  0  0  0  0  0  0  0  0
   46.3079   24.1980   52.3337 H   0  0  0  0  0  0  0  0  0  0  0  0
   45.8363   22.7287   51.4308 H   0  0  0  0  0  0  0  0  0  0  0  0
  1  5  1  0
  2  1  2  0
  2  3  1  0
  3  4  1  0
  4 17  1  0
  5  4  2  0
  7  6  2  0
  8  9  2  0
  8  7  1  0
  9 10  1  0
 10 12  1  0
 10 11  2  0
 11  6  1  0
 12 16  1  0
 13 14  2  0
 13 12  1  0
 14 15  1  0
 15 16  2  0
 15  1  1  0
 17 18  2  0
 17 21  1  0
 18 19  1  0
 19 20  2  0
 20 22  1  0
 21 20  1  0
 22 23  1  0
 23 27  1  0
 24 23  1  0
 24 25  1  0
 25 26  1  0
 27 26  1  0
  6 28  1  0
  7 29  1  0
  8 30  1  0
 13 31  1  0
 18 32  1  0
 19 33  1  0
 22 34  1  0
 22 35  1  0
 24 36  1  0
 24 37  1  0
 25 38  1  0
 25 39  1  0
 26 40  1  0
 26 41  1  0
 27 42  1  0
 27 43  1  0
M  ISO  8  28  14  29  14  30  14  31  14  32  14  33  14  34   8  35   8
M  ISO  8  36  13  37  13  38  13  39  13  40  13  41  13  42  13  43  13
M  END
>  <minimizedAffinity>  (1) 
-4.74244833

>  <minimizedRMSD>  (1) 
0.932809472

$$$$
