
     RDKit          3D

 26 28  0  0  0  0  0  0  0  0999 V2000
   47.7520   34.6270   42.5330 C   0  0  0  0  0  0  0  0  0  0  0  0
   46.7380   34.5510   41.5580 C   0  0  0  0  0  0  0  0  0  0  0  0
   45.5300   33.9440   41.9300 C   0  0  0  0  0  0  0  0  0  0  0  0
   45.4000   33.4630   43.2010 N   0  0  0  0  0  0  0  0  0  0  0  0
   46.3980   33.5590   44.0950 C   0  0  0  0  0  0  0  0  0  0  0  0
   47.5540   34.1340   43.7580 N   0  0  0  0  0  0  0  0  0  0  0  0
   46.1770   33.0310   45.4020 N   0  0  0  0  0  0  0  0  0  0  0  0
   45.4050   33.5990   46.3700 C   0  0  0  0  0  0  0  0  0  0  0  0
   45.4220   32.8200   47.4920 N   0  0  0  0  0  0  0  0  0  0  0  0
   46.1990   31.7650   47.2370 C   0  0  0  0  0  0  0  0  0  0  0  0
   46.6250   30.6390   47.9120 C   0  0  0  0  0  0  0  0  0  0  0  0
   47.4540   29.7120   47.3460 N   0  0  0  0  0  0  0  0  0  0  0  0
   47.8840   29.8960   46.0620 C   0  0  0  0  0  0  0  0  0  0  0  0
   47.4780   30.9870   45.3890 N   0  0  0  0  0  0  0  0  0  0  0  0
   46.6720   31.8860   45.9440 C   0  0  0  0  0  0  0  0  0  0  0  0
   46.1660   30.4690   49.2480 N   0  0  0  0  0  0  0  0  0  0  0  0
   49.0190   35.2590   42.1610 C   0  0  0  0  0  0  0  0  0  0  0  0
   49.0950   35.8920   41.0790 O   0  0  0  0  0  0  0  0  0  0  0  0
   50.0990   35.1340   43.0210 O   0  0  0  0  0  0  0  0  0  0  0  0
   46.8880   34.9521   40.5448 H   0  0  0  0  0  0  0  0  0  0  0  0
   44.7022   33.8570   41.2109 H   0  0  0  0  0  0  0  0  0  0  0  0
   44.8510   34.5434   46.2641 H   0  0  0  0  0  0  0  0  0  0  0  0
   48.5520   29.1629   45.5863 H   0  0  0  0  0  0  0  0  0  0  0  0
   46.4573   29.6440   49.7916 H   0  0  0  0  0  0  0  0  0  0  0  0
   45.5424   31.1709   49.6715 H   0  0  0  0  0  0  0  0  0  0  0  0
   50.9661   35.5527   42.7909 H   0  0  0  0  0  0  0  0  0  0  0  0
  1  6  2  0
  2  3  2  0
  2  1  1  0
  3  4  1  0
  4  5  2  0
  5  7  1  0
  6  5  1  0
  7 15  1  0
  7  8  1  0
  8  9  2  0
 10  9  1  0
 10 11  2  0
 11 16  1  0
 12 11  1  0
 13 12  2  0
 14 15  2  0
 14 13  1  0
 15 10  1  0
 17  1  1  0
 17 19  1  0
 18 17  2  0
  2 20  1  0
  3 21  1  0
  8 22  1  0
 13 23  1  0
 16 24  1  0
 16 25  1  0
 19 26  1  0
M  ISO  5  20  14  21  14  22  14  23  14  26   3
M  END
>  <minimizedAffinity>  (1) 
-5.9658637

>  <minimizedRMSD>  (1) 
0.927250504

$$$$
