
     RDKit          3D

 27 29  0  0  0  0  0  0  0  0999 V2000
   48.2470   34.5210   42.1490 C   0  0  0  0  0  0  0  0  0  0  0  0
   47.4340   34.4690   41.0210 C   0  0  0  0  0  0  0  0  0  0  0  0
   46.3730   33.5390   41.0110 C   0  0  0  0  0  0  0  0  0  0  0  0
   46.1990   32.7450   42.0980 N   0  0  0  0  0  0  0  0  0  0  0  0
   47.0080   32.8290   43.1650 C   0  0  0  0  0  0  0  0  0  0  0  0
   48.0260   33.7050   43.1990 N   0  0  0  0  0  0  0  0  0  0  0  0
   46.8990   32.0380   44.3420 N   0  0  0  0  0  0  0  0  0  0  0  0
   47.4240   30.7990   44.5790 C   0  0  0  0  0  0  0  0  0  0  0  0
   47.0760   30.4080   45.8390 N   0  0  0  0  0  0  0  0  0  0  0  0
   46.3320   31.3680   46.4330 C   0  0  0  0  0  0  0  0  0  0  0  0
   45.7520   31.4570   47.6680 C   0  0  0  0  0  0  0  0  0  0  0  0
   45.8540   30.5440   48.5040 O   0  0  0  0  0  0  0  0  0  0  0  0
   45.0610   32.5800   47.9480 N   0  0  0  0  0  0  0  0  0  0  0  0
   44.9580   33.5620   47.0360 C   0  0  0  0  0  0  0  0  0  0  0  0
   44.2360   34.7600   47.2990 N   0  0  0  0  0  0  0  0  0  0  0  0
   45.5400   33.4610   45.8110 N   0  0  0  0  0  0  0  0  0  0  0  0
   46.2490   32.3540   45.4710 C   0  0  0  0  0  0  0  0  0  0  0  0
   49.3450   35.4790   42.1660 C   0  0  0  0  0  0  0  0  0  0  0  0
   49.3350   36.4420   41.3710 O   0  0  0  0  0  0  0  0  0  0  0  0
   50.3890   35.2940   43.0800 O   0  0  0  0  0  0  0  0  0  0  0  0
   47.6131   35.1332   40.1626 H   0  0  0  0  0  0  0  0  0  0  0  0
   45.7025   33.4593   40.1426 H   0  0  0  0  0  0  0  0  0  0  0  0
   48.0279   30.2131   43.8705 H   0  0  0  0  0  0  0  0  0  0  0  0
   44.6087   32.6863   48.8673 H   0  0  0  0  0  0  0  0  0  0  0  0
   44.1759   35.4938   46.5787 H   0  0  0  0  0  0  0  0  0  0  0  0
   43.7736   34.8932   48.2097 H   0  0  0  0  0  0  0  0  0  0  0  0
   51.1434   35.9346   43.1061 H   0  0  0  0  0  0  0  0  0  0  0  0
  1 18  1  0
  1  6  2  0
  2  1  1  0
  3  2  2  0
  3  4  1  0
  4  5  2  0
  5  6  1  0
  5  7  1  0
  7  8  1  0
  7 17  1  0
  8  9  2  0
  9 10  1  0
 10 11  1  0
 11 13  1  0
 11 12  2  0
 14 15  1  0
 14 13  1  0
 16 14  2  0
 17 16  1  0
 17 10  2  0
 18 20  1  0
 19 18  2  0
  2 21  1  0
  3 22  1  0
  8 23  1  0
 13 24  1  0
 15 25  1  0
 15 26  1  0
 20 27  1  0
M  ISO  5  21  14  22  14  23  14  24   9  27   3
M  END
>  <minimizedAffinity>  (1) 
-6.62803173

>  <minimizedRMSD>  (1) 
1.56384504

$$$$
