
     RDKit          3D

 24 25  0  0  0  0  0  0  0  0999 V2000
   47.8940   34.6700   42.3770 C   0  0  0  0  0  0  0  0  0  0  0  0
   47.0550   34.4210   41.2780 C   0  0  0  0  0  0  0  0  0  0  0  0
   45.8540   33.7360   41.4730 C   0  0  0  0  0  0  0  0  0  0  0  0
   45.5480   33.3340   42.7370 N   0  0  0  0  0  0  0  0  0  0  0  0
   46.3810   33.5900   43.7770 C   0  0  0  0  0  0  0  0  0  0  0  0
   47.5190   34.2420   43.5780 N   0  0  0  0  0  0  0  0  0  0  0  0
   46.1110   33.1930   45.1160 N   0  0  0  0  0  0  0  0  0  0  0  0
   46.6690   32.0450   45.5390 C   0  0  0  0  0  0  0  0  0  0  0  0
   46.4110   31.6560   46.8350 C   0  0  0  0  0  0  0  0  0  0  0  0
   45.5990   32.5070   47.5500 C   0  0  0  0  0  0  0  0  0  0  0  0
   45.2830   32.1850   48.8910 N   0  0  0  0  0  0  0  0  0  0  0  0
   45.0520   33.6550   47.1050 N   0  0  0  0  0  0  0  0  0  0  0  0
   45.3190   34.0220   45.8190 C   0  0  0  0  0  0  0  0  0  0  0  0
   44.8540   35.0740   45.3160 O   0  0  0  0  0  0  0  0  0  0  0  0
   49.1350   35.3810   42.1570 C   0  0  0  0  0  0  0  0  0  0  0  0
   49.2310   36.1730   41.1710 O   0  0  0  0  0  0  0  0  0  0  0  0
   50.1840   35.1580   43.0520 O   0  0  0  0  0  0  0  0  0  0  0  0
   47.3418   34.7627   40.2725 H   0  0  0  0  0  0  0  0  0  0  0  0
   45.1765   33.5278   40.6318 H   0  0  0  0  0  0  0  0  0  0  0  0
   47.3061   31.4406   44.8765 H   0  0  0  0  0  0  0  0  0  0  0  0
   46.8238   30.7325   47.2671 H   0  0  0  0  0  0  0  0  0  0  0  0
   44.6769   32.8098   49.4416 H   0  0  0  0  0  0  0  0  0  0  0  0
   45.6591   31.3258   49.3167 H   0  0  0  0  0  0  0  0  0  0  0  0
   51.0467   35.6282   42.9306 H   0  0  0  0  0  0  0  0  0  0  0  0
  1  6  2  0
  2  3  2  0
  2  1  1  0
  3  4  1  0
  4  5  2  0
  5  7  1  0
  6  5  1  0
  7  8  1  0
  7 13  1  0
  8  9  2  0
  9 10  1  0
 10 11  1  0
 12 10  2  0
 13 12  1  0
 14 13  2  0
 15  1  1  0
 15 17  1  0
 16 15  2  0
  2 18  1  0
  3 19  1  0
  8 20  1  0
  9 21  1  0
 11 22  1  0
 11 23  1  0
 17 24  1  0
M  ISO  5  18  14  19  14  20  14  21  14  24   3
M  END
>  <minimizedAffinity>  (1) 
-6.03944111

>  <minimizedRMSD>  (1) 
0.57350719

$$$$
