
     RDKit          3D

 31 33  0  0  0  0  0  0  0  0999 V2000
   47.8230   34.8360   41.5810 C   0  0  0  0  0  0  0  0  0  0  0  0
   47.5520   34.3590   40.2060 C   0  0  0  0  0  0  0  0  0  0  0  0
   48.3910   34.5890   39.1360 C   0  0  0  0  0  0  0  0  0  0  0  0
   48.1950   34.1680   37.8450 C   0  0  0  0  0  0  0  0  0  0  0  0
   47.0620   33.4590   37.6270 N   0  0  0  0  0  0  0  0  0  0  0  0
   46.2050   33.2140   38.6720 C   0  0  0  0  0  0  0  0  0  0  0  0
   46.4200   33.6410   39.9360 N   0  0  0  0  0  0  0  0  0  0  0  0
   44.9920   32.4460   38.3960 C   0  0  0  0  0  0  0  0  0  0  0  0
   43.7150   32.9470   38.2420 C   0  0  0  0  0  0  0  0  0  0  0  0
   42.8370   31.9170   37.9920 C   0  0  0  0  0  0  0  0  0  0  0  0
   43.6000   30.8020   37.9980 N   0  0  0  0  0  0  0  0  0  0  0  0
   44.8630   31.1150   38.2350 N   0  0  0  0  0  0  0  0  0  0  0  0
   47.3030   33.8150   42.5610 C   0  0  0  0  0  0  0  0  0  0  0  0
   44.6930   36.0120   44.1980 C   0  0  0  0  0  0  0  0  0  0  0  0
   45.5880   35.5160   43.2450 C   0  0  0  0  0  0  0  0  0  0  0  0
   46.3350   34.3880   43.5220 C   0  0  0  0  0  0  0  0  0  0  0  0
   46.1640   33.7940   44.7390 N   0  0  0  0  0  0  0  0  0  0  0  0
   45.2830   34.3020   45.6460 C   0  0  0  0  0  0  0  0  0  0  0  0
   44.5670   35.3920   45.3680 N   0  0  0  0  0  0  0  0  0  0  0  0
   47.3155   35.7980   41.7453 H   0  0  0  0  0  0  0  0  0  0  0  0
   48.9053   34.9725   41.7226 H   0  0  0  0  0  0  0  0  0  0  0  0
   49.3058   35.1658   39.3370 H   0  0  0  0  0  0  0  0  0  0  0  0
   48.9108   34.3916   37.0402 H   0  0  0  0  0  0  0  0  0  0  0  0
   43.4403   34.0100   38.3090 H   0  0  0  0  0  0  0  0  0  0  0  0
   41.7521   31.9864   37.8241 H   0  0  0  0  0  0  0  0  0  0  0  0
   43.2489   29.8465   37.8408 H   0  0  0  0  0  0  0  0  0  0  0  0
   46.8070   33.0093   41.9999 H   0  0  0  0  0  0  0  0  0  0  0  0
   48.1616   33.4401   43.1375 H   0  0  0  0  0  0  0  0  0  0  0  0
   44.0962   36.9103   43.9812 H   0  0  0  0  0  0  0  0  0  0  0  0
   45.6970   36.0239   42.2754 H   0  0  0  0  0  0  0  0  0  0  0  0
   45.1609   33.8063   46.6204 H   0  0  0  0  0  0  0  0  0  0  0  0
  1 13  1  0
  2  1  1  0
  3  2  2  0
  4  3  1  0
  5  4  2  0
  5  6  1  0
  6  7  2  0
  7  2  1  0
  8  6  1  0
  9  8  1  0
 10 11  1  0
 10  9  2  0
 11 12  1  0
 12  8  2  0
 13 16  1  0
 14 19  2  0
 15 16  2  0
 15 14  1  0
 16 17  1  0
 17 18  2  0
 19 18  1  0
  1 20  1  0
  1 21  1  0
  3 22  1  0
  4 23  1  0
  9 24  1  0
 10 25  1  0
 11 26  1  0
 13 27  1  0
 13 28  1  0
 14 29  1  0
 15 30  1  0
 18 31  1  0
M  ISO  8  20   8  21   8  22  14  23  14  24  14  25  14  26   9  27   8
M  ISO  4  28   8  29  14  30  14  31  14
M  END
>  <minimizedAffinity>  (1) 
-4.60034609

>  <minimizedRMSD>  (1) 
0.202062786

$$$$
