
     RDKit          3D

 27 29  0  0  0  0  0  0  0  0999 V2000
   47.5530   34.7100   42.5230 C   0  0  0  0  0  0  0  0  0  0  0  0
   46.6230   34.4700   41.4930 C   0  0  0  0  0  0  0  0  0  0  0  0
   45.3510   33.9940   41.8770 C   0  0  0  0  0  0  0  0  0  0  0  0
   45.1040   33.7970   43.2040 N   0  0  0  0  0  0  0  0  0  0  0  0
   46.0310   34.0430   44.1450 C   0  0  0  0  0  0  0  0  0  0  0  0
   47.2320   34.4910   43.8050 N   0  0  0  0  0  0  0  0  0  0  0  0
   45.6360   33.7900   45.5260 C   0  0  0  0  0  0  0  0  0  0  0  0
   44.7190   34.5390   46.2320 C   0  0  0  0  0  0  0  0  0  0  0  0
   44.5740   34.0540   47.4790 N   0  0  0  0  0  0  0  0  0  0  0  0
   45.3960   32.9760   47.6070 C   0  0  0  0  0  0  0  0  0  0  0  0
   45.5900   32.1580   48.6940 C   0  0  0  0  0  0  0  0  0  0  0  0
   46.4900   31.1240   48.5570 C   0  0  0  0  0  0  0  0  0  0  0  0
   47.1620   30.9470   47.3440 C   0  0  0  0  0  0  0  0  0  0  0  0
   46.9470   31.7900   46.2570 C   0  0  0  0  0  0  0  0  0  0  0  0
   46.0520   32.8050   46.4140 C   0  0  0  0  0  0  0  0  0  0  0  0
   48.8650   35.2010   42.1250 C   0  0  0  0  0  0  0  0  0  0  0  0
   49.0420   35.7280   41.0090 O   0  0  0  0  0  0  0  0  0  0  0  0
   49.9200   35.0740   43.0070 O   0  0  0  0  0  0  0  0  0  0  0  0
   46.8765   34.6456   40.4371 H   0  0  0  0  0  0  0  0  0  0  0  0
   44.5767   33.7867   41.1236 H   0  0  0  0  0  0  0  0  0  0  0  0
   44.1810   35.4111   45.8321 H   0  0  0  0  0  0  0  0  0  0  0  0
   43.9514   34.4314   48.2076 H   0  0  0  0  0  0  0  0  0  0  0  0
   45.0478   32.3224   49.6368 H   0  0  0  0  0  0  0  0  0  0  0  0
   46.6790   30.4408   49.3982 H   0  0  0  0  0  0  0  0  0  0  0  0
   47.8800   30.1194   47.2457 H   0  0  0  0  0  0  0  0  0  0  0  0
   47.4802   31.6419   45.3063 H   0  0  0  0  0  0  0  0  0  0  0  0
   50.8191   35.4020   42.7538 H   0  0  0  0  0  0  0  0  0  0  0  0
  1  6  2  0
  2  3  2  0
  2  1  1  0
  3  4  1  0
  4  5  2  0
  5  7  1  0
  6  5  1  0
  7  8  2  0
  7 15  1  0
  8  9  1  0
  9 10  1  0
 10 11  2  0
 12 11  1  0
 13 12  2  0
 14 15  2  0
 14 13  1  0
 15 10  1  0
 16  1  1  0
 16 18  1  0
 17 16  2  0
  2 19  1  0
  3 20  1  0
  8 21  1  0
  9 22  1  0
 11 23  1  0
 12 24  1  0
 13 25  1  0
 14 26  1  0
 18 27  1  0
M  ISO  8  19  14  20  14  21  14  22   9  23  14  24  14  25  14  26  14
M  ISO  1  27   3
M  END
>  <minimizedAffinity>  (1) 
-6.24270248

>  <minimizedRMSD>  (1) 
1.61035979

$$$$
