
     RDKit          3D

 26 27  0  0  0  0  0  0  0  0999 V2000
   47.6800   34.7420   42.5780 C   0  0  0  0  0  0  0  0  0  0  0  0
   46.5870   34.7870   41.7150 C   0  0  0  0  0  0  0  0  0  0  0  0
   45.3550   34.3280   42.1830 C   0  0  0  0  0  0  0  0  0  0  0  0
   45.2790   33.8570   43.4630 N   0  0  0  0  0  0  0  0  0  0  0  0
   46.3610   33.8330   44.2570 C   0  0  0  0  0  0  0  0  0  0  0  0
   47.5580   34.2690   43.8300 N   0  0  0  0  0  0  0  0  0  0  0  0
   46.1130   33.3130   45.5580 N   0  0  0  0  0  0  0  0  0  0  0  0
   46.7860   32.2080   45.9930 C   0  0  0  0  0  0  0  0  0  0  0  0
   46.5660   31.6820   47.2470 C   0  0  0  0  0  0  0  0  0  0  0  0
   47.2870   30.4730   47.7540 C   0  0  0  0  0  0  0  0  0  0  0  0
   45.6260   32.3350   48.0450 C   0  0  0  0  0  0  0  0  0  0  0  0
   45.3680   31.9150   49.2060 O   0  0  0  0  0  0  0  0  0  0  0  0
   44.9720   33.4270   47.5920 N   0  0  0  0  0  0  0  0  0  0  0  0
   45.2130   33.9120   46.3600 C   0  0  0  0  0  0  0  0  0  0  0  0
   44.5590   34.9380   46.0100 O   0  0  0  0  0  0  0  0  0  0  0  0
   48.9660   35.2190   42.0960 C   0  0  0  0  0  0  0  0  0  0  0  0
   49.0540   35.7050   40.9320 O   0  0  0  0  0  0  0  0  0  0  0  0
   50.0910   35.1430   42.9060 O   0  0  0  0  0  0  0  0  0  0  0  0
   46.6925   35.1744   40.6909 H   0  0  0  0  0  0  0  0  0  0  0  0
   44.4655   34.3451   41.5360 H   0  0  0  0  0  0  0  0  0  0  0  0
   47.5192   31.7276   45.3284 H   0  0  0  0  0  0  0  0  0  0  0  0
   47.2837   30.4785   48.8540 H   0  0  0  0  0  0  0  0  0  0  0  0
   46.7823   29.5658   47.3904 H   0  0  0  0  0  0  0  0  0  0  0  0
   48.3251   30.4858   47.3904 H   0  0  0  0  0  0  0  0  0  0  0  0
   44.2809   33.8937   48.1966 H   0  0  0  0  0  0  0  0  0  0  0  0
   50.9641   35.4694   42.5724 H   0  0  0  0  0  0  0  0  0  0  0  0
  1  6  2  0
  2  3  2  0
  2  1  1  0
  3  4  1  0
  4  5  2  0
  5  7  1  0
  6  5  1  0
  7  8  1  0
  7 14  1  0
  8  9  2  0
  9 10  1  0
  9 11  1  0
 11 12  2  0
 13 11  1  0
 14 13  1  0
 15 14  2  0
 16  1  1  0
 16 18  1  0
 17 16  2  0
  2 19  1  0
  3 20  1  0
  8 21  1  0
 10 22  1  0
 10 23  1  0
 10 24  1  0
 13 25  1  0
 18 26  1  0
M  ISO  8  19  14  20  14  21  14  22   8  23   8  24   8  25   9  26   3
M  END
>  <minimizedAffinity>  (1) 
-6.49516678

>  <minimizedRMSD>  (1) 
1.3178097

$$$$
