
     RDKit          3D

 32 35  0  0  0  0  0  0  0  0999 V2000
   47.4330   29.5570   46.1280 C   0  0  0  0  0  0  0  0  0  0  0  0
   48.5710   28.9730   46.5690 N   0  0  0  0  0  0  0  0  0  0  0  0
   48.2400   27.9040   47.2390 O   0  0  0  0  0  0  0  0  0  0  0  0
   46.9330   27.7520   47.2640 C   0  0  0  0  0  0  0  0  0  0  0  0
   46.4030   28.7890   46.5650 N   0  0  0  0  0  0  0  0  0  0  0  0
   44.6010   35.6310   45.2000 C   0  0  0  0  0  0  0  0  0  0  0  0
   44.5490   36.2450   43.9270 C   0  0  0  0  0  0  0  0  0  0  0  0
   45.2060   35.6310   42.8530 C   0  0  0  0  0  0  0  0  0  0  0  0
   45.8510   34.4630   43.1580 N   0  0  0  0  0  0  0  0  0  0  0  0
   45.8990   33.8900   44.3500 C   0  0  0  0  0  0  0  0  0  0  0  0
   45.2770   34.4870   45.3270 N   0  0  0  0  0  0  0  0  0  0  0  0
   46.5870   32.6850   44.5740 N   0  0  0  0  0  0  0  0  0  0  0  0
   47.6500   32.2510   43.8170 C   0  0  0  0  0  0  0  0  0  0  0  0
   48.0680   31.0790   44.2940 N   0  0  0  0  0  0  0  0  0  0  0  0
   47.2880   30.7680   45.3390 C   0  0  0  0  0  0  0  0  0  0  0  0
   46.4240   31.7510   45.4670 N   0  0  0  0  0  0  0  0  0  0  0  0
   46.2330   26.6550   47.9330 C   0  0  0  0  0  0  0  0  0  0  0  0
   44.9000   26.7200   48.2610 C   0  0  0  0  0  0  0  0  0  0  0  0
   44.6010   25.4990   48.8750 C   0  0  0  0  0  0  0  0  0  0  0  0
   45.7740   24.7710   48.8810 C   0  0  0  0  0  0  0  0  0  0  0  0
   46.7130   25.5040   48.3070 O   0  0  0  0  0  0  0  0  0  0  0  0
   46.0250   23.3880   49.4180 C   0  0  0  0  0  0  0  0  0  0  0  0
   45.9450   23.4630   51.2180 S   0  0  0  0  0  0  0  0  0  0  0  0
   44.0962   36.0855   46.0652 H   0  0  0  0  0  0  0  0  0  0  0  0
   44.0021   37.1884   43.7828 H   0  0  0  0  0  0  0  0  0  0  0  0
   45.2037   36.0565   41.8386 H   0  0  0  0  0  0  0  0  0  0  0  0
   48.0841   32.7841   42.9583 H   0  0  0  0  0  0  0  0  0  0  0  0
   44.2112   27.5580   48.0786 H   0  0  0  0  0  0  0  0  0  0  0  0
   43.6259   25.1822   49.2735 H   0  0  0  0  0  0  0  0  0  0  0  0
   45.2583   22.6961   49.0392 H   0  0  0  0  0  0  0  0  0  0  0  0
   47.0127   23.0272   49.0951 H   0  0  0  0  0  0  0  0  0  0  0  0
   46.8653   22.6002   51.7524 H   0  0  0  0  0  0  0  0  0  0  0  0
  1  5  1  0
  1  2  2  0
  2  3  1  0
  3  4  1  0
  4 17  1  0
  5  4  2  0
  6 11  2  0
  7  6  1  0
  8  9  1  0
  8  7  2  0
  9 10  2  0
 10 12  1  0
 10 11  1  0
 12 16  1  0
 13 14  2  0
 13 12  1  0
 14 15  1  0
 15 16  2  0
 15  1  1  0
 17 18  2  0
 17 21  1  0
 18 19  1  0
 19 20  2  0
 20 22  1  0
 21 20  1  0
 22 23  1  0
  6 24  1  0
  7 25  1  0
  8 26  1  0
 13 27  1  0
 18 28  1  0
 19 29  1  0
 22 30  1  0
 22 31  1  0
 23 32  1  0
M  ISO  8  24  14  25  14  26  14  27  14  28  14  29  14  30   8  31   8
M  ISO  1  32  11
M  END
>  <minimizedAffinity>  (1) 
-4.6813426

>  <minimizedRMSD>  (1) 
0.694091201

$$$$
