
     RDKit          3D

 26 27  0  0  0  0  0  0  0  0999 V2000
   47.8230   34.6730   42.4590 C   0  0  0  0  0  0  0  0  0  0  0  0
   46.8450   34.6080   41.4710 C   0  0  0  0  0  0  0  0  0  0  0  0
   45.6360   33.9670   41.7880 C   0  0  0  0  0  0  0  0  0  0  0  0
   45.4850   33.4500   43.0310 N   0  0  0  0  0  0  0  0  0  0  0  0
   46.4670   33.5400   43.9570 C   0  0  0  0  0  0  0  0  0  0  0  0
   47.6320   34.1450   43.6850 N   0  0  0  0  0  0  0  0  0  0  0  0
   46.3130   32.9970   45.2680 N   0  0  0  0  0  0  0  0  0  0  0  0
   46.9690   31.7650   45.6920 C   0  0  0  0  0  0  0  0  0  0  0  0
   47.2410   31.8630   47.1590 C   0  0  0  0  0  0  0  0  0  0  0  0
   46.1860   32.1770   47.9450 O   0  0  0  0  0  0  0  0  0  0  0  0
   45.2200   32.9950   47.4690 C   0  0  0  0  0  0  0  0  0  0  0  0
   45.4660   33.7140   46.2060 C   0  0  0  0  0  0  0  0  0  0  0  0
   49.0870   35.3350   42.1480 C   0  0  0  0  0  0  0  0  0  0  0  0
   49.1660   36.0430   41.1100 O   0  0  0  0  0  0  0  0  0  0  0  0
   50.1770   35.1780   42.9900 O   0  0  0  0  0  0  0  0  0  0  0  0
   47.0131   35.0440   40.4752 H   0  0  0  0  0  0  0  0  0  0  0  0
   44.8300   33.8866   41.0437 H   0  0  0  0  0  0  0  0  0  0  0  0
   46.3127   30.9053   45.4914 H   0  0  0  0  0  0  0  0  0  0  0  0
   47.9096   31.6251   45.1391 H   0  0  0  0  0  0  0  0  0  0  0  0
   47.6300   30.8899   47.4933 H   0  0  0  0  0  0  0  0  0  0  0  0
   47.9484   32.6980   47.2707 H   0  0  0  0  0  0  0  0  0  0  0  0
   44.3183   32.3821   47.3233 H   0  0  0  0  0  0  0  0  0  0  0  0
   45.1473   33.7927   48.2229 H   0  0  0  0  0  0  0  0  0  0  0  0
   45.9492   34.6732   46.4435 H   0  0  0  0  0  0  0  0  0  0  0  0
   44.4883   33.8388   45.7176 H   0  0  0  0  0  0  0  0  0  0  0  0
   51.0339   35.6267   42.7793 H   0  0  0  0  0  0  0  0  0  0  0  0
  1  6  2  0
  2  3  2  0
  2  1  1  0
  3  4  1  0
  4  5  2  0
  5  7  1  0
  6  5  1  0
  7  8  1  0
  7 12  1  0
  8  9  1  0
  9 10  1  0
 11 10  1  0
 12 11  1  0
 13  1  1  0
 13 15  1  0
 14 13  2  0
  2 16  1  0
  3 17  1  0
  8 18  1  0
  8 19  1  0
  9 20  1  0
  9 21  1  0
 11 22  1  0
 11 23  1  0
 12 24  1  0
 12 25  1  0
 15 26  1  0
M  ISO  8  16  14  17  14  18  13  19  13  20  13  21  13  22  13  23  13
M  ISO  3  24  13  25  13  26   3
M  END
>  <minimizedAffinity>  (1) 
-4.95760918

>  <minimizedRMSD>  (1) 
0.81696099

$$$$
