
     RDKit          3D

 20 21  0  0  0  0  0  0  0  0999 V2000
   47.7880   34.6440   42.6690 C   0  0  0  0  0  0  0  0  0  0  0  0
   46.6560   34.7670   41.8480 C   0  0  0  0  0  0  0  0  0  0  0  0
   45.4540   34.1920   42.3060 C   0  0  0  0  0  0  0  0  0  0  0  0
   45.4590   33.5500   43.5190 N   0  0  0  0  0  0  0  0  0  0  0  0
   46.5820   33.4650   44.2630 C   0  0  0  0  0  0  0  0  0  0  0  0
   47.7170   34.0030   43.8390 N   0  0  0  0  0  0  0  0  0  0  0  0
   46.5290   32.7690   45.5480 C   0  0  0  0  0  0  0  0  0  0  0  0
   46.0540   31.4900   45.7560 C   0  0  0  0  0  0  0  0  0  0  0  0
   46.1660   31.1990   47.0560 N   0  0  0  0  0  0  0  0  0  0  0  0
   46.7050   32.2860   47.6480 C   0  0  0  0  0  0  0  0  0  0  0  0
   46.9310   33.2500   46.7370 N   0  0  0  0  0  0  0  0  0  0  0  0
   49.0280   35.2400   42.1860 C   0  0  0  0  0  0  0  0  0  0  0  0
   49.0520   35.8170   41.0610 O   0  0  0  0  0  0  0  0  0  0  0  0
   50.1580   35.1470   43.0060 O   0  0  0  0  0  0  0  0  0  0  0  0
   46.7055   35.2927   40.8830 H   0  0  0  0  0  0  0  0  0  0  0  0
   44.5342   34.2561   41.7061 H   0  0  0  0  0  0  0  0  0  0  0  0
   45.6505   30.8215   44.9812 H   0  0  0  0  0  0  0  0  0  0  0  0
   46.9276   32.3714   48.7218 H   0  0  0  0  0  0  0  0  0  0  0  0
   47.3354   34.1801   46.9166 H   0  0  0  0  0  0  0  0  0  0  0  0
   51.0174   35.5400   42.7110 H   0  0  0  0  0  0  0  0  0  0  0  0
  1  6  2  0
  2  3  2  0
  2  1  1  0
  3  4  1  0
  4  5  2  0
  5  7  1  0
  6  5  1  0
  7  8  2  0
  7 11  1  0
  8  9  1  0
  9 10  2  0
 11 10  1  0
 12  1  1  0
 12 14  1  0
 13 12  2  0
  2 15  1  0
  3 16  1  0
  8 17  1  0
 10 18  1  0
 11 19  1  0
 14 20  1  0
M  ISO  6  15  14  16  14  17  14  18  14  19   9  20   3
M  END
>  <minimizedAffinity>  (1) 
-4.88671923

>  <minimizedRMSD>  (1) 
1.22724974

$$$$
