
     RDKit          3D

 27 28  0  0  0  0  0  0  0  0999 V2000
   47.9160   34.6080   42.5170 C   0  0  0  0  0  0  0  0  0  0  0  0
   46.9290   34.6820   41.5120 C   0  0  0  0  0  0  0  0  0  0  0  0
   45.7350   33.9780   41.7400 C   0  0  0  0  0  0  0  0  0  0  0  0
   45.5930   33.2680   42.9020 N   0  0  0  0  0  0  0  0  0  0  0  0
   46.5700   33.2380   43.8200 C   0  0  0  0  0  0  0  0  0  0  0  0
   47.7050   33.8960   43.6260 N   0  0  0  0  0  0  0  0  0  0  0  0
   46.3900   32.4920   45.0160 N   0  0  0  0  0  0  0  0  0  0  0  0
   46.7340   32.9970   46.3310 C   0  0  0  0  0  0  0  0  0  0  0  0
   45.5230   32.7510   47.2040 C   0  0  0  0  0  0  0  0  0  0  0  0
   45.2020   31.3610   47.3070 N   0  0  0  0  0  0  0  0  0  0  0  0
   45.8580   30.5170   46.3350 C   0  0  0  0  0  0  0  0  0  0  0  0
   45.8370   31.1510   44.9820 C   0  0  0  0  0  0  0  0  0  0  0  0
   49.1550   35.3340   42.2910 C   0  0  0  0  0  0  0  0  0  0  0  0
   49.2530   36.1470   41.3440 O   0  0  0  0  0  0  0  0  0  0  0  0
   50.2220   35.1050   43.1470 O   0  0  0  0  0  0  0  0  0  0  0  0
   47.0870   35.2641   40.5921 H   0  0  0  0  0  0  0  0  0  0  0  0
   44.9255   33.9969   40.9954 H   0  0  0  0  0  0  0  0  0  0  0  0
   47.6076   32.4604   46.7297 H   0  0  0  0  0  0  0  0  0  0  0  0
   46.9944   34.0652   46.2962 H   0  0  0  0  0  0  0  0  0  0  0  0
   45.7276   33.1425   48.2114 H   0  0  0  0  0  0  0  0  0  0  0  0
   44.6653   33.2613   46.7415 H   0  0  0  0  0  0  0  0  0  0  0  0
   45.4722   31.0380   48.2470 H   0  0  0  0  0  0  0  0  0  0  0  0
   46.9021   30.3572   46.6423 H   0  0  0  0  0  0  0  0  0  0  0  0
   45.3231   29.5572   46.2831 H   0  0  0  0  0  0  0  0  0  0  0  0
   44.7971   31.2018   44.6269 H   0  0  0  0  0  0  0  0  0  0  0  0
   46.4520   30.5405   44.3045 H   0  0  0  0  0  0  0  0  0  0  0  0
   51.0761   35.5874   43.0134 H   0  0  0  0  0  0  0  0  0  0  0  0
  1  6  2  0
  2  3  2  0
  2  1  1  0
  3  4  1  0
  4  5  2  0
  5  7  1  0
  6  5  1  0
  7  8  1  0
  8  9  1  0
  9 10  1  0
 11 10  1  0
 12  7  1  0
 12 11  1  0
 13  1  1  0
 13 15  1  0
 14 13  2  0
  2 16  1  0
  3 17  1  0
  8 18  1  0
  8 19  1  0
  9 20  1  0
  9 21  1  0
 10 22  1  0
 11 23  1  0
 11 24  1  0
 12 25  1  0
 12 26  1  0
 15 27  1  0
M  ISO  8  16  14  17  14  18  13  19  13  20  13  21  13  22   5  23  13
M  ISO  4  24  13  25  13  26  13  27   3
M  END
>  <minimizedAffinity>  (1) 
-5.0847106

>  <minimizedRMSD>  (1) 
0.87183702

$$$$
