
     RDKit          3D

 27 28  0  0  0  0  0  0  0  0999 V2000
   47.7600   34.7750   41.5620 C   0  0  0  0  0  0  0  0  0  0  0  0
   47.5300   34.3430   40.1660 C   0  0  0  0  0  0  0  0  0  0  0  0
   48.4010   34.6260   39.1340 C   0  0  0  0  0  0  0  0  0  0  0  0
   48.2550   34.2480   37.8230 C   0  0  0  0  0  0  0  0  0  0  0  0
   47.1390   33.5310   37.5540 N   0  0  0  0  0  0  0  0  0  0  0  0
   46.2520   33.2330   38.5600 C   0  0  0  0  0  0  0  0  0  0  0  0
   46.4110   33.6130   39.8440 N   0  0  0  0  0  0  0  0  0  0  0  0
   45.0530   32.4580   38.2520 C   0  0  0  0  0  0  0  0  0  0  0  0
   44.8240   31.3210   38.7240 O   0  0  0  0  0  0  0  0  0  0  0  0
   44.0670   32.9410   37.3960 O   0  0  0  0  0  0  0  0  0  0  0  0
   47.1540   33.7500   42.4910 C   0  0  0  0  0  0  0  0  0  0  0  0
   44.6820   36.0340   44.2100 C   0  0  0  0  0  0  0  0  0  0  0  0
   45.5180   35.5100   43.2240 C   0  0  0  0  0  0  0  0  0  0  0  0
   46.2320   34.3550   43.4790 C   0  0  0  0  0  0  0  0  0  0  0  0
   46.0960   33.7640   44.6920 N   0  0  0  0  0  0  0  0  0  0  0  0
   45.2710   34.2890   45.6510 C   0  0  0  0  0  0  0  0  0  0  0  0
   44.5850   35.4050   45.3990 N   0  0  0  0  0  0  0  0  0  0  0  0
   47.2857   35.7532   41.7299 H   0  0  0  0  0  0  0  0  0  0  0  0
   48.8394   34.8640   41.7543 H   0  0  0  0  0  0  0  0  0  0  0  0
   49.2981   35.2104   39.3863 H   0  0  0  0  0  0  0  0  0  0  0  0
   48.9907   34.5085   37.0478 H   0  0  0  0  0  0  0  0  0  0  0  0
   43.2648   32.3930   37.2058 H   0  0  0  0  0  0  0  0  0  0  0  0
   46.5959   33.0163   41.8909 H   0  0  0  0  0  0  0  0  0  0  0  0
   47.9760   33.2760   43.0475 H   0  0  0  0  0  0  0  0  0  0  0  0
   44.1069   36.9521   44.0194 H   0  0  0  0  0  0  0  0  0  0  0  0
   45.6082   36.0130   42.2499 H   0  0  0  0  0  0  0  0  0  0  0  0
   45.1743   33.7913   46.6272 H   0  0  0  0  0  0  0  0  0  0  0  0
  1 11  1  0
  2  1  1  0
  3  2  2  0
  4  3  1  0
  5  4  2  0
  5  6  1  0
  6  7  2  0
  7  2  1  0
  8  6  1  0
  8  9  2  0
 10  8  1  0
 11 14  1  0
 12 17  2  0
 13 14  2  0
 13 12  1  0
 14 15  1  0
 15 16  2  0
 17 16  1  0
  1 18  1  0
  1 19  1  0
  3 20  1  0
  4 21  1  0
 10 22  1  0
 11 23  1  0
 11 24  1  0
 12 25  1  0
 13 26  1  0
 16 27  1  0
M  ISO  8  18   8  19   8  20  14  21  14  22   3  23   8  24   8  25  14
M  ISO  2  26  14  27  14
M  END
>  <minimizedAffinity>  (1) 
-4.52210331

>  <minimizedRMSD>  (1) 
0.186689526

$$$$
