
     RDKit          3D

 20 21  0  0  0  0  0  0  0  0999 V2000
   47.5570   34.6790   42.5510 C   0  0  0  0  0  0  0  0  0  0  0  0
   46.6320   34.5610   41.4930 C   0  0  0  0  0  0  0  0  0  0  0  0
   45.3550   34.0540   41.7930 C   0  0  0  0  0  0  0  0  0  0  0  0
   45.0890   33.7030   43.0940 N   0  0  0  0  0  0  0  0  0  0  0  0
   46.0170   33.8380   44.0630 C   0  0  0  0  0  0  0  0  0  0  0  0
   47.2180   34.3160   43.7840 N   0  0  0  0  0  0  0  0  0  0  0  0
   45.7520   33.4720   45.4510 C   0  0  0  0  0  0  0  0  0  0  0  0
   46.1230   32.4240   46.2960 C   0  0  0  0  0  0  0  0  0  0  0  0
   45.5010   32.7060   47.5150 C   0  0  0  0  0  0  0  0  0  0  0  0
   44.8060   33.8540   47.3840 N   0  0  0  0  0  0  0  0  0  0  0  0
   44.9550   34.3110   46.1560 N   0  0  0  0  0  0  0  0  0  0  0  0
   48.8740   35.2050   42.2230 C   0  0  0  0  0  0  0  0  0  0  0  0
   49.0610   35.8210   41.1350 O   0  0  0  0  0  0  0  0  0  0  0  0
   49.9030   35.0010   43.1500 O   0  0  0  0  0  0  0  0  0  0  0  0
   46.9003   34.8556   40.4677 H   0  0  0  0  0  0  0  0  0  0  0  0
   44.5917   33.9419   41.0089 H   0  0  0  0  0  0  0  0  0  0  0  0
   46.7649   31.5640   46.0546 H   0  0  0  0  0  0  0  0  0  0  0  0
   45.5671   32.0949   48.4272 H   0  0  0  0  0  0  0  0  0  0  0  0
   44.2480   34.3023   48.1246 H   0  0  0  0  0  0  0  0  0  0  0  0
   50.8128   35.3437   42.9631 H   0  0  0  0  0  0  0  0  0  0  0  0
  1  6  2  0
  2  3  2  0
  2  1  1  0
  3  4  1  0
  4  5  2  0
  5  7  1  0
  6  5  1  0
  7 11  2  0
  7  8  1  0
  8  9  2  0
 10  9  1  0
 11 10  1  0
 12  1  1  0
 12 14  1  0
 13 12  2  0
  2 15  1  0
  3 16  1  0
  8 17  1  0
  9 18  1  0
 10 19  1  0
 14 20  1  0
M  ISO  6  15  14  16  14  17  14  18  14  19   9  20   3
M  END
>  <minimizedAffinity>  (1) 
-5.16025162

>  <minimizedRMSD>  (1) 
1.05978894

$$$$
