
     RDKit          3D

 21 22  0  0  0  0  0  0  0  0999 V2000
   47.8410   34.6560   42.4090 C   0  0  0  0  0  0  0  0  0  0  0  0
   46.9380   34.6820   41.3430 C   0  0  0  0  0  0  0  0  0  0  0  0
   45.7140   34.0060   41.5270 C   0  0  0  0  0  0  0  0  0  0  0  0
   45.4750   33.3770   42.7020 N   0  0  0  0  0  0  0  0  0  0  0  0
   46.3950   33.3910   43.6970 C   0  0  0  0  0  0  0  0  0  0  0  0
   47.5760   34.0210   43.5680 N   0  0  0  0  0  0  0  0  0  0  0  0
   46.1350   32.7120   44.9610 C   0  0  0  0  0  0  0  0  0  0  0  0
   45.7990   33.4730   46.0820 C   0  0  0  0  0  0  0  0  0  0  0  0
   45.5550   32.8410   47.2700 C   0  0  0  0  0  0  0  0  0  0  0  0
   45.6290   31.5030   47.3900 N   0  0  0  0  0  0  0  0  0  0  0  0
   45.9560   30.7720   46.2970 C   0  0  0  0  0  0  0  0  0  0  0  0
   46.2000   31.3700   45.1180 N   0  0  0  0  0  0  0  0  0  0  0  0
   49.1150   35.3530   42.2330 C   0  0  0  0  0  0  0  0  0  0  0  0
   49.2590   36.1670   41.2990 O   0  0  0  0  0  0  0  0  0  0  0  0
   50.1590   35.0960   43.1180 O   0  0  0  0  0  0  0  0  0  0  0  0
   47.1710   35.2054   40.4040 H   0  0  0  0  0  0  0  0  0  0  0  0
   44.9617   33.9899   40.7247 H   0  0  0  0  0  0  0  0  0  0  0  0
   45.7313   34.5686   46.0106 H   0  0  0  0  0  0  0  0  0  0  0  0
   45.2909   33.4432   48.1518 H   0  0  0  0  0  0  0  0  0  0  0  0
   46.0226   29.6768   46.3753 H   0  0  0  0  0  0  0  0  0  0  0  0
   51.0260   35.5614   43.0093 H   0  0  0  0  0  0  0  0  0  0  0  0
  1  6  2  0
  2  3  2  0
  2  1  1  0
  3  4  1  0
  4  5  2  0
  5  7  1  0
  6  5  1  0
  7 12  1  0
  7  8  2  0
  8  9  1  0
  9 10  2  0
 11 10  1  0
 12 11  2  0
 13  1  1  0
 13 15  1  0
 14 13  2  0
  2 16  1  0
  3 17  1  0
  8 18  1  0
  9 19  1  0
 11 20  1  0
 15 21  1  0
M  ISO  6  16  14  17  14  18  14  19  14  20  14  21   3
M  END
>  <minimizedAffinity>  (1) 
-4.78679943

>  <minimizedRMSD>  (1) 
0.881060779

$$$$
