
     RDKit          3D

 26 27  0  0  0  0  0  0  0  0999 V2000
   47.9670   34.7060   42.3330 C   0  0  0  0  0  0  0  0  0  0  0  0
   47.1880   34.6410   41.1590 C   0  0  0  0  0  0  0  0  0  0  0  0
   45.9700   33.9430   41.2230 C   0  0  0  0  0  0  0  0  0  0  0  0
   45.6030   33.3700   42.3990 N   0  0  0  0  0  0  0  0  0  0  0  0
   46.3720   33.4520   43.4980 C   0  0  0  0  0  0  0  0  0  0  0  0
   47.5240   34.1110   43.4410 N   0  0  0  0  0  0  0  0  0  0  0  0
   45.9570   32.8240   44.7600 C   0  0  0  0  0  0  0  0  0  0  0  0
   47.0480   32.0060   45.4230 C   0  0  0  0  0  0  0  0  0  0  0  0
   46.3010   31.6590   46.7200 C   0  0  0  0  0  0  0  0  0  0  0  0
   45.4910   32.9050   47.0390 C   0  0  0  0  0  0  0  0  0  0  0  0
   45.6700   33.8340   45.8530 C   0  0  0  0  0  0  0  0  0  0  0  0
   49.2300   35.4230   42.2890 C   0  0  0  0  0  0  0  0  0  0  0  0
   49.3770   36.3470   41.4630 O   0  0  0  0  0  0  0  0  0  0  0  0
   50.2330   35.0640   43.1610 O   0  0  0  0  0  0  0  0  0  0  0  0
   47.5219   35.1196   40.2266 H   0  0  0  0  0  0  0  0  0  0  0  0
   45.3246   33.8619   40.3359 H   0  0  0  0  0  0  0  0  0  0  0  0
   45.0877   32.2311   44.4395 H   0  0  0  0  0  0  0  0  0  0  0  0
   47.3087   31.1101   44.8404 H   0  0  0  0  0  0  0  0  0  0  0  0
   48.0190   32.5080   45.5460 H   0  0  0  0  0  0  0  0  0  0  0  0
   45.6392   30.7937   46.5677 H   0  0  0  0  0  0  0  0  0  0  0  0
   46.9858   31.3855   47.5362 H   0  0  0  0  0  0  0  0  0  0  0  0
   44.4290   32.6484   47.1668 H   0  0  0  0  0  0  0  0  0  0  0  0
   45.8271   33.3760   47.9745 H   0  0  0  0  0  0  0  0  0  0  0  0
   46.5132   34.5248   46.0006 H   0  0  0  0  0  0  0  0  0  0  0  0
   44.8155   34.4976   45.6544 H   0  0  0  0  0  0  0  0  0  0  0  0
   51.0992   35.5430   43.1433 H   0  0  0  0  0  0  0  0  0  0  0  0
  1  6  2  0
  2  3  2  0
  2  1  1  0
  3  4  1  0
  4  5  2  0
  5  7  1  0
  6  5  1  0
  7  8  1  0
  7 11  1  0
  8  9  1  0
  9 10  1  0
 11 10  1  0
 12  1  1  0
 12 14  1  0
 13 12  2  0
  2 15  1  0
  3 16  1  0
  7 17  1  0
  8 18  1  0
  8 19  1  0
  9 20  1  0
  9 21  1  0
 10 22  1  0
 10 23  1  0
 11 24  1  0
 11 25  1  0
 14 26  1  0
M  ISO  8  15  14  16  14  17  13  18  13  19  13  20  13  21  13  22  13
M  ISO  4  23  13  24  13  25  13  26   3
M  END
>  <minimizedAffinity>  (1) 
-4.69224453

>  <minimizedRMSD>  (1) 
0.290689677

$$$$
