
     RDKit          3D

 20 21  0  0  0  0  0  0  0  0999 V2000
   47.8680   34.7190   42.4070 C   0  0  0  0  0  0  0  0  0  0  0  0
   46.9160   34.6510   41.3860 C   0  0  0  0  0  0  0  0  0  0  0  0
   45.6960   33.9990   41.6630 C   0  0  0  0  0  0  0  0  0  0  0  0
   45.5110   33.4760   42.8990 N   0  0  0  0  0  0  0  0  0  0  0  0
   46.4510   33.5620   43.8530 C   0  0  0  0  0  0  0  0  0  0  0  0
   47.6050   34.1760   43.5980 N   0  0  0  0  0  0  0  0  0  0  0  0
   46.1960   32.9930   45.1280 N   0  0  0  0  0  0  0  0  0  0  0  0
   46.5030   31.7560   45.5750 C   0  0  0  0  0  0  0  0  0  0  0  0
   46.0630   31.6270   46.8970 C   0  0  0  0  0  0  0  0  0  0  0  0
   45.4920   32.7970   47.2290 N   0  0  0  0  0  0  0  0  0  0  0  0
   45.5750   33.6050   46.1710 C   0  0  0  0  0  0  0  0  0  0  0  0
   49.1260   35.3870   42.1290 C   0  0  0  0  0  0  0  0  0  0  0  0
   49.2280   36.1290   41.1330 O   0  0  0  0  0  0  0  0  0  0  0  0
   50.2000   35.1850   42.9870 O   0  0  0  0  0  0  0  0  0  0  0  0
   47.1118   35.0920   40.3975 H   0  0  0  0  0  0  0  0  0  0  0  0
   44.9138   33.9172   40.8939 H   0  0  0  0  0  0  0  0  0  0  0  0
   47.0161   30.9758   44.9936 H   0  0  0  0  0  0  0  0  0  0  0  0
   46.1648   30.7400   47.5396 H   0  0  0  0  0  0  0  0  0  0  0  0
   45.1901   34.6351   46.1457 H   0  0  0  0  0  0  0  0  0  0  0  0
   51.0650   35.6334   42.8114 H   0  0  0  0  0  0  0  0  0  0  0  0
  1  6  2  0
  2  3  2  0
  2  1  1  0
  3  4  1  0
  4  5  2  0
  5  7  1  0
  6  5  1  0
  7  8  1  0
  7 11  1  0
  8  9  2  0
  9 10  1  0
 11 10  2  0
 12  1  1  0
 12 14  1  0
 13 12  2  0
  2 15  1  0
  3 16  1  0
  8 17  1  0
  9 18  1  0
 11 19  1  0
 14 20  1  0
M  ISO  6  15  14  16  14  17  14  18  14  19  14  20   3
M  END
>  <minimizedAffinity>  (1) 
-4.79221249

>  <minimizedRMSD>  (1) 
0.64755863

$$$$
