
     RDKit          3D

 16 16  0  0  0  0  0  0  0  0999 V2000
   47.8220   34.6990   42.4450 C   0  0  0  0  0  0  0  0  0  0  0  0
   46.8770   34.6300   41.4180 C   0  0  0  0  0  0  0  0  0  0  0  0
   45.6560   33.9980   41.6770 C   0  0  0  0  0  0  0  0  0  0  0  0
   45.4500   33.4770   42.9310 N   0  0  0  0  0  0  0  0  0  0  0  0
   46.3830   33.5650   43.8910 C   0  0  0  0  0  0  0  0  0  0  0  0
   47.5380   34.1680   43.6300 N   0  0  0  0  0  0  0  0  0  0  0  0
   46.0800   32.9750   45.2200 C   0  0  0  0  0  0  0  0  0  0  0  0
   45.1500   33.7330   45.9300 F   0  0  0  0  0  0  0  0  0  0  0  0
   47.2290   32.8340   45.9880 F   0  0  0  0  0  0  0  0  0  0  0  0
   45.5490   31.7210   45.0620 F   0  0  0  0  0  0  0  0  0  0  0  0
   49.0900   35.3550   42.1800 C   0  0  0  0  0  0  0  0  0  0  0  0
   49.2030   36.1060   41.1730 O   0  0  0  0  0  0  0  0  0  0  0  0
   50.1530   35.1300   43.0580 O   0  0  0  0  0  0  0  0  0  0  0  0
   47.0882   35.0625   40.4289 H   0  0  0  0  0  0  0  0  0  0  0  0
   44.8829   33.9206   40.8984 H   0  0  0  0  0  0  0  0  0  0  0  0
   51.0274   35.5659   42.8986 H   0  0  0  0  0  0  0  0  0  0  0  0
  1  6  2  0
  2  3  2  0
  2  1  1  0
  3  4  1  0
  4  5  2  0
  5  7  1  0
  6  5  1  0
  7  8  1  0
  7  9  1  0
 10  7  1  0
 11  1  1  0
 11 13  1  0
 12 11  2  0
  2 14  1  0
  3 15  1  0
 13 16  1  0
M  ISO  3  14  14  15  14  16   3
M  END
>  <minimizedAffinity>  (1) 
-4.27430058

>  <minimizedRMSD>  (1) 
0.585780978

$$$$
