
     RDKit          3D

 18 19  0  0  0  0  0  0  0  0999 V2000
   47.8760   34.6700   42.3650 C   0  0  0  0  0  0  0  0  0  0  0  0
   47.0480   34.5150   41.2490 C   0  0  0  0  0  0  0  0  0  0  0  0
   45.8450   33.8180   41.4670 C   0  0  0  0  0  0  0  0  0  0  0  0
   45.5450   33.3430   42.7030 N   0  0  0  0  0  0  0  0  0  0  0  0
   46.3900   33.5270   43.7420 C   0  0  0  0  0  0  0  0  0  0  0  0
   47.5410   34.1850   43.5670 N   0  0  0  0  0  0  0  0  0  0  0  0
   46.1220   33.0400   45.0870 C   0  0  0  0  0  0  0  0  0  0  0  0
   45.4800   33.7870   45.9830 N   0  0  0  0  0  0  0  0  0  0  0  0
   45.3710   33.1230   47.0940 O   0  0  0  0  0  0  0  0  0  0  0  0
   45.9180   31.9550   46.9750 C   0  0  0  0  0  0  0  0  0  0  0  0
   46.4050   31.8770   45.7030 N   0  0  0  0  0  0  0  0  0  0  0  0
   49.1410   35.3920   42.1740 C   0  0  0  0  0  0  0  0  0  0  0  0
   49.2620   36.2000   41.2330 O   0  0  0  0  0  0  0  0  0  0  0  0
   50.1840   35.1480   43.0670 O   0  0  0  0  0  0  0  0  0  0  0  0
   47.3204   34.9137   40.2606 H   0  0  0  0  0  0  0  0  0  0  0  0
   45.1455   33.6575   40.6333 H   0  0  0  0  0  0  0  0  0  0  0  0
   45.9782   31.1765   47.7498 H   0  0  0  0  0  0  0  0  0  0  0  0
   51.0472   35.6211   42.9611 H   0  0  0  0  0  0  0  0  0  0  0  0
  1  6  2  0
  2  3  2  0
  2  1  1  0
  3  4  1  0
  4  5  2  0
  5  7  1  0
  6  5  1  0
  7 11  1  0
  7  8  2  0
  8  9  1  0
 10  9  1  0
 11 10  2  0
 12  1  1  0
 12 14  1  0
 13 12  2  0
  2 15  1  0
  3 16  1  0
 10 17  1  0
 14 18  1  0
M  ISO  4  15  14  16  14  17  14  18   3
M  END
>  <minimizedAffinity>  (1) 
-4.63254738

>  <minimizedRMSD>  (1) 
0.455923378

$$$$
