
     RDKit          3D

 19 19  0  0  0  0  0  0  0  0999 V2000
   48.0010   34.8050   42.1780 C   0  0  0  0  0  0  0  0  0  0  0  0
   47.4120   34.5630   40.9400 C   0  0  0  0  0  0  0  0  0  0  0  0
   46.1910   33.8880   40.8860 C   0  0  0  0  0  0  0  0  0  0  0  0
   45.6210   33.4920   42.0630 N   0  0  0  0  0  0  0  0  0  0  0  0
   46.2250   33.7470   43.2370 C   0  0  0  0  0  0  0  0  0  0  0  0
   47.3980   34.3930   43.3100 N   0  0  0  0  0  0  0  0  0  0  0  0
   49.2730   35.5080   42.2270 C   0  0  0  0  0  0  0  0  0  0  0  0
   49.4500   36.4880   41.4460 O   0  0  0  0  0  0  0  0  0  0  0  0
   50.2490   35.0840   43.1240 O   0  0  0  0  0  0  0  0  0  0  0  0
   45.5590   33.2920   44.4930 C   0  0  0  0  0  0  0  0  0  0  0  0
   45.1370   34.5410   45.2410 C   0  0  0  0  0  0  0  0  0  0  0  0
   47.9029   34.8997   40.0150 H   0  0  0  0  0  0  0  0  0  0  0  0
   45.7016   33.6808   39.9229 H   0  0  0  0  0  0  0  0  0  0  0  0
   51.1192   35.5540   43.1673 H   0  0  0  0  0  0  0  0  0  0  0  0
   44.6783   32.6779   44.2538 H   0  0  0  0  0  0  0  0  0  0  0  0
   46.2398   32.6783   45.1012 H   0  0  0  0  0  0  0  0  0  0  0  0
   45.1987   34.3583   46.3240 H   0  0  0  0  0  0  0  0  0  0  0  0
   45.8039   35.3731   44.9709 H   0  0  0  0  0  0  0  0  0  0  0  0
   44.1021   34.7981   44.9709 H   0  0  0  0  0  0  0  0  0  0  0  0
  1  7  1  0
  1  6  2  0
  2  1  1  0
  3  2  2  0
  3  4  1  0
  4  5  2  0
  5  6  1  0
  5 10  1  0
  7  9  1  0
  8  7  2  0
 10 11  1  0
  2 12  1  0
  3 13  1  0
  9 14  1  0
 10 15  1  0
 10 16  1  0
 11 17  1  0
 11 18  1  0
 11 19  1  0
M  ISO  8  12  14  13  14  14   3  15   8  16   8  17   8  18   8  19   8
M  END
>  <minimizedAffinity>  (1) 
-3.97200155

>  <minimizedRMSD>  (1) 
0.32161957

$$$$
