
     RDKit          3D

 16 16  0  0  0  0  0  0  0  0999 V2000
   47.7500   34.6410   42.5940 C   0  0  0  0  0  0  0  0  0  0  0  0
   46.6880   34.6990   41.6860 C   0  0  0  0  0  0  0  0  0  0  0  0
   45.4710   34.1050   42.0720 C   0  0  0  0  0  0  0  0  0  0  0  0
   45.3980   33.5120   43.3000 N   0  0  0  0  0  0  0  0  0  0  0  0
   46.4530   33.4880   44.1290 C   0  0  0  0  0  0  0  0  0  0  0  0
   47.6090   34.0480   43.7730 N   0  0  0  0  0  0  0  0  0  0  0  0
   49.0230   35.2560   42.2050 C   0  0  0  0  0  0  0  0  0  0  0  0
   49.0930   35.8910   41.1130 O   0  0  0  0  0  0  0  0  0  0  0  0
   50.1180   35.1330   43.0320 O   0  0  0  0  0  0  0  0  0  0  0  0
   46.4230   32.8680   45.4470 C   0  0  0  0  0  0  0  0  0  0  0  0
   45.9390   31.7460   45.6980 O   0  0  0  0  0  0  0  0  0  0  0  0
   46.9090   33.3960   46.6150 O   0  0  0  0  0  0  0  0  0  0  0  0
   46.7991   35.1898   40.7078 H   0  0  0  0  0  0  0  0  0  0  0  0
   44.5999   34.1183   41.4004 H   0  0  0  0  0  0  0  0  0  0  0  0
   50.9807   35.5456   42.7758 H   0  0  0  0  0  0  0  0  0  0  0  0
   46.8347   32.8833   47.4586 H   0  0  0  0  0  0  0  0  0  0  0  0
  1  6  2  0
  2  3  2  0
  2  1  1  0
  3  4  1  0
  4  5  2  0
  5 10  1  0
  6  5  1  0
  7  1  1  0
  7  9  1  0
  8  7  2  0
 10 11  2  0
 10 12  1  0
  2 13  1  0
  3 14  1  0
  9 15  1  0
 12 16  1  0
M  ISO  4  13  14  14  14  15   3  16   3
M  END
>  <minimizedAffinity>  (1) 
-4.3992877

>  <minimizedRMSD>  (1) 
0.879809797

$$$$
