
     RDKit          3D

 22 22  0  0  0  0  0  0  0  0999 V2000
   47.8600   34.8910   42.1300 C   0  0  0  0  0  0  0  0  0  0  0  0
   47.3060   34.4950   40.9130 C   0  0  0  0  0  0  0  0  0  0  0  0
   46.0430   33.9010   40.9260 C   0  0  0  0  0  0  0  0  0  0  0  0
   45.4090   33.7350   42.1230 N   0  0  0  0  0  0  0  0  0  0  0  0
   45.9830   34.1350   43.2850 C   0  0  0  0  0  0  0  0  0  0  0  0
   47.1870   34.7000   43.2680 N   0  0  0  0  0  0  0  0  0  0  0  0
   45.2870   33.9540   44.6000 C   0  0  0  0  0  0  0  0  0  0  0  0
   44.7170   35.2600   45.1040 C   0  0  0  0  0  0  0  0  0  0  0  0
   46.2730   33.3580   45.6130 C   0  0  0  0  0  0  0  0  0  0  0  0
   49.1720   35.5090   42.1330 C   0  0  0  0  0  0  0  0  0  0  0  0
   49.4250   36.4150   41.2840 O   0  0  0  0  0  0  0  0  0  0  0  0
   50.1310   35.1060   43.0560 O   0  0  0  0  0  0  0  0  0  0  0  0
   47.8495   34.6466   39.9687 H   0  0  0  0  0  0  0  0  0  0  0  0
   45.5679   33.5731   39.9896 H   0  0  0  0  0  0  0  0  0  0  0  0
   44.4415   33.2633   44.4652 H   0  0  0  0  0  0  0  0  0  0  0  0
   44.7171   35.2599   46.2040 H   0  0  0  0  0  0  0  0  0  0  0  0
   45.3327   36.0946   44.7374 H   0  0  0  0  0  0  0  0  0  0  0  0
   43.6864   35.3760   44.7374 H   0  0  0  0  0  0  0  0  0  0  0  0
   45.9226   33.5698   46.6340 H   0  0  0  0  0  0  0  0  0  0  0  0
   46.3371   32.2698   45.4657 H   0  0  0  0  0  0  0  0  0  0  0  0
   47.2663   33.8071   45.4657 H   0  0  0  0  0  0  0  0  0  0  0  0
   51.0261   35.5290   43.0565 H   0  0  0  0  0  0  0  0  0  0  0  0
  1 10  1  0
  1  6  2  0
  2  3  2  0
  2  1  1  0
  3  4  1  0
  4  5  2  0
  5  7  1  0
  6  5  1  0
  7  8  1  0
  7  9  1  0
 10 12  1  0
 11 10  2  0
  2 13  1  0
  3 14  1  0
  7 15  1  0
  8 16  1  0
  8 17  1  0
  8 18  1  0
  9 19  1  0
  9 20  1  0
  9 21  1  0
 12 22  1  0
M  ISO  8  13  14  14  14  15   8  16   8  17   8  18   8  19   8  20   8
M  ISO  2  21   8  22   3
M  END
>  <minimizedAffinity>  (1) 
-4.37879038

>  <minimizedRMSD>  (1) 
1.39171016

$$$$
