
     RDKit          3D

 19 20  0  0  0  0  0  0  0  0999 V2000
   47.8570   34.6340   42.4900 C   0  0  0  0  0  0  0  0  0  0  0  0
   46.9180   34.6860   41.4650 C   0  0  0  0  0  0  0  0  0  0  0  0
   45.6960   34.0310   41.6520 C   0  0  0  0  0  0  0  0  0  0  0  0
   45.4910   33.3780   42.8230 N   0  0  0  0  0  0  0  0  0  0  0  0
   46.4260   33.3510   43.7880 C   0  0  0  0  0  0  0  0  0  0  0  0
   47.6080   33.9750   43.6300 N   0  0  0  0  0  0  0  0  0  0  0  0
   46.2010   32.6360   45.0690 C   0  0  0  0  0  0  0  0  0  0  0  0
   46.4360   31.2260   45.3100 C   0  0  0  0  0  0  0  0  0  0  0  0
   45.9020   31.1990   47.1310 S   0  0  0  0  0  0  0  0  0  0  0  0
   45.4970   33.0450   47.1460 C   0  0  0  0  0  0  0  0  0  0  0  0
   45.7460   33.5310   45.9510 N   0  0  0  0  0  0  0  0  0  0  0  0
   49.1370   35.3170   42.3010 C   0  0  0  0  0  0  0  0  0  0  0  0
   49.2660   36.1380   41.3480 O   0  0  0  0  0  0  0  0  0  0  0  0
   50.1840   35.0600   43.1620 O   0  0  0  0  0  0  0  0  0  0  0  0
   47.1307   35.2280   40.5317 H   0  0  0  0  0  0  0  0  0  0  0  0
   44.9222   34.0452   40.8703 H   0  0  0  0  0  0  0  0  0  0  0  0
   46.8053   30.4278   44.6494 H   0  0  0  0  0  0  0  0  0  0  0  0
   45.1179   33.6147   48.0073 H   0  0  0  0  0  0  0  0  0  0  0  0
   51.0517   35.5201   43.0374 H   0  0  0  0  0  0  0  0  0  0  0  0
  1  6  2  0
  2  3  2  0
  2  1  1  0
  3  4  1  0
  4  5  2  0
  5  7  1  0
  6  5  1  0
  7  8  2  0
  7 11  1  0
  8  9  1  0
  9 10  1  0
 11 10  2  0
 12  1  1  0
 12 14  1  0
 13 12  2  0
  2 15  1  0
  3 16  1  0
  8 17  1  0
 10 18  1  0
 14 19  1  0
M  ISO  5  15  14  16  14  17  14  18  14  19   3
M  END
>  <minimizedAffinity>  (1) 
-4.4608326

>  <minimizedRMSD>  (1) 
0.849459529

$$$$
