
     RDKit          3D

 20 21  0  0  0  0  0  0  0  0999 V2000
   47.8510   34.6950   42.3950 C   0  0  0  0  0  0  0  0  0  0  0  0
   46.9080   34.6460   41.3700 C   0  0  0  0  0  0  0  0  0  0  0  0
   45.7000   33.9950   41.6100 C   0  0  0  0  0  0  0  0  0  0  0  0
   45.4940   33.4310   42.8460 N   0  0  0  0  0  0  0  0  0  0  0  0
   46.4340   33.5010   43.8110 C   0  0  0  0  0  0  0  0  0  0  0  0
   47.6020   34.1260   43.5910 N   0  0  0  0  0  0  0  0  0  0  0  0
   46.1760   32.8890   45.1110 C   0  0  0  0  0  0  0  0  0  0  0  0
   45.7300   33.5350   46.2470 C   0  0  0  0  0  0  0  0  0  0  0  0
   45.6180   32.5920   47.2530 C   0  0  0  0  0  0  0  0  0  0  0  0
   46.0080   31.4090   46.6580 C   0  0  0  0  0  0  0  0  0  0  0  0
   46.3220   31.6210   45.4200 O   0  0  0  0  0  0  0  0  0  0  0  0
   49.1180   35.3720   42.1620 C   0  0  0  0  0  0  0  0  0  0  0  0
   49.2130   36.1420   41.1600 O   0  0  0  0  0  0  0  0  0  0  0  0
   50.1820   35.1580   43.0390 O   0  0  0  0  0  0  0  0  0  0  0  0
   47.1128   35.1106   40.3942 H   0  0  0  0  0  0  0  0  0  0  0  0
   44.9288   33.9338   40.8280 H   0  0  0  0  0  0  0  0  0  0  0  0
   45.5041   34.6079   46.3361 H   0  0  0  0  0  0  0  0  0  0  0  0
   45.2920   32.7492   48.2918 H   0  0  0  0  0  0  0  0  0  0  0  0
   46.0463   30.4315   47.1610 H   0  0  0  0  0  0  0  0  0  0  0  0
   51.0474   35.6145   42.8880 H   0  0  0  0  0  0  0  0  0  0  0  0
  1  6  2  0
  2  3  2  0
  2  1  1  0
  3  4  1  0
  4  5  2  0
  5  7  1  0
  6  5  1  0
  7 11  1  0
  7  8  2  0
  8  9  1  0
 10  9  2  0
 11 10  1  0
 12  1  1  0
 12 14  1  0
 13 12  2  0
  2 15  1  0
  3 16  1  0
  8 17  1  0
  9 18  1  0
 10 19  1  0
 14 20  1  0
M  ISO  6  15  14  16  14  17  14  18  14  19  14  20   3
M  END
>  <minimizedAffinity>  (1) 
-4.61834717

>  <minimizedRMSD>  (1) 
0.619852126

$$$$
