
     RDKit          3D

 19 20  0  0  0  0  0  0  0  0999 V2000
   47.8190   34.6680   42.4300 C   0  0  0  0  0  0  0  0  0  0  0  0
   46.8910   34.6380   41.3950 C   0  0  0  0  0  0  0  0  0  0  0  0
   45.6750   33.9890   41.6240 C   0  0  0  0  0  0  0  0  0  0  0  0
   45.4690   33.4200   42.8530 N   0  0  0  0  0  0  0  0  0  0  0  0
   46.3980   33.4750   43.8210 C   0  0  0  0  0  0  0  0  0  0  0  0
   47.5620   34.0960   43.6050 N   0  0  0  0  0  0  0  0  0  0  0  0
   46.1480   32.8710   45.0880 N   0  0  0  0  0  0  0  0  0  0  0  0
   46.1590   31.5460   45.3790 C   0  0  0  0  0  0  0  0  0  0  0  0
   45.8730   31.3750   46.6950 N   0  0  0  0  0  0  0  0  0  0  0  0
   45.6940   32.6140   47.1750 C   0  0  0  0  0  0  0  0  0  0  0  0
   45.8620   33.4910   46.1980 N   0  0  0  0  0  0  0  0  0  0  0  0
   49.1040   35.3450   42.2080 C   0  0  0  0  0  0  0  0  0  0  0  0
   49.2080   36.1200   41.2140 O   0  0  0  0  0  0  0  0  0  0  0  0
   50.1610   35.1350   43.0660 O   0  0  0  0  0  0  0  0  0  0  0  0
   47.1075   35.1107   40.4256 H   0  0  0  0  0  0  0  0  0  0  0  0
   44.9052   33.9365   40.8400 H   0  0  0  0  0  0  0  0  0  0  0  0
   46.3668   30.7380   44.6620 H   0  0  0  0  0  0  0  0  0  0  0  0
   45.4463   32.8627   48.2175 H   0  0  0  0  0  0  0  0  0  0  0  0
   51.0239   35.5946   42.9102 H   0  0  0  0  0  0  0  0  0  0  0  0
  1  6  2  0
  2  3  2  0
  2  1  1  0
  3  4  1  0
  4  5  2  0
  5  7  1  0
  6  5  1  0
  7  8  1  0
  7 11  1  0
  8  9  2  0
  9 10  1  0
 11 10  2  0
 12  1  1  0
 12 14  1  0
 13 12  2  0
  2 15  1  0
  3 16  1  0
  8 17  1  0
 10 18  1  0
 14 19  1  0
M  ISO  5  15  14  16  14  17  14  18  14  19   3
M  END
>  <minimizedAffinity>  (1) 
-4.80367279

>  <minimizedRMSD>  (1) 
0.594737053

$$$$
