
     RDKit          3D

 24 25  0  0  0  0  0  0  0  0999 V2000
   47.6890   34.5170   42.9280 C   0  0  0  0  0  0  0  0  0  0  0  0
   46.5490   35.0530   42.3730 C   0  0  0  0  0  0  0  0  0  0  0  0
   45.3060   34.7130   42.9540 C   0  0  0  0  0  0  0  0  0  0  0  0
   45.2940   33.8710   44.0350 N   0  0  0  0  0  0  0  0  0  0  0  0
   46.4470   33.3790   44.5330 C   0  0  0  0  0  0  0  0  0  0  0  0
   47.6130   33.6960   43.9900 N   0  0  0  0  0  0  0  0  0  0  0  0
   46.4020   32.5050   45.6590 N   0  0  0  0  0  0  0  0  0  0  0  0
   46.0230   31.2190   45.6980 C   0  0  0  0  0  0  0  0  0  0  0  0
   46.1240   30.7450   46.9650 N   0  0  0  0  0  0  0  0  0  0  0  0
   46.5710   31.7780   47.6840 C   0  0  0  0  0  0  0  0  0  0  0  0
   46.7320   32.8260   46.8820 N   0  0  0  0  0  0  0  0  0  0  0  0
   46.8300   31.7460   49.0850 N   0  0  0  0  0  0  0  0  0  0  0  0
   48.9810   34.8550   42.3450 C   0  0  0  0  0  0  0  0  0  0  0  0
   49.0640   35.8660   41.6060 O   0  0  0  0  0  0  0  0  0  0  0  0
   50.0990   34.0630   42.6080 O   0  0  0  0  0  0  0  0  0  0  0  0
   50.3090   32.9130   41.8450 C   0  0  0  0  0  0  0  0  0  0  0  0
   49.4600   33.0530   40.7360 F   0  0  0  0  0  0  0  0  0  0  0  0
   49.7920   31.7980   42.5220 F   0  0  0  0  0  0  0  0  0  0  0  0
   51.6100   32.7060   41.4980 F   0  0  0  0  0  0  0  0  0  0  0  0
   46.6036   35.7253   41.5040 H   0  0  0  0  0  0  0  0  0  0  0  0
   44.3672   35.1163   42.5465 H   0  0  0  0  0  0  0  0  0  0  0  0
   45.6809   30.6351   44.8308 H   0  0  0  0  0  0  0  0  0  0  0  0
   47.1745   32.5900   49.5644 H   0  0  0  0  0  0  0  0  0  0  0  0
   46.6727   30.8789   49.6181 H   0  0  0  0  0  0  0  0  0  0  0  0
  1  6  2  0
  2  1  1  0
  2  3  2  0
  3  4  1  0
  4  5  2  0
  5  7  1  0
  6  5  1  0
  7  8  1  0
  7 11  1  0
  8  9  2  0
  9 10  1  0
 10 12  1  0
 11 10  2  0
 13 15  1  0
 13  1  1  0
 14 13  2  0
 16 18  1  0
 16 15  1  0
 17 16  1  0
 19 16  1  0
  2 20  1  0
  3 21  1  0
  8 22  1  0
 12 23  1  0
 12 24  1  0
M  ISO  3  20  14  21  14  22  14
M  END
>  <minimizedAffinity>  (1) 
-5.06330299

>  <minimizedRMSD>  (1) 
0.0641514212

$$$$
