
     RDKit          3D

 35 37  0  0  0  0  0  0  0  0999 V2000
   47.3860   34.5620   42.7430 C   0  0  0  0  0  0  0  0  0  0  0  0
   46.3710   35.4770   42.6230 C   0  0  0  0  0  0  0  0  0  0  0  0
   45.0840   35.1110   43.0510 C   0  0  0  0  0  0  0  0  0  0  0  0
   44.9010   33.8580   43.5680 N   0  0  0  0  0  0  0  0  0  0  0  0
   45.9450   32.9890   43.6630 C   0  0  0  0  0  0  0  0  0  0  0  0
   47.1500   33.3560   43.2540 N   0  0  0  0  0  0  0  0  0  0  0  0
   45.7220   31.7040   44.2020 N   0  0  0  0  0  0  0  0  0  0  0  0
   45.1270   30.6480   43.6400 C   0  0  0  0  0  0  0  0  0  0  0  0
   45.1140   29.5870   44.5000 N   0  0  0  0  0  0  0  0  0  0  0  0
   45.7250   30.0530   45.5980 C   0  0  0  0  0  0  0  0  0  0  0  0
   46.0750   31.3010   45.4020 N   0  0  0  0  0  0  0  0  0  0  0  0
   45.9180   29.2420   46.7520 N   0  0  0  0  0  0  0  0  0  0  0  0
   47.2230   28.6910   47.0790 C   0  0  0  0  0  0  0  0  0  0  0  0
   46.9750   27.1830   46.9810 C   0  0  0  0  0  0  0  0  0  0  0  0
   46.0590   26.7210   47.8720 O   0  0  0  0  0  0  0  0  0  0  0  0
   44.9220   27.4330   48.0930 C   0  0  0  0  0  0  0  0  0  0  0  0
   44.9240   28.8670   47.7050 C   0  0  0  0  0  0  0  0  0  0  0  0
   48.7350   34.9280   42.3010 C   0  0  0  0  0  0  0  0  0  0  0  0
   48.8570   35.8550   41.4600 O   0  0  0  0  0  0  0  0  0  0  0  0
   49.8410   34.2580   42.8090 O   0  0  0  0  0  0  0  0  0  0  0  0
   50.3210   33.1390   42.0970 C   0  0  0  0  0  0  0  0  0  0  0  0
   49.5680   33.0940   40.9220 F   0  0  0  0  0  0  0  0  0  0  0  0
   49.9720   31.9730   42.7860 F   0  0  0  0  0  0  0  0  0  0  0  0
   51.6660   33.1680   41.8680 F   0  0  0  0  0  0  0  0  0  0  0  0
   46.5606   36.4750   42.2011 H   0  0  0  0  0  0  0  0  0  0  0  0
   44.2430   35.8157   42.9722 H   0  0  0  0  0  0  0  0  0  0  0  0
   44.7054   30.6349   42.6241 H   0  0  0  0  0  0  0  0  0  0  0  0
   47.9854   29.0170   46.3562 H   0  0  0  0  0  0  0  0  0  0  0  0
   47.6031   29.0118   48.0601 H   0  0  0  0  0  0  0  0  0  0  0  0
   46.6177   26.9551   45.9659 H   0  0  0  0  0  0  0  0  0  0  0  0
   47.9281   26.6848   47.2123 H   0  0  0  0  0  0  0  0  0  0  0  0
   44.1118   26.9417   47.5342 H   0  0  0  0  0  0  0  0  0  0  0  0
   44.8034   27.4389   49.1866 H   0  0  0  0  0  0  0  0  0  0  0  0
   45.0835   29.4645   48.6147 H   0  0  0  0  0  0  0  0  0  0  0  0
   43.9542   29.0510   47.2197 H   0  0  0  0  0  0  0  0  0  0  0  0
  1  6  2  0
  2  1  1  0
  2  3  2  0
  3  4  1  0
  4  5  2  0
  5  7  1  0
  6  5  1  0
  7 11  1  0
  8  7  1  0
  8  9  2  0
  9 10  1  0
 10 12  1  0
 11 10  2  0
 12 13  1  0
 12 17  1  0
 14 13  1  0
 14 15  1  0
 15 16  1  0
 17 16  1  0
 18  1  1  0
 18 20  1  0
 19 18  2  0
 21 23  1  0
 21 20  1  0
 22 21  1  0
 24 21  1  0
  2 25  1  0
  3 26  1  0
  8 27  1  0
 13 28  1  0
 13 29  1  0
 14 30  1  0
 14 31  1  0
 16 32  1  0
 16 33  1  0
 17 34  1  0
 17 35  1  0
M  ISO  8  25  14  26  14  27  14  28  13  29  13  30  13  31  13  32  13
M  ISO  3  33  13  34  13  35  13
M  END
>  <minimizedAffinity>  (1) 
-4.95344973

>  <minimizedRMSD>  (1) 
2.49660659

$$$$
