
     RDKit          3D

 27 28  0  0  1  0  0  0  0  0999 V2000
   44.6340   35.2300   45.6720 C   0  0  0  0  0  0  0  0  0  0  0  0
   44.5000   35.7670   44.3950 C   0  0  0  0  0  0  0  0  0  0  0  0
   45.0930   35.0940   43.3190 C   0  0  0  0  0  0  0  0  0  0  0  0
   45.7650   33.9570   43.5740 N   0  0  0  0  0  0  0  0  0  0  0  0
   45.8900   33.4390   44.8320 C   0  0  0  0  0  0  0  0  0  0  0  0
   45.3240   34.0830   45.8490 N   0  0  0  0  0  0  0  0  0  0  0  0
   46.6020   32.2420   45.1120 N   0  0  0  0  0  0  0  0  0  0  0  0
   47.4780   31.8370   44.1460 C   0  0  0  0  0  0  0  0  0  0  0  0
   48.0450   30.6770   44.6540 C   0  0  0  0  0  0  0  0  0  0  0  0
   47.5140   30.4140   45.8800 N   0  0  0  0  0  0  0  0  0  0  0  0
   46.6350   31.3780   46.1430 C   0  0  0  0  0  0  0  0  0  0  0  0
   45.8120   31.4930   47.3450 C   0  0  2  0  0  0  0  0  0  0  0  0
   46.6900   32.1570   48.4240 C   0  0  0  0  0  0  0  0  0  0  0  0
   45.4520   30.1210   47.8550 C   0  0  0  0  0  0  0  0  0  0  0  0
   44.5170   29.1910   46.6350 S   0  0  0  0  0  0  0  0  0  0  0  0
   44.1790   35.7386   46.5347 H   0  0  0  0  0  0  0  0  0  0  0  0
   43.9403   36.7002   44.2340 H   0  0  0  0  0  0  0  0  0  0  0  0
   45.0114   35.4845   42.2939 H   0  0  0  0  0  0  0  0  0  0  0  0
   47.6873   32.3219   43.1811 H   0  0  0  0  0  0  0  0  0  0  0  0
   48.8049   30.0653   44.1457 H   0  0  0  0  0  0  0  0  0  0  0  0
   44.8979   32.0637   47.1244 H   0  0  0  0  0  0  0  0  0  0  0  0
   46.3198   31.8771   49.4213 H   0  0  0  0  0  0  0  0  0  0  0  0
   47.7301   31.8175   48.3103 H   0  0  0  0  0  0  0  0  0  0  0  0
   46.6466   33.2503   48.3103 H   0  0  0  0  0  0  0  0  0  0  0  0
   46.3763   29.5732   48.0909 H   0  0  0  0  0  0  0  0  0  0  0  0
   44.8274   30.2389   48.7528 H   0  0  0  0  0  0  0  0  0  0  0  0
   43.6574   28.3360   47.2730 H   0  0  0  0  0  0  0  0  0  0  0  0
  1  6  2  0
  2  1  1  0
  3  4  1  0
  3  2  2  0
  4  5  2  0
  5  7  1  0
  5  6  1  0
  7 11  1  0
  8  9  2  0
  8  7  1  0
  9 10  1  0
 10 11  2  0
 11 12  1  0
 12 14  1  0
 12 13  1  0
 15 14  1  0
  1 16  1  0
  2 17  1  0
  3 18  1  0
  8 19  1  0
  9 20  1  0
 12 21  1  6
 13 22  1  0
 13 23  1  0
 13 24  1  0
 14 25  1  0
 14 26  1  0
 15 27  1  0
M  ISO  8  16  14  17  14  18  14  19  14  20  14  21   8  22   8  23   8
M  ISO  4  24   8  25   8  26   8  27  11
M  END
>  <minimizedAffinity>  (1) 
-3.9638133

>  <minimizedRMSD>  (1) 
0.403399497

$$$$
