
     RDKit          3D

 47 50  0  0  1  0  0  0  0  0999 V2000
   47.4480   34.6900   42.5830 C   0  0  0  0  0  0  0  0  0  0  0  0
   46.5250   35.7340   42.6530 C   0  0  0  0  0  0  0  0  0  0  0  0
   45.2530   35.4840   43.1900 C   0  0  0  0  0  0  0  0  0  0  0  0
   44.9690   34.2240   43.6250 N   0  0  0  0  0  0  0  0  0  0  0  0
   45.8900   33.2430   43.5390 C   0  0  0  0  0  0  0  0  0  0  0  0
   47.0950   33.4880   43.0270 N   0  0  0  0  0  0  0  0  0  0  0  0
   45.5730   31.9250   44.0000 N   0  0  0  0  0  0  0  0  0  0  0  0
   44.7940   31.0010   43.3990 C   0  0  0  0  0  0  0  0  0  0  0  0
   44.7600   29.8840   44.1800 N   0  0  0  0  0  0  0  0  0  0  0  0
   45.5290   30.1610   45.2500 C   0  0  0  0  0  0  0  0  0  0  0  0
   45.9830   31.3740   45.0950 N   0  0  0  0  0  0  0  0  0  0  0  0
   45.7170   29.1990   46.2840 N   0  0  0  0  0  0  0  0  0  0  0  0
   46.9690   28.8700   46.9010 C   0  0  0  0  0  0  0  0  0  0  0  0
   46.7670   27.4980   47.4720 C   0  0  0  0  0  0  0  0  0  0  0  0
   45.2950   27.4470   47.7440 C   0  0  0  0  0  0  0  0  0  0  0  0
   44.6220   28.4180   46.8460 C   0  0  2  0  0  0  0  0  0  0  0  0
   43.8050   27.8330   45.8060 N   0  0  0  0  0  0  0  0  0  0  0  0
   42.6080   28.3210   45.4780 C   0  0  0  0  0  0  0  0  0  0  0  0
   41.8310   27.7740   44.4960 C   0  0  0  0  0  0  0  0  0  0  0  0
   40.5080   28.4260   44.2350 C   0  0  0  0  0  0  0  0  0  0  0  0
   42.3020   26.6660   43.8100 C   0  0  0  0  0  0  0  0  0  0  0  0
   41.5840   26.1790   42.9180 O   0  0  0  0  0  0  0  0  0  0  0  0
   43.4990   26.1830   44.1400 N   0  0  0  0  0  0  0  0  0  0  0  0
   44.2410   26.7410   45.1100 C   0  0  0  0  0  0  0  0  0  0  0  0
   45.3820   26.2420   45.3910 O   0  0  0  0  0  0  0  0  0  0  0  0
   48.7570   34.9500   42.0290 C   0  0  0  0  0  0  0  0  0  0  0  0
   48.8650   35.7490   41.0530 O   0  0  0  0  0  0  0  0  0  0  0  0
   49.8690   34.3190   42.5750 O   0  0  0  0  0  0  0  0  0  0  0  0
   50.3140   33.1080   42.0010 C   0  0  0  0  0  0  0  0  0  0  0  0
   49.5680   32.9800   40.8320 F   0  0  0  0  0  0  0  0  0  0  0  0
   49.8990   32.0420   42.8090 F   0  0  0  0  0  0  0  0  0  0  0  0
   51.6630   33.0580   41.7890 F   0  0  0  0  0  0  0  0  0  0  0  0
   46.7907   36.7387   42.2924 H   0  0  0  0  0  0  0  0  0  0  0  0
   44.5030   36.2858   43.2583 H   0  0  0  0  0  0  0  0  0  0  0  0
   44.2731   31.1281   42.4385 H   0  0  0  0  0  0  0  0  0  0  0  0
   47.7783   28.8642   46.1560 H   0  0  0  0  0  0  0  0  0  0  0  0
   47.2571   29.6013   47.6706 H   0  0  0  0  0  0  0  0  0  0  0  0
   47.0603   26.7235   46.7480 H   0  0  0  0  0  0  0  0  0  0  0  0
   47.3756   27.3130   48.3694 H   0  0  0  0  0  0  0  0  0  0  0  0
   44.9152   26.4335   47.5476 H   0  0  0  0  0  0  0  0  0  0  0  0
   45.0946   27.7008   48.7954 H   0  0  0  0  0  0  0  0  0  0  0  0
   43.8932   29.0139   47.4151 H   0  0  0  0  0  0  0  0  0  0  0  0
   42.2305   29.2003   46.0205 H   0  0  0  0  0  0  0  0  0  0  0  0
   40.0220   28.6655   45.1923 H   0  0  0  0  0  0  0  0  0  0  0  0
   40.6622   29.3513   43.6605 H   0  0  0  0  0  0  0  0  0  0  0  0
   39.8682   27.7400   43.6605 H   0  0  0  0  0  0  0  0  0  0  0  0
   43.8644   25.3609   43.6384 H   0  0  0  0  0  0  0  0  0  0  0  0
  1  2  2  0
  1  6  1  0
  2  3  1  0
  3  4  2  0
  5  4  1  0
  5  7  1  0
  6  5  2  0
  7 11  1  0
  8  7  1  0
  8  9  2  0
  9 10  1  0
 10 12  1  0
 11 10  2  0
 12 16  1  0
 12 13  1  0
 13 14  1  0
 14 15  1  0
 16 15  1  0
 17 16  1  0
 18 17  1  0
 19 18  2  0
 20 19  1  0
 21 23  1  0
 21 19  1  0
 22 21  2  0
 23 24  1  0
 24 25  2  0
 24 17  1  0
 26 28  1  0
 26  1  1  0
 27 26  2  0
 29 28  1  0
 29 31  1  0
 30 29  1  0
 32 29  1  0
  2 33  1  0
  3 34  1  0
  8 35  1  0
 13 36  1  0
 13 37  1  0
 14 38  1  0
 14 39  1  0
 15 40  1  0
 15 41  1  0
 16 42  1  1
 18 43  1  0
 20 44  1  0
 20 45  1  0
 20 46  1  0
 23 47  1  0
M  ISO  8  33  14  34  14  35  14  36  13  37  13  38  13  39  13  40  13
M  ISO  7  41  13  42  13  43  14  44   8  45   8  46   8  47   9
M  END
>  <minimizedAffinity>  (1) 
-5.37331104

>  <minimizedRMSD>  (1) 
0.773277819

$$$$
