
     RDKit          3D

 43 46  0  0  1  0  0  0  0  0999 V2000
   47.3900   34.6410   42.6160 C   0  0  0  0  0  0  0  0  0  0  0  0
   46.4610   35.6640   42.6660 C   0  0  0  0  0  0  0  0  0  0  0  0
   45.1820   35.3860   43.1950 C   0  0  0  0  0  0  0  0  0  0  0  0
   44.9130   34.1300   43.6310 N   0  0  0  0  0  0  0  0  0  0  0  0
   45.8620   33.1640   43.5570 C   0  0  0  0  0  0  0  0  0  0  0  0
   47.0680   33.4360   43.0570 N   0  0  0  0  0  0  0  0  0  0  0  0
   45.5570   31.8500   44.0220 N   0  0  0  0  0  0  0  0  0  0  0  0
   44.7960   30.9120   43.4290 C   0  0  0  0  0  0  0  0  0  0  0  0
   44.7670   29.7960   44.2160 N   0  0  0  0  0  0  0  0  0  0  0  0
   45.5270   30.0960   45.2850 C   0  0  0  0  0  0  0  0  0  0  0  0
   45.9800   31.3180   45.1420 N   0  0  0  0  0  0  0  0  0  0  0  0
   45.7260   29.1410   46.3420 N   0  0  0  0  0  0  0  0  0  0  0  0
   46.9770   28.8410   46.9760 C   0  0  0  0  0  0  0  0  0  0  0  0
   46.8130   27.4510   47.5210 C   0  0  0  0  0  0  0  0  0  0  0  0
   45.3370   27.3310   47.7440 C   0  0  0  0  0  0  0  0  0  0  0  0
   44.6320   28.3530   46.8910 C   0  0  2  0  0  0  0  0  0  0  0  0
   44.0510   27.6200   45.7110 C   0  0  0  0  0  0  0  0  0  0  0  0
   42.7330   27.7530   45.2650 C   0  0  0  0  0  0  0  0  0  0  0  0
   42.3780   26.9950   44.1580 C   0  0  0  0  0  0  0  0  0  0  0  0
   43.2590   26.1520   43.5180 C   0  0  0  0  0  0  0  0  0  0  0  0
   44.5520   26.0520   43.9920 C   0  0  0  0  0  0  0  0  0  0  0  0
   44.9050   26.7890   45.0720 N   0  0  0  0  0  0  0  0  0  0  0  0
   48.7080   34.9140   42.0740 C   0  0  0  0  0  0  0  0  0  0  0  0
   48.8160   35.7120   41.0920 O   0  0  0  0  0  0  0  0  0  0  0  0
   49.8260   34.3040   42.6320 O   0  0  0  0  0  0  0  0  0  0  0  0
   50.3200   33.1260   42.0590 C   0  0  0  0  0  0  0  0  0  0  0  0
   49.5840   32.9800   40.8630 F   0  0  0  0  0  0  0  0  0  0  0  0
   49.9160   32.0100   42.8240 F   0  0  0  0  0  0  0  0  0  0  0  0
   51.6570   33.1020   41.8370 F   0  0  0  0  0  0  0  0  0  0  0  0
   46.7127   36.6711   42.3020 H   0  0  0  0  0  0  0  0  0  0  0  0
   44.4169   36.1742   43.2526 H   0  0  0  0  0  0  0  0  0  0  0  0
   44.2797   31.0258   42.4644 H   0  0  0  0  0  0  0  0  0  0  0  0
   47.7987   28.8754   46.2455 H   0  0  0  0  0  0  0  0  0  0  0  0
   47.2255   29.5672   47.7640 H   0  0  0  0  0  0  0  0  0  0  0  0
   47.1627   26.7013   46.7960 H   0  0  0  0  0  0  0  0  0  0  0  0
   47.3985   27.2793   48.4363 H   0  0  0  0  0  0  0  0  0  0  0  0
   45.0018   26.3214   47.4641 H   0  0  0  0  0  0  0  0  0  0  0  0
   45.1041   27.5052   48.8049 H   0  0  0  0  0  0  0  0  0  0  0  0
   43.8672   28.9254   47.4364 H   0  0  0  0  0  0  0  0  0  0  0  0
   42.0164   28.4218   45.7641 H   0  0  0  0  0  0  0  0  0  0  0  0
   41.3494   27.0708   43.7756 H   0  0  0  0  0  0  0  0  0  0  0  0
   42.9378   25.5676   42.6432 H   0  0  0  0  0  0  0  0  0  0  0  0
   45.2798   25.3879   43.5029 H   0  0  0  0  0  0  0  0  0  0  0  0
  1  2  2  0
  1  6  1  0
  2  3  1  0
  3  4  2  0
  5  4  1  0
  5  7  1  0
  6  5  2  0
  7 11  1  0
  8  7  1  0
  8  9  2  0
  9 10  1  0
 10 12  1  0
 11 10  2  0
 12 16  1  0
 12 13  1  0
 13 14  1  0
 14 15  1  0
 16 15  1  0
 17 16  1  0
 18 17  2  0
 19 18  1  0
 20 21  1  0
 20 19  2  0
 21 22  2  0
 22 17  1  0
 23  1  1  0
 23 25  1  0
 24 23  2  0
 26 25  1  0
 26 28  1  0
 27 26  1  0
 29 26  1  0
  2 30  1  0
  3 31  1  0
  8 32  1  0
 13 33  1  0
 13 34  1  0
 14 35  1  0
 14 36  1  0
 15 37  1  0
 15 38  1  0
 16 39  1  1
 18 40  1  0
 19 41  1  0
 20 42  1  0
 21 43  1  0
M  ISO  8  30  14  31  14  32  14  33  13  34  13  35  13  36  13  37  13
M  ISO  6  38  13  39  13  40  14  41  14  42  14  43  14
M  END
>  <minimizedAffinity>  (1) 
-5.02036524

>  <minimizedRMSD>  (1) 
0.358339965

$$$$
