
     RDKit          3D

 40 42  0  0  1  0  0  0  0  0999 V2000
   47.3830   34.6300   42.6280 C   0  0  0  0  0  0  0  0  0  0  0  0
   46.4290   35.6440   42.6390 C   0  0  0  0  0  0  0  0  0  0  0  0
   45.1470   35.3430   43.1240 C   0  0  0  0  0  0  0  0  0  0  0  0
   44.8910   34.0860   43.5600 N   0  0  0  0  0  0  0  0  0  0  0  0
   45.8580   33.1330   43.5270 C   0  0  0  0  0  0  0  0  0  0  0  0
   47.0680   33.4170   43.0700 N   0  0  0  0  0  0  0  0  0  0  0  0
   45.5600   31.8220   43.9920 N   0  0  0  0  0  0  0  0  0  0  0  0
   44.8340   30.8620   43.3810 C   0  0  0  0  0  0  0  0  0  0  0  0
   44.7950   29.7540   44.1690 N   0  0  0  0  0  0  0  0  0  0  0  0
   45.5010   30.0590   45.2510 C   0  0  0  0  0  0  0  0  0  0  0  0
   45.9430   31.2890   45.1200 N   0  0  0  0  0  0  0  0  0  0  0  0
   45.6900   29.1260   46.3300 N   0  0  0  0  0  0  0  0  0  0  0  0
   46.9340   28.8380   46.9920 C   0  0  0  0  0  0  0  0  0  0  0  0
   46.7890   27.4600   47.5430 C   0  0  0  0  0  0  0  0  0  0  0  0
   45.3080   27.3080   47.7160 C   0  0  0  0  0  0  0  0  0  0  0  0
   44.6110   28.3550   46.8800 C   0  0  2  0  0  0  0  0  0  0  0  0
   48.7200   34.9340   42.1250 C   0  0  0  0  0  0  0  0  0  0  0  0
   48.8360   35.7650   41.1880 O   0  0  0  0  0  0  0  0  0  0  0  0
   49.8250   34.2960   42.6960 O   0  0  0  0  0  0  0  0  0  0  0  0
   50.3180   33.1340   42.0670 C   0  0  0  0  0  0  0  0  0  0  0  0
   49.5880   33.0120   40.8830 F   0  0  0  0  0  0  0  0  0  0  0  0
   49.9270   32.0110   42.8200 F   0  0  0  0  0  0  0  0  0  0  0  0
   51.6680   33.1420   41.8700 F   0  0  0  0  0  0  0  0  0  0  0  0
   43.7060   27.7160   45.8740 C   0  0  0  0  0  0  0  0  0  0  0  0
   42.9780   26.5090   46.3740 C   0  0  0  0  0  0  0  0  0  0  0  0
   46.6735   36.6537   42.2773 H   0  0  0  0  0  0  0  0  0  0  0  0
   44.3633   36.1145   43.1497 H   0  0  0  0  0  0  0  0  0  0  0  0
   44.3492   30.9604   42.3985 H   0  0  0  0  0  0  0  0  0  0  0  0
   47.7679   28.8788   46.2758 H   0  0  0  0  0  0  0  0  0  0  0  0
   47.1516   29.5705   47.7832 H   0  0  0  0  0  0  0  0  0  0  0  0
   47.1818   26.7115   46.8391 H   0  0  0  0  0  0  0  0  0  0  0  0
   47.3478   27.3111   48.4787 H   0  0  0  0  0  0  0  0  0  0  0  0
   44.9982   26.3053   47.3866 H   0  0  0  0  0  0  0  0  0  0  0  0
   45.0401   27.4359   48.7752 H   0  0  0  0  0  0  0  0  0  0  0  0
   43.9288   29.0091   47.4428 H   0  0  0  0  0  0  0  0  0  0  0  0
   44.3130   27.4166   45.0069 H   0  0  0  0  0  0  0  0  0  0  0  0
   42.9385   28.4633   45.6239 H   0  0  0  0  0  0  0  0  0  0  0  0
   42.9786   26.5100   47.4740 H   0  0  0  0  0  0  0  0  0  0  0  0
   41.9409   26.5285   46.0079 H   0  0  0  0  0  0  0  0  0  0  0  0
   43.4791   25.6008   46.0079 H   0  0  0  0  0  0  0  0  0  0  0  0
  1  2  2  0
  1  6  1  0
  2  3  1  0
  3  4  2  0
  5  4  1  0
  5  7  1  0
  6  5  2  0
  7 11  1  0
  8  7  1  0
  8  9  2  0
  9 10  1  0
 10 12  1  0
 11 10  2  0
 12 16  1  0
 12 13  1  0
 13 14  1  0
 14 15  1  0
 16 15  1  0
 17  1  1  0
 17 19  1  0
 18 17  2  0
 20 19  1  0
 20 22  1  0
 21 20  1  0
 23 20  1  0
 24 25  1  0
 24 16  1  0
  2 26  1  0
  3 27  1  0
  8 28  1  0
 13 29  1  0
 13 30  1  0
 14 31  1  0
 14 32  1  0
 15 33  1  0
 15 34  1  0
 16 35  1  1
 24 36  1  0
 24 37  1  0
 25 38  1  0
 25 39  1  0
 25 40  1  0
M  ISO  8  26  14  27  14  28  14  29  13  30  13  31  13  32  13  33  13
M  ISO  7  34  13  35  13  36   8  37   8  38   8  39   8  40   8
M  END
>  <minimizedAffinity>  (1) 
-4.92206144

>  <minimizedRMSD>  (1) 
0.184747025

$$$$
