
     RDKit          3D

 41 44  0  0  1  0  0  0  0  0999 V2000
   47.3860   34.6390   42.6150 C   0  0  0  0  0  0  0  0  0  0  0  0
   46.4370   35.6490   42.6280 C   0  0  0  0  0  0  0  0  0  0  0  0
   45.1560   35.3550   43.1170 C   0  0  0  0  0  0  0  0  0  0  0  0
   44.8910   34.0970   43.5600 N   0  0  0  0  0  0  0  0  0  0  0  0
   45.8530   33.1410   43.5270 C   0  0  0  0  0  0  0  0  0  0  0  0
   47.0620   33.4350   43.0610 N   0  0  0  0  0  0  0  0  0  0  0  0
   45.5580   31.8280   43.9960 N   0  0  0  0  0  0  0  0  0  0  0  0
   44.8300   30.8760   43.3790 C   0  0  0  0  0  0  0  0  0  0  0  0
   44.7970   29.7690   44.1770 N   0  0  0  0  0  0  0  0  0  0  0  0
   45.5170   30.0860   45.2700 C   0  0  0  0  0  0  0  0  0  0  0  0
   45.9510   31.3130   45.1270 N   0  0  0  0  0  0  0  0  0  0  0  0
   45.6940   29.1440   46.3300 N   0  0  0  0  0  0  0  0  0  0  0  0
   46.9230   28.8730   47.0180 C   0  0  0  0  0  0  0  0  0  0  0  0
   46.7570   27.4750   47.5480 C   0  0  0  0  0  0  0  0  0  0  0  0
   45.2760   27.3470   47.7450 C   0  0  0  0  0  0  0  0  0  0  0  0
   44.5990   28.3280   46.8430 C   0  0  2  0  0  0  0  0  0  0  0  0
   43.9040   27.6810   45.7380 N   0  0  0  0  0  0  0  0  0  0  0  0
   44.4620   26.7720   44.9430 N   0  0  0  0  0  0  0  0  0  0  0  0
   43.5400   26.3920   44.0410 C   0  0  0  0  0  0  0  0  0  0  0  0
   42.3870   27.1140   44.3200 C   0  0  0  0  0  0  0  0  0  0  0  0
   42.6230   27.9310   45.3980 C   0  0  0  0  0  0  0  0  0  0  0  0
   48.7190   34.9310   42.1100 C   0  0  0  0  0  0  0  0  0  0  0  0
   48.8400   35.7620   41.1600 O   0  0  0  0  0  0  0  0  0  0  0  0
   49.8230   34.3010   42.6730 O   0  0  0  0  0  0  0  0  0  0  0  0
   50.3060   33.1270   42.0670 C   0  0  0  0  0  0  0  0  0  0  0  0
   49.5810   33.0080   40.8760 F   0  0  0  0  0  0  0  0  0  0  0  0
   49.9110   32.0080   42.8220 F   0  0  0  0  0  0  0  0  0  0  0  0
   51.6570   33.1230   41.8710 F   0  0  0  0  0  0  0  0  0  0  0  0
   46.6828   36.6573   42.2634 H   0  0  0  0  0  0  0  0  0  0  0  0
   44.3767   36.1309   43.1419 H   0  0  0  0  0  0  0  0  0  0  0  0
   44.3440   30.9746   42.3971 H   0  0  0  0  0  0  0  0  0  0  0  0
   47.7763   28.9278   46.3260 H   0  0  0  0  0  0  0  0  0  0  0  0
   47.1251   29.6020   47.8165 H   0  0  0  0  0  0  0  0  0  0  0  0
   47.1223   26.7337   46.8221 H   0  0  0  0  0  0  0  0  0  0  0  0
   47.3283   27.2968   48.4710 H   0  0  0  0  0  0  0  0  0  0  0  0
   44.9537   26.3258   47.4935 H   0  0  0  0  0  0  0  0  0  0  0  0
   45.0129   27.5502   48.7936 H   0  0  0  0  0  0  0  0  0  0  0  0
   43.8290   28.9014   47.3800 H   0  0  0  0  0  0  0  0  0  0  0  0
   43.6732   25.6525   43.2377 H   0  0  0  0  0  0  0  0  0  0  0  0
   41.4387   27.0429   43.7672 H   0  0  0  0  0  0  0  0  0  0  0  0
   41.9239   28.6323   45.8770 H   0  0  0  0  0  0  0  0  0  0  0  0
  1  2  2  0
  1  6  1  0
  2  3  1  0
  3  4  2  0
  5  4  1  0
  5  7  1  0
  6  5  2  0
  7 11  1  0
  8  7  1  0
  8  9  2  0
  9 10  1  0
 10 12  1  0
 11 10  2  0
 12 16  1  0
 12 13  1  0
 13 14  1  0
 14 15  1  0
 16 15  1  0
 17 16  1  0
 18 17  1  0
 19 20  1  0
 19 18  2  0
 20 21  2  0
 21 17  1  0
 22  1  1  0
 22 24  1  0
 23 22  2  0
 25 24  1  0
 25 27  1  0
 26 25  1  0
 28 25  1  0
  2 29  1  0
  3 30  1  0
  8 31  1  0
 13 32  1  0
 13 33  1  0
 14 34  1  0
 14 35  1  0
 15 36  1  0
 15 37  1  0
 16 38  1  1
 19 39  1  0
 20 40  1  0
 21 41  1  0
M  ISO  8  29  14  30  14  31  14  32  13  33  13  34  13  35  13  36  13
M  ISO  5  37  13  38  13  39  14  40  14  41  14
M  END
>  <minimizedAffinity>  (1) 
-4.99696875

>  <minimizedRMSD>  (1) 
0.438559979

$$$$
