
     RDKit          3D

 40 43  0  0  1  0  0  0  0  0999 V2000
   47.3920   34.6400   42.6160 C   0  0  0  0  0  0  0  0  0  0  0  0
   46.4430   35.6650   42.6530 C   0  0  0  0  0  0  0  0  0  0  0  0
   45.1620   35.3820   43.1690 C   0  0  0  0  0  0  0  0  0  0  0  0
   44.9130   34.1170   43.6050 N   0  0  0  0  0  0  0  0  0  0  0  0
   45.8690   33.1540   43.5470 C   0  0  0  0  0  0  0  0  0  0  0  0
   47.0730   33.4320   43.0600 N   0  0  0  0  0  0  0  0  0  0  0  0
   45.5700   31.8420   44.0130 N   0  0  0  0  0  0  0  0  0  0  0  0
   44.8060   30.8990   43.3910 C   0  0  0  0  0  0  0  0  0  0  0  0
   44.7780   29.7860   44.1830 N   0  0  0  0  0  0  0  0  0  0  0  0
   45.5130   30.0720   45.2490 C   0  0  0  0  0  0  0  0  0  0  0  0
   45.9670   31.2970   45.1150 N   0  0  0  0  0  0  0  0  0  0  0  0
   45.6950   29.1170   46.2850 N   0  0  0  0  0  0  0  0  0  0  0  0
   46.9590   28.7970   46.9240 C   0  0  0  0  0  0  0  0  0  0  0  0
   46.7800   27.4460   47.5160 C   0  0  0  0  0  0  0  0  0  0  0  0
   45.2920   27.3190   47.6960 C   0  0  0  0  0  0  0  0  0  0  0  0
   44.6020   28.3280   46.8410 C   0  0  2  0  0  0  0  0  0  0  0  0
   43.8430   27.6790   45.7130 C   0  0  0  0  0  0  0  0  0  0  0  0
   44.4590   26.6410   44.8690 C   0  0  0  0  0  0  0  0  0  0  0  0
   43.0940   26.2760   43.7470 S   0  0  0  0  0  0  0  0  0  0  0  0
   41.9240   27.5400   44.5540 C   0  0  0  0  0  0  0  0  0  0  0  0
   42.6140   28.0530   45.4900 N   0  0  0  0  0  0  0  0  0  0  0  0
   48.7090   34.9270   42.0870 C   0  0  0  0  0  0  0  0  0  0  0  0
   48.8250   35.7370   41.1260 O   0  0  0  0  0  0  0  0  0  0  0  0
   49.8280   34.3010   42.6510 O   0  0  0  0  0  0  0  0  0  0  0  0
   50.3160   33.1300   42.0630 C   0  0  0  0  0  0  0  0  0  0  0  0
   49.5830   32.9890   40.8660 F   0  0  0  0  0  0  0  0  0  0  0  0
   49.9170   32.0120   42.8160 F   0  0  0  0  0  0  0  0  0  0  0  0
   51.6640   33.1320   41.8650 F   0  0  0  0  0  0  0  0  0  0  0  0
   46.6905   36.6723   42.2869 H   0  0  0  0  0  0  0  0  0  0  0  0
   44.3865   36.1606   43.2178 H   0  0  0  0  0  0  0  0  0  0  0  0
   44.3005   31.0143   42.4209 H   0  0  0  0  0  0  0  0  0  0  0  0
   47.7716   28.7862   46.1826 H   0  0  0  0  0  0  0  0  0  0  0  0
   47.2280   29.5421   47.6872 H   0  0  0  0  0  0  0  0  0  0  0  0
   47.1590   26.6685   46.8364 H   0  0  0  0  0  0  0  0  0  0  0  0
   47.3317   27.3218   48.4595 H   0  0  0  0  0  0  0  0  0  0  0  0
   44.9717   26.3085   47.4024 H   0  0  0  0  0  0  0  0  0  0  0  0
   45.0332   27.4925   48.7510 H   0  0  0  0  0  0  0  0  0  0  0  0
   43.8698   28.9132   47.4167 H   0  0  0  0  0  0  0  0  0  0  0  0
   45.4696   26.2087   44.9110 H   0  0  0  0  0  0  0  0  0  0  0  0
   40.8862   27.7738   44.2742 H   0  0  0  0  0  0  0  0  0  0  0  0
  1  2  2  0
  1  6  1  0
  2  3  1  0
  3  4  2  0
  5  4  1  0
  5  7  1  0
  6  5  2  0
  7 11  1  0
  8  7  1  0
  8  9  2  0
  9 10  1  0
 10 12  1  0
 11 10  2  0
 12 16  1  0
 12 13  1  0
 13 14  1  0
 14 15  1  0
 16 15  1  0
 17 16  1  0
 18 17  2  0
 19 20  1  0
 19 18  1  0
 20 21  2  0
 21 17  1  0
 22  1  1  0
 22 24  1  0
 23 22  2  0
 25 24  1  0
 25 27  1  0
 26 25  1  0
 28 25  1  0
  2 29  1  0
  3 30  1  0
  8 31  1  0
 13 32  1  0
 13 33  1  0
 14 34  1  0
 14 35  1  0
 15 36  1  0
 15 37  1  0
 16 38  1  1
 18 39  1  0
 20 40  1  0
M  ISO  8  29  14  30  14  31  14  32  13  33  13  34  13  35  13  36  13
M  ISO  4  37  13  38  13  39  14  40  14
M  END
>  <minimizedAffinity>  (1) 
-5.00626087

>  <minimizedRMSD>  (1) 
0.554239392

$$$$
