
     RDKit          3D

 38 40  0  0  0  0  0  0  0  0999 V2000
   47.6850   33.9950   42.3520 C   0  0  0  0  0  0  0  0  0  0  0  0
   46.7290   34.1890   43.5100 C   0  0  0  0  0  0  0  0  0  0  0  0
   46.9270   33.3190   44.5720 C   0  0  0  0  0  0  0  0  0  0  0  0
   46.0710   33.4390   45.6900 C   0  0  0  0  0  0  0  0  0  0  0  0
   45.1060   34.3980   45.6580 N   0  0  0  0  0  0  0  0  0  0  0  0
   44.9420   35.2310   44.6050 C   0  0  0  0  0  0  0  0  0  0  0  0
   45.7420   35.1260   43.5500 N   0  0  0  0  0  0  0  0  0  0  0  0
   47.8610   32.5220   42.0750 C   0  0  0  0  0  0  0  0  0  0  0  0
   49.0090   34.5570   42.7810 C   0  0  0  0  0  0  0  0  0  0  0  0
   47.1990   34.7150   41.1460 C   0  0  0  0  0  0  0  0  0  0  0  0
   46.5160   33.9260   40.1280 C   0  0  0  0  0  0  0  0  0  0  0  0
   45.2820   33.3290   40.4010 C   0  0  0  0  0  0  0  0  0  0  0  0
   44.6260   32.4960   39.5060 C   0  0  0  0  0  0  0  0  0  0  0  0
   45.1790   32.2170   38.2790 C   0  0  0  0  0  0  0  0  0  0  0  0
   46.3780   32.7700   37.9530 C   0  0  0  0  0  0  0  0  0  0  0  0
   46.9580   32.5470   36.7300 C   0  0  0  0  0  0  0  0  0  0  0  0
   48.1530   33.1010   36.3310 C   0  0  0  0  0  0  0  0  0  0  0  0
   48.7930   33.9410   37.2500 C   0  0  0  0  0  0  0  0  0  0  0  0
   48.1980   34.1570   38.4760 C   0  0  0  0  0  0  0  0  0  0  0  0
   47.0040   33.6000   38.8770 C   0  0  0  0  0  0  0  0  0  0  0  0
   47.7237   32.5610   44.5449 H   0  0  0  0  0  0  0  0  0  0  0  0
   46.1815   32.7763   46.5610 H   0  0  0  0  0  0  0  0  0  0  0  0
   44.1487   35.9928   44.6224 H   0  0  0  0  0  0  0  0  0  0  0  0
   47.9263   31.9751   43.0272 H   0  0  0  0  0  0  0  0  0  0  0  0
   47.0007   32.1521   41.4980 H   0  0  0  0  0  0  0  0  0  0  0  0
   48.7843   32.3652   41.4980 H   0  0  0  0  0  0  0  0  0  0  0  0
   49.0596   34.5785   43.8796 H   0  0  0  0  0  0  0  0  0  0  0  0
   49.8198   33.9255   42.3889 H   0  0  0  0  0  0  0  0  0  0  0  0
   49.1179   35.5789   42.3889 H   0  0  0  0  0  0  0  0  0  0  0  0
   46.5000   35.4938   41.4850 H   0  0  0  0  0  0  0  0  0  0  0  0
   48.1090   35.0871   40.6525 H   0  0  0  0  0  0  0  0  0  0  0  0
   44.8077   33.5294   41.3730 H   0  0  0  0  0  0  0  0  0  0  0  0
   43.6561   32.0556   39.7805 H   0  0  0  0  0  0  0  0  0  0  0  0
   44.6590   31.5555   37.5704 H   0  0  0  0  0  0  0  0  0  0  0  0
   46.4355   31.8843   36.0244 H   0  0  0  0  0  0  0  0  0  0  0  0
   48.5835   32.8942   35.3401 H   0  0  0  0  0  0  0  0  0  0  0  0
   49.7514   34.4194   36.9996 H   0  0  0  0  0  0  0  0  0  0  0  0
   48.7144   34.8219   39.1840 H   0  0  0  0  0  0  0  0  0  0  0  0
  1  9  1  0
  1  2  1  0
  2  7  1  0
  2  3  2  0
  3  4  1  0
  5  4  2  0
  6  5  1  0
  7  6  2  0
  8  1  1  0
 10  1  1  0
 11 12  2  0
 11 10  1  0
 13 12  1  0
 14 13  2  0
 15 14  1  0
 15 20  2  0
 16 15  1  0
 17 16  2  0
 17 18  1  0
 18 19  2  0
 19 20  1  0
 20 11  1  0
  3 21  1  0
  4 22  1  0
  6 23  1  0
  8 24  1  0
  8 25  1  0
  8 26  1  0
  9 27  1  0
  9 28  1  0
  9 29  1  0
 10 30  1  0
 10 31  1  0
 12 32  1  0
 13 33  1  0
 14 34  1  0
 16 35  1  0
 17 36  1  0
 18 37  1  0
 19 38  1  0
M  ISO  8  21  14  22  14  23  14  24   8  25   8  26   8  27   8  28   8
M  ISO  8  29   8  30   8  31   8  32  14  33  14  34  14  35  14  36  14
M  ISO  2  37  14  38  14
M  END
>  <minimizedAffinity>  (1) 
-5.10519457

>  <minimizedRMSD>  (1) 
3.08359885

$$$$
