
     RDKit          3D

 35 36  0  0  0  0  0  0  0  0999 V2000
   48.6620   34.4300   41.8340 C   0  0  0  0  0  0  0  0  0  0  0  0
   47.4870   34.4210   42.7490 C   0  0  0  0  0  0  0  0  0  0  0  0
   47.5540   33.4310   43.7400 C   0  0  0  0  0  0  0  0  0  0  0  0
   46.4850   33.3420   44.6570 C   0  0  0  0  0  0  0  0  0  0  0  0
   45.4590   34.2190   44.5240 N   0  0  0  0  0  0  0  0  0  0  0  0
   45.4310   35.1730   43.5420 C   0  0  0  0  0  0  0  0  0  0  0  0
   46.4350   35.2570   42.6790 N   0  0  0  0  0  0  0  0  0  0  0  0
   49.0560   33.0230   41.3910 C   0  0  0  0  0  0  0  0  0  0  0  0
   49.8270   35.0160   42.5860 C   0  0  0  0  0  0  0  0  0  0  0  0
   48.4200   35.2290   40.5990 C   0  0  0  0  0  0  0  0  0  0  0  0
   47.1650   32.9840   37.1950 C   0  0  0  0  0  0  0  0  0  0  0  0
   46.4690   32.8240   38.3830 C   0  0  0  0  0  0  0  0  0  0  0  0
   46.8980   33.5670   39.4790 C   0  0  0  0  0  0  0  0  0  0  0  0
   47.9700   34.4470   39.4450 C   0  0  0  0  0  0  0  0  0  0  0  0
   48.6460   34.5900   38.2500 C   0  0  0  0  0  0  0  0  0  0  0  0
   48.2420   33.8640   37.1470 C   0  0  0  0  0  0  0  0  0  0  0  0
   46.6620   32.0690   35.7830 S   0  0  0  0  0  0  0  0  0  0  0  0
   45.3420   32.5700   35.2800 O   0  0  0  0  0  0  0  0  0  0  0  0
   46.5590   30.6200   36.1550 O   0  0  0  0  0  0  0  0  0  0  0  0
   48.4123   32.7458   43.8006 H   0  0  0  0  0  0  0  0  0  0  0  0
   46.4839   32.5848   45.4549 H   0  0  0  0  0  0  0  0  0  0  0  0
   44.5801   35.8663   43.4691 H   0  0  0  0  0  0  0  0  0  0  0  0
   49.2318   32.3953   42.2771 H   0  0  0  0  0  0  0  0  0  0  0  0
   48.2452   32.5878   40.7884 H   0  0  0  0  0  0  0  0  0  0  0  0
   49.9749   33.0722   40.7884 H   0  0  0  0  0  0  0  0  0  0  0  0
   49.6479   34.9259   43.6676 H   0  0  0  0  0  0  0  0  0  0  0  0
   50.7458   34.4728   42.3200 H   0  0  0  0  0  0  0  0  0  0  0  0
   49.9386   36.0775   42.3200 H   0  0  0  0  0  0  0  0  0  0  0  0
   47.6511   35.9830   40.8234 H   0  0  0  0  0  0  0  0  0  0  0  0
   49.3879   35.6699   40.3184 H   0  0  0  0  0  0  0  0  0  0  0  0
   45.6125   32.1377   38.4566 H   0  0  0  0  0  0  0  0  0  0  0  0
   46.3549   33.4495   40.4283 H   0  0  0  0  0  0  0  0  0  0  0  0
   49.5012   35.2780   38.1768 H   0  0  0  0  0  0  0  0  0  0  0  0
   48.7889   33.9851   36.2003 H   0  0  0  0  0  0  0  0  0  0  0  0
   47.5865   32.2238   34.7839 H   0  0  0  0  0  0  0  0  0  0  0  0
  1  9  1  0
  1  2  1  0
  2  3  2  0
  3  4  1  0
  5  4  2  0
  6  5  1  0
  7  2  1  0
  7  6  2  0
  8  1  1  0
 10  1  1  0
 11 12  2  0
 12 13  1  0
 14 13  2  0
 14 10  1  0
 15 14  1  0
 16 11  1  0
 16 15  2  0
 17 19  2  0
 17 11  1  0
 18 17  2  0
  3 20  1  0
  4 21  1  0
  6 22  1  0
  8 23  1  0
  8 24  1  0
  8 25  1  0
  9 26  1  0
  9 27  1  0
  9 28  1  0
 10 29  1  0
 10 30  1  0
 12 31  1  0
 13 32  1  0
 15 33  1  0
 16 34  1  0
 17 35  1  0
M  ISO  8  20  14  21  14  22  14  23   8  24   8  25   8  26   8  27   8
M  ISO  8  28   8  29   8  30   8  31  14  32  14  33  14  34  14  35  11
M  END
>  <minimizedAffinity>  (1) 
-4.99342966

>  <minimizedRMSD>  (1) 
2.49643183

$$$$
