
     RDKit          3D

 43 45  0  0  1  0  0  0  0  0999 V2000
   47.3530   34.2710   42.8940 C   0  0  0  0  0  0  0  0  0  0  0  0
   46.2310   35.0760   42.9930 C   0  0  0  0  0  0  0  0  0  0  0  0
   45.0380   34.5230   43.5130 C   0  0  0  0  0  0  0  0  0  0  0  0
   45.0420   33.2160   43.8960 N   0  0  0  0  0  0  0  0  0  0  0  0
   46.1760   32.4660   43.7760 C   0  0  0  0  0  0  0  0  0  0  0  0
   47.2880   33.0050   43.2840 N   0  0  0  0  0  0  0  0  0  0  0  0
   46.1480   31.1020   44.1860 N   0  0  0  0  0  0  0  0  0  0  0  0
   45.5920   30.0400   43.5340 C   0  0  0  0  0  0  0  0  0  0  0  0
   45.8030   28.9280   44.2910 N   0  0  0  0  0  0  0  0  0  0  0  0
   46.4770   29.3370   45.3780 C   0  0  0  0  0  0  0  0  0  0  0  0
   46.6700   30.6320   45.2940 N   0  0  0  0  0  0  0  0  0  0  0  0
   46.8470   28.3890   46.3730 N   0  0  0  0  0  0  0  0  0  0  0  0
   48.1560   28.3290   47.0050 C   0  0  0  0  0  0  0  0  0  0  0  0
   48.3030   26.9210   47.4800 C   0  0  0  0  0  0  0  0  0  0  0  0
   46.8940   26.4770   47.6960 C   0  0  0  0  0  0  0  0  0  0  0  0
   45.9840   27.3670   46.8870 C   0  0  1  0  0  0  0  0  0  0  0  0
   44.8110   27.8610   47.6810 C   0  0  0  0  0  0  0  0  0  0  0  0
   45.1020   29.1940   48.3320 C   0  0  0  0  0  0  0  0  0  0  0  0
   44.3810   26.8910   48.7520 C   0  0  0  0  0  0  0  0  0  0  0  0
   48.5790   34.8310   42.3610 C   0  0  0  0  0  0  0  0  0  0  0  0
   48.5030   35.7370   41.4860 O   0  0  0  0  0  0  0  0  0  0  0  0
   49.8120   34.3620   42.8240 O   0  0  0  0  0  0  0  0  0  0  0  0
   50.4150   33.2760   42.1540 C   0  0  0  0  0  0  0  0  0  0  0  0
   49.6910   33.1410   40.9610 F   0  0  0  0  0  0  0  0  0  0  0  0
   50.1510   32.0960   42.8600 F   0  0  0  0  0  0  0  0  0  0  0  0
   51.7550   33.4450   41.9600 F   0  0  0  0  0  0  0  0  0  0  0  0
   46.2670   36.1277   42.6726 H   0  0  0  0  0  0  0  0  0  0  0  0
   44.1281   35.1341   43.6060 H   0  0  0  0  0  0  0  0  0  0  0  0
   45.0666   30.0759   42.5683 H   0  0  0  0  0  0  0  0  0  0  0  0
   48.9453   28.5747   46.2793 H   0  0  0  0  0  0  0  0  0  0  0  0
   48.2451   29.0506   47.8305 H   0  0  0  0  0  0  0  0  0  0  0  0
   48.7990   26.2994   46.7200 H   0  0  0  0  0  0  0  0  0  0  0  0
   48.9223   26.8367   48.3852 H   0  0  0  0  0  0  0  0  0  0  0  0
   46.7793   25.4331   47.3688 H   0  0  0  0  0  0  0  0  0  0  0  0
   46.6365   26.5441   48.7633 H   0  0  0  0  0  0  0  0  0  0  0  0
   45.4883   26.8377   46.0599 H   0  0  0  0  0  0  0  0  0  0  0  0
   43.9923   27.9690   46.9543 H   0  0  0  0  0  0  0  0  0  0  0  0
   45.0773   29.0810   49.4259 H   0  0  0  0  0  0  0  0  0  0  0  0
   46.0977   29.5439   48.0219 H   0  0  0  0  0  0  0  0  0  0  0  0
   44.3427   29.9270   48.0219 H   0  0  0  0  0  0  0  0  0  0  0  0
   44.5750   27.3286   49.7424 H   0  0  0  0  0  0  0  0  0  0  0  0
   43.3060   26.6823   48.6475 H   0  0  0  0  0  0  0  0  0  0  0  0
   44.9482   25.9543   48.6475 H   0  0  0  0  0  0  0  0  0  0  0  0
  1  2  2  0
  1  6  1  0
  2  3  1  0
  3  4  2  0
  5  4  1  0
  5  7  1  0
  6  5  2  0
  7 11  1  0
  8  7  1  0
  8  9  2  0
  9 10  1  0
 10 12  1  0
 11 10  2  0
 12 16  1  0
 12 13  1  0
 13 14  1  0
 14 15  1  0
 16 17  1  0
 16 15  1  0
 17 18  1  0
 17 19  1  0
 20 22  1  0
 20  1  1  0
 21 20  2  0
 23 22  1  0
 23 25  1  0
 24 23  1  0
 26 23  1  0
  2 27  1  0
  3 28  1  0
  8 29  1  0
 13 30  1  0
 13 31  1  0
 14 32  1  0
 14 33  1  0
 15 34  1  0
 15 35  1  0
 16 36  1  6
 17 37  1  0
 18 38  1  0
 18 39  1  0
 18 40  1  0
 19 41  1  0
 19 42  1  0
 19 43  1  0
M  ISO  8  27  14  28  14  29  14  30  13  31  13  32  13  33  13  34  13
M  ISO  8  35  13  36  13  37   8  38   8  39   8  40   8  41   8  42   8
M  ISO  1  43   8
M  END
>  <minimizedAffinity>  (1) 
-4.66439819

>  <minimizedRMSD>  (1) 
1.21393704

$$$$
