
     RDKit          3D

 36 38  0  0  1  0  0  0  0  0999 V2000
   47.3570   34.6290   42.6440 C   0  0  0  0  0  0  0  0  0  0  0  0
   46.4030   35.6250   42.6450 C   0  0  0  0  0  0  0  0  0  0  0  0
   45.1050   35.3210   43.1150 C   0  0  0  0  0  0  0  0  0  0  0  0
   44.8590   34.0570   43.5450 N   0  0  0  0  0  0  0  0  0  0  0  0
   45.8290   33.1220   43.5220 C   0  0  0  0  0  0  0  0  0  0  0  0
   47.0540   33.4200   43.0760 N   0  0  0  0  0  0  0  0  0  0  0  0
   45.5400   31.7950   43.9820 N   0  0  0  0  0  0  0  0  0  0  0  0
   44.8120   30.8370   43.3470 C   0  0  0  0  0  0  0  0  0  0  0  0
   44.7850   29.7210   44.1360 N   0  0  0  0  0  0  0  0  0  0  0  0
   45.4950   30.0290   45.2250 C   0  0  0  0  0  0  0  0  0  0  0  0
   45.9270   31.2660   45.0980 N   0  0  0  0  0  0  0  0  0  0  0  0
   45.6800   29.0800   46.2800 N   0  0  0  0  0  0  0  0  0  0  0  0
   46.9220   28.7810   46.9300 C   0  0  0  0  0  0  0  0  0  0  0  0
   46.7540   27.4160   47.5040 C   0  0  0  0  0  0  0  0  0  0  0  0
   45.2790   27.3030   47.7160 C   0  0  0  0  0  0  0  0  0  0  0  0
   44.5960   28.2940   46.8250 C   0  0  2  0  0  0  0  0  0  0  0  0
   43.8600   27.6860   45.7350 N   0  0  0  0  0  0  0  0  0  0  0  0
   48.6970   34.9330   42.1620 C   0  0  0  0  0  0  0  0  0  0  0  0
   48.8330   35.7810   41.2260 O   0  0  0  0  0  0  0  0  0  0  0  0
   49.8030   34.3030   42.7200 O   0  0  0  0  0  0  0  0  0  0  0  0
   50.3000   33.1500   42.0880 C   0  0  0  0  0  0  0  0  0  0  0  0
   49.5900   33.0260   40.8930 F   0  0  0  0  0  0  0  0  0  0  0  0
   49.9260   32.0120   42.8160 F   0  0  0  0  0  0  0  0  0  0  0  0
   51.6610   33.1770   41.9020 F   0  0  0  0  0  0  0  0  0  0  0  0
   46.6474   36.6360   42.2871 H   0  0  0  0  0  0  0  0  0  0  0  0
   44.3161   36.0874   43.1319 H   0  0  0  0  0  0  0  0  0  0  0  0
   44.3273   30.9426   42.3652 H   0  0  0  0  0  0  0  0  0  0  0  0
   47.7483   28.7935   46.2040 H   0  0  0  0  0  0  0  0  0  0  0  0
   47.1649   29.5222   47.7056 H   0  0  0  0  0  0  0  0  0  0  0  0
   47.1098   26.6480   46.8014 H   0  0  0  0  0  0  0  0  0  0  0  0
   47.3313   27.2670   48.4284 H   0  0  0  0  0  0  0  0  0  0  0  0
   44.9445   26.2856   47.4651 H   0  0  0  0  0  0  0  0  0  0  0  0
   45.0317   27.5075   48.7681 H   0  0  0  0  0  0  0  0  0  0  0  0
   43.8509   28.8680   47.3954 H   0  0  0  0  0  0  0  0  0  0  0  0
   43.1224   27.0767   46.1165 H   0  0  0  0  0  0  0  0  0  0  0  0
   43.4316   28.4229   45.1568 H   0  0  0  0  0  0  0  0  0  0  0  0
  1  2  2  0
  1  6  1  0
  2  3  1  0
  3  4  2  0
  5  4  1  0
  5  7  1  0
  6  5  2  0
  7 11  1  0
  8  7  1  0
  8  9  2  0
  9 10  1  0
 10 12  1  0
 11 10  2  0
 12 16  1  0
 12 13  1  0
 13 14  1  0
 14 15  1  0
 16 15  1  0
 17 16  1  0
 18  1  1  0
 18 20  1  0
 19 18  2  0
 21 20  1  0
 21 23  1  0
 22 21  1  0
 24 21  1  0
  2 25  1  0
  3 26  1  0
  8 27  1  0
 13 28  1  0
 13 29  1  0
 14 30  1  0
 14 31  1  0
 15 32  1  0
 15 33  1  0
 16 34  1  1
 17 35  1  0
 17 36  1  0
M  ISO  8  25  14  26  14  27  14  28  13  29  13  30  13  31  13  32  13
M  ISO  4  33  13  34  13  35   5  36   5
M  END
>  <minimizedAffinity>  (1) 
-4.83834553

>  <minimizedRMSD>  (1) 
0.0280923955

$$$$
