
     RDKit          3D

 35 36  0  0  0  0  0  0  0  0999 V2000
   48.2130   34.6270   41.4370 C   0  0  0  0  0  0  0  0  0  0  0  0
   47.2040   34.6150   42.5660 C   0  0  0  0  0  0  0  0  0  0  0  0
   47.4370   33.6510   43.5720 C   0  0  0  0  0  0  0  0  0  0  0  0
   46.5270   33.5820   44.6370 C   0  0  0  0  0  0  0  0  0  0  0  0
   45.4770   34.4470   44.6380 N   0  0  0  0  0  0  0  0  0  0  0  0
   45.2800   35.3610   43.6590 C   0  0  0  0  0  0  0  0  0  0  0  0
   46.1340   35.4460   42.6310 N   0  0  0  0  0  0  0  0  0  0  0  0
   49.2160   33.4820   41.6550 C   0  0  0  0  0  0  0  0  0  0  0  0
   48.9660   35.9110   41.5520 C   0  0  0  0  0  0  0  0  0  0  0  0
   47.5600   34.4120   40.1420 C   0  0  0  0  0  0  0  0  0  0  0  0
   48.2260   33.6910   39.0490 C   0  0  0  0  0  0  0  0  0  0  0  0
   47.2220   32.6540   38.5620 C   0  0  0  0  0  0  0  0  0  0  0  0
   46.6590   33.2880   37.3200 C   0  0  0  0  0  0  0  0  0  0  0  0
   47.9770   33.7170   36.6520 C   0  0  0  0  0  0  0  0  0  0  0  0
   48.5400   34.5290   37.8250 C   0  0  0  0  0  0  0  0  0  0  0  0
   48.3042   32.9762   43.5217 H   0  0  0  0  0  0  0  0  0  0  0  0
   46.6584   32.8501   45.4476 H   0  0  0  0  0  0  0  0  0  0  0  0
   44.4139   36.0374   43.7082 H   0  0  0  0  0  0  0  0  0  0  0  0
   49.3583   33.3196   42.7336 H   0  0  0  0  0  0  0  0  0  0  0  0
   48.8280   32.5619   41.1937 H   0  0  0  0  0  0  0  0  0  0  0  0
   50.1792   33.7455   41.1937 H   0  0  0  0  0  0  0  0  0  0  0  0
   49.1105   36.1574   42.6143 H   0  0  0  0  0  0  0  0  0  0  0  0
   49.9459   35.8065   41.0632 H   0  0  0  0  0  0  0  0  0  0  0  0
   48.3964   36.7152   41.0632 H   0  0  0  0  0  0  0  0  0  0  0  0
   46.6301   33.8633   40.3524 H   0  0  0  0  0  0  0  0  0  0  0  0
   47.4952   35.4343   39.7412 H   0  0  0  0  0  0  0  0  0  0  0  0
   49.1765   33.3102   39.4510 H   0  0  0  0  0  0  0  0  0  0  0  0
   47.7192   31.7008   38.3291 H   0  0  0  0  0  0  0  0  0  0  0  0
   46.4541   32.4082   39.3103 H   0  0  0  0  0  0  0  0  0  0  0  0
   46.1004   32.5668   36.7053 H   0  0  0  0  0  0  0  0  0  0  0  0
   45.9293   34.0937   37.4886 H   0  0  0  0  0  0  0  0  0  0  0  0
   48.6141   32.8585   36.3928 H   0  0  0  0  0  0  0  0  0  0  0  0
   47.8876   34.2453   35.6913 H   0  0  0  0  0  0  0  0  0  0  0  0
   49.6258   34.6680   37.7166 H   0  0  0  0  0  0  0  0  0  0  0  0
   48.1044   35.5373   37.8842 H   0  0  0  0  0  0  0  0  0  0  0  0
  1  9  1  0
  1  8  1  0
  1  2  1  0
  2  7  1  0
  2  3  2  0
  3  4  1  0
  4  5  2  0
  6  5  1  0
  7  6  2  0
 10  1  1  0
 11 10  1  0
 12 11  1  0
 13 12  1  0
 14 13  1  0
 14 15  1  0
 15 11  1  0
  3 16  1  0
  4 17  1  0
  6 18  1  0
  8 19  1  0
  8 20  1  0
  8 21  1  0
  9 22  1  0
  9 23  1  0
  9 24  1  0
 10 25  1  0
 10 26  1  0
 11 27  1  0
 12 28  1  0
 12 29  1  0
 13 30  1  0
 13 31  1  0
 14 32  1  0
 14 33  1  0
 15 34  1  0
 15 35  1  0
M  ISO  8  16  14  17  14  18  14  19   8  20   8  21   8  22   8  23   8
M  ISO  8  24   8  25   8  26   8  27  13  28  13  29  13  30  13  31  13
M  ISO  4  32  13  33  13  34  13  35  13
M  END
>  <minimizedAffinity>  (1) 
-4.65471935

>  <minimizedRMSD>  (1) 
1.18145287

$$$$
