
     RDKit          3D

 32 33  0  0  0  0  0  0  0  0999 V2000
   44.6890   33.5260   41.6780 C   0  0  0  0  0  0  0  0  0  0  0  0
   43.2490   33.9210   41.5550 C   0  0  0  0  0  0  0  0  0  0  0  0
   42.3620   32.8620   41.3070 C   0  0  0  0  0  0  0  0  0  0  0  0
   40.9950   33.1480   41.1770 C   0  0  0  0  0  0  0  0  0  0  0  0
   40.5980   34.4370   41.2990 N   0  0  0  0  0  0  0  0  0  0  0  0
   41.4820   35.4510   41.5420 C   0  0  0  0  0  0  0  0  0  0  0  0
   42.7780   35.1750   41.6630 N   0  0  0  0  0  0  0  0  0  0  0  0
   44.9860   32.3140   40.7860 C   0  0  0  0  0  0  0  0  0  0  0  0
   44.9170   33.1060   43.1000 C   0  0  0  0  0  0  0  0  0  0  0  0
   45.5880   34.6350   41.2650 C   0  0  0  0  0  0  0  0  0  0  0  0
   46.9970   34.3850   41.4750 N   0  0  0  0  0  0  0  0  0  0  0  0
   47.4160   34.4000   42.7740 C   0  0  0  0  0  0  0  0  0  0  0  0
   48.7550   34.1730   43.0910 C   0  0  0  0  0  0  0  0  0  0  0  0
   49.6820   33.9290   42.1240 C   0  0  0  0  0  0  0  0  0  0  0  0
   50.8990   33.7160   42.3290 O   0  0  0  0  0  0  0  0  0  0  0  0
   49.2180   33.9260   40.8680 N   0  0  0  0  0  0  0  0  0  0  0  0
   47.9390   34.1420   40.5470 C   0  0  0  0  0  0  0  0  0  0  0  0
   47.5350   34.1320   39.3630 O   0  0  0  0  0  0  0  0  0  0  0  0
   42.7310   31.8297   41.2165 H   0  0  0  0  0  0  0  0  0  0  0  0
   40.2660   32.3478   40.9815 H   0  0  0  0  0  0  0  0  0  0  0  0
   41.1247   36.4870   41.6368 H   0  0  0  0  0  0  0  0  0  0  0  0
   45.2005   31.4385   41.4165 H   0  0  0  0  0  0  0  0  0  0  0  0
   44.1129   32.1034   40.1509 H   0  0  0  0  0  0  0  0  0  0  0  0
   45.8576   32.5309   40.1509 H   0  0  0  0  0  0  0  0  0  0  0  0
   44.5037   33.8673   43.7779 H   0  0  0  0  0  0  0  0  0  0  0  0
   44.4179   32.1429   43.2824 H   0  0  0  0  0  0  0  0  0  0  0  0
   45.9966   32.9999   43.2824 H   0  0  0  0  0  0  0  0  0  0  0  0
   45.3106   35.5318   41.8384 H   0  0  0  0  0  0  0  0  0  0  0  0
   45.4535   34.7543   40.1798 H   0  0  0  0  0  0  0  0  0  0  0  0
   46.6908   34.5929   43.5783 H   0  0  0  0  0  0  0  0  0  0  0  0
   49.0690   34.1915   44.1451 H   0  0  0  0  0  0  0  0  0  0  0  0
   49.8859   33.7467   40.1047 H   0  0  0  0  0  0  0  0  0  0  0  0
  1  9  1  0
  2  7  1  0
  2  1  1  0
  3  2  2  0
  4  5  2  0
  4  3  1  0
  5  6  1  0
  6  7  2  0
  8  1  1  0
 10 11  1  0
 10  1  1  0
 11 12  1  0
 12 13  2  0
 14 15  2  0
 14 13  1  0
 16 14  1  0
 17 16  1  0
 17 11  1  0
 18 17  2  0
  3 19  1  0
  4 20  1  0
  6 21  1  0
  8 22  1  0
  8 23  1  0
  8 24  1  0
  9 25  1  0
  9 26  1  0
  9 27  1  0
 10 28  1  0
 10 29  1  0
 12 30  1  0
 13 31  1  0
 16 32  1  0
M  ISO  8  19  14  20  14  21  14  22   8  23   8  24   8  25   8  26   8
M  ISO  6  27   8  28   8  29   8  30  14  31  14  32   9
M  END
>  <minimizedAffinity>  (1) 
-4.48871851

>  <minimizedRMSD>  (1) 
4.64727783

$$$$
