
     RDKit          3D

 36 37  0  0  0  0  0  0  0  0999 V2000
   48.4840   34.2390   41.8870 C   0  0  0  0  0  0  0  0  0  0  0  0
   47.2710   34.4870   42.7620 C   0  0  0  0  0  0  0  0  0  0  0  0
   47.1670   33.6170   43.8740 C   0  0  0  0  0  0  0  0  0  0  0  0
   46.0660   33.7730   44.7260 C   0  0  0  0  0  0  0  0  0  0  0  0
   45.1680   34.7430   44.4410 N   0  0  0  0  0  0  0  0  0  0  0  0
   45.3010   35.5620   43.3600 C   0  0  0  0  0  0  0  0  0  0  0  0
   46.3440   35.4300   42.5370 N   0  0  0  0  0  0  0  0  0  0  0  0
   48.9330   32.7760   42.0300 C   0  0  0  0  0  0  0  0  0  0  0  0
   49.5750   35.1090   42.4190 C   0  0  0  0  0  0  0  0  0  0  0  0
   48.1650   34.4630   40.4660 C   0  0  0  0  0  0  0  0  0  0  0  0
   47.9680   33.3760   39.5880 N   0  0  0  0  0  0  0  0  0  0  0  0
   46.5340   33.3820   39.2270 C   0  0  0  0  0  0  0  0  0  0  0  0
   46.2890   33.1100   37.7750 C   0  0  0  0  0  0  0  0  0  0  0  0
   46.9050   34.0970   36.9320 N   0  0  0  0  0  0  0  0  0  0  0  0
   48.2420   34.4180   37.3900 C   0  0  0  0  0  0  0  0  0  0  0  0
   48.6760   33.3170   38.3690 C   0  0  0  0  0  0  0  0  0  0  0  0
   47.9261   32.8436   44.0629 H   0  0  0  0  0  0  0  0  0  0  0  0
   45.9354   33.1233   45.6040 H   0  0  0  0  0  0  0  0  0  0  0  0
   44.5446   36.3364   43.1643 H   0  0  0  0  0  0  0  0  0  0  0  0
   49.0118   32.5192   43.0967 H   0  0  0  0  0  0  0  0  0  0  0  0
   48.1956   32.1174   41.5478 H   0  0  0  0  0  0  0  0  0  0  0  0
   49.9129   32.6444   41.5478 H   0  0  0  0  0  0  0  0  0  0  0  0
   49.5540   35.0923   43.5187 H   0  0  0  0  0  0  0  0  0  0  0  0
   50.5473   34.7356   42.0651 H   0  0  0  0  0  0  0  0  0  0  0  0
   49.4273   36.1400   42.0651 H   0  0  0  0  0  0  0  0  0  0  0  0
   47.2392   35.0565   40.4425 H   0  0  0  0  0  0  0  0  0  0  0  0
   49.0860   34.9239   40.0797 H   0  0  0  0  0  0  0  0  0  0  0  0
   46.0215   32.6091   39.8186 H   0  0  0  0  0  0  0  0  0  0  0  0
   46.1480   34.3898   39.4400 H   0  0  0  0  0  0  0  0  0  0  0  0
   46.7011   32.1214   37.5242 H   0  0  0  0  0  0  0  0  0  0  0  0
   45.2034   33.1438   37.6010 H   0  0  0  0  0  0  0  0  0  0  0  0
   46.3319   34.9527   36.9428 H   0  0  0  0  0  0  0  0  0  0  0  0
   48.9329   34.4528   36.5348 H   0  0  0  0  0  0  0  0  0  0  0  0
   48.2549   35.4006   37.8843 H   0  0  0  0  0  0  0  0  0  0  0  0
   48.4960   32.3373   37.9023 H   0  0  0  0  0  0  0  0  0  0  0  0
   49.7430   33.4655   38.5916 H   0  0  0  0  0  0  0  0  0  0  0  0
  1  8  1  0
  1  9  1  0
  1  2  1  0
  2  3  2  0
  3  4  1  0
  5  4  2  0
  6  5  1  0
  7  2  1  0
  7  6  2  0
 10  1  1  0
 11 10  1  0
 12 11  1  0
 13 12  1  0
 14 15  1  0
 14 13  1  0
 15 16  1  0
 16 11  1  0
  3 17  1  0
  4 18  1  0
  6 19  1  0
  8 20  1  0
  8 21  1  0
  8 22  1  0
  9 23  1  0
  9 24  1  0
  9 25  1  0
 10 26  1  0
 10 27  1  0
 12 28  1  0
 12 29  1  0
 13 30  1  0
 13 31  1  0
 14 32  1  0
 15 33  1  0
 15 34  1  0
 16 35  1  0
 16 36  1  0
M  ISO  8  17  14  18  14  19  14  20   8  21   8  22   8  23   8  24   8
M  ISO  8  25   8  26   8  27   8  28  13  29  13  30  13  31  13  32   5
M  ISO  4  33  13  34  13  35  13  36  13
M  END
>  <minimizedAffinity>  (1) 
-4.78652382

>  <minimizedRMSD>  (1) 
1.79015541

$$$$
