
     RDKit          3D

 29 30  0  0  0  0  0  0  0  0999 V2000
   47.0970   34.3670   42.0620 C   0  0  0  0  0  0  0  0  0  0  0  0
   46.2250   34.7220   43.2190 C   0  0  0  0  0  0  0  0  0  0  0  0
   46.2770   33.8370   44.2920 C   0  0  0  0  0  0  0  0  0  0  0  0
   45.4830   34.1010   45.4200 C   0  0  0  0  0  0  0  0  0  0  0  0
   44.6990   35.2160   45.4040 N   0  0  0  0  0  0  0  0  0  0  0  0
   44.6740   36.0590   44.3370 C   0  0  0  0  0  0  0  0  0  0  0  0
   45.4260   35.8130   43.2640 N   0  0  0  0  0  0  0  0  0  0  0  0
   47.8160   33.0360   42.3270 C   0  0  0  0  0  0  0  0  0  0  0  0
   48.1410   35.4280   41.9310 C   0  0  0  0  0  0  0  0  0  0  0  0
   46.3150   34.2130   40.7970 C   0  0  0  0  0  0  0  0  0  0  0  0
   47.1100   33.7430   39.6650 C   0  0  0  0  0  0  0  0  0  0  0  0
   48.1270   34.1950   38.8520 C   0  0  0  0  0  0  0  0  0  0  0  0
   48.5720   33.3560   37.8660 C   0  0  0  0  0  0  0  0  0  0  0  0
   48.0450   32.1210   37.6800 C   0  0  0  0  0  0  0  0  0  0  0  0
   46.7540   32.0070   38.9910 S   0  0  0  0  0  0  0  0  0  0  0  0
   46.9262   32.9497   44.2573 H   0  0  0  0  0  0  0  0  0  0  0  0
   45.4935   33.4282   46.2902 H   0  0  0  0  0  0  0  0  0  0  0  0
   44.0290   36.9498   44.3595 H   0  0  0  0  0  0  0  0  0  0  0  0
   47.9026   32.8757   43.4118 H   0  0  0  0  0  0  0  0  0  0  0  0
   47.2400   32.2126   41.8795 H   0  0  0  0  0  0  0  0  0  0  0  0
   48.8204   33.0664   41.8795 H   0  0  0  0  0  0  0  0  0  0  0  0
   48.4609   35.7532   42.9320 H   0  0  0  0  0  0  0  0  0  0  0  0
   49.0055   35.0260   41.3823 H   0  0  0  0  0  0  0  0  0  0  0  0
   47.7251   36.2859   41.3823 H   0  0  0  0  0  0  0  0  0  0  0  0
   45.5053   33.4902   40.9758 H   0  0  0  0  0  0  0  0  0  0  0  0
   45.9376   35.2113   40.5305 H   0  0  0  0  0  0  0  0  0  0  0  0
   48.5655   35.1943   38.9905 H   0  0  0  0  0  0  0  0  0  0  0  0
   49.3826   33.6946   37.2040 H   0  0  0  0  0  0  0  0  0  0  0  0
   48.3213   31.3677   36.9275 H   0  0  0  0  0  0  0  0  0  0  0  0
  1  8  1  0
  1  2  1  0
  2  7  1  0
  2  3  2  0
  3  4  1  0
  5  4  2  0
  6  5  1  0
  7  6  2  0
  9  1  1  0
 10  1  1  0
 11 10  1  0
 12 11  2  0
 13 12  1  0
 14 13  2  0
 14 15  1  0
 15 11  1  0
  3 16  1  0
  4 17  1  0
  6 18  1  0
  8 19  1  0
  8 20  1  0
  8 21  1  0
  9 22  1  0
  9 23  1  0
  9 24  1  0
 10 25  1  0
 10 26  1  0
 12 27  1  0
 13 28  1  0
 14 29  1  0
M  ISO  8  16  14  17  14  18  14  19   8  20   8  21   8  22   8  23   8
M  ISO  6  24   8  25   8  26   8  27  14  28  14  29  14
M  END
>  <minimizedAffinity>  (1) 
-4.37867451

>  <minimizedRMSD>  (1) 
2.00033712

$$$$
