
     RDKit          3D

 29 30  0  0  0  0  0  0  0  0999 V2000
   48.4770   34.8240   41.5190 C   0  0  0  0  0  0  0  0  0  0  0  0
   47.3790   34.7430   42.5160 C   0  0  0  0  0  0  0  0  0  0  0  0
   47.5140   33.7770   43.5030 C   0  0  0  0  0  0  0  0  0  0  0  0
   46.4750   33.6730   44.4650 C   0  0  0  0  0  0  0  0  0  0  0  0
   45.4110   34.5240   44.3620 N   0  0  0  0  0  0  0  0  0  0  0  0
   45.3190   35.4570   43.3780 C   0  0  0  0  0  0  0  0  0  0  0  0
   46.2880   35.5650   42.4680 N   0  0  0  0  0  0  0  0  0  0  0  0
   49.5090   33.7060   41.7970 C   0  0  0  0  0  0  0  0  0  0  0  0
   49.1910   36.1240   41.6870 C   0  0  0  0  0  0  0  0  0  0  0  0
   48.0240   34.6240   40.1270 C   0  0  0  0  0  0  0  0  0  0  0  0
   47.3630   33.3440   39.7820 C   0  0  0  0  0  0  0  0  0  0  0  0
   45.9080   33.2220   39.5140 C   0  0  0  0  0  0  0  0  0  0  0  0
   46.8650   33.2230   38.3460 C   0  0  0  0  0  0  0  0  0  0  0  0
   48.3930   33.1166   43.5387 H   0  0  0  0  0  0  0  0  0  0  0  0
   46.5253   32.9271   45.2719 H   0  0  0  0  0  0  0  0  0  0  0  0
   44.4450   36.1233   43.3321 H   0  0  0  0  0  0  0  0  0  0  0  0
   49.6272   33.5779   42.8831 H   0  0  0  0  0  0  0  0  0  0  0  0
   49.1569   32.7633   41.3528 H   0  0  0  0  0  0  0  0  0  0  0  0
   50.4768   33.9817   41.3528 H   0  0  0  0  0  0  0  0  0  0  0  0
   49.3102   36.3410   42.7588 H   0  0  0  0  0  0  0  0  0  0  0  0
   50.1817   36.0621   41.2130 H   0  0  0  0  0  0  0  0  0  0  0  0
   48.6073   36.9269   41.2130 H   0  0  0  0  0  0  0  0  0  0  0  0
   47.3125   35.4307   39.8967 H   0  0  0  0  0  0  0  0  0  0  0  0
   48.9523   34.6185   39.5369 H   0  0  0  0  0  0  0  0  0  0  0  0
   48.0282   32.8010   40.4695 H   0  0  0  0  0  0  0  0  0  0  0  0
   45.3778   32.2972   39.7855 H   0  0  0  0  0  0  0  0  0  0  0  0
   45.0221   33.8151   39.7849 H   0  0  0  0  0  0  0  0  0  0  0  0
   47.0421   32.3001   37.7742 H   0  0  0  0  0  0  0  0  0  0  0  0
   46.9779   33.8102   37.4227 H   0  0  0  0  0  0  0  0  0  0  0  0
  1  9  1  0
  1  8  1  0
  1  2  1  0
  2  3  2  0
  3  4  1  0
  5  4  2  0
  6  5  1  0
  7  2  1  0
  7  6  2  0
 10  1  1  0
 11 10  1  0
 12 11  1  0
 13 12  1  0
 13 11  1  0
  3 14  1  0
  4 15  1  0
  6 16  1  0
  8 17  1  0
  8 18  1  0
  8 19  1  0
  9 20  1  0
  9 21  1  0
  9 22  1  0
 10 23  1  0
 10 24  1  0
 11 25  1  0
 12 26  1  0
 12 27  1  0
 13 28  1  0
 13 29  1  0
M  ISO  8  14  14  15  14  16  14  17   8  18   8  19   8  20   8  21   8
M  ISO  8  22   8  23   8  24   8  25  13  26  13  27  13  28  13  29  13
M  END
>  <minimizedAffinity>  (1) 
-4.08866692

>  <minimizedRMSD>  (1) 
0.80157429

$$$$
