
     RDKit          3D

 34 35  0  0  0  0  0  0  0  0999 V2000
   48.0470   34.5070   41.4610 C   0  0  0  0  0  0  0  0  0  0  0  0
   47.0510   34.5840   42.5900 C   0  0  0  0  0  0  0  0  0  0  0  0
   47.2500   33.6240   43.6010 C   0  0  0  0  0  0  0  0  0  0  0  0
   46.3570   33.6240   44.6970 C   0  0  0  0  0  0  0  0  0  0  0  0
   45.3650   34.5560   44.6990 N   0  0  0  0  0  0  0  0  0  0  0  0
   45.2060   35.4690   43.6990 C   0  0  0  0  0  0  0  0  0  0  0  0
   46.0510   35.4740   42.6550 N   0  0  0  0  0  0  0  0  0  0  0  0
   49.0230   33.3300   41.6980 C   0  0  0  0  0  0  0  0  0  0  0  0
   48.8300   35.7740   41.4730 C   0  0  0  0  0  0  0  0  0  0  0  0
   47.3840   34.2130   40.1670 C   0  0  0  0  0  0  0  0  0  0  0  0
   48.2910   33.6490   39.1830 N   0  0  0  0  0  0  0  0  0  0  0  0
   47.7410   32.4120   38.6380 C   0  0  0  0  0  0  0  0  0  0  0  0
   47.6870   32.4970   37.1580 C   0  0  0  0  0  0  0  0  0  0  0  0
   48.7090   33.5500   36.8510 C   0  0  0  0  0  0  0  0  0  0  0  0
   48.4510   34.5190   38.0220 C   0  0  0  0  0  0  0  0  0  0  0  0
   48.0737   32.8976   43.5399 H   0  0  0  0  0  0  0  0  0  0  0  0
   46.4600   32.8982   45.5172 H   0  0  0  0  0  0  0  0  0  0  0  0
   44.3863   36.2010   43.7472 H   0  0  0  0  0  0  0  0  0  0  0  0
   49.1529   33.1734   42.7790 H   0  0  0  0  0  0  0  0  0  0  0  0
   48.6136   32.4166   41.2417 H   0  0  0  0  0  0  0  0  0  0  0  0
   49.9964   33.5632   41.2417 H   0  0  0  0  0  0  0  0  0  0  0  0
   49.0184   36.0788   42.5130 H   0  0  0  0  0  0  0  0  0  0  0  0
   49.7890   35.6173   40.9574 H   0  0  0  0  0  0  0  0  0  0  0  0
   48.2609   36.5616   40.9574 H   0  0  0  0  0  0  0  0  0  0  0  0
   46.5691   33.4959   40.3450 H   0  0  0  0  0  0  0  0  0  0  0  0
   47.0099   35.1656   39.7636 H   0  0  0  0  0  0  0  0  0  0  0  0
   48.3805   31.5668   38.9324 H   0  0  0  0  0  0  0  0  0  0  0  0
   46.7247   32.2614   39.0311 H   0  0  0  0  0  0  0  0  0  0  0  0
   47.9563   31.5360   36.6954 H   0  0  0  0  0  0  0  0  0  0  0  0
   46.6853   32.7347   36.7706 H   0  0  0  0  0  0  0  0  0  0  0  0
   49.7317   33.1456   36.8729 H   0  0  0  0  0  0  0  0  0  0  0  0
   48.6269   33.9989   35.8501 H   0  0  0  0  0  0  0  0  0  0  0  0
   49.3043   35.1993   38.1598 H   0  0  0  0  0  0  0  0  0  0  0  0
   47.5720   35.1582   37.8521 H   0  0  0  0  0  0  0  0  0  0  0  0
  1  9  1  0
  1  8  1  0
  1  2  1  0
  2  7  1  0
  2  3  2  0
  3  4  1  0
  4  5  2  0
  6  5  1  0
  7  6  2  0
 10  1  1  0
 11 10  1  0
 12 11  1  0
 13 12  1  0
 14 13  1  0
 14 15  1  0
 15 11  1  0
  3 16  1  0
  4 17  1  0
  6 18  1  0
  8 19  1  0
  8 20  1  0
  8 21  1  0
  9 22  1  0
  9 23  1  0
  9 24  1  0
 10 25  1  0
 10 26  1  0
 12 27  1  0
 12 28  1  0
 13 29  1  0
 13 30  1  0
 14 31  1  0
 14 32  1  0
 15 33  1  0
 15 34  1  0
M  ISO  8  16  14  17  14  18  14  19   8  20   8  21   8  22   8  23   8
M  ISO  8  24   8  25   8  26   8  27  13  28  13  29  13  30  13  31  13
M  ISO  3  32  13  33  13  34  13
M  END
>  <minimizedAffinity>  (1) 
-4.29429388

>  <minimizedRMSD>  (1) 
0.99621886

$$$$
