
     RDKit          3D

 29 30  0  0  0  0  0  0  0  0999 V2000
   48.5440   34.8400   41.5890 C   0  0  0  0  0  0  0  0  0  0  0  0
   47.3950   34.7720   42.5310 C   0  0  0  0  0  0  0  0  0  0  0  0
   47.5430   33.8060   43.5350 C   0  0  0  0  0  0  0  0  0  0  0  0
   46.5260   33.6400   44.4910 C   0  0  0  0  0  0  0  0  0  0  0  0
   45.4420   34.4410   44.3800 N   0  0  0  0  0  0  0  0  0  0  0  0
   45.3170   35.3770   43.3920 C   0  0  0  0  0  0  0  0  0  0  0  0
   46.2890   35.5380   42.4750 N   0  0  0  0  0  0  0  0  0  0  0  0
   49.6120   33.7950   41.9130 C   0  0  0  0  0  0  0  0  0  0  0  0
   49.1560   36.2010   41.7020 C   0  0  0  0  0  0  0  0  0  0  0  0
   48.1100   34.5900   40.1740 C   0  0  0  0  0  0  0  0  0  0  0  0
   48.0510   33.1410   39.8490 C   0  0  0  0  0  0  0  0  0  0  0  0
   46.9730   32.3250   40.1240 C   0  0  0  0  0  0  0  0  0  0  0  0
   47.2470   31.0400   39.6930 C   0  0  0  0  0  0  0  0  0  0  0  0
   48.4980   31.1090   39.1620 N   0  0  0  0  0  0  0  0  0  0  0  0
   48.9700   32.3520   39.2560 N   0  0  0  0  0  0  0  0  0  0  0  0
   48.4482   33.1822   43.5748 H   0  0  0  0  0  0  0  0  0  0  0  0
   46.6081   32.8921   45.2934 H   0  0  0  0  0  0  0  0  0  0  0  0
   44.4144   36.0041   43.3458 H   0  0  0  0  0  0  0  0  0  0  0  0
   49.7110   33.6981   43.0042 H   0  0  0  0  0  0  0  0  0  0  0  0
   49.3185   32.8256   41.4839 H   0  0  0  0  0  0  0  0  0  0  0  0
   50.5748   34.1095   41.4839 H   0  0  0  0  0  0  0  0  0  0  0  0
   49.2738   36.4630   42.7638 H   0  0  0  0  0  0  0  0  0  0  0  0
   50.1411   36.2018   41.2126 H   0  0  0  0  0  0  0  0  0  0  0  0
   48.5029   36.9385   41.2126 H   0  0  0  0  0  0  0  0  0  0  0  0
   47.1107   35.0260   40.0284 H   0  0  0  0  0  0  0  0  0  0  0  0
   48.8522   35.0540   39.5078 H   0  0  0  0  0  0  0  0  0  0  0  0
   46.0404   32.6467   40.6106 H   0  0  0  0  0  0  0  0  0  0  0  0
   46.5964   30.1559   39.7638 H   0  0  0  0  0  0  0  0  0  0  0  0
   49.0068   30.3152   38.7473 H   0  0  0  0  0  0  0  0  0  0  0  0
  1  9  1  0
  1  8  1  0
  1  2  1  0
  2  3  2  0
  3  4  1  0
  5  4  2  0
  6  5  1  0
  7  2  1  0
  7  6  2  0
 10  1  1  0
 11 12  1  0
 11 10  1  0
 13 12  2  0
 14 15  1  0
 14 13  1  0
 15 11  2  0
  3 16  1  0
  4 17  1  0
  6 18  1  0
  8 19  1  0
  8 20  1  0
  8 21  1  0
  9 22  1  0
  9 23  1  0
  9 24  1  0
 10 25  1  0
 10 26  1  0
 12 27  1  0
 13 28  1  0
 14 29  1  0
M  ISO  8  16  14  17  14  18  14  19   8  20   8  21   8  22   8  23   8
M  ISO  6  24   8  25   8  26   8  27  14  28  14  29   9
M  END
>  <minimizedAffinity>  (1) 
-4.15191174

>  <minimizedRMSD>  (1) 
0.833838761

$$$$
