
     RDKit          3D

 24 24  0  0  0  0  0  0  0  0999 V2000
   48.4410   34.7050   41.5190 C   0  0  0  0  0  0  0  0  0  0  0  0
   47.3260   34.7010   42.5120 C   0  0  0  0  0  0  0  0  0  0  0  0
   47.4820   33.7600   43.5450 C   0  0  0  0  0  0  0  0  0  0  0  0
   46.4860   33.6770   44.5330 C   0  0  0  0  0  0  0  0  0  0  0  0
   45.4230   34.5170   44.4310 N   0  0  0  0  0  0  0  0  0  0  0  0
   45.3010   35.4210   43.4150 C   0  0  0  0  0  0  0  0  0  0  0  0
   46.2430   35.5010   42.4780 N   0  0  0  0  0  0  0  0  0  0  0  0
   49.4770   33.6370   41.8420 C   0  0  0  0  0  0  0  0  0  0  0  0
   49.1160   36.0530   41.6260 C   0  0  0  0  0  0  0  0  0  0  0  0
   47.9480   34.4790   40.1350 C   0  0  0  0  0  0  0  0  0  0  0  0
   46.7150   33.7250   40.1730 N   0  0  0  0  0  0  0  0  0  0  0  0
   48.3639   33.1035   43.5791 H   0  0  0  0  0  0  0  0  0  0  0  0
   46.5644   32.9566   45.3606 H   0  0  0  0  0  0  0  0  0  0  0  0
   44.4239   36.0834   43.3708 H   0  0  0  0  0  0  0  0  0  0  0  0
   49.5733   33.5377   42.9333 H   0  0  0  0  0  0  0  0  0  0  0  0
   49.1584   32.6755   41.4130 H   0  0  0  0  0  0  0  0  0  0  0  0
   50.4478   33.9262   41.4130 H   0  0  0  0  0  0  0  0  0  0  0  0
   49.2469   36.3144   42.6864 H   0  0  0  0  0  0  0  0  0  0  0  0
   50.0993   36.0107   41.1347 H   0  0  0  0  0  0  0  0  0  0  0  0
   48.4931   36.8150   41.1347 H   0  0  0  0  0  0  0  0  0  0  0  0
   48.7027   33.9169   39.5654 H   0  0  0  0  0  0  0  0  0  0  0  0
   47.7662   35.4496   39.6504 H   0  0  0  0  0  0  0  0  0  0  0  0
   46.4440   33.5593   41.1528 H   0  0  0  0  0  0  0  0  0  0  0  0
   45.9726   34.2568   39.6966 H   0  0  0  0  0  0  0  0  0  0  0  0
  1  9  1  0
  1  8  1  0
  1  2  1  0
  2  3  2  0
  3  4  1  0
  5  4  2  0
  6  5  1  0
  7  2  1  0
  7  6  2  0
 10 11  1  0
 10  1  1  0
  3 12  1  0
  4 13  1  0
  6 14  1  0
  8 15  1  0
  8 16  1  0
  8 17  1  0
  9 18  1  0
  9 19  1  0
  9 20  1  0
 10 21  1  0
 10 22  1  0
 11 23  1  0
 11 24  1  0
M  ISO  8  12  14  13  14  14  14  15   8  16   8  17   8  18   8  19   8
M  ISO  5  20   8  21   8  22   8  23   5  24   5
M  END
>  <minimizedAffinity>  (1) 
-3.7952621

>  <minimizedRMSD>  (1) 
0.280796826

$$$$
