
     RDKit          3D

 38 39  0  0  1  0  0  0  0  0999 V2000
   46.6570   33.2680   42.2070 C   0  0  0  0  0  0  0  0  0  0  0  0
   45.3500   34.0060   42.0870 C   0  0  0  0  0  0  0  0  0  0  0  0
   45.3420   35.3300   42.4560 C   0  0  0  0  0  0  0  0  0  0  0  0
   44.1270   36.0250   42.2930 C   0  0  0  0  0  0  0  0  0  0  0  0
   43.0440   35.3560   41.7900 N   0  0  0  0  0  0  0  0  0  0  0  0
   43.0950   34.0490   41.4400 C   0  0  0  0  0  0  0  0  0  0  0  0
   44.2350   33.4040   41.5930 N   0  0  0  0  0  0  0  0  0  0  0  0
   46.6440   31.8910   41.6450 C   0  0  0  0  0  0  0  0  0  0  0  0
   46.8770   33.1250   43.7240 C   0  0  0  0  0  0  0  0  0  0  0  0
   47.7680   34.0680   41.5970 C   0  0  1  0  0  0  0  0  0  0  0  0
   49.0330   33.3700   41.7330 N   0  0  0  0  0  0  0  0  0  0  0  0
   50.0790   34.0450   42.3760 C   0  0  0  0  0  0  0  0  0  0  0  0
   50.0220   35.1060   43.0710 N   0  0  0  0  0  0  0  0  0  0  0  0
   51.4200   33.5470   42.2720 N   0  0  0  0  0  0  0  0  0  0  0  0
   49.1180   35.5570   43.3160 H   0  0  0  0  0  0  0  0  0  0  0  0
   47.5140   33.8580   40.0860 C   0  0  0  0  0  0  0  0  0  0  0  0
   48.3650   34.5150   39.1880 C   0  0  0  0  0  0  0  0  0  0  0  0
   48.2970   34.4490   37.8340 C   0  0  0  0  0  0  0  0  0  0  0  0
   47.3060   33.6680   37.2870 C   0  0  0  0  0  0  0  0  0  0  0  0
   46.4540   33.0100   38.1430 C   0  0  0  0  0  0  0  0  0  0  0  0
   46.5840   33.1250   39.4670 N   0  0  0  0  0  0  0  0  0  0  0  0
   46.2394   35.8226   42.8585 H   0  0  0  0  0  0  0  0  0  0  0  0
   44.0502   37.0879   42.5656 H   0  0  0  0  0  0  0  0  0  0  0  0
   42.2077   33.5380   41.0381 H   0  0  0  0  0  0  0  0  0  0  0  0
   46.6371   31.1597   42.4667 H   0  0  0  0  0  0  0  0  0  0  0  0
   45.7445   31.7559   41.0263 H   0  0  0  0  0  0  0  0  0  0  0  0
   47.5407   31.7390   41.0263 H   0  0  0  0  0  0  0  0  0  0  0  0
   46.0726   33.6479   44.2621 H   0  0  0  0  0  0  0  0  0  0  0  0
   46.8683   32.0594   43.9969 H   0  0  0  0  0  0  0  0  0  0  0  0
   47.8473   33.5655   43.9969 H   0  0  0  0  0  0  0  0  0  0  0  0
   47.7978   35.0840   42.0176 H   0  0  0  0  0  0  0  0  0  0  0  0
   49.1573   32.4140   41.3704 H   0  0  0  0  0  0  0  0  0  0  0  0
   52.1909   34.0411   42.7436 H   0  0  0  0  0  0  0  0  0  0  0  0
   51.6121   32.6952   41.7257 H   0  0  0  0  0  0  0  0  0  0  0  0
   49.1602   35.1410   39.6191 H   0  0  0  0  0  0  0  0  0  0  0  0
   49.0070   34.9989   37.1988 H   0  0  0  0  0  0  0  0  0  0  0  0
   47.1979   33.5723   36.1965 H   0  0  0  0  0  0  0  0  0  0  0  0
   45.6529   32.3791   37.7305 H   0  0  0  0  0  0  0  0  0  0  0  0
  1  9  1  0
  2  1  1  0
  2  3  2  0
  4  3  1  0
  5  4  2  0
  6  7  2  0
  6  5  1  0
  7  2  1  0
  8  1  1  0
 10 11  1  0
 10  1  1  0
 11 12  1  0
 12 13  2  0
 13 15  1  0
 14 12  1  0
 16 10  1  0
 17 16  2  0
 18 17  1  0
 19 18  2  0
 19 20  1  0
 20 21  2  0
 21 16  1  0
  3 22  1  0
  4 23  1  0
  6 24  1  0
  8 25  1  0
  8 26  1  0
  8 27  1  0
  9 28  1  0
  9 29  1  0
  9 30  1  0
 10 31  1  6
 11 32  1  0
 14 33  1  0
 14 34  1  0
 17 35  1  0
 18 36  1  0
 19 37  1  0
 20 38  1  0
M  ISO  8  22  14  23  14  24  14  25   8  26   8  27   8  28   8  29   8
M  ISO  6  30   8  31   8  35  14  36  14  37  14  38  14
M  END
>  <minimizedAffinity>  (1) 
-5.39282417

>  <minimizedRMSD>  (1) 
0.607335627

$$$$
