
     RDKit          3D

 36 37  0  0  1  0  0  0  0  0999 V2000
   46.7280   33.3120   41.4750 C   0  0  0  0  0  0  0  0  0  0  0  0
   45.4870   34.1660   41.4780 C   0  0  0  0  0  0  0  0  0  0  0  0
   45.4120   35.1400   42.4500 C   0  0  0  0  0  0  0  0  0  0  0  0
   44.2690   35.9660   42.4270 C   0  0  0  0  0  0  0  0  0  0  0  0
   43.3310   35.7670   41.4780 N   0  0  0  0  0  0  0  0  0  0  0  0
   43.4290   34.8040   40.5390 C   0  0  0  0  0  0  0  0  0  0  0  0
   44.5020   34.0190   40.5520 N   0  0  0  0  0  0  0  0  0  0  0  0
   46.6710   32.1870   40.4900 C   0  0  0  0  0  0  0  0  0  0  0  0
   46.7740   32.6880   42.8690 C   0  0  0  0  0  0  0  0  0  0  0  0
   47.9430   34.1420   41.2150 C   0  0  1  0  0  0  0  0  0  0  0  0
   49.1510   33.4160   41.4950 N   0  0  0  0  0  0  0  0  0  0  0  0
   50.1410   34.0170   42.2740 C   0  0  0  0  0  0  0  0  0  0  0  0
   50.0340   35.0590   42.9900 N   0  0  0  0  0  0  0  0  0  0  0  0
   51.4580   33.4820   42.3170 N   0  0  0  0  0  0  0  0  0  0  0  0
   49.1360   35.5880   43.0860 H   0  0  0  0  0  0  0  0  0  0  0  0
   48.0200   34.1190   39.6580 C   0  0  0  0  0  0  0  0  0  0  0  0
   47.3500   33.2320   38.8380 C   0  0  0  0  0  0  0  0  0  0  0  0
   47.6330   33.5190   37.5630 N   0  0  0  0  0  0  0  0  0  0  0  0
   48.4570   34.5550   37.5530 C   0  0  0  0  0  0  0  0  0  0  0  0
   48.6950   34.9240   38.8200 N   0  0  0  0  0  0  0  0  0  0  0  0
   46.2024   35.2667   43.2045 H   0  0  0  0  0  0  0  0  0  0  0  0
   44.1438   36.7634   43.1743 H   0  0  0  0  0  0  0  0  0  0  0  0
   42.6418   34.6715   39.7822 H   0  0  0  0  0  0  0  0  0  0  0  0
   46.6225   31.2295   41.0293 H   0  0  0  0  0  0  0  0  0  0  0  0
   45.7773   32.2977   39.8583 H   0  0  0  0  0  0  0  0  0  0  0  0
   47.5713   32.2068   39.8583 H   0  0  0  0  0  0  0  0  0  0  0  0
   46.7155   33.4819   43.6282 H   0  0  0  0  0  0  0  0  0  0  0  0
   45.9241   32.0004   42.9912 H   0  0  0  0  0  0  0  0  0  0  0  0
   47.7155   32.1325   42.9912 H   0  0  0  0  0  0  0  0  0  0  0  0
   47.8752   35.0894   41.7698 H   0  0  0  0  0  0  0  0  0  0  0  0
   49.2847   32.4639   41.1254 H   0  0  0  0  0  0  0  0  0  0  0  0
   52.1793   33.9352   42.8960 H   0  0  0  0  0  0  0  0  0  0  0  0
   51.6905   32.6413   41.7692 H   0  0  0  0  0  0  0  0  0  0  0  0
   46.6902   32.4205   39.1788 H   0  0  0  0  0  0  0  0  0  0  0  0
   48.8763   35.0332   36.6555 H   0  0  0  0  0  0  0  0  0  0  0  0
   49.3022   35.7049   39.1070 H   0  0  0  0  0  0  0  0  0  0  0  0
  1  2  1  0
  1  9  1  0
  2  3  2  0
  4  3  1  0
  5  4  2  0
  6  7  2  0
  6  5  1  0
  7  2  1  0
  8  1  1  0
 10  1  1  0
 10 11  1  0
 11 12  1  0
 12 14  1  0
 12 13  2  0
 13 15  1  0
 16 10  1  0
 17 16  2  0
 18 17  1  0
 19 18  2  0
 19 20  1  0
 20 16  1  0
  3 21  1  0
  4 22  1  0
  6 23  1  0
  8 24  1  0
  8 25  1  0
  8 26  1  0
  9 27  1  0
  9 28  1  0
  9 29  1  0
 10 30  1  1
 11 31  1  0
 14 32  1  0
 14 33  1  0
 17 34  1  0
 19 35  1  0
 20 36  1  0
M  ISO  8  21  14  22  14  23  14  24   8  25   8  26   8  27   8  28   8
M  ISO  5  29   8  30   8  34  14  35  14  36   9
M  END
>  <minimizedAffinity>  (1) 
-5.49745703

>  <minimizedRMSD>  (1) 
1.28662598

$$$$
