
     RDKit          3D

 36 37  0  0  1  0  0  0  0  0999 V2000
   46.8300   33.1150   41.3880 C   0  0  0  0  0  0  0  0  0  0  0  0
   45.6580   34.0530   41.4570 C   0  0  0  0  0  0  0  0  0  0  0  0
   45.6550   34.9590   42.4940 C   0  0  0  0  0  0  0  0  0  0  0  0
   44.5660   35.8570   42.5510 C   0  0  0  0  0  0  0  0  0  0  0  0
   43.5950   35.7740   41.5910 N   0  0  0  0  0  0  0  0  0  0  0  0
   43.6370   34.8630   40.5850 C   0  0  0  0  0  0  0  0  0  0  0  0
   44.6580   34.0290   40.5390 N   0  0  0  0  0  0  0  0  0  0  0  0
   46.6930   32.0530   40.3400 C   0  0  0  0  0  0  0  0  0  0  0  0
   46.8620   32.4180   42.7450 C   0  0  0  0  0  0  0  0  0  0  0  0
   48.1020   33.8710   41.1560 C   0  0  1  0  0  0  0  0  0  0  0  0
   49.2420   33.1650   41.6810 N   0  0  0  0  0  0  0  0  0  0  0  0
   50.2000   33.8870   42.4040 C   0  0  0  0  0  0  0  0  0  0  0  0
   50.0890   35.0700   42.8660 N   0  0  0  0  0  0  0  0  0  0  0  0
   51.4700   33.2940   42.6740 N   0  0  0  0  0  0  0  0  0  0  0  0
   49.2110   35.6250   42.7880 H   0  0  0  0  0  0  0  0  0  0  0  0
   48.3820   33.5780   39.5930 C   0  0  0  0  0  0  0  0  0  0  0  0
   48.0830   34.4960   38.7080 C   0  0  0  0  0  0  0  0  0  0  0  0
   48.2610   34.4150   37.3780 C   0  0  0  0  0  0  0  0  0  0  0  0
   48.8270   33.1850   37.0130 C   0  0  0  0  0  0  0  0  0  0  0  0
   49.0300   32.2930   38.6770 S   0  0  0  0  0  0  0  0  0  0  0  0
   46.4615   34.9823   43.2417 H   0  0  0  0  0  0  0  0  0  0  0  0
   44.5001   36.6083   43.3517 H   0  0  0  0  0  0  0  0  0  0  0  0
   42.8401   34.8215   39.8279 H   0  0  0  0  0  0  0  0  0  0  0  0
   46.5667   31.0737   40.8247 H   0  0  0  0  0  0  0  0  0  0  0  0
   45.8151   32.2677   39.7129 H   0  0  0  0  0  0  0  0  0  0  0  0
   47.5966   32.0379   39.7129 H   0  0  0  0  0  0  0  0  0  0  0  0
   46.8274   33.1719   43.5453 H   0  0  0  0  0  0  0  0  0  0  0  0
   45.9936   31.7486   42.8340 H   0  0  0  0  0  0  0  0  0  0  0  0
   47.7880   31.8310   42.8340 H   0  0  0  0  0  0  0  0  0  0  0  0
   48.0013   34.8945   41.5462 H   0  0  0  0  0  0  0  0  0  0  0  0
   49.3504   32.1522   41.5283 H   0  0  0  0  0  0  0  0  0  0  0  0
   52.1805   33.8177   43.2050 H   0  0  0  0  0  0  0  0  0  0  0  0
   51.6760   32.3424   42.3379 H   0  0  0  0  0  0  0  0  0  0  0  0
   47.6416   35.4276   39.0918 H   0  0  0  0  0  0  0  0  0  0  0  0
   47.9965   35.2116   36.6670 H   0  0  0  0  0  0  0  0  0  0  0  0
   49.0895   32.8246   36.0074 H   0  0  0  0  0  0  0  0  0  0  0  0
  1  2  1  0
  1  9  1  0
  2  3  2  0
  3  4  1  0
  5  4  2  0
  6  5  1  0
  7  6  2  0
  7  2  1  0
  8  1  1  0
 10  1  1  0
 10 11  1  0
 11 12  1  0
 12 14  1  0
 12 13  2  0
 15 13  1  0
 16 10  1  0
 17 16  2  0
 18 17  1  0
 19 18  2  0
 19 20  1  0
 20 16  1  0
  3 21  1  0
  4 22  1  0
  6 23  1  0
  8 24  1  0
  8 25  1  0
  8 26  1  0
  9 27  1  0
  9 28  1  0
  9 29  1  0
 10 30  1  6
 11 31  1  0
 14 32  1  0
 14 33  1  0
 17 34  1  0
 18 35  1  0
 19 36  1  0
M  ISO  8  21  14  22  14  23  14  24   8  25   8  26   8  27   8  28   8
M  ISO  5  29   8  30   8  34  14  35  14  36  14
M  END
>  <minimizedAffinity>  (1) 
-5.19094276

>  <minimizedRMSD>  (1) 
1.6493001

$$$$
