
     RDKit          3D

 39 40  0  0  1  0  0  0  0  0999 V2000
   47.7180   34.0850   41.6340 C   0  0  2  0  0  0  0  0  0  0  0  0
   47.5270   33.8990   40.1180 C   0  0  0  0  0  0  0  0  0  0  0  0
   48.3700   34.5710   39.2460 C   0  0  0  0  0  0  0  0  0  0  0  0
   48.3260   34.4940   37.8810 C   0  0  0  0  0  0  0  0  0  0  0  0
   47.3660   33.6810   37.3170 C   0  0  0  0  0  0  0  0  0  0  0  0
   46.5020   32.9880   38.1330 C   0  0  0  0  0  0  0  0  0  0  0  0
   46.5930   33.1040   39.4970 C   0  0  0  0  0  0  0  0  0  0  0  0
   48.9850   33.3760   41.7680 N   0  0  0  0  0  0  0  0  0  0  0  0
   50.0360   34.0550   42.3960 C   0  0  0  0  0  0  0  0  0  0  0  0
   49.9800   35.1070   43.1100 N   0  0  0  0  0  0  0  0  0  0  0  0
   51.3740   33.5930   42.2610 N   0  0  0  0  0  0  0  0  0  0  0  0
   49.0770   35.5810   43.3440 H   0  0  0  0  0  0  0  0  0  0  0  0
   46.6110   33.2830   42.2280 C   0  0  0  0  0  0  0  0  0  0  0  0
   45.2840   33.9760   42.0580 C   0  0  0  0  0  0  0  0  0  0  0  0
   45.2540   35.3200   42.3500 C   0  0  0  0  0  0  0  0  0  0  0  0
   44.0260   35.9830   42.1480 C   0  0  0  0  0  0  0  0  0  0  0  0
   42.9670   35.2830   41.6880 N   0  0  0  0  0  0  0  0  0  0  0  0
   43.0280   33.9640   41.4120 C   0  0  0  0  0  0  0  0  0  0  0  0
   44.1750   33.3410   41.6000 N   0  0  0  0  0  0  0  0  0  0  0  0
   46.6240   31.8910   41.6850 C   0  0  0  0  0  0  0  0  0  0  0  0
   46.7880   33.1500   43.7480 C   0  0  0  0  0  0  0  0  0  0  0  0
   47.7161   35.0949   42.0700 H   0  0  0  0  0  0  0  0  0  0  0  0
   49.1390   35.2208   39.6893 H   0  0  0  0  0  0  0  0  0  0  0  0
   49.0315   35.0606   37.2555 H   0  0  0  0  0  0  0  0  0  0  0  0
   47.2915   33.5872   36.2235 H   0  0  0  0  0  0  0  0  0  0  0  0
   45.7340   32.3373   37.6894 H   0  0  0  0  0  0  0  0  0  0  0  0
   45.8876   32.5359   40.1212 H   0  0  0  0  0  0  0  0  0  0  0  0
   49.1020   32.4154   41.4152 H   0  0  0  0  0  0  0  0  0  0  0  0
   52.1424   34.0974   42.7258 H   0  0  0  0  0  0  0  0  0  0  0  0
   51.5748   32.7539   41.6984 H   0  0  0  0  0  0  0  0  0  0  0  0
   46.1428   35.8505   42.7222 H   0  0  0  0  0  0  0  0  0  0  0  0
   43.9319   37.0577   42.3626 H   0  0  0  0  0  0  0  0  0  0  0  0
   42.1453   33.4230   41.0403 H   0  0  0  0  0  0  0  0  0  0  0  0
   46.6307   31.1726   42.5179 H   0  0  0  0  0  0  0  0  0  0  0  0
   45.7273   31.7295   41.0687 H   0  0  0  0  0  0  0  0  0  0  0  0
   47.5235   31.7462   41.0687 H   0  0  0  0  0  0  0  0  0  0  0  0
   46.0098   33.7348   44.2603 H   0  0  0  0  0  0  0  0  0  0  0  0
   46.7009   32.0920   44.0361 H   0  0  0  0  0  0  0  0  0  0  0  0
   47.7800   33.5280   44.0361 H   0  0  0  0  0  0  0  0  0  0  0  0
  1  8  1  0
  1 13  1  0
  2  1  1  0
  3  2  2  0
  4  3  1  0
  5  4  2  0
  5  6  1  0
  6  7  2  0
  7  2  1  0
  8  9  1  0
  9 10  2  0
 10 12  1  0
 11  9  1  0
 13 21  1  0
 14 13  1  0
 14 15  2  0
 16 15  1  0
 17 16  2  0
 18 19  2  0
 18 17  1  0
 19 14  1  0
 20 13  1  0
  1 22  1  6
  3 23  1  0
  4 24  1  0
  5 25  1  0
  6 26  1  0
  7 27  1  0
  8 28  1  0
 11 29  1  0
 11 30  1  0
 15 31  1  0
 16 32  1  0
 18 33  1  0
 20 34  1  0
 20 35  1  0
 20 36  1  0
 21 37  1  0
 21 38  1  0
 21 39  1  0
M  ISO  8  22   8  23  14  24  14  25  14  26  14  27  14  31  14  32  14
M  ISO  7  33  14  34   8  35   8  36   8  37   8  38   8  39   8
M  END
>  <minimizedAffinity>  (1) 
-5.45368719

>  <minimizedRMSD>  (1) 
0.559163034

$$$$
