
     RDKit          3D

 43 44  0  0  1  0  0  0  0  0999 V2000
   46.6130   33.4340   42.4290 C   0  0  0  0  0  0  0  0  0  0  0  0
   45.2700   34.0850   42.2540 C   0  0  0  0  0  0  0  0  0  0  0  0
   45.1820   35.4350   42.4860 C   0  0  0  0  0  0  0  0  0  0  0  0
   43.9180   36.0160   42.2570 C   0  0  0  0  0  0  0  0  0  0  0  0
   42.8860   35.2390   41.8320 N   0  0  0  0  0  0  0  0  0  0  0  0
   43.0180   33.9100   41.6170 C   0  0  0  0  0  0  0  0  0  0  0  0
   44.1980   33.3610   41.8310 N   0  0  0  0  0  0  0  0  0  0  0  0
   46.6540   31.9740   42.1890 C   0  0  0  0  0  0  0  0  0  0  0  0
   46.8900   33.6250   43.9590 C   0  0  0  0  0  0  0  0  0  0  0  0
   47.6540   34.1650   41.6610 C   0  0  1  0  0  0  0  0  0  0  0  0
   48.9170   33.4380   41.7600 N   0  0  0  0  0  0  0  0  0  0  0  0
   49.9980   34.0690   42.3700 C   0  0  0  0  0  0  0  0  0  0  0  0
   49.9670   35.1130   43.0960 N   0  0  0  0  0  0  0  0  0  0  0  0
   51.3170   33.5710   42.2150 N   0  0  0  0  0  0  0  0  0  0  0  0
   49.0720   35.5410   43.4420 H   0  0  0  0  0  0  0  0  0  0  0  0
   47.3880   34.0730   40.1940 N   0  0  0  0  0  0  0  0  0  0  0  0
   46.2830   33.4250   39.7250 C   0  0  0  0  0  0  0  0  0  0  0  0
   46.5900   32.7950   38.3430 C   0  0  0  0  0  0  0  0  0  0  0  0
   47.2260   33.7190   37.4580 N   0  0  0  0  0  0  0  0  0  0  0  0
   48.3010   34.4700   38.0330 C   0  0  0  0  0  0  0  0  0  0  0  0
   48.6010   34.0470   39.4490 C   0  0  0  0  0  0  0  0  0  0  0  0
   46.0437   36.0265   42.8291 H   0  0  0  0  0  0  0  0  0  0  0  0
   43.7672   37.0931   42.4214 H   0  0  0  0  0  0  0  0  0  0  0  0
   42.1660   33.3048   41.2737 H   0  0  0  0  0  0  0  0  0  0  0  0
   46.6689   31.4442   43.1529 H   0  0  0  0  0  0  0  0  0  0  0  0
   45.7640   31.6712   41.6179 H   0  0  0  0  0  0  0  0  0  0  0  0
   47.5596   31.7216   41.6179 H   0  0  0  0  0  0  0  0  0  0  0  0
   46.1210   33.0947   44.5399 H   0  0  0  0  0  0  0  0  0  0  0  0
   47.8816   33.2178   44.2057 H   0  0  0  0  0  0  0  0  0  0  0  0
   46.8619   34.6966   44.2057 H   0  0  0  0  0  0  0  0  0  0  0  0
   47.6677   35.1938   42.0500 H   0  0  0  0  0  0  0  0  0  0  0  0
   49.0058   32.4818   41.3876 H   0  0  0  0  0  0  0  0  0  0  0  0
   52.1055   34.0499   42.6732 H   0  0  0  0  0  0  0  0  0  0  0  0
   51.4864   32.7305   41.6443 H   0  0  0  0  0  0  0  0  0  0  0  0
   45.9971   32.6324   40.4321 H   0  0  0  0  0  0  0  0  0  0  0  0
   45.4575   34.1445   39.6205 H   0  0  0  0  0  0  0  0  0  0  0  0
   47.2531   31.9294   38.4877 H   0  0  0  0  0  0  0  0  0  0  0  0
   45.6341   32.4954   37.8885 H   0  0  0  0  0  0  0  0  0  0  0  0
   46.5136   34.3847   37.1261 H   0  0  0  0  0  0  0  0  0  0  0  0
   49.2030   34.3221   37.4209 H   0  0  0  0  0  0  0  0  0  0  0  0
   47.9992   35.5276   38.0544 H   0  0  0  0  0  0  0  0  0  0  0  0
   49.0167   33.0286   39.4520 H   0  0  0  0  0  0  0  0  0  0  0  0
   49.3352   34.7311   39.8996 H   0  0  0  0  0  0  0  0  0  0  0  0
  1  9  1  0
  2  1  1  0
  2  3  2  0
  4  3  1  0
  5  4  2  0
  6  7  2  0
  6  5  1  0
  7  2  1  0
  8  1  1  0
 10 11  1  0
 10  1  1  0
 11 12  1  0
 12 13  2  0
 13 15  1  0
 14 12  1  0
 16 10  1  0
 17 16  1  0
 18 17  1  0
 19 20  1  0
 19 18  1  0
 20 21  1  0
 21 16  1  0
  3 22  1  0
  4 23  1  0
  6 24  1  0
  8 25  1  0
  8 26  1  0
  8 27  1  0
  9 28  1  0
  9 29  1  0
  9 30  1  0
 10 31  1  1
 11 32  1  0
 14 33  1  0
 14 34  1  0
 17 35  1  0
 17 36  1  0
 18 37  1  0
 18 38  1  0
 19 39  1  0
 20 40  1  0
 20 41  1  0
 21 42  1  0
 21 43  1  0
M  ISO  8  22  14  23  14  24  14  25   8  26   8  27   8  28   8  29   8
M  ISO  8  30   8  31   8  35  13  36  13  37  13  38  13  39   5  40  13
M  ISO  3  41  13  42  13  43  13
M  END
>  <minimizedAffinity>  (1) 
-5.09919882

>  <minimizedRMSD>  (1) 
0.35562706

$$$$
