
     RDKit          3D

 36 37  0  0  1  0  0  0  0  0999 V2000
   46.6530   33.3210   42.5220 C   0  0  0  0  0  0  0  0  0  0  0  0
   45.3260   33.9550   42.2070 C   0  0  0  0  0  0  0  0  0  0  0  0
   45.2370   35.3190   42.3860 C   0  0  0  0  0  0  0  0  0  0  0  0
   44.0020   35.9190   42.0700 C   0  0  0  0  0  0  0  0  0  0  0  0
   42.9830   35.1370   41.6160 N   0  0  0  0  0  0  0  0  0  0  0  0
   43.1070   33.8030   41.4550 C   0  0  0  0  0  0  0  0  0  0  0  0
   44.2700   33.2340   41.7510 N   0  0  0  0  0  0  0  0  0  0  0  0
   46.7310   31.8750   42.1180 C   0  0  0  0  0  0  0  0  0  0  0  0
   46.7870   33.3870   44.0400 C   0  0  0  0  0  0  0  0  0  0  0  0
   47.7660   34.0620   41.8490 C   0  0  1  0  0  0  0  0  0  0  0  0
   49.0240   33.3580   41.9880 N   0  0  0  0  0  0  0  0  0  0  0  0
   50.1330   34.0640   42.4590 C   0  0  0  0  0  0  0  0  0  0  0  0
   50.1420   35.2000   43.0290 N   0  0  0  0  0  0  0  0  0  0  0  0
   51.4370   33.5140   42.3030 N   0  0  0  0  0  0  0  0  0  0  0  0
   49.2690   35.7300   43.2530 H   0  0  0  0  0  0  0  0  0  0  0  0
   47.4970   33.7380   40.3580 C   0  0  0  0  0  0  0  0  0  0  0  0
   48.1160   34.4200   39.2990 C   0  0  0  0  0  0  0  0  0  0  0  0
   47.6980   33.9310   38.0990 C   0  0  0  0  0  0  0  0  0  0  0  0
   46.8240   32.9530   38.4630 C   0  0  0  0  0  0  0  0  0  0  0  0
   46.7360   32.8700   39.7450 O   0  0  0  0  0  0  0  0  0  0  0  0
   46.0877   35.9095   42.7570 H   0  0  0  0  0  0  0  0  0  0  0  0
   43.8625   37.0037   42.1882 H   0  0  0  0  0  0  0  0  0  0  0  0
   42.2637   33.2003   41.0868 H   0  0  0  0  0  0  0  0  0  0  0  0
   46.7650   31.2441   43.0184 H   0  0  0  0  0  0  0  0  0  0  0  0
   45.8457   31.6131   41.5200 H   0  0  0  0  0  0  0  0  0  0  0  0
   47.6394   31.7099   41.5200 H   0  0  0  0  0  0  0  0  0  0  0  0
   45.8933   32.9468   44.5065 H   0  0  0  0  0  0  0  0  0  0  0  0
   47.6790   32.8252   44.3541 H   0  0  0  0  0  0  0  0  0  0  0  0
   46.8853   34.4366   44.3541 H   0  0  0  0  0  0  0  0  0  0  0  0
   47.8083   35.0994   42.2123 H   0  0  0  0  0  0  0  0  0  0  0  0
   49.0990   32.3599   41.7451 H   0  0  0  0  0  0  0  0  0  0  0  0
   52.2585   34.0304   42.6485 H   0  0  0  0  0  0  0  0  0  0  0  0
   51.5589   32.5997   41.8446 H   0  0  0  0  0  0  0  0  0  0  0  0
   48.8405   35.2385   39.4218 H   0  0  0  0  0  0  0  0  0  0  0  0
   47.9930   34.2474   37.0876 H   0  0  0  0  0  0  0  0  0  0  0  0
   46.2677   32.3189   37.7570 H   0  0  0  0  0  0  0  0  0  0  0  0
  1  9  1  0
  2  3  2  0
  2  1  1  0
  4  3  1  0
  5  4  2  0
  6  5  1  0
  6  7  2  0
  7  2  1  0
  8  1  1  0
 10 11  1  0
 10  1  1  0
 11 12  1  0
 12 13  2  0
 13 15  1  0
 14 12  1  0
 16 10  1  0
 17 16  2  0
 18 19  2  0
 18 17  1  0
 19 20  1  0
 20 16  1  0
  3 21  1  0
  4 22  1  0
  6 23  1  0
  8 24  1  0
  8 25  1  0
  8 26  1  0
  9 27  1  0
  9 28  1  0
  9 29  1  0
 10 30  1  6
 11 31  1  0
 14 32  1  0
 14 33  1  0
 17 34  1  0
 18 35  1  0
 19 36  1  0
M  ISO  8  21  14  22  14  23  14  24   8  25   8  26   8  27   8  28   8
M  ISO  5  29   8  30   8  34  14  35  14  36  14
M  END
>  <minimizedAffinity>  (1) 
-5.10713148

>  <minimizedRMSD>  (1) 
0.308245361

$$$$
