
     RDKit          3D

 44 45  0  0  1  0  0  0  0  0999 V2000
   46.6610   33.1760   42.7450 C   0  0  0  0  0  0  0  0  0  0  0  0
   45.3250   33.7430   42.3460 C   0  0  0  0  0  0  0  0  0  0  0  0
   45.1640   35.1040   42.4030 C   0  0  0  0  0  0  0  0  0  0  0  0
   43.9160   35.5980   41.9550 C   0  0  0  0  0  0  0  0  0  0  0  0
   42.9710   34.7290   41.5070 N   0  0  0  0  0  0  0  0  0  0  0  0
   43.1760   33.3970   41.4710 C   0  0  0  0  0  0  0  0  0  0  0  0
   44.3340   32.9270   41.8860 N   0  0  0  0  0  0  0  0  0  0  0  0
   46.7070   31.7170   42.9490 C   0  0  0  0  0  0  0  0  0  0  0  0
   46.8700   33.7970   44.1690 C   0  0  0  0  0  0  0  0  0  0  0  0
   47.7330   33.6560   41.8410 C   0  0  1  0  0  0  0  0  0  0  0  0
   48.9960   33.0410   42.2650 N   0  0  0  0  0  0  0  0  0  0  0  0
   50.0630   33.8870   42.5640 C   0  0  0  0  0  0  0  0  0  0  0  0
   49.9990   35.1240   42.8560 N   0  0  0  0  0  0  0  0  0  0  0  0
   51.3900   33.3870   42.5730 N   0  0  0  0  0  0  0  0  0  0  0  0
   49.0950   35.6480   42.9370 H   0  0  0  0  0  0  0  0  0  0  0  0
   47.6340   33.1460   40.4570 N   0  0  0  0  0  0  0  0  0  0  0  0
   47.3520   34.2230   39.5280 C   0  0  0  0  0  0  0  0  0  0  0  0
   48.3380   34.3320   38.4180 C   0  0  0  0  0  0  0  0  0  0  0  0
   48.2980   33.0310   37.6480 C   0  0  0  0  0  0  0  0  0  0  0  0
   48.0560   31.8690   38.5590 C   0  0  0  0  0  0  0  0  0  0  0  0
   48.5440   32.2040   40.0010 C   0  0  0  0  0  0  0  0  0  0  0  0
   45.9564   35.7705   42.7742 H   0  0  0  0  0  0  0  0  0  0  0  0
   43.7115   36.6787   41.9691 H   0  0  0  0  0  0  0  0  0  0  0  0
   42.3930   32.7176   41.1030 H   0  0  0  0  0  0  0  0  0  0  0  0
   46.7139   31.4975   44.0269 H   0  0  0  0  0  0  0  0  0  0  0  0
   45.8230   31.2540   42.4862 H   0  0  0  0  0  0  0  0  0  0  0  0
   47.6184   31.3106   42.4862 H   0  0  0  0  0  0  0  0  0  0  0  0
   46.6184   33.0493   44.9356 H   0  0  0  0  0  0  0  0  0  0  0  0
   47.9204   34.1022   44.2853 H   0  0  0  0  0  0  0  0  0  0  0  0
   46.2179   34.6752   44.2853 H   0  0  0  0  0  0  0  0  0  0  0  0
   47.6619   34.7531   41.8787 H   0  0  0  0  0  0  0  0  0  0  0  0
   49.0911   32.0181   42.3393 H   0  0  0  0  0  0  0  0  0  0  0  0
   52.1756   34.0153   42.7944 H   0  0  0  0  0  0  0  0  0  0  0  0
   51.5682   32.3956   42.3581 H   0  0  0  0  0  0  0  0  0  0  0  0
   46.3564   34.0534   39.0922 H   0  0  0  0  0  0  0  0  0  0  0  0
   47.4070   35.1616   40.0990 H   0  0  0  0  0  0  0  0  0  0  0  0
   48.0686   35.1687   37.7567 H   0  0  0  0  0  0  0  0  0  0  0  0
   49.3477   34.5189   38.8124 H   0  0  0  0  0  0  0  0  0  0  0  0
   47.4883   33.0788   36.9050 H   0  0  0  0  0  0  0  0  0  0  0  0
   49.2706   32.8891   37.1541 H   0  0  0  0  0  0  0  0  0  0  0  0
   46.9795   31.6442   38.5829 H   0  0  0  0  0  0  0  0  0  0  0  0
   48.6137   30.9977   38.1849 H   0  0  0  0  0  0  0  0  0  0  0  0
   48.5282   31.3064   40.6367 H   0  0  0  0  0  0  0  0  0  0  0  0
   49.5796   32.5743   40.0203 H   0  0  0  0  0  0  0  0  0  0  0  0
  1  8  1  0
  1  9  1  0
  2  3  2  0
  2  1  1  0
  4  3  1  0
  5  4  2  0
  6  5  1  0
  6  7  2  0
  7  2  1  0
 10 11  1  0
 10  1  1  0
 11 12  1  0
 12 14  1  0
 12 13  2  0
 13 15  1  0
 16 10  1  0
 17 16  1  0
 18 17  1  0
 19 18  1  0
 19 20  1  0
 20 21  1  0
 21 16  1  0
  3 22  1  0
  4 23  1  0
  6 24  1  0
  8 25  1  0
  8 26  1  0
  8 27  1  0
  9 28  1  0
  9 29  1  0
  9 30  1  0
 10 31  1  6
 11 32  1  0
 14 33  1  0
 14 34  1  0
 17 35  1  0
 17 36  1  0
 18 37  1  0
 18 38  1  0
 19 39  1  0
 19 40  1  0
 20 41  1  0
 20 42  1  0
 21 43  1  0
 21 44  1  0
M  ISO  8  22  14  23  14  24  14  25   8  26   8  27   8  28   8  29   8
M  ISO  8  30   8  31   8  35  13  36  13  37  13  38  13  39  13  40  13
M  ISO  4  41  13  42  13  43  13  44  13
M  END
>  <minimizedAffinity>  (1) 
-4.85618877

>  <minimizedRMSD>  (1) 
0.762602985

$$$$
