
     RDKit          3D

 30 30  0  0  1  0  0  0  0  0999 V2000
   46.6260   33.7490   42.1840 C   0  0  0  0  0  0  0  0  0  0  0  0
   45.3430   34.2320   41.5540 C   0  0  0  0  0  0  0  0  0  0  0  0
   44.7730   35.3520   42.1190 C   0  0  0  0  0  0  0  0  0  0  0  0
   43.5830   35.8250   41.5210 C   0  0  0  0  0  0  0  0  0  0  0  0
   43.0730   35.1620   40.4400 N   0  0  0  0  0  0  0  0  0  0  0  0
   43.6700   34.0670   39.9230 C   0  0  0  0  0  0  0  0  0  0  0  0
   44.7800   33.6230   40.4770 N   0  0  0  0  0  0  0  0  0  0  0  0
   46.8460   32.2700   41.9850 C   0  0  0  0  0  0  0  0  0  0  0  0
   46.5260   34.0630   43.6410 C   0  0  0  0  0  0  0  0  0  0  0  0
   47.8090   34.4390   41.5390 C   0  0  1  0  0  0  0  0  0  0  0  0
   49.0130   33.6600   41.6350 N   0  0  0  0  0  0  0  0  0  0  0  0
   50.0850   34.1820   42.3720 C   0  0  0  0  0  0  0  0  0  0  0  0
   50.0690   35.1610   43.1820 N   0  0  0  0  0  0  0  0  0  0  0  0
   51.3780   33.6020   42.2210 N   0  0  0  0  0  0  0  0  0  0  0  0
   49.2020   35.6760   43.4310 H   0  0  0  0  0  0  0  0  0  0  0  0
   47.4970   34.1500   40.1270 O   0  0  0  0  0  0  0  0  0  0  0  0
   45.2209   35.8521   42.9904 H   0  0  0  0  0  0  0  0  0  0  0  0
   43.0741   36.7148   41.9202 H   0  0  0  0  0  0  0  0  0  0  0  0
   43.2363   33.5532   39.0524 H   0  0  0  0  0  0  0  0  0  0  0  0
   46.9196   31.7752   42.9647 H   0  0  0  0  0  0  0  0  0  0  0  0
   46.0010   31.8460   41.4226 H   0  0  0  0  0  0  0  0  0  0  0  0
   47.7778   32.1103   41.4226 H   0  0  0  0  0  0  0  0  0  0  0  0
   46.8084   33.1762   44.2274 H   0  0  0  0  0  0  0  0  0  0  0  0
   47.2038   34.8945   43.8842 H   0  0  0  0  0  0  0  0  0  0  0  0
   45.4922   34.3494   43.8842 H   0  0  0  0  0  0  0  0  0  0  0  0
   47.9414   35.4566   41.9351 H   0  0  0  0  0  0  0  0  0  0  0  0
   49.0862   32.7418   41.1741 H   0  0  0  0  0  0  0  0  0  0  0  0
   52.1753   33.9748   42.7559 H   0  0  0  0  0  0  0  0  0  0  0  0
   51.5151   32.8100   41.5770 H   0  0  0  0  0  0  0  0  0  0  0  0
   46.7715   33.4780   40.0802 H   0  0  0  0  0  0  0  0  0  0  0  0
  1  9  1  0
  2  3  2  0
  2  1  1  0
  4  3  1  0
  5  4  2  0
  6  5  1  0
  6  7  2  0
  7  2  1  0
  8  1  1  0
 10 11  1  0
 10  1  1  0
 11 12  1  0
 12 13  2  0
 13 15  1  0
 14 12  1  0
 16 10  1  0
  3 17  1  0
  4 18  1  0
  6 19  1  0
  8 20  1  0
  8 21  1  0
  8 22  1  0
  9 23  1  0
  9 24  1  0
  9 25  1  0
 10 26  1  6
 11 27  1  0
 14 28  1  0
 14 29  1  0
 16 30  1  0
M  ISO  8  17  14  18  14  19  14  20   8  21   8  22   8  23   8  24   8
M  ISO  3  25   8  26   8  30   3
M  END
>  <minimizedAffinity>  (1) 
-4.67132807

>  <minimizedRMSD>  (1) 
0.799731612

$$$$
