
     RDKit          3D

 47 49  0  0  1  0  0  0  0  0999 V2000
   47.7940   34.0220   41.7150 C   0  0  2  0  0  0  0  0  0  0  0  0
   47.7130   33.9500   40.1710 C   0  0  0  0  0  0  0  0  0  0  0  0
   48.4250   34.8230   39.3880 N   0  0  0  0  0  0  0  0  0  0  0  0
   48.2010   34.5840   38.1290 O   0  0  0  0  0  0  0  0  0  0  0  0
   47.3690   33.5890   38.0300 C   0  0  0  0  0  0  0  0  0  0  0  0
   47.0660   33.1960   39.2790 N   0  0  0  0  0  0  0  0  0  0  0  0
   46.8920   33.0470   36.8310 N   0  0  0  0  0  0  0  0  0  0  0  0
   47.8860   32.6210   35.8600 C   0  0  0  0  0  0  0  0  0  0  0  0
   47.4710   31.4500   35.0340 C   0  0  0  0  0  0  0  0  0  0  0  0
   46.1100   31.4060   34.7540 O   0  0  0  0  0  0  0  0  0  0  0  0
   45.3570   31.4550   35.9220 C   0  0  0  0  0  0  0  0  0  0  0  0
   45.4960   32.8680   36.4860 C   0  0  0  0  0  0  0  0  0  0  0  0
   49.0510   33.3170   41.9000 N   0  0  0  0  0  0  0  0  0  0  0  0
   50.1440   34.0050   42.4150 C   0  0  0  0  0  0  0  0  0  0  0  0
   50.1320   35.1290   43.0230 N   0  0  0  0  0  0  0  0  0  0  0  0
   51.4520   33.4760   42.3010 N   0  0  0  0  0  0  0  0  0  0  0  0
   49.2440   35.6260   43.2550 H   0  0  0  0  0  0  0  0  0  0  0  0
   46.6520   33.1940   42.1260 C   0  0  0  0  0  0  0  0  0  0  0  0
   45.3550   33.9670   41.9830 C   0  0  0  0  0  0  0  0  0  0  0  0
   45.3330   35.2310   42.5100 C   0  0  0  0  0  0  0  0  0  0  0  0
   44.1270   35.9520   42.3560 C   0  0  0  0  0  0  0  0  0  0  0  0
   43.0880   35.3750   41.7160 N   0  0  0  0  0  0  0  0  0  0  0  0
   43.1490   34.1210   41.2060 C   0  0  0  0  0  0  0  0  0  0  0  0
   44.2690   33.4330   41.3420 N   0  0  0  0  0  0  0  0  0  0  0  0
   46.6460   31.9130   41.3840 C   0  0  0  0  0  0  0  0  0  0  0  0
   46.7280   32.8510   43.6230 C   0  0  0  0  0  0  0  0  0  0  0  0
   47.7626   34.9899   42.2368 H   0  0  0  0  0  0  0  0  0  0  0  0
   48.0918   33.4643   35.1843 H   0  0  0  0  0  0  0  0  0  0  0  0
   48.7719   32.3069   36.4314 H   0  0  0  0  0  0  0  0  0  0  0  0
   48.0186   31.4884   34.0808 H   0  0  0  0  0  0  0  0  0  0  0  0
   47.7029   30.5495   35.6216 H   0  0  0  0  0  0  0  0  0  0  0  0
   44.3015   31.2393   35.7000 H   0  0  0  0  0  0  0  0  0  0  0  0
   45.7097   30.7070   36.6474 H   0  0  0  0  0  0  0  0  0  0  0  0
   45.1950   33.6084   35.7303 H   0  0  0  0  0  0  0  0  0  0  0  0
   44.8515   33.0060   37.3667 H   0  0  0  0  0  0  0  0  0  0  0  0
   49.1313   32.3203   41.6528 H   0  0  0  0  0  0  0  0  0  0  0  0
   52.2532   33.9958   42.6868 H   0  0  0  0  0  0  0  0  0  0  0  0
   51.6026   32.5713   41.8322 H   0  0  0  0  0  0  0  0  0  0  0  0
   46.2051   35.6610   43.0243 H   0  0  0  0  0  0  0  0  0  0  0  0
   44.0361   36.9735   42.7539 H   0  0  0  0  0  0  0  0  0  0  0  0
   42.2823   33.6839   40.6884 H   0  0  0  0  0  0  0  0  0  0  0  0
   46.6421   31.0759   42.0976 H   0  0  0  0  0  0  0  0  0  0  0  0
   45.7476   31.8598   40.7515 H   0  0  0  0  0  0  0  0  0  0  0  0
   47.5439   31.8514   40.7515 H   0  0  0  0  0  0  0  0  0  0  0  0
   46.5277   33.7550   44.2169 H   0  0  0  0  0  0  0  0  0  0  0  0
   45.9785   32.0820   43.8615 H   0  0  0  0  0  0  0  0  0  0  0  0
   47.7322   32.4706   43.8615 H   0  0  0  0  0  0  0  0  0  0  0  0
  1 13  1  0
  1 18  1  0
  2  1  1  0
  3  2  2  0
  4  3  1  0
  5  4  1  0
  5  6  2  0
  6  2  1  0
  7  5  1  0
  8  7  1  0
  9  8  1  0
 10  9  1  0
 10 11  1  0
 11 12  1  0
 12  7  1  0
 13 14  1  0
 14 15  2  0
 15 17  1  0
 16 14  1  0
 18 26  1  0
 19 18  1  0
 19 20  2  0
 21 20  1  0
 22 21  2  0
 23 24  2  0
 23 22  1  0
 24 19  1  0
 25 18  1  0
  1 27  1  6
  8 28  1  0
  8 29  1  0
  9 30  1  0
  9 31  1  0
 11 32  1  0
 11 33  1  0
 12 34  1  0
 12 35  1  0
 13 36  1  0
 16 37  1  0
 16 38  1  0
 20 39  1  0
 21 40  1  0
 23 41  1  0
 25 42  1  0
 25 43  1  0
 25 44  1  0
 26 45  1  0
 26 46  1  0
 26 47  1  0
M  ISO  8  27   8  28  13  29  13  30  13  31  13  32  13  33  13  34  13
M  ISO  8  35  13  39  14  40  14  41  14  42   8  43   8  44   8  45   8
M  ISO  2  46   8  47   8
M  END
>  <minimizedAffinity>  (1) 
-5.89210224

>  <minimizedRMSD>  (1) 
0.657724321

$$$$
