
     RDKit          3D

 41 43  0  0  1  0  0  0  0  0999 V2000
   47.7480   34.0340   41.6290 C   0  0  1  0  0  0  0  0  0  0  0  0
   49.0130   33.3420   41.8060 N   0  0  0  0  0  0  0  0  0  0  0  0
   50.0840   34.0280   42.3890 C   0  0  0  0  0  0  0  0  0  0  0  0
   50.0340   35.1220   43.0470 N   0  0  0  0  0  0  0  0  0  0  0  0
   51.3990   33.5200   42.2860 N   0  0  0  0  0  0  0  0  0  0  0  0
   49.1330   35.5920   43.2810 H   0  0  0  0  0  0  0  0  0  0  0  0
   47.6460   33.9300   40.0840 C   0  0  0  0  0  0  0  0  0  0  0  0
   48.3640   34.7460   39.2660 N   0  0  0  0  0  0  0  0  0  0  0  0
   48.1100   34.4790   38.0200 O   0  0  0  0  0  0  0  0  0  0  0  0
   47.2370   33.5030   37.9660 C   0  0  0  0  0  0  0  0  0  0  0  0
   46.9520   33.1640   39.2320 N   0  0  0  0  0  0  0  0  0  0  0  0
   46.6430   32.8530   36.8340 C   0  0  0  0  0  0  0  0  0  0  0  0
   47.0880   31.6980   36.2010 C   0  0  0  0  0  0  0  0  0  0  0  0
   46.2510   31.4250   35.1840 N   0  0  0  0  0  0  0  0  0  0  0  0
   45.3070   32.3830   35.1800 C   0  0  0  0  0  0  0  0  0  0  0  0
   45.5380   33.2670   36.1890 N   0  0  0  0  0  0  0  0  0  0  0  0
   46.6160   33.2230   42.0930 C   0  0  0  0  0  0  0  0  0  0  0  0
   45.3100   33.9710   41.8960 C   0  0  0  0  0  0  0  0  0  0  0  0
   45.2690   35.2600   42.3500 C   0  0  0  0  0  0  0  0  0  0  0  0
   44.0490   35.9490   42.1450 C   0  0  0  0  0  0  0  0  0  0  0  0
   43.0230   35.3210   41.5330 N   0  0  0  0  0  0  0  0  0  0  0  0
   43.1080   34.0350   41.0960 C   0  0  0  0  0  0  0  0  0  0  0  0
   44.2350   33.3950   41.2840 N   0  0  0  0  0  0  0  0  0  0  0  0
   46.6360   31.9040   41.4310 C   0  0  0  0  0  0  0  0  0  0  0  0
   46.6960   32.9930   43.6050 C   0  0  0  0  0  0  0  0  0  0  0  0
   47.7178   35.0140   42.1277 H   0  0  0  0  0  0  0  0  0  0  0  0
   49.1197   32.3621   41.5071 H   0  0  0  0  0  0  0  0  0  0  0  0
   52.1832   34.0297   42.7174 H   0  0  0  0  0  0  0  0  0  0  0  0
   51.5730   32.6401   41.7796 H   0  0  0  0  0  0  0  0  0  0  0  0
   47.9728   31.1085   36.4834 H   0  0  0  0  0  0  0  0  0  0  0  0
   44.4717   32.4432   34.4668 H   0  0  0  0  0  0  0  0  0  0  0  0
   44.9724   34.0974   36.4159 H   0  0  0  0  0  0  0  0  0  0  0  0
   46.1306   35.7327   42.8441 H   0  0  0  0  0  0  0  0  0  0  0  0
   43.9381   36.9900   42.4826 H   0  0  0  0  0  0  0  0  0  0  0  0
   42.2557   33.5478   40.5998 H   0  0  0  0  0  0  0  0  0  0  0  0
   46.6480   31.1112   42.1935 H   0  0  0  0  0  0  0  0  0  0  0  0
   45.7394   31.7953   40.8031 H   0  0  0  0  0  0  0  0  0  0  0  0
   47.5355   31.8225   40.8031 H   0  0  0  0  0  0  0  0  0  0  0  0
   46.3788   33.9050   44.1319 H   0  0  0  0  0  0  0  0  0  0  0  0
   46.0350   32.1593   43.8846 H   0  0  0  0  0  0  0  0  0  0  0  0
   47.7316   32.7495   43.8846 H   0  0  0  0  0  0  0  0  0  0  0  0
  1  2  1  0
  1 17  1  0
  2  3  1  0
  3  4  2  0
  4  6  1  0
  5  3  1  0
  7  1  1  0
  8  7  2  0
  9  8  1  0
 10  9  1  0
 10 11  2  0
 11  7  1  0
 12 10  1  0
 13 12  2  0
 14 13  1  0
 15 14  2  0
 15 16  1  0
 16 12  1  0
 17 25  1  0
 18 17  1  0
 18 19  2  0
 20 19  1  0
 21 20  2  0
 22 23  2  0
 22 21  1  0
 23 18  1  0
 24 17  1  0
  1 26  1  6
  2 27  1  0
  5 28  1  0
  5 29  1  0
 13 30  1  0
 15 31  1  0
 16 32  1  0
 19 33  1  0
 20 34  1  0
 22 35  1  0
 24 36  1  0
 24 37  1  0
 24 38  1  0
 25 39  1  0
 25 40  1  0
 25 41  1  0
M  ISO  8  26   8  30  14  31  14  32   9  33  14  34  14  35  14  36   8
M  ISO  5  37   8  38   8  39   8  40   8  41   8
M  END
>  <minimizedAffinity>  (1) 
-5.73321676

>  <minimizedRMSD>  (1) 
0.55994314

$$$$
