
     RDKit          3D

 50 52  0  0  1  0  0  0  0  0999 V2000
   47.8540   34.0710   41.4670 C   0  0  1  0  0  0  0  0  0  0  0  0
   49.0790   33.3370   41.7360 N   0  0  0  0  0  0  0  0  0  0  0  0
   50.1380   34.0180   42.3590 C   0  0  0  0  0  0  0  0  0  0  0  0
   50.0960   35.1170   42.9810 N   0  0  0  0  0  0  0  0  0  0  0  0
   51.4550   33.4660   42.3300 N   0  0  0  0  0  0  0  0  0  0  0  0
   49.2110   35.6360   43.1210 H   0  0  0  0  0  0  0  0  0  0  0  0
   47.9180   34.0520   39.9250 C   0  0  0  0  0  0  0  0  0  0  0  0
   48.5470   35.0520   39.2210 N   0  0  0  0  0  0  0  0  0  0  0  0
   48.4800   34.8300   37.9450 O   0  0  0  0  0  0  0  0  0  0  0  0
   47.8260   33.7100   37.7390 C   0  0  0  0  0  0  0  0  0  0  0  0
   47.4840   33.2380   38.9520 N   0  0  0  0  0  0  0  0  0  0  0  0
   47.4320   32.9420   36.5300 C   0  0  0  0  0  0  0  0  0  0  0  0
   46.8930   31.5830   36.8330 C   0  0  0  0  0  0  0  0  0  0  0  0
   47.3560   30.5500   35.7970 C   0  0  0  0  0  0  0  0  0  0  0  0
   47.2620   31.1340   34.4030 C   0  0  0  0  0  0  0  0  0  0  0  0
   48.2440   32.2560   34.2700 C   0  0  0  0  0  0  0  0  0  0  0  0
   48.6160   32.8850   35.5720 C   0  0  0  0  0  0  0  0  0  0  0  0
   46.6650   33.2560   41.7450 C   0  0  0  0  0  0  0  0  0  0  0  0
   45.4020   34.0690   41.5290 C   0  0  0  0  0  0  0  0  0  0  0  0
   45.2290   35.1590   42.3470 C   0  0  0  0  0  0  0  0  0  0  0  0
   44.0570   35.9150   42.1280 C   0  0  0  0  0  0  0  0  0  0  0  0
   43.1930   35.5440   41.1610 N   0  0  0  0  0  0  0  0  0  0  0  0
   43.4020   34.4570   40.3730 C   0  0  0  0  0  0  0  0  0  0  0  0
   44.4880   33.7510   40.5720 N   0  0  0  0  0  0  0  0  0  0  0  0
   46.6990   32.0180   40.9380 C   0  0  0  0  0  0  0  0  0  0  0  0
   46.6150   32.8520   43.2230 C   0  0  0  0  0  0  0  0  0  0  0  0
   47.7881   35.0199   42.0196 H   0  0  0  0  0  0  0  0  0  0  0  0
   49.1684   32.3442   41.4768 H   0  0  0  0  0  0  0  0  0  0  0  0
   52.2324   33.9643   42.7864 H   0  0  0  0  0  0  0  0  0  0  0  0
   51.6273   32.5697   41.8527 H   0  0  0  0  0  0  0  0  0  0  0  0
   46.5944   33.4716   36.0525 H   0  0  0  0  0  0  0  0  0  0  0  0
   47.2442   31.2730   37.8283 H   0  0  0  0  0  0  0  0  0  0  0  0
   45.7945   31.6330   36.8031 H   0  0  0  0  0  0  0  0  0  0  0  0
   48.3991   30.2690   36.0043 H   0  0  0  0  0  0  0  0  0  0  0  0
   46.7099   29.6620   35.8600 H   0  0  0  0  0  0  0  0  0  0  0  0
   47.4919   30.3545   33.6617 H   0  0  0  0  0  0  0  0  0  0  0  0
   46.2439   31.5126   34.2297 H   0  0  0  0  0  0  0  0  0  0  0  0
   49.1579   31.8638   33.8000 H   0  0  0  0  0  0  0  0  0  0  0  0
   47.7612   33.0356   33.6625 H   0  0  0  0  0  0  0  0  0  0  0  0
   49.4212   32.2958   36.0352 H   0  0  0  0  0  0  0  0  0  0  0  0
   48.9455   33.9154   35.3729 H   0  0  0  0  0  0  0  0  0  0  0  0
   45.9591   35.4264   43.1251 H   0  0  0  0  0  0  0  0  0  0  0  0
   43.8493   36.8028   42.7434 H   0  0  0  0  0  0  0  0  0  0  0  0
   42.6807   34.1777   39.5909 H   0  0  0  0  0  0  0  0  0  0  0  0
   46.7230   31.1449   41.6067 H   0  0  0  0  0  0  0  0  0  0  0  0
   45.8019   31.9692   40.3034 H   0  0  0  0  0  0  0  0  0  0  0  0
   47.5975   32.0186   40.3034 H   0  0  0  0  0  0  0  0  0  0  0  0
   46.7258   33.7477   43.8519 H   0  0  0  0  0  0  0  0  0  0  0  0
   45.6503   32.3695   43.4388 H   0  0  0  0  0  0  0  0  0  0  0  0
   47.4330   32.1489   43.4388 H   0  0  0  0  0  0  0  0  0  0  0  0
  1  2  1  0
  1 18  1  0
  2  3  1  0
  3  4  2  0
  4  6  1  0
  5  3  1  0
  7  1  1  0
  8  7  2  0
  9  8  1  0
 10  9  1  0
 10 11  2  0
 11  7  1  0
 12 13  1  0
 12 10  1  0
 14 13  1  0
 15 14  1  0
 16 15  1  0
 16 17  1  0
 17 12  1  0
 18 26  1  0
 19 18  1  0
 19 20  2  0
 21 20  1  0
 22 21  2  0
 23 24  2  0
 23 22  1  0
 24 19  1  0
 25 18  1  0
  1 27  1  1
  2 28  1  0
  5 29  1  0
  5 30  1  0
 12 31  1  0
 13 32  1  0
 13 33  1  0
 14 34  1  0
 14 35  1  0
 15 36  1  0
 15 37  1  0
 16 38  1  0
 16 39  1  0
 17 40  1  0
 17 41  1  0
 20 42  1  0
 21 43  1  0
 23 44  1  0
 25 45  1  0
 25 46  1  0
 25 47  1  0
 26 48  1  0
 26 49  1  0
 26 50  1  0
M  ISO  8  27   8  31  13  32  13  33  13  34  13  35  13  36  13  37  13
M  ISO  8  38  13  39  13  40  13  41  13  42  14  43  14  44  14  45   8
M  ISO  5  46   8  47   8  48   8  49   8  50   8
M  END
>  <minimizedAffinity>  (1) 
-5.65180683

>  <minimizedRMSD>  (1) 
1.14068818

$$$$
