
     RDKit          3D

 36 37  0  0  1  0  0  0  0  0999 V2000
   46.6740   33.3190   42.4790 C   0  0  0  0  0  0  0  0  0  0  0  0
   45.3620   34.0420   42.2390 C   0  0  0  0  0  0  0  0  0  0  0  0
   45.3280   35.3750   42.5560 C   0  0  0  0  0  0  0  0  0  0  0  0
   44.1020   36.0330   42.3100 C   0  0  0  0  0  0  0  0  0  0  0  0
   43.0610   35.3450   41.7950 N   0  0  0  0  0  0  0  0  0  0  0  0
   43.1380   34.0170   41.4930 C   0  0  0  0  0  0  0  0  0  0  0  0
   44.2760   33.3930   41.7180 N   0  0  0  0  0  0  0  0  0  0  0  0
   46.6710   31.9280   41.9800 C   0  0  0  0  0  0  0  0  0  0  0  0
   46.8070   33.2700   44.0050 C   0  0  0  0  0  0  0  0  0  0  0  0
   47.7890   34.0650   41.8770 C   0  0  1  0  0  0  0  0  0  0  0  0
   49.0440   33.3480   42.0130 N   0  0  0  0  0  0  0  0  0  0  0  0
   50.1730   34.0380   42.4590 C   0  0  0  0  0  0  0  0  0  0  0  0
   50.2050   35.1780   43.0430 N   0  0  0  0  0  0  0  0  0  0  0  0
   51.4660   33.4890   42.2890 N   0  0  0  0  0  0  0  0  0  0  0  0
   49.3370   35.6930   43.3040 H   0  0  0  0  0  0  0  0  0  0  0  0
   47.5710   33.8640   40.3620 C   0  0  0  0  0  0  0  0  0  0  0  0
   48.2210   34.6170   39.4360 N   0  0  0  0  0  0  0  0  0  0  0  0
   47.8740   34.2750   38.2360 O   0  0  0  0  0  0  0  0  0  0  0  0
   47.0070   33.3130   38.3100 C   0  0  0  0  0  0  0  0  0  0  0  0
   46.8140   33.0530   39.6100 N   0  0  0  0  0  0  0  0  0  0  0  0
   46.3380   32.6110   37.2270 C   0  0  0  0  0  0  0  0  0  0  0  0
   45.4550   33.3090   36.6260 O   0  0  0  0  0  0  0  0  0  0  0  0
   46.1995   35.8991   42.9752 H   0  0  0  0  0  0  0  0  0  0  0  0
   43.9960   37.1039   42.5377 H   0  0  0  0  0  0  0  0  0  0  0  0
   42.2735   33.4819   41.0731 H   0  0  0  0  0  0  0  0  0  0  0  0
   46.6695   31.2327   42.8324 H   0  0  0  0  0  0  0  0  0  0  0  0
   45.7725   31.7599   41.3681 H   0  0  0  0  0  0  0  0  0  0  0  0
   47.5688   31.7560   41.3681 H   0  0  0  0  0  0  0  0  0  0  0  0
   45.8698   33.6153   44.4660 H   0  0  0  0  0  0  0  0  0  0  0  0
   47.0128   32.2370   44.3221 H   0  0  0  0  0  0  0  0  0  0  0  0
   47.6338   33.9225   44.3221 H   0  0  0  0  0  0  0  0  0  0  0  0
   47.8204   35.0778   42.3051 H   0  0  0  0  0  0  0  0  0  0  0  0
   49.1007   32.3454   41.7839 H   0  0  0  0  0  0  0  0  0  0  0  0
   52.2927   34.0057   42.6214 H   0  0  0  0  0  0  0  0  0  0  0  0
   51.5805   32.5726   41.8328 H   0  0  0  0  0  0  0  0  0  0  0  0
   46.5718   31.5723   36.9507 H   0  0  0  0  0  0  0  0  0  0  0  0
  1  9  1  0
  2  1  1  0
  2  3  2  0
  4  3  1  0
  5  4  2  0
  6  7  2  0
  6  5  1  0
  7  2  1  0
  8  1  1  0
 10 11  1  0
 10  1  1  0
 11 12  1  0
 12 13  2  0
 13 15  1  0
 14 12  1  0
 16 10  1  0
 17 16  2  0
 18 19  1  0
 18 17  1  0
 19 20  2  0
 20 16  1  0
 21 19  1  0
 22 21  2  0
  3 23  1  0
  4 24  1  0
  6 25  1  0
  8 26  1  0
  8 27  1  0
  8 28  1  0
  9 29  1  0
  9 30  1  0
  9 31  1  0
 10 32  1  6
 11 33  1  0
 14 34  1  0
 14 35  1  0
 21 36  1  0
M  ISO  8  23  14  24  14  25  14  26   8  27   8  28   8  29   8  30   8
M  ISO  3  31   8  32   8  36   6
M  END
>  <minimizedAffinity>  (1) 
-5.14561701

>  <minimizedRMSD>  (1) 
0.165609121

$$$$
