
     RDKit          3D

 46 47  0  0  1  0  0  0  0  0999 V2000
   47.7320   34.0010   42.0480 C   0  0  1  0  0  0  0  0  0  0  0  0
   48.9590   33.2540   42.2790 N   0  0  0  0  0  0  0  0  0  0  0  0
   50.1230   33.9610   42.6020 C   0  0  0  0  0  0  0  0  0  0  0  0
   50.2050   35.1730   43.0040 N   0  0  0  0  0  0  0  0  0  0  0  0
   51.3940   33.3440   42.5020 N   0  0  0  0  0  0  0  0  0  0  0  0
   49.3590   35.7450   43.2160 H   0  0  0  0  0  0  0  0  0  0  0  0
   47.6820   33.8910   40.5020 C   0  0  0  0  0  0  0  0  0  0  0  0
   48.2630   34.8120   39.6960 N   0  0  0  0  0  0  0  0  0  0  0  0
   48.0930   34.5110   38.4500 O   0  0  0  0  0  0  0  0  0  0  0  0
   47.4050   33.4020   38.3680 C   0  0  0  0  0  0  0  0  0  0  0  0
   47.1480   33.0170   39.6320 N   0  0  0  0  0  0  0  0  0  0  0  0
   46.9100   32.5770   37.2370 C   0  0  0  0  0  0  0  0  0  0  0  0
   46.7110   31.1400   37.6120 C   0  0  0  0  0  0  0  0  0  0  0  0
   47.8300   32.6310   36.0400 C   0  0  0  0  0  0  0  0  0  0  0  0
   45.5600   33.0960   36.7310 C   0  0  0  0  0  0  0  0  0  0  0  0
   46.5580   33.2250   42.4660 C   0  0  0  0  0  0  0  0  0  0  0  0
   45.2820   33.9720   42.1250 C   0  0  0  0  0  0  0  0  0  0  0  0
   45.2270   35.2930   42.4820 C   0  0  0  0  0  0  0  0  0  0  0  0
   44.0340   35.9690   42.1390 C   0  0  0  0  0  0  0  0  0  0  0  0
   43.0450   35.3080   41.5020 N   0  0  0  0  0  0  0  0  0  0  0  0
   43.1440   33.9940   41.1670 C   0  0  0  0  0  0  0  0  0  0  0  0
   44.2450   33.3590   41.4810 N   0  0  0  0  0  0  0  0  0  0  0  0
   46.6130   31.8620   41.8930 C   0  0  0  0  0  0  0  0  0  0  0  0
   46.5190   33.0840   43.9960 C   0  0  0  0  0  0  0  0  0  0  0  0
   47.7219   34.9859   42.5378 H   0  0  0  0  0  0  0  0  0  0  0  0
   48.9708   32.2266   42.2064 H   0  0  0  0  0  0  0  0  0  0  0  0
   52.2440   33.8738   42.7423 H   0  0  0  0  0  0  0  0  0  0  0  0
   51.4683   32.3655   42.1890 H   0  0  0  0  0  0  0  0  0  0  0  0
   46.6979   31.0455   38.7079 H   0  0  0  0  0  0  0  0  0  0  0  0
   45.7548   30.7830   37.2017 H   0  0  0  0  0  0  0  0  0  0  0  0
   47.5342   30.5366   37.2017 H   0  0  0  0  0  0  0  0  0  0  0  0
   48.8736   32.6923   36.3821 H   0  0  0  0  0  0  0  0  0  0  0  0
   47.6958   31.7234   35.4331 H   0  0  0  0  0  0  0  0  0  0  0  0
   47.5905   33.5166   35.4331 H   0  0  0  0  0  0  0  0  0  0  0  0
   44.9173   33.3431   37.5888 H   0  0  0  0  0  0  0  0  0  0  0  0
   45.7191   33.9971   36.1205 H   0  0  0  0  0  0  0  0  0  0  0  0
   45.0745   32.3204   36.1205 H   0  0  0  0  0  0  0  0  0  0  0  0
   46.0566   35.7949   43.0015 H   0  0  0  0  0  0  0  0  0  0  0  0
   43.9119   37.0327   42.3911 H   0  0  0  0  0  0  0  0  0  0  0  0
   42.3226   33.4792   40.6471 H   0  0  0  0  0  0  0  0  0  0  0  0
   46.6428   31.1229   42.7072 H   0  0  0  0  0  0  0  0  0  0  0  0
   45.7211   31.6887   41.2729 H   0  0  0  0  0  0  0  0  0  0  0  0
   47.5159   31.7611   41.2729 H   0  0  0  0  0  0  0  0  0  0  0  0
   46.7849   34.0454   44.4597 H   0  0  0  0  0  0  0  0  0  0  0  0
   45.5064   32.7923   44.3116 H   0  0  0  0  0  0  0  0  0  0  0  0
   47.2377   32.3134   44.3116 H   0  0  0  0  0  0  0  0  0  0  0  0
  1  2  1  0
  1 16  1  0
  2  3  1  0
  3  4  2  0
  4  6  1  0
  5  3  1  0
  7  1  1  0
  8  7  2  0
  9  8  1  0
 10  9  1  0
 10 11  2  0
 11  7  1  0
 12 13  1  0
 12 10  1  0
 14 12  1  0
 15 12  1  0
 16 24  1  0
 17 16  1  0
 17 18  2  0
 19 18  1  0
 20 19  2  0
 21 22  2  0
 21 20  1  0
 22 17  1  0
 23 16  1  0
  1 25  1  6
  2 26  1  0
  5 27  1  0
  5 28  1  0
 13 29  1  0
 13 30  1  0
 13 31  1  0
 14 32  1  0
 14 33  1  0
 14 34  1  0
 15 35  1  0
 15 36  1  0
 15 37  1  0
 18 38  1  0
 19 39  1  0
 21 40  1  0
 23 41  1  0
 23 42  1  0
 23 43  1  0
 24 44  1  0
 24 45  1  0
 24 46  1  0
M  ISO  8  25   8  29   8  30   8  31   8  32   8  33   8  34   8  35   8
M  ISO  8  36   8  37   8  38  14  39  14  40  14  41   8  42   8  43   8
M  ISO  3  44   8  45   8  46   8
M  END
>  <minimizedAffinity>  (1) 
-5.34664917

>  <minimizedRMSD>  (1) 
0.416454703

$$$$
