
     RDKit          3D

 40 41  0  0  1  0  0  0  0  0999 V2000
   46.6000   33.2660   42.6240 C   0  0  0  0  0  0  0  0  0  0  0  0
   45.3150   34.0070   42.3100 C   0  0  0  0  0  0  0  0  0  0  0  0
   45.2920   35.3490   42.6350 C   0  0  0  0  0  0  0  0  0  0  0  0
   44.0930   36.0370   42.3280 C   0  0  0  0  0  0  0  0  0  0  0  0
   43.0690   35.3700   41.7540 N   0  0  0  0  0  0  0  0  0  0  0  0
   43.1360   34.0410   41.4500 C   0  0  0  0  0  0  0  0  0  0  0  0
   44.2430   33.4020   41.7340 N   0  0  0  0  0  0  0  0  0  0  0  0
   46.6060   31.8860   42.1050 C   0  0  0  0  0  0  0  0  0  0  0  0
   46.6420   33.2040   44.1540 C   0  0  0  0  0  0  0  0  0  0  0  0
   47.7600   34.0060   42.1040 C   0  0  1  0  0  0  0  0  0  0  0  0
   48.9940   33.2610   42.3010 N   0  0  0  0  0  0  0  0  0  0  0  0
   50.1600   33.9660   42.6040 C   0  0  0  0  0  0  0  0  0  0  0  0
   50.2590   35.1770   43.0050 N   0  0  0  0  0  0  0  0  0  0  0  0
   51.4290   33.3410   42.4790 N   0  0  0  0  0  0  0  0  0  0  0  0
   49.4210   35.7530   43.2250 H   0  0  0  0  0  0  0  0  0  0  0  0
   47.6300   33.8250   40.5680 C   0  0  0  0  0  0  0  0  0  0  0  0
   48.1820   34.7060   39.6920 N   0  0  0  0  0  0  0  0  0  0  0  0
   47.9370   34.3540   38.4690 O   0  0  0  0  0  0  0  0  0  0  0  0
   47.2330   33.2600   38.4790 C   0  0  0  0  0  0  0  0  0  0  0  0
   47.0460   32.9350   39.7640 N   0  0  0  0  0  0  0  0  0  0  0  0
   46.6710   32.4140   37.3950 C   0  0  0  0  0  0  0  0  0  0  0  0
   45.5140   33.0790   36.7000 C   0  0  0  0  0  0  0  0  0  0  0  0
   46.1511   35.8519   43.1030 H   0  0  0  0  0  0  0  0  0  0  0  0
   43.9964   37.1088   42.5559 H   0  0  0  0  0  0  0  0  0  0  0  0
   42.2865   33.5230   40.9810 H   0  0  0  0  0  0  0  0  0  0  0  0
   46.6091   31.1777   42.9466 H   0  0  0  0  0  0  0  0  0  0  0  0
   45.7086   31.7214   41.4906 H   0  0  0  0  0  0  0  0  0  0  0  0
   47.5048   31.7292   41.4906 H   0  0  0  0  0  0  0  0  0  0  0  0
   46.0711   34.0468   44.5709 H   0  0  0  0  0  0  0  0  0  0  0  0
   46.1989   32.2566   44.4949 H   0  0  0  0  0  0  0  0  0  0  0  0
   47.6861   33.2641   44.4949 H   0  0  0  0  0  0  0  0  0  0  0  0
   47.7815   35.0118   42.5490 H   0  0  0  0  0  0  0  0  0  0  0  0
   49.0070   32.2344   42.2186 H   0  0  0  0  0  0  0  0  0  0  0  0
   52.2861   33.8661   42.7040 H   0  0  0  0  0  0  0  0  0  0  0  0
   51.4923   32.3626   42.1634 H   0  0  0  0  0  0  0  0  0  0  0  0
   47.4608   32.2134   36.6561 H   0  0  0  0  0  0  0  0  0  0  0  0
   46.3031   31.4821   37.8490 H   0  0  0  0  0  0  0  0  0  0  0  0
   44.8167   33.4798   37.4505 H   0  0  0  0  0  0  0  0  0  0  0  0
   45.8873   33.9004   36.0707 H   0  0  0  0  0  0  0  0  0  0  0  0
   44.9921   32.3430   36.0707 H   0  0  0  0  0  0  0  0  0  0  0  0
  1  9  1  0
  2  1  1  0
  2  3  2  0
  4  3  1  0
  5  4  2  0
  6  7  2  0
  6  5  1  0
  7  2  1  0
  8  1  1  0
 10 11  1  0
 10  1  1  0
 11 12  1  0
 12 13  2  0
 13 15  1  0
 14 12  1  0
 16 10  1  0
 17 16  2  0
 18 19  1  0
 18 17  1  0
 19 20  2  0
 20 16  1  0
 21 19  1  0
 22 21  1  0
  3 23  1  0
  4 24  1  0
  6 25  1  0
  8 26  1  0
  8 27  1  0
  8 28  1  0
  9 29  1  0
  9 30  1  0
  9 31  1  0
 10 32  1  6
 11 33  1  0
 14 34  1  0
 14 35  1  0
 21 36  1  0
 21 37  1  0
 22 38  1  0
 22 39  1  0
 22 40  1  0
M  ISO  8  23  14  24  14  25  14  26   8  27   8  28   8  29   8  30   8
M  ISO  7  31   8  32   8  36   8  37   8  38   8  39   8  40   8
M  END
>  <minimizedAffinity>  (1) 
-5.08419418

>  <minimizedRMSD>  (1) 
0.266186982

$$$$
