
     RDKit          3D

 32 34  0  0  0  0  0  0  0  0999 V2000
   46.1390   33.9950   44.3740 C   0  0  0  0  0  0  0  0  0  0  0  0
   46.0590   34.8850   43.2850 C   0  0  0  0  0  0  0  0  0  0  0  0
   45.2170   35.9890   43.3560 C   0  0  0  0  0  0  0  0  0  0  0  0
   44.5110   36.1400   44.4950 N   0  0  0  0  0  0  0  0  0  0  0  0
   44.6010   35.2750   45.5300 C   0  0  0  0  0  0  0  0  0  0  0  0
   45.4010   34.2190   45.4750 N   0  0  0  0  0  0  0  0  0  0  0  0
   46.7980   34.7700   42.0310 C   0  0  0  0  0  0  0  0  0  0  0  0
   48.0230   35.4520   42.0350 C   0  0  0  0  0  0  0  0  0  0  0  0
   48.8380   35.4510   40.9480 C   0  0  0  0  0  0  0  0  0  0  0  0
   48.4960   34.7780   39.7930 C   0  0  0  0  0  0  0  0  0  0  0  0
   47.2880   34.1060   39.7890 C   0  0  0  0  0  0  0  0  0  0  0  0
   46.8370   33.3980   38.6940 C   0  0  0  0  0  0  0  0  0  0  0  0
   45.6130   32.7190   38.7010 C   0  0  0  0  0  0  0  0  0  0  0  0
   44.8110   32.7470   39.8320 C   0  0  0  0  0  0  0  0  0  0  0  0
   45.2380   33.4500   40.9480 C   0  0  0  0  0  0  0  0  0  0  0  0
   46.4450   34.0940   40.8810 C   0  0  0  0  0  0  0  0  0  0  0  0
   47.0820   32.8860   44.1310 C   0  0  0  0  0  0  0  0  0  0  0  0
   47.0050   31.8550   45.2440 C   0  0  0  0  0  0  0  0  0  0  0  0
   45.1309   36.7038   42.5244 H   0  0  0  0  0  0  0  0  0  0  0  0
   43.9996   35.4504   46.4342 H   0  0  0  0  0  0  0  0  0  0  0  0
   48.3309   35.9998   42.9378 H   0  0  0  0  0  0  0  0  0  0  0  0
   49.7911   35.9986   40.9896 H   0  0  0  0  0  0  0  0  0  0  0  0
   49.1563   34.7763   38.9132 H   0  0  0  0  0  0  0  0  0  0  0  0
   47.4588   33.3662   37.7872 H   0  0  0  0  0  0  0  0  0  0  0  0
   45.2873   32.1632   37.8094 H   0  0  0  0  0  0  0  0  0  0  0  0
   43.8469   32.2174   39.8435 H   0  0  0  0  0  0  0  0  0  0  0  0
   44.6253   33.4894   41.8607 H   0  0  0  0  0  0  0  0  0  0  0  0
   46.8314   32.4032   43.1749 H   0  0  0  0  0  0  0  0  0  0  0  0
   48.1032   33.2936   44.0997 H   0  0  0  0  0  0  0  0  0  0  0  0
   47.0430   32.3639   46.2185 H   0  0  0  0  0  0  0  0  0  0  0  0
   46.0625   31.2942   45.1597 H   0  0  0  0  0  0  0  0  0  0  0  0
   47.8538   31.1604   45.1597 H   0  0  0  0  0  0  0  0  0  0  0  0
  1  6  2  0
  2  3  2  0
  2  1  1  0
  3  4  1  0
  4  5  2  0
  6  5  1  0
  7  8  2  0
  7  2  1  0
  9  8  1  0
 10  9  2  0
 11 10  1  0
 11 16  2  0
 12 13  2  0
 12 11  1  0
 13 14  1  0
 14 15  2  0
 16 15  1  0
 16  7  1  0
 17  1  1  0
 17 18  1  0
  3 19  1  0
  5 20  1  0
  8 21  1  0
  9 22  1  0
 10 23  1  0
 12 24  1  0
 13 25  1  0
 14 26  1  0
 15 27  1  0
 17 28  1  0
 17 29  1  0
 18 30  1  0
 18 31  1  0
 18 32  1  0
M  ISO  8  19  14  20  14  21  14  22  14  23  14  24  14  25  14  26  14
M  ISO  6  27  14  28   8  29   8  30   8  31   8  32   8
M  END
>  <minimizedAffinity>  (1) 
-5.76697063

>  <minimizedRMSD>  (1) 
3.52035213

$$$$
