
     RDKit          3D

 36 37  0  0  1  0  0  0  0  0999 V2000
   46.7000   33.2860   42.5620 C   0  0  0  0  0  0  0  0  0  0  0  0
   45.3830   33.9800   42.2690 C   0  0  0  0  0  0  0  0  0  0  0  0
   45.3280   35.3200   42.5310 C   0  0  0  0  0  0  0  0  0  0  0  0
   44.0980   35.9570   42.2380 C   0  0  0  0  0  0  0  0  0  0  0  0
   43.0770   35.2330   41.7330 N   0  0  0  0  0  0  0  0  0  0  0  0
   43.1730   33.9030   41.4880 C   0  0  0  0  0  0  0  0  0  0  0  0
   44.3100   33.3130   41.7580 N   0  0  0  0  0  0  0  0  0  0  0  0
   46.7200   31.8730   42.1310 C   0  0  0  0  0  0  0  0  0  0  0  0
   46.8160   33.3100   44.0860 C   0  0  0  0  0  0  0  0  0  0  0  0
   47.8140   34.0140   41.9410 C   0  0  1  0  0  0  0  0  0  0  0  0
   49.0720   33.3020   42.0960 N   0  0  0  0  0  0  0  0  0  0  0  0
   50.2150   34.0200   42.4820 C   0  0  0  0  0  0  0  0  0  0  0  0
   50.2480   35.1860   42.9970 N   0  0  0  0  0  0  0  0  0  0  0  0
   51.5080   33.4580   42.3130 N   0  0  0  0  0  0  0  0  0  0  0  0
   49.3940   35.7210   43.2180 H   0  0  0  0  0  0  0  0  0  0  0  0
   47.5990   33.7590   40.4260 C   0  0  0  0  0  0  0  0  0  0  0  0
   48.1060   34.6000   39.4810 N   0  0  0  0  0  0  0  0  0  0  0  0
   47.7920   34.1890   38.2890 O   0  0  0  0  0  0  0  0  0  0  0  0
   47.0810   33.0880   38.3900 C   0  0  0  0  0  0  0  0  0  0  0  0
   46.9630   32.8250   39.7010 N   0  0  0  0  0  0  0  0  0  0  0  0
   46.4530   32.1740   37.4950 N   0  0  0  0  0  0  0  0  0  0  0  0
   46.1865   35.8699   42.9441 H   0  0  0  0  0  0  0  0  0  0  0  0
   43.9753   37.0348   42.4207 H   0  0  0  0  0  0  0  0  0  0  0  0
   42.3236   33.3384   41.0760 H   0  0  0  0  0  0  0  0  0  0  0  0
   46.7292   31.2198   43.0160 H   0  0  0  0  0  0  0  0  0  0  0  0
   45.8248   31.6609   41.5280 H   0  0  0  0  0  0  0  0  0  0  0  0
   47.6209   31.6863   41.5280 H   0  0  0  0  0  0  0  0  0  0  0  0
   45.8313   33.1063   44.5319 H   0  0  0  0  0  0  0  0  0  0  0  0
   47.5321   32.5410   44.4114 H   0  0  0  0  0  0  0  0  0  0  0  0
   47.1681   34.3000   44.4114 H   0  0  0  0  0  0  0  0  0  0  0  0
   47.8424   35.0389   42.3395 H   0  0  0  0  0  0  0  0  0  0  0  0
   49.1238   32.2875   41.9254 H   0  0  0  0  0  0  0  0  0  0  0  0
   52.3423   33.9904   42.5984 H   0  0  0  0  0  0  0  0  0  0  0  0
   51.6116   32.5179   41.9050 H   0  0  0  0  0  0  0  0  0  0  0  0
   45.9396   31.3614   37.8651 H   0  0  0  0  0  0  0  0  0  0  0  0
   46.5125   32.3260   36.4780 H   0  0  0  0  0  0  0  0  0  0  0  0
  1  9  1  0
  2  3  2  0
  2  1  1  0
  4  3  1  0
  5  4  2  0
  6  5  1  0
  6  7  2  0
  7  2  1  0
  8  1  1  0
 10 11  1  0
 10  1  1  0
 11 12  1  0
 12 13  2  0
 13 15  1  0
 14 12  1  0
 16 10  1  0
 17 16  2  0
 18 19  1  0
 18 17  1  0
 19 20  2  0
 20 16  1  0
 21 19  1  0
  3 22  1  0
  4 23  1  0
  6 24  1  0
  8 25  1  0
  8 26  1  0
  8 27  1  0
  9 28  1  0
  9 29  1  0
  9 30  1  0
 10 31  1  6
 11 32  1  0
 14 33  1  0
 14 34  1  0
 21 35  1  0
 21 36  1  0
M  ISO  8  22  14  23  14  24  14  25   8  26   8  27   8  28   8  29   8
M  ISO  2  30   8  31   8
M  END
>  <minimizedAffinity>  (1) 
-5.07140923

>  <minimizedRMSD>  (1) 
0.0857462361

$$$$
