
     RDKit          3D

 30 32  0  0  0  0  0  0  0  0999 V2000
   46.1280   34.0220   41.0150 C   0  0  0  0  0  0  0  0  0  0  0  0
   46.7070   34.5530   42.1860 C   0  0  0  0  0  0  0  0  0  0  0  0
   47.9900   35.0900   42.1470 C   0  0  0  0  0  0  0  0  0  0  0  0
   48.6360   35.0740   40.9500 N   0  0  0  0  0  0  0  0  0  0  0  0
   48.0540   34.5560   39.8400 C   0  0  0  0  0  0  0  0  0  0  0  0
   46.8300   34.0420   39.8680 N   0  0  0  0  0  0  0  0  0  0  0  0
   46.0660   34.5900   43.4550 N   0  0  0  0  0  0  0  0  0  0  0  0
   45.1930   35.4890   43.9910 C   0  0  0  0  0  0  0  0  0  0  0  0
   44.8570   35.0910   45.2450 N   0  0  0  0  0  0  0  0  0  0  0  0
   45.5110   33.9560   45.4950 C   0  0  0  0  0  0  0  0  0  0  0  0
   45.5230   33.1470   46.6090 C   0  0  0  0  0  0  0  0  0  0  0  0
   44.8560   33.3720   47.6670 O   0  0  0  0  0  0  0  0  0  0  0  0
   46.2760   32.0210   46.6450 N   0  0  0  0  0  0  0  0  0  0  0  0
   47.0090   31.7280   45.5430 C   0  0  0  0  0  0  0  0  0  0  0  0
   47.8590   30.5740   45.4160 N   0  0  0  0  0  0  0  0  0  0  0  0
   47.0120   32.5120   44.4330 N   0  0  0  0  0  0  0  0  0  0  0  0
   46.2770   33.6290   44.3760 C   0  0  0  0  0  0  0  0  0  0  0  0
   44.7710   33.5010   41.2260 C   0  0  0  0  0  0  0  0  0  0  0  0
   43.7350   34.4390   40.6140 C   0  0  0  0  0  0  0  0  0  0  0  0
   48.4625   35.5102   43.0471 H   0  0  0  0  0  0  0  0  0  0  0  0
   48.6107   34.5618   38.8913 H   0  0  0  0  0  0  0  0  0  0  0  0
   44.8199   36.3932   43.4878 H   0  0  0  0  0  0  0  0  0  0  0  0
   46.2908   31.4125   47.4759 H   0  0  0  0  0  0  0  0  0  0  0  0
   48.3872   30.4167   44.5458 H   0  0  0  0  0  0  0  0  0  0  0  0
   47.9393   29.9052   46.1952 H   0  0  0  0  0  0  0  0  0  0  0  0
   44.6862   32.5111   40.7538 H   0  0  0  0  0  0  0  0  0  0  0  0
   44.5848   33.4237   42.3074 H   0  0  0  0  0  0  0  0  0  0  0  0
   43.1776   34.9436   41.4169 H   0  0  0  0  0  0  0  0  0  0  0  0
   44.2430   35.1906   39.9919 H   0  0  0  0  0  0  0  0  0  0  0  0
   43.0374   33.8590   39.9919 H   0  0  0  0  0  0  0  0  0  0  0  0
  1 18  1  0
  1  2  2  0
  2  7  1  0
  3  2  1  0
  4  3  2  0
  5  6  2  0
  5  4  1  0
  6  1  1  0
  7  8  1  0
  7 17  1  0
  8  9  2  0
  9 10  1  0
 10 11  1  0
 11 13  1  0
 11 12  2  0
 14 13  1  0
 15 14  1  0
 16 14  2  0
 17 16  1  0
 17 10  2  0
 19 18  1  0
  3 20  1  0
  5 21  1  0
  8 22  1  0
 13 23  1  0
 15 24  1  0
 15 25  1  0
 18 26  1  0
 18 27  1  0
 19 28  1  0
 19 29  1  0
 19 30  1  0
M  ISO  8  20  14  21  14  22  14  23   9  26   8  27   8  28   8  29   8
M  ISO  1  30   8
M  END
>  <minimizedAffinity>  (1) 
-5.0945096

>  <minimizedRMSD>  (1) 
6.01982832

$$$$
