
     RDKit          3D

 30 32  0  0  0  0  0  0  0  0999 V2000
   46.1340   33.9490   44.5390 C   0  0  0  0  0  0  0  0  0  0  0  0
   46.1090   34.7450   43.3990 C   0  0  0  0  0  0  0  0  0  0  0  0
   45.2580   35.8790   43.3690 C   0  0  0  0  0  0  0  0  0  0  0  0
   44.5100   36.1110   44.4840 N   0  0  0  0  0  0  0  0  0  0  0  0
   44.5540   35.3250   45.5720 C   0  0  0  0  0  0  0  0  0  0  0  0
   45.3550   34.2590   45.5950 N   0  0  0  0  0  0  0  0  0  0  0  0
   46.8440   34.7210   42.1510 C   0  0  0  0  0  0  0  0  0  0  0  0
   48.0420   35.3510   41.9090 N   0  0  0  0  0  0  0  0  0  0  0  0
   48.6290   35.2410   40.6980 C   0  0  0  0  0  0  0  0  0  0  0  0
   48.1290   34.5400   39.6620 N   0  0  0  0  0  0  0  0  0  0  0  0
   46.9330   33.8900   39.8490 C   0  0  0  0  0  0  0  0  0  0  0  0
   46.5060   33.1750   38.7520 C   0  0  0  0  0  0  0  0  0  0  0  0
   45.3180   32.4840   38.9350 C   0  0  0  0  0  0  0  0  0  0  0  0
   44.6170   32.5200   40.1480 C   0  0  0  0  0  0  0  0  0  0  0  0
   45.1590   33.2790   41.1590 C   0  0  0  0  0  0  0  0  0  0  0  0
   46.3430   34.0100   41.0880 C   0  0  0  0  0  0  0  0  0  0  0  0
   47.0580   32.8050   44.4070 C   0  0  0  0  0  0  0  0  0  0  0  0
   46.2940   31.4960   44.2860 C   0  0  0  0  0  0  0  0  0  0  0  0
   45.2045   36.5381   42.4899 H   0  0  0  0  0  0  0  0  0  0  0  0
   43.9284   35.5608   46.4455 H   0  0  0  0  0  0  0  0  0  0  0  0
   49.5858   35.7621   40.5463 H   0  0  0  0  0  0  0  0  0  0  0  0
   47.0641   33.1538   37.8043 H   0  0  0  0  0  0  0  0  0  0  0  0
   44.9133   31.8894   38.1027 H   0  0  0  0  0  0  0  0  0  0  0  0
   43.6763   31.9666   40.2853 H   0  0  0  0  0  0  0  0  0  0  0  0
   44.6075   33.3119   42.1102 H   0  0  0  0  0  0  0  0  0  0  0  0
   47.6765   32.9445   43.5081 H   0  0  0  0  0  0  0  0  0  0  0  0
   47.6889   32.7596   45.3069 H   0  0  0  0  0  0  0  0  0  0  0  0
   46.0682   31.1091   45.2906 H   0  0  0  0  0  0  0  0  0  0  0  0
   45.3549   31.6687   43.7399 H   0  0  0  0  0  0  0  0  0  0  0  0
   46.9062   30.7632   43.7399 H   0  0  0  0  0  0  0  0  0  0  0  0
  1  6  2  0
  2  1  1  0
  3  2  2  0
  3  4  1  0
  4  5  2  0
  5  6  1  0
  7  2  1  0
  8  7  2  0
  9  8  1  0
 10 11  1  0
 10  9  2  0
 11 16  2  0
 12 13  2  0
 12 11  1  0
 13 14  1  0
 14 15  2  0
 16 15  1  0
 16  7  1  0
 17  1  1  0
 18 17  1  0
  3 19  1  0
  5 20  1  0
  9 21  1  0
 12 22  1  0
 13 23  1  0
 14 24  1  0
 15 25  1  0
 17 26  1  0
 17 27  1  0
 18 28  1  0
 18 29  1  0
 18 30  1  0
M  ISO  8  19  14  20  14  21  14  22  14  23  14  24  14  25  14  26   8
M  ISO  4  27   8  28   8  29   8  30   8
M  END
>  <minimizedAffinity>  (1) 
-4.98729563

>  <minimizedRMSD>  (1) 
3.8360076

$$$$
