
     RDKit          3D

 19 19  0  0  0  0  0  0  0  0999 V2000
   46.8120   34.2910   43.1420 C   0  0  0  0  0  0  0  0  0  0  0  0
   45.6660   34.8000   43.8060 C   0  0  0  0  0  0  0  0  0  0  0  0
   45.3390   34.1780   45.0370 C   0  0  0  0  0  0  0  0  0  0  0  0
   46.0920   33.1700   45.5160 N   0  0  0  0  0  0  0  0  0  0  0  0
   47.1920   32.7180   44.8320 C   0  0  0  0  0  0  0  0  0  0  0  0
   47.5060   33.2940   43.6760 N   0  0  0  0  0  0  0  0  0  0  0  0
   44.7890   35.8940   43.3480 C   0  0  0  0  0  0  0  0  0  0  0  0
   43.6870   36.0070   44.2030 F   0  0  0  0  0  0  0  0  0  0  0  0
   45.3870   37.1310   43.3320 F   0  0  0  0  0  0  0  0  0  0  0  0
   44.2040   35.6200   42.1030 F   0  0  0  0  0  0  0  0  0  0  0  0
   47.0850   34.9590   41.8690 C   0  0  0  0  0  0  0  0  0  0  0  0
   48.5050   35.4340   41.7630 C   0  0  0  0  0  0  0  0  0  0  0  0
   44.4625   34.5218   45.6058 H   0  0  0  0  0  0  0  0  0  0  0  0
   47.8022   31.8950   45.2324 H   0  0  0  0  0  0  0  0  0  0  0  0
   46.8873   34.2519   41.0499 H   0  0  0  0  0  0  0  0  0  0  0  0
   46.4314   35.8416   41.8074 H   0  0  0  0  0  0  0  0  0  0  0  0
   48.9213   35.5733   42.7716 H   0  0  0  0  0  0  0  0  0  0  0  0
   49.1021   34.6867   41.2199 H   0  0  0  0  0  0  0  0  0  0  0  0
   48.5322   36.3902   41.2199 H   0  0  0  0  0  0  0  0  0  0  0  0
  1  6  2  0
  1  2  1  0
  2  3  2  0
  3  4  1  0
  5  4  2  0
  6  5  1  0
  7  2  1  0
  7  8  1  0
  9  7  1  0
 10  7  1  0
 11  1  1  0
 12 11  1  0
  3 13  1  0
  5 14  1  0
 11 15  1  0
 11 16  1  0
 12 17  1  0
 12 18  1  0
 12 19  1  0
M  ISO  7  13  14  14  14  15   8  16   8  17   8  18   8  19   8
M  END
>  <minimizedAffinity>  (1) 
-4.16053343

>  <minimizedRMSD>  (1) 
1.40043843

$$$$
