
     RDKit          3D

 29 30  0  0  0  0  0  0  0  0999 V2000
   46.0570   33.9310   44.7710 C   0  0  0  0  0  0  0  0  0  0  0  0
   46.3320   34.5190   43.5120 C   0  0  0  0  0  0  0  0  0  0  0  0
   45.5890   35.6830   43.2200 C   0  0  0  0  0  0  0  0  0  0  0  0
   44.6910   36.1780   44.0960 N   0  0  0  0  0  0  0  0  0  0  0  0
   44.4700   35.5670   45.2990 C   0  0  0  0  0  0  0  0  0  0  0  0
   45.1560   34.4510   45.6220 N   0  0  0  0  0  0  0  0  0  0  0  0
   47.3130   33.9610   42.5810 C   0  0  0  0  0  0  0  0  0  0  0  0
   46.9240   34.3160   41.1460 C   0  0  0  0  0  0  0  0  0  0  0  0
   48.1990   34.7820   40.4750 C   0  0  0  0  0  0  0  0  0  0  0  0
   49.2830   34.1830   41.3670 C   0  0  0  0  0  0  0  0  0  0  0  0
   48.7040   34.5060   42.7370 C   0  0  0  0  0  0  0  0  0  0  0  0
   46.8180   32.7060   45.0430 C   0  0  0  0  0  0  0  0  0  0  0  0
   46.8940   32.3910   46.5120 C   0  0  0  0  0  0  0  0  0  0  0  0
   45.7454   36.1962   42.2597 H   0  0  0  0  0  0  0  0  0  0  0  0
   43.7343   35.9845   46.0022 H   0  0  0  0  0  0  0  0  0  0  0  0
   47.3118   32.8831   42.8002 H   0  0  0  0  0  0  0  0  0  0  0  0
   46.5201   33.4329   40.6292 H   0  0  0  0  0  0  0  0  0  0  0  0
   46.1454   35.0925   41.1184 H   0  0  0  0  0  0  0  0  0  0  0  0
   48.2714   34.3951   39.4478 H   0  0  0  0  0  0  0  0  0  0  0  0
   48.2676   35.8755   40.3775 H   0  0  0  0  0  0  0  0  0  0  0  0
   49.3862   33.0988   41.2124 H   0  0  0  0  0  0  0  0  0  0  0  0
   50.2969   34.5705   41.1888 H   0  0  0  0  0  0  0  0  0  0  0  0
   48.6967   35.5889   42.9299 H   0  0  0  0  0  0  0  0  0  0  0  0
   49.2682   34.0877   43.5836 H   0  0  0  0  0  0  0  0  0  0  0  0
   46.3309   31.8658   44.5265 H   0  0  0  0  0  0  0  0  0  0  0  0
   47.8447   32.8621   44.6804 H   0  0  0  0  0  0  0  0  0  0  0  0
   46.6750   33.2987   47.0935 H   0  0  0  0  0  0  0  0  0  0  0  0
   46.1582   31.6113   46.7584 H   0  0  0  0  0  0  0  0  0  0  0  0
   47.9044   32.0326   46.7584 H   0  0  0  0  0  0  0  0  0  0  0  0
  1 12  1  0
  1  6  2  0
  2  1  1  0
  3  2  2  0
  3  4  1  0
  4  5  2  0
  5  6  1  0
  7 11  1  0
  7  2  1  0
  8  7  1  0
  9  8  1  0
  9 10  1  0
 10 11  1  0
 12 13  1  0
  3 14  1  0
  5 15  1  0
  7 16  1  0
  8 17  1  0
  8 18  1  0
  9 19  1  0
  9 20  1  0
 10 21  1  0
 10 22  1  0
 11 23  1  0
 11 24  1  0
 12 25  1  0
 12 26  1  0
 13 27  1  0
 13 28  1  0
 13 29  1  0
M  ISO  8  14  14  15  14  16  13  17  13  18  13  19  13  20  13  21  13
M  ISO  8  22  13  23  13  24  13  25   8  26   8  27   8  28   8  29   8
M  END
>  <minimizedAffinity>  (1) 
-4.48257017

>  <minimizedRMSD>  (1) 
3.9453423

$$$$
