
     RDKit          3D

 23 24  0  0  0  0  0  0  0  0999 V2000
   46.3910   33.8670   44.4140 C   0  0  0  0  0  0  0  0  0  0  0  0
   47.0900   34.3320   43.3120 C   0  0  0  0  0  0  0  0  0  0  0  0
   46.4530   35.4070   42.6500 C   0  0  0  0  0  0  0  0  0  0  0  0
   45.2820   35.9130   43.0750 N   0  0  0  0  0  0  0  0  0  0  0  0
   44.6440   35.4200   44.1610 C   0  0  0  0  0  0  0  0  0  0  0  0
   45.2210   34.4140   44.7930 N   0  0  0  0  0  0  0  0  0  0  0  0
   48.3510   33.9470   42.7860 C   0  0  0  0  0  0  0  0  0  0  0  0
   48.7430   32.9650   41.9120 C   0  0  0  0  0  0  0  0  0  0  0  0
   50.0760   32.9550   41.7370 N   0  0  0  0  0  0  0  0  0  0  0  0
   50.5870   33.9410   42.5050 C   0  0  0  0  0  0  0  0  0  0  0  0
   49.5440   34.4990   43.1040 N   0  0  0  0  0  0  0  0  0  0  0  0
   46.9590   32.7060   45.1440 C   0  0  0  0  0  0  0  0  0  0  0  0
   46.6770   32.7580   46.6140 C   0  0  0  0  0  0  0  0  0  0  0  0
   46.9302   35.8427   41.7598 H   0  0  0  0  0  0  0  0  0  0  0  0
   43.6861   35.8388   44.5030 H   0  0  0  0  0  0  0  0  0  0  0  0
   48.0506   32.2699   41.4146 H   0  0  0  0  0  0  0  0  0  0  0  0
   51.6452   34.2220   42.6113 H   0  0  0  0  0  0  0  0  0  0  0  0
   49.6350   35.2890   43.7586 H   0  0  0  0  0  0  0  0  0  0  0  0
   46.5224   31.7835   44.7336 H   0  0  0  0  0  0  0  0  0  0  0  0
   48.0508   32.7305   45.0124 H   0  0  0  0  0  0  0  0  0  0  0  0
   47.6090   32.5861   47.1724 H   0  0  0  0  0  0  0  0  0  0  0  0
   46.2703   33.7463   46.8746 H   0  0  0  0  0  0  0  0  0  0  0  0
   45.9446   31.9798   46.8746 H   0  0  0  0  0  0  0  0  0  0  0  0
  1  6  2  0
  1 12  1  0
  2  1  1  0
  3  4  1  0
  3  2  2  0
  4  5  2  0
  5  6  1  0
  7 11  1  0
  7  2  1  0
  8  7  2  0
  9  8  1  0
  9 10  2  0
 10 11  1  0
 12 13  1  0
  3 14  1  0
  5 15  1  0
  8 16  1  0
 10 17  1  0
 11 18  1  0
 12 19  1  0
 12 20  1  0
 13 21  1  0
 13 22  1  0
 13 23  1  0
M  ISO  8  14  14  15  14  16  14  17  14  18   9  19   8  20   8  21   8
M  ISO  2  22   8  23   8
M  END
>  <minimizedAffinity>  (1) 
-4.28105068

>  <minimizedRMSD>  (1) 
4.63220692

$$$$
