
     RDKit          3D

 23 23  0  0  0  0  0  0  0  0999 V2000
   46.6890   33.2470   43.3000 C   0  0  0  0  0  0  0  0  0  0  0  0
   45.6570   33.5420   44.2080 C   0  0  0  0  0  0  0  0  0  0  0  0
   45.6110   32.6930   45.3390 C   0  0  0  0  0  0  0  0  0  0  0  0
   46.4990   31.6890   45.5070 N   0  0  0  0  0  0  0  0  0  0  0  0
   47.4750   31.4610   44.5840 C   0  0  0  0  0  0  0  0  0  0  0  0
   47.5550   32.2300   43.5110 N   0  0  0  0  0  0  0  0  0  0  0  0
   44.7740   34.6150   44.0150 N   0  0  0  0  0  0  0  0  0  0  0  0
   44.6500   35.6810   44.9160 C   0  0  0  0  0  0  0  0  0  0  0  0
   44.5120   35.4560   46.1700 N   0  0  0  0  0  0  0  0  0  0  0  0
   44.6560   37.0430   44.4720 N   0  0  0  0  0  0  0  0  0  0  0  0
   44.4890   34.4950   46.5380 H   0  0  0  0  0  0  0  0  0  0  0  0
   46.7460   34.0990   42.1030 C   0  0  0  0  0  0  0  0  0  0  0  0
   47.9150   35.0570   42.1400 C   0  0  0  0  0  0  0  0  0  0  0  0
   44.8332   32.8545   46.0999 H   0  0  0  0  0  0  0  0  0  0  0  0
   48.1933   30.6409   44.7307 H   0  0  0  0  0  0  0  0  0  0  0  0
   44.1873   34.6194   43.1684 H   0  0  0  0  0  0  0  0  0  0  0  0
   44.5632   37.8079   45.1555 H   0  0  0  0  0  0  0  0  0  0  0  0
   44.7531   37.2574   43.4692 H   0  0  0  0  0  0  0  0  0  0  0  0
   45.8140   34.6795   42.0365 H   0  0  0  0  0  0  0  0  0  0  0  0
   46.8728   33.4446   41.2280 H   0  0  0  0  0  0  0  0  0  0  0  0
   48.1789   35.2733   43.1858 H   0  0  0  0  0  0  0  0  0  0  0  0
   48.7776   34.6027   41.6306 H   0  0  0  0  0  0  0  0  0  0  0  0
   47.6390   35.9921   41.6306 H   0  0  0  0  0  0  0  0  0  0  0  0
  1  6  2  0
  1  2  1  0
  2  3  2  0
  3  4  1  0
  5  4  2  0
  6  5  1  0
  7  2  1  0
  7  8  1  0
  8  9  2  0
  9 11  1  0
 10  8  1  0
 12 13  1  0
 12  1  1  0
  3 14  1  0
  5 15  1  0
  7 16  1  0
 10 17  1  0
 10 18  1  0
 12 19  1  0
 12 20  1  0
 13 21  1  0
 13 22  1  0
 13 23  1  0
M  ISO  7  14  14  15  14  19   8  20   8  21   8  22   8  23   8
M  END
>  <minimizedAffinity>  (1) 
-4.05517244

>  <minimizedRMSD>  (1) 
3.21584415

$$$$
