
     RDKit          3D

 25 25  0  0  0  0  0  0  0  0999 V2000
   47.2980   34.2520   42.7850 C   0  0  0  0  0  0  0  0  0  0  0  0
   46.0860   34.7210   43.3260 C   0  0  0  0  0  0  0  0  0  0  0  0
   45.5730   34.0610   44.4470 C   0  0  0  0  0  0  0  0  0  0  0  0
   46.2490   33.0120   44.9660 N   0  0  0  0  0  0  0  0  0  0  0  0
   47.4280   32.5880   44.4080 C   0  0  0  0  0  0  0  0  0  0  0  0
   47.9240   33.2210   43.3270 N   0  0  0  0  0  0  0  0  0  0  0  0
   47.7190   35.0230   41.6110 C   0  0  0  0  0  0  0  0  0  0  0  0
   49.0560   35.6730   41.7830 C   0  0  0  0  0  0  0  0  0  0  0  0
   45.3070   35.8840   42.7760 C   0  0  0  0  0  0  0  0  0  0  0  0
   44.0850   35.4250   42.0480 C   0  0  0  0  0  0  0  0  0  0  0  0
   44.8670   36.7560   43.9410 C   0  0  0  0  0  0  0  0  0  0  0  0
   44.6281   34.3925   44.9022 H   0  0  0  0  0  0  0  0  0  0  0  0
   47.9673   31.7332   44.8420 H   0  0  0  0  0  0  0  0  0  0  0  0
   46.9709   35.8066   41.4203 H   0  0  0  0  0  0  0  0  0  0  0  0
   47.8027   34.3193   40.7697 H   0  0  0  0  0  0  0  0  0  0  0  0
   49.2764   35.7801   42.8554 H   0  0  0  0  0  0  0  0  0  0  0  0
   49.8299   35.0506   41.3100 H   0  0  0  0  0  0  0  0  0  0  0  0
   49.0445   36.6661   41.3100 H   0  0  0  0  0  0  0  0  0  0  0  0
   45.9486   36.4361   42.0735 H   0  0  0  0  0  0  0  0  0  0  0  0
   43.3123   35.1348   42.7752 H   0  0  0  0  0  0  0  0  0  0  0  0
   43.7058   36.2420   41.4165 H   0  0  0  0  0  0  0  0  0  0  0  0
   44.3375   34.5604   41.4165 H   0  0  0  0  0  0  0  0  0  0  0  0
   45.1189   36.2568   44.8883 H   0  0  0  0  0  0  0  0  0  0  0  0
   45.3837   37.7257   43.8888 H   0  0  0  0  0  0  0  0  0  0  0  0
   43.7800   36.9165   43.8888 H   0  0  0  0  0  0  0  0  0  0  0  0
  1  2  2  0
  1  6  1  0
  2  3  1  0
  3  4  2  0
  5  4  1  0
  6  5  2  0
  7  8  1  0
  7  1  1  0
  9  2  1  0
  9 11  1  0
 10  9  1  0
  3 12  1  0
  5 13  1  0
  7 14  1  0
  7 15  1  0
  8 16  1  0
  8 17  1  0
  8 18  1  0
  9 19  1  0
 10 20  1  0
 10 21  1  0
 10 22  1  0
 11 23  1  0
 11 24  1  0
 11 25  1  0
M  ISO  8  12  14  13  14  14   8  15   8  16   8  17   8  18   8  19   8
M  ISO  6  20   8  21   8  22   8  23   8  24   8  25   8
M  END
>  <minimizedAffinity>  (1) 
-3.75633454

>  <minimizedRMSD>  (1) 
1.10443699

$$$$
