
     RDKit          3D

 23 24  0  0  0  0  0  0  0  0999 V2000
   46.1960   33.9500   44.5800 C   0  0  0  0  0  0  0  0  0  0  0  0
   46.7520   34.4580   43.4010 C   0  0  0  0  0  0  0  0  0  0  0  0
   46.0920   35.5800   42.8500 C   0  0  0  0  0  0  0  0  0  0  0  0
   45.0010   36.1060   43.4440 N   0  0  0  0  0  0  0  0  0  0  0  0
   44.5040   35.5650   44.5970 C   0  0  0  0  0  0  0  0  0  0  0  0
   45.1050   34.5150   45.1300 N   0  0  0  0  0  0  0  0  0  0  0  0
   47.9300   33.9580   42.7090 C   0  0  0  0  0  0  0  0  0  0  0  0
   47.9040   33.1450   41.6010 C   0  0  0  0  0  0  0  0  0  0  0  0
   49.1940   32.8680   41.2110 C   0  0  0  0  0  0  0  0  0  0  0  0
   49.9840   33.5380   42.1180 C   0  0  0  0  0  0  0  0  0  0  0  0
   49.2010   34.1370   42.9410 O   0  0  0  0  0  0  0  0  0  0  0  0
   46.8690   32.7740   45.1610 C   0  0  0  0  0  0  0  0  0  0  0  0
   46.7020   32.7330   46.6760 C   0  0  0  0  0  0  0  0  0  0  0  0
   46.4740   36.0313   41.9224 H   0  0  0  0  0  0  0  0  0  0  0  0
   43.6138   35.9986   45.0760 H   0  0  0  0  0  0  0  0  0  0  0  0
   46.9952   32.7743   41.1044 H   0  0  0  0  0  0  0  0  0  0  0  0
   49.5215   32.2488   40.3629 H   0  0  0  0  0  0  0  0  0  0  0  0
   51.0837   33.5568   42.1346 H   0  0  0  0  0  0  0  0  0  0  0  0
   46.4337   31.8615   44.7276 H   0  0  0  0  0  0  0  0  0  0  0  0
   47.9428   32.8396   44.9315 H   0  0  0  0  0  0  0  0  0  0  0  0
   47.6626   32.9688   47.1573 H   0  0  0  0  0  0  0  0  0  0  0  0
   45.9473   33.4725   46.9818 H   0  0  0  0  0  0  0  0  0  0  0  0
   46.3756   31.7281   46.9818 H   0  0  0  0  0  0  0  0  0  0  0  0
  1  6  2  0
  1 12  1  0
  2  1  1  0
  3  2  2  0
  3  4  1  0
  4  5  2  0
  5  6  1  0
  7 11  1  0
  7  2  1  0
  8  7  2  0
  9  8  1  0
  9 10  2  0
 10 11  1  0
 12 13  1  0
  3 14  1  0
  5 15  1  0
  8 16  1  0
  9 17  1  0
 10 18  1  0
 12 19  1  0
 12 20  1  0
 13 21  1  0
 13 22  1  0
 13 23  1  0
M  ISO  8  14  14  15  14  16  14  17  14  18  14  19   8  20   8  21   8
M  ISO  2  22   8  23   8
M  END
>  <minimizedAffinity>  (1) 
-3.92120576

>  <minimizedRMSD>  (1) 
4.38161278

$$$$
