
     RDKit          3D

 45 48  0  0  0  0  0  0  0  0999 V2000
   48.2590   34.1850   42.0080 C   0  0  0  0  0  0  0  0  0  0  0  0
   44.9390   35.3930   43.3380 C   0  0  0  0  0  0  0  0  0  0  0  0
   46.0530   35.1990   42.5150 C   0  0  0  0  0  0  0  0  0  0  0  0
   47.0950   34.3910   42.8750 C   0  0  0  0  0  0  0  0  0  0  0  0
   47.0130   33.7680   44.0840 N   0  0  0  0  0  0  0  0  0  0  0  0
   45.9100   33.9720   44.8740 C   0  0  0  0  0  0  0  0  0  0  0  0
   44.9110   34.7540   44.5160 N   0  0  0  0  0  0  0  0  0  0  0  0
   45.9060   33.2810   46.1210 N   0  0  0  0  0  0  0  0  0  0  0  0
   46.7750   32.2290   46.1310 C   0  0  0  0  0  0  0  0  0  0  0  0
   46.9100   31.4410   47.2510 C   0  0  0  0  0  0  0  0  0  0  0  0
   47.8490   30.2820   47.3020 C   0  0  0  0  0  0  0  0  0  0  0  0
   46.1270   31.7770   48.3370 C   0  0  0  0  0  0  0  0  0  0  0  0
   46.1880   31.1010   49.4170 O   0  0  0  0  0  0  0  0  0  0  0  0
   45.2730   32.8150   48.3200 N   0  0  0  0  0  0  0  0  0  0  0  0
   45.1620   33.5710   47.2060 C   0  0  0  0  0  0  0  0  0  0  0  0
   44.4140   34.5760   47.0170 O   0  0  0  0  0  0  0  0  0  0  0  0
   48.3980   35.1750   40.9010 C   0  0  0  0  0  0  0  0  0  0  0  0
   48.0250   34.5060   39.6220 C   0  0  0  0  0  0  0  0  0  0  0  0
   48.6740   34.7740   38.4360 C   0  0  0  0  0  0  0  0  0  0  0  0
   48.3940   34.2030   37.2160 C   0  0  0  0  0  0  0  0  0  0  0  0
   47.3700   33.2890   37.2230 N   0  0  0  0  0  0  0  0  0  0  0  0
   46.7280   33.0200   38.3800 C   0  0  0  0  0  0  0  0  0  0  0  0
   47.0040   33.5820   39.5800 N   0  0  0  0  0  0  0  0  0  0  0  0
   45.6490   32.0370   38.3160 C   0  0  0  0  0  0  0  0  0  0  0  0
   44.6260   32.0470   39.2560 C   0  0  0  0  0  0  0  0  0  0  0  0
   43.6170   31.1210   39.1920 C   0  0  0  0  0  0  0  0  0  0  0  0
   43.5930   30.2050   38.2390 N   0  0  0  0  0  0  0  0  0  0  0  0
   44.5910   30.2060   37.3320 C   0  0  0  0  0  0  0  0  0  0  0  0
   45.6170   31.1050   37.3550 N   0  0  0  0  0  0  0  0  0  0  0  0
   49.1637   34.2395   42.6313 H   0  0  0  0  0  0  0  0  0  0  0  0
   48.1192   33.2041   41.5302 H   0  0  0  0  0  0  0  0  0  0  0  0
   44.1121   36.0491   43.0285 H   0  0  0  0  0  0  0  0  0  0  0  0
   46.0920   35.7146   41.5441 H   0  0  0  0  0  0  0  0  0  0  0  0
   47.3736   32.0087   45.2348 H   0  0  0  0  0  0  0  0  0  0  0  0
   48.0574   30.0248   48.3510 H   0  0  0  0  0  0  0  0  0  0  0  0
   47.3930   29.4181   46.7963 H   0  0  0  0  0  0  0  0  0  0  0  0
   48.7887   30.5489   46.7963 H   0  0  0  0  0  0  0  0  0  0  0  0
   44.7062   33.0328   49.1520 H   0  0  0  0  0  0  0  0  0  0  0  0
   47.7302   36.0303   41.0814 H   0  0  0  0  0  0  0  0  0  0  0  0
   49.4343   35.5402   40.8484 H   0  0  0  0  0  0  0  0  0  0  0  0
   49.4898   35.5112   38.4678 H   0  0  0  0  0  0  0  0  0  0  0  0
   48.9498   34.4600   36.3022 H   0  0  0  0  0  0  0  0  0  0  0  0
   44.6256   32.8020   40.0560 H   0  0  0  0  0  0  0  0  0  0  0  0
   42.8153   31.1405   39.9449 H   0  0  0  0  0  0  0  0  0  0  0  0
   44.5772   29.4465   36.5364 H   0  0  0  0  0  0  0  0  0  0  0  0
  1  4  1  0
  2  7  2  0
  3  4  2  0
  3  2  1  0
  4  5  1  0
  5  6  2  0
  6  8  1  0
  7  6  1  0
  8  9  1  0
  8 15  1  0
  9 10  2  0
 10 11  1  0
 10 12  1  0
 12 13  2  0
 14 12  1  0
 15 14  1  0
 16 15  2  0
 17  1  1  0
 18 17  1  0
 19 18  2  0
 20 21  2  0
 20 19  1  0
 21 22  1  0
 22 23  2  0
 23 18  1  0
 24 22  1  0
 24 25  2  0
 26 25  1  0
 27 26  2  0
 28 29  2  0
 28 27  1  0
 29 24  1  0
  1 30  1  0
  1 31  1  0
  2 32  1  0
  3 33  1  0
  9 34  1  0
 11 35  1  0
 11 36  1  0
 11 37  1  0
 14 38  1  0
 17 39  1  0
 17 40  1  0
 19 41  1  0
 20 42  1  0
 25 43  1  0
 26 44  1  0
 28 45  1  0
M  ISO  8  30   8  31   8  32  14  33  14  34  14  35   8  36   8  37   8
M  ISO  8  38   9  39   8  40   8  41  14  42  14  43  14  44  14  45  14
M  END
>  <minimizedAffinity>  (1) 
-6.67107821

>  <minimizedRMSD>  (1) 
1.45446956

$$$$
