
     RDKit          3D

 23 24  0  0  0  0  0  0  0  0999 V2000
   46.2570   33.8870   44.4890 C   0  0  0  0  0  0  0  0  0  0  0  0
   46.9050   34.3040   43.3200 C   0  0  0  0  0  0  0  0  0  0  0  0
   46.3660   35.3920   42.6110 C   0  0  0  0  0  0  0  0  0  0  0  0
   45.2510   35.9900   43.0800 N   0  0  0  0  0  0  0  0  0  0  0  0
   44.6560   35.5410   44.2320 C   0  0  0  0  0  0  0  0  0  0  0  0
   45.1640   34.5120   44.9030 N   0  0  0  0  0  0  0  0  0  0  0  0
   48.0720   33.7570   42.7360 N   0  0  0  0  0  0  0  0  0  0  0  0
   49.2850   34.3560   42.8560 C   0  0  0  0  0  0  0  0  0  0  0  0
   50.2620   33.6320   42.2020 C   0  0  0  0  0  0  0  0  0  0  0  0
   49.6190   32.5700   41.6750 N   0  0  0  0  0  0  0  0  0  0  0  0
   48.3280   32.6600   42.0010 C   0  0  0  0  0  0  0  0  0  0  0  0
   46.9350   32.7430   45.1160 C   0  0  0  0  0  0  0  0  0  0  0  0
   46.7120   32.7270   46.6200 C   0  0  0  0  0  0  0  0  0  0  0  0
   46.8458   35.7502   41.6883 H   0  0  0  0  0  0  0  0  0  0  0  0
   43.7483   36.0382   44.6046 H   0  0  0  0  0  0  0  0  0  0  0  0
   49.4652   35.2938   43.4019 H   0  0  0  0  0  0  0  0  0  0  0  0
   51.3333   33.8700   42.1270 H   0  0  0  0  0  0  0  0  0  0  0  0
   47.5650   31.9253   41.7043 H   0  0  0  0  0  0  0  0  0  0  0  0
   46.5395   31.8115   44.6849 H   0  0  0  0  0  0  0  0  0  0  0  0
   48.0147   32.8314   44.9254 H   0  0  0  0  0  0  0  0  0  0  0  0
   47.6814   32.7966   47.1352 H   0  0  0  0  0  0  0  0  0  0  0  0
   46.0824   33.5823   46.9064 H   0  0  0  0  0  0  0  0  0  0  0  0
   46.2109   31.7906   46.9064 H   0  0  0  0  0  0  0  0  0  0  0  0
  1  6  2  0
  1 12  1  0
  2  1  1  0
  3  4  1  0
  3  2  2  0
  4  5  2  0
  5  6  1  0
  7  8  1  0
  7  2  1  0
  9  8  2  0
 10 11  2  0
 10  9  1  0
 11  7  1  0
 12 13  1  0
  3 14  1  0
  5 15  1  0
  8 16  1  0
  9 17  1  0
 11 18  1  0
 12 19  1  0
 12 20  1  0
 13 21  1  0
 13 22  1  0
 13 23  1  0
M  ISO  8  14  14  15  14  16  14  17  14  18  14  19   8  20   8  21   8
M  ISO  2  22   8  23   8
M  END
>  <minimizedAffinity>  (1) 
-3.81739664

>  <minimizedRMSD>  (1) 
4.52992201

$$$$
