
     RDKit          3D

 28 29  0  0  0  0  0  0  0  0999 V2000
   46.2680   34.6440   43.0930 C   0  0  0  0  0  0  0  0  0  0  0  0
   47.0030   33.6310   43.7170 C   0  0  0  0  0  0  0  0  0  0  0  0
   48.3270   33.4240   43.3440 C   0  0  0  0  0  0  0  0  0  0  0  0
   48.8590   34.2180   42.3850 N   0  0  0  0  0  0  0  0  0  0  0  0
   48.1100   35.2020   41.7940 C   0  0  0  0  0  0  0  0  0  0  0  0
   46.8270   35.3990   42.1590 N   0  0  0  0  0  0  0  0  0  0  0  0
   46.5430   32.7520   44.7240 N   0  0  0  0  0  0  0  0  0  0  0  0
   45.9790   31.3990   44.7950 C   0  0  0  0  0  0  0  0  0  0  0  0
   46.8140   30.7490   45.9030 C   0  0  0  0  0  0  0  0  0  0  0  0
   46.9540   31.8770   46.8740 C   0  0  0  0  0  0  0  0  0  0  0  0
   46.5650   33.1380   46.1320 C   0  0  0  0  0  0  0  0  0  0  0  0
   44.8910   34.7370   43.5860 C   0  0  0  0  0  0  0  0  0  0  0  0
   44.6670   35.9430   44.4570 C   0  0  0  0  0  0  0  0  0  0  0  0
   48.9279   32.6335   43.8173 H   0  0  0  0  0  0  0  0  0  0  0  0
   48.5592   35.8362   41.0155 H   0  0  0  0  0  0  0  0  0  0  0  0
   44.9130   31.4264   45.0649 H   0  0  0  0  0  0  0  0  0  0  0  0
   46.0204   30.8561   43.8392 H   0  0  0  0  0  0  0  0  0  0  0  0
   46.2878   29.8945   46.3534 H   0  0  0  0  0  0  0  0  0  0  0  0
   47.7724   30.3347   45.5568 H   0  0  0  0  0  0  0  0  0  0  0  0
   46.2866   31.7219   47.7345 H   0  0  0  0  0  0  0  0  0  0  0  0
   47.9826   31.9443   47.2579 H   0  0  0  0  0  0  0  0  0  0  0  0
   47.3058   33.9328   46.3042 H   0  0  0  0  0  0  0  0  0  0  0  0
   45.5958   33.5348   46.4684 H   0  0  0  0  0  0  0  0  0  0  0  0
   44.2113   34.7949   42.7231 H   0  0  0  0  0  0  0  0  0  0  0  0
   44.6959   33.8440   44.1980 H   0  0  0  0  0  0  0  0  0  0  0  0
   44.7221   35.6466   45.5149 H   0  0  0  0  0  0  0  0  0  0  0  0
   45.4406   36.6961   44.2465 H   0  0  0  0  0  0  0  0  0  0  0  0
   43.6745   36.3681   44.2465 H   0  0  0  0  0  0  0  0  0  0  0  0
  1 12  1  0
  1  2  2  0
  2  7  1  0
  3  2  1  0
  4  3  2  0
  5  6  2  0
  5  4  1  0
  6  1  1  0
  7  8  1  0
  7 11  1  0
  8  9  1  0
  9 10  1  0
 11 10  1  0
 12 13  1  0
  3 14  1  0
  5 15  1  0
  8 16  1  0
  8 17  1  0
  9 18  1  0
  9 19  1  0
 10 20  1  0
 10 21  1  0
 11 22  1  0
 11 23  1  0
 12 24  1  0
 12 25  1  0
 13 26  1  0
 13 27  1  0
 13 28  1  0
M  ISO  8  14  14  15  14  16  13  17  13  18  13  19  13  20  13  21  13
M  ISO  7  22  13  23  13  24   8  25   8  26   8  27   8  28   8
M  END
>  <minimizedAffinity>  (1) 
-3.57468271

>  <minimizedRMSD>  (1) 
5.22377205

$$$$
