
     RDKit          3D

 22 23  0  0  0  0  0  0  0  0999 V2000
   46.2330   34.6290   43.1990 C   0  0  0  0  0  0  0  0  0  0  0  0
   46.9980   33.6830   43.8620 C   0  0  0  0  0  0  0  0  0  0  0  0
   48.3090   33.5490   43.3310 C   0  0  0  0  0  0  0  0  0  0  0  0
   48.7260   34.2880   42.2890 N   0  0  0  0  0  0  0  0  0  0  0  0
   47.9260   35.1970   41.6880 C   0  0  0  0  0  0  0  0  0  0  0  0
   46.7050   35.3330   42.1670 N   0  0  0  0  0  0  0  0  0  0  0  0
   46.7310   32.7800   44.9640 C   0  0  0  0  0  0  0  0  0  0  0  0
   46.3900   31.4880   44.7430 C   0  0  0  0  0  0  0  0  0  0  0  0
   46.0920   30.7710   46.4050 S   0  0  0  0  0  0  0  0  0  0  0  0
   46.5070   32.4560   47.1830 C   0  0  0  0  0  0  0  0  0  0  0  0
   46.7230   33.0400   46.2420 N   0  0  0  0  0  0  0  0  0  0  0  0
   44.8400   34.7620   43.6930 C   0  0  0  0  0  0  0  0  0  0  0  0
   44.6650   35.9650   44.5730 C   0  0  0  0  0  0  0  0  0  0  0  0
   48.9996   32.8225   43.7840 H   0  0  0  0  0  0  0  0  0  0  0  0
   48.2784   35.7973   40.8362 H   0  0  0  0  0  0  0  0  0  0  0  0
   46.3089   30.9768   43.7724 H   0  0  0  0  0  0  0  0  0  0  0  0
   46.5297   32.7685   48.2374 H   0  0  0  0  0  0  0  0  0  0  0  0
   44.1647   34.8531   42.8295 H   0  0  0  0  0  0  0  0  0  0  0  0
   44.6060   33.8686   44.2905 H   0  0  0  0  0  0  0  0  0  0  0  0
   44.7098   35.6571   45.6281 H   0  0  0  0  0  0  0  0  0  0  0  0
   45.4673   36.6891   44.3680 H   0  0  0  0  0  0  0  0  0  0  0  0
   43.6897   36.4305   44.3680 H   0  0  0  0  0  0  0  0  0  0  0  0
  1 12  1  0
  1  2  2  0
  2  7  1  0
  3  2  1  0
  4  3  2  0
  5  6  2  0
  5  4  1  0
  6  1  1  0
  7 11  1  0
  8  7  2  0
  8  9  1  0
  9 10  1  0
 11 10  2  0
 12 13  1  0
  3 14  1  0
  5 15  1  0
  8 16  1  0
 10 17  1  0
 12 18  1  0
 12 19  1  0
 13 20  1  0
 13 21  1  0
 13 22  1  0
M  ISO  8  14  14  15  14  16  14  17  14  18   8  19   8  20   8  21   8
M  ISO  1  22   8
M  END
>  <minimizedAffinity>  (1) 
-3.69773626

>  <minimizedRMSD>  (1) 
5.30764914

$$$$
