
     RDKit          3D

 23 24  0  0  0  0  0  0  0  0999 V2000
   46.3090   34.5780   43.1410 C   0  0  0  0  0  0  0  0  0  0  0  0
   46.9880   33.4990   43.6950 C   0  0  0  0  0  0  0  0  0  0  0  0
   48.3270   33.3450   43.2570 C   0  0  0  0  0  0  0  0  0  0  0  0
   48.8630   34.2040   42.3720 N   0  0  0  0  0  0  0  0  0  0  0  0
   48.1580   35.2370   41.8680 C   0  0  0  0  0  0  0  0  0  0  0  0
   46.9020   35.4020   42.2620 N   0  0  0  0  0  0  0  0  0  0  0  0
   46.6030   32.5500   44.6820 C   0  0  0  0  0  0  0  0  0  0  0  0
   46.1910   31.2000   44.6530 C   0  0  0  0  0  0  0  0  0  0  0  0
   45.8590   30.6320   45.8330 C   0  0  0  0  0  0  0  0  0  0  0  0
   45.8860   31.2420   47.0450 C   0  0  0  0  0  0  0  0  0  0  0  0
   46.4800   32.9370   46.5000 S   0  0  0  0  0  0  0  0  0  0  0  0
   44.9000   34.6980   43.5420 C   0  0  0  0  0  0  0  0  0  0  0  0
   44.6730   35.8570   44.4770 C   0  0  0  0  0  0  0  0  0  0  0  0
   48.9343   32.5140   43.6451 H   0  0  0  0  0  0  0  0  0  0  0  0
   48.6149   35.9287   41.1450 H   0  0  0  0  0  0  0  0  0  0  0  0
   46.1424   30.6350   43.7104 H   0  0  0  0  0  0  0  0  0  0  0  0
   45.5378   29.5802   45.8092 H   0  0  0  0  0  0  0  0  0  0  0  0
   45.6354   30.8587   48.0451 H   0  0  0  0  0  0  0  0  0  0  0  0
   44.2861   34.8438   42.6410 H   0  0  0  0  0  0  0  0  0  0  0  0
   44.6192   33.7758   44.0717 H   0  0  0  0  0  0  0  0  0  0  0  0
   44.7415   35.5074   45.5177 H   0  0  0  0  0  0  0  0  0  0  0  0
   45.4373   36.6276   44.2980 H   0  0  0  0  0  0  0  0  0  0  0  0
   43.6745   36.2824   44.2980 H   0  0  0  0  0  0  0  0  0  0  0  0
  1 12  1  0
  1  2  2  0
  2  7  1  0
  3  2  1  0
  4  3  2  0
  5  6  2  0
  5  4  1  0
  6  1  1  0
  7 11  1  0
  8  7  2  0
  8  9  1  0
  9 10  2  0
 11 10  1  0
 12 13  1  0
  3 14  1  0
  5 15  1  0
  8 16  1  0
  9 17  1  0
 10 18  1  0
 12 19  1  0
 12 20  1  0
 13 21  1  0
 13 22  1  0
 13 23  1  0
M  ISO  8  14  14  15  14  16  14  17  14  18  14  19   8  20   8  21   8
M  ISO  2  22   8  23   8
M  END
>  <minimizedAffinity>  (1) 
-3.60451317

>  <minimizedRMSD>  (1) 
5.50458384

$$$$
