
     RDKit          3D

 42 45  0  0  0  0  0  0  0  0999 V2000
   48.2580   34.7920   40.8310 C   0  0  0  0  0  0  0  0  0  0  0  0
   47.8290   34.3190   39.4840 C   0  0  0  0  0  0  0  0  0  0  0  0
   48.6160   34.4590   38.3610 C   0  0  0  0  0  0  0  0  0  0  0  0
   48.3020   34.0530   37.0920 C   0  0  0  0  0  0  0  0  0  0  0  0
   47.0760   33.4530   36.9690 N   0  0  0  0  0  0  0  0  0  0  0  0
   46.2910   33.3050   38.0570 C   0  0  0  0  0  0  0  0  0  0  0  0
   46.6130   33.7120   39.3060 N   0  0  0  0  0  0  0  0  0  0  0  0
   44.9970   32.6560   37.8530 C   0  0  0  0  0  0  0  0  0  0  0  0
   43.8750   33.0750   38.5550 C   0  0  0  0  0  0  0  0  0  0  0  0
   42.6640   32.4640   38.3630 C   0  0  0  0  0  0  0  0  0  0  0  0
   42.5420   31.4600   37.5020 N   0  0  0  0  0  0  0  0  0  0  0  0
   43.6440   31.0580   36.8210 C   0  0  0  0  0  0  0  0  0  0  0  0
   44.8620   31.6470   36.9910 N   0  0  0  0  0  0  0  0  0  0  0  0
   47.8660   33.7610   41.8370 C   0  0  0  0  0  0  0  0  0  0  0  0
   45.0420   35.6440   43.4810 C   0  0  0  0  0  0  0  0  0  0  0  0
   45.9870   35.2220   42.5440 C   0  0  0  0  0  0  0  0  0  0  0  0
   46.8680   34.2080   42.8140 C   0  0  0  0  0  0  0  0  0  0  0  0
   46.7870   33.6190   44.0460 N   0  0  0  0  0  0  0  0  0  0  0  0
   45.8520   34.0530   44.9410 C   0  0  0  0  0  0  0  0  0  0  0  0
   45.0090   35.0290   44.6750 N   0  0  0  0  0  0  0  0  0  0  0  0
   45.9080   33.3320   46.1690 N   0  0  0  0  0  0  0  0  0  0  0  0
   46.8270   32.3480   46.1600 C   0  0  0  0  0  0  0  0  0  0  0  0
   47.0120   31.5480   47.2740 C   0  0  0  0  0  0  0  0  0  0  0  0
   46.2340   31.7700   48.4140 C   0  0  0  0  0  0  0  0  0  0  0  0
   46.3550   31.0840   49.4460 O   0  0  0  0  0  0  0  0  0  0  0  0
   45.3350   32.7680   48.3590 N   0  0  0  0  0  0  0  0  0  0  0  0
   45.1690   33.5360   47.2650 C   0  0  0  0  0  0  0  0  0  0  0  0
   44.3340   34.4750   47.1880 O   0  0  0  0  0  0  0  0  0  0  0  0
   47.7638   35.7465   41.0648 H   0  0  0  0  0  0  0  0  0  0  0  0
   49.3472   34.9447   40.8497 H   0  0  0  0  0  0  0  0  0  0  0  0
   49.5932   34.9451   38.4982 H   0  0  0  0  0  0  0  0  0  0  0  0
   48.9804   34.1970   36.2381 H   0  0  0  0  0  0  0  0  0  0  0  0
   43.9591   33.9051   39.2719 H   0  0  0  0  0  0  0  0  0  0  0  0
   41.7845   32.8080   38.9271 H   0  0  0  0  0  0  0  0  0  0  0  0
   43.5518   30.2271   36.1060 H   0  0  0  0  0  0  0  0  0  0  0  0
   47.4542   32.8951   41.2979 H   0  0  0  0  0  0  0  0  0  0  0  0
   48.7752   33.5220   42.4081 H   0  0  0  0  0  0  0  0  0  0  0  0
   44.3419   36.4597   43.2475 H   0  0  0  0  0  0  0  0  0  0  0  0
   46.0253   35.7170   41.5624 H   0  0  0  0  0  0  0  0  0  0  0  0
   47.4358   32.1786   45.2597 H   0  0  0  0  0  0  0  0  0  0  0  0
   47.7639   30.7452   47.2625 H   0  0  0  0  0  0  0  0  0  0  0  0
   44.7499   32.9527   49.1863 H   0  0  0  0  0  0  0  0  0  0  0  0
  1 14  1  0
  2  1  1  0
  3  2  2  0
  4  3  1  0
  5  4  2  0
  5  6  1  0
  6  7  2  0
  7  2  1  0
  8  6  1  0
  8  9  2  0
 10  9  1  0
 11 10  2  0
 12 13  2  0
 12 11  1  0
 13  8  1  0
 14 17  1  0
 15 20  2  0
 16 17  2  0
 16 15  1  0
 17 18  1  0
 18 19  2  0
 19 21  1  0
 20 19  1  0
 21 27  1  0
 22 21  1  0
 22 23  2  0
 23 24  1  0
 24 25  2  0
 26 24  1  0
 27 26  1  0
 28 27  2  0
  1 29  1  0
  1 30  1  0
  3 31  1  0
  4 32  1  0
  9 33  1  0
 10 34  1  0
 12 35  1  0
 14 36  1  0
 14 37  1  0
 15 38  1  0
 16 39  1  0
 22 40  1  0
 23 41  1  0
 26 42  1  0
M  ISO  8  29   8  30   8  31  14  32  14  33  14  34  14  35  14  36   8
M  ISO  6  37   8  38  14  39  14  40  14  41  14  42   9
M  END
>  <minimizedAffinity>  (1) 
-6.60204124

>  <minimizedRMSD>  (1) 
0.984502375

$$$$
