
     RDKit          3D

 18 18  0  0  0  0  0  0  0  0999 V2000
   46.9250   34.4280   43.0170 C   0  0  0  0  0  0  0  0  0  0  0  0
   45.7640   35.0450   43.5190 C   0  0  0  0  0  0  0  0  0  0  0  0
   45.2130   34.5870   44.7280 C   0  0  0  0  0  0  0  0  0  0  0  0
   45.8380   33.5600   45.3530 N   0  0  0  0  0  0  0  0  0  0  0  0
   46.9610   32.9870   44.8360 C   0  0  0  0  0  0  0  0  0  0  0  0
   47.4730   33.4310   43.6920 N   0  0  0  0  0  0  0  0  0  0  0  0
   47.3740   35.0240   41.7470 C   0  0  0  0  0  0  0  0  0  0  0  0
   48.8340   35.4400   41.8220 C   0  0  0  0  0  0  0  0  0  0  0  0
   45.0940   36.1060   42.8990 N   0  0  0  0  0  0  0  0  0  0  0  0
   44.3073   35.0456   45.1515 H   0  0  0  0  0  0  0  0  0  0  0  0
   47.4456   32.1543   45.3668 H   0  0  0  0  0  0  0  0  0  0  0  0
   46.7591   35.9096   41.5289 H   0  0  0  0  0  0  0  0  0  0  0  0
   47.2661   34.2720   40.9515 H   0  0  0  0  0  0  0  0  0  0  0  0
   49.1370   35.5263   42.8759 H   0  0  0  0  0  0  0  0  0  0  0  0
   49.4569   34.6836   41.3222 H   0  0  0  0  0  0  0  0  0  0  0  0
   48.9647   36.4111   41.3222 H   0  0  0  0  0  0  0  0  0  0  0  0
   44.2481   36.5039   43.3314 H   0  0  0  0  0  0  0  0  0  0  0  0
   45.4469   36.4889   42.0103 H   0  0  0  0  0  0  0  0  0  0  0  0
  1  2  2  0
  1  6  1  0
  2  3  1  0
  3  4  2  0
  5  4  1  0
  6  5  2  0
  7  8  1  0
  7  1  1  0
  9  2  1  0
  3 10  1  0
  5 11  1  0
  7 12  1  0
  7 13  1  0
  8 14  1  0
  8 15  1  0
  8 16  1  0
  9 17  1  0
  9 18  1  0
M  ISO  7  10  14  11  14  12   8  13   8  14   8  15   8  16   8
M  END
>  <minimizedAffinity>  (1) 
-3.26892138

>  <minimizedRMSD>  (1) 
0.706893206

$$$$
