
     RDKit          3D

 41 44  0  0  0  0  0  0  0  0999 V2000
   46.1280   33.9520   41.0130 C   0  0  0  0  0  0  0  0  0  0  0  0
   46.5640   34.7430   42.0940 C   0  0  0  0  0  0  0  0  0  0  0  0
   47.7990   35.3820   42.0130 C   0  0  0  0  0  0  0  0  0  0  0  0
   48.5280   35.2150   40.8920 N   0  0  0  0  0  0  0  0  0  0  0  0
   48.0740   34.4420   39.8660 C   0  0  0  0  0  0  0  0  0  0  0  0
   46.9010   33.8380   39.9480 N   0  0  0  0  0  0  0  0  0  0  0  0
   45.8310   34.9460   43.2980 N   0  0  0  0  0  0  0  0  0  0  0  0
   44.9080   35.8130   43.7230 C   0  0  0  0  0  0  0  0  0  0  0  0
   44.5530   35.5290   44.9920 N   0  0  0  0  0  0  0  0  0  0  0  0
   45.2600   34.4640   45.3880 C   0  0  0  0  0  0  0  0  0  0  0  0
   45.2050   33.8430   46.6220 C   0  0  0  0  0  0  0  0  0  0  0  0
   46.0240   32.7800   46.7770 N   0  0  0  0  0  0  0  0  0  0  0  0
   46.8310   32.3880   45.7500 C   0  0  0  0  0  0  0  0  0  0  0  0
   46.8500   33.0250   44.5620 N   0  0  0  0  0  0  0  0  0  0  0  0
   46.0420   34.1120   44.3430 C   0  0  0  0  0  0  0  0  0  0  0  0
   44.8030   33.3360   41.2420 C   0  0  0  0  0  0  0  0  0  0  0  0
   43.7080   34.1240   40.5860 C   0  0  0  0  0  0  0  0  0  0  0  0
   42.4160   33.9830   41.1590 N   0  0  0  0  0  0  0  0  0  0  0  0
   41.6370   32.8690   40.7560 C   0  0  0  0  0  0  0  0  0  0  0  0
   40.4590   32.6020   41.6660 C   0  0  0  0  0  0  0  0  0  0  0  0
   39.9260   33.8320   42.2200 N   0  0  0  0  0  0  0  0  0  0  0  0
   40.2200   34.9670   41.3640 C   0  0  0  0  0  0  0  0  0  0  0  0
   41.7020   35.1870   41.3970 C   0  0  0  0  0  0  0  0  0  0  0  0
   48.1687   36.0052   42.8406 H   0  0  0  0  0  0  0  0  0  0  0  0
   48.6886   34.3195   38.9620 H   0  0  0  0  0  0  0  0  0  0  0  0
   44.4971   36.6391   43.1241 H   0  0  0  0  0  0  0  0  0  0  0  0
   44.5384   34.1915   47.4246 H   0  0  0  0  0  0  0  0  0  0  0  0
   47.4908   31.5201   45.8963 H   0  0  0  0  0  0  0  0  0  0  0  0
   44.8067   32.3168   40.8283 H   0  0  0  0  0  0  0  0  0  0  0  0
   44.6136   33.3190   42.3254 H   0  0  0  0  0  0  0  0  0  0  0  0
   43.6473   33.8066   39.5345 H   0  0  0  0  0  0  0  0  0  0  0  0
   43.9800   35.1815   40.7194 H   0  0  0  0  0  0  0  0  0  0  0  0
   41.2581   33.0570   39.7405 H   0  0  0  0  0  0  0  0  0  0  0  0
   42.2884   31.9836   40.7982 H   0  0  0  0  0  0  0  0  0  0  0  0
   39.6692   32.0977   41.0898 H   0  0  0  0  0  0  0  0  0  0  0  0
   40.8018   31.9688   42.4976 H   0  0  0  0  0  0  0  0  0  0  0  0
   38.9047   33.7411   42.3177 H   0  0  0  0  0  0  0  0  0  0  0  0
   39.6995   35.8620   41.7356 H   0  0  0  0  0  0  0  0  0  0  0  0
   39.8808   34.7736   40.3356 H   0  0  0  0  0  0  0  0  0  0  0  0
   41.9825   35.5785   42.3859 H   0  0  0  0  0  0  0  0  0  0  0  0
   41.9607   35.9024   40.6025 H   0  0  0  0  0  0  0  0  0  0  0  0
  1 16  1  0
  1  2  1  0
  2  7  1  0
  3  2  2  0
  4  3  1  0
  5  6  1  0
  5  4  2  0
  6  1  2  0
  7  8  1  0
  7 15  1  0
  8  9  2  0
  9 10  1  0
 10 11  2  0
 11 12  1  0
 13 12  2  0
 14 13  1  0
 15 14  2  0
 15 10  1  0
 17 18  1  0
 17 16  1  0
 18 23  1  0
 19 18  1  0
 19 20  1  0
 20 21  1  0
 22 23  1  0
 22 21  1  0
  3 24  1  0
  5 25  1  0
  8 26  1  0
 11 27  1  0
 13 28  1  0
 16 29  1  0
 16 30  1  0
 17 31  1  0
 17 32  1  0
 19 33  1  0
 19 34  1  0
 20 35  1  0
 20 36  1  0
 21 37  1  0
 22 38  1  0
 22 39  1  0
 23 40  1  0
 23 41  1  0
M  ISO  8  24  14  25  14  26  14  27  14  28  14  29   8  30   8  31   8
M  ISO  8  32   8  33  13  34  13  35  13  36  13  37   5  38  13  39  13
M  ISO  2  40  13  41  13
M  END
>  <minimizedAffinity>  (1) 
-6.08985233

>  <minimizedRMSD>  (1) 
0.793212712

$$$$
