
     RDKit          3D

 35 38  0  0  0  0  0  0  0  0999 V2000
   45.8610   34.2250   40.9540 C   0  0  0  0  0  0  0  0  0  0  0  0
   46.4360   34.8340   42.0880 C   0  0  0  0  0  0  0  0  0  0  0  0
   47.7790   35.1750   42.0810 C   0  0  0  0  0  0  0  0  0  0  0  0
   48.4920   34.9020   40.9580 N   0  0  0  0  0  0  0  0  0  0  0  0
   47.9180   34.3150   39.8810 C   0  0  0  0  0  0  0  0  0  0  0  0
   46.6220   33.9890   39.8970 N   0  0  0  0  0  0  0  0  0  0  0  0
   45.7260   35.1390   43.2860 N   0  0  0  0  0  0  0  0  0  0  0  0
   44.9130   36.1080   43.7080 C   0  0  0  0  0  0  0  0  0  0  0  0
   44.5220   35.8770   44.9770 N   0  0  0  0  0  0  0  0  0  0  0  0
   45.0930   34.7360   45.3870 C   0  0  0  0  0  0  0  0  0  0  0  0
   44.9630   34.1350   46.6120 C   0  0  0  0  0  0  0  0  0  0  0  0
   45.6540   32.9640   46.7840 N   0  0  0  0  0  0  0  0  0  0  0  0
   46.4080   32.4770   45.7610 C   0  0  0  0  0  0  0  0  0  0  0  0
   46.5010   33.1120   44.5730 N   0  0  0  0  0  0  0  0  0  0  0  0
   45.8330   34.2850   44.3420 C   0  0  0  0  0  0  0  0  0  0  0  0
   44.4380   33.9240   41.1130 C   0  0  0  0  0  0  0  0  0  0  0  0
   43.5660   34.9360   40.4300 C   0  0  0  0  0  0  0  0  0  0  0  0
   42.1270   34.7040   40.5430 C   0  0  0  0  0  0  0  0  0  0  0  0
   41.1450   35.5300   40.0420 C   0  0  0  0  0  0  0  0  0  0  0  0
   39.8560   35.1130   40.2650 C   0  0  0  0  0  0  0  0  0  0  0  0
   39.5370   33.9790   40.9270 N   0  0  0  0  0  0  0  0  0  0  0  0
   40.5370   33.1890   41.4080 C   0  0  0  0  0  0  0  0  0  0  0  0
   41.7910   33.5620   41.2090 N   0  0  0  0  0  0  0  0  0  0  0  0
   48.2507   35.6499   42.9539 H   0  0  0  0  0  0  0  0  0  0  0  0
   48.5228   34.1050   38.9865 H   0  0  0  0  0  0  0  0  0  0  0  0
   44.6046   36.9746   43.1048 H   0  0  0  0  0  0  0  0  0  0  0  0
   44.3409   34.5669   47.4098 H   0  0  0  0  0  0  0  0  0  0  0  0
   46.9591   31.5362   45.9066 H   0  0  0  0  0  0  0  0  0  0  0  0
   44.2351   32.9326   40.6818 H   0  0  0  0  0  0  0  0  0  0  0  0
   44.2054   33.9476   42.1879 H   0  0  0  0  0  0  0  0  0  0  0  0
   43.8257   34.9411   39.3611 H   0  0  0  0  0  0  0  0  0  0  0  0
   43.7588   35.8929   40.9372 H   0  0  0  0  0  0  0  0  0  0  0  0
   41.3774   36.4591   39.5009 H   0  0  0  0  0  0  0  0  0  0  0  0
   39.0356   35.7381   39.8827 H   0  0  0  0  0  0  0  0  0  0  0  0
   40.3069   32.2602   41.9506 H   0  0  0  0  0  0  0  0  0  0  0  0
  1 16  1  0
  1  2  1  0
  2  7  1  0
  3  2  2  0
  4  3  1  0
  5  6  1  0
  5  4  2  0
  6  1  2  0
  7  8  1  0
  7 15  1  0
  8  9  2  0
  9 10  1  0
 10 11  2  0
 11 12  1  0
 13 12  2  0
 14 13  1  0
 15 14  2  0
 15 10  1  0
 17 18  1  0
 17 16  1  0
 18 23  2  0
 19 20  2  0
 19 18  1  0
 20 21  1  0
 21 22  2  0
 23 22  1  0
  3 24  1  0
  5 25  1  0
  8 26  1  0
 11 27  1  0
 13 28  1  0
 16 29  1  0
 16 30  1  0
 17 31  1  0
 17 32  1  0
 19 33  1  0
 20 34  1  0
 22 35  1  0
M  ISO  8  24  14  25  14  26  14  27  14  28  14  29   8  30   8  31   8
M  ISO  4  32   8  33  14  34  14  35  14
M  END
>  <minimizedAffinity>  (1) 
-6.00538683

>  <minimizedRMSD>  (1) 
0.474332243

$$$$
