
     RDKit          3D

 34 37  0  0  0  0  0  0  0  0999 V2000
   45.8480   34.2280   40.9320 C   0  0  0  0  0  0  0  0  0  0  0  0
   46.4230   34.8250   42.0770 C   0  0  0  0  0  0  0  0  0  0  0  0
   47.7880   35.1550   42.0790 C   0  0  0  0  0  0  0  0  0  0  0  0
   48.5050   34.8800   40.9640 N   0  0  0  0  0  0  0  0  0  0  0  0
   47.9170   34.3000   39.8710 C   0  0  0  0  0  0  0  0  0  0  0  0
   46.6120   33.9930   39.8880 N   0  0  0  0  0  0  0  0  0  0  0  0
   45.7170   35.1340   43.2710 N   0  0  0  0  0  0  0  0  0  0  0  0
   44.9000   36.1090   43.6930 C   0  0  0  0  0  0  0  0  0  0  0  0
   44.5150   35.8810   44.9630 N   0  0  0  0  0  0  0  0  0  0  0  0
   45.0880   34.7420   45.3760 C   0  0  0  0  0  0  0  0  0  0  0  0
   44.9620   34.1430   46.6060 C   0  0  0  0  0  0  0  0  0  0  0  0
   45.6470   32.9890   46.7780 N   0  0  0  0  0  0  0  0  0  0  0  0
   46.4030   32.4940   45.7550 C   0  0  0  0  0  0  0  0  0  0  0  0
   46.4870   33.1240   44.5750 N   0  0  0  0  0  0  0  0  0  0  0  0
   45.8300   34.2840   44.3270 C   0  0  0  0  0  0  0  0  0  0  0  0
   44.4220   33.9470   41.0870 C   0  0  0  0  0  0  0  0  0  0  0  0
   43.5770   34.9730   40.3510 C   0  0  0  0  0  0  0  0  0  0  0  0
   42.1240   34.8120   40.6010 C   0  0  0  0  0  0  0  0  0  0  0  0
   41.1090   35.5640   40.0150 C   0  0  0  0  0  0  0  0  0  0  0  0
   39.9570   35.0170   40.5840 C   0  0  0  0  0  0  0  0  0  0  0  0
   40.3140   34.0140   41.4400 C   0  0  0  0  0  0  0  0  0  0  0  0
   41.6060   33.9110   41.4330 O   0  0  0  0  0  0  0  0  0  0  0  0
   48.2588   35.6213   42.9570 H   0  0  0  0  0  0  0  0  0  0  0  0
   48.5183   34.0852   38.9753 H   0  0  0  0  0  0  0  0  0  0  0  0
   44.5882   36.9730   43.0877 H   0  0  0  0  0  0  0  0  0  0  0  0
   44.3408   34.5761   47.4039 H   0  0  0  0  0  0  0  0  0  0  0  0
   46.9568   31.5551   45.9026 H   0  0  0  0  0  0  0  0  0  0  0  0
   44.2070   32.9474   40.6812 H   0  0  0  0  0  0  0  0  0  0  0  0
   44.1721   33.9929   42.1573 H   0  0  0  0  0  0  0  0  0  0  0  0
   43.7608   34.8693   39.2714 H   0  0  0  0  0  0  0  0  0  0  0  0
   43.8673   35.9668   40.7227 H   0  0  0  0  0  0  0  0  0  0  0  0
   41.1935   36.3837   39.2863 H   0  0  0  0  0  0  0  0  0  0  0  0
   38.9268   35.3418   40.3762 H   0  0  0  0  0  0  0  0  0  0  0  0
   39.6226   33.3985   42.0342 H   0  0  0  0  0  0  0  0  0  0  0  0
  1 16  1  0
  1  2  1  0
  2  3  2  0
  2  7  1  0
  4  3  1  0
  5  6  1  0
  5  4  2  0
  6  1  2  0
  7  8  1  0
  7 15  1  0
  8  9  2  0
  9 10  1  0
 10 11  2  0
 11 12  1  0
 13 12  2  0
 14 13  1  0
 15 14  2  0
 15 10  1  0
 17 18  1  0
 17 16  1  0
 18 22  1  0
 19 20  1  0
 19 18  2  0
 20 21  2  0
 22 21  1  0
  3 23  1  0
  5 24  1  0
  8 25  1  0
 11 26  1  0
 13 27  1  0
 16 28  1  0
 16 29  1  0
 17 30  1  0
 17 31  1  0
 19 32  1  0
 20 33  1  0
 21 34  1  0
M  ISO  8  23  14  24  14  25  14  26  14  27  14  28   8  29   8  30   8
M  ISO  4  31   8  32  14  33  14  34  14
M  END
>  <minimizedAffinity>  (1) 
-5.84982729

>  <minimizedRMSD>  (1) 
0.52539885

$$$$
