
     RDKit          3D

 34 36  0  0  0  0  0  0  0  0999 V2000
   45.9040   34.1470   40.9540 C   0  0  0  0  0  0  0  0  0  0  0  0
   46.4550   34.8320   42.0600 C   0  0  0  0  0  0  0  0  0  0  0  0
   47.7700   35.2610   42.0190 C   0  0  0  0  0  0  0  0  0  0  0  0
   48.4810   34.9970   40.8940 N   0  0  0  0  0  0  0  0  0  0  0  0
   47.9260   34.3370   39.8480 C   0  0  0  0  0  0  0  0  0  0  0  0
   46.6530   33.9250   39.8960 N   0  0  0  0  0  0  0  0  0  0  0  0
   45.7470   35.1290   43.2540 N   0  0  0  0  0  0  0  0  0  0  0  0
   44.9210   36.0970   43.6790 C   0  0  0  0  0  0  0  0  0  0  0  0
   44.5310   35.8640   44.9510 N   0  0  0  0  0  0  0  0  0  0  0  0
   45.1190   34.7210   45.3550 C   0  0  0  0  0  0  0  0  0  0  0  0
   44.9860   34.1230   46.5930 C   0  0  0  0  0  0  0  0  0  0  0  0
   45.6840   32.9680   46.7540 N   0  0  0  0  0  0  0  0  0  0  0  0
   46.4450   32.4800   45.7350 C   0  0  0  0  0  0  0  0  0  0  0  0
   46.5280   33.1220   44.5470 N   0  0  0  0  0  0  0  0  0  0  0  0
   45.8580   34.2810   44.3110 C   0  0  0  0  0  0  0  0  0  0  0  0
   44.4900   33.7570   41.1630 C   0  0  0  0  0  0  0  0  0  0  0  0
   43.5530   34.6860   40.4570 C   0  0  0  0  0  0  0  0  0  0  0  0
   42.1640   34.3550   40.5430 N   0  0  0  0  0  0  0  0  0  0  0  0
   41.3450   34.6880   41.6530 C   0  0  0  0  0  0  0  0  0  0  0  0
   41.6440   35.7590   42.3150 N   0  0  0  0  0  0  0  0  0  0  0  0
   40.2540   33.7880   41.9280 N   0  0  0  0  0  0  0  0  0  0  0  0
   41.1480   36.1230   43.1340 H   0  0  0  0  0  0  0  0  0  0  0  0
   48.2221   35.7962   42.8670 H   0  0  0  0  0  0  0  0  0  0  0  0
   48.5285   34.1377   38.9495 H   0  0  0  0  0  0  0  0  0  0  0  0
   44.6052   36.9606   43.0753 H   0  0  0  0  0  0  0  0  0  0  0  0
   44.3606   34.5505   47.3906 H   0  0  0  0  0  0  0  0  0  0  0  0
   47.0040   31.5440   45.8812 H   0  0  0  0  0  0  0  0  0  0  0  0
   44.3400   32.7377   40.7777 H   0  0  0  0  0  0  0  0  0  0  0  0
   44.2753   33.8047   42.2408 H   0  0  0  0  0  0  0  0  0  0  0  0
   43.8309   34.7008   39.3928 H   0  0  0  0  0  0  0  0  0  0  0  0
   43.6598   35.6576   40.9616 H   0  0  0  0  0  0  0  0  0  0  0  0
   41.7349   33.8472   39.7563 H   0  0  0  0  0  0  0  0  0  0  0  0
   39.6215   33.9722   42.7198 H   0  0  0  0  0  0  0  0  0  0  0  0
   40.1065   32.9604   41.3328 H   0  0  0  0  0  0  0  0  0  0  0  0
  1 16  1  0
  1  2  2  0
  2  7  1  0
  3  2  1  0
  4  3  2  0
  5  6  2  0
  5  4  1  0
  6  1  1  0
  7  8  1  0
  7 15  1  0
  8  9  2  0
  9 10  1  0
 10 11  2  0
 11 12  1  0
 13 12  2  0
 14 13  1  0
 15 14  2  0
 15 10  1  0
 17 18  1  0
 17 16  1  0
 18 19  1  0
 19 21  1  0
 19 20  2  0
 20 22  1  0
  3 23  1  0
  5 24  1  0
  8 25  1  0
 11 26  1  0
 13 27  1  0
 16 28  1  0
 16 29  1  0
 17 30  1  0
 17 31  1  0
 18 32  1  0
 21 33  1  0
 21 34  1  0
M  ISO  8  23  14  24  14  25  14  26  14  27  14  28   8  29   8  30   8
M  ISO  1  31   8
M  END
>  <minimizedAffinity>  (1) 
-5.77277946

>  <minimizedRMSD>  (1) 
0.425948322

$$$$
