
     RDKit          3D

 39 42  0  0  0  0  0  0  0  0999 V2000
   45.9950   34.1110   40.9280 C   0  0  0  0  0  0  0  0  0  0  0  0
   46.4980   34.8370   42.0130 C   0  0  0  0  0  0  0  0  0  0  0  0
   47.8020   35.3260   41.9810 C   0  0  0  0  0  0  0  0  0  0  0  0
   48.5360   35.0660   40.8710 N   0  0  0  0  0  0  0  0  0  0  0  0
   48.0200   34.3510   39.8200 C   0  0  0  0  0  0  0  0  0  0  0  0
   46.7720   33.8960   39.8750 N   0  0  0  0  0  0  0  0  0  0  0  0
   45.7690   35.1360   43.1990 N   0  0  0  0  0  0  0  0  0  0  0  0
   44.9250   36.1070   43.6010 C   0  0  0  0  0  0  0  0  0  0  0  0
   44.5310   35.8680   44.8710 N   0  0  0  0  0  0  0  0  0  0  0  0
   45.1210   34.7380   45.2920 C   0  0  0  0  0  0  0  0  0  0  0  0
   44.9850   34.1460   46.5270 C   0  0  0  0  0  0  0  0  0  0  0  0
   45.6880   33.0040   46.7150 N   0  0  0  0  0  0  0  0  0  0  0  0
   46.4640   32.5230   45.7020 C   0  0  0  0  0  0  0  0  0  0  0  0
   46.5550   33.1450   44.5220 N   0  0  0  0  0  0  0  0  0  0  0  0
   45.8760   34.2980   44.2640 C   0  0  0  0  0  0  0  0  0  0  0  0
   44.5980   33.6600   41.1170 C   0  0  0  0  0  0  0  0  0  0  0  0
   43.7600   33.9610   39.9130 C   0  0  0  0  0  0  0  0  0  0  0  0
   42.4280   34.3940   40.1700 N   0  0  0  0  0  0  0  0  0  0  0  0
   41.8630   35.2070   39.1080 C   0  0  0  0  0  0  0  0  0  0  0  0
   40.5680   35.7400   39.7100 C   0  0  0  0  0  0  0  0  0  0  0  0
   40.7970   35.6800   41.1960 C   0  0  0  0  0  0  0  0  0  0  0  0
   42.2510   35.2340   41.3110 C   0  0  0  0  0  0  0  0  0  0  0  0
   48.2191   35.8996   42.8218 H   0  0  0  0  0  0  0  0  0  0  0  0
   48.6387   34.1542   38.9320 H   0  0  0  0  0  0  0  0  0  0  0  0
   44.6058   36.9632   42.9886 H   0  0  0  0  0  0  0  0  0  0  0  0
   44.3450   34.5740   47.3126 H   0  0  0  0  0  0  0  0  0  0  0  0
   47.0325   31.5948   45.8606 H   0  0  0  0  0  0  0  0  0  0  0  0
   44.5931   32.5744   41.2944 H   0  0  0  0  0  0  0  0  0  0  0  0
   44.1737   34.1976   41.9778 H   0  0  0  0  0  0  0  0  0  0  0  0
   43.7047   33.0462   39.3046 H   0  0  0  0  0  0  0  0  0  0  0  0
   44.2545   34.8065   39.4123 H   0  0  0  0  0  0  0  0  0  0  0  0
   41.6588   34.5985   38.2147 H   0  0  0  0  0  0  0  0  0  0  0  0
   42.5409   36.0081   38.7782 H   0  0  0  0  0  0  0  0  0  0  0  0
   40.3843   36.7748   39.3854 H   0  0  0  0  0  0  0  0  0  0  0  0
   39.6882   35.1590   39.3964 H   0  0  0  0  0  0  0  0  0  0  0  0
   40.6505   36.6679   41.6572 H   0  0  0  0  0  0  0  0  0  0  0  0
   40.0983   35.0048   41.7116 H   0  0  0  0  0  0  0  0  0  0  0  0
   42.4188   34.6738   42.2426 H   0  0  0  0  0  0  0  0  0  0  0  0
   42.9585   36.0758   41.3398 H   0  0  0  0  0  0  0  0  0  0  0  0
  1 16  1  0
  1  2  1  0
  2  7  1  0
  3  2  2  0
  4  3  1  0
  5  6  1  0
  5  4  2  0
  6  1  2  0
  7  8  1  0
  7 15  1  0
  8  9  2  0
  9 10  1  0
 10 11  2  0
 11 12  1  0
 13 12  2  0
 14 13  1  0
 15 14  2  0
 15 10  1  0
 17 18  1  0
 17 16  1  0
 18 22  1  0
 19 20  1  0
 19 18  1  0
 20 21  1  0
 21 22  1  0
  3 23  1  0
  5 24  1  0
  8 25  1  0
 11 26  1  0
 13 27  1  0
 16 28  1  0
 16 29  1  0
 17 30  1  0
 17 31  1  0
 19 32  1  0
 19 33  1  0
 20 34  1  0
 20 35  1  0
 21 36  1  0
 21 37  1  0
 22 38  1  0
 22 39  1  0
M  ISO  8  23  14  24  14  25  14  26  14  27  14  28   8  29   8  30   8
M  ISO  8  31   8  32  13  33  13  34  13  35  13  36  13  37  13  38  13
M  ISO  1  39  13
M  END
>  <minimizedAffinity>  (1) 
-5.8895669

>  <minimizedRMSD>  (1) 
0.600103438

$$$$
