
     RDKit          3D

 35 38  0  0  0  0  0  0  0  0999 V2000
   45.8870   34.2140   40.9640 C   0  0  0  0  0  0  0  0  0  0  0  0
   46.4540   34.8350   42.1000 C   0  0  0  0  0  0  0  0  0  0  0  0
   47.7950   35.1970   42.0830 C   0  0  0  0  0  0  0  0  0  0  0  0
   48.5120   34.9400   40.9710 N   0  0  0  0  0  0  0  0  0  0  0  0
   47.9380   34.3370   39.8810 C   0  0  0  0  0  0  0  0  0  0  0  0
   46.6460   33.9920   39.9080 N   0  0  0  0  0  0  0  0  0  0  0  0
   45.7460   35.1250   43.2870 N   0  0  0  0  0  0  0  0  0  0  0  0
   44.9140   36.0960   43.7170 C   0  0  0  0  0  0  0  0  0  0  0  0
   44.5240   35.8620   44.9790 N   0  0  0  0  0  0  0  0  0  0  0  0
   45.1070   34.7200   45.3870 C   0  0  0  0  0  0  0  0  0  0  0  0
   44.9840   34.1060   46.6140 C   0  0  0  0  0  0  0  0  0  0  0  0
   45.6750   32.9570   46.7830 N   0  0  0  0  0  0  0  0  0  0  0  0
   46.4380   32.4760   45.7600 C   0  0  0  0  0  0  0  0  0  0  0  0
   46.5260   33.1090   44.5850 N   0  0  0  0  0  0  0  0  0  0  0  0
   45.8600   34.2700   44.3400 C   0  0  0  0  0  0  0  0  0  0  0  0
   44.4700   33.8910   41.1260 C   0  0  0  0  0  0  0  0  0  0  0  0
   43.5770   34.8980   40.4520 C   0  0  0  0  0  0  0  0  0  0  0  0
   42.1620   34.4900   40.7110 C   0  0  0  0  0  0  0  0  0  0  0  0
   41.1320   35.3610   40.4160 C   0  0  0  0  0  0  0  0  0  0  0  0
   39.8750   34.8840   40.6940 C   0  0  0  0  0  0  0  0  0  0  0  0
   39.5890   33.6760   41.2140 N   0  0  0  0  0  0  0  0  0  0  0  0
   40.6290   32.8440   41.4930 C   0  0  0  0  0  0  0  0  0  0  0  0
   41.8700   33.2930   41.2270 N   0  0  0  0  0  0  0  0  0  0  0  0
   48.2598   35.6810   42.9546 H   0  0  0  0  0  0  0  0  0  0  0  0
   48.5412   34.1368   38.9832 H   0  0  0  0  0  0  0  0  0  0  0  0
   44.5986   36.9611   43.1152 H   0  0  0  0  0  0  0  0  0  0  0  0
   44.3571   34.5282   47.4132 H   0  0  0  0  0  0  0  0  0  0  0  0
   46.9974   31.5401   45.9055 H   0  0  0  0  0  0  0  0  0  0  0  0
   44.2802   32.8999   40.6881 H   0  0  0  0  0  0  0  0  0  0  0  0
   44.2415   33.9035   42.2019 H   0  0  0  0  0  0  0  0  0  0  0  0
   43.7726   34.9081   39.3696 H   0  0  0  0  0  0  0  0  0  0  0  0
   43.7667   35.9077   40.8450 H   0  0  0  0  0  0  0  0  0  0  0  0
   41.3053   36.3606   39.9908 H   0  0  0  0  0  0  0  0  0  0  0  0
   39.0265   35.5479   40.4721 H   0  0  0  0  0  0  0  0  0  0  0  0
   40.4622   31.8437   41.9192 H   0  0  0  0  0  0  0  0  0  0  0  0
  1 16  1  0
  1  2  1  0
  2  7  1  0
  3  2  2  0
  4  3  1  0
  5  6  1  0
  5  4  2  0
  6  1  2  0
  7  8  1  0
  7 15  1  0
  8  9  2  0
  9 10  1  0
 10 11  2  0
 11 12  1  0
 13 12  2  0
 14 13  1  0
 15 14  2  0
 15 10  1  0
 17 18  1  0
 17 16  1  0
 18 23  2  0
 19 20  2  0
 19 18  1  0
 20 21  1  0
 21 22  2  0
 23 22  1  0
  3 24  1  0
  5 25  1  0
  8 26  1  0
 11 27  1  0
 13 28  1  0
 16 29  1  0
 16 30  1  0
 17 31  1  0
 17 32  1  0
 19 33  1  0
 20 34  1  0
 22 35  1  0
M  ISO  8  24  14  25  14  26  14  27  14  28  14  29   8  30   8  31   8
M  ISO  4  32   8  33  14  34  14  35  14
M  END
>  <minimizedAffinity>  (1) 
-5.93902349

>  <minimizedRMSD>  (1) 
0.442317128

$$$$
