
     RDKit          3D

 28 30  0  0  0  0  0  0  0  0999 V2000
   46.0290   34.0950   40.9070 C   0  0  0  0  0  0  0  0  0  0  0  0
   46.5180   34.8220   42.0180 C   0  0  0  0  0  0  0  0  0  0  0  0
   47.8180   35.3350   41.9880 C   0  0  0  0  0  0  0  0  0  0  0  0
   48.5580   35.1020   40.8720 N   0  0  0  0  0  0  0  0  0  0  0  0
   48.0520   34.3980   39.8270 C   0  0  0  0  0  0  0  0  0  0  0  0
   46.8050   33.9110   39.8640 N   0  0  0  0  0  0  0  0  0  0  0  0
   45.7820   35.0860   43.1960 N   0  0  0  0  0  0  0  0  0  0  0  0
   44.8990   35.9990   43.6130 C   0  0  0  0  0  0  0  0  0  0  0  0
   44.5120   35.7610   44.8710 N   0  0  0  0  0  0  0  0  0  0  0  0
   45.1620   34.6550   45.2950 C   0  0  0  0  0  0  0  0  0  0  0  0
   45.0510   34.0630   46.5340 C   0  0  0  0  0  0  0  0  0  0  0  0
   45.8140   32.9540   46.7160 N   0  0  0  0  0  0  0  0  0  0  0  0
   46.6110   32.5060   45.7090 C   0  0  0  0  0  0  0  0  0  0  0  0
   46.6790   33.1260   44.5150 N   0  0  0  0  0  0  0  0  0  0  0  0
   45.9400   34.2460   44.2630 C   0  0  0  0  0  0  0  0  0  0  0  0
   44.6540   33.6260   41.0920 C   0  0  0  0  0  0  0  0  0  0  0  0
   43.6540   34.4840   40.3510 C   0  0  0  0  0  0  0  0  0  0  0  0
   41.9930   33.8330   40.5570 S   0  0  0  0  0  0  0  0  0  0  0  0
   48.2265   35.9054   42.8352 H   0  0  0  0  0  0  0  0  0  0  0  0
   48.6753   34.2252   38.9372 H   0  0  0  0  0  0  0  0  0  0  0  0
   44.5373   36.8380   43.0004 H   0  0  0  0  0  0  0  0  0  0  0  0
   44.3916   34.4600   47.3198 H   0  0  0  0  0  0  0  0  0  0  0  0
   47.2213   31.6061   45.8754 H   0  0  0  0  0  0  0  0  0  0  0  0
   44.5788   32.5933   40.7206 H   0  0  0  0  0  0  0  0  0  0  0  0
   44.4189   33.6833   42.1651 H   0  0  0  0  0  0  0  0  0  0  0  0
   43.9086   34.4946   39.2809 H   0  0  0  0  0  0  0  0  0  0  0  0
   43.6894   35.5049   40.7591 H   0  0  0  0  0  0  0  0  0  0  0  0
   41.7086   33.7215   41.8925 H   0  0  0  0  0  0  0  0  0  0  0  0
  1 16  1  0
  1  2  2  0
  2  7  1  0
  3  2  1  0
  4  3  2  0
  5  6  2  0
  5  4  1  0
  6  1  1  0
  7  8  1  0
  7 15  1  0
  8  9  2  0
  9 10  1  0
 10 11  2  0
 11 12  1  0
 13 12  2  0
 14 13  1  0
 15 14  2  0
 15 10  1  0
 17 18  1  0
 17 16  1  0
  3 19  1  0
  5 20  1  0
  8 21  1  0
 11 22  1  0
 13 23  1  0
 16 24  1  0
 16 25  1  0
 17 26  1  0
 17 27  1  0
 18 28  1  0
M  ISO  8  19  14  20  14  21  14  22  14  23  14  24   8  25   8  26   8
M  ISO  2  27   8  28  11
M  END
>  <minimizedAffinity>  (1) 
-4.81066465

>  <minimizedRMSD>  (1) 
0.0176226292

$$$$
