
     RDKit          3D

 34 37  0  0  0  0  0  0  0  0999 V2000
   45.8630   34.2310   40.9560 C   0  0  0  0  0  0  0  0  0  0  0  0
   46.4430   34.8410   42.0970 C   0  0  0  0  0  0  0  0  0  0  0  0
   47.7900   35.1900   42.0830 C   0  0  0  0  0  0  0  0  0  0  0  0
   48.4930   34.9270   40.9610 N   0  0  0  0  0  0  0  0  0  0  0  0
   47.9070   34.3370   39.8710 C   0  0  0  0  0  0  0  0  0  0  0  0
   46.6230   34.0140   39.9080 N   0  0  0  0  0  0  0  0  0  0  0  0
   45.7360   35.1340   43.2970 N   0  0  0  0  0  0  0  0  0  0  0  0
   44.9210   36.0960   43.7400 C   0  0  0  0  0  0  0  0  0  0  0  0
   44.5360   35.8560   45.0010 N   0  0  0  0  0  0  0  0  0  0  0  0
   45.1160   34.7030   45.4000 C   0  0  0  0  0  0  0  0  0  0  0  0
   44.9850   34.1010   46.6200 C   0  0  0  0  0  0  0  0  0  0  0  0
   45.6780   32.9320   46.7760 N   0  0  0  0  0  0  0  0  0  0  0  0
   46.4250   32.4620   45.7490 C   0  0  0  0  0  0  0  0  0  0  0  0
   46.5110   33.1050   44.5710 N   0  0  0  0  0  0  0  0  0  0  0  0
   45.8550   34.2650   44.3420 C   0  0  0  0  0  0  0  0  0  0  0  0
   44.4450   33.9280   41.1330 C   0  0  0  0  0  0  0  0  0  0  0  0
   43.5690   34.9970   40.5260 C   0  0  0  0  0  0  0  0  0  0  0  0
   42.5420   34.4510   39.5790 C   0  0  0  0  0  0  0  0  0  0  0  0
   42.1440   35.3560   38.4450 C   0  0  0  0  0  0  0  0  0  0  0  0
   41.2180   35.1850   39.6190 C   0  0  0  0  0  0  0  0  0  0  0  0
   48.2649   35.6633   42.9550 H   0  0  0  0  0  0  0  0  0  0  0  0
   48.5014   34.1325   38.9683 H   0  0  0  0  0  0  0  0  0  0  0  0
   44.6078   36.9688   43.1483 H   0  0  0  0  0  0  0  0  0  0  0  0
   44.3645   34.5275   47.4219 H   0  0  0  0  0  0  0  0  0  0  0  0
   46.9805   31.5221   45.8829 H   0  0  0  0  0  0  0  0  0  0  0  0
   44.2222   32.9660   40.6483 H   0  0  0  0  0  0  0  0  0  0  0  0
   44.2348   33.8821   42.2117 H   0  0  0  0  0  0  0  0  0  0  0  0
   43.0494   35.5263   41.3383 H   0  0  0  0  0  0  0  0  0  0  0  0
   44.2230   35.6671   39.9487 H   0  0  0  0  0  0  0  0  0  0  0  0
   42.8700   33.4033   39.6483 H   0  0  0  0  0  0  0  0  0  0  0  0
   42.6690   36.3109   38.2946 H   0  0  0  0  0  0  0  0  0  0  0  0
   42.0453   35.2368   37.3559 H   0  0  0  0  0  0  0  0  0  0  0  0
   40.2763   34.6288   39.5011 H   0  0  0  0  0  0  0  0  0  0  0  0
   40.7258   35.8661   40.3288 H   0  0  0  0  0  0  0  0  0  0  0  0
  1 16  1  0
  1  2  1  0
  2  7  1  0
  3  2  2  0
  4  3  1  0
  5  6  1  0
  5  4  2  0
  6  1  2  0
  7  8  1  0
  7 15  1  0
  8  9  2  0
  9 10  1  0
 10 11  2  0
 11 12  1  0
 13 12  2  0
 14 13  1  0
 15 14  2  0
 15 10  1  0
 17 16  1  0
 18 20  1  0
 18 17  1  0
 19 18  1  0
 19 20  1  0
  3 21  1  0
  5 22  1  0
  8 23  1  0
 11 24  1  0
 13 25  1  0
 16 26  1  0
 16 27  1  0
 17 28  1  0
 17 29  1  0
 18 30  1  0
 19 31  1  0
 19 32  1  0
 20 33  1  0
 20 34  1  0
M  ISO  8  21  14  22  14  23  14  24  14  25  14  26   8  27   8  28   8
M  ISO  6  29   8  30  13  31  13  32  13  33  13  34  13
M  END
>  <minimizedAffinity>  (1) 
-5.36275339

>  <minimizedRMSD>  (1) 
1.00631666

$$$$
