
     RDKit          3D

 23 24  0  0  0  0  0  0  0  0999 V2000
   44.2660   35.7030   43.9150 C   0  0  0  0  0  0  0  0  0  0  0  0
   44.4840   34.6680   42.9730 C   0  0  0  0  0  0  0  0  0  0  0  0
   45.1110   33.4880   43.4310 C   0  0  0  0  0  0  0  0  0  0  0  0
   45.4670   33.4180   44.7410 N   0  0  0  0  0  0  0  0  0  0  0  0
   45.2430   34.4260   45.6130 C   0  0  0  0  0  0  0  0  0  0  0  0
   44.6450   35.5660   45.2030 N   0  0  0  0  0  0  0  0  0  0  0  0
   44.0450   34.8960   41.6030 C   0  0  0  0  0  0  0  0  0  0  0  0
   42.5400   35.1350   41.4610 C   0  0  0  0  0  0  0  0  0  0  0  0
   42.5030   35.3010   39.9360 C   0  0  0  0  0  0  0  0  0  0  0  0
   43.3350   34.1210   39.4950 C   0  0  0  0  0  0  0  0  0  0  0  0
   44.2220   33.7540   40.6700 C   0  0  0  0  0  0  0  0  0  0  0  0
   43.7793   36.6348   43.5911 H   0  0  0  0  0  0  0  0  0  0  0  0
   45.3058   32.6491   42.7466 H   0  0  0  0  0  0  0  0  0  0  0  0
   45.5497   34.3175   46.6638 H   0  0  0  0  0  0  0  0  0  0  0  0
   44.6779   35.7611   41.3560 H   0  0  0  0  0  0  0  0  0  0  0  0
   41.9459   34.2746   41.8025 H   0  0  0  0  0  0  0  0  0  0  0  0
   42.1215   35.9639   42.0507 H   0  0  0  0  0  0  0  0  0  0  0  0
   41.4756   35.2379   39.5480 H   0  0  0  0  0  0  0  0  0  0  0  0
   42.8714   36.2736   39.5776 H   0  0  0  0  0  0  0  0  0  0  0  0
   42.6838   33.2744   39.2318 H   0  0  0  0  0  0  0  0  0  0  0  0
   43.9348   34.3679   38.6066 H   0  0  0  0  0  0  0  0  0  0  0  0
   43.8925   32.8123   41.1332 H   0  0  0  0  0  0  0  0  0  0  0  0
   45.2714   33.5922   40.3826 H   0  0  0  0  0  0  0  0  0  0  0  0
  1  6  2  0
  2  3  2  0
  2  1  1  0
  3  4  1  0
  4  5  2  0
  6  5  1  0
  7  2  1  0
  8  7  1  0
  9  8  1  0
 10  9  1  0
 10 11  1  0
 11  7  1  0
  1 12  1  0
  3 13  1  0
  5 14  1  0
  7 15  1  0
  8 16  1  0
  8 17  1  0
  9 18  1  0
  9 19  1  0
 10 20  1  0
 10 21  1  0
 11 22  1  0
 11 23  1  0
M  ISO  8  12  14  13  14  14  14  15  13  16  13  17  13  18  13  19  13
M  ISO  4  20  13  21  13  22  13  23  13
M  END
>  <minimizedAffinity>  (1) 
-3.51876402

>  <minimizedRMSD>  (1) 
2.26013136

$$$$
