
     RDKit          3D

 42 45  0  0  0  0  0  0  0  0999 V2000
   47.6680   34.7920   41.5710 C   0  0  0  0  0  0  0  0  0  0  0  0
   47.2620   34.2440   40.2500 C   0  0  0  0  0  0  0  0  0  0  0  0
   48.1510   34.0860   39.2110 C   0  0  0  0  0  0  0  0  0  0  0  0
   47.8660   33.5900   37.9660 C   0  0  0  0  0  0  0  0  0  0  0  0
   46.5490   33.2300   37.7850 N   0  0  0  0  0  0  0  0  0  0  0  0
   45.6630   33.3810   38.7960 C   0  0  0  0  0  0  0  0  0  0  0  0
   45.9610   33.8690   40.0150 N   0  0  0  0  0  0  0  0  0  0  0  0
   44.2850   32.9740   38.5190 C   0  0  0  0  0  0  0  0  0  0  0  0
   43.2200   33.7560   38.9600 C   0  0  0  0  0  0  0  0  0  0  0  0
   41.9290   33.3740   38.7000 C   0  0  0  0  0  0  0  0  0  0  0  0
   41.6720   32.2700   38.0350 N   0  0  0  0  0  0  0  0  0  0  0  0
   42.7210   31.5140   37.6100 C   0  0  0  0  0  0  0  0  0  0  0  0
   44.0300   31.8470   37.8410 N   0  0  0  0  0  0  0  0  0  0  0  0
   47.6050   33.6930   42.5820 C   0  0  0  0  0  0  0  0  0  0  0  0
   44.8890   35.1690   44.7480 C   0  0  0  0  0  0  0  0  0  0  0  0
   45.7400   34.9310   43.6640 C   0  0  0  0  0  0  0  0  0  0  0  0
   46.7020   33.9550   43.7120 C   0  0  0  0  0  0  0  0  0  0  0  0
   46.7770   33.2440   44.8570 N   0  0  0  0  0  0  0  0  0  0  0  0
   45.9500   33.4750   45.9100 C   0  0  0  0  0  0  0  0  0  0  0  0
   45.0270   34.4220   45.8430 N   0  0  0  0  0  0  0  0  0  0  0  0
   46.1030   32.6560   47.1090 C   0  0  0  0  0  0  0  0  0  0  0  0
   47.3520   32.1870   47.4570 C   0  0  0  0  0  0  0  0  0  0  0  0
   47.5310   31.4090   48.5850 C   0  0  0  0  0  0  0  0  0  0  0  0
   46.4410   31.0970   49.3760 C   0  0  0  0  0  0  0  0  0  0  0  0
   45.1730   31.5660   49.0320 C   0  0  0  0  0  0  0  0  0  0  0  0
   45.0130   32.3450   47.8970 C   0  0  0  0  0  0  0  0  0  0  0  0
   46.9842   35.6030   41.8619 H   0  0  0  0  0  0  0  0  0  0  0  0
   48.6910   35.1923   41.5138 H   0  0  0  0  0  0  0  0  0  0  0  0
   49.1921   34.3875   39.3986 H   0  0  0  0  0  0  0  0  0  0  0  0
   48.6256   33.4879   37.1770 H   0  0  0  0  0  0  0  0  0  0  0  0
   43.4153   34.6832   39.5188 H   0  0  0  0  0  0  0  0  0  0  0  0
   41.0966   34.0005   39.0531 H   0  0  0  0  0  0  0  0  0  0  0  0
   42.5073   30.5896   37.0533 H   0  0  0  0  0  0  0  0  0  0  0  0
   47.2639   32.7786   42.0746 H   0  0  0  0  0  0  0  0  0  0  0  0
   48.6161   33.5988   43.0049 H   0  0  0  0  0  0  0  0  0  0  0  0
   44.1221   35.9560   44.6979 H   0  0  0  0  0  0  0  0  0  0  0  0
   45.6354   35.5396   42.7537 H   0  0  0  0  0  0  0  0  0  0  0  0
   48.2189   32.4358   46.8273 H   0  0  0  0  0  0  0  0  0  0  0  0
   48.5328   31.0409   48.8514 H   0  0  0  0  0  0  0  0  0  0  0  0
   46.5735   30.4791   50.2764 H   0  0  0  0  0  0  0  0  0  0  0  0
   44.3038   31.3185   49.6590 H   0  0  0  0  0  0  0  0  0  0  0  0
   44.0145   32.7166   47.6232 H   0  0  0  0  0  0  0  0  0  0  0  0
  1 14  1  0
  2  1  1  0
  3  2  2  0
  4  3  1  0
  5  4  2  0
  5  6  1  0
  6  7  2  0
  7  2  1  0
  8  6  1  0
  8  9  2  0
 10  9  1  0
 11 10  2  0
 12 13  2  0
 12 11  1  0
 13  8  1  0
 14 17  1  0
 15 20  2  0
 16 17  2  0
 16 15  1  0
 17 18  1  0
 18 19  2  0
 19 21  1  0
 20 19  1  0
 21 22  2  0
 21 26  1  0
 22 23  1  0
 23 24  2  0
 25 24  1  0
 26 25  2  0
  1 27  1  0
  1 28  1  0
  3 29  1  0
  4 30  1  0
  9 31  1  0
 10 32  1  0
 12 33  1  0
 14 34  1  0
 14 35  1  0
 15 36  1  0
 16 37  1  0
 22 38  1  0
 23 39  1  0
 24 40  1  0
 25 41  1  0
 26 42  1  0
M  ISO  8  27   8  28   8  29  14  30  14  31  14  32  14  33  14  34   8
M  ISO  8  35   8  36  14  37  14  38  14  39  14  40  14  41  14  42  14
M  END
>  <minimizedAffinity>  (1) 
-6.22958708

>  <minimizedRMSD>  (1) 
1.17520654

$$$$
