
     RDKit          3D

 39 41  0  0  1  0  0  0  0  0999 V2000
   45.4920   34.2230   41.4170 C   0  0  2  0  0  0  0  0  0  0  0  0
   44.2420   33.7010   40.6740 C   0  0  0  0  0  0  0  0  0  0  0  0
   44.9170   33.3690   39.3350 C   0  0  0  0  0  0  0  0  0  0  0  0
   46.1560   32.6780   39.7860 C   0  0  0  0  0  0  0  0  0  0  0  0
   46.4420   33.1330   41.2150 C   0  0  1  0  0  0  0  0  0  0  0  0
   44.9350   35.9930   43.0000 C   0  0  0  0  0  0  0  0  0  0  0  0
   45.2030   34.6260   42.7890 C   0  0  0  0  0  0  0  0  0  0  0  0
   45.2090   33.7280   43.8950 C   0  0  0  0  0  0  0  0  0  0  0  0
   44.9520   34.2560   45.1200 N   0  0  0  0  0  0  0  0  0  0  0  0
   44.6950   35.5840   45.3060 C   0  0  0  0  0  0  0  0  0  0  0  0
   44.6860   36.4450   44.2570 N   0  0  0  0  0  0  0  0  0  0  0  0
   47.8940   33.5330   41.3620 C   0  0  0  0  0  0  0  0  0  0  0  0
   48.4450   33.3470   42.7360 C   0  0  0  0  0  0  0  0  0  0  0  0
   49.9640   33.5310   42.6230 C   0  0  0  0  0  0  0  0  0  0  0  0
   50.2110   34.9720   42.3100 C   0  0  0  0  0  0  0  0  0  0  0  0
   49.0130   35.7270   41.8330 C   0  0  0  0  0  0  0  0  0  0  0  0
   48.1230   34.9440   40.8930 C   0  0  0  0  0  0  0  0  0  0  0  0
   45.9091   35.1689   41.0411 H   0  0  0  0  0  0  0  0  0  0  0  0
   43.8113   32.8110   41.1562 H   0  0  0  0  0  0  0  0  0  0  0  0
   43.3847   34.3886   40.6266 H   0  0  0  0  0  0  0  0  0  0  0  0
   45.1507   34.2812   38.7665 H   0  0  0  0  0  0  0  0  0  0  0  0
   44.2927   32.7694   38.6563 H   0  0  0  0  0  0  0  0  0  0  0  0
   46.0082   31.5882   39.7615 H   0  0  0  0  0  0  0  0  0  0  0  0
   46.9996   32.9253   39.1249 H   0  0  0  0  0  0  0  0  0  0  0  0
   46.3093   32.3541   41.9803 H   0  0  0  0  0  0  0  0  0  0  0  0
   44.9274   36.6917   42.1504 H   0  0  0  0  0  0  0  0  0  0  0  0
   45.4126   32.6551   43.7629 H   0  0  0  0  0  0  0  0  0  0  0  0
   44.4926   35.9610   46.3194 H   0  0  0  0  0  0  0  0  0  0  0  0
   48.4484   32.8383   40.7139 H   0  0  0  0  0  0  0  0  0  0  0  0
   48.0210   34.0965   43.4204 H   0  0  0  0  0  0  0  0  0  0  0  0
   48.1926   32.3537   43.1354 H   0  0  0  0  0  0  0  0  0  0  0  0
   50.4481   33.2632   43.5737 H   0  0  0  0  0  0  0  0  0  0  0  0
   50.3791   32.8832   41.8368 H   0  0  0  0  0  0  0  0  0  0  0  0
   50.5819   35.4611   43.2228 H   0  0  0  0  0  0  0  0  0  0  0  0
   50.9352   34.9879   41.4822 H   0  0  0  0  0  0  0  0  0  0  0  0
   48.4169   36.0188   42.7102 H   0  0  0  0  0  0  0  0  0  0  0  0
   49.3883   36.5924   41.2671 H   0  0  0  0  0  0  0  0  0  0  0  0
   48.5970   34.9139   39.9008 H   0  0  0  0  0  0  0  0  0  0  0  0
   47.1461   35.4485   40.8580 H   0  0  0  0  0  0  0  0  0  0  0  0
  1  7  1  0
  2  1  1  0
  3  4  1  0
  3  2  1  0
  4  5  1  0
  5 12  1  0
  5  1  1  0
  6 11  2  0
  7  6  1  0
  7  8  2  0
  8  9  1  0
  9 10  2  0
 11 10  1  0
 12 13  1  0
 14 13  1  0
 15 14  1  0
 16 15  1  0
 17 12  1  0
 17 16  1  0
  1 18  1  6
  2 19  1  0
  2 20  1  0
  3 21  1  0
  3 22  1  0
  4 23  1  0
  4 24  1  0
  5 25  1  1
  6 26  1  0
  8 27  1  0
 10 28  1  0
 12 29  1  0
 13 30  1  0
 13 31  1  0
 14 32  1  0
 14 33  1  0
 15 34  1  0
 15 35  1  0
 16 36  1  0
 16 37  1  0
 17 38  1  0
 17 39  1  0
M  ISO  8  18  13  19  13  20  13  21  13  22  13  23  13  24  13  25  13
M  ISO  8  26  14  27  14  28  14  29  13  30  13  31  13  32  13  33  13
M  ISO  6  34  13  35  13  36  13  37  13  38  13  39  13
M  END
>  <minimizedAffinity>  (1) 
-5.08345461

>  <minimizedRMSD>  (1) 
2.31763816

$$$$
