
     RDKit          3D

 30 32  0  0  1  0  0  0  0  0999 V2000
   44.8740   34.3010   41.7030 C   0  0  2  0  0  0  0  0  0  0  0  0
   43.7620   33.3480   41.1980 C   0  0  0  0  0  0  0  0  0  0  0  0
   44.0560   33.4660   39.6990 C   0  0  0  0  0  0  0  0  0  0  0  0
   45.5460   33.3730   39.6560 C   0  0  0  0  0  0  0  0  0  0  0  0
   46.0340   33.6800   41.0630 C   0  0  1  0  0  0  0  0  0  0  0  0
   44.4360   35.6130   43.7180 C   0  0  0  0  0  0  0  0  0  0  0  0
   44.8920   34.4080   43.1580 C   0  0  0  0  0  0  0  0  0  0  0  0
   45.3700   33.3750   44.0160 C   0  0  0  0  0  0  0  0  0  0  0  0
   45.3600   33.6090   45.3600 N   0  0  0  0  0  0  0  0  0  0  0  0
   44.9100   34.7900   45.8720 C   0  0  0  0  0  0  0  0  0  0  0  0
   44.4500   35.7870   45.0680 N   0  0  0  0  0  0  0  0  0  0  0  0
   47.2530   34.5010   40.9350 C   0  0  0  0  0  0  0  0  0  0  0  0
   47.8770   35.1650   41.9630 C   0  0  0  0  0  0  0  0  0  0  0  0
   48.9920   35.8360   41.4980 C   0  0  0  0  0  0  0  0  0  0  0  0
   49.0210   35.5620   40.1790 N   0  0  0  0  0  0  0  0  0  0  0  0
   48.0250   34.7950   39.8490 N   0  0  0  0  0  0  0  0  0  0  0  0
   44.7778   35.3660   41.4453 H   0  0  0  0  0  0  0  0  0  0  0  0
   43.8913   32.3208   41.5697 H   0  0  0  0  0  0  0  0  0  0  0  0
   42.7358   33.5894   41.5122 H   0  0  0  0  0  0  0  0  0  0  0  0
   43.5896   32.6441   39.1361 H   0  0  0  0  0  0  0  0  0  0  0  0
   43.6598   34.3861   39.2446 H   0  0  0  0  0  0  0  0  0  0  0  0
   45.8559   32.3605   39.3579 H   0  0  0  0  0  0  0  0  0  0  0  0
   45.9693   34.0764   38.9238 H   0  0  0  0  0  0  0  0  0  0  0  0
   46.3471   32.8314   41.6890 H   0  0  0  0  0  0  0  0  0  0  0  0
   44.0670   36.4172   43.0645 H   0  0  0  0  0  0  0  0  0  0  0  0
   45.7348   32.4208   43.6080 H   0  0  0  0  0  0  0  0  0  0  0  0
   44.9190   34.9405   46.9616 H   0  0  0  0  0  0  0  0  0  0  0  0
   47.5370   35.1629   43.0091 H   0  0  0  0  0  0  0  0  0  0  0  0
   49.6964   36.4539   42.0742 H   0  0  0  0  0  0  0  0  0  0  0  0
   49.7338   35.9120   39.5231 H   0  0  0  0  0  0  0  0  0  0  0  0
  1  7  1  0
  2  1  1  0
  3  2  1  0
  4  3  1  0
  4  5  1  0
  5  1  1  0
  6 11  2  0
  7  6  1  0
  7  8  2  0
  8  9  1  0
  9 10  2  0
 11 10  1  0
 12  5  1  0
 12 13  1  0
 14 13  2  0
 15 14  1  0
 16 15  1  0
 16 12  2  0
  1 17  1  6
  2 18  1  0
  2 19  1  0
  3 20  1  0
  3 21  1  0
  4 22  1  0
  4 23  1  0
  5 24  1  1
  6 25  1  0
  8 26  1  0
 10 27  1  0
 13 28  1  0
 14 29  1  0
 15 30  1  0
M  ISO  8  17  13  18  13  19  13  20  13  21  13  22  13  23  13  24  13
M  ISO  6  25  14  26  14  27  14  28  14  29  14  30   9
M  END
>  <minimizedAffinity>  (1) 
-4.99084091

>  <minimizedRMSD>  (1) 
1.92331421

$$$$
