
     RDKit          3D

 46 50  0  0  0  0  0  0  0  0999 V2000
   47.8980   33.8070   42.7090 C   0  0  0  0  0  0  0  0  0  0  0  0
   44.9930   35.0290   44.7800 C   0  0  0  0  0  0  0  0  0  0  0  0
   45.9470   34.9400   43.7520 C   0  0  0  0  0  0  0  0  0  0  0  0
   46.8910   33.9470   43.7700 C   0  0  0  0  0  0  0  0  0  0  0  0
   46.8400   33.0920   44.8060 N   0  0  0  0  0  0  0  0  0  0  0  0
   45.9380   33.1650   45.7850 C   0  0  0  0  0  0  0  0  0  0  0  0
   45.0290   34.1180   45.7750 N   0  0  0  0  0  0  0  0  0  0  0  0
   45.8020   32.2850   46.9410 C   0  0  0  0  0  0  0  0  0  0  0  0
   45.9010   32.7210   48.2180 N   0  0  0  0  0  0  0  0  0  0  0  0
   45.7890   31.9850   49.3100 C   0  0  0  0  0  0  0  0  0  0  0  0
   45.5490   30.6470   49.2200 N   0  0  0  0  0  0  0  0  0  0  0  0
   45.4280   30.0860   47.9900 C   0  0  0  0  0  0  0  0  0  0  0  0
   45.1880   28.7450   47.8980 C   0  0  0  0  0  0  0  0  0  0  0  0
   45.0610   28.1450   46.6800 C   0  0  0  0  0  0  0  0  0  0  0  0
   45.1860   28.9570   45.5680 C   0  0  0  0  0  0  0  0  0  0  0  0
   45.4270   30.3000   45.7020 C   0  0  0  0  0  0  0  0  0  0  0  0
   45.5610   30.9320   46.9140 C   0  0  0  0  0  0  0  0  0  0  0  0
   47.8960   34.9150   41.7100 C   0  0  0  0  0  0  0  0  0  0  0  0
   47.4850   34.3670   40.3880 C   0  0  0  0  0  0  0  0  0  0  0  0
   48.3100   34.4020   39.2860 C   0  0  0  0  0  0  0  0  0  0  0  0
   48.0130   33.9210   38.0350 C   0  0  0  0  0  0  0  0  0  0  0  0
   46.7700   33.3610   37.9170 N   0  0  0  0  0  0  0  0  0  0  0  0
   45.9440   33.3170   38.9910 C   0  0  0  0  0  0  0  0  0  0  0  0
   46.2550   33.7960   40.2110 N   0  0  0  0  0  0  0  0  0  0  0  0
   44.6360   32.7030   38.7820 C   0  0  0  0  0  0  0  0  0  0  0  0
   43.6570   32.7850   39.7660 C   0  0  0  0  0  0  0  0  0  0  0  0
   42.4310   32.2110   39.5750 C   0  0  0  0  0  0  0  0  0  0  0  0
   42.1530   31.5680   38.4530 N   0  0  0  0  0  0  0  0  0  0  0  0
   43.1170   31.4910   37.4910 C   0  0  0  0  0  0  0  0  0  0  0  0
   44.3570   32.0560   37.6490 N   0  0  0  0  0  0  0  0  0  0  0  0
   48.8914   33.7696   43.1798 H   0  0  0  0  0  0  0  0  0  0  0  0
   47.6502   32.8870   42.1592 H   0  0  0  0  0  0  0  0  0  0  0  0
   44.2331   35.8243   44.7738 H   0  0  0  0  0  0  0  0  0  0  0  0
   45.9359   35.6704   42.9296 H   0  0  0  0  0  0  0  0  0  0  0  0
   45.8903   32.4562   50.2988 H   0  0  0  0  0  0  0  0  0  0  0  0
   45.0963   28.1434   48.8143 H   0  0  0  0  0  0  0  0  0  0  0  0
   44.8682   27.0661   46.5867 H   0  0  0  0  0  0  0  0  0  0  0  0
   45.0909   28.5200   44.5630 H   0  0  0  0  0  0  0  0  0  0  0  0
   45.5181   30.9051   44.7879 H   0  0  0  0  0  0  0  0  0  0  0  0
   47.1865   35.6948   42.0239 H   0  0  0  0  0  0  0  0  0  0  0  0
   48.9017   35.3544   41.6366 H   0  0  0  0  0  0  0  0  0  0  0  0
   49.3015   34.8589   39.4210 H   0  0  0  0  0  0  0  0  0  0  0  0
   48.7188   33.9810   37.1935 H   0  0  0  0  0  0  0  0  0  0  0  0
   43.8706   33.3159   40.7054 H   0  0  0  0  0  0  0  0  0  0  0  0
   41.6672   32.2847   40.3632 H   0  0  0  0  0  0  0  0  0  0  0  0
   42.8922   30.9572   36.5558 H   0  0  0  0  0  0  0  0  0  0  0  0
  1  4  1  0
  2  7  2  0
  3  4  2  0
  3  2  1  0
  4  5  1  0
  5  6  2  0
  6  8  1  0
  7  6  1  0
  8  9  2  0
  9 10  1  0
 11 10  2  0
 12 11  1  0
 13 12  2  0
 14 13  1  0
 15 16  1  0
 15 14  2  0
 16 17  2  0
 17  8  1  0
 17 12  1  0
 18  1  1  0
 19 18  1  0
 20 19  2  0
 21 20  1  0
 22 21  2  0
 22 23  1  0
 23 24  2  0
 24 19  1  0
 25 23  1  0
 25 26  2  0
 27 26  1  0
 28 27  2  0
 29 30  2  0
 29 28  1  0
 30 25  1  0
  1 31  1  0
  1 32  1  0
  2 33  1  0
  3 34  1  0
 10 35  1  0
 13 36  1  0
 14 37  1  0
 15 38  1  0
 16 39  1  0
 18 40  1  0
 18 41  1  0
 20 42  1  0
 21 43  1  0
 26 44  1  0
 27 45  1  0
 29 46  1  0
M  ISO  8  31   8  32   8  33  14  34  14  35  14  36  14  37  14  38  14
M  ISO  8  39  14  40   8  41   8  42  14  43  14  44  14  45  14  46  14
M  END
>  <minimizedAffinity>  (1) 
-6.22487307

>  <minimizedRMSD>  (1) 
1.37670815

$$$$
