
     RDKit          3D

 38 40  0  0  1  0  0  0  0  0999 V2000
   45.4820   34.1490   41.2070 C   0  0  2  0  0  0  0  0  0  0  0  0
   44.2750   33.4000   40.5730 C   0  0  0  0  0  0  0  0  0  0  0  0
   44.8820   33.2000   39.1850 C   0  0  0  0  0  0  0  0  0  0  0  0
   46.2690   32.7120   39.5310 C   0  0  0  0  0  0  0  0  0  0  0  0
   46.5170   33.1400   40.9670 C   0  0  1  0  0  0  0  0  0  0  0  0
   45.0110   35.9120   42.8420 C   0  0  0  0  0  0  0  0  0  0  0  0
   45.2420   34.5270   42.5990 C   0  0  0  0  0  0  0  0  0  0  0  0
   45.2540   33.6090   43.6890 C   0  0  0  0  0  0  0  0  0  0  0  0
   45.0390   34.1140   44.9250 N   0  0  0  0  0  0  0  0  0  0  0  0
   44.8180   35.4410   45.1390 C   0  0  0  0  0  0  0  0  0  0  0  0
   44.8040   36.3300   44.1210 N   0  0  0  0  0  0  0  0  0  0  0  0
   47.8830   33.5290   41.1880 N   0  0  0  0  0  0  0  0  0  0  0  0
   48.1640   34.8680   40.7080 C   0  0  0  0  0  0  0  0  0  0  0  0
   48.8030   35.7630   41.7210 C   0  0  0  0  0  0  0  0  0  0  0  0
   49.9930   35.1230   42.4020 C   0  0  0  0  0  0  0  0  0  0  0  0
   49.8360   33.6300   42.5290 C   0  0  0  0  0  0  0  0  0  0  0  0
   48.3260   33.3600   42.5380 C   0  0  0  0  0  0  0  0  0  0  0  0
   45.7352   35.1368   40.7946 H   0  0  0  0  0  0  0  0  0  0  0  0
   44.0594   32.4471   41.0785 H   0  0  0  0  0  0  0  0  0  0  0  0
   43.3028   33.9130   40.6140 H   0  0  0  0  0  0  0  0  0  0  0  0
   44.9170   34.1442   38.6218 H   0  0  0  0  0  0  0  0  0  0  0  0
   44.3126   32.5138   38.5409 H   0  0  0  0  0  0  0  0  0  0  0  0
   46.3216   31.6167   39.4441 H   0  0  0  0  0  0  0  0  0  0  0  0
   47.0248   33.1298   38.8497 H   0  0  0  0  0  0  0  0  0  0  0  0
   46.4213   32.3363   41.7119 H   0  0  0  0  0  0  0  0  0  0  0  0
   45.0001   36.6314   42.0100 H   0  0  0  0  0  0  0  0  0  0  0  0
   45.4307   32.5348   43.5316 H   0  0  0  0  0  0  0  0  0  0  0  0
   44.6468   35.7978   46.1653 H   0  0  0  0  0  0  0  0  0  0  0  0
   48.8391   34.7894   39.8431 H   0  0  0  0  0  0  0  0  0  0  0  0
   47.1946   35.3215   40.4537 H   0  0  0  0  0  0  0  0  0  0  0  0
   49.1387   36.6811   41.2167 H   0  0  0  0  0  0  0  0  0  0  0  0
   48.0520   35.9743   42.4965 H   0  0  0  0  0  0  0  0  0  0  0  0
   50.8966   35.3360   41.8120 H   0  0  0  0  0  0  0  0  0  0  0  0
   50.0708   35.5435   43.4155 H   0  0  0  0  0  0  0  0  0  0  0  0
   50.3094   33.1224   41.6756 H   0  0  0  0  0  0  0  0  0  0  0  0
   50.3172   33.2517   43.4430 H   0  0  0  0  0  0  0  0  0  0  0  0
   47.8146   34.0747   43.1996 H   0  0  0  0  0  0  0  0  0  0  0  0
   48.1013   32.3496   42.9104 H   0  0  0  0  0  0  0  0  0  0  0  0
  1  7  1  0
  2  1  1  0
  3  4  1  0
  3  2  1  0
  4  5  1  0
  5 12  1  0
  5  1  1  0
  6 11  2  0
  7  6  1  0
  7  8  2  0
  8  9  1  0
  9 10  2  0
 11 10  1  0
 12 17  1  0
 13 12  1  0
 13 14  1  0
 14 15  1  0
 15 16  1  0
 16 17  1  0
  1 18  1  6
  2 19  1  0
  2 20  1  0
  3 21  1  0
  3 22  1  0
  4 23  1  0
  4 24  1  0
  5 25  1  1
  6 26  1  0
  8 27  1  0
 10 28  1  0
 13 29  1  0
 13 30  1  0
 14 31  1  0
 14 32  1  0
 15 33  1  0
 15 34  1  0
 16 35  1  0
 16 36  1  0
 17 37  1  0
 17 38  1  0
M  ISO  8  18  13  19  13  20  13  21  13  22  13  23  13  24  13  25  13
M  ISO  8  26  14  27  14  28  14  29  13  30  13  31  13  32  13  33  13
M  ISO  5  34  13  35  13  36  13  37  13  38  13
M  END
>  <minimizedAffinity>  (1) 
-5.03423643

>  <minimizedRMSD>  (1) 
2.66439509

$$$$
