
     RDKit          3D

 36 38  0  0  1  0  0  0  0  0999 V2000
   45.5310   34.1760   42.2490 C   0  0  2  0  0  0  0  0  0  0  0  0
   44.2480   33.7590   41.5090 C   0  0  0  0  0  0  0  0  0  0  0  0
   44.8170   33.8040   40.0800 C   0  0  0  0  0  0  0  0  0  0  0  0
   46.0380   32.9460   40.3000 C   0  0  0  0  0  0  0  0  0  0  0  0
   46.5480   33.3150   41.6950 C   0  0  1  0  0  0  0  0  0  0  0  0
   44.6930   35.3320   44.2450 C   0  0  0  0  0  0  0  0  0  0  0  0
   45.3490   34.2120   43.7010 C   0  0  0  0  0  0  0  0  0  0  0  0
   45.8190   33.1830   44.5670 C   0  0  0  0  0  0  0  0  0  0  0  0
   45.6040   33.3430   45.9030 N   0  0  0  0  0  0  0  0  0  0  0  0
   44.9660   34.4400   46.4010 C   0  0  0  0  0  0  0  0  0  0  0  0
   44.5130   35.4280   45.5750 N   0  0  0  0  0  0  0  0  0  0  0  0
   47.8800   34.0310   41.4640 C   0  0  0  0  0  0  0  0  0  0  0  0
   47.8090   35.5080   41.6790 C   0  0  0  0  0  0  0  0  0  0  0  0
   49.3000   35.8700   41.6570 C   0  0  0  0  0  0  0  0  0  0  0  0
   49.8210   34.8290   42.6410 C   0  0  0  0  0  0  0  0  0  0  0  0
   48.9590   33.5850   42.3910 C   0  0  0  0  0  0  0  0  0  0  0  0
   45.8444   35.2186   42.0918 H   0  0  0  0  0  0  0  0  0  0  0  0
   43.9091   32.7519   41.7933 H   0  0  0  0  0  0  0  0  0  0  0  0
   43.3548   34.3727   41.6978 H   0  0  0  0  0  0  0  0  0  0  0  0
   45.0790   34.8264   39.7699 H   0  0  0  0  0  0  0  0  0  0  0  0
   44.1357   33.4709   39.2832 H   0  0  0  0  0  0  0  0  0  0  0  0
   45.7718   31.8796   40.2572 H   0  0  0  0  0  0  0  0  0  0  0  0
   46.8020   33.1158   39.5270 H   0  0  0  0  0  0  0  0  0  0  0  0
   46.7183   32.4763   42.3861 H   0  0  0  0  0  0  0  0  0  0  0  0
   44.3270   36.1299   43.5821 H   0  0  0  0  0  0  0  0  0  0  0  0
   46.3348   32.2949   44.1729 H   0  0  0  0  0  0  0  0  0  0  0  0
   44.8137   34.5306   47.4866 H   0  0  0  0  0  0  0  0  0  0  0  0
   48.1021   33.7782   40.4167 H   0  0  0  0  0  0  0  0  0  0  0  0
   47.2581   36.0095   40.8697 H   0  0  0  0  0  0  0  0  0  0  0  0
   47.2787   35.8115   42.5937 H   0  0  0  0  0  0  0  0  0  0  0  0
   49.7386   35.7453   40.6560 H   0  0  0  0  0  0  0  0  0  0  0  0
   49.5339   36.9146   41.9101 H   0  0  0  0  0  0  0  0  0  0  0  0
   50.8816   34.6103   42.4479 H   0  0  0  0  0  0  0  0  0  0  0  0
   49.7570   35.1751   43.6832 H   0  0  0  0  0  0  0  0  0  0  0  0
   48.5286   33.2189   43.3348 H   0  0  0  0  0  0  0  0  0  0  0  0
   49.5473   32.7582   41.9664 H   0  0  0  0  0  0  0  0  0  0  0  0
  1  7  1  0
  2  1  1  0
  3  4  1  0
  3  2  1  0
  4  5  1  0
  5  1  1  0
  6 11  2  0
  7  6  1  0
  7  8  2  0
  8  9  1  0
  9 10  2  0
 11 10  1  0
 12 13  1  0
 12  5  1  0
 12 16  1  0
 14 13  1  0
 14 15  1  0
 16 15  1  0
  1 17  1  6
  2 18  1  0
  2 19  1  0
  3 20  1  0
  3 21  1  0
  4 22  1  0
  4 23  1  0
  5 24  1  1
  6 25  1  0
  8 26  1  0
 10 27  1  0
 12 28  1  0
 13 29  1  0
 13 30  1  0
 14 31  1  0
 14 32  1  0
 15 33  1  0
 15 34  1  0
 16 35  1  0
 16 36  1  0
M  ISO  8  17  13  18  13  19  13  20  13  21  13  22  13  23  13  24  13
M  ISO  8  25  14  26  14  27  14  28  13  29  13  30  13  31  13  32  13
M  ISO  4  33  13  34  13  35  13  36  13
M  END
>  <minimizedAffinity>  (1) 
-4.76754189

>  <minimizedRMSD>  (1) 
2.23905134

$$$$
