
     RDKit          3D

 29 30  0  0  1  0  0  0  0  0999 V2000
   46.7720   34.6800   41.8350 C   0  0  2  0  0  0  0  0  0  0  0  0
   46.0500   33.7570   40.8330 C   0  0  0  0  0  0  0  0  0  0  0  0
   47.0670   33.8540   39.6900 C   0  0  0  0  0  0  0  0  0  0  0  0
   48.3560   33.6430   40.4460 C   0  0  0  0  0  0  0  0  0  0  0  0
   48.0920   34.0510   41.8930 C   0  0  1  0  0  0  0  0  0  0  0  0
   45.2780   35.9990   43.2400 C   0  0  0  0  0  0  0  0  0  0  0  0
   46.0480   34.8330   43.0890 C   0  0  0  0  0  0  0  0  0  0  0  0
   46.1100   33.8960   44.1590 C   0  0  0  0  0  0  0  0  0  0  0  0
   45.4130   34.1870   45.2830 N   0  0  0  0  0  0  0  0  0  0  0  0
   44.6710   35.3220   45.4160 C   0  0  0  0  0  0  0  0  0  0  0  0
   44.6020   36.2250   44.4000 N   0  0  0  0  0  0  0  0  0  0  0  0
   49.1960   34.9790   42.3760 C   0  0  0  0  0  0  0  0  0  0  0  0
   49.2870   36.2500   41.6020 C   0  0  0  0  0  0  0  0  0  0  0  0
   46.8448   35.7392   41.5471 H   0  0  0  0  0  0  0  0  0  0  0  0
   45.9452   32.7298   41.2124 H   0  0  0  0  0  0  0  0  0  0  0  0
   45.0137   34.0289   40.5838 H   0  0  0  0  0  0  0  0  0  0  0  0
   47.0385   34.8406   39.2043 H   0  0  0  0  0  0  0  0  0  0  0  0
   46.8985   33.1444   38.8666 H   0  0  0  0  0  0  0  0  0  0  0  0
   48.6533   32.5850   40.3993 H   0  0  0  0  0  0  0  0  0  0  0  0
   49.1707   34.2402   40.0105 H   0  0  0  0  0  0  0  0  0  0  0  0
   48.0955   33.2199   42.6137 H   0  0  0  0  0  0  0  0  0  0  0  0
   45.2214   36.7299   42.4199 H   0  0  0  0  0  0  0  0  0  0  0  0
   46.7009   32.9719   44.0760 H   0  0  0  0  0  0  0  0  0  0  0  0
   44.1237   35.5099   46.3515 H   0  0  0  0  0  0  0  0  0  0  0  0
   49.0057   35.2267   43.4307 H   0  0  0  0  0  0  0  0  0  0  0  0
   50.1489   34.4472   42.2371 H   0  0  0  0  0  0  0  0  0  0  0  0
   49.3478   37.0996   42.2980 H   0  0  0  0  0  0  0  0  0  0  0  0
   50.1860   36.2299   40.9685 H   0  0  0  0  0  0  0  0  0  0  0  0
   48.3943   36.3582   40.9685 H   0  0  0  0  0  0  0  0  0  0  0  0
  1  5  1  0
  1  7  1  0
  2  1  1  0
  3  4  1  0
  3  2  1  0
  4  5  1  0
  5 12  1  0
  6 11  2  0
  7  6  1  0
  7  8  2  0
  8  9  1  0
  9 10  2  0
 11 10  1  0
 13 12  1  0
  1 14  1  6
  2 15  1  0
  2 16  1  0
  3 17  1  0
  3 18  1  0
  4 19  1  0
  4 20  1  0
  5 21  1  1
  6 22  1  0
  8 23  1  0
 10 24  1  0
 12 25  1  0
 12 26  1  0
 13 27  1  0
 13 28  1  0
 13 29  1  0
M  ISO  8  14  13  15  13  16  13  17  13  18  13  19  13  20  13  21  13
M  ISO  8  22  14  23  14  24  14  25   8  26   8  27   8  28   8  29   8
M  END
>  <minimizedAffinity>  (1) 
-4.79992819

>  <minimizedRMSD>  (1) 
3.13471603

$$$$
