
     RDKit          3D

 35 36  0  0  1  0  0  0  0  0999 V2000
   46.0050   34.4000   41.5590 C   0  0  2  0  0  0  0  0  0  0  0  0
   44.8940   33.7600   40.7070 C   0  0  0  0  0  0  0  0  0  0  0  0
   45.6440   33.4220   39.4660 C   0  0  0  0  0  0  0  0  0  0  0  0
   46.9990   33.0510   39.9600 C   0  0  0  0  0  0  0  0  0  0  0  0
   47.1180   33.4960   41.4120 C   0  0  1  0  0  0  0  0  0  0  0  0
   45.0740   36.0130   43.1510 C   0  0  0  0  0  0  0  0  0  0  0  0
   45.5210   34.7040   42.9080 C   0  0  0  0  0  0  0  0  0  0  0  0
   45.5230   33.7930   43.9730 C   0  0  0  0  0  0  0  0  0  0  0  0
   45.1020   34.1830   45.1970 N   0  0  0  0  0  0  0  0  0  0  0  0
   44.6720   35.4650   45.4110 C   0  0  0  0  0  0  0  0  0  0  0  0
   44.6580   36.3720   44.3930 N   0  0  0  0  0  0  0  0  0  0  0  0
   48.5060   34.0420   41.5560 C   0  0  0  0  0  0  0  0  0  0  0  0
   49.3930   33.0840   40.7410 C   0  0  0  0  0  0  0  0  0  0  0  0
   49.0750   34.1140   42.9160 C   0  0  0  0  0  0  0  0  0  0  0  0
   48.6880   35.3800   40.8750 C   0  0  0  0  0  0  0  0  0  0  0  0
   46.3396   35.3987   41.2418 H   0  0  0  0  0  0  0  0  0  0  0  0
   44.4839   32.8600   41.1885 H   0  0  0  0  0  0  0  0  0  0  0  0
   44.0187   34.4062   40.5451 H   0  0  0  0  0  0  0  0  0  0  0  0
   45.6967   34.2893   38.7914 H   0  0  0  0  0  0  0  0  0  0  0  0
   45.1674   32.6176   38.8866 H   0  0  0  0  0  0  0  0  0  0  0  0
   47.1338   31.9614   39.8928 H   0  0  0  0  0  0  0  0  0  0  0  0
   47.7719   33.5406   39.3493 H   0  0  0  0  0  0  0  0  0  0  0  0
   47.0370   32.7505   42.2168 H   0  0  0  0  0  0  0  0  0  0  0  0
   45.0608   36.7491   42.3337 H   0  0  0  0  0  0  0  0  0  0  0  0
   45.8672   32.7606   43.8129 H   0  0  0  0  0  0  0  0  0  0  0  0
   44.3346   35.7662   46.4137 H   0  0  0  0  0  0  0  0  0  0  0  0
   49.9774   32.4528   41.4266 H   0  0  0  0  0  0  0  0  0  0  0  0
   48.7587   32.4471   40.1070 H   0  0  0  0  0  0  0  0  0  0  0  0
   50.0768   33.6674   40.1070 H   0  0  0  0  0  0  0  0  0  0  0  0
   48.2683   34.0119   43.6568 H   0  0  0  0  0  0  0  0  0  0  0  0
   49.8031   33.3008   43.0524 H   0  0  0  0  0  0  0  0  0  0  0  0
   49.5776   35.0829   43.0524 H   0  0  0  0  0  0  0  0  0  0  0  0
   48.7951   36.1671   41.6359 H   0  0  0  0  0  0  0  0  0  0  0  0
   49.5906   35.3520   40.2469 H   0  0  0  0  0  0  0  0  0  0  0  0
   47.8107   35.5941   40.2469 H   0  0  0  0  0  0  0  0  0  0  0  0
  1  7  1  0
  2  1  1  0
  3  4  1  0
  3  2  1  0
  4  5  1  0
  5 12  1  0
  5  1  1  0
  6 11  2  0
  7  6  1  0
  7  8  2  0
  8  9  1  0
  9 10  2  0
 11 10  1  0
 12 14  1  0
 13 12  1  0
 15 12  1  0
  1 16  1  6
  2 17  1  0
  2 18  1  0
  3 19  1  0
  3 20  1  0
  4 21  1  0
  4 22  1  0
  5 23  1  1
  6 24  1  0
  8 25  1  0
 10 26  1  0
 13 27  1  0
 13 28  1  0
 13 29  1  0
 14 30  1  0
 14 31  1  0
 14 32  1  0
 15 33  1  0
 15 34  1  0
 15 35  1  0
M  ISO  8  16  13  17  13  18  13  19  13  20  13  21  13  22  13  23  13
M  ISO  8  24  14  25  14  26  14  27   8  28   8  29   8  30   8  31   8
M  ISO  4  32   8  33   8  34   8  35   8
M  END
>  <minimizedAffinity>  (1) 
-4.49142313

>  <minimizedRMSD>  (1) 
2.60517097

$$$$
