
     RDKit          3D

 31 33  0  0  1  0  0  0  0  0999 V2000
   44.1020   34.8650   41.6750 C   0  0  2  0  0  0  0  0  0  0  0  0
   42.5570   34.8920   41.5150 C   0  0  0  0  0  0  0  0  0  0  0  0
   42.5090   35.1600   40.0150 C   0  0  0  0  0  0  0  0  0  0  0  0
   43.5140   34.1680   39.5080 C   0  0  0  0  0  0  0  0  0  0  0  0
   44.4160   33.8270   40.6950 C   0  0  1  0  0  0  0  0  0  0  0  0
   44.3580   35.7050   43.9600 C   0  0  0  0  0  0  0  0  0  0  0  0
   44.5120   34.6210   43.0550 C   0  0  0  0  0  0  0  0  0  0  0  0
   45.0650   33.3890   43.5110 C   0  0  0  0  0  0  0  0  0  0  0  0
   45.4260   33.3150   44.8150 N   0  0  0  0  0  0  0  0  0  0  0  0
   45.2700   34.3680   45.6690 C   0  0  0  0  0  0  0  0  0  0  0  0
   44.7440   35.5480   45.2570 N   0  0  0  0  0  0  0  0  0  0  0  0
   45.8070   33.8230   40.1900 C   0  0  0  0  0  0  0  0  0  0  0  0
   46.9140   34.4320   40.7460 C   0  0  0  0  0  0  0  0  0  0  0  0
   48.1550   34.3370   40.1490 C   0  0  0  0  0  0  0  0  0  0  0  0
   48.2650   33.6270   38.9980 N   0  0  0  0  0  0  0  0  0  0  0  0
   47.1670   33.0360   38.4660 C   0  0  0  0  0  0  0  0  0  0  0  0
   45.9520   33.1350   39.0600 N   0  0  0  0  0  0  0  0  0  0  0  0
   44.6460   35.8026   41.4878 H   0  0  0  0  0  0  0  0  0  0  0  0
   42.0927   33.9313   41.7825 H   0  0  0  0  0  0  0  0  0  0  0  0
   42.0161   35.6068   42.1526 H   0  0  0  0  0  0  0  0  0  0  0  0
   41.5078   34.9657   39.6029 H   0  0  0  0  0  0  0  0  0  0  0  0
   42.7237   36.2021   39.7360 H   0  0  0  0  0  0  0  0  0  0  0  0
   43.0057   33.2632   39.1434 H   0  0  0  0  0  0  0  0  0  0  0  0
   44.0948   34.5798   38.6695 H   0  0  0  0  0  0  0  0  0  0  0  0
   44.2730   32.8439   41.1673 H   0  0  0  0  0  0  0  0  0  0  0  0
   43.9322   36.6597   43.6177 H   0  0  0  0  0  0  0  0  0  0  0  0
   45.1935   32.5331   42.8320 H   0  0  0  0  0  0  0  0  0  0  0  0
   45.5790   34.2566   46.7188 H   0  0  0  0  0  0  0  0  0  0  0  0
   46.8054   35.0024   41.6802 H   0  0  0  0  0  0  0  0  0  0  0  0
   49.0337   34.8252   40.5957 H   0  0  0  0  0  0  0  0  0  0  0  0
   47.2638   32.4634   37.5318 H   0  0  0  0  0  0  0  0  0  0  0  0
  1  7  1  0
  2  1  1  0
  3  2  1  0
  4  3  1  0
  4  5  1  0
  5  1  1  0
  6 11  2  0
  7  8  2  0
  7  6  1  0
  8  9  1  0
  9 10  2  0
 11 10  1  0
 12  5  1  0
 12 13  2  0
 14 13  1  0
 15 14  2  0
 16 15  1  0
 16 17  2  0
 17 12  1  0
  1 18  1  6
  2 19  1  0
  2 20  1  0
  3 21  1  0
  3 22  1  0
  4 23  1  0
  4 24  1  0
  5 25  1  1
  6 26  1  0
  8 27  1  0
 10 28  1  0
 13 29  1  0
 14 30  1  0
 16 31  1  0
M  ISO  8  18  13  19  13  20  13  21  13  22  13  23  13  24  13  25  13
M  ISO  6  26  14  27  14  28  14  29  14  30  14  31  14
M  END
>  <minimizedAffinity>  (1) 
-4.62335968

>  <minimizedRMSD>  (1) 
0.349831849

$$$$
