
     RDKit          3D

 32 34  0  0  1  0  0  0  0  0999 V2000
   44.0580   34.8760   41.6620 C   0  0  2  0  0  0  0  0  0  0  0  0
   42.5110   34.9060   41.5140 C   0  0  0  0  0  0  0  0  0  0  0  0
   42.4600   35.1800   40.0160 C   0  0  0  0  0  0  0  0  0  0  0  0
   43.4280   34.1440   39.5100 C   0  0  0  0  0  0  0  0  0  0  0  0
   44.3740   33.8460   40.6730 C   0  0  1  0  0  0  0  0  0  0  0  0
   44.3470   35.7070   43.9490 C   0  0  0  0  0  0  0  0  0  0  0  0
   44.4860   34.6350   43.0370 C   0  0  0  0  0  0  0  0  0  0  0  0
   45.0460   33.4020   43.4820 C   0  0  0  0  0  0  0  0  0  0  0  0
   45.4280   33.3160   44.7840 N   0  0  0  0  0  0  0  0  0  0  0  0
   45.2830   34.3670   45.6410 C   0  0  0  0  0  0  0  0  0  0  0  0
   44.7470   35.5530   45.2330 N   0  0  0  0  0  0  0  0  0  0  0  0
   45.7660   33.8520   40.1690 C   0  0  0  0  0  0  0  0  0  0  0  0
   45.9610   33.1560   38.9860 C   0  0  0  0  0  0  0  0  0  0  0  0
   47.1990   33.0610   38.3770 C   0  0  0  0  0  0  0  0  0  0  0  0
   48.3040   33.6810   38.9570 C   0  0  0  0  0  0  0  0  0  0  0  0
   48.0280   34.3510   40.1290 C   0  0  0  0  0  0  0  0  0  0  0  0
   46.8310   34.4530   40.7330 N   0  0  0  0  0  0  0  0  0  0  0  0
   44.5960   35.8168   41.4736 H   0  0  0  0  0  0  0  0  0  0  0  0
   42.0462   33.9452   41.7800 H   0  0  0  0  0  0  0  0  0  0  0  0
   41.9732   35.6171   42.1584 H   0  0  0  0  0  0  0  0  0  0  0  0
   41.4499   35.0238   39.6095 H   0  0  0  0  0  0  0  0  0  0  0  0
   42.7074   36.2135   39.7321 H   0  0  0  0  0  0  0  0  0  0  0  0
   42.8901   33.2320   39.2118 H   0  0  0  0  0  0  0  0  0  0  0  0
   43.9766   34.5032   38.6268 H   0  0  0  0  0  0  0  0  0  0  0  0
   44.2586   32.8562   41.1388 H   0  0  0  0  0  0  0  0  0  0  0  0
   43.9154   36.6625   43.6161 H   0  0  0  0  0  0  0  0  0  0  0  0
   45.1649   32.5502   42.7962 H   0  0  0  0  0  0  0  0  0  0  0  0
   45.6061   34.2555   46.6865 H   0  0  0  0  0  0  0  0  0  0  0  0
   45.0993   32.6611   38.5144 H   0  0  0  0  0  0  0  0  0  0  0  0
   47.3110   32.4983   37.4385 H   0  0  0  0  0  0  0  0  0  0  0  0
   49.3111   33.6391   38.5166 H   0  0  0  0  0  0  0  0  0  0  0  0
   48.8736   34.8540   40.6209 H   0  0  0  0  0  0  0  0  0  0  0  0
  1  7  1  0
  2  1  1  0
  3  2  1  0
  4  3  1  0
  4  5  1  0
  5  1  1  0
  6 11  2  0
  7  8  2  0
  7  6  1  0
  8  9  1  0
  9 10  2  0
 11 10  1  0
 12  5  1  0
 12 17  1  0
 13 12  2  0
 14 15  2  0
 14 13  1  0
 15 16  1  0
 16 17  2  0
  1 18  1  6
  2 19  1  0
  2 20  1  0
  3 21  1  0
  3 22  1  0
  4 23  1  0
  4 24  1  0
  5 25  1  1
  6 26  1  0
  8 27  1  0
 10 28  1  0
 13 29  1  0
 14 30  1  0
 15 31  1  0
 16 32  1  0
M  ISO  8  18  13  19  13  20  13  21  13  22  13  23  13  24  13  25  13
M  ISO  7  26  14  27  14  28  14  29  14  30  14  31  14  32  14
M  END
>  <minimizedAffinity>  (1) 
-4.63610983

>  <minimizedRMSD>  (1) 
0.514122188

$$$$
