
     RDKit          3D

 36 38  0  0  1  0  0  0  0  0999 V2000
   44.2140   34.8210   41.6780 C   0  0  2  0  0  0  0  0  0  0  0  0
   42.6750   34.8530   41.4670 C   0  0  0  0  0  0  0  0  0  0  0  0
   42.7030   35.1060   39.9500 C   0  0  0  0  0  0  0  0  0  0  0  0
   43.7080   34.0850   39.5030 C   0  0  0  0  0  0  0  0  0  0  0  0
   44.5720   33.7820   40.7130 C   0  0  1  0  0  0  0  0  0  0  0  0
   44.4000   35.6630   43.9690 C   0  0  0  0  0  0  0  0  0  0  0  0
   44.5830   34.5770   43.0750 C   0  0  0  0  0  0  0  0  0  0  0  0
   45.1230   33.3490   43.5580 C   0  0  0  0  0  0  0  0  0  0  0  0
   45.4370   33.2940   44.8780 N   0  0  0  0  0  0  0  0  0  0  0  0
   45.2550   34.3490   45.7220 C   0  0  0  0  0  0  0  0  0  0  0  0
   44.7390   35.5270   45.2710 N   0  0  0  0  0  0  0  0  0  0  0  0
   45.9410   33.5570   40.4300 N   0  0  0  0  0  0  0  0  0  0  0  0
   46.8670   34.5530   40.8070 C   0  0  0  0  0  0  0  0  0  0  0  0
   48.1280   34.3100   39.9670 C   0  0  0  0  0  0  0  0  0  0  0  0
   48.3590   32.9180   39.9760 O   0  0  0  0  0  0  0  0  0  0  0  0
   47.4840   32.2990   39.0810 C   0  0  0  0  0  0  0  0  0  0  0  0
   46.1250   32.9490   39.1530 C   0  0  0  0  0  0  0  0  0  0  0  0
   44.7567   35.7620   41.5047 H   0  0  0  0  0  0  0  0  0  0  0  0
   42.1941   33.8982   41.7262 H   0  0  0  0  0  0  0  0  0  0  0  0
   42.1078   35.5715   42.0770 H   0  0  0  0  0  0  0  0  0  0  0  0
   41.7180   34.9289   39.4935 H   0  0  0  0  0  0  0  0  0  0  0  0
   42.9537   36.1396   39.6691 H   0  0  0  0  0  0  0  0  0  0  0  0
   43.1979   33.1725   39.1608 H   0  0  0  0  0  0  0  0  0  0  0  0
   44.3121   34.4587   38.6631 H   0  0  0  0  0  0  0  0  0  0  0  0
   44.3715   32.7954   41.1562 H   0  0  0  0  0  0  0  0  0  0  0  0
   43.9834   36.6134   43.6041 H   0  0  0  0  0  0  0  0  0  0  0  0
   45.2780   32.4868   42.8927 H   0  0  0  0  0  0  0  0  0  0  0  0
   45.5287   34.2480   46.7826 H   0  0  0  0  0  0  0  0  0  0  0  0
   46.4573   35.5523   40.5984 H   0  0  0  0  0  0  0  0  0  0  0  0
   47.0887   34.5055   41.8834 H   0  0  0  0  0  0  0  0  0  0  0  0
   48.9853   34.8394   40.4082 H   0  0  0  0  0  0  0  0  0  0  0  0
   47.9976   34.6829   38.9404 H   0  0  0  0  0  0  0  0  0  0  0  0
   47.3922   31.2338   39.3396 H   0  0  0  0  0  0  0  0  0  0  0  0
   47.8797   32.4030   38.0599 H   0  0  0  0  0  0  0  0  0  0  0  0
   46.0468   33.7170   38.3694 H   0  0  0  0  0  0  0  0  0  0  0  0
   45.3503   32.1825   39.0035 H   0  0  0  0  0  0  0  0  0  0  0  0
  1  7  1  0
  2  1  1  0
  3  2  1  0
  4  3  1  0
  4  5  1  0
  5  1  1  0
  6 11  2  0
  7  8  2  0
  7  6  1  0
  8  9  1  0
  9 10  2  0
 11 10  1  0
 12  5  1  0
 12 13  1  0
 14 15  1  0
 14 13  1  0
 16 17  1  0
 16 15  1  0
 17 12  1  0
  1 18  1  6
  2 19  1  0
  2 20  1  0
  3 21  1  0
  3 22  1  0
  4 23  1  0
  4 24  1  0
  5 25  1  1
  6 26  1  0
  8 27  1  0
 10 28  1  0
 13 29  1  0
 13 30  1  0
 14 31  1  0
 14 32  1  0
 16 33  1  0
 16 34  1  0
 17 35  1  0
 17 36  1  0
M  ISO  8  18  13  19  13  20  13  21  13  22  13  23  13  24  13  25  13
M  ISO  8  26  14  27  14  28  14  29  13  30  13  31  13  32  13  33  13
M  ISO  3  34  13  35  13  36  13
M  END
>  <minimizedAffinity>  (1) 
-4.36346197

>  <minimizedRMSD>  (1) 
0.44156906

$$$$
