
     RDKit          3D

 45 48  0  0  0  0  0  0  0  0999 V2000
   47.4990   33.7680   40.6140 C   0  0  0  0  0  0  0  0  0  0  0  0
   45.5880   35.8320   43.1310 C   0  0  0  0  0  0  0  0  0  0  0  0
   46.6330   35.1860   42.4550 C   0  0  0  0  0  0  0  0  0  0  0  0
   46.4070   34.4490   41.3240 C   0  0  0  0  0  0  0  0  0  0  0  0
   45.1380   34.3600   40.8720 N   0  0  0  0  0  0  0  0  0  0  0  0
   44.1200   34.9980   41.5430 C   0  0  0  0  0  0  0  0  0  0  0  0
   44.3520   35.7130   42.6440 N   0  0  0  0  0  0  0  0  0  0  0  0
   40.2750   34.5430   39.8730 C   0  0  0  0  0  0  0  0  0  0  0  0
   40.4280   35.1180   41.1210 C   0  0  0  0  0  0  0  0  0  0  0  0
   41.6850   35.2860   41.7070 C   0  0  0  0  0  0  0  0  0  0  0  0
   42.7680   34.8550   40.9930 C   0  0  0  0  0  0  0  0  0  0  0  0
   42.6330   34.2760   39.7400 C   0  0  0  0  0  0  0  0  0  0  0  0
   41.3780   34.1190   39.1770 C   0  0  0  0  0  0  0  0  0  0  0  0
   38.6950   34.3340   39.1400 S   0  0  0  0  0  0  0  0  0  0  0  0
   38.8090   34.3120   37.6530 O   0  0  0  0  0  0  0  0  0  0  0  0
   38.0450   33.0870   39.6680 O   0  0  0  0  0  0  0  0  0  0  0  0
   48.1110   34.5620   39.5040 C   0  0  0  0  0  0  0  0  0  0  0  0
   47.8490   33.8490   38.2240 C   0  0  0  0  0  0  0  0  0  0  0  0
   48.7970   33.7640   37.2260 C   0  0  0  0  0  0  0  0  0  0  0  0
   48.6380   33.1230   36.0170 C   0  0  0  0  0  0  0  0  0  0  0  0
   47.4220   32.5300   35.8280 N   0  0  0  0  0  0  0  0  0  0  0  0
   46.4830   32.6050   36.7990 C   0  0  0  0  0  0  0  0  0  0  0  0
   46.6540   33.2370   37.9800 N   0  0  0  0  0  0  0  0  0  0  0  0
   45.2080   31.9520   36.5320 C   0  0  0  0  0  0  0  0  0  0  0  0
   44.2280   31.8850   37.5200 C   0  0  0  0  0  0  0  0  0  0  0  0
   43.0290   31.2690   37.2680 C   0  0  0  0  0  0  0  0  0  0  0  0
   42.7830   30.7270   36.0780 N   0  0  0  0  0  0  0  0  0  0  0  0
   43.7450   30.8020   35.1300 C   0  0  0  0  0  0  0  0  0  0  0  0
   44.9580   31.4050   35.3320 N   0  0  0  0  0  0  0  0  0  0  0  0
   48.2883   33.5330   41.3433 H   0  0  0  0  0  0  0  0  0  0  0  0
   47.0588   32.8727   40.1507 H   0  0  0  0  0  0  0  0  0  0  0  0
   45.7825   36.4215   44.0391 H   0  0  0  0  0  0  0  0  0  0  0  0
   47.6586   35.2736   42.8428 H   0  0  0  0  0  0  0  0  0  0  0  0
   39.5344   35.4528   41.6682 H   0  0  0  0  0  0  0  0  0  0  0  0
   41.7983   35.7453   42.7001 H   0  0  0  0  0  0  0  0  0  0  0  0
   43.5258   33.9405   39.1919 H   0  0  0  0  0  0  0  0  0  0  0  0
   41.2669   33.6598   38.1836 H   0  0  0  0  0  0  0  0  0  0  0  0
   37.8977   35.3970   39.4734 H   0  0  0  0  0  0  0  0  0  0  0  0
   47.6602   35.5648   39.4708 H   0  0  0  0  0  0  0  0  0  0  0  0
   49.1939   34.6689   39.6650 H   0  0  0  0  0  0  0  0  0  0  0  0
   49.7657   34.2510   37.4117 H   0  0  0  0  0  0  0  0  0  0  0  0
   49.4335   33.0910   35.2580 H   0  0  0  0  0  0  0  0  0  0  0  0
   44.4172   32.3290   38.5085 H   0  0  0  0  0  0  0  0  0  0  0  0
   42.2637   31.2225   38.0568 H   0  0  0  0  0  0  0  0  0  0  0  0
   43.5425   30.3553   34.1454 H   0  0  0  0  0  0  0  0  0  0  0  0
  1  4  1  0
  3  2  2  0
  4  3  1  0
  5  4  2  0
  5  6  1  0
  6  7  2  0
  7  2  1  0
  8  9  2  0
  9 10  1  0
 11  6  1  0
 11 10  2  0
 12 11  1  0
 13 12  2  0
 13  8  1  0
 14 16  2  0
 14  8  1  0
 15 14  2  0
 17  1  1  0
 18 17  1  0
 19 18  2  0
 20 19  1  0
 21 20  2  0
 21 22  1  0
 22 23  2  0
 23 18  1  0
 24 22  1  0
 24 25  2  0
 26 25  1  0
 27 26  2  0
 28 29  2  0
 28 27  1  0
 29 24  1  0
  1 30  1  0
  1 31  1  0
  2 32  1  0
  3 33  1  0
  9 34  1  0
 10 35  1  0
 12 36  1  0
 13 37  1  0
 14 38  1  0
 17 39  1  0
 17 40  1  0
 19 41  1  0
 20 42  1  0
 25 43  1  0
 26 44  1  0
 28 45  1  0
M  ISO  8  30   8  31   8  32  14  33  14  34  14  35  14  36  14  37  14
M  ISO  8  38  11  39   8  40   8  41  14  42  14  43  14  44  14  45  14
M  END
>  <minimizedAffinity>  (1) 
-6.1215167

>  <minimizedRMSD>  (1) 
6.39059925

$$$$
