
     RDKit          3D

 25 26  0  0  1  0  0  0  0  0999 V2000
   43.9850   34.9800   41.6060 C   0  0  2  0  0  0  0  0  0  0  0  0
   42.4410   34.9060   41.4780 C   0  0  0  0  0  0  0  0  0  0  0  0
   42.3900   35.2310   39.9670 C   0  0  0  0  0  0  0  0  0  0  0  0
   43.3950   34.2460   39.4490 C   0  0  0  0  0  0  0  0  0  0  0  0
   44.3830   34.0040   40.5880 C   0  0  1  0  0  0  0  0  0  0  0  0
   44.2850   35.7460   43.9220 C   0  0  0  0  0  0  0  0  0  0  0  0
   44.4480   34.6950   42.9720 C   0  0  0  0  0  0  0  0  0  0  0  0
   45.0510   33.4690   43.3820 C   0  0  0  0  0  0  0  0  0  0  0  0
   45.4430   33.3690   44.6710 N   0  0  0  0  0  0  0  0  0  0  0  0
   45.2770   34.3860   45.5630 C   0  0  0  0  0  0  0  0  0  0  0  0
   44.7040   35.5650   45.1890 N   0  0  0  0  0  0  0  0  0  0  0  0
   45.7450   34.1320   40.1090 N   0  0  0  0  0  0  0  0  0  0  0  0
   44.4317   35.9714   41.4401 H   0  0  0  0  0  0  0  0  0  0  0  0
   42.0423   33.9079   41.7119 H   0  0  0  0  0  0  0  0  0  0  0  0
   41.8499   35.5459   42.1497 H   0  0  0  0  0  0  0  0  0  0  0  0
   41.3898   35.0523   39.5455 H   0  0  0  0  0  0  0  0  0  0  0  0
   42.6001   36.2806   39.7137 H   0  0  0  0  0  0  0  0  0  0  0  0
   42.8977   33.3054   39.1697 H   0  0  0  0  0  0  0  0  0  0  0  0
   43.9042   34.6281   38.5519 H   0  0  0  0  0  0  0  0  0  0  0  0
   44.3596   32.9894   41.0122 H   0  0  0  0  0  0  0  0  0  0  0  0
   43.8207   36.6971   43.6222 H   0  0  0  0  0  0  0  0  0  0  0  0
   45.1914   32.6372   42.6760 H   0  0  0  0  0  0  0  0  0  0  0  0
   45.6111   34.2532   46.6026 H   0  0  0  0  0  0  0  0  0  0  0  0
   46.3871   34.1923   40.9121 H   0  0  0  0  0  0  0  0  0  0  0  0
   45.9866   33.3100   39.5373 H   0  0  0  0  0  0  0  0  0  0  0  0
  1  7  1  0
  2  1  1  0
  3  2  1  0
  4  3  1  0
  4  5  1  0
  5  1  1  0
  6 11  2  0
  7  8  2  0
  7  6  1  0
  8  9  1  0
  9 10  2  0
 11 10  1  0
 12  5  1  0
  1 13  1  6
  2 14  1  0
  2 15  1  0
  3 16  1  0
  3 17  1  0
  4 18  1  0
  4 19  1  0
  5 20  1  1
  6 21  1  0
  8 22  1  0
 10 23  1  0
 12 24  1  0
 12 25  1  0
M  ISO  8  13  13  14  13  15  13  16  13  17  13  18  13  19  13  20  13
M  ISO  5  21  14  22  14  23  14  24   5  25   5
M  END
>  <minimizedAffinity>  (1) 
-3.9079423

>  <minimizedRMSD>  (1) 
0.193177015

$$$$
