
     RDKit          3D

 30 32  0  0  1  0  0  0  0  0999 V2000
   44.1700   34.8760   41.6840 C   0  0  2  0  0  0  0  0  0  0  0  0
   42.6460   34.7910   41.4610 C   0  0  0  0  0  0  0  0  0  0  0  0
   42.6400   35.0500   39.9480 C   0  0  0  0  0  0  0  0  0  0  0  0
   43.7750   34.1760   39.4790 C   0  0  0  0  0  0  0  0  0  0  0  0
   44.5970   33.8680   40.7100 C   0  0  1  0  0  0  0  0  0  0  0  0
   44.3700   35.7170   43.9820 C   0  0  0  0  0  0  0  0  0  0  0  0
   44.5510   34.6390   43.0750 C   0  0  0  0  0  0  0  0  0  0  0  0
   45.0980   33.4060   43.5400 C   0  0  0  0  0  0  0  0  0  0  0  0
   45.4230   33.3220   44.8460 N   0  0  0  0  0  0  0  0  0  0  0  0
   45.2420   34.3700   45.6980 C   0  0  0  0  0  0  0  0  0  0  0  0
   44.7210   35.5600   45.2830 N   0  0  0  0  0  0  0  0  0  0  0  0
   46.0030   33.8690   40.3660 N   0  0  0  0  0  0  0  0  0  0  0  0
   47.0320   34.5820   40.9090 C   0  0  0  0  0  0  0  0  0  0  0  0
   48.2020   34.2510   40.2530 C   0  0  0  0  0  0  0  0  0  0  0  0
   47.8590   33.3430   39.3250 N   0  0  0  0  0  0  0  0  0  0  0  0
   46.5380   33.0970   39.3750 C   0  0  0  0  0  0  0  0  0  0  0  0
   44.6425   35.8573   41.5296 H   0  0  0  0  0  0  0  0  0  0  0  0
   42.2416   33.8004   41.7163 H   0  0  0  0  0  0  0  0  0  0  0  0
   42.0293   35.4680   42.0703 H   0  0  0  0  0  0  0  0  0  0  0  0
   41.6858   34.7449   39.4936 H   0  0  0  0  0  0  0  0  0  0  0  0
   42.7542   36.1102   39.6779 H   0  0  0  0  0  0  0  0  0  0  0  0
   43.3852   33.2472   39.0370 H   0  0  0  0  0  0  0  0  0  0  0  0
   44.3771   34.6762   38.7062 H   0  0  0  0  0  0  0  0  0  0  0  0
   44.4444   32.8686   41.1436 H   0  0  0  0  0  0  0  0  0  0  0  0
   43.9488   36.6711   43.6325 H   0  0  0  0  0  0  0  0  0  0  0  0
   45.2489   32.5557   42.8586 H   0  0  0  0  0  0  0  0  0  0  0  0
   45.5252   34.2523   46.7544 H   0  0  0  0  0  0  0  0  0  0  0  0
   46.9442   35.3032   41.7349 H   0  0  0  0  0  0  0  0  0  0  0  0
   49.2081   34.6495   40.4504 H   0  0  0  0  0  0  0  0  0  0  0  0
   45.9856   32.3970   38.7309 H   0  0  0  0  0  0  0  0  0  0  0  0
  1  7  1  0
  2  1  1  0
  3  2  1  0
  4  3  1  0
  4  5  1  0
  5  1  1  0
  6 11  2  0
  7  8  2  0
  7  6  1  0
  8  9  1  0
  9 10  2  0
 11 10  1  0
 12  5  1  0
 12 13  1  0
 14 13  2  0
 15 16  2  0
 15 14  1  0
 16 12  1  0
  1 17  1  6
  2 18  1  0
  2 19  1  0
  3 20  1  0
  3 21  1  0
  4 22  1  0
  4 23  1  0
  5 24  1  1
  6 25  1  0
  8 26  1  0
 10 27  1  0
 13 28  1  0
 14 29  1  0
 16 30  1  0
M  ISO  8  17  13  18  13  19  13  20  13  21  13  22  13  23  13  24  13
M  ISO  6  25  14  26  14  27  14  28  14  29  14  30  14
M  END
>  <minimizedAffinity>  (1) 
-4.25241613

>  <minimizedRMSD>  (1) 
0.596642852

$$$$
