
     RDKit          3D

 50 54  0  0  1  0  0  0  0  0999 V2000
   43.9430   34.3460   40.5410 C   0  0  2  0  0  0  0  0  0  0  0  0
   42.3950   34.5380   40.5330 C   0  0  0  0  0  0  0  0  0  0  0  0
   42.2480   35.0060   39.0810 C   0  0  0  0  0  0  0  0  0  0  0  0
   43.1570   34.0930   38.3590 C   0  0  0  0  0  0  0  0  0  0  0  0
   44.0820   33.4530   39.4070 C   0  0  1  0  0  0  0  0  0  0  0  0
   45.4000   33.2760   38.8550 N   0  0  0  0  0  0  0  0  0  0  0  0
   46.5410   33.2900   39.5600 C   0  0  0  0  0  0  0  0  0  0  0  0
   47.5940   33.1030   38.7670 N   0  0  0  0  0  0  0  0  0  0  0  0
   47.0930   32.9670   37.5230 C   0  0  0  0  0  0  0  0  0  0  0  0
   47.7660   32.7560   36.3460 C   0  0  0  0  0  0  0  0  0  0  0  0
   49.0380   32.6590   36.3190 O   0  0  0  0  0  0  0  0  0  0  0  0
   47.0330   32.6570   35.2230 N   0  0  0  0  0  0  0  0  0  0  0  0
   45.6700   32.7600   35.2480 C   0  0  0  0  0  0  0  0  0  0  0  0
   45.0200   32.6410   33.9900 N   0  0  0  0  0  0  0  0  0  0  0  0
   45.0410   32.9680   36.4350 N   0  0  0  0  0  0  0  0  0  0  0  0
   45.7120   33.0740   37.5720 C   0  0  0  0  0  0  0  0  0  0  0  0
   45.1190   34.8410   42.6410 C   0  0  0  0  0  0  0  0  0  0  0  0
   44.4520   33.9050   41.8340 C   0  0  0  0  0  0  0  0  0  0  0  0
   44.3050   32.5800   42.2900 C   0  0  0  0  0  0  0  0  0  0  0  0
   44.8160   32.2480   43.5010 N   0  0  0  0  0  0  0  0  0  0  0  0
   45.4620   33.1910   44.2640 C   0  0  0  0  0  0  0  0  0  0  0  0
   45.6100   34.4700   43.8370 N   0  0  0  0  0  0  0  0  0  0  0  0
   45.9640   32.7520   45.5190 N   0  0  0  0  0  0  0  0  0  0  0  0
   45.4910   33.3750   46.7180 C   0  0  0  0  0  0  0  0  0  0  0  0
   45.5370   32.5070   47.9320 C   0  0  0  0  0  0  0  0  0  0  0  0
   46.2670   31.3500   47.8010 O   0  0  0  0  0  0  0  0  0  0  0  0
   47.4010   31.6010   47.0410 C   0  0  0  0  0  0  0  0  0  0  0  0
   46.9420   31.6900   45.6020 C   0  0  0  0  0  0  0  0  0  0  0  0
   44.5634   35.2473   40.4279 H   0  0  0  0  0  0  0  0  0  0  0  0
   41.8572   33.5978   40.7246 H   0  0  0  0  0  0  0  0  0  0  0  0
   41.9872   35.2110   41.3016 H   0  0  0  0  0  0  0  0  0  0  0  0
   41.2114   34.8948   38.7302 H   0  0  0  0  0  0  0  0  0  0  0  0
   42.4878   36.0697   38.9360 H   0  0  0  0  0  0  0  0  0  0  0  0
   42.5771   33.3143   37.8420 H   0  0  0  0  0  0  0  0  0  0  0  0
   43.7407   34.6389   37.6032 H   0  0  0  0  0  0  0  0  0  0  0  0
   43.8367   32.4292   39.7257 H   0  0  0  0  0  0  0  0  0  0  0  0
   46.5990   33.4365   40.6487 H   0  0  0  0  0  0  0  0  0  0  0  0
   47.5094   32.5000   34.3234 H   0  0  0  0  0  0  0  0  0  0  0  0
   43.9938   32.7084   33.9321 H   0  0  0  0  0  0  0  0  0  0  0  0
   45.5750   32.4874   33.1360 H   0  0  0  0  0  0  0  0  0  0  0  0
   45.2400   35.8781   42.2948 H   0  0  0  0  0  0  0  0  0  0  0  0
   43.7858   31.8297   41.6755 H   0  0  0  0  0  0  0  0  0  0  0  0
   46.1095   34.2644   46.9090 H   0  0  0  0  0  0  0  0  0  0  0  0
   44.4310   33.6138   46.5467 H   0  0  0  0  0  0  0  0  0  0  0  0
   45.9752   33.0939   48.7527 H   0  0  0  0  0  0  0  0  0  0  0  0
   44.4999   32.1919   48.1193 H   0  0  0  0  0  0  0  0  0  0  0  0
   47.8645   32.5490   47.3515 H   0  0  0  0  0  0  0  0  0  0  0  0
   48.1511   30.8070   47.1711 H   0  0  0  0  0  0  0  0  0  0  0  0
   46.4875   30.7369   45.2938 H   0  0  0  0  0  0  0  0  0  0  0  0
   47.7937   31.8969   44.9373 H   0  0  0  0  0  0  0  0  0  0  0  0
  1 18  1  0
  2  1  1  0
  3  2  1  0
  4  3  1  0
  4  5  1  0
  5  1  1  0
  6  5  1  0
  6  7  1  0
  8  7  2  0
  9 16  2  0
  9  8  1  0
 10  9  1  0
 11 10  2  0
 12 13  1  0
 12 10  1  0
 13 15  2  0
 14 13  1  0
 15 16  1  0
 16  6  1  0
 17 22  2  0
 18 19  2  0
 18 17  1  0
 19 20  1  0
 20 21  2  0
 21 23  1  0
 22 21  1  0
 23 28  1  0
 23 24  1  0
 24 25  1  0
 26 25  1  0
 27 26  1  0
 28 27  1  0
  1 29  1  6
  2 30  1  0
  2 31  1  0
  3 32  1  0
  3 33  1  0
  4 34  1  0
  4 35  1  0
  5 36  1  1
  7 37  1  0
 12 38  1  0
 14 39  1  0
 14 40  1  0
 17 41  1  0
 19 42  1  0
 24 43  1  0
 24 44  1  0
 25 45  1  0
 25 46  1  0
 27 47  1  0
 27 48  1  0
 28 49  1  0
 28 50  1  0
M  ISO  8  29  13  30  13  31  13  32  13  33  13  34  13  35  13  36  13
M  ISO  8  37  14  38   9  41  14  42  14  43  13  44  13  45  13  46  13
M  ISO  4  47  13  48  13  49  13  50  13
M  END
>  <minimizedAffinity>  (1) 
-6.86664104

>  <minimizedRMSD>  (1) 
0.560176373

$$$$
