
     RDKit          3D

 44 48  0  0  1  0  0  0  0  0999 V2000
   44.0960   34.3040   40.8190 C   0  0  2  0  0  0  0  0  0  0  0  0
   42.5550   34.4840   40.8740 C   0  0  0  0  0  0  0  0  0  0  0  0
   42.3580   35.0120   39.4510 C   0  0  0  0  0  0  0  0  0  0  0  0
   43.2430   34.1270   38.6600 C   0  0  0  0  0  0  0  0  0  0  0  0
   44.2030   33.4470   39.6510 C   0  0  1  0  0  0  0  0  0  0  0  0
   45.5100   33.3170   39.0440 N   0  0  0  0  0  0  0  0  0  0  0  0
   46.6740   33.3840   39.7130 C   0  0  0  0  0  0  0  0  0  0  0  0
   47.7110   33.2370   38.8720 N   0  0  0  0  0  0  0  0  0  0  0  0
   47.1690   33.0740   37.6510 C   0  0  0  0  0  0  0  0  0  0  0  0
   47.8070   32.8890   36.4500 C   0  0  0  0  0  0  0  0  0  0  0  0
   49.0680   32.8480   36.3730 O   0  0  0  0  0  0  0  0  0  0  0  0
   47.0230   32.7540   35.3560 N   0  0  0  0  0  0  0  0  0  0  0  0
   45.6700   32.7970   35.4330 C   0  0  0  0  0  0  0  0  0  0  0  0
   44.9710   32.6460   34.1970 N   0  0  0  0  0  0  0  0  0  0  0  0
   45.0700   32.9820   36.6380 N   0  0  0  0  0  0  0  0  0  0  0  0
   45.7840   33.1230   37.7500 C   0  0  0  0  0  0  0  0  0  0  0  0
   45.3900   34.7250   42.8770 C   0  0  0  0  0  0  0  0  0  0  0  0
   44.6550   33.8160   42.0830 C   0  0  0  0  0  0  0  0  0  0  0  0
   44.5000   32.4790   42.5010 C   0  0  0  0  0  0  0  0  0  0  0  0
   45.0740   32.0980   43.6770 N   0  0  0  0  0  0  0  0  0  0  0  0
   45.7820   33.0090   44.4240 C   0  0  0  0  0  0  0  0  0  0  0  0
   45.9400   34.2970   44.0370 N   0  0  0  0  0  0  0  0  0  0  0  0
   46.3730   32.5330   45.6740 C   0  0  0  0  0  0  0  0  0  0  0  0
   46.5650   31.2070   46.0050 C   0  0  0  0  0  0  0  0  0  0  0  0
   47.1220   31.1920   47.2120 N   0  0  0  0  0  0  0  0  0  0  0  0
   47.2610   32.4800   47.5960 C   0  0  0  0  0  0  0  0  0  0  0  0
   46.8020   33.3490   46.6550 N   0  0  0  0  0  0  0  0  0  0  0  0
   44.7030   35.2152   40.7131 H   0  0  0  0  0  0  0  0  0  0  0  0
   42.0291   33.5328   41.0431 H   0  0  0  0  0  0  0  0  0  0  0  0
   42.1694   35.1194   41.6849 H   0  0  0  0  0  0  0  0  0  0  0  0
   41.3098   34.9152   39.1319 H   0  0  0  0  0  0  0  0  0  0  0  0
   42.5929   36.0810   39.3417 H   0  0  0  0  0  0  0  0  0  0  0  0
   42.6453   33.3689   38.1327 H   0  0  0  0  0  0  0  0  0  0  0  0
   43.8004   34.7023   37.9061 H   0  0  0  0  0  0  0  0  0  0  0  0
   43.9766   32.4092   39.9370 H   0  0  0  0  0  0  0  0  0  0  0  0
   46.7647   33.5378   40.7984 H   0  0  0  0  0  0  0  0  0  0  0  0
   47.4670   32.6144   34.4372 H   0  0  0  0  0  0  0  0  0  0  0  0
   43.9414   32.6687   34.1815 H   0  0  0  0  0  0  0  0  0  0  0  0
   45.4964   32.5144   33.3209 H   0  0  0  0  0  0  0  0  0  0  0  0
   45.5138   35.7697   42.5555 H   0  0  0  0  0  0  0  0  0  0  0  0
   43.9300   31.7609   41.8933 H   0  0  0  0  0  0  0  0  0  0  0  0
   46.3072   30.3324   45.3896 H   0  0  0  0  0  0  0  0  0  0  0  0
   47.6950   32.7901   48.5580 H   0  0  0  0  0  0  0  0  0  0  0  0
   46.7866   34.3784   46.6857 H   0  0  0  0  0  0  0  0  0  0  0  0
  1  2  1  0
  1 18  1  0
  3  2  1  0
  4  3  1  0
  4  5  1  0
  5  1  1  0
  6  5  1  0
  6  7  1  0
  8  7  2  0
  9 16  2  0
  9  8  1  0
 10  9  1  0
 11 10  2  0
 12 13  1  0
 12 10  1  0
 13 15  2  0
 14 13  1  0
 15 16  1  0
 16  6  1  0
 17 22  2  0
 18 19  2  0
 18 17  1  0
 19 20  1  0
 20 21  2  0
 21 23  1  0
 22 21  1  0
 23 24  2  0
 23 27  1  0
 24 25  1  0
 25 26  2  0
 27 26  1  0
  1 28  1  6
  2 29  1  0
  2 30  1  0
  3 31  1  0
  3 32  1  0
  4 33  1  0
  4 34  1  0
  5 35  1  1
  7 36  1  0
 12 37  1  0
 14 38  1  0
 14 39  1  0
 17 40  1  0
 19 41  1  0
 24 42  1  0
 26 43  1  0
 27 44  1  0
M  ISO  8  28  13  29  13  30  13  31  13  32  13  33  13  34  13  35  13
M  ISO  7  36  14  37   9  40  14  41  14  42  14  43  14  44   9
M  END
>  <minimizedAffinity>  (1) 
-6.8098073

>  <minimizedRMSD>  (1) 
0.677184045

$$$$
