
     RDKit          3D

 44 48  0  0  1  0  0  0  0  0999 V2000
   43.9270   34.3480   40.5570 C   0  0  2  0  0  0  0  0  0  0  0  0
   42.3890   34.5590   40.5500 C   0  0  0  0  0  0  0  0  0  0  0  0
   42.2580   35.0590   39.1100 C   0  0  0  0  0  0  0  0  0  0  0  0
   43.1480   34.1320   38.3730 C   0  0  0  0  0  0  0  0  0  0  0  0
   44.0560   33.4570   39.4140 C   0  0  1  0  0  0  0  0  0  0  0  0
   45.3800   33.2810   38.8610 N   0  0  0  0  0  0  0  0  0  0  0  0
   46.5230   33.3040   39.5730 C   0  0  0  0  0  0  0  0  0  0  0  0
   47.5810   33.1210   38.7770 N   0  0  0  0  0  0  0  0  0  0  0  0
   47.0790   32.9790   37.5320 C   0  0  0  0  0  0  0  0  0  0  0  0
   47.7610   32.7720   36.3580 C   0  0  0  0  0  0  0  0  0  0  0  0
   49.0240   32.6840   36.3320 O   0  0  0  0  0  0  0  0  0  0  0  0
   47.0340   32.6650   35.2340 N   0  0  0  0  0  0  0  0  0  0  0  0
   45.6640   32.7590   35.2560 C   0  0  0  0  0  0  0  0  0  0  0  0
   45.0130   32.6350   33.9950 N   0  0  0  0  0  0  0  0  0  0  0  0
   45.0250   32.9650   36.4380 N   0  0  0  0  0  0  0  0  0  0  0  0
   45.7040   33.0780   37.5780 C   0  0  0  0  0  0  0  0  0  0  0  0
   45.1420   34.7990   42.6530 C   0  0  0  0  0  0  0  0  0  0  0  0
   44.4270   33.8680   41.8500 C   0  0  0  0  0  0  0  0  0  0  0  0
   44.2390   32.5430   42.2920 C   0  0  0  0  0  0  0  0  0  0  0  0
   44.7620   32.1930   43.5010 N   0  0  0  0  0  0  0  0  0  0  0  0
   45.4500   33.1150   44.2550 C   0  0  0  0  0  0  0  0  0  0  0  0
   45.6380   34.3910   43.8440 N   0  0  0  0  0  0  0  0  0  0  0  0
   45.9980   32.7450   45.5190 N   0  0  0  0  0  0  0  0  0  0  0  0
   47.0330   31.8850   45.5620 C   0  0  0  0  0  0  0  0  0  0  0  0
   47.3280   31.7320   46.9200 C   0  0  0  0  0  0  0  0  0  0  0  0
   46.4690   32.4980   47.6450 N   0  0  0  0  0  0  0  0  0  0  0  0
   45.6510   33.1190   46.7630 C   0  0  0  0  0  0  0  0  0  0  0  0
   44.5541   35.2460   40.4550 H   0  0  0  0  0  0  0  0  0  0  0  0
   41.8378   33.6222   40.7190 H   0  0  0  0  0  0  0  0  0  0  0  0
   41.9855   35.2189   41.3321 H   0  0  0  0  0  0  0  0  0  0  0  0
   41.2199   34.9821   38.7543 H   0  0  0  0  0  0  0  0  0  0  0  0
   42.5247   36.1189   38.9853 H   0  0  0  0  0  0  0  0  0  0  0  0
   42.5503   33.3742   37.8452 H   0  0  0  0  0  0  0  0  0  0  0  0
   43.7447   34.6733   37.6241 H   0  0  0  0  0  0  0  0  0  0  0  0
   43.7951   32.4320   39.7162 H   0  0  0  0  0  0  0  0  0  0  0  0
   46.5783   33.4531   40.6614 H   0  0  0  0  0  0  0  0  0  0  0  0
   47.5141   32.5091   34.3362 H   0  0  0  0  0  0  0  0  0  0  0  0
   43.9864   32.6956   33.9372 H   0  0  0  0  0  0  0  0  0  0  0  0
   45.5689   32.4848   33.1410 H   0  0  0  0  0  0  0  0  0  0  0  0
   45.2894   35.8341   42.3113 H   0  0  0  0  0  0  0  0  0  0  0  0
   43.6873   31.8140   41.6803 H   0  0  0  0  0  0  0  0  0  0  0  0
   47.5384   31.4054   44.7108 H   0  0  0  0  0  0  0  0  0  0  0  0
   48.1244   31.0963   47.3343 H   0  0  0  0  0  0  0  0  0  0  0  0
   44.8381   33.8137   47.0210 H   0  0  0  0  0  0  0  0  0  0  0  0
  1 18  1  0
  2  1  1  0
  3  2  1  0
  4  3  1  0
  4  5  1  0
  5  1  1  0
  6  5  1  0
  6  7  1  0
  8  7  2  0
  9 16  2  0
  9  8  1  0
 10  9  1  0
 11 10  2  0
 12 13  1  0
 12 10  1  0
 13 15  2  0
 14 13  1  0
 15 16  1  0
 16  6  1  0
 17 22  2  0
 18 19  2  0
 18 17  1  0
 19 20  1  0
 20 21  2  0
 21 23  1  0
 22 21  1  0
 23 24  1  0
 23 27  1  0
 24 25  2  0
 25 26  1  0
 27 26  2  0
  1 28  1  6
  2 29  1  0
  2 30  1  0
  3 31  1  0
  3 32  1  0
  4 33  1  0
  4 34  1  0
  5 35  1  1
  7 36  1  0
 12 37  1  0
 14 38  1  0
 14 39  1  0
 17 40  1  0
 19 41  1  0
 24 42  1  0
 25 43  1  0
 27 44  1  0
M  ISO  8  28  13  29  13  30  13  31  13  32  13  33  13  34  13  35  13
M  ISO  7  36  14  37   9  40  14  41  14  42  14  43  14  44  14
M  END
>  <minimizedAffinity>  (1) 
-6.58508158

>  <minimizedRMSD>  (1) 
0.583993614

$$$$
