
     RDKit          3D

 47 51  0  0  1  0  0  0  0  0999 V2000
   44.1340   34.1560   40.7280 C   0  0  2  0  0  0  0  0  0  0  0  0
   42.6030   34.3470   40.8060 C   0  0  0  0  0  0  0  0  0  0  0  0
   42.3910   34.9130   39.4020 C   0  0  0  0  0  0  0  0  0  0  0  0
   43.2630   34.0530   38.5710 C   0  0  0  0  0  0  0  0  0  0  0  0
   44.2240   33.3280   39.5250 C   0  0  1  0  0  0  0  0  0  0  0  0
   45.5250   33.2090   38.9080 N   0  0  0  0  0  0  0  0  0  0  0  0
   46.7050   33.2660   39.5620 C   0  0  0  0  0  0  0  0  0  0  0  0
   47.7260   33.1330   38.7090 N   0  0  0  0  0  0  0  0  0  0  0  0
   47.1670   32.9890   37.4910 C   0  0  0  0  0  0  0  0  0  0  0  0
   47.7960   32.8220   36.2790 C   0  0  0  0  0  0  0  0  0  0  0  0
   49.0500   32.7840   36.1860 O   0  0  0  0  0  0  0  0  0  0  0  0
   47.0130   32.7010   35.1930 N   0  0  0  0  0  0  0  0  0  0  0  0
   45.6420   32.7420   35.2830 C   0  0  0  0  0  0  0  0  0  0  0  0
   44.9390   32.6010   34.0520 N   0  0  0  0  0  0  0  0  0  0  0  0
   45.0540   32.9100   36.4990 N   0  0  0  0  0  0  0  0  0  0  0  0
   45.7840   33.0350   37.6060 C   0  0  0  0  0  0  0  0  0  0  0  0
   45.4870   34.4800   42.7640 C   0  0  0  0  0  0  0  0  0  0  0  0
   44.6970   33.6110   41.9670 C   0  0  0  0  0  0  0  0  0  0  0  0
   44.5030   32.2670   42.3550 C   0  0  0  0  0  0  0  0  0  0  0  0
   45.0990   31.8390   43.5100 N   0  0  0  0  0  0  0  0  0  0  0  0
   45.8600   32.7100   44.2570 C   0  0  0  0  0  0  0  0  0  0  0  0
   46.0570   34.0140   43.9000 N   0  0  0  0  0  0  0  0  0  0  0  0
   46.4680   32.1820   45.4780 C   0  0  0  0  0  0  0  0  0  0  0  0
   46.5160   32.9800   46.6030 C   0  0  0  0  0  0  0  0  0  0  0  0
   47.1010   32.4420   47.7390 C   0  0  0  0  0  0  0  0  0  0  0  0
   47.6120   31.1490   47.7180 C   0  0  0  0  0  0  0  0  0  0  0  0
   47.5580   30.3500   46.5740 C   0  0  0  0  0  0  0  0  0  0  0  0
   46.9660   30.8960   45.4280 C   0  0  0  0  0  0  0  0  0  0  0  0
   44.7446   35.0672   40.6458 H   0  0  0  0  0  0  0  0  0  0  0  0
   42.0711   33.3961   40.9572 H   0  0  0  0  0  0  0  0  0  0  0  0
   42.2341   34.9650   41.6378 H   0  0  0  0  0  0  0  0  0  0  0  0
   41.3386   34.8266   39.0940 H   0  0  0  0  0  0  0  0  0  0  0  0
   42.6290   35.9839   39.3219 H   0  0  0  0  0  0  0  0  0  0  0  0
   42.6553   33.3207   38.0192 H   0  0  0  0  0  0  0  0  0  0  0  0
   43.8196   34.6535   37.8364 H   0  0  0  0  0  0  0  0  0  0  0  0
   43.9905   32.2819   39.7724 H   0  0  0  0  0  0  0  0  0  0  0  0
   46.8117   33.4031   40.6482 H   0  0  0  0  0  0  0  0  0  0  0  0
   47.4517   32.5743   34.2697 H   0  0  0  0  0  0  0  0  0  0  0  0
   43.9093   32.6219   34.0417 H   0  0  0  0  0  0  0  0  0  0  0  0
   45.4605   32.4781   33.1723 H   0  0  0  0  0  0  0  0  0  0  0  0
   45.6353   35.5268   42.4602 H   0  0  0  0  0  0  0  0  0  0  0  0
   43.8910   31.5846   41.7469 H   0  0  0  0  0  0  0  0  0  0  0  0
   46.1069   34.0011   46.5985 H   0  0  0  0  0  0  0  0  0  0  0  0
   47.1611   33.0402   48.6602 H   0  0  0  0  0  0  0  0  0  0  0  0
   48.0729   30.7430   48.6305 H   0  0  0  0  0  0  0  0  0  0  0  0
   47.9658   29.3284   46.5729 H   0  0  0  0  0  0  0  0  0  0  0  0
   46.8990   30.3078   44.5009 H   0  0  0  0  0  0  0  0  0  0  0  0
  1  2  1  0
  1 18  1  0
  3  2  1  0
  4  3  1  0
  4  5  1  0
  5  1  1  0
  6  5  1  0
  6  7  1  0
  8  7  2  0
  9 16  2  0
  9  8  1  0
 10  9  1  0
 11 10  2  0
 12 13  1  0
 12 10  1  0
 13 15  2  0
 14 13  1  0
 15 16  1  0
 16  6  1  0
 17 22  2  0
 18 19  2  0
 18 17  1  0
 19 20  1  0
 20 21  2  0
 21 23  1  0
 22 21  1  0
 23 24  2  0
 24 25  1  0
 26 25  2  0
 27 26  1  0
 28 23  1  0
 28 27  2  0
  1 29  1  6
  2 30  1  0
  2 31  1  0
  3 32  1  0
  3 33  1  0
  4 34  1  0
  4 35  1  0
  5 36  1  1
  7 37  1  0
 12 38  1  0
 14 39  1  0
 14 40  1  0
 17 41  1  0
 19 42  1  0
 24 43  1  0
 25 44  1  0
 26 45  1  0
 27 46  1  0
 28 47  1  0
M  ISO  8  29  13  30  13  31  13  32  13  33  13  34  13  35  13  36  13
M  ISO  8  37  14  38   9  41  14  42  14  43  14  44  14  45  14  46  14
M  ISO  1  47  14
M  END
>  <minimizedAffinity>  (1) 
-6.66594172

>  <minimizedRMSD>  (1) 
1.03550041

$$$$
