
     RDKit          3D

 44 48  0  0  1  0  0  0  0  0999 V2000
   44.1510   34.1470   40.7110 C   0  0  2  0  0  0  0  0  0  0  0  0
   42.6020   34.3210   40.7870 C   0  0  0  0  0  0  0  0  0  0  0  0
   42.3930   34.9050   39.3870 C   0  0  0  0  0  0  0  0  0  0  0  0
   43.2710   34.0620   38.5520 C   0  0  0  0  0  0  0  0  0  0  0  0
   44.2360   33.3560   39.4970 C   0  0  1  0  0  0  0  0  0  0  0  0
   45.5270   33.2230   38.8820 N   0  0  0  0  0  0  0  0  0  0  0  0
   46.7060   33.2670   39.5340 C   0  0  0  0  0  0  0  0  0  0  0  0
   47.7210   33.1150   38.6860 N   0  0  0  0  0  0  0  0  0  0  0  0
   47.1610   32.9720   37.4660 C   0  0  0  0  0  0  0  0  0  0  0  0
   47.7890   32.7890   36.2560 C   0  0  0  0  0  0  0  0  0  0  0  0
   49.0580   32.7310   36.1710 O   0  0  0  0  0  0  0  0  0  0  0  0
   46.9810   32.6750   35.1660 N   0  0  0  0  0  0  0  0  0  0  0  0
   45.6300   32.7380   35.2610 C   0  0  0  0  0  0  0  0  0  0  0  0
   44.9330   32.6030   34.0320 N   0  0  0  0  0  0  0  0  0  0  0  0
   45.0610   32.9200   36.4780 N   0  0  0  0  0  0  0  0  0  0  0  0
   45.7850   33.0390   37.5820 C   0  0  0  0  0  0  0  0  0  0  0  0
   45.5000   34.4280   42.7430 C   0  0  0  0  0  0  0  0  0  0  0  0
   44.7080   33.5830   41.9430 C   0  0  0  0  0  0  0  0  0  0  0  0
   44.4980   32.2460   42.3340 C   0  0  0  0  0  0  0  0  0  0  0  0
   45.0810   31.8210   43.4900 N   0  0  0  0  0  0  0  0  0  0  0  0
   45.8420   32.6610   44.2420 C   0  0  0  0  0  0  0  0  0  0  0  0
   46.0520   33.9470   43.8780 N   0  0  0  0  0  0  0  0  0  0  0  0
   46.4630   32.1540   45.5030 C   0  0  0  0  0  0  0  0  0  0  0  0
   46.5280   33.0060   46.6500 C   0  0  0  0  0  0  0  0  0  0  0  0
   47.1130   32.4570   47.7580 C   0  0  0  0  0  0  0  0  0  0  0  0
   47.6160   31.1620   47.7840 C   0  0  0  0  0  0  0  0  0  0  0  0
   47.2070   30.6310   45.9840 S   0  0  0  0  0  0  0  0  0  0  0  0
   44.7665   35.0567   40.6518 H   0  0  0  0  0  0  0  0  0  0  0  0
   42.0798   33.3624   40.9223 H   0  0  0  0  0  0  0  0  0  0  0  0
   42.2211   34.9219   41.6260 H   0  0  0  0  0  0  0  0  0  0  0  0
   41.3425   34.8172   39.0729 H   0  0  0  0  0  0  0  0  0  0  0  0
   42.6256   35.9781   39.3215 H   0  0  0  0  0  0  0  0  0  0  0  0
   42.6722   33.3221   38.0006 H   0  0  0  0  0  0  0  0  0  0  0  0
   43.8159   34.6701   37.8149 H   0  0  0  0  0  0  0  0  0  0  0  0
   43.9992   32.3094   39.7392 H   0  0  0  0  0  0  0  0  0  0  0  0
   46.8147   33.4092   40.6193 H   0  0  0  0  0  0  0  0  0  0  0  0
   47.4098   32.5365   34.2398 H   0  0  0  0  0  0  0  0  0  0  0  0
   43.9038   32.6395   34.0169 H   0  0  0  0  0  0  0  0  0  0  0  0
   45.4564   32.4685   33.1552 H   0  0  0  0  0  0  0  0  0  0  0  0
   45.6683   35.4736   42.4457 H   0  0  0  0  0  0  0  0  0  0  0  0
   43.8830   31.5667   41.7255 H   0  0  0  0  0  0  0  0  0  0  0  0
   46.1343   34.0331   46.6417 H   0  0  0  0  0  0  0  0  0  0  0  0
   47.1886   33.0682   48.6694 H   0  0  0  0  0  0  0  0  0  0  0  0
   48.1048   30.6047   48.5967 H   0  0  0  0  0  0  0  0  0  0  0  0
  1  2  1  0
  1 18  1  0
  3  2  1  0
  4  3  1  0
  4  5  1  0
  5  1  1  0
  6  5  1  0
  6  7  1  0
  8  7  2  0
  9 16  2  0
  9  8  1  0
 10  9  1  0
 11 10  2  0
 12 13  1  0
 12 10  1  0
 13 15  2  0
 14 13  1  0
 15 16  1  0
 16  6  1  0
 17 22  2  0
 18 19  2  0
 18 17  1  0
 19 20  1  0
 20 21  2  0
 21 23  1  0
 22 21  1  0
 23 27  1  0
 23 24  2  0
 24 25  1  0
 25 26  2  0
 27 26  1  0
  1 28  1  6
  2 29  1  0
  2 30  1  0
  3 31  1  0
  3 32  1  0
  4 33  1  0
  4 34  1  0
  5 35  1  1
  7 36  1  0
 12 37  1  0
 14 38  1  0
 14 39  1  0
 17 40  1  0
 19 41  1  0
 24 42  1  0
 25 43  1  0
 26 44  1  0
M  ISO  8  28  13  29  13  30  13  31  13  32  13  33  13  34  13  35  13
M  ISO  7  36  14  37   9  40  14  41  14  42  14  43  14  44  14
M  END
>  <minimizedAffinity>  (1) 
-6.34099627

>  <minimizedRMSD>  (1) 
0.982994199

$$$$
