
     RDKit          3D

 43 47  0  0  1  0  0  0  0  0999 V2000
   43.8770   34.4050   40.7540 C   0  0  2  0  0  0  0  0  0  0  0  0
   42.3320   34.5830   40.7430 C   0  0  0  0  0  0  0  0  0  0  0  0
   42.1890   35.0800   39.3050 C   0  0  0  0  0  0  0  0  0  0  0  0
   43.1120   34.1990   38.5630 C   0  0  0  0  0  0  0  0  0  0  0  0
   44.0370   33.5450   39.5970 C   0  0  1  0  0  0  0  0  0  0  0  0
   45.3580   33.3940   39.0480 N   0  0  0  0  0  0  0  0  0  0  0  0
   46.4960   33.4570   39.7600 C   0  0  0  0  0  0  0  0  0  0  0  0
   47.5560   33.2840   38.9710 N   0  0  0  0  0  0  0  0  0  0  0  0
   47.0590   33.1080   37.7290 C   0  0  0  0  0  0  0  0  0  0  0  0
   47.7510   32.8930   36.5590 C   0  0  0  0  0  0  0  0  0  0  0  0
   49.0190   32.8340   36.5370 O   0  0  0  0  0  0  0  0  0  0  0  0
   47.0290   32.7500   35.4350 N   0  0  0  0  0  0  0  0  0  0  0  0
   45.6620   32.8140   35.4580 C   0  0  0  0  0  0  0  0  0  0  0  0
   45.0110   32.6540   34.1940 N   0  0  0  0  0  0  0  0  0  0  0  0
   45.0150   33.0270   36.6310 N   0  0  0  0  0  0  0  0  0  0  0  0
   45.6850   33.1750   37.7700 C   0  0  0  0  0  0  0  0  0  0  0  0
   44.9400   34.8630   42.9260 C   0  0  0  0  0  0  0  0  0  0  0  0
   44.3820   33.9190   42.0410 C   0  0  0  0  0  0  0  0  0  0  0  0
   44.3390   32.5560   42.4020 C   0  0  0  0  0  0  0  0  0  0  0  0
   44.8460   32.1870   43.6120 N   0  0  0  0  0  0  0  0  0  0  0  0
   45.3840   33.1370   44.4490 C   0  0  0  0  0  0  0  0  0  0  0  0
   45.4310   34.4490   44.1150 N   0  0  0  0  0  0  0  0  0  0  0  0
   45.9360   32.7380   45.7620 C   0  0  0  0  0  0  0  0  0  0  0  0
   47.1910   31.9920   45.8560 C   0  0  0  0  0  0  0  0  0  0  0  0
   47.3670   31.7900   47.6200 S   0  0  0  0  0  0  0  0  0  0  0  0
   45.7450   32.7270   47.9890 C   0  0  0  0  0  0  0  0  0  0  0  0
   45.3740   33.0050   46.9330 N   0  0  0  0  0  0  0  0  0  0  0  0
   44.4842   35.3185   40.6712 H   0  0  0  0  0  0  0  0  0  0  0  0
   41.8015   33.6342   40.9112 H   0  0  0  0  0  0  0  0  0  0  0  0
   41.9143   35.2350   41.5243 H   0  0  0  0  0  0  0  0  0  0  0  0
   41.1557   34.9639   38.9462 H   0  0  0  0  0  0  0  0  0  0  0  0
   42.4185   36.1495   39.1883 H   0  0  0  0  0  0  0  0  0  0  0  0
   42.5446   33.4272   38.0222 H   0  0  0  0  0  0  0  0  0  0  0  0
   43.6921   34.7716   37.8243 H   0  0  0  0  0  0  0  0  0  0  0  0
   43.8051   32.5102   39.8891 H   0  0  0  0  0  0  0  0  0  0  0  0
   46.5458   33.6280   40.8455 H   0  0  0  0  0  0  0  0  0  0  0  0
   47.5129   32.5893   34.5400 H   0  0  0  0  0  0  0  0  0  0  0  0
   43.9833   32.6908   34.1357 H   0  0  0  0  0  0  0  0  0  0  0  0
   45.5700   32.5020   33.3424 H   0  0  0  0  0  0  0  0  0  0  0  0
   44.9756   35.9276   42.6514 H   0  0  0  0  0  0  0  0  0  0  0  0
   43.9059   31.8077   41.7220 H   0  0  0  0  0  0  0  0  0  0  0  0
   47.8536   31.6458   45.0491 H   0  0  0  0  0  0  0  0  0  0  0  0
   45.2817   32.9462   48.9623 H   0  0  0  0  0  0  0  0  0  0  0  0
  1 18  1  0
  2  1  1  0
  3  2  1  0
  4  3  1  0
  4  5  1  0
  5  1  1  0
  6  5  1  0
  6  7  1  0
  8  7  2  0
  9 16  2  0
  9  8  1  0
 10  9  1  0
 11 10  2  0
 12 13  1  0
 12 10  1  0
 13 15  2  0
 14 13  1  0
 15 16  1  0
 16  6  1  0
 17 22  2  0
 18 19  2  0
 18 17  1  0
 19 20  1  0
 20 21  2  0
 21 23  1  0
 22 21  1  0
 23 24  2  0
 23 27  1  0
 24 25  1  0
 25 26  1  0
 27 26  2  0
  1 28  1  6
  2 29  1  0
  2 30  1  0
  3 31  1  0
  3 32  1  0
  4 33  1  0
  4 34  1  0
  5 35  1  1
  7 36  1  0
 12 37  1  0
 14 38  1  0
 14 39  1  0
 17 40  1  0
 19 41  1  0
 24 42  1  0
 26 43  1  0
M  ISO  8  28  13  29  13  30  13  31  13  32  13  33  13  34  13  35  13
M  ISO  6  36  14  37   9  40  14  41  14  42  14  43  14
M  END
>  <minimizedAffinity>  (1) 
-6.25806284

>  <minimizedRMSD>  (1) 
0.618542194

$$$$
