
     RDKit          3D

 40 43  0  0  1  0  0  0  0  0999 V2000
   43.8030   34.5190   40.6200 C   0  0  2  0  0  0  0  0  0  0  0  0
   42.2490   34.6000   40.6010 C   0  0  0  0  0  0  0  0  0  0  0  0
   42.0730   34.9080   39.1120 C   0  0  0  0  0  0  0  0  0  0  0  0
   43.0440   34.0020   38.4730 C   0  0  0  0  0  0  0  0  0  0  0  0
   44.0030   33.5430   39.5660 C   0  0  1  0  0  0  0  0  0  0  0  0
   45.3300   33.3940   39.0430 N   0  0  0  0  0  0  0  0  0  0  0  0
   46.4680   33.4480   39.7670 C   0  0  0  0  0  0  0  0  0  0  0  0
   47.5320   33.2730   38.9780 N   0  0  0  0  0  0  0  0  0  0  0  0
   47.0460   33.1050   37.7310 C   0  0  0  0  0  0  0  0  0  0  0  0
   47.7470   32.8920   36.5650 C   0  0  0  0  0  0  0  0  0  0  0  0
   49.0220   32.8290   36.5670 O   0  0  0  0  0  0  0  0  0  0  0  0
   47.0270   32.7560   35.4400 N   0  0  0  0  0  0  0  0  0  0  0  0
   45.6650   32.8250   35.4420 C   0  0  0  0  0  0  0  0  0  0  0  0
   45.0410   32.6680   34.1740 N   0  0  0  0  0  0  0  0  0  0  0  0
   45.0200   33.0370   36.6160 N   0  0  0  0  0  0  0  0  0  0  0  0
   45.6720   33.1780   37.7610 C   0  0  0  0  0  0  0  0  0  0  0  0
   44.8020   35.2900   42.7280 C   0  0  0  0  0  0  0  0  0  0  0  0
   44.3310   34.2150   41.9530 C   0  0  0  0  0  0  0  0  0  0  0  0
   44.3980   32.9040   42.4670 C   0  0  0  0  0  0  0  0  0  0  0  0
   44.9200   32.7220   43.7050 N   0  0  0  0  0  0  0  0  0  0  0  0
   45.3710   33.7930   44.4360 C   0  0  0  0  0  0  0  0  0  0  0  0
   45.3140   35.0570   43.9560 N   0  0  0  0  0  0  0  0  0  0  0  0
   45.9180   33.5060   45.7580 C   0  0  0  0  0  0  0  0  0  0  0  0
   46.9930   32.8590   45.8210 O   0  0  0  0  0  0  0  0  0  0  0  0
   45.2520   33.9450   46.8940 O   0  0  0  0  0  0  0  0  0  0  0  0
   44.3632   35.4462   40.4291 H   0  0  0  0  0  0  0  0  0  0  0  0
   41.7781   33.6484   40.8886 H   0  0  0  0  0  0  0  0  0  0  0  0
   41.7932   35.3163   41.3004 H   0  0  0  0  0  0  0  0  0  0  0  0
   41.0477   34.6872   38.7804 H   0  0  0  0  0  0  0  0  0  0  0  0
   42.2379   35.9670   38.8644 H   0  0  0  0  0  0  0  0  0  0  0  0
   42.5241   33.1361   38.0371 H   0  0  0  0  0  0  0  0  0  0  0  0
   43.5846   34.5113   37.6617 H   0  0  0  0  0  0  0  0  0  0  0  0
   43.8201   32.5386   39.9755 H   0  0  0  0  0  0  0  0  0  0  0  0
   46.5130   33.6129   40.8536 H   0  0  0  0  0  0  0  0  0  0  0  0
   47.5179   32.5948   34.5490 H   0  0  0  0  0  0  0  0  0  0  0  0
   44.0147   32.7083   34.0966 H   0  0  0  0  0  0  0  0  0  0  0  0
   45.6153   32.5140   33.3329 H   0  0  0  0  0  0  0  0  0  0  0  0
   44.7536   36.3165   42.3356 H   0  0  0  0  0  0  0  0  0  0  0  0
   44.0354   32.0490   41.8776 H   0  0  0  0  0  0  0  0  0  0  0  0
   45.6226   33.7506   47.7912 H   0  0  0  0  0  0  0  0  0  0  0  0
  1 18  1  0
  2  1  1  0
  3  2  1  0
  4  3  1  0
  4  5  1  0
  5  1  1  0
  6  5  1  0
  6  7  1  0
  8  7  2  0
  9 16  2  0
  9  8  1  0
 10 11  2  0
 10  9  1  0
 12 13  1  0
 12 10  1  0
 13 15  2  0
 14 13  1  0
 15 16  1  0
 16  6  1  0
 17 22  2  0
 18 19  2  0
 18 17  1  0
 19 20  1  0
 20 21  2  0
 21 23  1  0
 22 21  1  0
 23 24  2  0
 23 25  1  0
  1 26  1  6
  2 27  1  0
  2 28  1  0
  3 29  1  0
  3 30  1  0
  4 31  1  0
  4 32  1  0
  5 33  1  1
  7 34  1  0
 12 35  1  0
 14 36  1  0
 14 37  1  0
 17 38  1  0
 19 39  1  0
 25 40  1  0
M  ISO  8  26  13  27  13  28  13  29  13  30  13  31  13  32  13  33  13
M  ISO  5  34  14  35   9  38  14  39  14  40   3
M  END
>  <minimizedAffinity>  (1) 
-6.52839375

>  <minimizedRMSD>  (1) 
0.330196977

$$$$
