
     RDKit          3D

 43 46  0  0  1  0  0  0  0  0999 V2000
   43.9310   34.4770   40.6380 C   0  0  2  0  0  0  0  0  0  0  0  0
   42.3790   34.5850   40.6430 C   0  0  0  0  0  0  0  0  0  0  0  0
   42.1750   34.8930   39.1630 C   0  0  0  0  0  0  0  0  0  0  0  0
   43.1220   33.9700   38.5060 C   0  0  0  0  0  0  0  0  0  0  0  0
   44.1030   33.4920   39.5890 C   0  0  1  0  0  0  0  0  0  0  0  0
   45.4150   33.3490   39.0280 N   0  0  0  0  0  0  0  0  0  0  0  0
   46.5760   33.4030   39.7300 C   0  0  0  0  0  0  0  0  0  0  0  0
   47.6190   33.2420   38.9210 N   0  0  0  0  0  0  0  0  0  0  0  0
   47.1090   33.0820   37.6800 C   0  0  0  0  0  0  0  0  0  0  0  0
   47.7820   32.8840   36.5000 C   0  0  0  0  0  0  0  0  0  0  0  0
   49.0510   32.8260   36.4670 O   0  0  0  0  0  0  0  0  0  0  0  0
   47.0400   32.7540   35.3880 N   0  0  0  0  0  0  0  0  0  0  0  0
   45.6810   32.8160   35.4220 C   0  0  0  0  0  0  0  0  0  0  0  0
   45.0170   32.6670   34.1650 N   0  0  0  0  0  0  0  0  0  0  0  0
   45.0470   33.0140   36.6090 N   0  0  0  0  0  0  0  0  0  0  0  0
   45.7280   33.1490   37.7480 C   0  0  0  0  0  0  0  0  0  0  0  0
   45.0750   35.2500   42.6680 C   0  0  0  0  0  0  0  0  0  0  0  0
   44.4810   34.1770   41.9580 C   0  0  0  0  0  0  0  0  0  0  0  0
   44.4470   32.8840   42.5180 C   0  0  0  0  0  0  0  0  0  0  0  0
   44.9970   32.7090   43.7460 N   0  0  0  0  0  0  0  0  0  0  0  0
   45.5690   33.7610   44.4210 C   0  0  0  0  0  0  0  0  0  0  0  0
   45.6070   35.0240   43.8830 N   0  0  0  0  0  0  0  0  0  0  0  0
   46.1620   33.5000   45.7780 C   0  0  0  0  0  0  0  0  0  0  0  0
   46.8660   32.1460   45.7850 C   0  0  0  0  0  0  0  0  0  0  0  0
   44.4978   35.3969   40.4318 H   0  0  0  0  0  0  0  0  0  0  0  0
   41.8979   33.6418   40.9412 H   0  0  0  0  0  0  0  0  0  0  0  0
   41.9509   35.3127   41.3481 H   0  0  0  0  0  0  0  0  0  0  0  0
   41.1399   34.6858   38.8537 H   0  0  0  0  0  0  0  0  0  0  0  0
   42.3476   35.9493   38.9091 H   0  0  0  0  0  0  0  0  0  0  0  0
   42.5807   33.1121   38.0806 H   0  0  0  0  0  0  0  0  0  0  0  0
   43.6553   34.4714   37.6850 H   0  0  0  0  0  0  0  0  0  0  0  0
   43.9252   32.4902   40.0071 H   0  0  0  0  0  0  0  0  0  0  0  0
   46.6443   33.5583   40.8168 H   0  0  0  0  0  0  0  0  0  0  0  0
   47.5123   32.6033   34.4852 H   0  0  0  0  0  0  0  0  0  0  0  0
   43.9887   32.7037   34.1182 H   0  0  0  0  0  0  0  0  0  0  0  0
   45.5668   32.5229   33.3060 H   0  0  0  0  0  0  0  0  0  0  0  0
   45.1009   36.2586   42.2297 H   0  0  0  0  0  0  0  0  0  0  0  0
   43.9890   32.0432   41.9765 H   0  0  0  0  0  0  0  0  0  0  0  0
   46.8889   34.2904   46.0166 H   0  0  0  0  0  0  0  0  0  0  0  0
   45.3588   33.4946   46.5295 H   0  0  0  0  0  0  0  0  0  0  0  0
   47.0329   31.8249   46.8238 H   0  0  0  0  0  0  0  0  0  0  0  0
   46.2394   31.4042   45.2681 H   0  0  0  0  0  0  0  0  0  0  0  0
   47.8331   32.2329   45.2681 H   0  0  0  0  0  0  0  0  0  0  0  0
  1  2  1  0
  1 18  1  0
  3  2  1  0
  4  3  1  0
  4  5  1  0
  5  1  1  0
  6  5  1  0
  6  7  1  0
  8  7  2  0
  9 16  2  0
  9  8  1  0
 10  9  1  0
 11 10  2  0
 12 13  1  0
 12 10  1  0
 13 15  2  0
 14 13  1  0
 15 16  1  0
 16  6  1  0
 17 22  2  0
 18 19  2  0
 18 17  1  0
 19 20  1  0
 20 21  2  0
 21 23  1  0
 22 21  1  0
 23 24  1  0
  1 25  1  6
  2 26  1  0
  2 27  1  0
  3 28  1  0
  3 29  1  0
  4 30  1  0
  4 31  1  0
  5 32  1  1
  7 33  1  0
 12 34  1  0
 14 35  1  0
 14 36  1  0
 17 37  1  0
 19 38  1  0
 23 39  1  0
 23 40  1  0
 24 41  1  0
 24 42  1  0
 24 43  1  0
M  ISO  8  25  13  26  13  27  13  28  13  29  13  30  13  31  13  32  13
M  ISO  8  33  14  34   9  37  14  38  14  39   8  40   8  41   8  42   8
M  ISO  1  43   8
M  END
>  <minimizedAffinity>  (1) 
-6.04036236

>  <minimizedRMSD>  (1) 
0.414416134

$$$$
