
     RDKit          3D

 40 43  0  0  0  0  0  0  0  0999 V2000
   47.6600   34.7780   41.5930 C   0  0  0  0  0  0  0  0  0  0  0  0
   47.2620   34.2390   40.2620 C   0  0  0  0  0  0  0  0  0  0  0  0
   48.1530   34.0810   39.2220 C   0  0  0  0  0  0  0  0  0  0  0  0
   47.8710   33.5920   37.9760 C   0  0  0  0  0  0  0  0  0  0  0  0
   46.5670   33.2370   37.7860 N   0  0  0  0  0  0  0  0  0  0  0  0
   45.6710   33.3830   38.7910 C   0  0  0  0  0  0  0  0  0  0  0  0
   45.9690   33.8700   40.0210 N   0  0  0  0  0  0  0  0  0  0  0  0
   44.2940   32.9810   38.5160 C   0  0  0  0  0  0  0  0  0  0  0  0
   43.2220   33.7480   38.9530 C   0  0  0  0  0  0  0  0  0  0  0  0
   41.9350   33.3700   38.6960 C   0  0  0  0  0  0  0  0  0  0  0  0
   41.6840   32.2500   38.0180 N   0  0  0  0  0  0  0  0  0  0  0  0
   42.7390   31.5110   37.5970 C   0  0  0  0  0  0  0  0  0  0  0  0
   44.0400   31.8540   37.8330 N   0  0  0  0  0  0  0  0  0  0  0  0
   47.5560   33.6750   42.5930 C   0  0  0  0  0  0  0  0  0  0  0  0
   44.8590   35.1860   44.7490 C   0  0  0  0  0  0  0  0  0  0  0  0
   45.7070   34.9240   43.6630 C   0  0  0  0  0  0  0  0  0  0  0  0
   46.6660   33.9470   43.7280 C   0  0  0  0  0  0  0  0  0  0  0  0
   46.7660   33.2440   44.8750 N   0  0  0  0  0  0  0  0  0  0  0  0
   45.9240   33.5170   45.9270 C   0  0  0  0  0  0  0  0  0  0  0  0
   45.0040   34.4570   45.8600 N   0  0  0  0  0  0  0  0  0  0  0  0
   46.1330   32.6850   47.1140 C   0  0  0  0  0  0  0  0  0  0  0  0
   45.0890   32.3350   47.9450 C   0  0  0  0  0  0  0  0  0  0  0  0
   45.3560   31.5400   49.0580 C   0  0  0  0  0  0  0  0  0  0  0  0
   46.5910   31.1130   49.3370 N   0  0  0  0  0  0  0  0  0  0  0  0
   47.5930   31.4670   48.5160 C   0  0  0  0  0  0  0  0  0  0  0  0
   47.3580   32.2420   47.4230 N   0  0  0  0  0  0  0  0  0  0  0  0
   46.9891   35.6023   41.8767 H   0  0  0  0  0  0  0  0  0  0  0  0
   48.6906   35.1606   41.5552 H   0  0  0  0  0  0  0  0  0  0  0  0
   49.1948   34.3778   39.4132 H   0  0  0  0  0  0  0  0  0  0  0  0
   48.6342   33.4928   37.1901 H   0  0  0  0  0  0  0  0  0  0  0  0
   43.4124   34.6743   39.5148 H   0  0  0  0  0  0  0  0  0  0  0  0
   41.1008   33.9933   39.0505 H   0  0  0  0  0  0  0  0  0  0  0  0
   42.5372   30.5866   37.0359 H   0  0  0  0  0  0  0  0  0  0  0  0
   47.1837   32.7789   42.0748 H   0  0  0  0  0  0  0  0  0  0  0  0
   48.5634   33.5486   43.0164 H   0  0  0  0  0  0  0  0  0  0  0  0
   44.0927   35.9728   44.6879 H   0  0  0  0  0  0  0  0  0  0  0  0
   45.6003   35.5143   42.7409 H   0  0  0  0  0  0  0  0  0  0  0  0
   44.0652   32.6769   47.7331 H   0  0  0  0  0  0  0  0  0  0  0  0
   44.5281   31.2565   49.7245 H   0  0  0  0  0  0  0  0  0  0  0  0
   48.6167   31.1260   48.7300 H   0  0  0  0  0  0  0  0  0  0  0  0
  1 14  1  0
  2  1  1  0
  3  2  2  0
  4  3  1  0
  5  4  2  0
  5  6  1  0
  6  7  2  0
  7  2  1  0
  8  6  1  0
  8  9  2  0
 10  9  1  0
 11 10  2  0
 12 13  2  0
 12 11  1  0
 13  8  1  0
 14 17  1  0
 15 20  2  0
 16 17  2  0
 16 15  1  0
 17 18  1  0
 18 19  2  0
 19 21  1  0
 20 19  1  0
 21 26  1  0
 21 22  2  0
 22 23  1  0
 23 24  2  0
 25 24  1  0
 26 25  2  0
  1 27  1  0
  1 28  1  0
  3 29  1  0
  4 30  1  0
  9 31  1  0
 10 32  1  0
 12 33  1  0
 14 34  1  0
 14 35  1  0
 15 36  1  0
 16 37  1  0
 22 38  1  0
 23 39  1  0
 25 40  1  0
M  ISO  8  27   8  28   8  29  14  30  14  31  14  32  14  33  14  34   8
M  ISO  6  35   8  36  14  37  14  38  14  39  14  40  14
M  END
>  <minimizedAffinity>  (1) 
-6.03187513

>  <minimizedRMSD>  (1) 
1.12026739

$$$$
