
     RDKit          3D

 45 48  0  0  0  0  0  0  0  0999 V2000
   47.5920   34.7150   41.6580 C   0  0  0  0  0  0  0  0  0  0  0  0
   47.2510   34.2230   40.2940 C   0  0  0  0  0  0  0  0  0  0  0  0
   48.1770   34.1890   39.2640 C   0  0  0  0  0  0  0  0  0  0  0  0
   47.9520   33.7490   37.9820 C   0  0  0  0  0  0  0  0  0  0  0  0
   46.6780   33.3120   37.7420 N   0  0  0  0  0  0  0  0  0  0  0  0
   45.7620   33.3380   38.7360 C   0  0  0  0  0  0  0  0  0  0  0  0
   45.9870   33.7730   40.0020 N   0  0  0  0  0  0  0  0  0  0  0  0
   44.4220   32.8550   38.4040 C   0  0  0  0  0  0  0  0  0  0  0  0
   43.2980   33.5750   38.8090 C   0  0  0  0  0  0  0  0  0  0  0  0
   42.0410   33.1190   38.4950 C   0  0  0  0  0  0  0  0  0  0  0  0
   41.8760   31.9970   37.8100 N   0  0  0  0  0  0  0  0  0  0  0  0
   42.9840   31.3070   37.4220 C   0  0  0  0  0  0  0  0  0  0  0  0
   44.2580   31.7190   37.7090 N   0  0  0  0  0  0  0  0  0  0  0  0
   47.3930   33.5950   42.6240 C   0  0  0  0  0  0  0  0  0  0  0  0
   44.7940   35.2120   44.8270 C   0  0  0  0  0  0  0  0  0  0  0  0
   45.6030   34.8960   43.7280 C   0  0  0  0  0  0  0  0  0  0  0  0
   46.5460   33.9090   43.7790 C   0  0  0  0  0  0  0  0  0  0  0  0
   46.6780   33.2310   44.9400 N   0  0  0  0  0  0  0  0  0  0  0  0
   45.8790   33.5470   46.0140 C   0  0  0  0  0  0  0  0  0  0  0  0
   44.9740   34.5010   45.9540 N   0  0  0  0  0  0  0  0  0  0  0  0
   46.0700   32.7940   47.2060 N   0  0  0  0  0  0  0  0  0  0  0  0
   44.9470   32.2730   47.9630 C   0  0  0  0  0  0  0  0  0  0  0  0
   45.2530   30.8410   48.4090 C   0  0  0  0  0  0  0  0  0  0  0  0
   46.4810   30.7370   49.0200 O   0  0  0  0  0  0  0  0  0  0  0  0
   47.4810   31.0250   48.1220 C   0  0  0  0  0  0  0  0  0  0  0  0
   47.3750   32.4940   47.7470 C   0  0  0  0  0  0  0  0  0  0  0  0
   46.9360   35.5568   41.9244 H   0  0  0  0  0  0  0  0  0  0  0  0
   48.6365   35.0587   41.6865 H   0  0  0  0  0  0  0  0  0  0  0  0
   49.1904   34.5491   39.4950 H   0  0  0  0  0  0  0  0  0  0  0  0
   48.7348   33.7482   37.2092 H   0  0  0  0  0  0  0  0  0  0  0  0
   43.4183   34.5077   39.3797 H   0  0  0  0  0  0  0  0  0  0  0  0
   41.1595   33.6931   38.8166 H   0  0  0  0  0  0  0  0  0  0  0  0
   42.8495   30.3759   36.8519 H   0  0  0  0  0  0  0  0  0  0  0  0
   46.9319   32.7562   42.0820 H   0  0  0  0  0  0  0  0  0  0  0  0
   48.3884   33.3621   43.0301 H   0  0  0  0  0  0  0  0  0  0  0  0
   44.0403   36.0112   44.7702 H   0  0  0  0  0  0  0  0  0  0  0  0
   45.4747   35.4613   42.7931 H   0  0  0  0  0  0  0  0  0  0  0  0
   44.7767   32.9041   48.8477 H   0  0  0  0  0  0  0  0  0  0  0  0
   44.0462   32.2760   47.3317 H   0  0  0  0  0  0  0  0  0  0  0  0
   44.4764   30.5174   49.1177 H   0  0  0  0  0  0  0  0  0  0  0  0
   45.2678   30.2044   47.5120 H   0  0  0  0  0  0  0  0  0  0  0  0
   48.4612   30.8277   48.5805 H   0  0  0  0  0  0  0  0  0  0  0  0
   47.3788   30.3960   47.2254 H   0  0  0  0  0  0  0  0  0  0  0  0
   48.1405   32.7295   46.9930 H   0  0  0  0  0  0  0  0  0  0  0  0
   47.5285   33.1001   48.6520 H   0  0  0  0  0  0  0  0  0  0  0  0
  1 14  1  0
  2  1  1  0
  3  2  2  0
  4  3  1  0
  5  4  2  0
  5  6  1  0
  6  7  2  0
  7  2  1  0
  8  6  1  0
  8  9  2  0
 10  9  1  0
 11 10  2  0
 12 13  2  0
 12 11  1  0
 13  8  1  0
 14 17  1  0
 15 20  2  0
 16 17  2  0
 16 15  1  0
 17 18  1  0
 18 19  2  0
 19 21  1  0
 20 19  1  0
 21 26  1  0
 21 22  1  0
 22 23  1  0
 23 24  1  0
 25 24  1  0
 26 25  1  0
  1 27  1  0
  1 28  1  0
  3 29  1  0
  4 30  1  0
  9 31  1  0
 10 32  1  0
 12 33  1  0
 14 34  1  0
 14 35  1  0
 15 36  1  0
 16 37  1  0
 22 38  1  0
 22 39  1  0
 23 40  1  0
 23 41  1  0
 25 42  1  0
 25 43  1  0
 26 44  1  0
 26 45  1  0
M  ISO  8  27   8  28   8  29  14  30  14  31  14  32  14  33  14  34   8
M  ISO  8  35   8  36  14  37  14  38  13  39  13  40  13  41  13  42  13
M  ISO  3  43  13  44  13  45  13
M  END
>  <minimizedAffinity>  (1) 
-6.02187157

>  <minimizedRMSD>  (1) 
0.929024696

$$$$
