
     RDKit          3D

 25 26  0  0  1  0  0  0  0  0999 V2000
   46.0680   35.2240   42.7730 C   0  0  2  0  0  0  0  0  0  0  0  0
   44.9370   36.1430   42.9220 C   0  0  0  0  0  0  0  0  0  0  0  0
   43.8000   35.6300   42.0380 C   0  0  0  0  0  0  0  0  0  0  0  0
   44.2470   34.3060   41.4620 C   0  0  2  0  0  0  0  0  0  0  0  0
   45.7300   34.3960   41.5010 C   0  0  0  0  0  0  0  0  0  0  0  0
   46.2780   34.2330   43.8420 C   0  0  0  0  0  0  0  0  0  0  0  0
   45.5470   34.3500   45.0380 C   0  0  0  0  0  0  0  0  0  0  0  0
   45.7250   33.4000   46.0390 C   0  0  0  0  0  0  0  0  0  0  0  0
   46.6220   32.3900   45.7910 N   0  0  0  0  0  0  0  0  0  0  0  0
   47.3130   32.3080   44.6260 C   0  0  0  0  0  0  0  0  0  0  0  0
   47.1370   33.2240   43.6650 N   0  0  0  0  0  0  0  0  0  0  0  0
   43.7350   34.1630   40.0660 C   0  0  0  0  0  0  0  0  0  0  0  0
   42.8730   34.9050   39.6020 O   0  0  0  0  0  0  0  0  0  0  0  0
   46.9765   35.8441   42.7628 H   0  0  0  0  0  0  0  0  0  0  0  0
   44.6118   36.1693   43.9725 H   0  0  0  0  0  0  0  0  0  0  0  0
   45.2268   37.1613   42.6237 H   0  0  0  0  0  0  0  0  0  0  0  0
   42.8885   35.4919   42.6381 H   0  0  0  0  0  0  0  0  0  0  0  0
   43.5726   36.3485   41.2368 H   0  0  0  0  0  0  0  0  0  0  0  0
   43.8725   33.4297   42.0115 H   0  0  0  0  0  0  0  0  0  0  0  0
   46.1736   33.3916   41.5681 H   0  0  0  0  0  0  0  0  0  0  0  0
   46.1322   34.8664   40.5916 H   0  0  0  0  0  0  0  0  0  0  0  0
   44.8427   35.1829   45.1804 H   0  0  0  0  0  0  0  0  0  0  0  0
   45.1713   33.4555   46.9878 H   0  0  0  0  0  0  0  0  0  0  0  0
   48.0233   31.4827   44.4697 H   0  0  0  0  0  0  0  0  0  0  0  0
   44.1448   33.3642   39.4304 H   0  0  0  0  0  0  0  0  0  0  0  0
  1  2  1  0
  1  6  1  0
  3  2  1  0
  4  5  1  0
  4  3  1  0
  5  1  1  0
  6  7  2  0
  7  8  1  0
  9  8  2  0
 10  9  1  0
 11  6  1  0
 11 10  2  0
 12  4  1  0
 13 12  2  0
  1 14  1  6
  2 15  1  0
  2 16  1  0
  3 17  1  0
  3 18  1  0
  4 19  1  1
  5 20  1  0
  5 21  1  0
  7 22  1  0
  8 23  1  0
 10 24  1  0
 12 25  1  0
M  ISO  8  14  13  15  13  16  13  17  13  18  13  19  13  20  13  21  13
M  ISO  4  22  14  23  14  24  14  25   6
M  END
>  <minimizedAffinity>  (1) 
-3.86160398

>  <minimizedRMSD>  (1) 
4.63277626

$$$$
