
     RDKit          3D

 32 33  0  0  1  0  0  0  0  0999 V2000
   46.0980   35.2300   42.7820 C   0  0  2  0  0  0  0  0  0  0  0  0
   44.9530   36.1250   42.9510 C   0  0  0  0  0  0  0  0  0  0  0  0
   43.8450   35.6350   42.0200 C   0  0  0  0  0  0  0  0  0  0  0  0
   44.3150   34.3420   41.4150 C   0  0  2  0  0  0  0  0  0  0  0  0
   45.7920   34.4470   41.4730 C   0  0  0  0  0  0  0  0  0  0  0  0
   46.3110   34.1960   43.8080 C   0  0  0  0  0  0  0  0  0  0  0  0
   45.5990   34.2810   45.0200 C   0  0  0  0  0  0  0  0  0  0  0  0
   45.7770   33.2920   45.9920 C   0  0  0  0  0  0  0  0  0  0  0  0
   46.6510   32.2930   45.6850 N   0  0  0  0  0  0  0  0  0  0  0  0
   47.3250   32.2240   44.5250 C   0  0  0  0  0  0  0  0  0  0  0  0
   47.1500   33.1770   43.5940 N   0  0  0  0  0  0  0  0  0  0  0  0
   43.7440   34.0430   40.0850 C   0  0  0  0  0  0  0  0  0  0  0  0
   42.9330   32.7480   40.1890 C   0  0  0  0  0  0  0  0  0  0  0  0
   42.6890   35.1220   39.8130 C   0  0  0  0  0  0  0  0  0  0  0  0
   46.9939   35.8676   42.8131 H   0  0  0  0  0  0  0  0  0  0  0  0
   44.6060   36.0978   43.9945 H   0  0  0  0  0  0  0  0  0  0  0  0
   45.2323   37.1610   42.7088 H   0  0  0  0  0  0  0  0  0  0  0  0
   42.9188   35.4701   42.5900 H   0  0  0  0  0  0  0  0  0  0  0  0
   43.6337   36.3790   41.2378 H   0  0  0  0  0  0  0  0  0  0  0  0
   43.9556   33.4618   41.9683 H   0  0  0  0  0  0  0  0  0  0  0  0
   46.2481   33.4466   41.5071 H   0  0  0  0  0  0  0  0  0  0  0  0
   46.2017   34.9541   40.5870 H   0  0  0  0  0  0  0  0  0  0  0  0
   44.9088   35.1183   45.2004 H   0  0  0  0  0  0  0  0  0  0  0  0
   45.2408   33.3190   46.9521 H   0  0  0  0  0  0  0  0  0  0  0  0
   48.0177   31.3903   44.3379 H   0  0  0  0  0  0  0  0  0  0  0  0
   44.5400   33.9851   39.3280 H   0  0  0  0  0  0  0  0  0  0  0  0
   42.7762   32.4976   41.2486 H   0  0  0  0  0  0  0  0  0  0  0  0
   41.9589   32.8848   39.6966 H   0  0  0  0  0  0  0  0  0  0  0  0
   43.4813   31.9314   39.6966 H   0  0  0  0  0  0  0  0  0  0  0  0
   42.3081   35.5115   40.7686 H   0  0  0  0  0  0  0  0  0  0  0  0
   43.1432   35.9421   39.2376 H   0  0  0  0  0  0  0  0  0  0  0  0
   41.8588   34.6863   39.2376 H   0  0  0  0  0  0  0  0  0  0  0  0
  1  2  1  0
  1  6  1  0
  3  2  1  0
  4  5  1  0
  4  3  1  0
  5  1  1  0
  6  7  2  0
  7  8  1  0
  9  8  2  0
 10  9  1  0
 11  6  1  0
 11 10  2  0
 12 13  1  0
 12  4  1  0
 14 12  1  0
  1 15  1  6
  2 16  1  0
  2 17  1  0
  3 18  1  0
  3 19  1  0
  4 20  1  1
  5 21  1  0
  5 22  1  0
  7 23  1  0
  8 24  1  0
 10 25  1  0
 12 26  1  0
 13 27  1  0
 13 28  1  0
 13 29  1  0
 14 30  1  0
 14 31  1  0
 14 32  1  0
M  ISO  8  15  13  16  13  17  13  18  13  19  13  20  13  21  13  22  13
M  ISO  8  23  14  24  14  25  14  26   8  27   8  28   8  29   8  30   8
M  ISO  2  31   8  32   8
M  END
>  <minimizedAffinity>  (1) 
-4.14542723

>  <minimizedRMSD>  (1) 
4.87087917

$$$$
