
     RDKit          3D

 40 43  0  0  0  0  0  0  0  0999 V2000
   47.6250   34.7830   41.6370 C   0  0  0  0  0  0  0  0  0  0  0  0
   47.2400   34.2400   40.3020 C   0  0  0  0  0  0  0  0  0  0  0  0
   48.1480   34.0840   39.2800 C   0  0  0  0  0  0  0  0  0  0  0  0
   47.8670   33.5880   38.0220 C   0  0  0  0  0  0  0  0  0  0  0  0
   46.5650   33.2320   37.8160 N   0  0  0  0  0  0  0  0  0  0  0  0
   45.6640   33.3820   38.8160 C   0  0  0  0  0  0  0  0  0  0  0  0
   45.9450   33.8690   40.0450 N   0  0  0  0  0  0  0  0  0  0  0  0
   44.2860   32.9830   38.5320 C   0  0  0  0  0  0  0  0  0  0  0  0
   43.2130   33.7460   38.9650 C   0  0  0  0  0  0  0  0  0  0  0  0
   41.9260   33.3740   38.7030 C   0  0  0  0  0  0  0  0  0  0  0  0
   41.6800   32.2600   38.0210 N   0  0  0  0  0  0  0  0  0  0  0  0
   42.7340   31.5110   37.5980 C   0  0  0  0  0  0  0  0  0  0  0  0
   44.0310   31.8580   37.8450 N   0  0  0  0  0  0  0  0  0  0  0  0
   47.5380   33.6780   42.6420 C   0  0  0  0  0  0  0  0  0  0  0  0
   44.8430   35.1990   44.8040 C   0  0  0  0  0  0  0  0  0  0  0  0
   45.6980   34.9380   43.7260 C   0  0  0  0  0  0  0  0  0  0  0  0
   46.6430   33.9470   43.7750 C   0  0  0  0  0  0  0  0  0  0  0  0
   46.7240   33.2200   44.9100 N   0  0  0  0  0  0  0  0  0  0  0  0
   45.8740   33.4920   45.9610 C   0  0  0  0  0  0  0  0  0  0  0  0
   44.9710   34.4500   45.8990 N   0  0  0  0  0  0  0  0  0  0  0  0
   46.0360   32.6540   47.1460 C   0  0  0  0  0  0  0  0  0  0  0  0
   47.3130   32.3230   47.5740 C   0  0  0  0  0  0  0  0  0  0  0  0
   47.3450   31.5290   48.7000 C   0  0  0  0  0  0  0  0  0  0  0  0
   46.2740   31.0770   49.3770 N   0  0  0  0  0  0  0  0  0  0  0  0
   45.0460   31.4300   48.9160 C   0  0  0  0  0  0  0  0  0  0  0  0
   44.9630   32.2030   47.8210 N   0  0  0  0  0  0  0  0  0  0  0  0
   46.9394   35.5957   41.9188 H   0  0  0  0  0  0  0  0  0  0  0  0
   48.6503   35.1799   41.6010 H   0  0  0  0  0  0  0  0  0  0  0  0
   49.1879   34.3800   39.4825 H   0  0  0  0  0  0  0  0  0  0  0  0
   48.6365   33.4871   37.2424 H   0  0  0  0  0  0  0  0  0  0  0  0
   43.4023   34.6699   39.5312 H   0  0  0  0  0  0  0  0  0  0  0  0
   41.0913   33.9970   39.0568 H   0  0  0  0  0  0  0  0  0  0  0  0
   42.5329   30.5882   37.0340 H   0  0  0  0  0  0  0  0  0  0  0  0
   47.1776   32.7749   42.1277 H   0  0  0  0  0  0  0  0  0  0  0  0
   48.5471   33.5624   43.0643 H   0  0  0  0  0  0  0  0  0  0  0  0
   44.0888   35.9978   44.7487 H   0  0  0  0  0  0  0  0  0  0  0  0
   45.6084   35.5460   42.8137 H   0  0  0  0  0  0  0  0  0  0  0  0
   48.2227   32.6650   47.0587 H   0  0  0  0  0  0  0  0  0  0  0  0
   48.3358   31.2386   49.0794 H   0  0  0  0  0  0  0  0  0  0  0  0
   44.1356   31.0887   49.4305 H   0  0  0  0  0  0  0  0  0  0  0  0
  1 14  1  0
  2  1  1  0
  3  2  2  0
  4  3  1  0
  5  4  2  0
  5  6  1  0
  6  7  2  0
  7  2  1  0
  8  6  1  0
  8  9  2  0
 10  9  1  0
 11 10  2  0
 12 13  2  0
 12 11  1  0
 13  8  1  0
 14 17  1  0
 15 20  2  0
 16 17  2  0
 16 15  1  0
 17 18  1  0
 18 19  2  0
 19 21  1  0
 20 19  1  0
 21 22  2  0
 21 26  1  0
 22 23  1  0
 23 24  2  0
 25 24  1  0
 26 25  2  0
  1 27  1  0
  1 28  1  0
  3 29  1  0
  4 30  1  0
  9 31  1  0
 10 32  1  0
 12 33  1  0
 14 34  1  0
 14 35  1  0
 15 36  1  0
 16 37  1  0
 22 38  1  0
 23 39  1  0
 25 40  1  0
M  ISO  8  27   8  28   8  29  14  30  14  31  14  32  14  33  14  34   8
M  ISO  6  35   8  36  14  37  14  38  14  39  14  40  14
M  END
>  <minimizedAffinity>  (1) 
-6.00620794

>  <minimizedRMSD>  (1) 
1.16316867

$$$$
