
     RDKit          3D

 45 47  0  0  1  0  0  0  0  0999 V2000
   46.3780   35.1040   42.9160 C   0  0  2  0  0  0  0  0  0  0  0  0
   45.3830   36.0970   43.2320 C   0  0  0  0  0  0  0  0  0  0  0  0
   44.1160   35.7840   42.4020 C   0  0  0  0  0  0  0  0  0  0  0  0
   44.4140   34.5440   41.6330 C   0  0  2  0  0  0  0  0  0  0  0  0
   45.8840   34.4800   41.5610 C   0  0  0  0  0  0  0  0  0  0  0  0
   46.5870   33.9540   43.7980 C   0  0  0  0  0  0  0  0  0  0  0  0
   45.9170   33.9450   45.0480 C   0  0  0  0  0  0  0  0  0  0  0  0
   46.0650   32.8560   45.8970 C   0  0  0  0  0  0  0  0  0  0  0  0
   46.8710   31.8490   45.4440 N   0  0  0  0  0  0  0  0  0  0  0  0
   47.4980   31.8710   44.2600 C   0  0  0  0  0  0  0  0  0  0  0  0
   47.3510   32.9300   43.4380 N   0  0  0  0  0  0  0  0  0  0  0  0
   43.6710   34.3930   40.3630 C   0  0  1  0  0  0  0  0  0  0  0  0
   43.0130   33.0380   40.2860 C   0  0  0  0  0  0  0  0  0  0  0  0
   42.5650   35.4280   40.3710 C   0  0  0  0  0  0  0  0  0  0  0  0
   41.4470   35.0290   39.4850 N   0  0  0  0  0  0  0  0  0  0  0  0
   40.3990   34.3110   39.9850 C   0  0  0  0  0  0  0  0  0  0  0  0
   39.2960   33.8950   39.2730 C   0  0  0  0  0  0  0  0  0  0  0  0
   38.2200   33.1160   39.9330 C   0  0  0  0  0  0  0  0  0  0  0  0
   39.2790   34.2530   37.9420 C   0  0  0  0  0  0  0  0  0  0  0  0
   38.3120   33.9120   37.2340 O   0  0  0  0  0  0  0  0  0  0  0  0
   40.3020   34.9570   37.4440 N   0  0  0  0  0  0  0  0  0  0  0  0
   41.3370   35.3280   38.1790 C   0  0  0  0  0  0  0  0  0  0  0  0
   42.2580   35.9860   37.6340 O   0  0  0  0  0  0  0  0  0  0  0  0
   47.3320   35.6498   42.9609 H   0  0  0  0  0  0  0  0  0  0  0  0
   45.1451   36.0589   44.3053 H   0  0  0  0  0  0  0  0  0  0  0  0
   45.7577   37.1033   42.9932 H   0  0  0  0  0  0  0  0  0  0  0  0
   43.2555   35.6215   43.0676 H   0  0  0  0  0  0  0  0  0  0  0  0
   43.8619   36.6182   41.7315 H   0  0  0  0  0  0  0  0  0  0  0  0
   44.0290   33.6485   42.1427 H   0  0  0  0  0  0  0  0  0  0  0  0
   46.2227   33.4376   41.4678 H   0  0  0  0  0  0  0  0  0  0  0  0
   46.2813   35.0165   40.6867 H   0  0  0  0  0  0  0  0  0  0  0  0
   45.2843   34.7950   45.3431 H   0  0  0  0  0  0  0  0  0  0  0  0
   45.5639   32.8067   46.8750 H   0  0  0  0  0  0  0  0  0  0  0  0
   48.1329   31.0249   43.9583 H   0  0  0  0  0  0  0  0  0  0  0  0
   44.3629   34.5108   39.5160 H   0  0  0  0  0  0  0  0  0  0  0  0
   42.8299   32.6610   41.3030 H   0  0  0  0  0  0  0  0  0  0  0  0
   42.0567   33.1247   39.7494 H   0  0  0  0  0  0  0  0  0  0  0  0
   43.6725   32.3401   39.7494 H   0  0  0  0  0  0  0  0  0  0  0  0
   42.1862   35.5394   41.3977 H   0  0  0  0  0  0  0  0  0  0  0  0
   42.9772   36.3789   40.0025 H   0  0  0  0  0  0  0  0  0  0  0  0
   40.4391   34.0409   41.0506 H   0  0  0  0  0  0  0  0  0  0  0  0
   38.3278   33.1940   41.0249 H   0  0  0  0  0  0  0  0  0  0  0  0
   37.2404   33.5156   39.6318 H   0  0  0  0  0  0  0  0  0  0  0  0
   38.2938   32.0606   39.6318 H   0  0  0  0  0  0  0  0  0  0  0  0
   40.2827   35.2205   36.4485 H   0  0  0  0  0  0  0  0  0  0  0  0
  1  2  1  0
  1  6  1  0
  3  2  1  0
  4  3  1  0
  5  4  1  0
  5  1  1  0
  6  7  2  0
  7  8  1  0
  9  8  2  0
 10  9  1  0
 11  6  1  0
 11 10  2  0
 12 14  1  0
 12  4  1  0
 13 12  1  0
 15 16  1  0
 15 14  1  0
 17 18  1  0
 17 16  2  0
 19 17  1  0
 20 19  2  0
 21 19  1  0
 21 22  1  0
 22 15  1  0
 23 22  2  0
  1 24  1  6
  2 25  1  0
  2 26  1  0
  3 27  1  0
  3 28  1  0
  4 29  1  1
  5 30  1  0
  5 31  1  0
  7 32  1  0
  8 33  1  0
 10 34  1  0
 12 35  1  6
 13 36  1  0
 13 37  1  0
 13 38  1  0
 14 39  1  0
 14 40  1  0
 16 41  1  0
 18 42  1  0
 18 43  1  0
 18 44  1  0
 21 45  1  0
M  ISO  8  24  13  25  13  26  13  27  13  28  13  29  13  30  13  31  13
M  ISO  8  32  14  33  14  34  14  35   8  36   8  37   8  38   8  39   8
M  ISO  6  40   8  41  14  42   8  43   8  44   8  45   9
M  END
>  <minimizedAffinity>  (1) 
-6.15957499

>  <minimizedRMSD>  (1) 
1.72512984

$$$$
