
     RDKit          3D

 40 42  0  0  1  0  0  0  0  0999 V2000
   46.1020   35.2680   42.8980 C   0  0  2  0  0  0  0  0  0  0  0  0
   44.9510   36.1300   42.9640 C   0  0  0  0  0  0  0  0  0  0  0  0
   43.8810   35.5690   41.9970 C   0  0  0  0  0  0  0  0  0  0  0  0
   44.4590   34.3330   41.4020 C   0  0  2  0  0  0  0  0  0  0  0  0
   45.9170   34.4810   41.5530 C   0  0  0  0  0  0  0  0  0  0  0  0
   46.3160   34.2300   43.9110 C   0  0  0  0  0  0  0  0  0  0  0  0
   45.5700   34.3130   45.1140 C   0  0  0  0  0  0  0  0  0  0  0  0
   45.7280   33.3290   46.0810 C   0  0  0  0  0  0  0  0  0  0  0  0
   46.6160   32.3360   45.7870 N   0  0  0  0  0  0  0  0  0  0  0  0
   47.3190   32.2710   44.6400 C   0  0  0  0  0  0  0  0  0  0  0  0
   47.1590   33.2280   43.7070 N   0  0  0  0  0  0  0  0  0  0  0  0
   43.9620   33.9890   40.0550 C   0  0  1  0  0  0  0  0  0  0  0  0
   44.7780   32.8680   39.4590 C   0  0  0  0  0  0  0  0  0  0  0  0
   42.5670   33.4250   40.2260 C   0  0  0  0  0  0  0  0  0  0  0  0
   41.7020   34.1240   39.1820 C   0  0  0  0  0  0  0  0  0  0  0  0
   42.0430   35.3450   38.6080 C   0  0  0  0  0  0  0  0  0  0  0  0
   41.1460   35.8370   37.6780 C   0  0  0  0  0  0  0  0  0  0  0  0
   40.0100   35.2080   37.3290 N   0  0  0  0  0  0  0  0  0  0  0  0
   39.7000   34.0360   37.8940 C   0  0  0  0  0  0  0  0  0  0  0  0
   40.5510   33.5260   38.8030 N   0  0  0  0  0  0  0  0  0  0  0  0
   46.9581   35.9457   43.0315 H   0  0  0  0  0  0  0  0  0  0  0  0
   44.5552   36.1472   43.9902 H   0  0  0  0  0  0  0  0  0  0  0  0
   45.2243   37.1568   42.6794 H   0  0  0  0  0  0  0  0  0  0  0  0
   42.9585   35.3311   42.5469 H   0  0  0  0  0  0  0  0  0  0  0  0
   43.6224   36.3027   41.2193 H   0  0  0  0  0  0  0  0  0  0  0  0
   44.1171   33.4317   41.9318 H   0  0  0  0  0  0  0  0  0  0  0  0
   46.4028   33.4957   41.6104 H   0  0  0  0  0  0  0  0  0  0  0  0
   46.3722   35.0044   40.6993 H   0  0  0  0  0  0  0  0  0  0  0  0
   44.8734   35.1481   45.2795 H   0  0  0  0  0  0  0  0  0  0  0  0
   45.1698   33.3490   47.0286 H   0  0  0  0  0  0  0  0  0  0  0  0
   48.0196   31.4409   44.4667 H   0  0  0  0  0  0  0  0  0  0  0  0
   44.0065   34.8833   39.4160 H   0  0  0  0  0  0  0  0  0  0  0  0
   45.2173   32.2645   40.2670 H   0  0  0  0  0  0  0  0  0  0  0  0
   44.1296   32.2326   38.8378 H   0  0  0  0  0  0  0  0  0  0  0  0
   45.5819   33.2898   38.8378 H   0  0  0  0  0  0  0  0  0  0  0  0
   42.5701   32.3384   40.0548 H   0  0  0  0  0  0  0  0  0  0  0  0
   42.1857   33.5929   41.2441 H   0  0  0  0  0  0  0  0  0  0  0  0
   42.9644   35.8826   38.8762 H   0  0  0  0  0  0  0  0  0  0  0  0
   41.3750   36.7987   37.1957 H   0  0  0  0  0  0  0  0  0  0  0  0
   38.7759   33.5043   37.6233 H   0  0  0  0  0  0  0  0  0  0  0  0
  1  2  1  0
  1  6  1  0
  3  2  1  0
  4  5  1  0
  4  3  1  0
  5  1  1  0
  6  7  2  0
  7  8  1  0
  9  8  2  0
 10  9  1  0
 11  6  1  0
 11 10  2  0
 12 14  1  0
 12  4  1  0
 13 12  1  0
 15 14  1  0
 16 15  2  0
 17 16  1  0
 18 17  2  0
 18 19  1  0
 19 20  2  0
 20 15  1  0
  1 21  1  6
  2 22  1  0
  2 23  1  0
  3 24  1  0
  3 25  1  0
  4 26  1  1
  5 27  1  0
  5 28  1  0
  7 29  1  0
  8 30  1  0
 10 31  1  0
 12 32  1  6
 13 33  1  0
 13 34  1  0
 13 35  1  0
 14 36  1  0
 14 37  1  0
 16 38  1  0
 17 39  1  0
 19 40  1  0
M  ISO  8  21  13  22  13  23  13  24  13  25  13  26  13  27  13  28  13
M  ISO  8  29  14  30  14  31  14  32   8  33   8  34   8  35   8  36   8
M  ISO  4  37   8  38  14  39  14  40  14
M  END
>  <minimizedAffinity>  (1) 
-5.17312908

>  <minimizedRMSD>  (1) 
1.0845356

$$$$
