
     RDKit          3D

 40 42  0  0  1  0  0  0  0  0999 V2000
   46.0620   34.9560   42.8570 C   0  0  2  0  0  0  0  0  0  0  0  0
   45.2390   36.1070   43.1320 C   0  0  0  0  0  0  0  0  0  0  0  0
   43.8110   35.7990   42.6250 C   0  0  0  0  0  0  0  0  0  0  0  0
   43.8390   34.4030   42.1020 C   0  0  2  0  0  0  0  0  0  0  0  0
   45.2550   34.1450   41.7810 C   0  0  0  0  0  0  0  0  0  0  0  0
   46.3480   33.9810   43.9120 C   0  0  0  0  0  0  0  0  0  0  0  0
   45.7150   34.1540   45.1670 C   0  0  0  0  0  0  0  0  0  0  0  0
   45.9380   33.2330   46.1820 C   0  0  0  0  0  0  0  0  0  0  0  0
   46.7810   32.1990   45.8730 N   0  0  0  0  0  0  0  0  0  0  0  0
   47.3750   32.0470   44.6800 C   0  0  0  0  0  0  0  0  0  0  0  0
   47.1520   32.9440   43.7040 N   0  0  0  0  0  0  0  0  0  0  0  0
   42.8480   34.1040   41.0520 C   0  0  1  0  0  0  0  0  0  0  0  0
   42.3620   32.6810   41.1580 C   0  0  0  0  0  0  0  0  0  0  0  0
   41.6450   34.9900   41.2980 C   0  0  0  0  0  0  0  0  0  0  0  0
   40.7420   34.7880   40.0910 C   0  0  0  0  0  0  0  0  0  0  0  0
   41.1120   35.0810   38.7940 C   0  0  0  0  0  0  0  0  0  0  0  0
   40.2930   34.8880   37.7240 C   0  0  0  0  0  0  0  0  0  0  0  0
   39.0740   34.3930   37.9410 N   0  0  0  0  0  0  0  0  0  0  0  0
   38.6640   34.0890   39.1900 C   0  0  0  0  0  0  0  0  0  0  0  0
   39.4930   34.2890   40.2290 N   0  0  0  0  0  0  0  0  0  0  0  0
   47.0457   35.3801   42.6071 H   0  0  0  0  0  0  0  0  0  0  0  0
   45.2179   36.3019   44.2144 H   0  0  0  0  0  0  0  0  0  0  0  0
   45.6423   36.9972   42.6271 H   0  0  0  0  0  0  0  0  0  0  0  0
   43.0888   35.8810   43.4506 H   0  0  0  0  0  0  0  0  0  0  0  0
   43.5043   36.5102   41.8439 H   0  0  0  0  0  0  0  0  0  0  0  0
   43.4898   33.6788   42.8528 H   0  0  0  0  0  0  0  0  0  0  0  0
   45.4802   33.0709   41.8555 H   0  0  0  0  0  0  0  0  0  0  0  0
   45.5106   34.4466   40.7545 H   0  0  0  0  0  0  0  0  0  0  0  0
   45.0500   35.0136   45.3369 H   0  0  0  0  0  0  0  0  0  0  0  0
   45.4673   33.3280   47.1716 H   0  0  0  0  0  0  0  0  0  0  0  0
   48.0424   31.1911   44.5009 H   0  0  0  0  0  0  0  0  0  0  0  0
   43.3113   34.2666   40.0677 H   0  0  0  0  0  0  0  0  0  0  0  0
   42.2674   32.4039   42.2183 H   0  0  0  0  0  0  0  0  0  0  0  0
   41.3821   32.5906   40.6665 H   0  0  0  0  0  0  0  0  0  0  0  0
   43.0819   32.0101   40.6665 H   0  0  0  0  0  0  0  0  0  0  0  0
   41.1274   34.6889   42.2207 H   0  0  0  0  0  0  0  0  0  0  0  0
   41.9319   36.0446   41.4227 H   0  0  0  0  0  0  0  0  0  0  0  0
   42.1174   35.4903   38.6164 H   0  0  0  0  0  0  0  0  0  0  0  0
   40.6284   35.1342   36.7057 H   0  0  0  0  0  0  0  0  0  0  0  0
   37.6568   33.6797   39.3571 H   0  0  0  0  0  0  0  0  0  0  0  0
  1  2  1  0
  1  6  1  0
  3  2  1  0
  4  3  1  0
  5  4  1  0
  5  1  1  0
  6  7  2  0
  7  8  1  0
  9  8  2  0
 10  9  1  0
 11  6  1  0
 11 10  2  0
 12 13  1  0
 12 14  1  0
 12  4  1  0
 15 20  1  0
 15 14  1  0
 16 15  2  0
 17 18  2  0
 17 16  1  0
 18 19  1  0
 19 20  2  0
  1 21  1  6
  2 22  1  0
  2 23  1  0
  3 24  1  0
  3 25  1  0
  4 26  1  1
  5 27  1  0
  5 28  1  0
  7 29  1  0
  8 30  1  0
 10 31  1  0
 12 32  1  6
 13 33  1  0
 13 34  1  0
 13 35  1  0
 14 36  1  0
 14 37  1  0
 16 38  1  0
 17 39  1  0
 19 40  1  0
M  ISO  8  21  13  22  13  23  13  24  13  25  13  26  13  27  13  28  13
M  ISO  8  29  14  30  14  31  14  32   8  33   8  34   8  35   8  36   8
M  ISO  4  37   8  38  14  39  14  40  14
M  END
>  <minimizedAffinity>  (1) 
-5.1464324

>  <minimizedRMSD>  (1) 
1.58585536

$$$$
