
     RDKit          3D

 39 41  0  0  1  0  0  0  0  0999 V2000
   46.0350   35.2890   42.8140 C   0  0  2  0  0  0  0  0  0  0  0  0
   44.8740   36.1370   42.8740 C   0  0  0  0  0  0  0  0  0  0  0  0
   43.8090   35.5590   41.9100 C   0  0  0  0  0  0  0  0  0  0  0  0
   44.4030   34.3290   41.3210 C   0  0  2  0  0  0  0  0  0  0  0  0
   45.8630   34.4990   41.4710 C   0  0  0  0  0  0  0  0  0  0  0  0
   46.2590   34.2640   43.8330 C   0  0  0  0  0  0  0  0  0  0  0  0
   45.5270   34.3550   45.0440 C   0  0  0  0  0  0  0  0  0  0  0  0
   45.6970   33.3810   46.0180 C   0  0  0  0  0  0  0  0  0  0  0  0
   46.5820   32.3850   45.7240 N   0  0  0  0  0  0  0  0  0  0  0  0
   47.2720   32.3110   44.5670 C   0  0  0  0  0  0  0  0  0  0  0  0
   47.1020   33.2610   43.6230 N   0  0  0  0  0  0  0  0  0  0  0  0
   43.9220   33.9710   39.9710 C   0  0  1  0  0  0  0  0  0  0  0  0
   44.6840   32.7740   39.4410 C   0  0  0  0  0  0  0  0  0  0  0  0
   42.4920   33.4850   40.1310 C   0  0  0  0  0  0  0  0  0  0  0  0
   41.6690   34.2170   39.1260 N   0  0  0  0  0  0  0  0  0  0  0  0
   40.4800   33.8080   38.6520 N   0  0  0  0  0  0  0  0  0  0  0  0
   40.0020   34.6700   37.7760 C   0  0  0  0  0  0  0  0  0  0  0  0
   40.9130   35.6960   37.6620 C   0  0  0  0  0  0  0  0  0  0  0  0
   41.9470   35.3850   38.5200 C   0  0  0  0  0  0  0  0  0  0  0  0
   46.8852   35.9744   42.9458 H   0  0  0  0  0  0  0  0  0  0  0  0
   44.4779   36.1556   43.9000 H   0  0  0  0  0  0  0  0  0  0  0  0
   45.1359   37.1647   42.5822 H   0  0  0  0  0  0  0  0  0  0  0  0
   42.8900   35.3117   42.4617 H   0  0  0  0  0  0  0  0  0  0  0  0
   43.5393   36.2860   41.1298 H   0  0  0  0  0  0  0  0  0  0  0  0
   44.0646   33.4296   41.8563 H   0  0  0  0  0  0  0  0  0  0  0  0
   46.3636   33.5212   41.5291 H   0  0  0  0  0  0  0  0  0  0  0  0
   46.3107   35.0277   40.6166 H   0  0  0  0  0  0  0  0  0  0  0  0
   44.8306   35.1901   45.2100 H   0  0  0  0  0  0  0  0  0  0  0  0
   45.1499   33.4103   46.9718 H   0  0  0  0  0  0  0  0  0  0  0  0
   47.9708   31.4794   44.3934 H   0  0  0  0  0  0  0  0  0  0  0  0
   44.0347   34.8375   39.3027 H   0  0  0  0  0  0  0  0  0  0  0  0
   45.0633   32.1781   40.2842 H   0  0  0  0  0  0  0  0  0  0  0  0
   44.0134   32.1550   38.8269 H   0  0  0  0  0  0  0  0  0  0  0  0
   45.5287   33.1196   38.8269 H   0  0  0  0  0  0  0  0  0  0  0  0
   42.4381   32.4018   39.9470 H   0  0  0  0  0  0  0  0  0  0  0  0
   42.1251   33.6722   41.1510 H   0  0  0  0  0  0  0  0  0  0  0  0
   39.0483   34.5848   37.2345 H   0  0  0  0  0  0  0  0  0  0  0  0
   40.8325   36.5837   37.0174 H   0  0  0  0  0  0  0  0  0  0  0  0
   42.8500   35.9920   38.6819 H   0  0  0  0  0  0  0  0  0  0  0  0
  1  2  1  0
  1  6  1  0
  3  2  1  0
  4  5  1  0
  4  3  1  0
  5  1  1  0
  6  7  2  0
  7  8  1  0
  9  8  2  0
 10  9  1  0
 11  6  1  0
 11 10  2  0
 12 14  1  0
 12  4  1  0
 13 12  1  0
 15 14  1  0
 16 15  1  0
 17 16  2  0
 18 17  1  0
 18 19  2  0
 19 15  1  0
  1 20  1  6
  2 21  1  0
  2 22  1  0
  3 23  1  0
  3 24  1  0
  4 25  1  1
  5 26  1  0
  5 27  1  0
  7 28  1  0
  8 29  1  0
 10 30  1  0
 12 31  1  6
 13 32  1  0
 13 33  1  0
 13 34  1  0
 14 35  1  0
 14 36  1  0
 17 37  1  0
 18 38  1  0
 19 39  1  0
M  ISO  8  20  13  21  13  22  13  23  13  24  13  25  13  26  13  27  13
M  ISO  8  28  14  29  14  30  14  31   8  32   8  33   8  34   8  35   8
M  ISO  4  36   8  37  14  38  14  39  14
M  END
>  <minimizedAffinity>  (1) 
-5.04932213

>  <minimizedRMSD>  (1) 
1.02156436

$$$$
