
     RDKit          3D

 39 41  0  0  1  0  0  0  0  0999 V2000
   46.1070   35.2660   42.8420 C   0  0  2  0  0  0  0  0  0  0  0  0
   44.9610   36.1330   42.9490 C   0  0  0  0  0  0  0  0  0  0  0  0
   43.8630   35.6030   41.9980 C   0  0  0  0  0  0  0  0  0  0  0  0
   44.4170   34.3780   41.3640 C   0  0  2  0  0  0  0  0  0  0  0  0
   45.8830   34.4990   41.4870 C   0  0  0  0  0  0  0  0  0  0  0  0
   46.3320   34.2020   43.8230 C   0  0  0  0  0  0  0  0  0  0  0  0
   45.6120   34.2700   45.0430 C   0  0  0  0  0  0  0  0  0  0  0  0
   45.7680   33.2720   45.9970 C   0  0  0  0  0  0  0  0  0  0  0  0
   46.6370   32.2660   45.6640 N   0  0  0  0  0  0  0  0  0  0  0  0
   47.3100   32.2130   44.5060 C   0  0  0  0  0  0  0  0  0  0  0  0
   47.1520   33.1850   43.5890 N   0  0  0  0  0  0  0  0  0  0  0  0
   43.9000   34.0700   40.0140 C   0  0  1  0  0  0  0  0  0  0  0  0
   44.6290   32.8830   39.4310 C   0  0  0  0  0  0  0  0  0  0  0  0
   42.4520   33.6480   40.1830 C   0  0  0  0  0  0  0  0  0  0  0  0
   41.6370   34.3020   39.1340 N   0  0  0  0  0  0  0  0  0  0  0  0
   40.4410   33.7930   38.7190 C   0  0  0  0  0  0  0  0  0  0  0  0
   39.9530   34.6390   37.7440 C   0  0  0  0  0  0  0  0  0  0  0  0
   40.8410   35.6220   37.5890 N   0  0  0  0  0  0  0  0  0  0  0  0
   41.8650   35.4260   38.4280 C   0  0  0  0  0  0  0  0  0  0  0  0
   46.9679   35.9384   42.9708 H   0  0  0  0  0  0  0  0  0  0  0  0
   44.5890   36.1322   43.9842 H   0  0  0  0  0  0  0  0  0  0  0  0
   45.2365   37.1621   42.6748 H   0  0  0  0  0  0  0  0  0  0  0  0
   42.9524   35.3599   42.5653 H   0  0  0  0  0  0  0  0  0  0  0  0
   43.5898   36.3554   41.2435 H   0  0  0  0  0  0  0  0  0  0  0  0
   44.0668   33.4753   41.8861 H   0  0  0  0  0  0  0  0  0  0  0  0
   46.3529   33.5050   41.5214 H   0  0  0  0  0  0  0  0  0  0  0  0
   46.3308   35.0255   40.6313 H   0  0  0  0  0  0  0  0  0  0  0  0
   44.9306   35.1122   45.2338 H   0  0  0  0  0  0  0  0  0  0  0  0
   45.2296   33.2883   46.9561 H   0  0  0  0  0  0  0  0  0  0  0  0
   47.9923   31.3739   44.3051 H   0  0  0  0  0  0  0  0  0  0  0  0
   44.0244   34.9459   39.3603 H   0  0  0  0  0  0  0  0  0  0  0  0
   45.0156   32.2536   40.2461 H   0  0  0  0  0  0  0  0  0  0  0  0
   43.9359   32.2953   38.8111 H   0  0  0  0  0  0  0  0  0  0  0  0
   45.4666   33.2354   38.8111 H   0  0  0  0  0  0  0  0  0  0  0  0
   42.3719   32.5553   40.0853 H   0  0  0  0  0  0  0  0  0  0  0  0
   42.0899   33.9475   41.1776 H   0  0  0  0  0  0  0  0  0  0  0  0
   39.9562   32.8788   39.0920 H   0  0  0  0  0  0  0  0  0  0  0  0
   39.0063   34.5238   37.1958 H   0  0  0  0  0  0  0  0  0  0  0  0
   42.7473   36.0757   38.5250 H   0  0  0  0  0  0  0  0  0  0  0  0
  1  2  1  0
  1  6  1  0
  3  2  1  0
  4  5  1  0
  4  3  1  0
  5  1  1  0
  6  7  2  0
  7  8  1  0
  9  8  2  0
 10  9  1  0
 11  6  1  0
 11 10  2  0
 12 14  1  0
 12  4  1  0
 13 12  1  0
 15 14  1  0
 16 15  1  0
 17 16  2  0
 18 17  1  0
 18 19  2  0
 19 15  1  0
  1 20  1  6
  2 21  1  0
  2 22  1  0
  3 23  1  0
  3 24  1  0
  4 25  1  1
  5 26  1  0
  5 27  1  0
  7 28  1  0
  8 29  1  0
 10 30  1  0
 12 31  1  6
 13 32  1  0
 13 33  1  0
 13 34  1  0
 14 35  1  0
 14 36  1  0
 16 37  1  0
 17 38  1  0
 19 39  1  0
M  ISO  8  20  13  21  13  22  13  23  13  24  13  25  13  26  13  27  13
M  ISO  8  28  14  29  14  30  14  31   8  32   8  33   8  34   8  35   8
M  ISO  4  36   8  37  14  38  14  39  14
M  END
>  <minimizedAffinity>  (1) 
-4.94316959

>  <minimizedRMSD>  (1) 
0.99725163

$$$$
