
     RDKit          3D

 39 41  0  0  1  0  0  0  0  0999 V2000
   46.1080   35.2620   42.8460 C   0  0  2  0  0  0  0  0  0  0  0  0
   44.9750   36.1390   42.9540 C   0  0  0  0  0  0  0  0  0  0  0  0
   43.8670   35.6210   42.0070 C   0  0  0  0  0  0  0  0  0  0  0  0
   44.4040   34.3820   41.3760 C   0  0  2  0  0  0  0  0  0  0  0  0
   45.8700   34.4980   41.4920 C   0  0  0  0  0  0  0  0  0  0  0  0
   46.3280   34.1990   43.8310 C   0  0  0  0  0  0  0  0  0  0  0  0
   45.6090   34.2690   45.0510 C   0  0  0  0  0  0  0  0  0  0  0  0
   45.7720   33.2660   45.9970 C   0  0  0  0  0  0  0  0  0  0  0  0
   46.6380   32.2650   45.6660 N   0  0  0  0  0  0  0  0  0  0  0  0
   47.3160   32.2130   44.5020 C   0  0  0  0  0  0  0  0  0  0  0  0
   47.1530   33.1910   43.5840 N   0  0  0  0  0  0  0  0  0  0  0  0
   43.8810   34.0800   40.0290 C   0  0  1  0  0  0  0  0  0  0  0  0
   44.6020   32.8850   39.4410 C   0  0  0  0  0  0  0  0  0  0  0  0
   42.4360   33.6420   40.2020 C   0  0  0  0  0  0  0  0  0  0  0  0
   41.7120   34.3640   39.0780 C   0  0  0  0  0  0  0  0  0  0  0  0
   40.4530   34.0620   38.6310 C   0  0  0  0  0  0  0  0  0  0  0  0
   40.0990   34.9090   37.6040 C   0  0  0  0  0  0  0  0  0  0  0  0
   41.1730   35.7090   37.4590 N   0  0  0  0  0  0  0  0  0  0  0  0
   42.1350   35.4090   38.3140 N   0  0  0  0  0  0  0  0  0  0  0  0
   46.9779   35.9235   42.9713 H   0  0  0  0  0  0  0  0  0  0  0  0
   44.6061   36.1440   43.9903 H   0  0  0  0  0  0  0  0  0  0  0  0
   45.2617   37.1641   42.6765 H   0  0  0  0  0  0  0  0  0  0  0  0
   42.9540   35.3936   42.5769 H   0  0  0  0  0  0  0  0  0  0  0  0
   43.6029   36.3740   41.2499 H   0  0  0  0  0  0  0  0  0  0  0  0
   44.0479   33.4825   41.8995 H   0  0  0  0  0  0  0  0  0  0  0  0
   46.3361   33.5021   41.5222 H   0  0  0  0  0  0  0  0  0  0  0  0
   46.3134   35.0256   40.6346 H   0  0  0  0  0  0  0  0  0  0  0  0
   44.9281   35.1105   45.2463 H   0  0  0  0  0  0  0  0  0  0  0  0
   45.2347   33.2777   46.9568 H   0  0  0  0  0  0  0  0  0  0  0  0
   48.0006   31.3760   44.2999 H   0  0  0  0  0  0  0  0  0  0  0  0
   44.0028   34.9625   39.3837 H   0  0  0  0  0  0  0  0  0  0  0  0
   44.9846   32.2509   40.2544 H   0  0  0  0  0  0  0  0  0  0  0  0
   43.9035   32.3041   38.8208 H   0  0  0  0  0  0  0  0  0  0  0  0
   45.4416   33.2320   38.8208 H   0  0  0  0  0  0  0  0  0  0  0  0
   42.3399   32.5514   40.0954 H   0  0  0  0  0  0  0  0  0  0  0  0
   42.0311   33.8807   41.1965 H   0  0  0  0  0  0  0  0  0  0  0  0
   39.8171   33.2598   39.0336 H   0  0  0  0  0  0  0  0  0  0  0  0
   39.1580   34.9277   37.0346 H   0  0  0  0  0  0  0  0  0  0  0  0
   41.2370   36.4658   36.7633 H   0  0  0  0  0  0  0  0  0  0  0  0
  1  2  1  0
  1  6  1  0
  3  2  1  0
  4  5  1  0
  4  3  1  0
  5  1  1  0
  6  7  2  0
  7  8  1  0
  9  8  2  0
 10  9  1  0
 11  6  1  0
 11 10  2  0
 12 14  1  0
 12  4  1  0
 13 12  1  0
 15 14  1  0
 16 15  1  0
 17 16  2  0
 18 17  1  0
 18 19  1  0
 19 15  2  0
  1 20  1  6
  2 21  1  0
  2 22  1  0
  3 23  1  0
  3 24  1  0
  4 25  1  1
  5 26  1  0
  5 27  1  0
  7 28  1  0
  8 29  1  0
 10 30  1  0
 12 31  1  6
 13 32  1  0
 13 33  1  0
 13 34  1  0
 14 35  1  0
 14 36  1  0
 16 37  1  0
 17 38  1  0
 18 39  1  0
M  ISO  8  20  13  21  13  22  13  23  13  24  13  25  13  26  13  27  13
M  ISO  8  28  14  29  14  30  14  31   8  32   8  33   8  34   8  35   8
M  ISO  4  36   8  37  14  38  14  39   9
M  END
>  <minimizedAffinity>  (1) 
-5.14539433

>  <minimizedRMSD>  (1) 
1.11300981

$$$$
