
     RDKit          3D

 39 41  0  0  1  0  0  0  0  0999 V2000
   46.1060   35.2710   42.8800 C   0  0  2  0  0  0  0  0  0  0  0  0
   44.9480   36.1220   42.9720 C   0  0  0  0  0  0  0  0  0  0  0  0
   43.8820   35.5880   41.9850 C   0  0  0  0  0  0  0  0  0  0  0  0
   44.4620   34.3700   41.3580 C   0  0  2  0  0  0  0  0  0  0  0  0
   45.9260   34.5200   41.5110 C   0  0  0  0  0  0  0  0  0  0  0  0
   46.3290   34.2030   43.8520 C   0  0  0  0  0  0  0  0  0  0  0  0
   45.6120   34.2620   45.0750 C   0  0  0  0  0  0  0  0  0  0  0  0
   45.7730   33.2570   46.0210 C   0  0  0  0  0  0  0  0  0  0  0  0
   46.6450   32.2560   45.6780 N   0  0  0  0  0  0  0  0  0  0  0  0
   47.3170   32.2130   44.5170 C   0  0  0  0  0  0  0  0  0  0  0  0
   47.1530   33.1940   43.6080 N   0  0  0  0  0  0  0  0  0  0  0  0
   43.9700   34.0570   39.9990 C   0  0  1  0  0  0  0  0  0  0  0  0
   44.6700   32.8320   39.4540 C   0  0  0  0  0  0  0  0  0  0  0  0
   42.5050   33.6910   40.1320 C   0  0  0  0  0  0  0  0  0  0  0  0
   41.7060   34.4230   39.0710 C   0  0  0  0  0  0  0  0  0  0  0  0
   41.8830   35.5640   38.3480 C   0  0  0  0  0  0  0  0  0  0  0  0
   40.7940   35.7200   37.5200 C   0  0  0  0  0  0  0  0  0  0  0  0
   39.9930   34.6450   37.7840 C   0  0  0  0  0  0  0  0  0  0  0  0
   40.5440   33.8850   38.7040 O   0  0  0  0  0  0  0  0  0  0  0  0
   46.9535   35.9544   43.0370 H   0  0  0  0  0  0  0  0  0  0  0  0
   44.5505   36.1019   43.9975 H   0  0  0  0  0  0  0  0  0  0  0  0
   45.2152   37.1592   42.7213 H   0  0  0  0  0  0  0  0  0  0  0  0
   42.9574   35.3346   42.5243 H   0  0  0  0  0  0  0  0  0  0  0  0
   43.6267   36.3433   41.2272 H   0  0  0  0  0  0  0  0  0  0  0  0
   44.1180   33.4569   41.8659 H   0  0  0  0  0  0  0  0  0  0  0  0
   46.4163   33.5358   41.5405 H   0  0  0  0  0  0  0  0  0  0  0  0
   46.3795   35.0677   40.6717 H   0  0  0  0  0  0  0  0  0  0  0  0
   44.9299   35.1018   45.2739 H   0  0  0  0  0  0  0  0  0  0  0  0
   45.2365   33.2640   46.9813 H   0  0  0  0  0  0  0  0  0  0  0  0
   48.0012   31.3775   44.3077 H   0  0  0  0  0  0  0  0  0  0  0  0
   44.1452   34.9175   39.3366 H   0  0  0  0  0  0  0  0  0  0  0  0
   45.0251   32.2106   40.2893 H   0  0  0  0  0  0  0  0  0  0  0  0
   43.9672   32.2517   38.8382 H   0  0  0  0  0  0  0  0  0  0  0  0
   45.5268   33.1429   38.8382 H   0  0  0  0  0  0  0  0  0  0  0  0
   42.3841   32.6058   39.9993 H   0  0  0  0  0  0  0  0  0  0  0  0
   42.1427   33.9794   41.1298 H   0  0  0  0  0  0  0  0  0  0  0  0
   42.7461   36.2428   38.4142 H   0  0  0  0  0  0  0  0  0  0  0  0
   40.6091   36.5329   36.8024 H   0  0  0  0  0  0  0  0  0  0  0  0
   39.0271   34.4447   37.2972 H   0  0  0  0  0  0  0  0  0  0  0  0
  1  2  1  0
  1  6  1  0
  3  2  1  0
  4  5  1  0
  4  3  1  0
  5  1  1  0
  6  7  2  0
  7  8  1  0
  9  8  2  0
 10  9  1  0
 11  6  1  0
 11 10  2  0
 12 14  1  0
 12  4  1  0
 13 12  1  0
 15 14  1  0
 16 15  2  0
 17 18  2  0
 17 16  1  0
 18 19  1  0
 19 15  1  0
  1 20  1  6
  2 21  1  0
  2 22  1  0
  3 23  1  0
  3 24  1  0
  4 25  1  1
  5 26  1  0
  5 27  1  0
  7 28  1  0
  8 29  1  0
 10 30  1  0
 12 31  1  6
 13 32  1  0
 13 33  1  0
 13 34  1  0
 14 35  1  0
 14 36  1  0
 16 37  1  0
 17 38  1  0
 18 39  1  0
M  ISO  8  20  13  21  13  22  13  23  13  24  13  25  13  26  13  27  13
M  ISO  8  28  14  29  14  30  14  31   8  32   8  33   8  34   8  35   8
M  ISO  4  36   8  37  14  38  14  39  14
M  END
>  <minimizedAffinity>  (1) 
-5.14566231

>  <minimizedRMSD>  (1) 
0.92403686

$$$$
