
     RDKit          3D

 39 42  0  0  0  0  0  0  0  0999 V2000
   47.3770   34.8570   42.1840 C   0  0  0  0  0  0  0  0  0  0  0  0
   47.1300   34.3420   40.8060 C   0  0  0  0  0  0  0  0  0  0  0  0
   48.1300   34.2510   39.8600 C   0  0  0  0  0  0  0  0  0  0  0  0
   47.9940   33.7880   38.5770 C   0  0  0  0  0  0  0  0  0  0  0  0
   46.7220   33.3870   38.2480 N   0  0  0  0  0  0  0  0  0  0  0  0
   45.7340   33.4690   39.1590 C   0  0  0  0  0  0  0  0  0  0  0  0
   45.8870   33.9310   40.4230 N   0  0  0  0  0  0  0  0  0  0  0  0
   44.4070   33.0240   38.7350 C   0  0  0  0  0  0  0  0  0  0  0  0
   43.2720   33.7460   39.0860 C   0  0  0  0  0  0  0  0  0  0  0  0
   42.0320   33.3230   38.6870 C   0  0  0  0  0  0  0  0  0  0  0  0
   41.8910   32.2180   37.9590 N   0  0  0  0  0  0  0  0  0  0  0  0
   43.0010   31.5320   37.6270 C   0  0  0  0  0  0  0  0  0  0  0  0
   44.2560   31.9170   38.0040 N   0  0  0  0  0  0  0  0  0  0  0  0
   47.2670   33.7100   43.1340 C   0  0  0  0  0  0  0  0  0  0  0  0
   44.6260   35.1710   45.3930 C   0  0  0  0  0  0  0  0  0  0  0  0
   45.4560   34.9340   44.2870 C   0  0  0  0  0  0  0  0  0  0  0  0
   46.4020   33.9450   44.2950 C   0  0  0  0  0  0  0  0  0  0  0  0
   46.5130   33.1950   45.4100 N   0  0  0  0  0  0  0  0  0  0  0  0
   45.6950   33.4360   46.4870 C   0  0  0  0  0  0  0  0  0  0  0  0
   44.7860   34.3900   46.4740 N   0  0  0  0  0  0  0  0  0  0  0  0
   45.9170   32.5510   47.6370 C   0  0  0  0  0  0  0  0  0  0  0  0
   44.9430   31.8240   48.2540 C   0  0  0  0  0  0  0  0  0  0  0  0
   45.5560   31.1350   49.2740 C   0  0  0  0  0  0  0  0  0  0  0  0
   46.8660   31.4340   49.2800 N   0  0  0  0  0  0  0  0  0  0  0  0
   47.0750   32.2940   48.2830 N   0  0  0  0  0  0  0  0  0  0  0  0
   46.6285   35.6228   42.4357 H   0  0  0  0  0  0  0  0  0  0  0  0
   48.3771   35.3106   42.2480 H   0  0  0  0  0  0  0  0  0  0  0  0
   49.1337   34.5821   40.1648 H   0  0  0  0  0  0  0  0  0  0  0  0
   48.8345   33.7414   37.8689 H   0  0  0  0  0  0  0  0  0  0  0  0
   43.3704   34.6618   39.6873 H   0  0  0  0  0  0  0  0  0  0  0  0
   41.1421   33.9035   38.9717 H   0  0  0  0  0  0  0  0  0  0  0  0
   42.8919   30.6186   37.0238 H   0  0  0  0  0  0  0  0  0  0  0  0
   46.8684   32.8466   42.5812 H   0  0  0  0  0  0  0  0  0  0  0  0
   48.2784   33.5450   43.5337 H   0  0  0  0  0  0  0  0  0  0  0  0
   43.8697   35.9695   45.3755 H   0  0  0  0  0  0  0  0  0  0  0  0
   45.3434   35.5598   43.3894 H   0  0  0  0  0  0  0  0  0  0  0  0
   43.8760   31.7943   47.9882 H   0  0  0  0  0  0  0  0  0  0  0  0
   45.0545   30.4492   49.9728 H   0  0  0  0  0  0  0  0  0  0  0  0
   47.5747   31.0680   49.9317 H   0  0  0  0  0  0  0  0  0  0  0  0
  1 14  1  0
  2  1  1  0
  3  2  2  0
  4  3  1  0
  5  4  2  0
  5  6  1  0
  6  7  2  0
  7  2  1  0
  8  9  2  0
  8  6  1  0
 10  9  1  0
 11 10  2  0
 12 11  1  0
 12 13  2  0
 13  8  1  0
 14 17  1  0
 15 20  2  0
 16 17  2  0
 16 15  1  0
 17 18  1  0
 18 19  2  0
 19 21  1  0
 20 19  1  0
 21 22  1  0
 21 25  2  0
 22 23  2  0
 23 24  1  0
 25 24  1  0
  1 26  1  0
  1 27  1  0
  3 28  1  0
  4 29  1  0
  9 30  1  0
 10 31  1  0
 12 32  1  0
 14 33  1  0
 14 34  1  0
 15 35  1  0
 16 36  1  0
 22 37  1  0
 23 38  1  0
 24 39  1  0
M  ISO  8  26   8  27   8  28  14  29  14  30  14  31  14  32  14  33   8
M  ISO  6  34   8  35  14  36  14  37  14  38  14  39   9
M  END
>  <minimizedAffinity>  (1) 
-5.92625093

>  <minimizedRMSD>  (1) 
1.09769094

$$$$
