
     RDKit          3D

 39 41  0  0  1  0  0  0  0  0999 V2000
   46.1360   35.1440   42.7740 C   0  0  2  0  0  0  0  0  0  0  0  0
   45.1800   36.1700   43.1140 C   0  0  0  0  0  0  0  0  0  0  0  0
   43.8310   35.8100   42.4430 C   0  0  0  0  0  0  0  0  0  0  0  0
   44.0470   34.5160   41.7380 C   0  0  2  0  0  0  0  0  0  0  0  0
   45.5040   34.4260   41.5300 C   0  0  0  0  0  0  0  0  0  0  0  0
   46.4220   34.0580   43.7170 C   0  0  0  0  0  0  0  0  0  0  0  0
   45.8200   34.1180   45.0010 C   0  0  0  0  0  0  0  0  0  0  0  0
   46.0430   33.0910   45.9070 C   0  0  0  0  0  0  0  0  0  0  0  0
   46.8480   32.0770   45.4790 N   0  0  0  0  0  0  0  0  0  0  0  0
   47.4110   32.0320   44.2660 C   0  0  0  0  0  0  0  0  0  0  0  0
   47.1940   33.0310   43.3840 N   0  0  0  0  0  0  0  0  0  0  0  0
   43.2050   34.3010   40.5430 C   0  0  1  0  0  0  0  0  0  0  0  0
   42.6050   32.9090   40.5820 C   0  0  0  0  0  0  0  0  0  0  0  0
   42.0470   35.2690   40.6340 C   0  0  0  0  0  0  0  0  0  0  0  0
   41.1460   35.0130   39.4400 C   0  0  0  0  0  0  0  0  0  0  0  0
   39.7860   34.8370   39.7220 C   0  0  0  0  0  0  0  0  0  0  0  0
   39.1150   34.6090   38.5570 N   0  0  0  0  0  0  0  0  0  0  0  0
   40.0560   34.6480   37.5940 C   0  0  0  0  0  0  0  0  0  0  0  0
   41.2680   34.8880   38.1190 N   0  0  0  0  0  0  0  0  0  0  0  0
   47.0923   35.6793   42.6796 H   0  0  0  0  0  0  0  0  0  0  0  0
   45.0534   36.2150   44.2058 H   0  0  0  0  0  0  0  0  0  0  0  0
   45.5316   37.1511   42.7621 H   0  0  0  0  0  0  0  0  0  0  0  0
   43.0439   35.7025   43.2038 H   0  0  0  0  0  0  0  0  0  0  0  0
   43.5092   36.5968   41.7449 H   0  0  0  0  0  0  0  0  0  0  0  0
   43.6977   33.6693   42.3471 H   0  0  0  0  0  0  0  0  0  0  0  0
   45.8242   33.3746   41.4863 H   0  0  0  0  0  0  0  0  0  0  0  0
   45.8159   34.8895   40.5824 H   0  0  0  0  0  0  0  0  0  0  0  0
   45.1823   34.9712   45.2754 H   0  0  0  0  0  0  0  0  0  0  0  0
   45.5963   33.0946   46.9122 H   0  0  0  0  0  0  0  0  0  0  0  0
   48.0504   31.1814   43.9875 H   0  0  0  0  0  0  0  0  0  0  0  0
   43.8072   34.4357   39.6324 H   0  0  0  0  0  0  0  0  0  0  0  0
   42.4705   32.5969   41.6282 H   0  0  0  0  0  0  0  0  0  0  0  0
   41.6298   32.9157   40.0731 H   0  0  0  0  0  0  0  0  0  0  0  0
   43.2794   32.2046   40.0731 H   0  0  0  0  0  0  0  0  0  0  0  0
   41.4901   35.1021   41.5678 H   0  0  0  0  0  0  0  0  0  0  0  0
   42.4084   36.3079   40.6319 H   0  0  0  0  0  0  0  0  0  0  0  0
   39.3316   34.8763   40.7230 H   0  0  0  0  0  0  0  0  0  0  0  0
   39.8580   34.5027   36.5218 H   0  0  0  0  0  0  0  0  0  0  0  0
   42.1474   34.9631   37.5881 H   0  0  0  0  0  0  0  0  0  0  0  0
  1  2  1  0
  1  6  1  0
  3  2  1  0
  4  3  1  0
  5  4  1  0
  5  1  1  0
  6  7  2  0
  7  8  1  0
  9  8  2  0
 10  9  1  0
 11  6  1  0
 11 10  2  0
 12 13  1  0
 12 14  1  0
 12  4  1  0
 15 16  2  0
 15 14  1  0
 17 16  1  0
 18 19  1  0
 18 17  2  0
 19 15  1  0
  1 20  1  6
  2 21  1  0
  2 22  1  0
  3 23  1  0
  3 24  1  0
  4 25  1  1
  5 26  1  0
  5 27  1  0
  7 28  1  0
  8 29  1  0
 10 30  1  0
 12 31  1  6
 13 32  1  0
 13 33  1  0
 13 34  1  0
 14 35  1  0
 14 36  1  0
 16 37  1  0
 18 38  1  0
 19 39  1  0
M  ISO  8  20  13  21  13  22  13  23  13  24  13  25  13  26  13  27  13
M  ISO  8  28  14  29  14  30  14  31   8  32   8  33   8  34   8  35   8
M  ISO  4  36   8  37  14  38  14  39   9
M  END
>  <minimizedAffinity>  (1) 
-4.96401024

>  <minimizedRMSD>  (1) 
1.11865079

$$$$
