
     RDKit          3D

 38 40  0  0  1  0  0  0  0  0999 V2000
   46.1710   35.1170   42.8860 C   0  0  2  0  0  0  0  0  0  0  0  0
   45.1940   36.1500   43.1040 C   0  0  0  0  0  0  0  0  0  0  0  0
   43.9180   35.7660   42.3260 C   0  0  0  0  0  0  0  0  0  0  0  0
   44.1780   34.4320   41.7180 C   0  0  2  0  0  0  0  0  0  0  0  0
   45.6460   34.3430   41.6230 C   0  0  0  0  0  0  0  0  0  0  0  0
   46.3890   34.0780   43.8970 C   0  0  0  0  0  0  0  0  0  0  0  0
   45.7040   34.1970   45.1340 C   0  0  0  0  0  0  0  0  0  0  0  0
   45.8720   33.2080   46.0900 C   0  0  0  0  0  0  0  0  0  0  0  0
   46.6990   32.1750   45.7640 N   0  0  0  0  0  0  0  0  0  0  0  0
   47.3450   32.0800   44.5790 C   0  0  0  0  0  0  0  0  0  0  0  0
   47.1780   33.0410   43.6570 N   0  0  0  0  0  0  0  0  0  0  0  0
   43.4090   34.1320   40.4930 C   0  0  1  0  0  0  0  0  0  0  0  0
   43.7960   32.7800   39.9360 C   0  0  0  0  0  0  0  0  0  0  0  0
   41.9550   34.0070   40.8980 C   0  0  0  0  0  0  0  0  0  0  0  0
   41.1350   34.3000   39.6530 C   0  0  0  0  0  0  0  0  0  0  0  0
   39.9070   33.5050   39.3810 C   0  0  0  0  0  0  0  0  0  0  0  0
   39.3520   34.3080   37.7760 S   0  0  0  0  0  0  0  0  0  0  0  0
   40.8080   35.4970   37.7880 C   0  0  0  0  0  0  0  0  0  0  0  0
   41.4480   35.2520   38.7690 N   0  0  0  0  0  0  0  0  0  0  0  0
   47.1306   35.6532   42.8443 H   0  0  0  0  0  0  0  0  0  0  0  0
   44.9676   36.2301   44.1775 H   0  0  0  0  0  0  0  0  0  0  0  0
   45.5778   37.1206   42.7565 H   0  0  0  0  0  0  0  0  0  0  0  0
   43.0583   35.7107   43.0100 H   0  0  0  0  0  0  0  0  0  0  0  0
   43.6818   36.5147   41.5555 H   0  0  0  0  0  0  0  0  0  0  0  0
   43.7896   33.6156   42.3446 H   0  0  0  0  0  0  0  0  0  0  0  0
   45.9740   33.2933   41.6464 H   0  0  0  0  0  0  0  0  0  0  0  0
   46.0303   34.7670   40.6836 H   0  0  0  0  0  0  0  0  0  0  0  0
   45.0506   35.0598   45.3307 H   0  0  0  0  0  0  0  0  0  0  0  0
   45.3629   33.2544   47.0640 H   0  0  0  0  0  0  0  0  0  0  0  0
   48.0018   31.2220   44.3729 H   0  0  0  0  0  0  0  0  0  0  0  0
   43.5963   34.9210   39.7497 H   0  0  0  0  0  0  0  0  0  0  0  0
   43.9949   32.0851   40.7652 H   0  0  0  0  0  0  0  0  0  0  0  0
   42.9738   32.3887   39.3189 H   0  0  0  0  0  0  0  0  0  0  0  0
   44.7007   32.8830   39.3189 H   0  0  0  0  0  0  0  0  0  0  0  0
   41.7471   32.9891   41.2594 H   0  0  0  0  0  0  0  0  0  0  0  0
   41.7068   34.7044   41.7116 H   0  0  0  0  0  0  0  0  0  0  0  0
   39.4542   32.6831   39.9549 H   0  0  0  0  0  0  0  0  0  0  0  0
   41.0293   36.2698   37.0372 H   0  0  0  0  0  0  0  0  0  0  0  0
  1  2  1  0
  1  6  1  0
  3  2  1  0
  4  3  1  0
  5  4  1  0
  5  1  1  0
  6  7  2  0
  7  8  1  0
  9  8  2  0
 10  9  1  0
 11  6  1  0
 11 10  2  0
 12 14  1  0
 12  4  1  0
 13 12  1  0
 15 14  1  0
 16 15  2  0
 17 18  1  0
 17 16  1  0
 18 19  2  0
 19 15  1  0
  1 20  1  6
  2 21  1  0
  2 22  1  0
  3 23  1  0
  3 24  1  0
  4 25  1  1
  5 26  1  0
  5 27  1  0
  7 28  1  0
  8 29  1  0
 10 30  1  0
 12 31  1  6
 13 32  1  0
 13 33  1  0
 13 34  1  0
 14 35  1  0
 14 36  1  0
 16 37  1  0
 18 38  1  0
M  ISO  8  20  13  21  13  22  13  23  13  24  13  25  13  26  13  27  13
M  ISO  8  28  14  29  14  30  14  31   8  32   8  33   8  34   8  35   8
M  ISO  3  36   8  37  14  38  14
M  END
>  <minimizedAffinity>  (1) 
-4.80839491

>  <minimizedRMSD>  (1) 
1.04128206

$$$$
