
     RDKit          3D

 39 42  0  0  0  0  0  0  0  0999 V2000
   47.3510   34.8220   41.8930 C   0  0  0  0  0  0  0  0  0  0  0  0
   47.1030   34.2890   40.5240 C   0  0  0  0  0  0  0  0  0  0  0  0
   48.0860   34.2180   39.5610 C   0  0  0  0  0  0  0  0  0  0  0  0
   47.9440   33.7390   38.2860 C   0  0  0  0  0  0  0  0  0  0  0  0
   46.6830   33.2960   37.9800 N   0  0  0  0  0  0  0  0  0  0  0  0
   45.7060   33.3570   38.9070 C   0  0  0  0  0  0  0  0  0  0  0  0
   45.8630   33.8330   40.1640 N   0  0  0  0  0  0  0  0  0  0  0  0
   44.3880   32.8660   38.5090 C   0  0  0  0  0  0  0  0  0  0  0  0
   43.2300   33.5120   38.9430 C   0  0  0  0  0  0  0  0  0  0  0  0
   41.9960   33.0490   38.5680 C   0  0  0  0  0  0  0  0  0  0  0  0
   41.8770   31.9810   37.7880 N   0  0  0  0  0  0  0  0  0  0  0  0
   43.0150   31.3610   37.3720 C   0  0  0  0  0  0  0  0  0  0  0  0
   44.2650   31.7880   37.7210 N   0  0  0  0  0  0  0  0  0  0  0  0
   47.1490   33.7160   42.8730 C   0  0  0  0  0  0  0  0  0  0  0  0
   44.6120   35.4340   45.0740 C   0  0  0  0  0  0  0  0  0  0  0  0
   45.4350   35.1070   43.9860 C   0  0  0  0  0  0  0  0  0  0  0  0
   46.2930   34.0410   44.0170 C   0  0  0  0  0  0  0  0  0  0  0  0
   46.3230   33.3020   45.1450 N   0  0  0  0  0  0  0  0  0  0  0  0
   45.5080   33.6370   46.2060 C   0  0  0  0  0  0  0  0  0  0  0  0
   44.6860   34.6650   46.1650 N   0  0  0  0  0  0  0  0  0  0  0  0
   45.6850   32.7200   47.3320 C   0  0  0  0  0  0  0  0  0  0  0  0
   44.8910   32.1420   48.2420 C   0  0  0  0  0  0  0  0  0  0  0  0
   45.3780   31.3070   49.1950 C   0  0  0  0  0  0  0  0  0  0  0  0
   46.8240   31.1190   49.1130 C   0  0  0  0  0  0  0  0  0  0  0  0
   47.3160   32.1960   47.6350 S   0  0  0  0  0  0  0  0  0  0  0  0
   46.6474   35.6402   42.1061 H   0  0  0  0  0  0  0  0  0  0  0  0
   48.3778   35.2096   41.9672 H   0  0  0  0  0  0  0  0  0  0  0  0
   49.0843   34.5824   39.8447 H   0  0  0  0  0  0  0  0  0  0  0  0
   48.7746   33.7118   37.5654 H   0  0  0  0  0  0  0  0  0  0  0  0
   43.3081   34.3982   39.5900 H   0  0  0  0  0  0  0  0  0  0  0  0
   41.0920   33.5690   38.9178 H   0  0  0  0  0  0  0  0  0  0  0  0
   42.9242   30.4758   36.7253 H   0  0  0  0  0  0  0  0  0  0  0  0
   46.6953   32.8678   42.3393 H   0  0  0  0  0  0  0  0  0  0  0  0
   48.1424   33.4942   43.2900 H   0  0  0  0  0  0  0  0  0  0  0  0
   43.9284   36.2947   45.0308 H   0  0  0  0  0  0  0  0  0  0  0  0
   45.3893   35.7273   43.0787 H   0  0  0  0  0  0  0  0  0  0  0  0
   43.8112   32.3501   48.2166 H   0  0  0  0  0  0  0  0  0  0  0  0
   44.7467   30.8206   49.9532 H   0  0  0  0  0  0  0  0  0  0  0  0
   47.4704   30.5017   49.7541 H   0  0  0  0  0  0  0  0  0  0  0  0
  1 14  1  0
  2  1  1  0
  3  2  2  0
  4  3  1  0
  5  4  2  0
  5  6  1  0
  6  7  2  0
  7  2  1  0
  8  6  1  0
  8  9  2  0
 10  9  1  0
 11 10  2  0
 12 13  2  0
 12 11  1  0
 13  8  1  0
 14 17  1  0
 15 20  2  0
 16 17  2  0
 16 15  1  0
 17 18  1  0
 18 19  2  0
 19 21  1  0
 20 19  1  0
 21 25  1  0
 21 22  2  0
 22 23  1  0
 24 23  2  0
 25 24  1  0
  1 26  1  0
  1 27  1  0
  3 28  1  0
  4 29  1  0
  9 30  1  0
 10 31  1  0
 12 32  1  0
 14 33  1  0
 14 34  1  0
 15 35  1  0
 16 36  1  0
 22 37  1  0
 23 38  1  0
 24 39  1  0
M  ISO  8  26   8  27   8  28  14  29  14  30  14  31  14  32  14  33   8
M  ISO  6  34   8  35  14  36  14  37  14  38  14  39  14
M  END
>  <minimizedAffinity>  (1) 
-5.92520428

>  <minimizedRMSD>  (1) 
0.782331347

$$$$
