
     RDKit          3D

 39 42  0  0  0  0  0  0  0  0999 V2000
   47.7020   34.7550   41.5220 C   0  0  0  0  0  0  0  0  0  0  0  0
   47.3190   34.2490   40.1720 C   0  0  0  0  0  0  0  0  0  0  0  0
   48.2080   34.2000   39.1190 C   0  0  0  0  0  0  0  0  0  0  0  0
   47.9460   33.7490   37.8540 C   0  0  0  0  0  0  0  0  0  0  0  0
   46.6620   33.3110   37.6570 N   0  0  0  0  0  0  0  0  0  0  0  0
   45.7780   33.3510   38.6760 C   0  0  0  0  0  0  0  0  0  0  0  0
   46.0440   33.7980   39.9230 N   0  0  0  0  0  0  0  0  0  0  0  0
   44.4250   32.8660   38.3970 C   0  0  0  0  0  0  0  0  0  0  0  0
   43.3150   33.5970   38.7920 C   0  0  0  0  0  0  0  0  0  0  0  0
   42.0510   33.1360   38.5280 C   0  0  0  0  0  0  0  0  0  0  0  0
   41.8630   31.9930   37.8950 N   0  0  0  0  0  0  0  0  0  0  0  0
   42.9520   31.2890   37.5150 C   0  0  0  0  0  0  0  0  0  0  0  0
   44.2290   31.7080   37.7560 N   0  0  0  0  0  0  0  0  0  0  0  0
   47.4630   33.6680   42.5140 C   0  0  0  0  0  0  0  0  0  0  0  0
   44.8150   35.3820   44.5810 C   0  0  0  0  0  0  0  0  0  0  0  0
   45.6680   35.0420   43.5190 C   0  0  0  0  0  0  0  0  0  0  0  0
   46.5760   34.0270   43.6260 C   0  0  0  0  0  0  0  0  0  0  0  0
   46.6400   33.3370   44.8080 N   0  0  0  0  0  0  0  0  0  0  0  0
   45.7870   33.7000   45.8260 C   0  0  0  0  0  0  0  0  0  0  0  0
   44.9130   34.6810   45.7160 N   0  0  0  0  0  0  0  0  0  0  0  0
   45.9030   32.9250   47.0620 C   0  0  0  0  0  0  0  0  0  0  0  0
   47.1490   32.4120   47.4440 C   0  0  0  0  0  0  0  0  0  0  0  0
   46.9550   31.7300   48.6410 C   0  0  0  0  0  0  0  0  0  0  0  0
   45.5910   31.8710   48.9180 C   0  0  0  0  0  0  0  0  0  0  0  0
   45.0180   32.5770   47.9660 O   0  0  0  0  0  0  0  0  0  0  0  0
   47.0905   35.6329   41.7775 H   0  0  0  0  0  0  0  0  0  0  0  0
   48.7619   35.0493   41.5300 H   0  0  0  0  0  0  0  0  0  0  0  0
   49.2290   34.5591   39.3154 H   0  0  0  0  0  0  0  0  0  0  0  0
   48.7054   33.7387   37.0583 H   0  0  0  0  0  0  0  0  0  0  0  0
   43.4493   34.5524   39.3203 H   0  0  0  0  0  0  0  0  0  0  0  0
   41.1806   33.7274   38.8485 H   0  0  0  0  0  0  0  0  0  0  0  0
   42.8030   30.3352   36.9877 H   0  0  0  0  0  0  0  0  0  0  0  0
   47.0165   32.8141   41.9835 H   0  0  0  0  0  0  0  0  0  0  0  0
   48.4414   33.4407   42.9624 H   0  0  0  0  0  0  0  0  0  0  0  0
   44.0873   36.2010   44.4826 H   0  0  0  0  0  0  0  0  0  0  0  0
   45.6036   35.6070   42.5774 H   0  0  0  0  0  0  0  0  0  0  0  0
   48.0991   32.5264   46.9015 H   0  0  0  0  0  0  0  0  0  0  0  0
   47.7089   31.1967   49.2387 H   0  0  0  0  0  0  0  0  0  0  0  0
   45.0761   31.4555   49.7968 H   0  0  0  0  0  0  0  0  0  0  0  0
  1 14  1  0
  2  1  1  0
  3  2  2  0
  4  3  1  0
  5  4  2  0
  5  6  1  0
  6  7  2  0
  7  2  1  0
  8  6  1  0
  8  9  2  0
 10  9  1  0
 11 10  2  0
 12 13  2  0
 12 11  1  0
 13  8  1  0
 14 17  1  0
 15 20  2  0
 16 17  2  0
 16 15  1  0
 17 18  1  0
 18 19  2  0
 19 21  1  0
 20 19  1  0
 21 22  2  0
 21 25  1  0
 22 23  1  0
 23 24  2  0
 25 24  1  0
  1 26  1  0
  1 27  1  0
  3 28  1  0
  4 29  1  0
  9 30  1  0
 10 31  1  0
 12 32  1  0
 14 33  1  0
 14 34  1  0
 15 35  1  0
 16 36  1  0
 22 37  1  0
 23 38  1  0
 24 39  1  0
M  ISO  8  26   8  27   8  28  14  29  14  30  14  31  14  32  14  33   8
M  ISO  6  34   8  35  14  36  14  37  14  38  14  39  14
M  END
>  <minimizedAffinity>  (1) 
-5.89825964

>  <minimizedRMSD>  (1) 
0.688901842

$$$$
