
     RDKit          3D

 31 34  0  0  1  0  0  0  0  0999 V2000
   47.8660   34.3490   42.8340 C   0  0  1  0  0  0  0  0  0  0  0  0
   47.8160   35.4380   41.8160 C   0  0  0  0  0  0  0  0  0  0  0  0
   46.7540   34.3380   41.9070 C   0  0  2  0  0  0  0  0  0  0  0  0
   45.3980   34.8330   42.2740 C   0  0  0  0  0  0  0  0  0  0  0  0
   45.0000   35.4270   43.4500 C   0  0  0  0  0  0  0  0  0  0  0  0
   43.6980   35.7200   43.3660 N   0  0  0  0  0  0  0  0  0  0  0  0
   43.2560   35.3220   42.1560 C   0  0  0  0  0  0  0  0  0  0  0  0
   42.0110   35.3800   41.5520 C   0  0  0  0  0  0  0  0  0  0  0  0
   41.8080   34.8890   40.2620 C   0  0  0  0  0  0  0  0  0  0  0  0
   42.8850   34.3290   39.5740 C   0  0  0  0  0  0  0  0  0  0  0  0
   44.1420   34.2580   40.1560 C   0  0  0  0  0  0  0  0  0  0  0  0
   44.2820   34.7630   41.4410 C   0  0  0  0  0  0  0  0  0  0  0  0
   48.6490   31.9520   42.9200 C   0  0  0  0  0  0  0  0  0  0  0  0
   48.9370   33.3040   42.7000 C   0  0  0  0  0  0  0  0  0  0  0  0
   50.2690   33.6510   42.3290 C   0  0  0  0  0  0  0  0  0  0  0  0
   51.1860   32.6660   42.2080 N   0  0  0  0  0  0  0  0  0  0  0  0
   50.8650   31.3680   42.4300 C   0  0  0  0  0  0  0  0  0  0  0  0
   49.6070   31.0440   42.7800 N   0  0  0  0  0  0  0  0  0  0  0  0
   47.9350   34.3281   43.9316 H   0  0  0  0  0  0  0  0  0  0  0  0
   48.5320   35.4541   40.9811 H   0  0  0  0  0  0  0  0  0  0  0  0
   47.8228   36.5379   41.8291 H   0  0  0  0  0  0  0  0  0  0  0  0
   46.3365   33.5363   41.2802 H   0  0  0  0  0  0  0  0  0  0  0  0
   45.6468   35.6278   44.3168 H   0  0  0  0  0  0  0  0  0  0  0  0
   43.1314   36.1712   44.0983 H   0  0  0  0  0  0  0  0  0  0  0  0
   41.1658   35.8218   42.1001 H   0  0  0  0  0  0  0  0  0  0  0  0
   40.8138   34.9425   39.7943 H   0  0  0  0  0  0  0  0  0  0  0  0
   42.7352   33.9387   38.5566 H   0  0  0  0  0  0  0  0  0  0  0  0
   44.9955   33.8181   39.6194 H   0  0  0  0  0  0  0  0  0  0  0  0
   47.6331   31.6433   43.2077 H   0  0  0  0  0  0  0  0  0  0  0  0
   50.5448   34.6998   42.1449 H   0  0  0  0  0  0  0  0  0  0  0  0
   51.6290   30.5837   42.3246 H   0  0  0  0  0  0  0  0  0  0  0  0
  2  3  1  0
  2  1  1  0
  3  4  1  0
  3  1  1  0
  4  5  2  0
  6  5  1  0
  7  6  1  0
  8  7  2  0
  9  8  1  0
 10 11  1  0
 10  9  2  0
 11 12  2  0
 12  7  1  0
 12  4  1  0
 14  1  1  0
 14 13  2  0
 15 14  1  0
 16 15  2  0
 16 17  1  0
 17 18  2  0
 18 13  1  0
  1 19  1  1
  2 20  1  0
  2 21  1  0
  3 22  1  6
  5 23  1  0
  6 24  1  0
  8 25  1  0
  9 26  1  0
 10 27  1  0
 11 28  1  0
 13 29  1  0
 15 30  1  0
 17 31  1  0
M  ISO  8  19  13  20  13  21  13  22  13  23  14  24   9  25  14  26  14
M  ISO  5  27  14  28  14  29  14  30  14  31  14
M  END
>  <minimizedAffinity>  (1) 
-5.32580042

>  <minimizedRMSD>  (1) 
7.03368425

$$$$
