
     RDKit          3D

 45 48  0  0  0  0  0  0  0  0999 V2000
   47.6440   34.7710   41.5450 C   0  0  0  0  0  0  0  0  0  0  0  0
   47.2830   34.2550   40.1930 C   0  0  0  0  0  0  0  0  0  0  0  0
   48.1940   34.2090   39.1580 C   0  0  0  0  0  0  0  0  0  0  0  0
   47.9430   33.7480   37.8870 C   0  0  0  0  0  0  0  0  0  0  0  0
   46.6640   33.3020   37.6680 N   0  0  0  0  0  0  0  0  0  0  0  0
   45.7640   33.3430   38.6780 C   0  0  0  0  0  0  0  0  0  0  0  0
   46.0230   33.8000   39.9250 N   0  0  0  0  0  0  0  0  0  0  0  0
   44.4220   32.8520   38.3760 C   0  0  0  0  0  0  0  0  0  0  0  0
   43.3020   33.5810   38.7780 C   0  0  0  0  0  0  0  0  0  0  0  0
   42.0430   33.1190   38.4970 C   0  0  0  0  0  0  0  0  0  0  0  0
   41.8700   31.9760   37.8400 N   0  0  0  0  0  0  0  0  0  0  0  0
   42.9650   31.2880   37.4620 C   0  0  0  0  0  0  0  0  0  0  0  0
   44.2460   31.6970   37.7130 N   0  0  0  0  0  0  0  0  0  0  0  0
   47.5630   33.6370   42.5130 C   0  0  0  0  0  0  0  0  0  0  0  0
   44.9650   35.1370   44.7960 C   0  0  0  0  0  0  0  0  0  0  0  0
   45.8030   34.9120   43.7000 C   0  0  0  0  0  0  0  0  0  0  0  0
   46.6850   33.8690   43.6660 C   0  0  0  0  0  0  0  0  0  0  0  0
   46.7260   33.0400   44.7460 N   0  0  0  0  0  0  0  0  0  0  0  0
   45.8920   33.2820   45.8090 C   0  0  0  0  0  0  0  0  0  0  0  0
   45.0450   34.2910   45.8350 N   0  0  0  0  0  0  0  0  0  0  0  0
   46.0070   32.3260   46.9440 C   0  0  0  0  0  0  0  0  0  0  0  0
   45.0810   32.6660   48.0850 C   0  0  0  0  0  0  0  0  0  0  0  0
   45.5950   31.6910   49.1510 C   0  0  0  0  0  0  0  0  0  0  0  0
   47.0960   31.6150   48.9080 C   0  0  0  0  0  0  0  0  0  0  0  0
   47.3530   32.3050   47.5910 C   0  0  0  0  0  0  0  0  0  0  0  0
   46.9416   35.5642   41.8408 H   0  0  0  0  0  0  0  0  0  0  0  0
   48.6613   35.1893   41.5334 H   0  0  0  0  0  0  0  0  0  0  0  0
   49.2105   34.5731   39.3679 H   0  0  0  0  0  0  0  0  0  0  0  0
   48.7130   33.7375   37.1015 H   0  0  0  0  0  0  0  0  0  0  0  0
   43.4302   34.5286   39.3217 H   0  0  0  0  0  0  0  0  0  0  0  0
   41.1660   33.6999   38.8184 H   0  0  0  0  0  0  0  0  0  0  0  0
   42.8204   30.3419   36.9198 H   0  0  0  0  0  0  0  0  0  0  0  0
   47.1918   32.7532   41.9734 H   0  0  0  0  0  0  0  0  0  0  0  0
   48.5768   33.5058   42.9193 H   0  0  0  0  0  0  0  0  0  0  0  0
   44.2610   35.9822   44.8066 H   0  0  0  0  0  0  0  0  0  0  0  0
   45.7508   35.5950   42.8393 H   0  0  0  0  0  0  0  0  0  0  0  0
   45.7707   31.3652   46.4633 H   0  0  0  0  0  0  0  0  0  0  0  0
   45.1932   33.7132   48.4026 H   0  0  0  0  0  0  0  0  0  0  0  0
   44.0097   32.5736   47.8532 H   0  0  0  0  0  0  0  0  0  0  0  0
   45.3837   32.0726   50.1608 H   0  0  0  0  0  0  0  0  0  0  0  0
   45.1106   30.7057   49.0842 H   0  0  0  0  0  0  0  0  0  0  0  0
   47.6382   32.1265   49.7170 H   0  0  0  0  0  0  0  0  0  0  0  0
   47.4425   30.5713   48.8842 H   0  0  0  0  0  0  0  0  0  0  0  0
   48.0733   31.7377   46.9832 H   0  0  0  0  0  0  0  0  0  0  0  0
   47.7889   33.3080   47.7091 H   0  0  0  0  0  0  0  0  0  0  0  0
  1 14  1  0
  2  1  1  0
  3  2  2  0
  4  3  1  0
  5  4  2  0
  5  6  1  0
  6  7  2  0
  7  2  1  0
  8  6  1  0
  8  9  2  0
 10  9  1  0
 11 10  2  0
 12 13  2  0
 12 11  1  0
 13  8  1  0
 14 17  1  0
 15 20  2  0
 16 15  1  0
 17 16  2  0
 17 18  1  0
 18 19  2  0
 19 20  1  0
 19 21  1  0
 21 25  1  0
 21 22  1  0
 22 23  1  0
 24 23  1  0
 25 24  1  0
  1 26  1  0
  1 27  1  0
  3 28  1  0
  4 29  1  0
  9 30  1  0
 10 31  1  0
 12 32  1  0
 14 33  1  0
 14 34  1  0
 15 35  1  0
 16 36  1  0
 21 37  1  0
 22 38  1  0
 22 39  1  0
 23 40  1  0
 23 41  1  0
 24 42  1  0
 24 43  1  0
 25 44  1  0
 25 45  1  0
M  ISO  8  26   8  27   8  28  14  29  14  30  14  31  14  32  14  33   8
M  ISO  8  34   8  35  14  36  14  37  13  38  13  39  13  40  13  41  13
M  ISO  4  42  13  43  13  44  13  45  13
M  END
>  <minimizedAffinity>  (1) 
-5.8815155

>  <minimizedRMSD>  (1) 
0.901314497

$$$$
