
     RDKit          3D

 24 26  0  0  1  0  0  0  0  0999 V2000
   47.5170   34.4590   42.1250 C   0  0  1  0  0  0  0  0  0  0  0  0
   48.4190   35.5410   41.6540 C   0  0  0  0  0  0  0  0  0  0  0  0
   48.9080   34.3810   42.5200 C   0  0  2  0  0  0  0  0  0  0  0  0
   45.6420   35.8820   43.0090 C   0  0  0  0  0  0  0  0  0  0  0  0
   46.4920   34.7640   43.1730 C   0  0  0  0  0  0  0  0  0  0  0  0
   46.3190   33.9550   44.3310 C   0  0  0  0  0  0  0  0  0  0  0  0
   45.3550   34.2940   45.2140 N   0  0  0  0  0  0  0  0  0  0  0  0
   44.5580   35.3730   45.0250 C   0  0  0  0  0  0  0  0  0  0  0  0
   44.7150   36.1500   43.9230 N   0  0  0  0  0  0  0  0  0  0  0  0
   49.7110   33.3150   41.8140 C   0  0  0  0  0  0  0  0  0  0  0  0
   51.0180   32.9330   42.1080 C   0  0  0  0  0  0  0  0  0  0  0  0
   51.3300   31.9190   41.1950 C   0  0  0  0  0  0  0  0  0  0  0  0
   50.1910   31.7520   40.4070 C   0  0  0  0  0  0  0  0  0  0  0  0
   49.2690   32.5940   40.8100 O   0  0  0  0  0  0  0  0  0  0  0  0
   46.8267   33.7726   41.6127 H   0  0  0  0  0  0  0  0  0  0  0  0
   48.7065   35.6046   40.5941 H   0  0  0  0  0  0  0  0  0  0  0  0
   48.4389   36.6391   41.7152 H   0  0  0  0  0  0  0  0  0  0  0  0
   49.4534   34.3031   43.4721 H   0  0  0  0  0  0  0  0  0  0  0  0
   45.7478   36.5293   42.1259 H   0  0  0  0  0  0  0  0  0  0  0  0
   46.9554   33.0744   44.5028 H   0  0  0  0  0  0  0  0  0  0  0  0
   43.7828   35.6198   45.7653 H   0  0  0  0  0  0  0  0  0  0  0  0
   51.6693   33.3429   42.8940 H   0  0  0  0  0  0  0  0  0  0  0  0
   52.2783   31.3673   41.1152 H   0  0  0  0  0  0  0  0  0  0  0  0
   50.0834   31.0319   39.5824 H   0  0  0  0  0  0  0  0  0  0  0  0
  1  3  1  0
  1  5  1  0
  2  1  1  0
  2  3  1  0
  4  5  2  0
  4  9  1  0
  5  6  1  0
  6  7  2  0
  8  7  1  0
  9  8  2  0
 10 11  2  0
 10  3  1  0
 12 11  1  0
 13 14  1  0
 13 12  2  0
 14 10  1  0
  1 15  1  6
  2 16  1  0
  2 17  1  0
  3 18  1  1
  4 19  1  0
  6 20  1  0
  8 21  1  0
 11 22  1  0
 12 23  1  0
 13 24  1  0
M  ISO  8  15  13  16  13  17  13  18  13  19  14  20  14  21  14  22  14
M  ISO  2  23  14  24  14
M  END
>  <minimizedAffinity>  (1) 
-4.72183037

>  <minimizedRMSD>  (1) 
1.46353686

$$$$
