
     RDKit          3D

 31 34  0  0  1  0  0  0  0  0999 V2000
   47.6030   35.2150   41.5130 C   0  0  1  0  0  0  0  0  0  0  0  0
   48.9710   35.7860   41.6490 C   0  0  0  0  0  0  0  0  0  0  0  0
   48.6690   34.4490   40.9560 C   0  0  1  0  0  0  0  0  0  0  0  0
   49.4290   33.3670   41.4830 N   0  0  0  0  0  0  0  0  0  0  0  0
   50.5720   33.3090   42.2310 C   0  0  0  0  0  0  0  0  0  0  0  0
   50.9380   32.0470   42.4880 N   0  0  0  0  0  0  0  0  0  0  0  0
   50.0340   31.2530   41.9090 C   0  0  0  0  0  0  0  0  0  0  0  0
   49.9160   29.8680   41.8520 C   0  0  0  0  0  0  0  0  0  0  0  0
   50.7630   29.1520   42.4150 O   0  0  0  0  0  0  0  0  0  0  0  0
   48.8530   29.3710   41.1640 N   0  0  0  0  0  0  0  0  0  0  0  0
   47.9410   30.1330   40.5580 C   0  0  0  0  0  0  0  0  0  0  0  0
   46.8790   29.5120   39.8730 N   0  0  0  0  0  0  0  0  0  0  0  0
   48.0640   31.4740   40.6180 N   0  0  0  0  0  0  0  0  0  0  0  0
   49.0980   32.0530   41.2860 C   0  0  0  0  0  0  0  0  0  0  0  0
   47.3430   33.8660   43.6490 C   0  0  0  0  0  0  0  0  0  0  0  0
   46.8580   34.8120   42.7260 C   0  0  0  0  0  0  0  0  0  0  0  0
   45.6160   35.4000   42.9970 C   0  0  0  0  0  0  0  0  0  0  0  0
   44.9380   35.0410   44.1170 N   0  0  0  0  0  0  0  0  0  0  0  0
   45.4490   34.1240   44.9730 C   0  0  0  0  0  0  0  0  0  0  0  0
   46.6400   33.5460   44.7380 N   0  0  0  0  0  0  0  0  0  0  0  0
   46.6508   35.5638   41.0867 H   0  0  0  0  0  0  0  0  0  0  0  0
   49.2716   36.6661   41.0615 H   0  0  0  0  0  0  0  0  0  0  0  0
   49.6143   36.1327   42.4712 H   0  0  0  0  0  0  0  0  0  0  0  0
   48.6826   33.9307   39.9858 H   0  0  0  0  0  0  0  0  0  0  0  0
   51.1249   34.1936   42.5800 H   0  0  0  0  0  0  0  0  0  0  0  0
   48.7462   28.3481   41.1077 H   0  0  0  0  0  0  0  0  0  0  0  0
   46.8143   28.4844   39.8463 H   0  0  0  0  0  0  0  0  0  0  0  0
   46.1669   30.0854   39.3986 H   0  0  0  0  0  0  0  0  0  0  0  0
   48.3153   33.3835   43.4703 H   0  0  0  0  0  0  0  0  0  0  0  0
   45.1935   36.1463   42.3082 H   0  0  0  0  0  0  0  0  0  0  0  0
   44.8812   33.8481   45.8738 H   0  0  0  0  0  0  0  0  0  0  0  0
  1  2  1  0
  1 16  1  0
  3  4  1  0
  3  1  1  0
  3  2  1  0
  4  5  1  0
  5  6  2  0
  7  6  1  0
  8  7  1  0
  8  9  2  0
 10  8  1  0
 11 13  2  0
 11 10  1  0
 12 11  1  0
 13 14  1  0
 14  4  1  0
 14  7  2  0
 15 20  2  0
 16 17  2  0
 16 15  1  0
 17 18  1  0
 18 19  2  0
 20 19  1  0
  1 21  1  6
  2 22  1  0
  2 23  1  0
  3 24  1  6
  5 25  1  0
 10 26  1  0
 12 27  1  0
 12 28  1  0
 15 29  1  0
 17 30  1  0
 19 31  1  0
M  ISO  8  21  13  22  13  23  13  24  13  25  14  26   9  29  14  30  14
M  ISO  1  31  14
M  END
>  <minimizedAffinity>  (1) 
-4.63345098

>  <minimizedRMSD>  (1) 
3.25150514

$$$$
