
     RDKit          3D

 33 35  0  0  1  0  0  0  0  0999 V2000
   47.1870   34.4050   42.1430 C   0  0  1  0  0  0  0  0  0  0  0  0
   48.1570   35.4530   41.7190 C   0  0  0  0  0  0  0  0  0  0  0  0
   48.5960   34.1590   42.4020 C   0  0  2  0  0  0  0  0  0  0  0  0
   45.4800   35.8360   43.2500 C   0  0  0  0  0  0  0  0  0  0  0  0
   46.3000   34.7010   43.3200 C   0  0  0  0  0  0  0  0  0  0  0  0
   46.2370   33.8740   44.4790 C   0  0  0  0  0  0  0  0  0  0  0  0
   45.3760   34.2480   45.4460 N   0  0  0  0  0  0  0  0  0  0  0  0
   44.5860   35.3470   45.3680 C   0  0  0  0  0  0  0  0  0  0  0  0
   44.6390   36.1450   44.2610 N   0  0  0  0  0  0  0  0  0  0  0  0
   49.4300   33.2710   41.5080 C   0  0  0  0  0  0  0  0  0  0  0  0
   50.7770   33.0600   42.1720 C   0  0  0  0  0  0  0  0  0  0  0  0
   51.4290   31.7950   41.6620 C   0  0  0  0  0  0  0  0  0  0  0  0
   50.6110   30.6120   42.1470 C   0  0  0  0  0  0  0  0  0  0  0  0
   49.1570   30.9880   42.3400 C   0  0  0  0  0  0  0  0  0  0  0  0
   48.7440   31.9440   41.2470 C   0  0  0  0  0  0  0  0  0  0  0  0
   46.3961   33.8438   41.6238 H   0  0  0  0  0  0  0  0  0  0  0  0
   48.3670   35.6181   40.6519 H   0  0  0  0  0  0  0  0  0  0  0  0
   48.2899   36.5295   41.9022 H   0  0  0  0  0  0  0  0  0  0  0  0
   49.1233   33.8383   43.3125 H   0  0  0  0  0  0  0  0  0  0  0  0
   45.5219   36.4827   42.3612 H   0  0  0  0  0  0  0  0  0  0  0  0
   46.8611   32.9738   44.5794 H   0  0  0  0  0  0  0  0  0  0  0  0
   43.9039   35.5954   46.1945 H   0  0  0  0  0  0  0  0  0  0  0  0
   49.5624   33.7574   40.5303 H   0  0  0  0  0  0  0  0  0  0  0  0
   51.4284   33.9178   41.9488 H   0  0  0  0  0  0  0  0  0  0  0  0
   50.6268   32.9687   43.2579 H   0  0  0  0  0  0  0  0  0  0  0  0
   52.4556   31.7223   42.0504 H   0  0  0  0  0  0  0  0  0  0  0  0
   51.4692   31.8044   40.5628 H   0  0  0  0  0  0  0  0  0  0  0  0
   50.6760   29.8033   41.4042 H   0  0  0  0  0  0  0  0  0  0  0  0
   51.0158   30.2851   43.1162 H   0  0  0  0  0  0  0  0  0  0  0  0
   48.5333   30.0831   42.2928 H   0  0  0  0  0  0  0  0  0  0  0  0
   49.0257   31.4681   43.3210 H   0  0  0  0  0  0  0  0  0  0  0  0
   47.6523   32.0782   41.2601 H   0  0  0  0  0  0  0  0  0  0  0  0
   49.0332   31.5493   40.2618 H   0  0  0  0  0  0  0  0  0  0  0  0
  1  3  1  0
  1  5  1  0
  2  1  1  0
  2  3  1  0
  4  5  2  0
  4  9  1  0
  5  6  1  0
  6  7  2  0
  8  7  1  0
  9  8  2  0
 10 11  1  0
 10  3  1  0
 12 13  1  0
 12 11  1  0
 13 14  1  0
 15 10  1  0
 15 14  1  0
  1 16  1  6
  2 17  1  0
  2 18  1  0
  3 19  1  1
  4 20  1  0
  6 21  1  0
  8 22  1  0
 10 23  1  0
 11 24  1  0
 11 25  1  0
 12 26  1  0
 12 27  1  0
 13 28  1  0
 13 29  1  0
 14 30  1  0
 14 31  1  0
 15 32  1  0
 15 33  1  0
M  ISO  8  16  13  17  13  18  13  19  13  20  14  21  14  22  14  23  13
M  ISO  8  24  13  25  13  26  13  27  13  28  13  29  13  30  13  31  13
M  ISO  2  32  13  33  13
M  END
>  <minimizedAffinity>  (1) 
-4.63533926

>  <minimizedRMSD>  (1) 
1.38662779

$$$$
