
     RDKit          3D

 20 21  0  0  1  0  0  0  0  0999 V2000
   47.0590   34.2430   42.6910 C   0  0  1  0  0  0  0  0  0  0  0  0
   46.4730   34.3860   41.3240 C   0  0  0  0  0  0  0  0  0  0  0  0
   47.4620   35.3940   41.9100 C   0  0  2  0  0  0  0  0  0  0  0  0
   46.3070   33.5840   44.9880 C   0  0  0  0  0  0  0  0  0  0  0  0
   46.1700   34.4510   43.8720 C   0  0  0  0  0  0  0  0  0  0  0  0
   45.2060   35.4980   43.9350 C   0  0  0  0  0  0  0  0  0  0  0  0
   44.4720   35.6020   45.0730 N   0  0  0  0  0  0  0  0  0  0  0  0
   44.6250   34.7670   46.1100 C   0  0  0  0  0  0  0  0  0  0  0  0
   45.5400   33.7550   46.0760 N   0  0  0  0  0  0  0  0  0  0  0  0
   48.7550   35.4460   41.1320 C   0  0  0  0  0  0  0  0  0  0  0  0
   49.4430   36.6030   41.4350 F   0  0  0  0  0  0  0  0  0  0  0  0
   48.5650   35.3530   39.7640 F   0  0  0  0  0  0  0  0  0  0  0  0
   49.6020   34.4000   41.5250 F   0  0  0  0  0  0  0  0  0  0  0  0
   47.6103   33.4427   43.2063 H   0  0  0  0  0  0  0  0  0  0  0  0
   45.4137   34.6537   41.1967 H   0  0  0  0  0  0  0  0  0  0  0  0
   46.4146   33.7668   40.4167 H   0  0  0  0  0  0  0  0  0  0  0  0
   47.5136   36.4592   42.1795 H   0  0  0  0  0  0  0  0  0  0  0  0
   47.0449   32.7687   44.9608 H   0  0  0  0  0  0  0  0  0  0  0  0
   45.0619   36.1942   43.0957 H   0  0  0  0  0  0  0  0  0  0  0  0
   44.0009   34.8999   47.0060 H   0  0  0  0  0  0  0  0  0  0  0  0
  1  5  1  0
  2  3  1  0
  2  1  1  0
  3  1  1  0
  4  9  2  0
  5  6  2  0
  5  4  1  0
  6  7  1  0
  7  8  2  0
  9  8  1  0
 10 11  1  0
 10 13  1  0
 10  3  1  0
 12 10  1  0
  1 14  1  6
  2 15  1  0
  2 16  1  0
  3 17  1  1
  4 18  1  0
  6 19  1  0
  8 20  1  0
M  ISO  7  14  13  15  13  16  13  17  13  18  14  19  14  20  14
M  END
>  <minimizedAffinity>  (1) 
-4.94343424

>  <minimizedRMSD>  (1) 
2.44731331

$$$$
