
     RDKit          3D

 27 29  0  0  1  0  0  0  0  0999 V2000
   47.3040   35.0440   41.6290 C   0  0  1  0  0  0  0  0  0  0  0  0
   48.7130   35.5170   41.7230 C   0  0  0  0  0  0  0  0  0  0  0  0
   48.3630   34.0640   41.4550 C   0  0  2  0  0  0  0  0  0  0  0  0
   45.5030   35.9690   43.0490 C   0  0  0  0  0  0  0  0  0  0  0  0
   46.4830   34.9870   42.8660 C   0  0  0  0  0  0  0  0  0  0  0  0
   46.6130   33.9850   43.8400 C   0  0  0  0  0  0  0  0  0  0  0  0
   45.7820   34.0160   44.9090 N   0  0  0  0  0  0  0  0  0  0  0  0
   44.8350   34.9730   45.0740 C   0  0  0  0  0  0  0  0  0  0  0  0
   44.6960   35.9560   44.1350 N   0  0  0  0  0  0  0  0  0  0  0  0
   48.5200   33.5590   40.0510 C   0  0  0  0  0  0  0  0  0  0  0  0
   48.0030   34.2870   38.9720 C   0  0  0  0  0  0  0  0  0  0  0  0
   48.1410   33.8330   37.6700 C   0  0  0  0  0  0  0  0  0  0  0  0
   48.8000   32.6400   37.4060 C   0  0  0  0  0  0  0  0  0  0  0  0
   49.3210   31.9040   38.4700 C   0  0  0  0  0  0  0  0  0  0  0  0
   49.1730   32.3740   39.7560 C   0  0  0  0  0  0  0  0  0  0  0  0
   46.4349   35.3500   41.0281 H   0  0  0  0  0  0  0  0  0  0  0  0
   49.1443   36.1411   40.9265 H   0  0  0  0  0  0  0  0  0  0  0  0
   49.3165   36.0611   42.4644 H   0  0  0  0  0  0  0  0  0  0  0  0
   48.6522   33.1125   41.9251 H   0  0  0  0  0  0  0  0  0  0  0  0
   45.3868   36.7642   42.2979 H   0  0  0  0  0  0  0  0  0  0  0  0
   47.3708   33.1943   43.7378 H   0  0  0  0  0  0  0  0  0  0  0  0
   44.1822   34.9579   45.9592 H   0  0  0  0  0  0  0  0  0  0  0  0
   47.4785   35.2352   39.1612 H   0  0  0  0  0  0  0  0  0  0  0  0
   47.7252   34.4223   36.8394 H   0  0  0  0  0  0  0  0  0  0  0  0
   48.9097   32.2803   36.3723 H   0  0  0  0  0  0  0  0  0  0  0  0
   49.8460   30.9555   38.2835 H   0  0  0  0  0  0  0  0  0  0  0  0
   49.5913   31.7830   40.5841 H   0  0  0  0  0  0  0  0  0  0  0  0
  1  2  1  0
  1  5  1  0
  3  1  1  0
  3  2  1  0
  4  9  2  0
  5  4  1  0
  5  6  2  0
  6  7  1  0
  7  8  2  0
  9  8  1  0
 10  3  1  0
 11 10  2  0
 12 11  1  0
 13 12  2  0
 13 14  1  0
 14 15  2  0
 15 10  1  0
  1 16  1  6
  2 17  1  0
  2 18  1  0
  3 19  1  1
  4 20  1  0
  6 21  1  0
  8 22  1  0
 11 23  1  0
 12 24  1  0
 13 25  1  0
 14 26  1  0
 15 27  1  0
M  ISO  8  16  13  17  13  18  13  19  13  20  14  21  14  22  14  23  14
M  ISO  4  24  14  25  14  26  14  27  14
M  END
>  <minimizedAffinity>  (1) 
-4.79151535

>  <minimizedRMSD>  (1) 
0.895121574

$$$$
