
     RDKit          3D

 24 26  0  0  1  0  0  0  0  0999 V2000
   47.1590   34.7180   41.7950 C   0  0  1  0  0  0  0  0  0  0  0  0
   48.4290   35.4950   41.7050 C   0  0  0  0  0  0  0  0  0  0  0  0
   48.4000   33.9810   41.9130 C   0  0  2  0  0  0  0  0  0  0  0  0
   45.4280   35.9700   43.0830 C   0  0  0  0  0  0  0  0  0  0  0  0
   46.3080   34.8800   43.0230 C   0  0  0  0  0  0  0  0  0  0  0  0
   46.3480   33.9590   44.1100 C   0  0  0  0  0  0  0  0  0  0  0  0
   45.5140   34.2060   45.1430 N   0  0  0  0  0  0  0  0  0  0  0  0
   44.6670   35.2620   45.1880 C   0  0  0  0  0  0  0  0  0  0  0  0
   44.6250   36.1480   44.1520 N   0  0  0  0  0  0  0  0  0  0  0  0
   48.8860   33.1500   40.8240 N   0  0  0  0  0  0  0  0  0  0  0  0
   48.4570   32.9880   39.5620 C   0  0  0  0  0  0  0  0  0  0  0  0
   49.3210   32.0660   39.0060 C   0  0  0  0  0  0  0  0  0  0  0  0
   50.2480   31.6820   39.9090 N   0  0  0  0  0  0  0  0  0  0  0  0
   49.9770   32.3630   41.0550 C   0  0  0  0  0  0  0  0  0  0  0  0
   46.2754   34.6253   41.1465 H   0  0  0  0  0  0  0  0  0  0  0  0
   48.7558   35.9194   40.7442 H   0  0  0  0  0  0  0  0  0  0  0  0
   48.8690   36.3589   42.2246 H   0  0  0  0  0  0  0  0  0  0  0  0
   48.7870   33.2681   42.6559 H   0  0  0  0  0  0  0  0  0  0  0  0
   45.3922   36.6872   42.2498 H   0  0  0  0  0  0  0  0  0  0  0  0
   47.0239   33.0911   44.1076 H   0  0  0  0  0  0  0  0  0  0  0  0
   44.0127   35.4051   46.0606 H   0  0  0  0  0  0  0  0  0  0  0  0
   47.6027   33.4825   39.0766 H   0  0  0  0  0  0  0  0  0  0  0  0
   49.2623   31.6960   37.9718 H   0  0  0  0  0  0  0  0  0  0  0  0
   50.5370   32.2921   41.9991 H   0  0  0  0  0  0  0  0  0  0  0  0
  1  3  1  0
  1  5  1  0
  2  1  1  0
  2  3  1  0
  4  9  2  0
  5  4  1  0
  5  6  2  0
  6  7  1  0
  7  8  2  0
  9  8  1  0
 10 14  1  0
 10  3  1  0
 11 10  1  0
 12 11  2  0
 12 13  1  0
 13 14  2  0
  1 15  1  6
  2 16  1  0
  2 17  1  0
  3 18  1  1
  4 19  1  0
  6 20  1  0
  8 21  1  0
 11 22  1  0
 12 23  1  0
 14 24  1  0
M  ISO  8  15  13  16  13  17  13  18  13  19  14  20  14  21  14  22  14
M  ISO  2  23  14  24  14
M  END
>  <minimizedAffinity>  (1) 
-4.38929701

>  <minimizedRMSD>  (1) 
1.02355313

$$$$
