
     RDKit          3D

 24 26  0  0  1  0  0  0  0  0999 V2000
   47.1870   35.0580   41.5890 C   0  0  1  0  0  0  0  0  0  0  0  0
   48.6200   35.4520   41.6440 C   0  0  0  0  0  0  0  0  0  0  0  0
   48.1810   34.0240   41.3630 C   0  0  2  0  0  0  0  0  0  0  0  0
   45.4240   36.0060   43.0870 C   0  0  0  0  0  0  0  0  0  0  0  0
   46.3830   35.0130   42.8640 C   0  0  0  0  0  0  0  0  0  0  0  0
   46.5570   33.9920   43.8150 C   0  0  0  0  0  0  0  0  0  0  0  0
   45.7680   34.0190   44.9260 N   0  0  0  0  0  0  0  0  0  0  0  0
   44.8460   34.9910   45.1210 C   0  0  0  0  0  0  0  0  0  0  0  0
   44.6730   35.9860   44.2010 N   0  0  0  0  0  0  0  0  0  0  0  0
   48.4450   33.5130   40.0090 N   0  0  0  0  0  0  0  0  0  0  0  0
   49.1750   32.4360   39.7570 N   0  0  0  0  0  0  0  0  0  0  0  0
   49.2390   32.2160   38.4200 C   0  0  0  0  0  0  0  0  0  0  0  0
   48.5020   33.2240   37.8310 C   0  0  0  0  0  0  0  0  0  0  0  0
   48.0070   34.0350   38.8480 C   0  0  0  0  0  0  0  0  0  0  0  0
   46.3195   35.4291   41.0235 H   0  0  0  0  0  0  0  0  0  0  0  0
   49.0590   36.0665   40.8442 H   0  0  0  0  0  0  0  0  0  0  0  0
   49.2763   35.9486   42.3738 H   0  0  0  0  0  0  0  0  0  0  0  0
   48.3458   33.0302   41.8049 H   0  0  0  0  0  0  0  0  0  0  0  0
   45.2837   36.8075   42.3467 H   0  0  0  0  0  0  0  0  0  0  0  0
   47.3044   33.1985   43.6673 H   0  0  0  0  0  0  0  0  0  0  0  0
   44.2286   34.9795   46.0313 H   0  0  0  0  0  0  0  0  0  0  0  0
   49.7704   31.3998   37.9087 H   0  0  0  0  0  0  0  0  0  0  0  0
   48.3360   33.3614   36.7523 H   0  0  0  0  0  0  0  0  0  0  0  0
   47.3790   34.9299   38.7265 H   0  0  0  0  0  0  0  0  0  0  0  0
  1  2  1  0
  1  5  1  0
  3  1  1  0
  3  2  1  0
  4  9  2  0
  5  4  1  0
  5  6  2  0
  6  7  1  0
  7  8  2  0
  9  8  1  0
 10  3  1  0
 11 10  1  0
 12 11  2  0
 13 12  1  0
 13 14  2  0
 14 10  1  0
  1 15  1  6
  2 16  1  0
  2 17  1  0
  3 18  1  1
  4 19  1  0
  6 20  1  0
  8 21  1  0
 12 22  1  0
 13 23  1  0
 14 24  1  0
M  ISO  8  15  13  16  13  17  13  18  13  19  14  20  14  21  14  22  14
M  ISO  2  23  14  24  14
M  END
>  <minimizedAffinity>  (1) 
-4.38175535

>  <minimizedRMSD>  (1) 
1.08052516

$$$$
