
     RDKit          3D

 24 26  0  0  1  0  0  0  0  0999 V2000
   47.1840   34.7360   41.7630 C   0  0  1  0  0  0  0  0  0  0  0  0
   48.4620   35.4920   41.6740 C   0  0  0  0  0  0  0  0  0  0  0  0
   48.4200   33.9850   41.8800 C   0  0  2  0  0  0  0  0  0  0  0  0
   45.4400   35.9690   43.0520 C   0  0  0  0  0  0  0  0  0  0  0  0
   46.3290   34.8840   42.9930 C   0  0  0  0  0  0  0  0  0  0  0  0
   46.3780   33.9570   44.0740 C   0  0  0  0  0  0  0  0  0  0  0  0
   45.5500   34.1840   45.1100 N   0  0  0  0  0  0  0  0  0  0  0  0
   44.6980   35.2360   45.1530 C   0  0  0  0  0  0  0  0  0  0  0  0
   44.6390   36.1330   44.1260 N   0  0  0  0  0  0  0  0  0  0  0  0
   48.8520   33.1140   40.7650 C   0  0  0  0  0  0  0  0  0  0  0  0
   48.0450   32.7250   39.7160 C   0  0  0  0  0  0  0  0  0  0  0  0
   48.7120   31.9440   38.8700 N   0  0  0  0  0  0  0  0  0  0  0  0
   49.9710   31.8210   39.3740 C   0  0  0  0  0  0  0  0  0  0  0  0
   50.0230   32.5450   40.5270 N   0  0  0  0  0  0  0  0  0  0  0  0
   46.2986   34.6671   41.1139 H   0  0  0  0  0  0  0  0  0  0  0  0
   48.7935   35.9133   40.7135 H   0  0  0  0  0  0  0  0  0  0  0  0
   48.9120   36.3498   42.1953 H   0  0  0  0  0  0  0  0  0  0  0  0
   48.8270   33.2820   42.6217 H   0  0  0  0  0  0  0  0  0  0  0  0
   45.3961   36.6877   42.2204 H   0  0  0  0  0  0  0  0  0  0  0  0
   47.0615   33.0952   44.0621 H   0  0  0  0  0  0  0  0  0  0  0  0
   44.0445   35.3693   46.0278 H   0  0  0  0  0  0  0  0  0  0  0  0
   46.9923   33.0205   39.5952 H   0  0  0  0  0  0  0  0  0  0  0  0
   50.7954   31.2428   38.9312 H   0  0  0  0  0  0  0  0  0  0  0  0
   50.8548   32.6364   41.1276 H   0  0  0  0  0  0  0  0  0  0  0  0
  1  3  1  0
  1  5  1  0
  2  1  1  0
  2  3  1  0
  4  9  2  0
  5  4  1  0
  5  6  2  0
  6  7  1  0
  7  8  2  0
  9  8  1  0
 10  3  1  0
 11 10  2  0
 12 13  2  0
 12 11  1  0
 13 14  1  0
 14 10  1  0
  1 15  1  6
  2 16  1  0
  2 17  1  0
  3 18  1  1
  4 19  1  0
  6 20  1  0
  8 21  1  0
 11 22  1  0
 13 23  1  0
 14 24  1  0
M  ISO  8  15  13  16  13  17  13  18  13  19  14  20  14  21  14  22  14
M  ISO  2  23  14  24   9
M  END
>  <minimizedAffinity>  (1) 
-4.55639887

>  <minimizedRMSD>  (1) 
0.904843926

$$$$
