
     RDKit          3D

 20 21  0  0  1  0  0  0  0  0999 V2000
   47.5880   34.3900   42.2140 C   0  0  1  0  0  0  0  0  0  0  0  0
   48.4400   35.4970   41.6880 C   0  0  0  0  0  0  0  0  0  0  0  0
   48.9790   34.4170   42.6290 C   0  0  2  0  0  0  0  0  0  0  0  0
   45.7180   35.8420   42.9800 C   0  0  0  0  0  0  0  0  0  0  0  0
   46.5380   34.7270   43.2110 C   0  0  0  0  0  0  0  0  0  0  0  0
   46.3120   33.9470   44.3820 C   0  0  0  0  0  0  0  0  0  0  0  0
   45.3020   34.3350   45.2150 N   0  0  0  0  0  0  0  0  0  0  0  0
   44.5300   35.4170   44.9600 C   0  0  0  0  0  0  0  0  0  0  0  0
   44.7330   36.1730   43.8440 N   0  0  0  0  0  0  0  0  0  0  0  0
   50.0100   33.5660   41.9310 C   0  0  0  0  0  0  0  0  0  0  0  0
   51.1830   33.3780   42.3020 O   0  0  0  0  0  0  0  0  0  0  0  0
   49.7310   32.8900   40.7690 O   0  0  0  0  0  0  0  0  0  0  0  0
   46.9507   33.6253   41.7459 H   0  0  0  0  0  0  0  0  0  0  0  0
   48.7402   35.5144   40.6299 H   0  0  0  0  0  0  0  0  0  0  0  0
   48.3983   36.5962   41.6839 H   0  0  0  0  0  0  0  0  0  0  0  0
   49.4368   34.3273   43.6252 H   0  0  0  0  0  0  0  0  0  0  0  0
   45.8794   36.4561   42.0818 H   0  0  0  0  0  0  0  0  0  0  0  0
   46.9288   33.0644   44.6067 H   0  0  0  0  0  0  0  0  0  0  0  0
   43.7285   35.6898   45.6623 H   0  0  0  0  0  0  0  0  0  0  0  0
   48.8301   32.9535   40.3635 H   0  0  0  0  0  0  0  0  0  0  0  0
  1  3  1  0
  1  5  1  0
  2  1  1  0
  2  3  1  0
  4  5  2  0
  4  9  1  0
  5  6  1  0
  6  7  2  0
  8  7  1  0
  9  8  2  0
 10 11  2  0
 10  3  1  0
 12 10  1  0
  1 13  1  6
  2 14  1  0
  2 15  1  0
  3 16  1  1
  4 17  1  0
  6 18  1  0
  8 19  1  0
 12 20  1  0
M  ISO  8  13  13  14  13  15  13  16  13  17  14  18  14  19  14  20   3
M  END
>  <minimizedAffinity>  (1) 
-4.34953356

>  <minimizedRMSD>  (1) 
1.19879186

$$$$
