
     RDKit          3D

 37 40  0  0  0  0  0  0  0  0999 V2000
   47.5830   34.7750   41.6310 C   0  0  0  0  0  0  0  0  0  0  0  0
   47.2010   34.2380   40.2940 C   0  0  0  0  0  0  0  0  0  0  0  0
   48.1110   34.0850   39.2690 C   0  0  0  0  0  0  0  0  0  0  0  0
   47.8430   33.5960   38.0150 C   0  0  0  0  0  0  0  0  0  0  0  0
   46.5410   33.2410   37.8050 N   0  0  0  0  0  0  0  0  0  0  0  0
   45.6360   33.3840   38.7970 C   0  0  0  0  0  0  0  0  0  0  0  0
   45.9070   33.8660   40.0290 N   0  0  0  0  0  0  0  0  0  0  0  0
   44.2580   32.9790   38.4980 C   0  0  0  0  0  0  0  0  0  0  0  0
   43.1850   33.7600   38.8890 C   0  0  0  0  0  0  0  0  0  0  0  0
   41.9020   33.3730   38.6070 C   0  0  0  0  0  0  0  0  0  0  0  0
   41.6690   32.2540   37.9620 N   0  0  0  0  0  0  0  0  0  0  0  0
   42.7270   31.4800   37.5740 C   0  0  0  0  0  0  0  0  0  0  0  0
   44.0120   31.8430   37.8410 N   0  0  0  0  0  0  0  0  0  0  0  0
   47.3400   33.7110   42.6470 C   0  0  0  0  0  0  0  0  0  0  0  0
   44.7170   35.5060   44.6780 C   0  0  0  0  0  0  0  0  0  0  0  0
   45.5740   35.1370   43.6290 C   0  0  0  0  0  0  0  0  0  0  0  0
   46.4430   34.0860   43.7450 C   0  0  0  0  0  0  0  0  0  0  0  0
   46.4470   33.4090   44.9150 N   0  0  0  0  0  0  0  0  0  0  0  0
   45.6010   33.7830   45.9280 C   0  0  0  0  0  0  0  0  0  0  0  0
   44.7680   34.7960   45.8080 N   0  0  0  0  0  0  0  0  0  0  0  0
   45.7390   32.9340   47.1280 C   0  0  0  0  0  0  0  0  0  0  0  0
   44.9830   32.3690   48.0810 N   0  0  0  0  0  0  0  0  0  0  0  0
   45.7530   31.7150   48.8850 O   0  0  0  0  0  0  0  0  0  0  0  0
   46.9800   31.8150   48.5170 C   0  0  0  0  0  0  0  0  0  0  0  0
   47.0320   32.5870   47.3940 N   0  0  0  0  0  0  0  0  0  0  0  0
   46.9728   35.6598   41.8651 H   0  0  0  0  0  0  0  0  0  0  0  0
   48.6432   35.0683   41.6340 H   0  0  0  0  0  0  0  0  0  0  0  0
   49.1494   34.3830   39.4761 H   0  0  0  0  0  0  0  0  0  0  0  0
   48.6167   33.4976   37.2393 H   0  0  0  0  0  0  0  0  0  0  0  0
   43.3641   34.7002   39.4312 H   0  0  0  0  0  0  0  0  0  0  0  0
   41.0596   34.0054   38.9238 H   0  0  0  0  0  0  0  0  0  0  0  0
   42.5357   30.5415   37.0331 H   0  0  0  0  0  0  0  0  0  0  0  0
   46.9024   32.8430   42.1321 H   0  0  0  0  0  0  0  0  0  0  0  0
   48.3163   33.5032   43.1093 H   0  0  0  0  0  0  0  0  0  0  0  0
   44.0246   36.3542   44.5724 H   0  0  0  0  0  0  0  0  0  0  0  0
   45.5463   35.7077   42.6890 H   0  0  0  0  0  0  0  0  0  0  0  0
   47.8424   31.3557   49.0222 H   0  0  0  0  0  0  0  0  0  0  0  0
  1 14  1  0
  2  1  1  0
  3  2  2  0
  4  3  1  0
  5  4  2  0
  5  6  1  0
  6  7  2  0
  7  2  1  0
  8  6  1  0
  8  9  2  0
 10  9  1  0
 11 10  2  0
 12 13  2  0
 12 11  1  0
 13  8  1  0
 14 17  1  0
 15 20  2  0
 16 17  2  0
 16 15  1  0
 17 18  1  0
 18 19  2  0
 19 21  1  0
 20 19  1  0
 21 25  1  0
 21 22  2  0
 22 23  1  0
 24 23  1  0
 25 24  2  0
  1 26  1  0
  1 27  1  0
  3 28  1  0
  4 29  1  0
  9 30  1  0
 10 31  1  0
 12 32  1  0
 14 33  1  0
 14 34  1  0
 15 35  1  0
 16 36  1  0
 24 37  1  0
M  ISO  8  26   8  27   8  28  14  29  14  30  14  31  14  32  14  33   8
M  ISO  4  34   8  35  14  36  14  37  14
M  END
>  <minimizedAffinity>  (1) 
-5.72432995

>  <minimizedRMSD>  (1) 
0.745068252

$$$$
