
     RDKit          3D

 24 26  0  0  1  0  0  0  0  0999 V2000
   47.3550   34.4340   42.0880 C   0  0  1  0  0  0  0  0  0  0  0  0
   48.3360   35.4750   41.6820 C   0  0  0  0  0  0  0  0  0  0  0  0
   48.7490   34.2010   42.4230 C   0  0  2  0  0  0  0  0  0  0  0  0
   45.5760   35.8800   43.0990 C   0  0  0  0  0  0  0  0  0  0  0  0
   46.3990   34.7500   43.1990 C   0  0  0  0  0  0  0  0  0  0  0  0
   46.2710   33.9240   44.3540 C   0  0  0  0  0  0  0  0  0  0  0  0
   45.3550   34.2910   45.2830 N   0  0  0  0  0  0  0  0  0  0  0  0
   44.5730   35.3900   45.1590 C   0  0  0  0  0  0  0  0  0  0  0  0
   44.6980   36.1780   44.0530 N   0  0  0  0  0  0  0  0  0  0  0  0
   49.6300   33.2470   41.6860 C   0  0  0  0  0  0  0  0  0  0  0  0
   49.8920   31.9150   42.3900 C   0  0  0  0  0  0  0  0  0  0  0  0
   50.9790   32.8900   42.0990 C   0  0  0  0  0  0  0  0  0  0  0  0
   46.5942   33.8525   41.5467 H   0  0  0  0  0  0  0  0  0  0  0  0
   48.5961   35.6116   40.6220 H   0  0  0  0  0  0  0  0  0  0  0  0
   48.4539   36.5571   41.8407 H   0  0  0  0  0  0  0  0  0  0  0  0
   49.2471   33.9254   43.3642 H   0  0  0  0  0  0  0  0  0  0  0  0
   45.6574   36.5317   42.2166 H   0  0  0  0  0  0  0  0  0  0  0  0
   46.8909   33.0249   44.4858 H   0  0  0  0  0  0  0  0  0  0  0  0
   43.8443   35.6444   45.9427 H   0  0  0  0  0  0  0  0  0  0  0  0
   49.2365   33.6167   40.7276 H   0  0  0  0  0  0  0  0  0  0  0  0
   49.5500   31.7550   43.4231 H   0  0  0  0  0  0  0  0  0  0  0  0
   49.7015   30.8538   42.1721 H   0  0  0  0  0  0  0  0  0  0  0  0
   51.7342   32.6492   41.3364 H   0  0  0  0  0  0  0  0  0  0  0  0
   51.7439   33.3853   42.7151 H   0  0  0  0  0  0  0  0  0  0  0  0
  1  3  1  0
  1  5  1  0
  2  1  1  0
  2  3  1  0
  4  5  2  0
  4  9  1  0
  5  6  1  0
  6  7  2  0
  8  7  1  0
  9  8  2  0
 10 12  1  0
 10 11  1  0
 10  3  1  0
 12 11  1  0
  1 13  1  6
  2 14  1  0
  2 15  1  0
  3 16  1  1
  4 17  1  0
  6 18  1  0
  8 19  1  0
 10 20  1  0
 11 21  1  0
 11 22  1  0
 12 23  1  0
 12 24  1  0
M  ISO  8  13  13  14  13  15  13  16  13  17  14  18  14  19  14  20  13
M  ISO  4  21  13  22  13  23  13  24  13
M  END
>  <minimizedAffinity>  (1) 
-4.23122644

>  <minimizedRMSD>  (1) 
1.10315132

$$$$
