
     RDKit          3D

 29 31  0  0  1  0  0  0  0  0999 V2000
   47.7760   35.0800   41.6900 C   0  0  1  0  0  0  0  0  0  0  0  0
   48.7780   34.0870   41.2530 C   0  0  0  0  0  0  0  0  0  0  0  0
   47.5760   34.4490   40.4150 C   0  0  1  0  0  0  0  0  0  0  0  0
   47.1860   33.7670   43.7450 C   0  0  0  0  0  0  0  0  0  0  0  0
   46.8800   34.7940   42.8390 C   0  0  0  0  0  0  0  0  0  0  0  0
   45.7100   35.5750   43.0470 C   0  0  0  0  0  0  0  0  0  0  0  0
   44.9500   35.2780   44.1170 N   0  0  0  0  0  0  0  0  0  0  0  0
   45.2600   34.2830   44.9810 C   0  0  0  0  0  0  0  0  0  0  0  0
   46.3780   33.5260   44.7970 N   0  0  0  0  0  0  0  0  0  0  0  0
   46.7980   33.3460   40.0240 N   0  0  0  0  0  0  0  0  0  0  0  0
   45.3670   33.5660   40.0480 C   0  0  0  0  0  0  0  0  0  0  0  0
   44.7520   32.7100   38.9620 C   0  0  0  0  0  0  0  0  0  0  0  0
   45.9510   32.0330   38.3340 C   0  0  0  0  0  0  0  0  0  0  0  0
   47.0300   33.0620   38.6340 C   0  0  0  0  0  0  0  0  0  0  0  0
   47.8276   36.1283   42.0192 H   0  0  0  0  0  0  0  0  0  0  0  0
   49.7853   34.4087   40.9500 H   0  0  0  0  0  0  0  0  0  0  0  0
   49.2076   33.1614   41.6639 H   0  0  0  0  0  0  0  0  0  0  0  0
   47.2667   34.9232   39.4719 H   0  0  0  0  0  0  0  0  0  0  0  0
   48.0887   33.1562   43.5963 H   0  0  0  0  0  0  0  0  0  0  0  0
   45.4370   36.3898   42.3603 H   0  0  0  0  0  0  0  0  0  0  0  0
   44.6028   34.0836   45.8402 H   0  0  0  0  0  0  0  0  0  0  0  0
   44.9599   33.2773   41.0283 H   0  0  0  0  0  0  0  0  0  0  0  0
   45.1374   34.6282   39.8778 H   0  0  0  0  0  0  0  0  0  0  0  0
   44.0594   31.9694   39.3884 H   0  0  0  0  0  0  0  0  0  0  0  0
   44.1574   33.2899   38.2407 H   0  0  0  0  0  0  0  0  0  0  0  0
   45.8163   31.8878   37.2520 H   0  0  0  0  0  0  0  0  0  0  0  0
   46.1603   31.0217   38.7127 H   0  0  0  0  0  0  0  0  0  0  0  0
   48.0351   32.6446   38.4742 H   0  0  0  0  0  0  0  0  0  0  0  0
   46.9856   33.9509   37.9875 H   0  0  0  0  0  0  0  0  0  0  0  0
  1  5  1  0
  2  1  1  0
  3  2  1  0
  3  1  1  0
  4  9  2  0
  5  6  2  0
  5  4  1  0
  6  7  1  0
  7  8  2  0
  9  8  1  0
 10 11  1  0
 10  3  1  0
 12 11  1  0
 13 14  1  0
 13 12  1  0
 14 10  1  0
  1 15  1  6
  2 16  1  0
  2 17  1  0
  3 18  1  6
  4 19  1  0
  6 20  1  0
  8 21  1  0
 11 22  1  0
 11 23  1  0
 12 24  1  0
 12 25  1  0
 13 26  1  0
 13 27  1  0
 14 28  1  0
 14 29  1  0
M  ISO  8  15  13  16  13  17  13  18  13  19  14  20  14  21  14  22  13
M  ISO  7  23  13  24  13  25  13  26  13  27  13  28  13  29  13
M  END
>  <minimizedAffinity>  (1) 
-3.76390219

>  <minimizedRMSD>  (1) 
4.15693665

$$$$
