
     RDKit          3D

 18 19  0  0  1  0  0  0  0  0999 V2000
   45.6780   35.6210   42.8890 C   0  0  0  0  0  0  0  0  0  0  0  0
   46.7750   34.7600   42.7550 C   0  0  0  0  0  0  0  0  0  0  0  0
   47.0250   33.8310   43.7800 C   0  0  0  0  0  0  0  0  0  0  0  0
   46.1830   33.8130   44.8570 N   0  0  0  0  0  0  0  0  0  0  0  0
   45.1270   34.6570   44.9620 C   0  0  0  0  0  0  0  0  0  0  0  0
   44.8780   35.5630   43.9720 N   0  0  0  0  0  0  0  0  0  0  0  0
   47.6120   34.8300   41.5320 C   0  0  1  0  0  0  0  0  0  0  0  0
   48.8500   35.6600   41.5490 C   0  0  0  0  0  0  0  0  0  0  0  0
   48.8820   34.1300   41.5070 C   0  0  2  0  0  0  0  0  0  0  0  0
   49.3570   33.5590   40.3180 O   0  0  0  0  0  0  0  0  0  0  0  0
   45.4664   36.3557   42.0981 H   0  0  0  0  0  0  0  0  0  0  0  0
   47.8759   33.1367   43.7172 H   0  0  0  0  0  0  0  0  0  0  0  0
   44.4716   34.6116   45.8442 H   0  0  0  0  0  0  0  0  0  0  0  0
   46.7181   34.8089   40.8913 H   0  0  0  0  0  0  0  0  0  0  0  0
   49.1389   36.2478   40.6653 H   0  0  0  0  0  0  0  0  0  0  0  0
   49.2700   36.4445   42.1956 H   0  0  0  0  0  0  0  0  0  0  0  0
   49.3042   33.3164   42.1152 H   0  0  0  0  0  0  0  0  0  0  0  0
   49.9751   32.8160   40.5326 H   0  0  0  0  0  0  0  0  0  0  0  0
  1  6  2  0
  2  1  1  0
  2  3  2  0
  3  4  1  0
  4  5  2  0
  6  5  1  0
  7  8  1  0
  7  2  1  0
  9  7  1  0
  9  8  1  0
 10  9  1  0
  1 11  1  0
  3 12  1  0
  5 13  1  0
  7 14  1  6
  8 15  1  0
  8 16  1  0
  9 17  1  1
 10 18  1  0
M  ISO  8  11  14  12  14  13  14  14  13  15  13  16  13  17  13  18   3
M  END
>  <minimizedAffinity>  (1) 
-3.98270178

>  <minimizedRMSD>  (1) 
0.173089251

$$$$
