
     RDKit          3D

 31 33  0  0  1  0  0  0  0  0999 V2000
   48.3180   35.1490   41.4390 C   0  0  1  0  0  0  0  0  0  0  0  0
   49.4570   35.2880   42.3680 C   0  0  0  0  0  0  0  0  0  0  0  0
   49.4190   34.2210   41.2710 C   0  0  1  0  0  0  0  0  0  0  0  0
   46.7020   34.5890   43.2850 C   0  0  0  0  0  0  0  0  0  0  0  0
   46.9940   34.6810   41.9160 C   0  0  0  0  0  0  0  0  0  0  0  0
   45.9830   34.3370   41.0090 C   0  0  0  0  0  0  0  0  0  0  0  0
   44.7880   33.9360   41.4880 N   0  0  0  0  0  0  0  0  0  0  0  0
   44.5370   33.8570   42.8150 C   0  0  0  0  0  0  0  0  0  0  0  0
   45.5020   34.1870   43.7160 N   0  0  0  0  0  0  0  0  0  0  0  0
   49.5510   32.8920   41.7520 N   0  0  0  0  0  0  0  0  0  0  0  0
   50.8700   32.4070   41.9880 C   0  0  0  0  0  0  0  0  0  0  0  0
   50.7570   31.0450   42.6610 C   0  0  0  0  0  0  0  0  0  0  0  0
   49.3650   30.5980   42.7220 N   0  0  0  0  0  0  0  0  0  0  0  0
   48.8070   30.5780   41.3880 C   0  0  0  0  0  0  0  0  0  0  0  0
   48.9300   31.9700   40.8200 C   0  0  0  0  0  0  0  0  0  0  0  0
   47.8014   35.8464   40.7631 H   0  0  0  0  0  0  0  0  0  0  0  0
   50.1403   36.1461   42.2862 H   0  0  0  0  0  0  0  0  0  0  0  0
   49.5916   35.2965   43.4597 H   0  0  0  0  0  0  0  0  0  0  0  0
   49.9252   33.9047   40.3470 H   0  0  0  0  0  0  0  0  0  0  0  0
   47.4770   34.8533   44.0196 H   0  0  0  0  0  0  0  0  0  0  0  0
   46.1610   34.3931   39.9250 H   0  0  0  0  0  0  0  0  0  0  0  0
   43.5492   33.5248   43.1670 H   0  0  0  0  0  0  0  0  0  0  0  0
   51.4079   32.3084   41.0336 H   0  0  0  0  0  0  0  0  0  0  0  0
   51.4251   33.1061   42.6308 H   0  0  0  0  0  0  0  0  0  0  0  0
   51.3443   30.3121   42.0883 H   0  0  0  0  0  0  0  0  0  0  0  0
   51.1400   31.1317   43.6885 H   0  0  0  0  0  0  0  0  0  0  0  0
   49.3257   29.6509   43.1250 H   0  0  0  0  0  0  0  0  0  0  0  0
   49.3628   29.8663   40.7598 H   0  0  0  0  0  0  0  0  0  0  0  0
   47.7531   30.2641   41.4153 H   0  0  0  0  0  0  0  0  0  0  0  0
   49.5403   31.9264   39.9059 H   0  0  0  0  0  0  0  0  0  0  0  0
   47.9152   32.3380   40.6083 H   0  0  0  0  0  0  0  0  0  0  0  0
  1  5  1  0
  1  2  1  0
  3  1  1  0
  3 10  1  0
  3  2  1  0
  4  9  2  0
  5  4  1  0
  6  7  1  0
  6  5  2  0
  7  8  2  0
  8  9  1  0
 10 11  1  0
 11 12  1  0
 12 13  1  0
 14 13  1  0
 15 14  1  0
 15 10  1  0
  1 16  1  6
  2 17  1  0
  2 18  1  0
  3 19  1  6
  4 20  1  0
  6 21  1  0
  8 22  1  0
 11 23  1  0
 11 24  1  0
 12 25  1  0
 12 26  1  0
 13 27  1  0
 14 28  1  0
 14 29  1  0
 15 30  1  0
 15 31  1  0
M  ISO  8  16  13  17  13  18  13  19  13  20  14  21  14  22  14  23  13
M  ISO  8  24  13  25  13  26  13  27   5  28  13  29  13  30  13  31  13
M  END
>  <minimizedAffinity>  (1) 
-3.55124307

>  <minimizedRMSD>  (1) 
2.58283353

$$$$
