
     RDKit          3D

 19 20  0  0  1  0  0  0  0  0999 V2000
   47.7730   34.6660   41.4210 C   0  0  1  0  0  0  0  0  0  0  0  0
   48.7370   35.7840   41.2210 C   0  0  0  0  0  0  0  0  0  0  0  0
   49.1760   34.3360   41.4810 C   0  0  1  0  0  0  0  0  0  0  0  0
   45.8950   35.5700   42.8480 C   0  0  0  0  0  0  0  0  0  0  0  0
   46.9160   34.6310   42.6300 C   0  0  0  0  0  0  0  0  0  0  0  0
   47.0840   33.6350   43.5990 C   0  0  0  0  0  0  0  0  0  0  0  0
   46.2780   33.6180   44.6800 N   0  0  0  0  0  0  0  0  0  0  0  0
   45.3030   34.5450   44.8540 C   0  0  0  0  0  0  0  0  0  0  0  0
   45.1230   35.5150   43.9300 N   0  0  0  0  0  0  0  0  0  0  0  0
   50.0280   34.2570   42.6830 C   0  0  0  0  0  0  0  0  0  0  0  0
   50.9550   33.4970   42.4380 O   0  0  0  0  0  0  0  0  0  0  0  0
   46.9319   34.2638   40.8372 H   0  0  0  0  0  0  0  0  0  0  0  0
   48.8680   36.2372   40.2273 H   0  0  0  0  0  0  0  0  0  0  0  0
   48.9225   36.7660   41.6806 H   0  0  0  0  0  0  0  0  0  0  0  0
   49.6956   33.4828   41.0204 H   0  0  0  0  0  0  0  0  0  0  0  0
   45.7301   36.3677   42.1087 H   0  0  0  0  0  0  0  0  0  0  0  0
   47.8674   32.8721   43.4797 H   0  0  0  0  0  0  0  0  0  0  0  0
   44.6599   34.5074   45.7456 H   0  0  0  0  0  0  0  0  0  0  0  0
   49.8595   34.7876   43.6317 H   0  0  0  0  0  0  0  0  0  0  0  0
  1  3  1  0
  1  5  1  0
  2  1  1  0
  2  3  1  0
  3 10  1  0
  4  9  2  0
  5  4  1  0
  5  6  2  0
  6  7  1  0
  7  8  2  0
  9  8  1  0
 11 10  2  0
  1 12  1  6
  2 13  1  0
  2 14  1  0
  3 15  1  6
  4 16  1  0
  6 17  1  0
  8 18  1  0
 10 19  1  0
M  ISO  8  12  13  13  13  14  13  15  13  16  14  17  14  18  14  19   6
M  END
>  <minimizedAffinity>  (1) 
-3.91083407

>  <minimizedRMSD>  (1) 
0.265001237

$$$$
