
     RDKit          3D

 41 43  0  0  0  0  0  0  0  0999 V2000
   47.0080   34.8400   41.9510 C   0  0  0  0  0  0  0  0  0  0  0  0
   45.9990   34.3390   40.9760 C   0  0  0  0  0  0  0  0  0  0  0  0
   46.3040   33.4150   39.9960 C   0  0  0  0  0  0  0  0  0  0  0  0
   45.4390   32.9070   39.0670 C   0  0  0  0  0  0  0  0  0  0  0  0
   44.1590   33.3830   39.1480 N   0  0  0  0  0  0  0  0  0  0  0  0
   43.8350   34.2910   40.1020 C   0  0  0  0  0  0  0  0  0  0  0  0
   44.7040   34.7840   41.0150 N   0  0  0  0  0  0  0  0  0  0  0  0
   42.4530   34.7530   40.1290 C   0  0  0  0  0  0  0  0  0  0  0  0
   41.9420   35.3880   41.2550 C   0  0  0  0  0  0  0  0  0  0  0  0
   40.6420   35.8220   41.2770 C   0  0  0  0  0  0  0  0  0  0  0  0
   39.8540   35.6430   40.2230 N   0  0  0  0  0  0  0  0  0  0  0  0
   40.3680   35.0240   39.1360 C   0  0  0  0  0  0  0  0  0  0  0  0
   41.6550   34.5760   39.0720 N   0  0  0  0  0  0  0  0  0  0  0  0
   47.3060   33.7500   42.9250 C   0  0  0  0  0  0  0  0  0  0  0  0
   44.8660   34.8340   45.5870 C   0  0  0  0  0  0  0  0  0  0  0  0
   45.5910   34.7750   44.3950 C   0  0  0  0  0  0  0  0  0  0  0  0
   46.5420   33.8130   44.1770 C   0  0  0  0  0  0  0  0  0  0  0  0
   46.7480   32.9210   45.1710 N   0  0  0  0  0  0  0  0  0  0  0  0
   46.0380   32.9840   46.3310 C   0  0  0  0  0  0  0  0  0  0  0  0
   45.1250   33.9140   46.5280 N   0  0  0  0  0  0  0  0  0  0  0  0
   46.3090   31.9610   47.4050 C   0  0  0  0  0  0  0  0  0  0  0  0
   47.5750   32.3110   48.1410 C   0  0  0  0  0  0  0  0  0  0  0  0
   45.1180   31.8950   48.3330 C   0  0  0  0  0  0  0  0  0  0  0  0
   46.6068   35.7146   42.4840 H   0  0  0  0  0  0  0  0  0  0  0  0
   47.9269   35.1366   41.4240 H   0  0  0  0  0  0  0  0  0  0  0  0
   47.3421   33.0531   39.9593 H   0  0  0  0  0  0  0  0  0  0  0  0
   45.7491   32.1706   38.3110 H   0  0  0  0  0  0  0  0  0  0  0  0
   42.5849   35.5432   42.1339 H   0  0  0  0  0  0  0  0  0  0  0  0
   40.2485   36.3222   42.1742 H   0  0  0  0  0  0  0  0  0  0  0  0
   39.7173   34.8746   38.2618 H   0  0  0  0  0  0  0  0  0  0  0  0
   47.0863   32.7880   42.4388 H   0  0  0  0  0  0  0  0  0  0  0  0
   48.3639   33.8661   43.2033 H   0  0  0  0  0  0  0  0  0  0  0  0
   44.1052   35.6117   45.7494 H   0  0  0  0  0  0  0  0  0  0  0  0
   45.3935   35.5203   43.6105 H   0  0  0  0  0  0  0  0  0  0  0  0
   46.4545   30.9668   46.9573 H   0  0  0  0  0  0  0  0  0  0  0  0
   47.3947   32.2611   49.2250 H   0  0  0  0  0  0  0  0  0  0  0  0
   48.3669   31.5981   47.8679 H   0  0  0  0  0  0  0  0  0  0  0  0
   47.8883   33.3295   47.8679 H   0  0  0  0  0  0  0  0  0  0  0  0
   45.4649   31.9142   49.3767 H   0  0  0  0  0  0  0  0  0  0  0  0
   44.4614   32.7581   48.1489 H   0  0  0  0  0  0  0  0  0  0  0  0
   44.5608   30.9646   48.1489 H   0  0  0  0  0  0  0  0  0  0  0  0
  1 14  1  0
  2  7  1  0
  2  1  1  0
  3  2  2  0
  4  5  2  0
  4  3  1  0
  5  6  1  0
  6  8  1  0
  6  7  2  0
  8  9  2  0
  9 10  1  0
 11 10  2  0
 12 11  1  0
 13 12  2  0
 13  8  1  0
 14 17  1  0
 15 20  2  0
 16 15  1  0
 17 16  2  0
 17 18  1  0
 18 19  2  0
 19 20  1  0
 19 21  1  0
 21 22  1  0
 21 23  1  0
  1 24  1  0
  1 25  1  0
  3 26  1  0
  4 27  1  0
  9 28  1  0
 10 29  1  0
 12 30  1  0
 14 31  1  0
 14 32  1  0
 15 33  1  0
 16 34  1  0
 21 35  1  0
 22 36  1  0
 22 37  1  0
 22 38  1  0
 23 39  1  0
 23 40  1  0
 23 41  1  0
M  ISO  8  24   8  25   8  26  14  27  14  28  14  29  14  30  14  31   8
M  ISO  8  32   8  33  14  34  14  35   8  36   8  37   8  38   8  39   8
M  ISO  2  40   8  41   8
M  END
>  <minimizedAffinity>  (1) 
-5.71008873

>  <minimizedRMSD>  (1) 
2.70469666

$$$$
