
     RDKit          3D

 18 19  0  0  1  0  0  0  0  0999 V2000
   45.3520   35.9840   43.1580 C   0  0  0  0  0  0  0  0  0  0  0  0
   46.2260   34.9000   43.0130 C   0  0  0  0  0  0  0  0  0  0  0  0
   46.3030   33.9760   44.0700 C   0  0  0  0  0  0  0  0  0  0  0  0
   45.5330   34.1740   45.1760 N   0  0  0  0  0  0  0  0  0  0  0  0
   44.6980   35.2360   45.2800 C   0  0  0  0  0  0  0  0  0  0  0  0
   44.6140   36.1410   44.2630 N   0  0  0  0  0  0  0  0  0  0  0  0
   47.0140   34.7470   41.7550 C   0  0  1  0  0  0  0  0  0  0  0  0
   48.3640   35.3740   41.6810 C   0  0  0  0  0  0  0  0  0  0  0  0
   48.1590   33.8590   41.7570 C   0  0  2  0  0  0  0  0  0  0  0  0
   48.5540   32.9320   40.2430 S   0  0  0  0  0  0  0  0  0  0  0  0
   45.2703   36.7221   42.3465 H   0  0  0  0  0  0  0  0  0  0  0  0
   46.9744   33.1071   44.0048 H   0  0  0  0  0  0  0  0  0  0  0  0
   44.0874   35.3684   46.1853 H   0  0  0  0  0  0  0  0  0  0  0  0
   46.1064   34.8166   41.1374 H   0  0  0  0  0  0  0  0  0  0  0  0
   48.7101   35.8435   40.7484 H   0  0  0  0  0  0  0  0  0  0  0  0
   48.9206   36.1290   42.2556 H   0  0  0  0  0  0  0  0  0  0  0  0
   48.4870   33.0425   42.4171 H   0  0  0  0  0  0  0  0  0  0  0  0
   49.0747   31.7100   40.5785 H   0  0  0  0  0  0  0  0  0  0  0  0
  1  6  2  0
  2  1  1  0
  2  3  2  0
  3  4  1  0
  4  5  2  0
  6  5  1  0
  7  9  1  0
  7  2  1  0
  8  7  1  0
  8  9  1  0
 10  9  1  0
  1 11  1  0
  3 12  1  0
  5 13  1  0
  7 14  1  6
  8 15  1  0
  8 16  1  0
  9 17  1  1
 10 18  1  0
M  ISO  8  11  14  12  14  13  14  14  13  15  13  16  13  17  13  18  11
M  END
>  <minimizedAffinity>  (1) 
-3.79766798

>  <minimizedRMSD>  (1) 
0.876317322

$$$$
