
     RDKit          3D

 30 33  0  0  1  0  0  0  0  0999 V2000
   45.5800   34.1080   41.3770 C   0  0  1  0  0  0  0  0  0  0  0  0
   46.4340   35.1980   41.9340 C   0  0  0  0  0  0  0  0  0  0  0  0
   46.2780   33.8180   42.5930 C   0  0  1  0  0  0  0  0  0  0  0  0
   43.4880   35.5470   41.2840 C   0  0  0  0  0  0  0  0  0  0  0  0
   44.1130   34.2910   41.3150 C   0  0  0  0  0  0  0  0  0  0  0  0
   43.2790   33.1720   41.2600 C   0  0  0  0  0  0  0  0  0  0  0  0
   41.9370   33.3330   41.1830 N   0  0  0  0  0  0  0  0  0  0  0  0
   41.3800   34.5690   41.1560 C   0  0  0  0  0  0  0  0  0  0  0  0
   42.1580   35.6640   41.2070 N   0  0  0  0  0  0  0  0  0  0  0  0
   45.8530   33.9430   43.9510 N   0  0  0  0  0  0  0  0  0  0  0  0
   45.0760   34.8390   44.6330 C   0  0  0  0  0  0  0  0  0  0  0  0
   44.9970   34.5050   45.9350 N   0  0  0  0  0  0  0  0  0  0  0  0
   45.7080   33.4070   46.1250 C   0  0  0  0  0  0  0  0  0  0  0  0
   45.9730   32.6330   47.2490 C   0  0  0  0  0  0  0  0  0  0  0  0
   46.7430   31.5470   47.1460 N   0  0  0  0  0  0  0  0  0  0  0  0
   47.2730   31.1850   45.9560 C   0  0  0  0  0  0  0  0  0  0  0  0
   47.0150   31.9350   44.8690 N   0  0  0  0  0  0  0  0  0  0  0  0
   46.2440   33.0440   44.9070 C   0  0  0  0  0  0  0  0  0  0  0  0
   45.4310   32.9830   48.5230 N   0  0  0  0  0  0  0  0  0  0  0  0
   45.5244   33.5773   40.4151 H   0  0  0  0  0  0  0  0  0  0  0  0
   47.3757   35.4791   41.4399 H   0  0  0  0  0  0  0  0  0  0  0  0
   46.2946   36.2468   42.2348 H   0  0  0  0  0  0  0  0  0  0  0  0
   46.8117   32.8907   42.8485 H   0  0  0  0  0  0  0  0  0  0  0  0
   44.1061   36.4560   41.3239 H   0  0  0  0  0  0  0  0  0  0  0  0
   43.7121   32.1610   41.2792 H   0  0  0  0  0  0  0  0  0  0  0  0
   40.2871   34.6760   41.0921 H   0  0  0  0  0  0  0  0  0  0  0  0
   44.5836   35.7121   44.1800 H   0  0  0  0  0  0  0  0  0  0  0  0
   47.9067   30.2893   45.8775 H   0  0  0  0  0  0  0  0  0  0  0  0
   45.6356   32.4004   49.3474 H   0  0  0  0  0  0  0  0  0  0  0  0
   44.8355   33.8181   48.6175 H   0  0  0  0  0  0  0  0  0  0  0  0
  1  2  1  0
  1  3  1  0
  2  3  1  0
  3 10  1  0
  4  5  2  0
  5  1  1  0
  6  5  1  0
  7  6  2  0
  8  7  1  0
  8  9  2  0
  9  4  1  0
 10 11  1  0
 10 18  1  0
 11 12  2  0
 12 13  1  0
 13 14  2  0
 14 19  1  0
 15 14  1  0
 16 15  2  0
 17 18  2  0
 17 16  1  0
 18 13  1  0
  1 20  1  6
  2 21  1  0
  2 22  1  0
  3 23  1  6
  4 24  1  0
  6 25  1  0
  8 26  1  0
 11 27  1  0
 16 28  1  0
 19 29  1  0
 19 30  1  0
M  ISO  8  20  13  21  13  22  13  23  13  24  14  25  14  26  14  27  14
M  ISO  1  28  14
M  END
>  <minimizedAffinity>  (1) 
-5.32208824

>  <minimizedRMSD>  (1) 
5.18031645

$$$$
