
     RDKit          3D

 41 46  0  0  1  0  0  0  0  0999 V2000
   45.8360   33.9430   43.9740 N   0  0  0  0  0  0  0  0  0  0  0  0
   45.0420   34.8260   44.6370 C   0  0  0  0  0  0  0  0  0  0  0  0
   44.9580   34.5120   45.9480 N   0  0  0  0  0  0  0  0  0  0  0  0
   45.6810   33.4380   46.1620 C   0  0  0  0  0  0  0  0  0  0  0  0
   45.9650   32.6880   47.3000 C   0  0  0  0  0  0  0  0  0  0  0  0
   46.7680   31.6230   47.2110 N   0  0  0  0  0  0  0  0  0  0  0  0
   47.3110   31.2550   46.0390 C   0  0  0  0  0  0  0  0  0  0  0  0
   47.0310   31.9860   44.9310 N   0  0  0  0  0  0  0  0  0  0  0  0
   46.2210   33.0810   44.9620 C   0  0  0  0  0  0  0  0  0  0  0  0
   48.1660   30.1180   45.9490 N   0  0  0  0  0  0  0  0  0  0  0  0
   48.4260   29.4490   44.8110 C   0  0  0  0  0  0  0  0  0  0  0  0
   49.2800   28.4250   45.1000 N   0  0  0  0  0  0  0  0  0  0  0  0
   49.5260   28.4940   46.4330 C   0  0  0  0  0  0  0  0  0  0  0  0
   50.3020   27.7430   47.3140 C   0  0  0  0  0  0  0  0  0  0  0  0
   50.3500   28.0670   48.6340 N   0  0  0  0  0  0  0  0  0  0  0  0
   49.6410   29.1280   49.1150 C   0  0  0  0  0  0  0  0  0  0  0  0
   48.8930   29.8570   48.2890 N   0  0  0  0  0  0  0  0  0  0  0  0
   48.8270   29.5620   46.9810 C   0  0  0  0  0  0  0  0  0  0  0  0
   45.5670   34.1150   41.4050 C   0  0  1  0  0  0  0  0  0  0  0  0
   46.4240   35.1830   41.9570 C   0  0  0  0  0  0  0  0  0  0  0  0
   46.2680   33.8110   42.6310 C   0  0  1  0  0  0  0  0  0  0  0  0
   43.4720   35.5300   41.2870 C   0  0  0  0  0  0  0  0  0  0  0  0
   44.1090   34.2690   41.3270 C   0  0  0  0  0  0  0  0  0  0  0  0
   43.2870   33.1560   41.2860 C   0  0  0  0  0  0  0  0  0  0  0  0
   41.9400   33.3250   41.2100 N   0  0  0  0  0  0  0  0  0  0  0  0
   41.3670   34.5480   41.1730 C   0  0  0  0  0  0  0  0  0  0  0  0
   42.1420   35.6590   41.2120 N   0  0  0  0  0  0  0  0  0  0  0  0
   45.4130   33.0410   48.5620 N   0  0  0  0  0  0  0  0  0  0  0  0
   44.5354   35.6823   44.1678 H   0  0  0  0  0  0  0  0  0  0  0  0
   48.0194   29.6871   43.8170 H   0  0  0  0  0  0  0  0  0  0  0  0
   50.8784   26.8841   46.9399 H   0  0  0  0  0  0  0  0  0  0  0  0
   49.6870   29.3814   50.1844 H   0  0  0  0  0  0  0  0  0  0  0  0
   45.5067   33.6019   40.4339 H   0  0  0  0  0  0  0  0  0  0  0  0
   47.3660   35.4553   41.4586 H   0  0  0  0  0  0  0  0  0  0  0  0
   46.2902   36.2334   42.2550 H   0  0  0  0  0  0  0  0  0  0  0  0
   46.8008   32.8852   42.8937 H   0  0  0  0  0  0  0  0  0  0  0  0
   44.0918   36.4382   41.3187 H   0  0  0  0  0  0  0  0  0  0  0  0
   43.7192   32.1449   41.3146 H   0  0  0  0  0  0  0  0  0  0  0  0
   40.2727   34.6418   41.1113 H   0  0  0  0  0  0  0  0  0  0  0  0
   45.6317   32.4770   49.3957 H   0  0  0  0  0  0  0  0  0  0  0  0
   44.7945   33.8607   48.6425 H   0  0  0  0  0  0  0  0  0  0  0  0
  1  2  1  0
  1  9  1  0
  2  3  2  0
  3  4  1  0
  4  5  2  0
  5 28  1  0
  6  5  1  0
  7  6  2  0
  8  9  2  0
  8  7  1  0
  9  4  1  0
 10  7  1  0
 10 18  1  0
 11 12  2  0
 11 10  1  0
 12 13  1  0
 13 18  2  0
 13 14  1  0
 14 15  2  0
 15 16  1  0
 17 16  2  0
 18 17  1  0
 19 20  1  0
 19 21  1  0
 20 21  1  0
 21  1  1  0
 22 23  2  0
 23 19  1  0
 24 23  1  0
 25 24  2  0
 26 25  1  0
 26 27  2  0
 27 22  1  0
  2 29  1  0
 11 30  1  0
 14 31  1  0
 16 32  1  0
 19 33  1  6
 20 34  1  0
 20 35  1  0
 21 36  1  6
 22 37  1  0
 24 38  1  0
 26 39  1  0
 28 40  1  0
 28 41  1  0
M  ISO  8  29  14  30  14  31  14  32  14  33  13  34  13  35  13  36  13
M  ISO  3  37  14  38  14  39  14
M  END
>  <minimizedAffinity>  (1) 
-6.35004091

>  <minimizedRMSD>  (1) 
0.122142456

$$$$
