
     RDKit          3D

 41 45  0  0  1  0  0  0  0  0999 V2000
   45.8460   33.9840   43.9460 N   0  0  0  0  0  0  0  0  0  0  0  0
   45.0580   34.8620   44.6190 C   0  0  0  0  0  0  0  0  0  0  0  0
   44.9620   34.5290   45.9240 N   0  0  0  0  0  0  0  0  0  0  0  0
   45.6730   33.4430   46.1300 C   0  0  0  0  0  0  0  0  0  0  0  0
   45.9460   32.6630   47.2500 C   0  0  0  0  0  0  0  0  0  0  0  0
   46.7250   31.5960   47.1580 N   0  0  0  0  0  0  0  0  0  0  0  0
   47.2720   31.2420   45.9720 C   0  0  0  0  0  0  0  0  0  0  0  0
   47.0130   31.9930   44.8880 N   0  0  0  0  0  0  0  0  0  0  0  0
   46.2180   33.1020   44.9260 C   0  0  0  0  0  0  0  0  0  0  0  0
   48.1140   30.1030   45.8310 N   0  0  0  0  0  0  0  0  0  0  0  0
   48.6880   29.6660   44.6950 C   0  0  0  0  0  0  0  0  0  0  0  0
   49.4850   28.5390   44.7130 C   0  0  0  0  0  0  0  0  0  0  0  0
   49.7010   27.8530   45.8860 C   0  0  0  0  0  0  0  0  0  0  0  0
   50.5120   26.6850   45.9680 N   0  0  0  0  0  0  0  0  0  0  0  0
   49.1160   28.3120   47.0050 N   0  0  0  0  0  0  0  0  0  0  0  0
   48.3290   29.4240   46.9920 C   0  0  0  0  0  0  0  0  0  0  0  0
   47.8260   29.7760   48.0830 O   0  0  0  0  0  0  0  0  0  0  0  0
   45.5870   34.1630   41.3780 C   0  0  1  0  0  0  0  0  0  0  0  0
   46.4310   35.2360   41.9410 C   0  0  0  0  0  0  0  0  0  0  0  0
   46.2880   33.8620   42.6060 C   0  0  1  0  0  0  0  0  0  0  0  0
   43.4770   35.5520   41.2990 C   0  0  0  0  0  0  0  0  0  0  0  0
   44.1270   34.2980   41.2940 C   0  0  0  0  0  0  0  0  0  0  0  0
   43.3280   33.1720   41.1960 C   0  0  0  0  0  0  0  0  0  0  0  0
   41.9790   33.3090   41.1120 N   0  0  0  0  0  0  0  0  0  0  0  0
   41.3890   34.5360   41.1190 C   0  0  0  0  0  0  0  0  0  0  0  0
   42.1450   35.6560   41.2140 N   0  0  0  0  0  0  0  0  0  0  0  0
   45.3920   33.0090   48.5190 N   0  0  0  0  0  0  0  0  0  0  0  0
   44.5628   35.7308   44.1608 H   0  0  0  0  0  0  0  0  0  0  0  0
   48.5221   30.2070   43.7517 H   0  0  0  0  0  0  0  0  0  0  0  0
   49.9515   28.1863   43.7814 H   0  0  0  0  0  0  0  0  0  0  0  0
   50.6404   26.2097   46.8727 H   0  0  0  0  0  0  0  0  0  0  0  0
   50.9701   26.3157   45.1226 H   0  0  0  0  0  0  0  0  0  0  0  0
   45.5352   33.6560   40.4032 H   0  0  0  0  0  0  0  0  0  0  0  0
   47.3721   35.5211   41.4480 H   0  0  0  0  0  0  0  0  0  0  0  0
   46.2845   36.2830   42.2448 H   0  0  0  0  0  0  0  0  0  0  0  0
   46.8318   32.9420   42.8665 H   0  0  0  0  0  0  0  0  0  0  0  0
   44.0815   36.4678   41.3748 H   0  0  0  0  0  0  0  0  0  0  0  0
   43.7833   32.1707   41.1862 H   0  0  0  0  0  0  0  0  0  0  0  0
   40.2944   34.6181   41.0472 H   0  0  0  0  0  0  0  0  0  0  0  0
   45.5963   32.4293   49.3455 H   0  0  0  0  0  0  0  0  0  0  0  0
   44.7878   33.8384   48.6083 H   0  0  0  0  0  0  0  0  0  0  0  0
  1  2  1  0
  1  9  1  0
  2  3  2  0
  3  4  1  0
  4  5  2  0
  5 27  1  0
  6  5  1  0
  7  6  2  0
  8  9  2  0
  8  7  1  0
  9  4  1  0
 10  7  1  0
 10 16  1  0
 11 12  2  0
 11 10  1  0
 12 13  1  0
 13 14  1  0
 13 15  2  0
 16 15  1  0
 16 17  2  0
 18 19  1  0
 18 20  1  0
 19 20  1  0
 20  1  1  0
 22 21  2  0
 22 18  1  0
 23 22  1  0
 24 25  1  0
 24 23  2  0
 25 26  2  0
 26 21  1  0
  2 28  1  0
 11 29  1  0
 12 30  1  0
 14 31  1  0
 14 32  1  0
 18 33  1  6
 19 34  1  0
 19 35  1  0
 20 36  1  6
 21 37  1  0
 23 38  1  0
 25 39  1  0
 27 40  1  0
 27 41  1  0
M  ISO  8  28  14  29  14  30  14  33  13  34  13  35  13  36  13  37  14
M  ISO  2  38  14  39  14
M  END
>  <minimizedAffinity>  (1) 
-6.15949059

>  <minimizedRMSD>  (1) 
0.0686563477

$$$$
