
     RDKit          3D

 40 44  0  0  1  0  0  0  0  0999 V2000
   45.8760   33.9820   43.9460 N   0  0  0  0  0  0  0  0  0  0  0  0
   45.0800   34.8770   44.5950 C   0  0  0  0  0  0  0  0  0  0  0  0
   44.9560   34.5550   45.9030 N   0  0  0  0  0  0  0  0  0  0  0  0
   45.6530   33.4660   46.1290 C   0  0  0  0  0  0  0  0  0  0  0  0
   45.8880   32.7150   47.2610 C   0  0  0  0  0  0  0  0  0  0  0  0
   46.6780   31.6290   47.1880 N   0  0  0  0  0  0  0  0  0  0  0  0
   47.2470   31.2520   46.0320 C   0  0  0  0  0  0  0  0  0  0  0  0
   47.0100   31.9970   44.9240 N   0  0  0  0  0  0  0  0  0  0  0  0
   46.2200   33.1060   44.9400 C   0  0  0  0  0  0  0  0  0  0  0  0
   48.0890   30.1080   45.9180 N   0  0  0  0  0  0  0  0  0  0  0  0
   48.6110   29.6980   44.7260 C   0  0  0  0  0  0  0  0  0  0  0  0
   49.4290   28.5820   44.6310 C   0  0  0  0  0  0  0  0  0  0  0  0
   49.6760   27.9180   45.8200 C   0  0  0  0  0  0  0  0  0  0  0  0
   50.4260   26.8980   45.7150 O   0  0  0  0  0  0  0  0  0  0  0  0
   49.1900   28.2730   47.0240 N   0  0  0  0  0  0  0  0  0  0  0  0
   48.4090   29.3710   46.9980 C   0  0  0  0  0  0  0  0  0  0  0  0
   47.9100   29.7710   48.1030 O   0  0  0  0  0  0  0  0  0  0  0  0
   45.6530   34.1220   41.3720 C   0  0  1  0  0  0  0  0  0  0  0  0
   46.4810   35.2090   41.9300 C   0  0  0  0  0  0  0  0  0  0  0  0
   46.3410   33.8510   42.6130 C   0  0  1  0  0  0  0  0  0  0  0  0
   43.5370   35.5070   41.2460 C   0  0  0  0  0  0  0  0  0  0  0  0
   44.1940   34.2580   41.2650 C   0  0  0  0  0  0  0  0  0  0  0  0
   43.3910   33.1350   41.1710 C   0  0  0  0  0  0  0  0  0  0  0  0
   42.0460   33.2800   41.0650 N   0  0  0  0  0  0  0  0  0  0  0  0
   41.4510   34.4950   41.0490 C   0  0  0  0  0  0  0  0  0  0  0  0
   42.2070   35.6150   41.1400 N   0  0  0  0  0  0  0  0  0  0  0  0
   45.3250   33.0530   48.5190 N   0  0  0  0  0  0  0  0  0  0  0  0
   44.6018   35.7457   44.1189 H   0  0  0  0  0  0  0  0  0  0  0  0
   48.3766   30.2683   43.8151 H   0  0  0  0  0  0  0  0  0  0  0  0
   49.8537   28.2466   43.6733 H   0  0  0  0  0  0  0  0  0  0  0  0
   49.3966   27.7519   47.8881 H   0  0  0  0  0  0  0  0  0  0  0  0
   45.6164   33.5915   40.4091 H   0  0  0  0  0  0  0  0  0  0  0  0
   47.4265   35.4937   41.4453 H   0  0  0  0  0  0  0  0  0  0  0  0
   46.3221   36.2594   42.2152 H   0  0  0  0  0  0  0  0  0  0  0  0
   46.8938   32.9435   42.8972 H   0  0  0  0  0  0  0  0  0  0  0  0
   44.1394   36.4244   41.3210 H   0  0  0  0  0  0  0  0  0  0  0  0
   43.8402   32.1310   41.1821 H   0  0  0  0  0  0  0  0  0  0  0  0
   40.3572   34.5729   40.9624 H   0  0  0  0  0  0  0  0  0  0  0  0
   45.5215   32.4695   49.3447 H   0  0  0  0  0  0  0  0  0  0  0  0
   44.7198   33.8819   48.6064 H   0  0  0  0  0  0  0  0  0  0  0  0
  1  2  1  0
  1  9  1  0
  2  3  2  0
  3  4  1  0
  4  5  2  0
  5 27  1  0
  6  5  1  0
  7  6  2  0
  8  9  2  0
  8  7  1  0
  9  4  1  0
 10  7  1  0
 10 16  1  0
 11 10  1  0
 12 11  2  0
 12 13  1  0
 13 15  1  0
 14 13  2  0
 16 15  1  0
 16 17  2  0
 18 19  1  0
 18 20  1  0
 19 20  1  0
 20  1  1  0
 21 22  2  0
 22 18  1  0
 23 22  1  0
 24 23  2  0
 25 24  1  0
 25 26  2  0
 26 21  1  0
  2 28  1  0
 11 29  1  0
 12 30  1  0
 15 31  1  0
 18 32  1  6
 19 33  1  0
 19 34  1  0
 20 35  1  6
 21 36  1  0
 23 37  1  0
 25 38  1  0
 27 39  1  0
 27 40  1  0
M  ISO  8  28  14  29  14  30  14  31   9  32  13  33  13  34  13  35  13
M  ISO  3  36  14  37  14  38  14
M  END
>  <minimizedAffinity>  (1) 
-6.1549468

>  <minimizedRMSD>  (1) 
0.121605881

$$$$
