
     RDKit          3D

 44 49  0  0  1  0  0  0  0  0999 V2000
   45.9020   34.0200   43.9500 N   0  0  0  0  0  0  0  0  0  0  0  0
   45.1220   34.9550   44.5780 C   0  0  0  0  0  0  0  0  0  0  0  0
   44.9430   34.6410   45.8790 N   0  0  0  0  0  0  0  0  0  0  0  0
   45.5890   33.5120   46.1230 C   0  0  0  0  0  0  0  0  0  0  0  0
   45.7570   32.7420   47.2600 C   0  0  0  0  0  0  0  0  0  0  0  0
   46.4840   31.6360   47.2100 N   0  0  0  0  0  0  0  0  0  0  0  0
   47.0800   31.2250   46.0670 C   0  0  0  0  0  0  0  0  0  0  0  0
   46.9060   31.9910   44.9620 N   0  0  0  0  0  0  0  0  0  0  0  0
   46.1750   33.1300   44.9520 C   0  0  0  0  0  0  0  0  0  0  0  0
   47.9090   30.0630   45.7810 C   0  0  0  0  0  0  0  0  0  0  0  0
   47.9210   29.4310   44.5950 N   0  0  0  0  0  0  0  0  0  0  0  0
   48.6760   28.3700   44.3300 C   0  0  0  0  0  0  0  0  0  0  0  0
   49.5130   27.8090   45.2140 N   0  0  0  0  0  0  0  0  0  0  0  0
   49.5650   28.3830   46.4380 C   0  0  0  0  0  0  0  0  0  0  0  0
   50.4120   27.8240   47.3540 C   0  0  0  0  0  0  0  0  0  0  0  0
   50.5130   28.3590   48.6200 C   0  0  0  0  0  0  0  0  0  0  0  0
   49.7240   29.4720   48.9080 C   0  0  0  0  0  0  0  0  0  0  0  0
   48.8960   29.9810   47.9420 C   0  0  0  0  0  0  0  0  0  0  0  0
   48.7710   29.4810   46.6850 C   0  0  0  0  0  0  0  0  0  0  0  0
   45.7370   34.1000   41.3740 C   0  0  1  0  0  0  0  0  0  0  0  0
   46.5290   35.2190   41.9230 C   0  0  0  0  0  0  0  0  0  0  0  0
   46.4000   33.8700   42.6320 C   0  0  1  0  0  0  0  0  0  0  0  0
   43.5960   35.4430   41.1720 C   0  0  0  0  0  0  0  0  0  0  0  0
   44.2780   34.2070   41.2240 C   0  0  0  0  0  0  0  0  0  0  0  0
   43.5050   33.0620   41.1200 C   0  0  0  0  0  0  0  0  0  0  0  0
   42.1590   33.1760   40.9770 N   0  0  0  0  0  0  0  0  0  0  0  0
   41.5460   34.3860   40.9320 C   0  0  0  0  0  0  0  0  0  0  0  0
   42.2690   35.5270   41.0300 N   0  0  0  0  0  0  0  0  0  0  0  0
   45.1660   33.1020   48.4990 N   0  0  0  0  0  0  0  0  0  0  0  0
   44.6979   35.8435   44.0875 H   0  0  0  0  0  0  0  0  0  0  0  0
   48.6102   27.9259   43.3258 H   0  0  0  0  0  0  0  0  0  0  0  0
   51.0142   26.9452   47.0799 H   0  0  0  0  0  0  0  0  0  0  0  0
   51.1884   27.9258   49.3725 H   0  0  0  0  0  0  0  0  0  0  0  0
   49.7659   29.9381   49.9035 H   0  0  0  0  0  0  0  0  0  0  0  0
   48.2876   30.8593   48.2037 H   0  0  0  0  0  0  0  0  0  0  0  0
   45.7333   33.5432   40.4253 H   0  0  0  0  0  0  0  0  0  0  0  0
   47.4789   35.5131   41.4528 H   0  0  0  0  0  0  0  0  0  0  0  0
   46.3426   36.2721   42.1805 H   0  0  0  0  0  0  0  0  0  0  0  0
   46.9642   32.9799   42.9474 H   0  0  0  0  0  0  0  0  0  0  0  0
   44.1791   36.3723   41.2514 H   0  0  0  0  0  0  0  0  0  0  0  0
   43.9772   32.0691   41.1529 H   0  0  0  0  0  0  0  0  0  0  0  0
   40.4536   34.4404   40.8150 H   0  0  0  0  0  0  0  0  0  0  0  0
   45.3085   32.5091   49.3291 H   0  0  0  0  0  0  0  0  0  0  0  0
   44.5946   33.9562   48.5681 H   0  0  0  0  0  0  0  0  0  0  0  0
  1  2  1  0
  1  9  1  0
  2  3  2  0
  3  4  1  0
  4  5  2  0
  5 29  1  0
  6  5  1  0
  7  6  2  0
  8  7  1  0
  9  8  2  0
  9  4  1  0
 10  7  1  0
 10 19  1  0
 11 10  2  0
 12 11  1  0
 12 13  2  0
 13 14  1  0
 14 19  2  0
 14 15  1  0
 15 16  2  0
 16 17  1  0
 18 17  2  0
 19 18  1  0
 20 21  1  0
 20 22  1  0
 21 22  1  0
 22  1  1  0
 23 24  2  0
 24 20  1  0
 25 24  1  0
 26 25  2  0
 27 26  1  0
 27 28  2  0
 28 23  1  0
  2 30  1  0
 12 31  1  0
 15 32  1  0
 16 33  1  0
 17 34  1  0
 18 35  1  0
 20 36  1  6
 21 37  1  0
 21 38  1  0
 22 39  1  6
 23 40  1  0
 25 41  1  0
 27 42  1  0
 29 43  1  0
 29 44  1  0
M  ISO  8  30  14  31  14  32  14  33  14  34  14  35  14  36  13  37  13
M  ISO  5  38  13  39  13  40  14  41  14  42  14
M  END
>  <minimizedAffinity>  (1) 
-6.13172817

>  <minimizedRMSD>  (1) 
0.277775913

$$$$
