
     RDKit          3D

 35 37  0  0  0  0  0  0  0  0999 V2000
   47.7950   34.7090   41.3650 C   0  0  0  0  0  0  0  0  0  0  0  0
   47.3720   34.2160   40.0260 C   0  0  0  0  0  0  0  0  0  0  0  0
   48.2380   34.1890   38.9450 C   0  0  0  0  0  0  0  0  0  0  0  0
   47.9340   33.7510   37.6770 C   0  0  0  0  0  0  0  0  0  0  0  0
   46.6430   33.3110   37.5140 N   0  0  0  0  0  0  0  0  0  0  0  0
   45.7810   33.3330   38.5650 C   0  0  0  0  0  0  0  0  0  0  0  0
   46.1030   33.7690   39.8100 N   0  0  0  0  0  0  0  0  0  0  0  0
   44.4270   32.8510   38.3180 C   0  0  0  0  0  0  0  0  0  0  0  0
   43.3340   33.5730   38.7610 C   0  0  0  0  0  0  0  0  0  0  0  0
   42.0610   33.1230   38.5300 C   0  0  0  0  0  0  0  0  0  0  0  0
   41.8550   31.9820   37.8760 N   0  0  0  0  0  0  0  0  0  0  0  0
   42.9340   31.2880   37.4500 C   0  0  0  0  0  0  0  0  0  0  0  0
   44.2170   31.7040   37.6610 N   0  0  0  0  0  0  0  0  0  0  0  0
   47.3010   33.7500   42.4000 C   0  0  0  0  0  0  0  0  0  0  0  0
   44.7540   36.0110   44.0280 C   0  0  0  0  0  0  0  0  0  0  0  0
   45.6400   35.4630   43.0920 C   0  0  0  0  0  0  0  0  0  0  0  0
   46.3670   34.3350   43.3740 C   0  0  0  0  0  0  0  0  0  0  0  0
   46.2020   33.7680   44.5870 N   0  0  0  0  0  0  0  0  0  0  0  0
   45.3280   34.3190   45.4940 C   0  0  0  0  0  0  0  0  0  0  0  0
   44.6320   35.4030   45.2180 N   0  0  0  0  0  0  0  0  0  0  0  0
   45.2380   33.6160   46.7690 C   0  0  0  0  0  0  0  0  0  0  0  0
   45.8730   32.5470   46.9480 O   0  0  0  0  0  0  0  0  0  0  0  0
   44.4580   34.0900   47.8170 O   0  0  0  0  0  0  0  0  0  0  0  0
   47.3653   35.7052   41.5466 H   0  0  0  0  0  0  0  0  0  0  0  0
   48.8916   34.7822   41.4111 H   0  0  0  0  0  0  0  0  0  0  0  0
   49.2625   34.5510   39.1164 H   0  0  0  0  0  0  0  0  0  0  0  0
   48.6676   33.7529   36.8573 H   0  0  0  0  0  0  0  0  0  0  0  0
   43.4882   34.5172   39.3038 H   0  0  0  0  0  0  0  0  0  0  0  0
   41.2019   33.7093   38.8879 H   0  0  0  0  0  0  0  0  0  0  0  0
   42.7707   30.3446   36.9084 H   0  0  0  0  0  0  0  0  0  0  0  0
   46.7890   32.9230   41.8863 H   0  0  0  0  0  0  0  0  0  0  0  0
   48.1828   33.4209   42.9693 H   0  0  0  0  0  0  0  0  0  0  0  0
   44.1736   36.9156   43.7939 H   0  0  0  0  0  0  0  0  0  0  0  0
   45.7550   35.9471   42.1110 H   0  0  0  0  0  0  0  0  0  0  0  0
   44.4181   33.5893   48.6701 H   0  0  0  0  0  0  0  0  0  0  0  0
  1 14  1  0
  2  1  1  0
  3  2  2  0
  4  3  1  0
  5  4  2  0
  5  6  1  0
  6  7  2  0
  7  2  1  0
  8  6  1  0
  8  9  2  0
 10  9  1  0
 11 10  2  0
 12 13  2  0
 12 11  1  0
 13  8  1  0
 14 17  1  0
 15 20  2  0
 16 17  2  0
 16 15  1  0
 17 18  1  0
 18 19  2  0
 19 21  1  0
 20 19  1  0
 21 22  2  0
 21 23  1  0
  1 24  1  0
  1 25  1  0
  3 26  1  0
  4 27  1  0
  9 28  1  0
 10 29  1  0
 12 30  1  0
 14 31  1  0
 14 32  1  0
 15 33  1  0
 16 34  1  0
 23 35  1  0
M  ISO  8  24   8  25   8  26  14  27  14  28  14  29  14  30  14  31   8
M  ISO  4  32   8  33  14  34  14  35   3
M  END
>  <minimizedAffinity>  (1) 
-5.65121365

>  <minimizedRMSD>  (1) 
0.181458116

$$$$
