
     RDKit          3D

 37 40  0  0  1  0  0  0  0  0999 V2000
   45.9060   33.9070   43.9700 N   0  0  0  0  0  0  0  0  0  0  0  0
   45.1230   34.8280   44.5950 C   0  0  0  0  0  0  0  0  0  0  0  0
   44.9830   34.5280   45.9070 N   0  0  0  0  0  0  0  0  0  0  0  0
   45.6570   33.4320   46.1590 C   0  0  0  0  0  0  0  0  0  0  0  0
   45.8680   32.6920   47.3050 C   0  0  0  0  0  0  0  0  0  0  0  0
   46.6340   31.5850   47.2650 N   0  0  0  0  0  0  0  0  0  0  0  0
   47.2050   31.1830   46.1080 C   0  0  0  0  0  0  0  0  0  0  0  0
   46.9930   31.9150   44.9870 N   0  0  0  0  0  0  0  0  0  0  0  0
   46.2260   33.0400   44.9810 C   0  0  0  0  0  0  0  0  0  0  0  0
   48.0180   30.0170   46.0390 N   0  0  0  0  0  0  0  0  0  0  0  0
   48.0230   29.0540   47.0750 C   0  0  0  0  0  0  0  0  0  0  0  0
   47.7740   29.5060   48.2680 N   0  0  0  0  0  0  0  0  0  0  0  0
   48.3020   27.6930   46.6800 N   0  0  0  0  0  0  0  0  0  0  0  0
   47.7500   28.8930   49.1110 H   0  0  0  0  0  0  0  0  0  0  0  0
   45.7110   34.0170   41.3910 C   0  0  1  0  0  0  0  0  0  0  0  0
   46.5630   35.0910   41.9400 C   0  0  0  0  0  0  0  0  0  0  0  0
   46.3790   33.7420   42.6430 C   0  0  1  0  0  0  0  0  0  0  0  0
   43.6320   35.4470   41.2180 C   0  0  0  0  0  0  0  0  0  0  0  0
   44.2560   34.1830   41.2670 C   0  0  0  0  0  0  0  0  0  0  0  0
   43.4290   33.0770   41.1870 C   0  0  0  0  0  0  0  0  0  0  0  0
   42.0870   33.2590   41.0660 N   0  0  0  0  0  0  0  0  0  0  0  0
   41.5250   34.4850   41.0220 C   0  0  0  0  0  0  0  0  0  0  0  0
   42.3070   35.5890   41.0980 N   0  0  0  0  0  0  0  0  0  0  0  0
   45.2990   33.0660   48.5510 N   0  0  0  0  0  0  0  0  0  0  0  0
   44.6660   35.6980   44.1008 H   0  0  0  0  0  0  0  0  0  0  0  0
   48.6175   29.8707   45.2143 H   0  0  0  0  0  0  0  0  0  0  0  0
   48.3201   26.9448   47.3876 H   0  0  0  0  0  0  0  0  0  0  0  0
   48.4828   27.4707   45.6907 H   0  0  0  0  0  0  0  0  0  0  0  0
   45.6703   33.4774   40.4333 H   0  0  0  0  0  0  0  0  0  0  0  0
   47.5201   35.3431   41.4600 H   0  0  0  0  0  0  0  0  0  0  0  0
   46.4301   36.1495   42.2082 H   0  0  0  0  0  0  0  0  0  0  0  0
   46.9022   32.8226   42.9446 H   0  0  0  0  0  0  0  0  0  0  0  0
   44.2579   36.3494   41.2808 H   0  0  0  0  0  0  0  0  0  0  0  0
   43.8521   32.0622   41.2209 H   0  0  0  0  0  0  0  0  0  0  0  0
   40.4342   34.5880   40.9246 H   0  0  0  0  0  0  0  0  0  0  0  0
   45.4741   32.4940   49.3895 H   0  0  0  0  0  0  0  0  0  0  0  0
   44.7112   33.9093   48.6163 H   0  0  0  0  0  0  0  0  0  0  0  0
  1  2  1  0
  1  9  1  0
  2  3  2  0
  3  4  1  0
  4  5  2  0
  5 24  1  0
  6  5  1  0
  7  6  2  0
  8  7  1  0
  9  8  2  0
  9  4  1  0
 10  7  1  0
 10 11  1  0
 11 12  2  0
 12 14  1  0
 13 11  1  0
 15 16  1  0
 15 17  1  0
 16 17  1  0
 17  1  1  0
 18 19  2  0
 19 15  1  0
 20 19  1  0
 21 20  2  0
 22 21  1  0
 22 23  2  0
 23 18  1  0
  2 25  1  0
 10 26  1  0
 13 27  1  0
 13 28  1  0
 15 29  1  6
 16 30  1  0
 16 31  1  0
 17 32  1  6
 18 33  1  0
 20 34  1  0
 22 35  1  0
 24 36  1  0
 24 37  1  0
M  ISO  8  25  14  29  13  30  13  31  13  32  13  33  14  34  14  35  14
M  END
>  <minimizedAffinity>  (1) 
-6.02281666

>  <minimizedRMSD>  (1) 
0.177695081

$$$$
