
     RDKit          3D

 43 47  0  0  1  0  0  0  0  0999 V2000
   45.7890   33.9390   43.9180 N   0  0  0  0  0  0  0  0  0  0  0  0
   45.0900   34.8850   44.5960 C   0  0  0  0  0  0  0  0  0  0  0  0
   44.9960   34.5750   45.9070 N   0  0  0  0  0  0  0  0  0  0  0  0
   45.6210   33.4400   46.1110 C   0  0  0  0  0  0  0  0  0  0  0  0
   45.8550   32.6540   47.2350 C   0  0  0  0  0  0  0  0  0  0  0  0
   46.5450   31.5240   47.1420 N   0  0  0  0  0  0  0  0  0  0  0  0
   47.0370   31.1150   45.9490 C   0  0  0  0  0  0  0  0  0  0  0  0
   46.8140   31.8710   44.8600 N   0  0  0  0  0  0  0  0  0  0  0  0
   46.1110   33.0400   44.8990 C   0  0  0  0  0  0  0  0  0  0  0  0
   45.4600   34.0510   41.3540 C   0  0  1  0  0  0  0  0  0  0  0  0
   46.3550   35.1110   41.8610 C   0  0  0  0  0  0  0  0  0  0  0  0
   46.1900   33.7690   42.5710 C   0  0  1  0  0  0  0  0  0  0  0  0
   43.3960   35.5150   41.2870 C   0  0  0  0  0  0  0  0  0  0  0  0
   44.0030   34.2400   41.3080 C   0  0  0  0  0  0  0  0  0  0  0  0
   43.1640   33.1400   41.2740 C   0  0  0  0  0  0  0  0  0  0  0  0
   41.8180   33.3270   41.2220 N   0  0  0  0  0  0  0  0  0  0  0  0
   41.2750   34.5760   41.2040 C   0  0  0  0  0  0  0  0  0  0  0  0
   42.0680   35.6730   41.2360 N   0  0  0  0  0  0  0  0  0  0  0  0
   47.7940   29.8680   45.8690 C   0  0  0  0  0  0  0  0  0  0  0  0
   48.7710   29.6480   47.0050 C   0  0  0  0  0  0  0  0  0  0  0  0
   49.4540   28.3740   46.5220 C   0  0  0  0  0  0  0  0  0  0  0  0
   49.4400   28.4590   45.0100 C   0  0  0  0  0  0  0  0  0  0  0  0
   48.7580   29.7980   44.6940 C   0  0  0  0  0  0  0  0  0  0  0  0
   45.3620   33.0540   48.5120 N   0  0  0  0  0  0  0  0  0  0  0  0
   44.6569   35.7862   44.1374 H   0  0  0  0  0  0  0  0  0  0  0  0
   45.3613   33.5122   40.4001 H   0  0  0  0  0  0  0  0  0  0  0  0
   47.2898   35.3501   41.3328 H   0  0  0  0  0  0  0  0  0  0  0  0
   46.2506   36.1708   42.1366 H   0  0  0  0  0  0  0  0  0  0  0  0
   46.7170   32.8434   42.8459 H   0  0  0  0  0  0  0  0  0  0  0  0
   44.0366   36.4088   41.3135 H   0  0  0  0  0  0  0  0  0  0  0  0
   43.5824   32.1228   41.2889 H   0  0  0  0  0  0  0  0  0  0  0  0
   40.1822   34.6946   41.1631 H   0  0  0  0  0  0  0  0  0  0  0  0
   46.9648   29.1460   45.8335 H   0  0  0  0  0  0  0  0  0  0  0  0
   49.4820   30.4820   47.0995 H   0  0  0  0  0  0  0  0  0  0  0  0
   48.3138   29.5793   48.0031 H   0  0  0  0  0  0  0  0  0  0  0  0
   50.4876   28.3261   46.8953 H   0  0  0  0  0  0  0  0  0  0  0  0
   48.9411   27.4715   46.8859 H   0  0  0  0  0  0  0  0  0  0  0  0
   50.4655   28.4440   44.6123 H   0  0  0  0  0  0  0  0  0  0  0  0
   48.9128   27.6086   44.5530 H   0  0  0  0  0  0  0  0  0  0  0  0
   49.4726   30.6343   44.6983 H   0  0  0  0  0  0  0  0  0  0  0  0
   48.2921   29.8646   43.6998 H   0  0  0  0  0  0  0  0  0  0  0  0
   45.5393   32.4668   49.3395 H   0  0  0  0  0  0  0  0  0  0  0  0
   44.8287   33.9301   48.6068 H   0  0  0  0  0  0  0  0  0  0  0  0
  1  2  1  0
  1  9  1  0
  2  3  2  0
  3  4  1  0
  4  5  2  0
  5 24  1  0
  6  5  1  0
  7  6  2  0
  8  9  2  0
  8  7  1  0
  9  4  1  0
 10 11  1  0
 10 12  1  0
 11 12  1  0
 12  1  1  0
 13 14  2  0
 14 10  1  0
 15 14  1  0
 16 15  2  0
 17 16  1  0
 17 18  2  0
 18 13  1  0
 19  7  1  0
 19 20  1  0
 21 20  1  0
 22 21  1  0
 23 22  1  0
 23 19  1  0
  2 25  1  0
 10 26  1  6
 11 27  1  0
 11 28  1  0
 12 29  1  1
 13 30  1  0
 15 31  1  0
 17 32  1  0
 19 33  1  0
 20 34  1  0
 20 35  1  0
 21 36  1  0
 21 37  1  0
 22 38  1  0
 22 39  1  0
 23 40  1  0
 23 41  1  0
 24 42  1  0
 24 43  1  0
M  ISO  8  25  14  26  13  27  13  28  13  29  13  30  14  31  14  32  14
M  ISO  8  33  13  34  13  35  13  36  13  37  13  38  13  39  13  40  13
M  ISO  1  41  13
M  END
>  <minimizedAffinity>  (1) 
-5.69589806

>  <minimizedRMSD>  (1) 
0.227686629

$$$$
