
     RDKit          3D

 42 46  0  0  1  0  0  0  0  0999 V2000
   45.8810   33.9750   43.9520 N   0  0  0  0  0  0  0  0  0  0  0  0
   45.0860   34.8620   44.6050 C   0  0  0  0  0  0  0  0  0  0  0  0
   44.9670   34.5340   45.9100 N   0  0  0  0  0  0  0  0  0  0  0  0
   45.6740   33.4420   46.1280 C   0  0  0  0  0  0  0  0  0  0  0  0
   45.9150   32.6860   47.2670 C   0  0  0  0  0  0  0  0  0  0  0  0
   46.7080   31.6050   47.1900 N   0  0  0  0  0  0  0  0  0  0  0  0
   47.2690   31.2480   46.0250 C   0  0  0  0  0  0  0  0  0  0  0  0
   47.0290   31.9890   44.9190 N   0  0  0  0  0  0  0  0  0  0  0  0
   46.2330   33.0980   44.9320 C   0  0  0  0  0  0  0  0  0  0  0  0
   48.1080   30.1030   45.9480 N   0  0  0  0  0  0  0  0  0  0  0  0
   48.4440   29.2260   47.0540 C   0  0  0  0  0  0  0  0  0  0  0  0
   49.5740   28.3680   46.5870 C   0  0  0  0  0  0  0  0  0  0  0  0
   49.3170   28.2550   45.1000 C   0  0  0  0  0  0  0  0  0  0  0  0
   48.7690   29.6190   44.7440 C   0  0  0  0  0  0  0  0  0  0  0  0
   45.6550   34.1180   41.3750 C   0  0  1  0  0  0  0  0  0  0  0  0
   46.4820   35.2090   41.9300 C   0  0  0  0  0  0  0  0  0  0  0  0
   46.3450   33.8460   42.6170 C   0  0  1  0  0  0  0  0  0  0  0  0
   43.5360   35.5040   41.2490 C   0  0  0  0  0  0  0  0  0  0  0  0
   44.1950   34.2570   41.2730 C   0  0  0  0  0  0  0  0  0  0  0  0
   43.3910   33.1330   41.1880 C   0  0  0  0  0  0  0  0  0  0  0  0
   42.0460   33.2780   41.0880 N   0  0  0  0  0  0  0  0  0  0  0  0
   41.4490   34.4920   41.0670 C   0  0  0  0  0  0  0  0  0  0  0  0
   42.2070   35.6110   41.1490 N   0  0  0  0  0  0  0  0  0  0  0  0
   45.3410   33.0340   48.5210 N   0  0  0  0  0  0  0  0  0  0  0  0
   44.6036   35.7312   44.1341 H   0  0  0  0  0  0  0  0  0  0  0  0
   48.7526   29.8181   47.9282 H   0  0  0  0  0  0  0  0  0  0  0  0
   47.5794   28.6160   47.3547 H   0  0  0  0  0  0  0  0  0  0  0  0
   50.5439   28.8472   46.7862 H   0  0  0  0  0  0  0  0  0  0  0  0
   49.6205   27.3940   47.0961 H   0  0  0  0  0  0  0  0  0  0  0  0
   50.2484   28.0481   44.5526 H   0  0  0  0  0  0  0  0  0  0  0  0
   48.6345   27.4325   44.8396 H   0  0  0  0  0  0  0  0  0  0  0  0
   49.5855   30.2973   44.4554 H   0  0  0  0  0  0  0  0  0  0  0  0
   48.0755   29.5688   43.8916 H   0  0  0  0  0  0  0  0  0  0  0  0
   45.6189   33.5854   40.4132 H   0  0  0  0  0  0  0  0  0  0  0  0
   47.4261   35.4951   41.4434 H   0  0  0  0  0  0  0  0  0  0  0  0
   46.3214   36.2595   42.2140 H   0  0  0  0  0  0  0  0  0  0  0  0
   46.8994   32.9394   42.9011 H   0  0  0  0  0  0  0  0  0  0  0  0
   44.1378   36.4224   41.3150 H   0  0  0  0  0  0  0  0  0  0  0  0
   43.8400   32.1289   41.2015 H   0  0  0  0  0  0  0  0  0  0  0  0
   40.3549   34.5694   40.9838 H   0  0  0  0  0  0  0  0  0  0  0  0
   45.5337   32.4583   49.3531 H   0  0  0  0  0  0  0  0  0  0  0  0
   44.7327   33.8617   48.5970 H   0  0  0  0  0  0  0  0  0  0  0  0
  1  2  1  0
  1  9  1  0
  2  3  2  0
  3  4  1  0
  4  5  2  0
  5 24  1  0
  6  5  1  0
  7  6  2  0
  8  9  2  0
  8  7  1  0
  9  4  1  0
 10  7  1  0
 10 11  1  0
 12 11  1  0
 13 12  1  0
 14 13  1  0
 14 10  1  0
 15 16  1  0
 15 17  1  0
 16 17  1  0
 17  1  1  0
 18 19  2  0
 19 15  1  0
 20 19  1  0
 21 20  2  0
 22 21  1  0
 22 23  2  0
 23 18  1  0
  2 25  1  0
 11 26  1  0
 11 27  1  0
 12 28  1  0
 12 29  1  0
 13 30  1  0
 13 31  1  0
 14 32  1  0
 14 33  1  0
 15 34  1  6
 16 35  1  0
 16 36  1  0
 17 37  1  6
 18 38  1  0
 20 39  1  0
 22 40  1  0
 24 41  1  0
 24 42  1  0
M  ISO  8  25  14  26  13  27  13  28  13  29  13  30  13  31  13  32  13
M  ISO  8  33  13  34  13  35  13  36  13  37  13  38  14  39  14  40  14
M  END
>  <minimizedAffinity>  (1) 
-5.89171457

>  <minimizedRMSD>  (1) 
0.0995386988

$$$$
