
     RDKit          3D

 44 48  0  0  1  0  0  0  0  0999 V2000
   45.8450   33.9550   43.9530 N   0  0  0  0  0  0  0  0  0  0  0  0
   45.0760   34.8500   44.6260 C   0  0  0  0  0  0  0  0  0  0  0  0
   44.9860   34.5210   45.9350 N   0  0  0  0  0  0  0  0  0  0  0  0
   45.6830   33.4230   46.1340 C   0  0  0  0  0  0  0  0  0  0  0  0
   45.9540   32.6460   47.2600 C   0  0  0  0  0  0  0  0  0  0  0  0
   46.7280   31.5590   47.1570 N   0  0  0  0  0  0  0  0  0  0  0  0
   47.2520   31.2020   45.9760 C   0  0  0  0  0  0  0  0  0  0  0  0
   46.9910   31.9520   44.8870 N   0  0  0  0  0  0  0  0  0  0  0  0
   46.2110   33.0710   44.9250 C   0  0  0  0  0  0  0  0  0  0  0  0
   48.0760   30.0490   45.8520 N   0  0  0  0  0  0  0  0  0  0  0  0
   48.3850   29.4690   44.5580 C   0  0  0  0  0  0  0  0  0  0  0  0
   49.8950   29.4300   44.4560 C   0  0  0  0  0  0  0  0  0  0  0  0
   50.5590   29.0060   45.6430 N   0  0  0  0  0  0  0  0  0  0  0  0
   49.7400   28.4500   46.6700 C   0  0  0  0  0  0  0  0  0  0  0  0
   48.6340   29.4190   47.0330 C   0  0  0  0  0  0  0  0  0  0  0  0
   45.5600   34.1120   41.3830 C   0  0  1  0  0  0  0  0  0  0  0  0
   46.4170   35.1850   41.9250 C   0  0  0  0  0  0  0  0  0  0  0  0
   46.2750   33.8240   42.6080 C   0  0  1  0  0  0  0  0  0  0  0  0
   43.4610   35.5330   41.2940 C   0  0  0  0  0  0  0  0  0  0  0  0
   44.1000   34.2740   41.3160 C   0  0  0  0  0  0  0  0  0  0  0  0
   43.2800   33.1590   41.2620 C   0  0  0  0  0  0  0  0  0  0  0  0
   41.9330   33.3270   41.1920 N   0  0  0  0  0  0  0  0  0  0  0  0
   41.3560   34.5460   41.1730 C   0  0  0  0  0  0  0  0  0  0  0  0
   42.1300   35.6560   41.2250 N   0  0  0  0  0  0  0  0  0  0  0  0
   45.4190   33.0010   48.5320 N   0  0  0  0  0  0  0  0  0  0  0  0
   44.5915   35.7249   44.1680 H   0  0  0  0  0  0  0  0  0  0  0  0
   47.9727   28.4515   44.4890 H   0  0  0  0  0  0  0  0  0  0  0  0
   47.9455   30.0602   43.7411 H   0  0  0  0  0  0  0  0  0  0  0  0
   50.1663   28.7379   43.6452 H   0  0  0  0  0  0  0  0  0  0  0  0
   50.2215   30.4635   44.2685 H   0  0  0  0  0  0  0  0  0  0  0  0
   51.2519   28.2924   45.3754 H   0  0  0  0  0  0  0  0  0  0  0  0
   49.2968   27.5088   46.3127 H   0  0  0  0  0  0  0  0  0  0  0  0
   50.3577   28.2578   47.5597 H   0  0  0  0  0  0  0  0  0  0  0  0
   49.0423   30.1969   47.6949 H   0  0  0  0  0  0  0  0  0  0  0  0
   47.8336   28.8585   47.5382 H   0  0  0  0  0  0  0  0  0  0  0  0
   45.4927   33.5857   40.4194 H   0  0  0  0  0  0  0  0  0  0  0  0
   47.3542   35.4584   41.4182 H   0  0  0  0  0  0  0  0  0  0  0  0
   46.2797   36.2363   42.2180 H   0  0  0  0  0  0  0  0  0  0  0  0
   46.8215   32.9075   42.8753 H   0  0  0  0  0  0  0  0  0  0  0  0
   44.0776   36.4430   41.3349 H   0  0  0  0  0  0  0  0  0  0  0  0
   43.7142   32.1484   41.2756 H   0  0  0  0  0  0  0  0  0  0  0  0
   40.2614   34.6381   41.1155 H   0  0  0  0  0  0  0  0  0  0  0  0
   45.6250   32.4206   49.3575 H   0  0  0  0  0  0  0  0  0  0  0  0
   44.8262   33.8381   48.6260 H   0  0  0  0  0  0  0  0  0  0  0  0
  1  2  1  0
  1  9  1  0
  2  3  2  0
  3  4  1  0
  4  5  2  0
  5 25  1  0
  6  5  1  0
  7  6  2  0
  8  9  2  0
  8  7  1  0
  9  4  1  0
 10  7  1  0
 10 15  1  0
 11 10  1  0
 12 11  1  0
 12 13  1  0
 13 14  1  0
 14 15  1  0
 16 17  1  0
 16 18  1  0
 17 18  1  0
 18  1  1  0
 19 20  2  0
 20 16  1  0
 21 20  1  0
 22 21  2  0
 23 22  1  0
 23 24  2  0
 24 19  1  0
  2 26  1  0
 11 27  1  0
 11 28  1  0
 12 29  1  0
 12 30  1  0
 13 31  1  0
 14 32  1  0
 14 33  1  0
 15 34  1  0
 15 35  1  0
 16 36  1  6
 17 37  1  0
 17 38  1  0
 18 39  1  6
 19 40  1  0
 21 41  1  0
 23 42  1  0
 25 43  1  0
 25 44  1  0
M  ISO  8  26  14  27  13  28  13  29  13  30  13  31   5  32  13  33  13
M  ISO  8  34  13  35  13  36  13  37  13  38  13  39  13  40  14  41  14
M  ISO  1  42  14
M  END
>  <minimizedAffinity>  (1) 
-5.97632885

>  <minimizedRMSD>  (1) 
0.0246276613

$$$$
