
     RDKit          3D

 40 44  0  0  1  0  0  0  0  0999 V2000
   45.8540   33.9900   43.9590 N   0  0  0  0  0  0  0  0  0  0  0  0
   45.0620   34.8990   44.5940 C   0  0  0  0  0  0  0  0  0  0  0  0
   44.9260   34.5880   45.9000 N   0  0  0  0  0  0  0  0  0  0  0  0
   45.6110   33.4950   46.1370 C   0  0  0  0  0  0  0  0  0  0  0  0
   45.8430   32.7360   47.2830 C   0  0  0  0  0  0  0  0  0  0  0  0
   46.6110   31.6580   47.2260 N   0  0  0  0  0  0  0  0  0  0  0  0
   47.1900   31.2660   46.0680 C   0  0  0  0  0  0  0  0  0  0  0  0
   46.9640   32.0030   44.9580 N   0  0  0  0  0  0  0  0  0  0  0  0
   46.1830   33.1210   44.9530 C   0  0  0  0  0  0  0  0  0  0  0  0
   48.0300   30.0730   46.0410 C   0  0  0  0  0  0  0  0  0  0  0  0
   48.6110   29.6880   44.8510 C   0  0  0  0  0  0  0  0  0  0  0  0
   49.4090   28.5370   44.8740 C   0  0  0  0  0  0  0  0  0  0  0  0
   49.5770   27.8500   46.0670 C   0  0  0  0  0  0  0  0  0  0  0  0
   48.9790   28.2570   47.2640 C   0  0  0  0  0  0  0  0  0  0  0  0
   48.1940   29.3920   47.2300 C   0  0  0  0  0  0  0  0  0  0  0  0
   45.6650   34.1190   41.3780 C   0  0  1  0  0  0  0  0  0  0  0  0
   46.4870   35.2100   41.9390 C   0  0  0  0  0  0  0  0  0  0  0  0
   46.3330   33.8490   42.6310 C   0  0  1  0  0  0  0  0  0  0  0  0
   43.5520   35.5020   41.2270 C   0  0  0  0  0  0  0  0  0  0  0  0
   44.2050   34.2490   41.2560 C   0  0  0  0  0  0  0  0  0  0  0  0
   43.4090   33.1230   41.1570 C   0  0  0  0  0  0  0  0  0  0  0  0
   42.0620   33.2700   41.0360 N   0  0  0  0  0  0  0  0  0  0  0  0
   41.4670   34.4810   41.0100 C   0  0  0  0  0  0  0  0  0  0  0  0
   42.2220   35.6000   41.1060 N   0  0  0  0  0  0  0  0  0  0  0  0
   45.2760   33.1070   48.5330 N   0  0  0  0  0  0  0  0  0  0  0  0
   44.5964   35.7689   44.1077 H   0  0  0  0  0  0  0  0  0  0  0  0
   48.4546   30.2597   43.9244 H   0  0  0  0  0  0  0  0  0  0  0  0
   49.8976   28.1815   43.9548 H   0  0  0  0  0  0  0  0  0  0  0  0
   50.2065   26.9479   46.0720 H   0  0  0  0  0  0  0  0  0  0  0  0
   49.1285   27.6940   48.1971 H   0  0  0  0  0  0  0  0  0  0  0  0
   47.7019   29.7516   48.1457 H   0  0  0  0  0  0  0  0  0  0  0  0
   45.6433   33.5888   40.4144 H   0  0  0  0  0  0  0  0  0  0  0  0
   47.4397   35.4898   41.4657 H   0  0  0  0  0  0  0  0  0  0  0  0
   46.3265   36.2627   42.2148 H   0  0  0  0  0  0  0  0  0  0  0  0
   46.8755   32.9391   42.9272 H   0  0  0  0  0  0  0  0  0  0  0  0
   44.1519   36.4207   41.3059 H   0  0  0  0  0  0  0  0  0  0  0  0
   43.8597   32.1197   41.1759 H   0  0  0  0  0  0  0  0  0  0  0  0
   40.3742   34.5581   40.9113 H   0  0  0  0  0  0  0  0  0  0  0  0
   45.4571   32.5355   49.3705 H   0  0  0  0  0  0  0  0  0  0  0  0
   44.6842   33.9473   48.6010 H   0  0  0  0  0  0  0  0  0  0  0  0
  1  2  1  0
  1  9  1  0
  2  3  2  0
  3  4  1  0
  4  5  2  0
  5 25  1  0
  6  5  1  0
  7  6  2  0
  8  7  1  0
  9  8  2  0
  9  4  1  0
 10  7  1  0
 10 15  2  0
 11 12  2  0
 11 10  1  0
 12 13  1  0
 13 14  2  0
 15 14  1  0
 16 17  1  0
 16 18  1  0
 17 18  1  0
 18  1  1  0
 19 20  2  0
 20 16  1  0
 21 20  1  0
 22 21  2  0
 23 22  1  0
 23 24  2  0
 24 19  1  0
  2 26  1  0
 11 27  1  0
 12 28  1  0
 13 29  1  0
 14 30  1  0
 15 31  1  0
 16 32  1  6
 17 33  1  0
 17 34  1  0
 18 35  1  6
 19 36  1  0
 21 37  1  0
 23 38  1  0
 25 39  1  0
 25 40  1  0
M  ISO  8  26  14  27  14  28  14  29  14  30  14  31  14  32  13  33  13
M  ISO  5  34  13  35  13  36  14  37  14  38  14
M  END
>  <minimizedAffinity>  (1) 
-5.76294422

>  <minimizedRMSD>  (1) 
0.52626282

$$$$
