
     RDKit          3D

 37 41  0  0  1  0  0  0  0  0999 V2000
   45.8440   33.9640   43.9620 N   0  0  0  0  0  0  0  0  0  0  0  0
   45.0630   34.8540   44.6320 C   0  0  0  0  0  0  0  0  0  0  0  0
   44.9670   34.5260   45.9400 N   0  0  0  0  0  0  0  0  0  0  0  0
   45.6680   33.4380   46.1440 C   0  0  0  0  0  0  0  0  0  0  0  0
   45.9290   32.6780   47.2670 C   0  0  0  0  0  0  0  0  0  0  0  0
   46.7080   31.5920   47.1860 N   0  0  0  0  0  0  0  0  0  0  0  0
   47.2580   31.2200   45.9990 C   0  0  0  0  0  0  0  0  0  0  0  0
   46.9970   31.9710   44.9070 N   0  0  0  0  0  0  0  0  0  0  0  0
   46.2100   33.0820   44.9410 C   0  0  0  0  0  0  0  0  0  0  0  0
   48.0960   30.0790   45.8340 N   0  0  0  0  0  0  0  0  0  0  0  0
   48.3400   29.3130   46.9320 C   0  0  0  0  0  0  0  0  0  0  0  0
   49.1710   28.2770   46.5200 C   0  0  0  0  0  0  0  0  0  0  0  0
   49.4110   28.4380   45.1860 N   0  0  0  0  0  0  0  0  0  0  0  0
   48.7450   29.5530   44.7640 C   0  0  0  0  0  0  0  0  0  0  0  0
   45.5760   34.1310   41.3930 C   0  0  1  0  0  0  0  0  0  0  0  0
   46.4280   35.2030   41.9460 C   0  0  0  0  0  0  0  0  0  0  0  0
   46.2820   33.8360   42.6180 C   0  0  1  0  0  0  0  0  0  0  0  0
   43.4760   35.5360   41.2900 C   0  0  0  0  0  0  0  0  0  0  0  0
   44.1150   34.2780   41.3140 C   0  0  0  0  0  0  0  0  0  0  0  0
   43.3030   33.1620   41.2520 C   0  0  0  0  0  0  0  0  0  0  0  0
   41.9550   33.3260   41.1720 N   0  0  0  0  0  0  0  0  0  0  0  0
   41.3750   34.5430   41.1500 C   0  0  0  0  0  0  0  0  0  0  0  0
   42.1460   35.6550   41.2100 N   0  0  0  0  0  0  0  0  0  0  0  0
   45.4000   33.0190   48.5390 N   0  0  0  0  0  0  0  0  0  0  0  0
   44.5745   35.7249   44.1707 H   0  0  0  0  0  0  0  0  0  0  0  0
   47.9545   29.4808   47.9485 H   0  0  0  0  0  0  0  0  0  0  0  0
   49.5650   27.4708   47.1562 H   0  0  0  0  0  0  0  0  0  0  0  0
   48.7360   29.9535   43.7396 H   0  0  0  0  0  0  0  0  0  0  0  0
   45.5161   33.6153   40.4232 H   0  0  0  0  0  0  0  0  0  0  0  0
   47.3680   35.4809   41.4469 H   0  0  0  0  0  0  0  0  0  0  0  0
   46.2881   36.2524   42.2448 H   0  0  0  0  0  0  0  0  0  0  0  0
   46.8254   32.9166   42.8815 H   0  0  0  0  0  0  0  0  0  0  0  0
   44.0906   36.4470   41.3386 H   0  0  0  0  0  0  0  0  0  0  0  0
   43.7412   32.1532   41.2671 H   0  0  0  0  0  0  0  0  0  0  0  0
   40.2806   34.6324   41.0836 H   0  0  0  0  0  0  0  0  0  0  0  0
   45.6120   32.4328   49.3589 H   0  0  0  0  0  0  0  0  0  0  0  0
   44.8040   33.8527   48.6422 H   0  0  0  0  0  0  0  0  0  0  0  0
  1  2  1  0
  1  9  1  0
  2  3  2  0
  3  4  1  0
  4  5  2  0
  5 24  1  0
  6  5  1  0
  7  6  2  0
  8  9  2  0
  8  7  1  0
  9  4  1  0
 10  7  1  0
 10 11  1  0
 12 11  2  0
 13 12  1  0
 14 13  2  0
 14 10  1  0
 15 16  1  0
 15 17  1  0
 16 17  1  0
 17  1  1  0
 18 19  2  0
 19 15  1  0
 20 19  1  0
 21 20  2  0
 22 21  1  0
 22 23  2  0
 23 18  1  0
  2 25  1  0
 11 26  1  0
 12 27  1  0
 14 28  1  0
 15 29  1  6
 16 30  1  0
 16 31  1  0
 17 32  1  6
 18 33  1  0
 20 34  1  0
 22 35  1  0
 24 36  1  0
 24 37  1  0
M  ISO  8  25  14  26  14  27  14  28  14  29  13  30  13  31  13  32  13
M  ISO  3  33  14  34  14  35  14
M  END
>  <minimizedAffinity>  (1) 
-5.85699701

>  <minimizedRMSD>  (1) 
0.0487255566

$$$$
