
     RDKit          3D

 34 36  0  0  0  0  0  0  0  0999 V2000
   47.6580   34.6830   41.5410 C   0  0  0  0  0  0  0  0  0  0  0  0
   47.2910   34.2090   40.1800 C   0  0  0  0  0  0  0  0  0  0  0  0
   48.1810   34.1920   39.1240 C   0  0  0  0  0  0  0  0  0  0  0  0
   47.9250   33.7730   37.8470 C   0  0  0  0  0  0  0  0  0  0  0  0
   46.6430   33.3310   37.6320 N   0  0  0  0  0  0  0  0  0  0  0  0
   45.7570   33.3380   38.6480 C   0  0  0  0  0  0  0  0  0  0  0  0
   46.0230   33.7550   39.9060 N   0  0  0  0  0  0  0  0  0  0  0  0
   44.4070   32.8520   38.3500 C   0  0  0  0  0  0  0  0  0  0  0  0
   43.2910   33.5600   38.7740 C   0  0  0  0  0  0  0  0  0  0  0  0
   42.0310   33.1030   38.4930 C   0  0  0  0  0  0  0  0  0  0  0  0
   41.8570   31.9820   37.8160 N   0  0  0  0  0  0  0  0  0  0  0  0
   42.9570   31.2910   37.4030 C   0  0  0  0  0  0  0  0  0  0  0  0
   44.2230   31.7200   37.6660 N   0  0  0  0  0  0  0  0  0  0  0  0
   47.1030   33.7150   42.5400 C   0  0  0  0  0  0  0  0  0  0  0  0
   44.6760   36.0390   44.2530 C   0  0  0  0  0  0  0  0  0  0  0  0
   45.5200   35.4700   43.2920 C   0  0  0  0  0  0  0  0  0  0  0  0
   46.2150   34.3170   43.5430 C   0  0  0  0  0  0  0  0  0  0  0  0
   46.0630   33.7400   44.7530 N   0  0  0  0  0  0  0  0  0  0  0  0
   45.2290   34.3110   45.6890 C   0  0  0  0  0  0  0  0  0  0  0  0
   44.5550   35.4360   45.4350 N   0  0  0  0  0  0  0  0  0  0  0  0
   45.1010   33.6640   46.9540 N   0  0  0  0  0  0  0  0  0  0  0  0
   47.2321   35.6822   41.7146 H   0  0  0  0  0  0  0  0  0  0  0  0
   48.7519   34.7447   41.6394 H   0  0  0  0  0  0  0  0  0  0  0  0
   49.1996   34.5521   39.3308 H   0  0  0  0  0  0  0  0  0  0  0  0
   48.6872   33.7890   37.0540 H   0  0  0  0  0  0  0  0  0  0  0  0
   43.4195   34.4946   39.3396 H   0  0  0  0  0  0  0  0  0  0  0  0
   41.1554   33.6748   38.8343 H   0  0  0  0  0  0  0  0  0  0  0  0
   42.8180   30.3568   36.8391 H   0  0  0  0  0  0  0  0  0  0  0  0
   46.5349   32.9467   41.9950 H   0  0  0  0  0  0  0  0  0  0  0  0
   47.9631   33.3049   43.0895 H   0  0  0  0  0  0  0  0  0  0  0  0
   44.1237   36.9654   44.0367 H   0  0  0  0  0  0  0  0  0  0  0  0
   45.6274   35.9601   42.3131 H   0  0  0  0  0  0  0  0  0  0  0  0
   44.4859   34.0637   47.6770 H   0  0  0  0  0  0  0  0  0  0  0  0
   45.6237   32.7971   47.1443 H   0  0  0  0  0  0  0  0  0  0  0  0
  1 14  1  0
  2  1  1  0
  3  2  2  0
  4  3  1  0
  5  4  2  0
  5  6  1  0
  6  7  2  0
  7  2  1  0
  8  6  1  0
  8  9  2  0
 10  9  1  0
 11 10  2  0
 12 13  2  0
 12 11  1  0
 13  8  1  0
 14 17  1  0
 15 20  2  0
 16 17  2  0
 16 15  1  0
 17 18  1  0
 18 19  2  0
 19 21  1  0
 20 19  1  0
  1 22  1  0
  1 23  1  0
  3 24  1  0
  4 25  1  0
  9 26  1  0
 10 27  1  0
 12 28  1  0
 14 29  1  0
 14 30  1  0
 15 31  1  0
 16 32  1  0
 21 33  1  0
 21 34  1  0
M  ISO  8  22   8  23   8  24  14  25  14  26  14  27  14  28  14  29   8
M  ISO  3  30   8  31  14  32  14
M  END
>  <minimizedAffinity>  (1) 
-5.37688017

>  <minimizedRMSD>  (1) 
0.0186675321

$$$$
