
     RDKit          3D

 37 41  0  0  1  0  0  0  0  0999 V2000
   45.8590   33.9920   43.9570 N   0  0  0  0  0  0  0  0  0  0  0  0
   45.0810   34.9080   44.5910 C   0  0  0  0  0  0  0  0  0  0  0  0
   44.9320   34.5990   45.8980 N   0  0  0  0  0  0  0  0  0  0  0  0
   45.5990   33.4920   46.1400 C   0  0  0  0  0  0  0  0  0  0  0  0
   45.8090   32.7230   47.2820 C   0  0  0  0  0  0  0  0  0  0  0  0
   46.5610   31.6220   47.2260 N   0  0  0  0  0  0  0  0  0  0  0  0
   47.1280   31.2370   46.0690 C   0  0  0  0  0  0  0  0  0  0  0  0
   46.9270   31.9790   44.9620 N   0  0  0  0  0  0  0  0  0  0  0  0
   46.1690   33.1120   44.9590 C   0  0  0  0  0  0  0  0  0  0  0  0
   45.6640   34.0920   41.3820 C   0  0  1  0  0  0  0  0  0  0  0  0
   46.4950   35.1820   41.9290 C   0  0  0  0  0  0  0  0  0  0  0  0
   46.3370   33.8330   42.6330 C   0  0  1  0  0  0  0  0  0  0  0  0
   43.5610   35.4930   41.2230 C   0  0  0  0  0  0  0  0  0  0  0  0
   44.2060   34.2360   41.2540 C   0  0  0  0  0  0  0  0  0  0  0  0
   43.4020   33.1150   41.1510 C   0  0  0  0  0  0  0  0  0  0  0  0
   42.0570   33.2690   41.0260 N   0  0  0  0  0  0  0  0  0  0  0  0
   41.4740   34.4910   40.9990 C   0  0  0  0  0  0  0  0  0  0  0  0
   42.2340   35.6080   41.0990 N   0  0  0  0  0  0  0  0  0  0  0  0
   47.9640   30.0300   45.9590 C   0  0  0  0  0  0  0  0  0  0  0  0
   48.7200   29.6240   44.9090 C   0  0  0  0  0  0  0  0  0  0  0  0
   49.4260   28.4680   45.0050 C   0  0  0  0  0  0  0  0  0  0  0  0
   49.3110   27.7650   46.2280 C   0  0  0  0  0  0  0  0  0  0  0  0
   48.1350   28.8420   47.2440 S   0  0  0  0  0  0  0  0  0  0  0  0
   45.2290   33.1070   48.5270 N   0  0  0  0  0  0  0  0  0  0  0  0
   44.6314   35.7860   44.1041 H   0  0  0  0  0  0  0  0  0  0  0  0
   45.6326   33.5465   40.4273 H   0  0  0  0  0  0  0  0  0  0  0  0
   47.4471   35.4515   41.4485 H   0  0  0  0  0  0  0  0  0  0  0  0
   46.3421   36.2382   42.1957 H   0  0  0  0  0  0  0  0  0  0  0  0
   46.8788   32.9250   42.9363 H   0  0  0  0  0  0  0  0  0  0  0  0
   44.1694   36.4059   41.3034 H   0  0  0  0  0  0  0  0  0  0  0  0
   43.8465   32.1090   41.1700 H   0  0  0  0  0  0  0  0  0  0  0  0
   40.3822   34.5767   40.8958 H   0  0  0  0  0  0  0  0  0  0  0  0
   48.7609   30.2251   43.9887 H   0  0  0  0  0  0  0  0  0  0  0  0
   50.0518   28.0989   44.1791 H   0  0  0  0  0  0  0  0  0  0  0  0
   49.7909   26.8186   46.5180 H   0  0  0  0  0  0  0  0  0  0  0  0
   45.3882   32.5339   49.3679 H   0  0  0  0  0  0  0  0  0  0  0  0
   44.6509   33.9575   48.5853 H   0  0  0  0  0  0  0  0  0  0  0  0
  1  2  1  0
  1  9  1  0
  2  3  2  0
  3  4  1  0
  4  5  2  0
  5 24  1  0
  6  5  1  0
  7  6  2  0
  8  7  1  0
  9  8  2  0
  9  4  1  0
 10 11  1  0
 10 12  1  0
 11 12  1  0
 12  1  1  0
 13 14  2  0
 14 10  1  0
 15 14  1  0
 16 15  2  0
 17 16  1  0
 17 18  2  0
 18 13  1  0
 19  7  1  0
 19 23  1  0
 20 21  1  0
 20 19  2  0
 21 22  2  0
 22 23  1  0
  2 25  1  0
 10 26  1  6
 11 27  1  0
 11 28  1  0
 12 29  1  6
 13 30  1  0
 15 31  1  0
 17 32  1  0
 20 33  1  0
 21 34  1  0
 22 35  1  0
 24 36  1  0
 24 37  1  0
M  ISO  8  25  14  26  13  27  13  28  13  29  13  30  14  31  14  32  14
M  ISO  3  33  14  34  14  35  14
M  END
>  <minimizedAffinity>  (1) 
-5.58871126

>  <minimizedRMSD>  (1) 
0.189122066

$$$$
