
     RDKit          3D

 36 40  0  0  1  0  0  0  0  0999 V2000
   45.8680   33.9680   43.9560 N   0  0  0  0  0  0  0  0  0  0  0  0
   45.0950   34.8910   44.5840 C   0  0  0  0  0  0  0  0  0  0  0  0
   44.9440   34.5900   45.8920 N   0  0  0  0  0  0  0  0  0  0  0  0
   45.6070   33.4790   46.1390 C   0  0  0  0  0  0  0  0  0  0  0  0
   45.8050   32.7270   47.2910 C   0  0  0  0  0  0  0  0  0  0  0  0
   46.5520   31.6230   47.2460 N   0  0  0  0  0  0  0  0  0  0  0  0
   47.1200   31.2270   46.0960 C   0  0  0  0  0  0  0  0  0  0  0  0
   46.9280   31.9570   44.9730 N   0  0  0  0  0  0  0  0  0  0  0  0
   46.1750   33.0930   44.9590 C   0  0  0  0  0  0  0  0  0  0  0  0
   45.6790   34.0630   41.3760 C   0  0  1  0  0  0  0  0  0  0  0  0
   46.5150   35.1510   41.9270 C   0  0  0  0  0  0  0  0  0  0  0  0
   46.3450   33.7990   42.6320 C   0  0  1  0  0  0  0  0  0  0  0  0
   43.5820   35.4750   41.2140 C   0  0  0  0  0  0  0  0  0  0  0  0
   44.2220   34.2160   41.2480 C   0  0  0  0  0  0  0  0  0  0  0  0
   43.4110   33.1010   41.1500 C   0  0  0  0  0  0  0  0  0  0  0  0
   42.0660   33.2680   41.0280 N   0  0  0  0  0  0  0  0  0  0  0  0
   41.4890   34.4860   40.9990 C   0  0  0  0  0  0  0  0  0  0  0  0
   42.2550   35.5990   41.0930 N   0  0  0  0  0  0  0  0  0  0  0  0
   47.9550   30.0070   46.0100 C   0  0  0  0  0  0  0  0  0  0  0  0
   47.6840   29.1470   47.0990 C   0  0  0  0  0  0  0  0  0  0  0  0
   48.8420   27.6850   46.7890 S   0  0  0  0  0  0  0  0  0  0  0  0
   49.4630   28.5600   45.2180 C   0  0  0  0  0  0  0  0  0  0  0  0
   48.8730   29.5170   45.1990 N   0  0  0  0  0  0  0  0  0  0  0  0
   45.2180   33.1200   48.5320 N   0  0  0  0  0  0  0  0  0  0  0  0
   44.6502   35.7686   44.0921 H   0  0  0  0  0  0  0  0  0  0  0  0
   45.6498   33.5189   40.4205 H   0  0  0  0  0  0  0  0  0  0  0  0
   47.4709   35.4149   41.4509 H   0  0  0  0  0  0  0  0  0  0  0  0
   46.3670   36.2082   42.1925 H   0  0  0  0  0  0  0  0  0  0  0  0
   46.8754   32.8847   42.9365 H   0  0  0  0  0  0  0  0  0  0  0  0
   44.1956   36.3848   41.2896 H   0  0  0  0  0  0  0  0  0  0  0  0
   43.8473   32.0914   41.1704 H   0  0  0  0  0  0  0  0  0  0  0  0
   40.3972   34.5758   40.8991 H   0  0  0  0  0  0  0  0  0  0  0  0
   46.9727   29.2930   47.9253 H   0  0  0  0  0  0  0  0  0  0  0  0
   50.2195   28.2123   44.4991 H   0  0  0  0  0  0  0  0  0  0  0  0
   45.3734   32.5529   49.3777 H   0  0  0  0  0  0  0  0  0  0  0  0
   44.6392   33.9706   48.5815 H   0  0  0  0  0  0  0  0  0  0  0  0
  1  2  1  0
  1  9  1  0
  2  3  2  0
  3  4  1  0
  4  5  2  0
  5 24  1  0
  6  5  1  0
  7  6  2  0
  8  7  1  0
  9  8  2  0
  9  4  1  0
 10 11  1  0
 10 12  1  0
 11 12  1  0
 12  1  1  0
 13 14  2  0
 14 10  1  0
 15 14  1  0
 16 15  2  0
 17 16  1  0
 17 18  2  0
 18 13  1  0
 19  7  1  0
 19 20  2  0
 21 20  1  0
 22 21  1  0
 23 22  2  0
 23 19  1  0
  2 25  1  0
 10 26  1  6
 11 27  1  0
 11 28  1  0
 12 29  1  6
 13 30  1  0
 15 31  1  0
 17 32  1  0
 20 33  1  0
 22 34  1  0
 24 35  1  0
 24 36  1  0
M  ISO  8  25  14  26  13  27  13  28  13  29  13  30  14  31  14  32  14
M  ISO  2  33  14  34  14
M  END
>  <minimizedAffinity>  (1) 
-5.55785418

>  <minimizedRMSD>  (1) 
0.354869574

$$$$
