
     RDKit          3D

 38 42  0  0  1  0  0  0  0  0999 V2000
   45.8700   33.9570   43.9630 N   0  0  0  0  0  0  0  0  0  0  0  0
   45.0920   34.8810   44.5820 C   0  0  0  0  0  0  0  0  0  0  0  0
   44.9400   34.5880   45.8930 N   0  0  0  0  0  0  0  0  0  0  0  0
   45.6070   33.4820   46.1510 C   0  0  0  0  0  0  0  0  0  0  0  0
   45.8120   32.7250   47.3020 C   0  0  0  0  0  0  0  0  0  0  0  0
   46.5620   31.6230   47.2590 N   0  0  0  0  0  0  0  0  0  0  0  0
   47.1300   31.2230   46.1110 C   0  0  0  0  0  0  0  0  0  0  0  0
   46.9310   31.9550   44.9980 N   0  0  0  0  0  0  0  0  0  0  0  0
   46.1770   33.0890   44.9770 C   0  0  0  0  0  0  0  0  0  0  0  0
   45.6890   34.0430   41.3830 C   0  0  1  0  0  0  0  0  0  0  0  0
   46.5270   35.1280   41.9300 C   0  0  0  0  0  0  0  0  0  0  0  0
   46.3510   33.7820   42.6400 C   0  0  1  0  0  0  0  0  0  0  0  0
   43.6020   35.4620   41.2080 C   0  0  0  0  0  0  0  0  0  0  0  0
   44.2340   34.2010   41.2490 C   0  0  0  0  0  0  0  0  0  0  0  0
   43.4210   33.0850   41.1500 C   0  0  0  0  0  0  0  0  0  0  0  0
   42.0760   33.2560   41.0210 N   0  0  0  0  0  0  0  0  0  0  0  0
   41.5060   34.4770   40.9860 C   0  0  0  0  0  0  0  0  0  0  0  0
   42.2750   35.5870   41.0800 N   0  0  0  0  0  0  0  0  0  0  0  0
   47.9500   30.0140   46.0700 C   0  0  0  0  0  0  0  0  0  0  0  0
   48.6100   29.6850   44.9030 C   0  0  0  0  0  0  0  0  0  0  0  0
   49.3530   28.5250   44.9760 C   0  0  0  0  0  0  0  0  0  0  0  0
   49.4620   27.7440   46.0680 N   0  0  0  0  0  0  0  0  0  0  0  0
   48.7930   28.1210   47.1770 C   0  0  0  0  0  0  0  0  0  0  0  0
   48.0380   29.2550   47.1780 N   0  0  0  0  0  0  0  0  0  0  0  0
   45.2210   33.1260   48.5400 N   0  0  0  0  0  0  0  0  0  0  0  0
   44.6443   35.7530   44.0829 H   0  0  0  0  0  0  0  0  0  0  0  0
   45.6591   33.4944   40.4301 H   0  0  0  0  0  0  0  0  0  0  0  0
   47.4847   35.3860   41.4544 H   0  0  0  0  0  0  0  0  0  0  0  0
   46.3826   36.1869   42.1906 H   0  0  0  0  0  0  0  0  0  0  0  0
   46.8785   32.8679   42.9500 H   0  0  0  0  0  0  0  0  0  0  0  0
   44.2183   36.3700   41.2835 H   0  0  0  0  0  0  0  0  0  0  0  0
   43.8550   32.0746   41.1752 H   0  0  0  0  0  0  0  0  0  0  0  0
   40.4151   34.5715   40.8810 H   0  0  0  0  0  0  0  0  0  0  0  0
   48.5486   30.2968   43.9909 H   0  0  0  0  0  0  0  0  0  0  0  0
   49.8985   28.2139   44.0729 H   0  0  0  0  0  0  0  0  0  0  0  0
   48.8576   27.5078   48.0880 H   0  0  0  0  0  0  0  0  0  0  0  0
   45.3743   32.5643   49.3897 H   0  0  0  0  0  0  0  0  0  0  0  0
   44.6418   33.9767   48.5825 H   0  0  0  0  0  0  0  0  0  0  0  0
  1  2  1  0
  1  9  1  0
  2  3  2  0
  3  4  1  0
  4  5  2  0
  5 25  1  0
  6  5  1  0
  7  6  2  0
  8  7  1  0
  9  8  2  0
  9  4  1  0
 10 11  1  0
 10 12  1  0
 11 12  1  0
 12  1  1  0
 13 14  2  0
 14 10  1  0
 15 14  1  0
 16 15  2  0
 17 16  1  0
 17 18  2  0
 18 13  1  0
 19  7  1  0
 19 24  2  0
 20 21  2  0
 20 19  1  0
 21 22  1  0
 22 23  2  0
 23 24  1  0
  2 26  1  0
 10 27  1  6
 11 28  1  0
 11 29  1  0
 12 30  1  6
 13 31  1  0
 15 32  1  0
 17 33  1  0
 20 34  1  0
 21 35  1  0
 23 36  1  0
 25 37  1  0
 25 38  1  0
M  ISO  8  26  14  27  13  28  13  29  13  30  13  31  14  32  14  33  14
M  ISO  3  34  14  35  14  36  14
M  END
>  <minimizedAffinity>  (1) 
-5.6373415

>  <minimizedRMSD>  (1) 
0.38280651

$$$$
