
     RDKit          3D

 37 41  0  0  1  0  0  0  0  0999 V2000
   45.8660   33.9940   43.9450 N   0  0  0  0  0  0  0  0  0  0  0  0
   45.0770   34.8900   44.5910 C   0  0  0  0  0  0  0  0  0  0  0  0
   44.9470   34.5730   45.9000 N   0  0  0  0  0  0  0  0  0  0  0  0
   45.6420   33.4740   46.1290 C   0  0  0  0  0  0  0  0  0  0  0  0
   45.8780   32.7040   47.2660 C   0  0  0  0  0  0  0  0  0  0  0  0
   46.6450   31.6240   47.2000 N   0  0  0  0  0  0  0  0  0  0  0  0
   47.2110   31.2530   46.0310 C   0  0  0  0  0  0  0  0  0  0  0  0
   46.9830   31.9960   44.9330 N   0  0  0  0  0  0  0  0  0  0  0  0
   46.2050   33.1160   44.9400 C   0  0  0  0  0  0  0  0  0  0  0  0
   45.6490   34.1120   41.3720 C   0  0  1  0  0  0  0  0  0  0  0  0
   46.4760   35.2030   41.9230 C   0  0  0  0  0  0  0  0  0  0  0  0
   46.3350   33.8480   42.6170 C   0  0  1  0  0  0  0  0  0  0  0  0
   43.5350   35.5080   41.2410 C   0  0  0  0  0  0  0  0  0  0  0  0
   44.1880   34.2550   41.2600 C   0  0  0  0  0  0  0  0  0  0  0  0
   43.3870   33.1300   41.1620 C   0  0  0  0  0  0  0  0  0  0  0  0
   42.0410   33.2810   41.0530 N   0  0  0  0  0  0  0  0  0  0  0  0
   41.4490   34.4950   41.0380 C   0  0  0  0  0  0  0  0  0  0  0  0
   42.2060   35.6150   41.1320 N   0  0  0  0  0  0  0  0  0  0  0  0
   48.0570   30.0660   45.9540 C   0  0  0  0  0  0  0  0  0  0  0  0
   48.6540   29.6460   47.1340 C   0  0  0  0  0  0  0  0  0  0  0  0
   49.4060   28.5080   46.8220 C   0  0  0  0  0  0  0  0  0  0  0  0
   49.2070   28.3150   45.4510 C   0  0  0  0  0  0  0  0  0  0  0  0
   48.4090   29.2490   44.9710 O   0  0  0  0  0  0  0  0  0  0  0  0
   45.2910   33.0720   48.5180 N   0  0  0  0  0  0  0  0  0  0  0  0
   44.6047   35.7606   44.1125 H   0  0  0  0  0  0  0  0  0  0  0  0
   45.6139   33.5716   40.4145 H   0  0  0  0  0  0  0  0  0  0  0  0
   47.4222   35.4842   41.4375 H   0  0  0  0  0  0  0  0  0  0  0  0
   46.3166   36.2555   42.2002 H   0  0  0  0  0  0  0  0  0  0  0  0
   46.8866   32.9420   42.9085 H   0  0  0  0  0  0  0  0  0  0  0  0
   44.1386   36.4244   41.3183 H   0  0  0  0  0  0  0  0  0  0  0  0
   43.8351   32.1255   41.1723 H   0  0  0  0  0  0  0  0  0  0  0  0
   40.3554   34.5743   40.9497 H   0  0  0  0  0  0  0  0  0  0  0  0
   48.5552   30.1166   48.1233 H   0  0  0  0  0  0  0  0  0  0  0  0
   50.0182   27.8997   47.5040 H   0  0  0  0  0  0  0  0  0  0  0  0
   49.6518   27.5018   44.8587 H   0  0  0  0  0  0  0  0  0  0  0  0
   45.4671   32.5010   49.3570 H   0  0  0  0  0  0  0  0  0  0  0  0
   44.6924   33.9079   48.5802 H   0  0  0  0  0  0  0  0  0  0  0  0
  1  2  1  0
  1  9  1  0
  2  3  2  0
  3  4  1  0
  4  5  2  0
  5 24  1  0
  6  5  1  0
  7  6  2  0
  8  9  2  0
  8  7  1  0
  9  4  1  0
 10 11  1  0
 10 12  1  0
 11 12  1  0
 12  1  1  0
 13 14  2  0
 14 10  1  0
 15 14  1  0
 16 15  2  0
 17 16  1  0
 17 18  2  0
 18 13  1  0
 19  7  1  0
 19 20  2  0
 21 20  1  0
 22 21  2  0
 23 22  1  0
 23 19  1  0
  2 25  1  0
 10 26  1  6
 11 27  1  0
 11 28  1  0
 12 29  1  6
 13 30  1  0
 15 31  1  0
 17 32  1  0
 20 33  1  0
 21 34  1  0
 22 35  1  0
 24 36  1  0
 24 37  1  0
M  ISO  8  25  14  26  13  27  13  28  13  29  13  30  14  31  14  32  14
M  ISO  3  33  14  34  14  35  14
M  END
>  <minimizedAffinity>  (1) 
-5.60343409

>  <minimizedRMSD>  (1) 
0.282500893

$$$$
