
     RDKit          3D

 39 42  0  0  1  0  0  0  0  0999 V2000
   45.4400   34.0440   41.3530 C   0  0  1  0  0  0  0  0  0  0  0  0
   46.3370   35.1020   41.8570 C   0  0  0  0  0  0  0  0  0  0  0  0
   46.1770   33.7550   42.5620 C   0  0  1  0  0  0  0  0  0  0  0  0
   45.7860   33.9250   43.9150 N   0  0  0  0  0  0  0  0  0  0  0  0
   45.0900   34.8720   44.5970 C   0  0  0  0  0  0  0  0  0  0  0  0
   45.0040   34.5610   45.9100 N   0  0  0  0  0  0  0  0  0  0  0  0
   45.6320   33.4210   46.1080 C   0  0  0  0  0  0  0  0  0  0  0  0
   45.8590   32.6530   47.2300 C   0  0  0  0  0  0  0  0  0  0  0  0
   46.5540   31.5120   47.1370 N   0  0  0  0  0  0  0  0  0  0  0  0
   47.0410   31.0980   45.9440 C   0  0  0  0  0  0  0  0  0  0  0  0
   46.8150   31.8550   44.8480 N   0  0  0  0  0  0  0  0  0  0  0  0
   46.1140   33.0230   44.8930 C   0  0  0  0  0  0  0  0  0  0  0  0
   45.3770   33.0400   48.5120 N   0  0  0  0  0  0  0  0  0  0  0  0
   47.8210   29.8490   45.7500 C   0  0  0  0  0  0  0  0  0  0  0  0
   48.6530   29.9100   44.4870 C   0  0  0  0  0  0  0  0  0  0  0  0
   48.7600   29.5700   46.9110 C   0  0  0  0  0  0  0  0  0  0  0  0
   43.3830   35.5090   41.2910 C   0  0  0  0  0  0  0  0  0  0  0  0
   43.9830   34.2300   41.3150 C   0  0  0  0  0  0  0  0  0  0  0  0
   43.1370   33.1370   41.2970 C   0  0  0  0  0  0  0  0  0  0  0  0
   41.7900   33.3400   41.2570 N   0  0  0  0  0  0  0  0  0  0  0  0
   41.2510   34.5790   41.2350 C   0  0  0  0  0  0  0  0  0  0  0  0
   42.0550   35.6710   41.2530 N   0  0  0  0  0  0  0  0  0  0  0  0
   45.3353   33.5101   40.3970 H   0  0  0  0  0  0  0  0  0  0  0  0
   47.2678   35.3440   41.3231 H   0  0  0  0  0  0  0  0  0  0  0  0
   46.2343   36.1605   42.1379 H   0  0  0  0  0  0  0  0  0  0  0  0
   46.7035   32.8265   42.8280 H   0  0  0  0  0  0  0  0  0  0  0  0
   44.6539   35.7730   44.1409 H   0  0  0  0  0  0  0  0  0  0  0  0
   45.5621   32.4458   49.3327 H   0  0  0  0  0  0  0  0  0  0  0  0
   44.8431   33.9143   48.6191 H   0  0  0  0  0  0  0  0  0  0  0  0
   47.0772   29.0416   45.6800 H   0  0  0  0  0  0  0  0  0  0  0  0
   49.7176   29.9881   44.7526 H   0  0  0  0  0  0  0  0  0  0  0  0
   48.4887   28.9974   43.8953 H   0  0  0  0  0  0  0  0  0  0  0  0
   48.3574   30.7889   43.8953 H   0  0  0  0  0  0  0  0  0  0  0  0
   48.2268   29.7284   47.8600 H   0  0  0  0  0  0  0  0  0  0  0  0
   49.1108   28.5288   46.8569 H   0  0  0  0  0  0  0  0  0  0  0  0
   49.6224   30.2507   46.8569 H   0  0  0  0  0  0  0  0  0  0  0  0
   44.0279   36.4000   41.3040 H   0  0  0  0  0  0  0  0  0  0  0  0
   43.5459   32.1160   41.3147 H   0  0  0  0  0  0  0  0  0  0  0  0
   40.1584   34.7020   41.2024 H   0  0  0  0  0  0  0  0  0  0  0  0
  1  2  1  0
  1  3  1  0
  2  3  1  0
  3  4  1  0
  4  5  1  0
  4 12  1  0
  5  6  2  0
  6  7  1  0
  7  8  2  0
  8 13  1  0
  9  8  1  0
 10  9  2  0
 11 12  2  0
 11 10  1  0
 12  7  1  0
 14 10  1  0
 14 16  1  0
 15 14  1  0
 17 18  2  0
 18  1  1  0
 19 18  1  0
 20 19  2  0
 21 22  2  0
 21 20  1  0
 22 17  1  0
  1 23  1  6
  2 24  1  0
  2 25  1  0
  3 26  1  1
  5 27  1  0
 13 28  1  0
 13 29  1  0
 14 30  1  0
 15 31  1  0
 15 32  1  0
 15 33  1  0
 16 34  1  0
 16 35  1  0
 16 36  1  0
 17 37  1  0
 19 38  1  0
 21 39  1  0
M  ISO  8  23  13  24  13  25  13  26  13  27  14  30   8  31   8  32   8
M  ISO  7  33   8  34   8  35   8  36   8  37  14  38  14  39  14
M  END
>  <minimizedAffinity>  (1) 
-5.52270317

>  <minimizedRMSD>  (1) 
0.332832962

$$$$
