
     RDKit          3D

 35 39  0  0  1  0  0  0  0  0999 V2000
   45.8480   33.9850   43.9440 N   0  0  0  0  0  0  0  0  0  0  0  0
   45.0720   34.8870   44.5980 C   0  0  0  0  0  0  0  0  0  0  0  0
   44.9530   34.5660   45.9060 N   0  0  0  0  0  0  0  0  0  0  0  0
   45.6410   33.4640   46.1270 C   0  0  0  0  0  0  0  0  0  0  0  0
   45.8740   32.7040   47.2610 C   0  0  0  0  0  0  0  0  0  0  0  0
   46.6370   31.6140   47.1890 N   0  0  0  0  0  0  0  0  0  0  0  0
   47.1960   31.2320   46.0100 C   0  0  0  0  0  0  0  0  0  0  0  0
   46.9640   31.9800   44.9110 N   0  0  0  0  0  0  0  0  0  0  0  0
   46.1910   33.1030   44.9320 C   0  0  0  0  0  0  0  0  0  0  0  0
   45.6130   34.1310   41.3700 C   0  0  1  0  0  0  0  0  0  0  0  0
   46.4550   35.2090   41.9270 C   0  0  0  0  0  0  0  0  0  0  0  0
   46.3020   33.8440   42.6080 C   0  0  1  0  0  0  0  0  0  0  0  0
   43.5050   35.5240   41.2690 C   0  0  0  0  0  0  0  0  0  0  0  0
   44.1530   34.2700   41.2710 C   0  0  0  0  0  0  0  0  0  0  0  0
   43.3500   33.1480   41.1690 C   0  0  0  0  0  0  0  0  0  0  0  0
   42.0020   33.3050   41.0720 N   0  0  0  0  0  0  0  0  0  0  0  0
   41.4160   34.5200   41.0720 C   0  0  0  0  0  0  0  0  0  0  0  0
   42.1750   35.6390   41.1720 N   0  0  0  0  0  0  0  0  0  0  0  0
   48.0420   30.0540   45.8510 C   0  0  0  0  0  0  0  0  0  0  0  0
   48.3400   29.2770   44.8000 N   0  0  0  0  0  0  0  0  0  0  0  0
   49.1500   28.3260   45.1380 O   0  0  0  0  0  0  0  0  0  0  0  0
   49.3950   28.4640   46.4150 C   0  0  0  0  0  0  0  0  0  0  0  0
   48.7160   29.5400   46.8990 N   0  0  0  0  0  0  0  0  0  0  0  0
   45.3210   33.0560   48.5190 N   0  0  0  0  0  0  0  0  0  0  0  0
   44.6024   35.7628   44.1263 H   0  0  0  0  0  0  0  0  0  0  0  0
   45.5686   33.6112   40.4016 H   0  0  0  0  0  0  0  0  0  0  0  0
   47.4014   35.4853   41.4391 H   0  0  0  0  0  0  0  0  0  0  0  0
   46.3088   36.2602   42.2161 H   0  0  0  0  0  0  0  0  0  0  0  0
   46.8406   32.9257   42.8850 H   0  0  0  0  0  0  0  0  0  0  0  0
   44.1132   36.4370   41.3498 H   0  0  0  0  0  0  0  0  0  0  0  0
   43.7955   32.1423   41.1664 H   0  0  0  0  0  0  0  0  0  0  0  0
   40.3221   34.6029   40.9909 H   0  0  0  0  0  0  0  0  0  0  0  0
   50.0506   27.8097   47.0084 H   0  0  0  0  0  0  0  0  0  0  0  0
   45.5107   32.4725   49.3464 H   0  0  0  0  0  0  0  0  0  0  0  0
   44.7298   33.8950   48.6051 H   0  0  0  0  0  0  0  0  0  0  0  0
  1  2  1  0
  1  9  1  0
  2  3  2  0
  3  4  1  0
  4  5  2  0
  5 24  1  0
  6  5  1  0
  7  6  2  0
  8  9  2  0
  8  7  1  0
  9  4  1  0
 10 11  1  0
 10 12  1  0
 11 12  1  0
 12  1  1  0
 13 14  2  0
 14 10  1  0
 15 14  1  0
 16 15  2  0
 17 16  1  0
 17 18  2  0
 18 13  1  0
 19  7  1  0
 19 23  1  0
 20 21  1  0
 20 19  2  0
 21 22  1  0
 22 23  2  0
  2 25  1  0
 10 26  1  6
 11 27  1  0
 11 28  1  0
 12 29  1  6
 13 30  1  0
 15 31  1  0
 17 32  1  0
 22 33  1  0
 24 34  1  0
 24 35  1  0
M  ISO  8  25  14  26  13  27  13  28  13  29  13  30  14  31  14  32  14
M  ISO  1  33  14
M  END
>  <minimizedAffinity>  (1) 
-5.53462696

>  <minimizedRMSD>  (1) 
0.25807175

$$$$
