
     RDKit          3D

 33 36  0  0  1  0  0  0  0  0999 V2000
   45.5530   34.1240   41.3830 C   0  0  1  0  0  0  0  0  0  0  0  0
   46.4120   35.1940   41.9290 C   0  0  0  0  0  0  0  0  0  0  0  0
   46.2650   33.8300   42.6060 C   0  0  1  0  0  0  0  0  0  0  0  0
   45.8390   33.9580   43.9510 N   0  0  0  0  0  0  0  0  0  0  0  0
   45.0850   34.8620   44.6300 C   0  0  0  0  0  0  0  0  0  0  0  0
   44.9880   34.5260   45.9370 N   0  0  0  0  0  0  0  0  0  0  0  0
   45.6650   33.4180   46.1320 C   0  0  0  0  0  0  0  0  0  0  0  0
   45.9190   32.6330   47.2480 C   0  0  0  0  0  0  0  0  0  0  0  0
   46.6740   31.5250   47.1420 N   0  0  0  0  0  0  0  0  0  0  0  0
   47.1940   31.1680   45.9560 C   0  0  0  0  0  0  0  0  0  0  0  0
   46.9490   31.9290   44.8720 N   0  0  0  0  0  0  0  0  0  0  0  0
   46.1890   33.0620   44.9230 C   0  0  0  0  0  0  0  0  0  0  0  0
   45.3930   32.9820   48.5240 N   0  0  0  0  0  0  0  0  0  0  0  0
   48.0380   29.9470   45.7970 C   0  0  0  0  0  0  0  0  0  0  0  0
   43.4540   35.5420   41.2970 C   0  0  0  0  0  0  0  0  0  0  0  0
   44.0910   34.2810   41.3160 C   0  0  0  0  0  0  0  0  0  0  0  0
   43.2740   33.1660   41.2600 C   0  0  0  0  0  0  0  0  0  0  0  0
   41.9280   33.3270   41.1900 N   0  0  0  0  0  0  0  0  0  0  0  0
   41.3500   34.5520   41.1730 C   0  0  0  0  0  0  0  0  0  0  0  0
   42.1230   35.6630   41.2280 N   0  0  0  0  0  0  0  0  0  0  0  0
   45.4860   33.6050   40.4155 H   0  0  0  0  0  0  0  0  0  0  0  0
   47.3504   35.4670   41.4241 H   0  0  0  0  0  0  0  0  0  0  0  0
   46.2773   36.2447   42.2256 H   0  0  0  0  0  0  0  0  0  0  0  0
   46.8065   32.9095   42.8695 H   0  0  0  0  0  0  0  0  0  0  0  0
   44.6163   35.7483   44.1775 H   0  0  0  0  0  0  0  0  0  0  0  0
   45.5908   32.3887   49.3424 H   0  0  0  0  0  0  0  0  0  0  0  0
   44.8146   33.8278   48.6288 H   0  0  0  0  0  0  0  0  0  0  0  0
   48.3081   29.5562   46.7891 H   0  0  0  0  0  0  0  0  0  0  0  0
   47.4751   29.1818   45.2423 H   0  0  0  0  0  0  0  0  0  0  0  0
   48.9527   30.2032   45.2423 H   0  0  0  0  0  0  0  0  0  0  0  0
   44.0707   36.4518   41.3402 H   0  0  0  0  0  0  0  0  0  0  0  0
   43.7117   32.1569   41.2721 H   0  0  0  0  0  0  0  0  0  0  0  0
   40.2554   34.6443   41.1147 H   0  0  0  0  0  0  0  0  0  0  0  0
  1  2  1  0
  1  3  1  0
  2  3  1  0
  3  4  1  0
  4  5  1  0
  4 12  1  0
  5  6  2  0
  6  7  1  0
  7  8  2  0
  8 13  1  0
  9  8  1  0
 10  9  2  0
 11 12  2  0
 11 10  1  0
 12  7  1  0
 14 10  1  0
 15 16  2  0
 16  1  1  0
 17 16  1  0
 18 17  2  0
 19 18  1  0
 19 20  2  0
 20 15  1  0
  1 21  1  6
  2 22  1  0
  2 23  1  0
  3 24  1  6
  5 25  1  0
 13 26  1  0
 13 27  1  0
 14 28  1  0
 14 29  1  0
 14 30  1  0
 15 31  1  0
 17 32  1  0
 19 33  1  0
M  ISO  8  21  13  22  13  23  13  24  13  25  14  28   8  29   8  30   8
M  ISO  3  31  14  32  14  33  14
M  END
>  <minimizedAffinity>  (1) 
-5.50742245

>  <minimizedRMSD>  (1) 
0.0433989689

$$$$
