
     RDKit          3D

 37 41  0  0  1  0  0  0  0  0999 V2000
   45.6300   34.0970   41.3740 C   0  0  1  0  0  0  0  0  0  0  0  0
   46.4760   35.1740   41.9240 C   0  0  0  0  0  0  0  0  0  0  0  0
   46.3180   33.8170   42.6140 C   0  0  1  0  0  0  0  0  0  0  0  0
   45.8600   33.9660   43.9480 N   0  0  0  0  0  0  0  0  0  0  0  0
   45.0890   34.8760   44.5980 C   0  0  0  0  0  0  0  0  0  0  0  0
   44.9650   34.5610   45.9060 N   0  0  0  0  0  0  0  0  0  0  0  0
   45.6420   33.4590   46.1310 C   0  0  0  0  0  0  0  0  0  0  0  0
   45.8670   32.6990   47.2680 C   0  0  0  0  0  0  0  0  0  0  0  0
   46.6280   31.5950   47.1970 N   0  0  0  0  0  0  0  0  0  0  0  0
   47.1820   31.2090   46.0250 C   0  0  0  0  0  0  0  0  0  0  0  0
   46.9580   31.9540   44.9250 N   0  0  0  0  0  0  0  0  0  0  0  0
   46.1940   33.0850   44.9400 C   0  0  0  0  0  0  0  0  0  0  0  0
   45.3200   33.0610   48.5240 N   0  0  0  0  0  0  0  0  0  0  0  0
   48.0190   29.9800   45.9870 C   0  0  0  0  0  0  0  0  0  0  0  0
   47.1900   28.6770   45.7420 C   0  0  0  0  0  0  0  0  0  0  0  0
   47.9430   28.9270   47.0020 C   0  0  0  0  0  0  0  0  0  0  0  0
   43.5330   35.5080   41.2520 C   0  0  0  0  0  0  0  0  0  0  0  0
   44.1710   34.2490   41.2720 C   0  0  0  0  0  0  0  0  0  0  0  0
   43.3590   33.1310   41.1840 C   0  0  0  0  0  0  0  0  0  0  0  0
   42.0140   33.2930   41.0820 N   0  0  0  0  0  0  0  0  0  0  0  0
   41.4350   34.5150   41.0640 C   0  0  0  0  0  0  0  0  0  0  0  0
   42.2030   35.6270   41.1490 N   0  0  0  0  0  0  0  0  0  0  0  0
   45.5828   33.5669   40.4113 H   0  0  0  0  0  0  0  0  0  0  0  0
   47.4236   35.4429   41.4344 H   0  0  0  0  0  0  0  0  0  0  0  0
   46.3339   36.2277   42.2058 H   0  0  0  0  0  0  0  0  0  0  0  0
   46.8558   32.9006   42.8986 H   0  0  0  0  0  0  0  0  0  0  0  0
   44.6267   35.7535   44.1223 H   0  0  0  0  0  0  0  0  0  0  0  0
   45.5033   32.4778   49.3529 H   0  0  0  0  0  0  0  0  0  0  0  0
   44.7391   33.9074   48.6081 H   0  0  0  0  0  0  0  0  0  0  0  0
   48.8771   30.5242   45.5658 H   0  0  0  0  0  0  0  0  0  0  0  0
   46.0905   28.7091   45.7340 H   0  0  0  0  0  0  0  0  0  0  0  0
   47.1621   27.8862   44.9779 H   0  0  0  0  0  0  0  0  0  0  0  0
   48.8376   28.3264   47.2233 H   0  0  0  0  0  0  0  0  0  0  0  0
   47.6576   28.9230   48.0643 H   0  0  0  0  0  0  0  0  0  0  0  0
   44.1464   36.4183   41.3231 H   0  0  0  0  0  0  0  0  0  0  0  0
   43.7981   32.1225   41.1965 H   0  0  0  0  0  0  0  0  0  0  0  0
   40.3419   34.6055   40.9804 H   0  0  0  0  0  0  0  0  0  0  0  0
  1  2  1  0
  1  3  1  0
  2  3  1  0
  3  4  1  0
  4  5  1  0
  4 12  1  0
  5  6  2  0
  6  7  1  0
  7  8  2  0
  8 13  1  0
  9  8  1  0
 10  9  2  0
 11 12  2  0
 11 10  1  0
 12  7  1  0
 14 10  1  0
 14 16  1  0
 15 14  1  0
 15 16  1  0
 17 18  2  0
 18  1  1  0
 19 18  1  0
 20 19  2  0
 21 20  1  0
 21 22  2  0
 22 17  1  0
  1 23  1  6
  2 24  1  0
  2 25  1  0
  3 26  1  6
  5 27  1  0
 13 28  1  0
 13 29  1  0
 14 30  1  0
 15 31  1  0
 15 32  1  0
 16 33  1  0
 16 34  1  0
 17 35  1  0
 19 36  1  0
 21 37  1  0
M  ISO  8  23  13  24  13  25  13  26  13  27  14  30  13  31  13  32  13
M  ISO  5  33  13  34  13  35  14  36  14  37  14
M  END
>  <minimizedAffinity>  (1) 
-5.4679327

>  <minimizedRMSD>  (1) 
0.394407213

$$$$
