
     RDKit          3D

 33 35  0  0  0  0  0  0  0  0999 V2000
   47.3000   34.1980   40.1690 C   0  0  0  0  0  0  0  0  0  0  0  0
   48.1870   34.1860   39.1130 C   0  0  0  0  0  0  0  0  0  0  0  0
   47.9230   33.7720   37.8370 C   0  0  0  0  0  0  0  0  0  0  0  0
   46.6390   33.3320   37.6290 N   0  0  0  0  0  0  0  0  0  0  0  0
   45.7580   33.3360   38.6470 C   0  0  0  0  0  0  0  0  0  0  0  0
   46.0380   33.7510   39.9040 N   0  0  0  0  0  0  0  0  0  0  0  0
   44.4090   32.8530   38.3500 C   0  0  0  0  0  0  0  0  0  0  0  0
   43.2900   33.5600   38.7800 C   0  0  0  0  0  0  0  0  0  0  0  0
   42.0310   33.0950   38.4950 C   0  0  0  0  0  0  0  0  0  0  0  0
   41.8600   31.9800   37.8160 N   0  0  0  0  0  0  0  0  0  0  0  0
   42.9550   31.3030   37.4040 C   0  0  0  0  0  0  0  0  0  0  0  0
   44.2360   31.7150   37.6560 N   0  0  0  0  0  0  0  0  0  0  0  0
   47.6710   34.6630   41.5340 C   0  0  0  0  0  0  0  0  0  0  0  0
   47.0730   33.7190   42.5290 C   0  0  0  0  0  0  0  0  0  0  0  0
   44.6720   36.1190   44.1770 C   0  0  0  0  0  0  0  0  0  0  0  0
   45.5180   35.5170   43.2360 C   0  0  0  0  0  0  0  0  0  0  0  0
   46.1830   34.3520   43.5130 C   0  0  0  0  0  0  0  0  0  0  0  0
   45.9980   33.7970   44.7290 N   0  0  0  0  0  0  0  0  0  0  0  0
   45.1620   34.4040   45.6420 C   0  0  0  0  0  0  0  0  0  0  0  0
   44.5270   35.5250   45.3660 N   0  0  0  0  0  0  0  0  0  0  0  0
   45.0960   33.6870   46.8400 O   0  0  0  0  0  0  0  0  0  0  0  0
   49.2066   34.5446   39.3173 H   0  0  0  0  0  0  0  0  0  0  0  0
   48.6801   33.7900   37.0392 H   0  0  0  0  0  0  0  0  0  0  0  0
   43.4151   34.4929   39.3492 H   0  0  0  0  0  0  0  0  0  0  0  0
   41.1527   33.6613   38.8384 H   0  0  0  0  0  0  0  0  0  0  0  0
   42.8092   30.3721   36.8364 H   0  0  0  0  0  0  0  0  0  0  0  0
   48.7659   34.6709   41.6398 H   0  0  0  0  0  0  0  0  0  0  0  0
   47.2937   35.6823   41.7034 H   0  0  0  0  0  0  0  0  0  0  0  0
   46.4941   32.9621   41.9794 H   0  0  0  0  0  0  0  0  0  0  0  0
   47.9122   33.2908   43.0968 H   0  0  0  0  0  0  0  0  0  0  0  0
   44.1419   37.0543   43.9439 H   0  0  0  0  0  0  0  0  0  0  0  0
   45.6511   35.9909   42.2523 H   0  0  0  0  0  0  0  0  0  0  0  0
   44.5291   34.0148   47.5825 H   0  0  0  0  0  0  0  0  0  0  0  0
  1 13  1  0
  2  1  2  0
  3  2  1  0
  4  3  2  0
  4  5  1  0
  5  6  2  0
  6  1  1  0
  7  5  1  0
  7  8  2  0
  9  8  1  0
 10  9  2  0
 11 12  2  0
 11 10  1  0
 12  7  1  0
 13 14  1  0
 14 17  1  0
 15 20  2  0
 16 17  2  0
 16 15  1  0
 17 18  1  0
 18 19  2  0
 19 21  1  0
 20 19  1  0
  2 22  1  0
  3 23  1  0
  8 24  1  0
  9 25  1  0
 11 26  1  0
 13 27  1  0
 13 28  1  0
 14 29  1  0
 14 30  1  0
 15 31  1  0
 16 32  1  0
 21 33  1  0
M  ISO  8  22  14  23  14  24  14  25  14  26  14  27   8  28   8  29   8
M  ISO  4  30   8  31  14  32  14  33   3
M  END
>  <minimizedAffinity>  (1) 
-5.28738737

>  <minimizedRMSD>  (1) 
0.0566884317

$$$$
