
     RDKit          3D

 32 35  0  0  1  0  0  0  0  0999 V2000
   45.5470   34.1230   41.3820 C   0  0  1  0  0  0  0  0  0  0  0  0
   46.4070   35.1940   41.9260 C   0  0  0  0  0  0  0  0  0  0  0  0
   46.2690   33.8360   42.6010 C   0  0  1  0  0  0  0  0  0  0  0  0
   45.8420   33.9630   43.9460 N   0  0  0  0  0  0  0  0  0  0  0  0
   45.0820   34.8570   44.6310 C   0  0  0  0  0  0  0  0  0  0  0  0
   44.9890   34.5220   45.9330 N   0  0  0  0  0  0  0  0  0  0  0  0
   45.6750   33.4200   46.1280 C   0  0  0  0  0  0  0  0  0  0  0  0
   45.9280   32.6390   47.2450 C   0  0  0  0  0  0  0  0  0  0  0  0
   46.6830   31.5450   47.1400 N   0  0  0  0  0  0  0  0  0  0  0  0
   47.2170   31.1740   45.9450 C   0  0  0  0  0  0  0  0  0  0  0  0
   46.9660   31.9380   44.8670 N   0  0  0  0  0  0  0  0  0  0  0  0
   46.2000   33.0660   44.9200 C   0  0  0  0  0  0  0  0  0  0  0  0
   45.4150   32.9790   48.5200 N   0  0  0  0  0  0  0  0  0  0  0  0
   48.0370   29.9700   45.8760 C   0  0  0  0  0  0  0  0  0  0  0  0
   48.7300   29.6930   46.9000 O   0  0  0  0  0  0  0  0  0  0  0  0
   43.4560   35.5510   41.3000 C   0  0  0  0  0  0  0  0  0  0  0  0
   44.0840   34.2860   41.3180 C   0  0  0  0  0  0  0  0  0  0  0  0
   43.2740   33.1650   41.2610 C   0  0  0  0  0  0  0  0  0  0  0  0
   41.9220   33.3200   41.1880 N   0  0  0  0  0  0  0  0  0  0  0  0
   41.3500   34.5510   41.1710 C   0  0  0  0  0  0  0  0  0  0  0  0
   42.1250   35.6620   41.2280 N   0  0  0  0  0  0  0  0  0  0  0  0
   45.4739   33.5975   40.4184 H   0  0  0  0  0  0  0  0  0  0  0  0
   47.3420   35.4698   41.4164 H   0  0  0  0  0  0  0  0  0  0  0  0
   46.2708   36.2439   42.2244 H   0  0  0  0  0  0  0  0  0  0  0  0
   46.8200   32.9206   42.8626 H   0  0  0  0  0  0  0  0  0  0  0  0
   44.6045   35.7399   44.1811 H   0  0  0  0  0  0  0  0  0  0  0  0
   45.6185   32.3807   49.3333 H   0  0  0  0  0  0  0  0  0  0  0  0
   44.8382   33.8247   48.6343 H   0  0  0  0  0  0  0  0  0  0  0  0
   48.0531   29.3335   44.9790 H   0  0  0  0  0  0  0  0  0  0  0  0
   44.0724   36.4609   41.3460 H   0  0  0  0  0  0  0  0  0  0  0  0
   43.7174   32.1584   41.2745 H   0  0  0  0  0  0  0  0  0  0  0  0
   40.2559   34.6473   41.1109 H   0  0  0  0  0  0  0  0  0  0  0  0
  1  2  1  0
  1  3  1  0
  2  3  1  0
  3  4  1  0
  4  5  1  0
  4 12  1  0
  5  6  2  0
  6  7  1  0
  7  8  2  0
  8 13  1  0
  9  8  1  0
 10  9  2  0
 11 12  2  0
 11 10  1  0
 12  7  1  0
 14 10  1  0
 14 15  2  0
 16 17  2  0
 17  1  1  0
 18 17  1  0
 19 18  2  0
 20 19  1  0
 20 21  2  0
 21 16  1  0
  1 22  1  6
  2 23  1  0
  2 24  1  0
  3 25  1  6
  5 26  1  0
 13 27  1  0
 13 28  1  0
 14 29  1  0
 16 30  1  0
 18 31  1  0
 20 32  1  0
M  ISO  8  22  13  23  13  24  13  25  13  26  14  29   6  30  14  31  14
M  ISO  1  32  14
M  END
>  <minimizedAffinity>  (1) 
-5.35424995

>  <minimizedRMSD>  (1) 
0.132629171

$$$$
