
     RDKit          3D

 40 43  0  0  0  0  0  0  0  0999 V2000
   46.5370   34.3880   41.6660 N   0  0  0  0  0  0  0  0  0  0  0  0
   45.9190   33.8020   40.6290 C   0  0  0  0  0  0  0  0  0  0  0  0
   46.5350   33.6200   39.4110 C   0  0  0  0  0  0  0  0  0  0  0  0
   47.8350   34.0890   39.3430 C   0  0  0  0  0  0  0  0  0  0  0  0
   48.4700   33.9630   38.2530 O   0  0  0  0  0  0  0  0  0  0  0  0
   48.4740   34.6840   40.3780 N   0  0  0  0  0  0  0  0  0  0  0  0
   47.8050   34.8290   41.5520 C   0  0  0  0  0  0  0  0  0  0  0  0
   48.4520   35.3850   42.4600 O   0  0  0  0  0  0  0  0  0  0  0  0
   44.6560   36.0690   44.3700 C   0  0  0  0  0  0  0  0  0  0  0  0
   45.2350   35.7870   43.1070 C   0  0  0  0  0  0  0  0  0  0  0  0
   45.9840   34.6150   42.9480 C   0  0  0  0  0  0  0  0  0  0  0  0
   46.1190   33.7990   44.0250 N   0  0  0  0  0  0  0  0  0  0  0  0
   45.5570   34.0920   45.2150 C   0  0  0  0  0  0  0  0  0  0  0  0
   44.8300   35.2090   45.4080 N   0  0  0  0  0  0  0  0  0  0  0  0
   45.7590   33.1690   46.2940 C   0  0  0  0  0  0  0  0  0  0  0  0
   45.2290   33.0510   47.5200 C   0  0  0  0  0  0  0  0  0  0  0  0
   45.5890   32.0700   48.3810 C   0  0  0  0  0  0  0  0  0  0  0  0
   46.5980   31.1740   47.8400 C   0  0  0  0  0  0  0  0  0  0  0  0
   46.9210   31.8170   46.1800 S   0  0  0  0  0  0  0  0  0  0  0  0
   45.8350   32.9570   38.2820 C   0  0  0  0  0  0  0  0  0  0  0  0
   44.5130   32.5190   38.5700 N   0  0  0  0  0  0  0  0  0  0  0  0
   43.5960   33.5070   38.3230 C   0  0  0  0  0  0  0  0  0  0  0  0
   42.2180   33.4520   38.5170 C   0  0  0  0  0  0  0  0  0  0  0  0
   41.7660   32.2280   39.0240 C   0  0  0  0  0  0  0  0  0  0  0  0
   40.5540   32.0010   39.2610 O   0  0  0  0  0  0  0  0  0  0  0  0
   42.6210   31.2260   39.2840 N   0  0  0  0  0  0  0  0  0  0  0  0
   43.9110   31.4480   39.0380 C   0  0  0  0  0  0  0  0  0  0  0  0
   44.7280   30.5070   39.2760 O   0  0  0  0  0  0  0  0  0  0  0  0
   44.8831   33.4546   40.7565 H   0  0  0  0  0  0  0  0  0  0  0  0
   49.4431   35.0184   40.2780 H   0  0  0  0  0  0  0  0  0  0  0  0
   44.0646   36.9859   44.5102 H   0  0  0  0  0  0  0  0  0  0  0  0
   45.0976   36.4796   42.2635 H   0  0  0  0  0  0  0  0  0  0  0  0
   44.4707   33.7811   47.8394 H   0  0  0  0  0  0  0  0  0  0  0  0
   45.1610   31.9618   49.3885 H   0  0  0  0  0  0  0  0  0  0  0  0
   47.0599   30.3034   48.3286 H   0  0  0  0  0  0  0  0  0  0  0  0
   46.4271   32.0803   37.9807 H   0  0  0  0  0  0  0  0  0  0  0  0
   45.7427   33.7143   37.4895 H   0  0  0  0  0  0  0  0  0  0  0  0
   43.9942   34.4523   37.9258 H   0  0  0  0  0  0  0  0  0  0  0  0
   41.5462   34.2935   38.2923 H   0  0  0  0  0  0  0  0  0  0  0  0
   42.2932   30.3239   39.6578 H   0  0  0  0  0  0  0  0  0  0  0  0
  1 11  1  0
  2  1  1  0
  3  2  2  0
  4  3  1  0
  4  6  1  0
  5  4  2  0
  6  7  1  0
  7  1  1  0
  7  8  2  0
  9 14  2  0
 10  9  1  0
 11 10  2  0
 11 12  1  0
 12 13  2  0
 13 14  1  0
 13 15  1  0
 15 16  2  0
 16 17  1  0
 18 17  2  0
 19 15  1  0
 19 18  1  0
 20 21  1  0
 20  3  1  0
 21 27  1  0
 22 23  2  0
 22 21  1  0
 23 24  1  0
 24 25  2  0
 24 26  1  0
 27 28  2  0
 27 26  1  0
  2 29  1  0
  6 30  1  0
  9 31  1  0
 10 32  1  0
 16 33  1  0
 17 34  1  0
 18 35  1  0
 20 36  1  0
 20 37  1  0
 22 38  1  0
 23 39  1  0
 26 40  1  0
M  ISO  8  29  14  30   9  31  14  32  14  33  14  34  14  35  14  36   8
M  ISO  4  37   8  38  14  39  14  40   9
M  END
>  <minimizedAffinity>  (1) 
-6.27697468

>  <minimizedRMSD>  (1) 
2.5827682

$$$$
