
     RDKit          3D

 37 39  0  0  0  0  0  0  0  0999 V2000
   46.5980   34.3650   41.6090 N   0  0  0  0  0  0  0  0  0  0  0  0
   46.0910   33.6270   40.6100 C   0  0  0  0  0  0  0  0  0  0  0  0
   46.7260   33.4620   39.4100 C   0  0  0  0  0  0  0  0  0  0  0  0
   47.9400   34.1140   39.2920 C   0  0  0  0  0  0  0  0  0  0  0  0
   48.5930   34.0130   38.2130 O   0  0  0  0  0  0  0  0  0  0  0  0
   48.4890   34.8760   40.2890 N   0  0  0  0  0  0  0  0  0  0  0  0
   47.8050   34.9950   41.4490 C   0  0  0  0  0  0  0  0  0  0  0  0
   48.3570   35.7010   42.3140 O   0  0  0  0  0  0  0  0  0  0  0  0
   44.6590   36.0610   44.2510 C   0  0  0  0  0  0  0  0  0  0  0  0
   45.2600   35.7650   43.0100 C   0  0  0  0  0  0  0  0  0  0  0  0
   46.0300   34.5970   42.8700 C   0  0  0  0  0  0  0  0  0  0  0  0
   46.1590   33.7890   43.9690 N   0  0  0  0  0  0  0  0  0  0  0  0
   45.5740   34.1030   45.1310 C   0  0  0  0  0  0  0  0  0  0  0  0
   44.8330   35.2090   45.2980 N   0  0  0  0  0  0  0  0  0  0  0  0
   45.7690   33.2020   46.2310 C   0  0  0  0  0  0  0  0  0  0  0  0
   45.2330   33.1000   47.4540 C   0  0  0  0  0  0  0  0  0  0  0  0
   45.6000   32.1380   48.3350 C   0  0  0  0  0  0  0  0  0  0  0  0
   46.6190   31.2430   47.8200 C   0  0  0  0  0  0  0  0  0  0  0  0
   46.9440   31.8570   46.1550 S   0  0  0  0  0  0  0  0  0  0  0  0
   46.1360   32.6450   38.3360 C   0  0  0  0  0  0  0  0  0  0  0  0
   45.8570   33.4420   37.1750 N   0  0  0  0  0  0  0  0  0  0  0  0
   45.1060   32.8000   36.1470 C   0  0  0  0  0  0  0  0  0  0  0  0
   44.1780   31.9100   36.3870 N   0  0  0  0  0  0  0  0  0  0  0  0
   45.2580   33.0370   34.7320 N   0  0  0  0  0  0  0  0  0  0  0  0
   43.9310   31.6130   37.3490 H   0  0  0  0  0  0  0  0  0  0  0  0
   45.1206   33.1322   40.7630 H   0  0  0  0  0  0  0  0  0  0  0  0
   49.3968   35.3448   40.1587 H   0  0  0  0  0  0  0  0  0  0  0  0
   44.0550   36.9724   44.3717 H   0  0  0  0  0  0  0  0  0  0  0  0
   45.1269   36.4448   42.1555 H   0  0  0  0  0  0  0  0  0  0  0  0
   44.4639   33.8263   47.7555 H   0  0  0  0  0  0  0  0  0  0  0  0
   45.1676   32.0448   49.3421 H   0  0  0  0  0  0  0  0  0  0  0  0
   47.0863   30.3865   48.3281 H   0  0  0  0  0  0  0  0  0  0  0  0
   46.8418   31.8467   38.0628 H   0  0  0  0  0  0  0  0  0  0  0  0
   45.1910   32.2168   38.7015 H   0  0  0  0  0  0  0  0  0  0  0  0
   46.1792   34.4166   37.0900 H   0  0  0  0  0  0  0  0  0  0  0  0
   45.9554   33.7162   34.3956 H   0  0  0  0  0  0  0  0  0  0  0  0
   44.6691   32.5270   34.0582 H   0  0  0  0  0  0  0  0  0  0  0  0
  1 11  1  0
  2  1  1  0
  3  2  2  0
  4  3  1  0
  4  6  1  0
  5  4  2  0
  6  7  1  0
  7  1  1  0
  7  8  2  0
  9 14  2  0
 10  9  1  0
 11 10  2  0
 11 12  1  0
 12 13  2  0
 13 14  1  0
 13 15  1  0
 15 16  2  0
 16 17  1  0
 18 17  2  0
 19 15  1  0
 19 18  1  0
 20  3  1  0
 21 20  1  0
 22 23  2  0
 22 21  1  0
 23 25  1  0
 24 22  1  0
  2 26  1  0
  6 27  1  0
  9 28  1  0
 10 29  1  0
 16 30  1  0
 17 31  1  0
 18 32  1  0
 20 33  1  0
 20 34  1  0
 21 35  1  0
 24 36  1  0
 24 37  1  0
M  ISO  8  26  14  27   9  28  14  29  14  30  14  31  14  32  14  33   8
M  ISO  1  34   8
M  END
>  <minimizedAffinity>  (1) 
-6.74292898

>  <minimizedRMSD>  (1) 
0.522843003

$$$$
