
     RDKit          3D

 43 46  0  0  0  0  0  0  0  0999 V2000
   46.4080   34.3160   41.7070 N   0  0  0  0  0  0  0  0  0  0  0  0
   45.7690   33.7380   40.6750 C   0  0  0  0  0  0  0  0  0  0  0  0
   46.3580   33.5360   39.4430 C   0  0  0  0  0  0  0  0  0  0  0  0
   47.6640   33.9800   39.3590 C   0  0  0  0  0  0  0  0  0  0  0  0
   48.2790   33.8350   38.2660 O   0  0  0  0  0  0  0  0  0  0  0  0
   48.3370   34.5650   40.3760 N   0  0  0  0  0  0  0  0  0  0  0  0
   47.7030   34.7370   41.5660 C   0  0  0  0  0  0  0  0  0  0  0  0
   48.3730   35.2810   42.4580 O   0  0  0  0  0  0  0  0  0  0  0  0
   44.6070   36.0600   44.4180 C   0  0  0  0  0  0  0  0  0  0  0  0
   45.1550   35.7450   43.1530 C   0  0  0  0  0  0  0  0  0  0  0  0
   45.8950   34.5620   42.9860 C   0  0  0  0  0  0  0  0  0  0  0  0
   46.0510   33.7520   44.0820 N   0  0  0  0  0  0  0  0  0  0  0  0
   45.5060   34.1010   45.2670 C   0  0  0  0  0  0  0  0  0  0  0  0
   44.8000   35.2150   45.4610 N   0  0  0  0  0  0  0  0  0  0  0  0
   45.7310   33.1810   46.3600 C   0  0  0  0  0  0  0  0  0  0  0  0
   45.1920   33.0410   47.5720 C   0  0  0  0  0  0  0  0  0  0  0  0
   45.5740   32.0840   48.4540 C   0  0  0  0  0  0  0  0  0  0  0  0
   46.6260   31.2310   47.9350 C   0  0  0  0  0  0  0  0  0  0  0  0
   46.9470   31.8760   46.2860 S   0  0  0  0  0  0  0  0  0  0  0  0
   45.6220   32.9010   38.3390 C   0  0  0  0  0  0  0  0  0  0  0  0
   44.1940   33.0030   38.4180 N   0  0  0  0  0  0  0  0  0  0  0  0
   43.4270   34.1040   38.3760 C   0  0  0  0  0  0  0  0  0  0  0  0
   42.0570   34.1380   38.4640 C   0  0  0  0  0  0  0  0  0  0  0  0
   41.3730   35.4740   38.3980 C   0  0  0  0  0  0  0  0  0  0  0  0
   41.4330   32.8980   38.6090 C   0  0  0  0  0  0  0  0  0  0  0  0
   40.1630   32.9980   38.6840 O   0  0  0  0  0  0  0  0  0  0  0  0
   42.1750   31.7870   38.6530 N   0  0  0  0  0  0  0  0  0  0  0  0
   43.5130   31.8590   38.5590 C   0  0  0  0  0  0  0  0  0  0  0  0
   44.1070   30.7490   38.6130 O   0  0  0  0  0  0  0  0  0  0  0  0
   44.7287   33.4109   40.8190 H   0  0  0  0  0  0  0  0  0  0  0  0
   49.3115   34.8743   40.2511 H   0  0  0  0  0  0  0  0  0  0  0  0
   44.0276   36.9849   44.5552 H   0  0  0  0  0  0  0  0  0  0  0  0
   45.0024   36.4245   42.3015 H   0  0  0  0  0  0  0  0  0  0  0  0
   44.3959   33.7383   47.8720 H   0  0  0  0  0  0  0  0  0  0  0  0
   45.1334   31.9674   49.4551 H   0  0  0  0  0  0  0  0  0  0  0  0
   47.1161   30.3829   48.4355 H   0  0  0  0  0  0  0  0  0  0  0  0
   45.8864   31.8334   38.3236 H   0  0  0  0  0  0  0  0  0  0  0  0
   45.9162   33.4402   37.4265 H   0  0  0  0  0  0  0  0  0  0  0  0
   43.9438   35.0681   38.2604 H   0  0  0  0  0  0  0  0  0  0  0  0
   41.1853   35.8406   39.4180 H   0  0  0  0  0  0  0  0  0  0  0  0
   42.0159   36.1891   37.8638 H   0  0  0  0  0  0  0  0  0  0  0  0
   40.4170   35.3705   37.8638 H   0  0  0  0  0  0  0  0  0  0  0  0
   41.7180   30.8701   38.7596 H   0  0  0  0  0  0  0  0  0  0  0  0
  1 11  1  0
  2  1  1  0
  3  2  2  0
  4  3  1  0
  4  6  1  0
  5  4  2  0
  6  7  1  0
  7  1  1  0
  7  8  2  0
  9 14  2  0
 10  9  1  0
 11 10  2  0
 11 12  1  0
 12 13  2  0
 13 14  1  0
 13 15  1  0
 15 16  2  0
 16 17  1  0
 18 17  2  0
 19 15  1  0
 19 18  1  0
 20 21  1  0
 20  3  1  0
 21 28  1  0
 22 21  1  0
 22 23  2  0
 23 25  1  0
 24 23  1  0
 25 27  1  0
 25 26  2  0
 28 29  2  0
 28 27  1  0
  2 30  1  0
  6 31  1  0
  9 32  1  0
 10 33  1  0
 16 34  1  0
 17 35  1  0
 18 36  1  0
 20 37  1  0
 20 38  1  0
 22 39  1  0
 24 40  1  0
 24 41  1  0
 24 42  1  0
 27 43  1  0
M  ISO  8  30  14  31   9  32  14  33  14  34  14  35  14  36  14  37   8
M  ISO  6  38   8  39  14  40   8  41   8  42   8  43   9
M  END
>  <minimizedAffinity>  (1) 
-6.67853355

>  <minimizedRMSD>  (1) 
3.46858168

$$$$
