
     RDKit          3D

 40 43  0  0  0  0  0  0  0  0999 V2000
   46.5570   34.3910   41.6370 N   0  0  0  0  0  0  0  0  0  0  0  0
   45.9700   33.8260   40.5790 C   0  0  0  0  0  0  0  0  0  0  0  0
   46.5870   33.6600   39.3690 C   0  0  0  0  0  0  0  0  0  0  0  0
   47.9010   34.1340   39.3190 C   0  0  0  0  0  0  0  0  0  0  0  0
   48.5510   34.0240   38.2360 O   0  0  0  0  0  0  0  0  0  0  0  0
   48.5210   34.7100   40.3750 N   0  0  0  0  0  0  0  0  0  0  0  0
   47.8460   34.8400   41.5390 C   0  0  0  0  0  0  0  0  0  0  0  0
   48.4810   35.3820   42.4700 O   0  0  0  0  0  0  0  0  0  0  0  0
   44.6490   36.0490   44.3220 C   0  0  0  0  0  0  0  0  0  0  0  0
   45.2370   35.7690   43.0670 C   0  0  0  0  0  0  0  0  0  0  0  0
   46.0060   34.6050   42.9010 C   0  0  0  0  0  0  0  0  0  0  0  0
   46.1450   33.7880   43.9910 N   0  0  0  0  0  0  0  0  0  0  0  0
   45.5700   34.0890   45.1660 C   0  0  0  0  0  0  0  0  0  0  0  0
   44.8320   35.1920   45.3540 N   0  0  0  0  0  0  0  0  0  0  0  0
   45.7840   33.1500   46.2460 C   0  0  0  0  0  0  0  0  0  0  0  0
   45.2590   33.0330   47.4680 C   0  0  0  0  0  0  0  0  0  0  0  0
   45.6110   32.0560   48.3330 C   0  0  0  0  0  0  0  0  0  0  0  0
   46.6140   31.1600   47.7810 C   0  0  0  0  0  0  0  0  0  0  0  0
   46.9300   31.8040   46.1300 S   0  0  0  0  0  0  0  0  0  0  0  0
   45.9120   33.0370   38.2170 C   0  0  0  0  0  0  0  0  0  0  0  0
   46.2970   31.6510   37.9420 C   0  0  0  0  0  0  0  0  0  0  0  0
   46.2720   30.6070   38.8530 C   0  0  0  0  0  0  0  0  0  0  0  0
   46.6490   29.3390   38.4970 C   0  0  0  0  0  0  0  0  0  0  0  0
   47.0640   29.0760   37.2170 C   0  0  0  0  0  0  0  0  0  0  0  0
   47.1080   30.0820   36.2710 C   0  0  0  0  0  0  0  0  0  0  0  0
   46.7200   31.3690   36.6510 C   0  0  0  0  0  0  0  0  0  0  0  0
   44.9332   33.4746   40.6861 H   0  0  0  0  0  0  0  0  0  0  0  0
   49.4919   35.0441   40.2931 H   0  0  0  0  0  0  0  0  0  0  0  0
   44.0459   36.9586   44.4592 H   0  0  0  0  0  0  0  0  0  0  0  0
   45.0928   36.4602   42.2235 H   0  0  0  0  0  0  0  0  0  0  0  0
   44.5038   33.7669   47.7860 H   0  0  0  0  0  0  0  0  0  0  0  0
   45.1860   31.9505   49.3421 H   0  0  0  0  0  0  0  0  0  0  0  0
   47.0756   30.2858   48.2634 H   0  0  0  0  0  0  0  0  0  0  0  0
   44.8285   33.0579   38.4056 H   0  0  0  0  0  0  0  0  0  0  0  0
   46.2164   33.6187   37.3344 H   0  0  0  0  0  0  0  0  0  0  0  0
   45.9423   30.8007   39.8844 H   0  0  0  0  0  0  0  0  0  0  0  0
   46.6187   28.5290   39.2407 H   0  0  0  0  0  0  0  0  0  0  0  0
   47.3647   28.0546   36.9407 H   0  0  0  0  0  0  0  0  0  0  0  0
   47.4406   29.8745   35.2432 H   0  0  0  0  0  0  0  0  0  0  0  0
   46.7506   32.1795   35.9079 H   0  0  0  0  0  0  0  0  0  0  0  0
  1 11  1  0
  2  1  1  0
  3  2  2  0
  4  3  1  0
  4  6  1  0
  5  4  2  0
  6  7  1  0
  7  1  1  0
  7  8  2  0
  9 14  2  0
 10  9  1  0
 11 10  2  0
 11 12  1  0
 12 13  2  0
 13 14  1  0
 13 15  1  0
 15 16  2  0
 16 17  1  0
 18 17  2  0
 19 15  1  0
 19 18  1  0
 20  3  1  0
 21 20  1  0
 21 22  2  0
 23 22  1  0
 24 23  2  0
 25 26  2  0
 25 24  1  0
 26 21  1  0
  2 27  1  0
  6 28  1  0
  9 29  1  0
 10 30  1  0
 16 31  1  0
 17 32  1  0
 18 33  1  0
 20 34  1  0
 20 35  1  0
 22 36  1  0
 23 37  1  0
 24 38  1  0
 25 39  1  0
 26 40  1  0
M  ISO  8  27  14  28   9  29  14  30  14  31  14  32  14  33  14  34   8
M  ISO  6  35   8  36  14  37  14  38  14  39  14  40  14
M  END
>  <minimizedAffinity>  (1) 
-5.74651098

>  <minimizedRMSD>  (1) 
0.0785596743

$$$$
