
     RDKit          3D

 37 40  0  0  0  0  0  0  0  0999 V2000
   45.9320   34.1820   41.9190 N   0  0  0  0  0  0  0  0  0  0  0  0
   45.1590   33.6650   40.9420 C   0  0  0  0  0  0  0  0  0  0  0  0
   45.6040   33.4340   39.6620 C   0  0  0  0  0  0  0  0  0  0  0  0
   46.9270   33.7780   39.4510 C   0  0  0  0  0  0  0  0  0  0  0  0
   47.4280   33.6060   38.3090 O   0  0  0  0  0  0  0  0  0  0  0  0
   47.7360   34.3000   40.4030 N   0  0  0  0  0  0  0  0  0  0  0  0
   47.2340   34.5050   41.6560 C   0  0  0  0  0  0  0  0  0  0  0  0
   48.0090   34.9790   42.4870 O   0  0  0  0  0  0  0  0  0  0  0  0
   44.4770   35.9590   44.8000 C   0  0  0  0  0  0  0  0  0  0  0  0
   44.8820   35.6410   43.4840 C   0  0  0  0  0  0  0  0  0  0  0  0
   45.5610   34.4440   43.2460 C   0  0  0  0  0  0  0  0  0  0  0  0
   45.8060   33.6230   44.3200 N   0  0  0  0  0  0  0  0  0  0  0  0
   45.4030   33.9710   45.5510 C   0  0  0  0  0  0  0  0  0  0  0  0
   44.7490   35.1100   45.8150 N   0  0  0  0  0  0  0  0  0  0  0  0
   45.7080   33.0410   46.6200 C   0  0  0  0  0  0  0  0  0  0  0  0
   45.2040   32.8540   47.8450 C   0  0  0  0  0  0  0  0  0  0  0  0
   45.6640   31.8890   48.6780 C   0  0  0  0  0  0  0  0  0  0  0  0
   46.7400   31.0960   48.1110 C   0  0  0  0  0  0  0  0  0  0  0  0
   46.9840   31.8010   46.4600 S   0  0  0  0  0  0  0  0  0  0  0  0
   44.7430   32.8550   38.6350 C   0  0  0  0  0  0  0  0  0  0  0  0
   43.3350   33.1300   38.7930 N   0  0  0  0  0  0  0  0  0  0  0  0
   42.8030   34.3270   38.4510 C   0  0  0  0  0  0  0  0  0  0  0  0
   41.4470   34.3310   38.7020 C   0  0  0  0  0  0  0  0  0  0  0  0
   41.1490   33.1020   39.2120 N   0  0  0  0  0  0  0  0  0  0  0  0
   42.2970   32.4090   39.2520 C   0  0  0  0  0  0  0  0  0  0  0  0
   44.1153   33.4145   41.1827 H   0  0  0  0  0  0  0  0  0  0  0  0
   48.7141   34.5385   40.1855 H   0  0  0  0  0  0  0  0  0  0  0  0
   43.9400   36.8984   44.9980 H   0  0  0  0  0  0  0  0  0  0  0  0
   44.6644   36.3300   42.6546 H   0  0  0  0  0  0  0  0  0  0  0  0
   44.3876   33.5064   48.1882 H   0  0  0  0  0  0  0  0  0  0  0  0
   45.2605   31.7224   49.6877 H   0  0  0  0  0  0  0  0  0  0  0  0
   47.2822   30.2598   48.5766 H   0  0  0  0  0  0  0  0  0  0  0  0
   44.8812   31.7638   38.6493 H   0  0  0  0  0  0  0  0  0  0  0  0
   45.0423   33.3209   37.6845 H   0  0  0  0  0  0  0  0  0  0  0  0
   43.3695   35.1727   38.0339 H   0  0  0  0  0  0  0  0  0  0  0  0
   40.7458   35.1601   38.5260 H   0  0  0  0  0  0  0  0  0  0  0  0
   42.3793   31.3745   39.6167 H   0  0  0  0  0  0  0  0  0  0  0  0
  1 11  1  0
  2  1  1  0
  3  2  2  0
  4  3  1  0
  4  6  1  0
  5  4  2  0
  6  7  1  0
  7  1  1  0
  7  8  2  0
  9 14  2  0
 10  9  1  0
 11 10  2  0
 11 12  1  0
 12 13  2  0
 13 14  1  0
 13 15  1  0
 15 16  2  0
 16 17  1  0
 18 17  2  0
 19 15  1  0
 19 18  1  0
 20 21  1  0
 20  3  1  0
 21 25  1  0
 22 23  2  0
 22 21  1  0
 23 24  1  0
 24 25  2  0
  2 26  1  0
  6 27  1  0
  9 28  1  0
 10 29  1  0
 16 30  1  0
 17 31  1  0
 18 32  1  0
 20 33  1  0
 20 34  1  0
 22 35  1  0
 23 36  1  0
 25 37  1  0
M  ISO  8  26  14  27   9  28  14  29  14  30  14  31  14  32  14  33   8
M  ISO  4  34   8  35  14  36  14  37  14
M  END
>  <minimizedAffinity>  (1) 
-5.87617016

>  <minimizedRMSD>  (1) 
1.97564697

$$$$
