
     RDKit          3D

 37 40  0  0  0  0  0  0  0  0999 V2000
   46.5790   34.3990   41.6240 N   0  0  0  0  0  0  0  0  0  0  0  0
   46.0110   33.8090   40.5680 C   0  0  0  0  0  0  0  0  0  0  0  0
   46.6280   33.6440   39.3590 C   0  0  0  0  0  0  0  0  0  0  0  0
   47.9240   34.1510   39.3110 C   0  0  0  0  0  0  0  0  0  0  0  0
   48.5880   34.0520   38.2380 O   0  0  0  0  0  0  0  0  0  0  0  0
   48.5440   34.7610   40.3650 N   0  0  0  0  0  0  0  0  0  0  0  0
   47.8560   34.8820   41.5270 C   0  0  0  0  0  0  0  0  0  0  0  0
   48.4720   35.4450   42.4490 O   0  0  0  0  0  0  0  0  0  0  0  0
   44.6560   36.0440   44.3080 C   0  0  0  0  0  0  0  0  0  0  0  0
   45.2490   35.7730   43.0540 C   0  0  0  0  0  0  0  0  0  0  0  0
   46.0200   34.6090   42.8900 C   0  0  0  0  0  0  0  0  0  0  0  0
   46.1550   33.7840   43.9780 N   0  0  0  0  0  0  0  0  0  0  0  0
   45.5740   34.0850   45.1450 C   0  0  0  0  0  0  0  0  0  0  0  0
   44.8350   35.1820   45.3380 N   0  0  0  0  0  0  0  0  0  0  0  0
   45.7780   33.1570   46.2320 C   0  0  0  0  0  0  0  0  0  0  0  0
   45.2670   33.0330   47.4570 C   0  0  0  0  0  0  0  0  0  0  0  0
   45.6260   32.0550   48.3250 C   0  0  0  0  0  0  0  0  0  0  0  0
   46.6280   31.1600   47.7720 C   0  0  0  0  0  0  0  0  0  0  0  0
   46.9360   31.8010   46.1160 S   0  0  0  0  0  0  0  0  0  0  0  0
   45.9960   33.0020   38.2170 C   0  0  0  0  0  0  0  0  0  0  0  0
   46.4910   31.6640   37.9570 N   0  0  0  0  0  0  0  0  0  0  0  0
   47.0000   31.3740   36.7520 N   0  0  0  0  0  0  0  0  0  0  0  0
   47.4060   30.1100   36.6820 C   0  0  0  0  0  0  0  0  0  0  0  0
   47.1350   29.5770   37.9100 C   0  0  0  0  0  0  0  0  0  0  0  0
   46.5590   30.5540   38.7140 C   0  0  0  0  0  0  0  0  0  0  0  0
   44.9833   33.4327   40.6782 H   0  0  0  0  0  0  0  0  0  0  0  0
   49.5061   35.1185   40.2792 H   0  0  0  0  0  0  0  0  0  0  0  0
   44.0510   36.9520   44.4474 H   0  0  0  0  0  0  0  0  0  0  0  0
   45.1083   36.4676   42.2127 H   0  0  0  0  0  0  0  0  0  0  0  0
   44.5124   33.7645   47.7817 H   0  0  0  0  0  0  0  0  0  0  0  0
   45.2051   31.9508   49.3360 H   0  0  0  0  0  0  0  0  0  0  0  0
   47.0935   30.2882   48.2549 H   0  0  0  0  0  0  0  0  0  0  0  0
   44.9141   32.9420   38.4063 H   0  0  0  0  0  0  0  0  0  0  0  0
   46.2323   33.6114   37.3322 H   0  0  0  0  0  0  0  0  0  0  0  0
   47.8625   29.6021   35.8196 H   0  0  0  0  0  0  0  0  0  0  0  0
   47.3399   28.5400   38.2143 H   0  0  0  0  0  0  0  0  0  0  0  0
   46.2266   30.4422   39.7566 H   0  0  0  0  0  0  0  0  0  0  0  0
  1 11  1  0
  2  1  1  0
  3  2  2  0
  4  3  1  0
  4  6  1  0
  5  4  2  0
  6  7  1  0
  7  1  1  0
  7  8  2  0
  9 14  2  0
 10  9  1  0
 11 10  2  0
 11 12  1  0
 12 13  2  0
 13 14  1  0
 13 15  1  0
 15 16  2  0
 16 17  1  0
 18 17  2  0
 19 15  1  0
 19 18  1  0
 20  3  1  0
 21 20  1  0
 21 25  1  0
 22 21  1  0
 23 22  2  0
 23 24  1  0
 24 25  2  0
  2 26  1  0
  6 27  1  0
  9 28  1  0
 10 29  1  0
 16 30  1  0
 17 31  1  0
 18 32  1  0
 20 33  1  0
 20 34  1  0
 23 35  1  0
 24 36  1  0
 25 37  1  0
M  ISO  8  26  14  27   9  28  14  29  14  30  14  31  14  32  14  33   8
M  ISO  4  34   8  35  14  36  14  37  14
M  END
>  <minimizedAffinity>  (1) 
-5.72610474

>  <minimizedRMSD>  (1) 
0.371433377

$$$$
