
     RDKit          3D

 38 40  0  0  0  0  0  0  0  0999 V2000
   47.5790   34.7840   41.6030 C   0  0  0  0  0  0  0  0  0  0  0  0
   47.2430   34.2600   40.2490 C   0  0  0  0  0  0  0  0  0  0  0  0
   48.1750   34.1900   39.2340 C   0  0  0  0  0  0  0  0  0  0  0  0
   47.9440   33.7160   37.9660 C   0  0  0  0  0  0  0  0  0  0  0  0
   46.6680   33.2850   37.7290 N   0  0  0  0  0  0  0  0  0  0  0  0
   45.7460   33.3490   38.7160 C   0  0  0  0  0  0  0  0  0  0  0  0
   45.9720   33.8160   39.9640 N   0  0  0  0  0  0  0  0  0  0  0  0
   44.3990   32.8680   38.3950 C   0  0  0  0  0  0  0  0  0  0  0  0
   43.2760   33.5660   38.7970 C   0  0  0  0  0  0  0  0  0  0  0  0
   42.0230   33.1100   38.4970 C   0  0  0  0  0  0  0  0  0  0  0  0
   41.8650   31.9900   37.8140 N   0  0  0  0  0  0  0  0  0  0  0  0
   42.9760   31.3030   37.4190 C   0  0  0  0  0  0  0  0  0  0  0  0
   44.2390   31.7330   37.7030 N   0  0  0  0  0  0  0  0  0  0  0  0
   47.2850   33.7140   42.6030 C   0  0  0  0  0  0  0  0  0  0  0  0
   44.7090   35.5800   44.6300 C   0  0  0  0  0  0  0  0  0  0  0  0
   45.5580   35.1890   43.5840 C   0  0  0  0  0  0  0  0  0  0  0  0
   46.3960   34.1160   43.7000 C   0  0  0  0  0  0  0  0  0  0  0  0
   46.3820   33.4350   44.8640 N   0  0  0  0  0  0  0  0  0  0  0  0
   45.5460   33.8260   45.8840 C   0  0  0  0  0  0  0  0  0  0  0  0
   44.7410   34.8620   45.7650 N   0  0  0  0  0  0  0  0  0  0  0  0
   45.5740   33.0300   47.1540 C   0  0  0  0  0  0  0  0  0  0  0  0
   46.9550   32.4640   47.4050 C   0  0  0  0  0  0  0  0  0  0  0  0
   46.9699   35.6739   41.8197 H   0  0  0  0  0  0  0  0  0  0  0  0
   48.6413   35.0658   41.6488 H   0  0  0  0  0  0  0  0  0  0  0  0
   49.1914   34.5447   39.4601 H   0  0  0  0  0  0  0  0  0  0  0  0
   48.7291   33.6852   37.1961 H   0  0  0  0  0  0  0  0  0  0  0  0
   43.3921   34.5004   39.3656 H   0  0  0  0  0  0  0  0  0  0  0  0
   41.1408   33.6788   38.8261 H   0  0  0  0  0  0  0  0  0  0  0  0
   42.8485   30.3694   36.8515 H   0  0  0  0  0  0  0  0  0  0  0  0
   46.8144   32.8724   42.0736 H   0  0  0  0  0  0  0  0  0  0  0  0
   48.2479   33.4549   43.0674 H   0  0  0  0  0  0  0  0  0  0  0  0
   44.0391   36.4460   44.5244 H   0  0  0  0  0  0  0  0  0  0  0  0
   45.5489   35.7617   42.6449 H   0  0  0  0  0  0  0  0  0  0  0  0
   45.2937   33.6822   47.9943 H   0  0  0  0  0  0  0  0  0  0  0  0
   44.8631   32.1956   47.0621 H   0  0  0  0  0  0  0  0  0  0  0  0
   47.1304   32.3921   48.4885 H   0  0  0  0  0  0  0  0  0  0  0  0
   47.0285   31.4632   46.9544 H   0  0  0  0  0  0  0  0  0  0  0  0
   47.7098   33.1253   46.9544 H   0  0  0  0  0  0  0  0  0  0  0  0
  1 14  1  0
  2  1  1  0
  3  2  2  0
  4  3  1  0
  5  4  2  0
  5  6  1  0
  6  7  2  0
  7  2  1  0
  8  6  1  0
  8  9  2  0
 10  9  1  0
 11 10  2  0
 12 13  2  0
 12 11  1  0
 13  8  1  0
 14 17  1  0
 15 20  2  0
 16 17  2  0
 16 15  1  0
 17 18  1  0
 18 19  2  0
 19 21  1  0
 20 19  1  0
 21 22  1  0
  1 23  1  0
  1 24  1  0
  3 25  1  0
  4 26  1  0
  9 27  1  0
 10 28  1  0
 12 29  1  0
 14 30  1  0
 14 31  1  0
 15 32  1  0
 16 33  1  0
 21 34  1  0
 21 35  1  0
 22 36  1  0
 22 37  1  0
 22 38  1  0
M  ISO  8  23   8  24   8  25  14  26  14  27  14  28  14  29  14  30   8
M  ISO  8  31   8  32  14  33  14  34   8  35   8  36   8  37   8  38   8
M  END
>  <minimizedAffinity>  (1) 
-5.03011847

>  <minimizedRMSD>  (1) 
0.376589656

$$$$
