
     RDKit          3D

 40 43  0  0  0  0  0  0  0  0999 V2000
   46.5790   34.4150   41.6250 N   0  0  0  0  0  0  0  0  0  0  0  0
   46.0080   33.8340   40.5720 C   0  0  0  0  0  0  0  0  0  0  0  0
   46.6450   33.6730   39.3580 C   0  0  0  0  0  0  0  0  0  0  0  0
   47.9290   34.1630   39.3060 C   0  0  0  0  0  0  0  0  0  0  0  0
   48.5910   34.0620   38.2360 O   0  0  0  0  0  0  0  0  0  0  0  0
   48.5480   34.7660   40.3690 N   0  0  0  0  0  0  0  0  0  0  0  0
   47.8580   34.8870   41.5310 C   0  0  0  0  0  0  0  0  0  0  0  0
   48.4780   35.4440   42.4560 O   0  0  0  0  0  0  0  0  0  0  0  0
   44.6610   36.0390   44.3150 C   0  0  0  0  0  0  0  0  0  0  0  0
   45.2550   35.7780   43.0520 C   0  0  0  0  0  0  0  0  0  0  0  0
   46.0170   34.6240   42.8920 C   0  0  0  0  0  0  0  0  0  0  0  0
   46.1550   33.7900   43.9720 N   0  0  0  0  0  0  0  0  0  0  0  0
   45.5780   34.0740   45.1440 C   0  0  0  0  0  0  0  0  0  0  0  0
   44.8350   35.1760   45.3420 N   0  0  0  0  0  0  0  0  0  0  0  0
   45.7820   33.1440   46.2270 C   0  0  0  0  0  0  0  0  0  0  0  0
   45.2720   33.0320   47.4550 C   0  0  0  0  0  0  0  0  0  0  0  0
   45.6390   32.0540   48.3210 C   0  0  0  0  0  0  0  0  0  0  0  0
   46.6370   31.1530   47.7610 C   0  0  0  0  0  0  0  0  0  0  0  0
   46.9330   31.7880   46.1070 S   0  0  0  0  0  0  0  0  0  0  0  0
   45.9810   33.0070   38.2230 C   0  0  0  0  0  0  0  0  0  0  0  0
   46.5260   31.6150   38.1800 C   0  0  0  0  0  0  0  0  0  0  0  0
   46.9820   31.3240   36.8930 C   0  0  0  0  0  0  0  0  0  0  0  0
   47.5350   30.1100   36.5510 C   0  0  0  0  0  0  0  0  0  0  0  0
   47.6390   29.1440   37.5440 C   0  0  0  0  0  0  0  0  0  0  0  0
   47.1880   29.4380   38.8100 C   0  0  0  0  0  0  0  0  0  0  0  0
   46.6350   30.6550   39.1420 C   0  0  0  0  0  0  0  0  0  0  0  0
   44.9772   33.4638   40.6745 H   0  0  0  0  0  0  0  0  0  0  0  0
   49.5124   35.1185   40.2882 H   0  0  0  0  0  0  0  0  0  0  0  0
   44.0568   36.9468   44.4589 H   0  0  0  0  0  0  0  0  0  0  0  0
   45.1153   36.4763   42.2136 H   0  0  0  0  0  0  0  0  0  0  0  0
   44.5198   33.7659   47.7800 H   0  0  0  0  0  0  0  0  0  0  0  0
   45.2274   31.9526   49.3360 H   0  0  0  0  0  0  0  0  0  0  0  0
   47.1039   30.2809   48.2421 H   0  0  0  0  0  0  0  0  0  0  0  0
   44.8921   32.9857   38.3772 H   0  0  0  0  0  0  0  0  0  0  0  0
   46.1684   33.5405   37.2794 H   0  0  0  0  0  0  0  0  0  0  0  0
   46.8957   32.0992   36.1173 H   0  0  0  0  0  0  0  0  0  0  0  0
   47.8826   29.9119   35.5263 H   0  0  0  0  0  0  0  0  0  0  0  0
   48.0753   28.1591   37.3214 H   0  0  0  0  0  0  0  0  0  0  0  0
   47.2727   28.6679   39.5909 H   0  0  0  0  0  0  0  0  0  0  0  0
   46.2868   30.8494   40.1672 H   0  0  0  0  0  0  0  0  0  0  0  0
  1 11  1  0
  2  1  1  0
  3  2  2  0
  4  3  1  0
  4  6  1  0
  5  4  2  0
  6  7  1  0
  7  1  1  0
  7  8  2  0
  9 14  2  0
 10  9  1  0
 11 10  2  0
 11 12  1  0
 12 13  2  0
 13 14  1  0
 13 15  1  0
 15 16  2  0
 16 17  1  0
 18 17  2  0
 19 15  1  0
 19 18  1  0
 20  3  1  0
 21 20  1  0
 21 26  1  0
 22 21  2  0
 23 22  1  0
 23 24  2  0
 24 25  1  0
 25 26  2  0
  2 27  1  0
  6 28  1  0
  9 29  1  0
 10 30  1  0
 16 31  1  0
 17 32  1  0
 18 33  1  0
 20 34  1  0
 20 35  1  0
 22 36  1  0
 23 37  1  0
 24 38  1  0
 25 39  1  0
 26 40  1  0
M  ISO  8  27  14  28   9  29  14  30  14  31  14  32  14  33  14  34   8
M  ISO  6  35   8  36  14  37  14  38  14  39  14  40  14
M  END
>  <minimizedAffinity>  (1) 
-5.7365098

>  <minimizedRMSD>  (1) 
0.0562192127

$$$$
