
     RDKit          3D

 43 46  0  0  0  0  0  0  0  0999 V2000
   46.5320   34.3740   41.6960 N   0  0  0  0  0  0  0  0  0  0  0  0
   45.9370   33.7770   40.6530 C   0  0  0  0  0  0  0  0  0  0  0  0
   46.5340   33.5760   39.4340 C   0  0  0  0  0  0  0  0  0  0  0  0
   47.8310   34.0550   39.3700 C   0  0  0  0  0  0  0  0  0  0  0  0
   48.4960   33.9370   38.2970 O   0  0  0  0  0  0  0  0  0  0  0  0
   48.4730   34.6650   40.3990 N   0  0  0  0  0  0  0  0  0  0  0  0
   47.8180   34.8290   41.5800 C   0  0  0  0  0  0  0  0  0  0  0  0
   48.4450   35.3910   42.4850 O   0  0  0  0  0  0  0  0  0  0  0  0
   44.6410   36.0690   44.3670 C   0  0  0  0  0  0  0  0  0  0  0  0
   45.2220   35.7790   43.1120 C   0  0  0  0  0  0  0  0  0  0  0  0
   45.9790   34.6090   42.9650 C   0  0  0  0  0  0  0  0  0  0  0  0
   46.1190   33.7930   44.0560 N   0  0  0  0  0  0  0  0  0  0  0  0
   45.5480   34.1110   45.2270 C   0  0  0  0  0  0  0  0  0  0  0  0
   44.8200   35.2150   45.4100 N   0  0  0  0  0  0  0  0  0  0  0  0
   45.7520   33.1970   46.3230 C   0  0  0  0  0  0  0  0  0  0  0  0
   45.2040   33.0660   47.5310 C   0  0  0  0  0  0  0  0  0  0  0  0
   45.5720   32.1050   48.4160 C   0  0  0  0  0  0  0  0  0  0  0  0
   46.6240   31.2390   47.9030 C   0  0  0  0  0  0  0  0  0  0  0  0
   46.9570   31.8850   46.2540 S   0  0  0  0  0  0  0  0  0  0  0  0
   45.8660   32.9150   38.3180 C   0  0  0  0  0  0  0  0  0  0  0  0
   44.5040   32.5980   38.4350 N   0  0  0  0  0  0  0  0  0  0  0  0
   43.5400   33.5700   38.1180 C   0  0  0  0  0  0  0  0  0  0  0  0
   42.1220   33.1340   38.4820 C   0  0  0  0  0  0  0  0  0  0  0  0
   41.8850   31.8040   38.2210 O   0  0  0  0  0  0  0  0  0  0  0  0
   42.8100   30.9970   38.8820 C   0  0  0  0  0  0  0  0  0  0  0  0
   44.1430   31.2370   38.1830 C   0  0  0  0  0  0  0  0  0  0  0  0
   44.9028   33.4255   40.7832 H   0  0  0  0  0  0  0  0  0  0  0  0
   49.4411   34.9985   40.2872 H   0  0  0  0  0  0  0  0  0  0  0  0
   44.0450   36.9839   44.5000 H   0  0  0  0  0  0  0  0  0  0  0  0
   45.0819   36.4626   42.2617 H   0  0  0  0  0  0  0  0  0  0  0  0
   44.4138   33.7723   47.8255 H   0  0  0  0  0  0  0  0  0  0  0  0
   45.1234   31.9925   49.4141 H   0  0  0  0  0  0  0  0  0  0  0  0
   47.1047   30.3869   48.4060 H   0  0  0  0  0  0  0  0  0  0  0  0
   46.4022   31.9725   38.1332 H   0  0  0  0  0  0  0  0  0  0  0  0
   45.8960   33.6619   37.5110 H   0  0  0  0  0  0  0  0  0  0  0  0
   43.7766   34.4928   38.6679 H   0  0  0  0  0  0  0  0  0  0  0  0
   43.5707   33.7261   37.0296 H   0  0  0  0  0  0  0  0  0  0  0  0
   41.9646   33.3140   39.5557 H   0  0  0  0  0  0  0  0  0  0  0  0
   41.4280   33.7199   37.8615 H   0  0  0  0  0  0  0  0  0  0  0  0
   42.8770   31.2805   39.9427 H   0  0  0  0  0  0  0  0  0  0  0  0
   42.5198   29.9365   38.8483 H   0  0  0  0  0  0  0  0  0  0  0  0
   44.0390   31.0671   37.1012 H   0  0  0  0  0  0  0  0  0  0  0  0
   44.9145   30.5486   38.5583 H   0  0  0  0  0  0  0  0  0  0  0  0
  1 11  1  0
  2  1  1  0
  3  2  2  0
  4  3  1  0
  4  6  1  0
  5  4  2  0
  6  7  1  0
  7  1  1  0
  7  8  2  0
  9 14  2  0
 10  9  1  0
 11 10  2  0
 11 12  1  0
 12 13  2  0
 13 14  1  0
 13 15  1  0
 15 16  2  0
 16 17  1  0
 18 17  2  0
 19 15  1  0
 19 18  1  0
 20 21  1  0
 20  3  1  0
 22 21  1  0
 22 23  1  0
 24 23  1  0
 24 25  1  0
 26 21  1  0
 26 25  1  0
  2 27  1  0
  6 28  1  0
  9 29  1  0
 10 30  1  0
 16 31  1  0
 17 32  1  0
 18 33  1  0
 20 34  1  0
 20 35  1  0
 22 36  1  0
 22 37  1  0
 23 38  1  0
 23 39  1  0
 25 40  1  0
 25 41  1  0
 26 42  1  0
 26 43  1  0
M  ISO  8  27  14  28   9  29  14  30  14  31  14  32  14  33  14  34   8
M  ISO  8  35   8  36  13  37  13  38  13  39  13  40  13  41  13  42  13
M  ISO  1  43  13
M  END
>  <minimizedAffinity>  (1) 
-6.01330471

>  <minimizedRMSD>  (1) 
2.11948657

$$$$
