
     RDKit          3D

 31 33  0  0  0  0  0  0  0  0999 V2000
   44.6550   36.0540   44.3050 C   0  0  0  0  0  0  0  0  0  0  0  0
   45.2550   35.7660   43.0460 C   0  0  0  0  0  0  0  0  0  0  0  0
   46.0120   34.6130   42.8940 C   0  0  0  0  0  0  0  0  0  0  0  0
   46.1470   33.7960   43.9800 N   0  0  0  0  0  0  0  0  0  0  0  0
   45.5690   34.0960   45.1540 C   0  0  0  0  0  0  0  0  0  0  0  0
   44.8320   35.1990   45.3380 N   0  0  0  0  0  0  0  0  0  0  0  0
   46.5780   34.3940   41.6260 N   0  0  0  0  0  0  0  0  0  0  0  0
   45.9930   33.7790   40.5800 C   0  0  0  0  0  0  0  0  0  0  0  0
   46.6190   33.6030   39.3650 C   0  0  0  0  0  0  0  0  0  0  0  0
   47.9100   34.1130   39.3070 C   0  0  0  0  0  0  0  0  0  0  0  0
   48.5670   33.9970   38.2260 O   0  0  0  0  0  0  0  0  0  0  0  0
   48.5270   34.7420   40.3540 N   0  0  0  0  0  0  0  0  0  0  0  0
   47.8410   34.8760   41.5180 C   0  0  0  0  0  0  0  0  0  0  0  0
   48.4600   35.4510   42.4210 O   0  0  0  0  0  0  0  0  0  0  0  0
   45.9750   32.9370   38.2390 C   0  0  0  0  0  0  0  0  0  0  0  0
   46.7200   31.7810   37.9610 O   0  0  0  0  0  0  0  0  0  0  0  0
   45.7780   33.1630   46.2350 C   0  0  0  0  0  0  0  0  0  0  0  0
   45.2590   33.0420   47.4580 C   0  0  0  0  0  0  0  0  0  0  0  0
   45.6060   32.0720   48.3320 C   0  0  0  0  0  0  0  0  0  0  0  0
   46.6090   31.1760   47.7860 C   0  0  0  0  0  0  0  0  0  0  0  0
   46.9270   31.8160   46.1290 S   0  0  0  0  0  0  0  0  0  0  0  0
   44.0523   36.9647   44.4364 H   0  0  0  0  0  0  0  0  0  0  0  0
   45.1191   36.4539   42.1985 H   0  0  0  0  0  0  0  0  0  0  0  0
   44.9677   33.3995   40.7013 H   0  0  0  0  0  0  0  0  0  0  0  0
   49.4867   35.1043   40.2615 H   0  0  0  0  0  0  0  0  0  0  0  0
   44.9419   32.6657   38.5020 H   0  0  0  0  0  0  0  0  0  0  0  0
   45.9389   33.5994   37.3615 H   0  0  0  0  0  0  0  0  0  0  0  0
   46.9954   31.3537   38.8105 H   0  0  0  0  0  0  0  0  0  0  0  0
   44.5031   33.7761   47.7738 H   0  0  0  0  0  0  0  0  0  0  0  0
   45.1781   31.9727   49.3405 H   0  0  0  0  0  0  0  0  0  0  0  0
   47.0708   30.3041   48.2723 H   0  0  0  0  0  0  0  0  0  0  0  0
  1  6  2  0
  2  1  1  0
  3  2  2  0
  3  4  1  0
  4  5  2  0
  5  6  1  0
  5 17  1  0
  7  3  1  0
  8  7  1  0
  9  8  2  0
 10  9  1  0
 10 12  1  0
 11 10  2  0
 12 13  1  0
 13  7  1  0
 13 14  2  0
 15  9  1  0
 16 15  1  0
 17 18  2  0
 18 19  1  0
 20 19  2  0
 21 17  1  0
 21 20  1  0
  1 22  1  0
  2 23  1  0
  8 24  1  0
 12 25  1  0
 15 26  1  0
 15 27  1  0
 16 28  1  0
 18 29  1  0
 19 30  1  0
 20 31  1  0
M  ISO  8  22  14  23  14  24  14  25   9  26   8  27   8  28   3  29  14
M  ISO  2  30  14  31  14
M  END
>  <minimizedAffinity>  (1) 
-5.75094366

>  <minimizedRMSD>  (1) 
0.0778294951

$$$$
