
     RDKit          3D

 37 40  0  0  0  0  0  0  0  0999 V2000
   46.5600   34.3990   41.6330 N   0  0  0  0  0  0  0  0  0  0  0  0
   45.9730   33.8260   40.5660 C   0  0  0  0  0  0  0  0  0  0  0  0
   46.5860   33.6510   39.3580 C   0  0  0  0  0  0  0  0  0  0  0  0
   47.8910   34.1160   39.3120 C   0  0  0  0  0  0  0  0  0  0  0  0
   48.5470   33.9980   38.2330 O   0  0  0  0  0  0  0  0  0  0  0  0
   48.5260   34.7010   40.3640 N   0  0  0  0  0  0  0  0  0  0  0  0
   47.8430   34.8400   41.5360 C   0  0  0  0  0  0  0  0  0  0  0  0
   48.4780   35.3830   42.4640 O   0  0  0  0  0  0  0  0  0  0  0  0
   44.6550   36.0510   44.3160 C   0  0  0  0  0  0  0  0  0  0  0  0
   45.2430   35.7710   43.0620 C   0  0  0  0  0  0  0  0  0  0  0  0
   46.0020   34.6150   42.9040 C   0  0  0  0  0  0  0  0  0  0  0  0
   46.1480   33.7850   43.9870 N   0  0  0  0  0  0  0  0  0  0  0  0
   45.5730   34.0830   45.1630 C   0  0  0  0  0  0  0  0  0  0  0  0
   44.8330   35.1910   45.3520 N   0  0  0  0  0  0  0  0  0  0  0  0
   45.7750   33.1620   46.2440 C   0  0  0  0  0  0  0  0  0  0  0  0
   45.2540   33.0410   47.4720 C   0  0  0  0  0  0  0  0  0  0  0  0
   45.6190   32.0540   48.3260 C   0  0  0  0  0  0  0  0  0  0  0  0
   46.6220   31.1540   47.7820 C   0  0  0  0  0  0  0  0  0  0  0  0
   46.9320   31.8030   46.1250 S   0  0  0  0  0  0  0  0  0  0  0  0
   45.9220   33.0230   38.2230 C   0  0  0  0  0  0  0  0  0  0  0  0
   46.3090   31.5850   38.0440 C   0  0  0  0  0  0  0  0  0  0  0  0
   46.6840   30.8750   36.9290 C   0  0  0  0  0  0  0  0  0  0  0  0
   46.9470   29.5630   37.2660 C   0  0  0  0  0  0  0  0  0  0  0  0
   46.7070   29.5360   38.6440 C   0  0  0  0  0  0  0  0  0  0  0  0
   46.3440   30.7130   39.0480 O   0  0  0  0  0  0  0  0  0  0  0  0
   44.9354   33.4770   40.6734 H   0  0  0  0  0  0  0  0  0  0  0  0
   49.4980   35.0305   40.2771 H   0  0  0  0  0  0  0  0  0  0  0  0
   44.0549   36.9627   44.4527 H   0  0  0  0  0  0  0  0  0  0  0  0
   45.1020   36.4613   42.2172 H   0  0  0  0  0  0  0  0  0  0  0  0
   44.5001   33.7716   47.8003 H   0  0  0  0  0  0  0  0  0  0  0  0
   45.1960   31.9445   49.3355 H   0  0  0  0  0  0  0  0  0  0  0  0
   47.0845   30.2813   48.2662 H   0  0  0  0  0  0  0  0  0  0  0  0
   44.8344   33.0772   38.3784 H   0  0  0  0  0  0  0  0  0  0  0  0
   46.2331   33.5642   37.3173 H   0  0  0  0  0  0  0  0  0  0  0  0
   46.7631   31.2922   35.9143 H   0  0  0  0  0  0  0  0  0  0  0  0
   47.2672   28.7393   36.6110 H   0  0  0  0  0  0  0  0  0  0  0  0
   46.8107   28.6499   39.2874 H   0  0  0  0  0  0  0  0  0  0  0  0
  1 11  1  0
  2  1  1  0
  3  2  2  0
  4  3  1  0
  4  6  1  0
  5  4  2  0
  6  7  1  0
  7  1  1  0
  7  8  2  0
  9 14  2  0
 10  9  1  0
 11 10  2  0
 11 12  1  0
 12 13  2  0
 13 14  1  0
 13 15  1  0
 15 16  2  0
 16 17  1  0
 18 17  2  0
 19 15  1  0
 19 18  1  0
 20  3  1  0
 21 20  1  0
 21 25  1  0
 22 23  1  0
 22 21  2  0
 23 24  2  0
 24 25  1  0
  2 26  1  0
  6 27  1  0
  9 28  1  0
 10 29  1  0
 16 30  1  0
 17 31  1  0
 18 32  1  0
 20 33  1  0
 20 34  1  0
 22 35  1  0
 23 36  1  0
 24 37  1  0
M  ISO  8  26  14  27   9  28  14  29  14  30  14  31  14  32  14  33   8
M  ISO  4  34   8  35  14  36  14  37  14
M  END
>  <minimizedAffinity>  (1) 
-5.66697598

>  <minimizedRMSD>  (1) 
0.238109246

$$$$
