
     RDKit          3D

 32 34  0  0  0  0  0  0  0  0999 V2000
   46.5560   34.3730   41.6250 N   0  0  0  0  0  0  0  0  0  0  0  0
   45.9690   33.7740   40.5900 C   0  0  0  0  0  0  0  0  0  0  0  0
   46.5920   33.5960   39.3750 C   0  0  0  0  0  0  0  0  0  0  0  0
   47.8830   34.0920   39.3120 C   0  0  0  0  0  0  0  0  0  0  0  0
   48.5360   33.9700   38.2250 O   0  0  0  0  0  0  0  0  0  0  0  0
   48.5130   34.7120   40.3540 N   0  0  0  0  0  0  0  0  0  0  0  0
   47.8310   34.8500   41.5230 C   0  0  0  0  0  0  0  0  0  0  0  0
   48.4580   35.4230   42.4380 O   0  0  0  0  0  0  0  0  0  0  0  0
   44.6520   36.0590   44.3130 C   0  0  0  0  0  0  0  0  0  0  0  0
   45.2440   35.7620   43.0600 C   0  0  0  0  0  0  0  0  0  0  0  0
   46.0050   34.5980   42.8890 C   0  0  0  0  0  0  0  0  0  0  0  0
   46.1350   33.7840   43.9940 N   0  0  0  0  0  0  0  0  0  0  0  0
   45.5590   34.0960   45.1690 C   0  0  0  0  0  0  0  0  0  0  0  0
   44.8300   35.2030   45.3530 N   0  0  0  0  0  0  0  0  0  0  0  0
   45.7760   33.1560   46.2540 C   0  0  0  0  0  0  0  0  0  0  0  0
   45.2470   33.0510   47.4720 C   0  0  0  0  0  0  0  0  0  0  0  0
   45.5990   32.0800   48.3470 C   0  0  0  0  0  0  0  0  0  0  0  0
   46.6070   31.1790   47.8070 C   0  0  0  0  0  0  0  0  0  0  0  0
   46.9260   31.8130   46.1500 S   0  0  0  0  0  0  0  0  0  0  0  0
   45.9320   32.9310   38.2490 C   0  0  0  0  0  0  0  0  0  0  0  0
   46.5860   31.6420   38.0220 N   0  0  0  0  0  0  0  0  0  0  0  0
   44.9399   33.4048   40.7115 H   0  0  0  0  0  0  0  0  0  0  0  0
   49.4759   35.0645   40.2572 H   0  0  0  0  0  0  0  0  0  0  0  0
   44.0544   36.9734   44.4422 H   0  0  0  0  0  0  0  0  0  0  0  0
   45.1048   36.4514   42.2142 H   0  0  0  0  0  0  0  0  0  0  0  0
   44.4898   33.7867   47.7808 H   0  0  0  0  0  0  0  0  0  0  0  0
   45.1705   31.9824   49.3554 H   0  0  0  0  0  0  0  0  0  0  0  0
   47.0686   30.3097   48.2981 H   0  0  0  0  0  0  0  0  0  0  0  0
   44.8692   32.7715   38.4836 H   0  0  0  0  0  0  0  0  0  0  0  0
   46.0069   33.5554   37.3465 H   0  0  0  0  0  0  0  0  0  0  0  0
   46.8076   31.2052   38.9281 H   0  0  0  0  0  0  0  0  0  0  0  0
   45.9554   31.0262   37.4891 H   0  0  0  0  0  0  0  0  0  0  0  0
  1 11  1  0
  2  1  1  0
  3  2  2  0
  4  3  1  0
  4  6  1  0
  5  4  2  0
  6  7  1  0
  7  1  1  0
  7  8  2  0
  9 14  2  0
 10  9  1  0
 11 10  2  0
 11 12  1  0
 12 13  2  0
 13 14  1  0
 13 15  1  0
 15 16  2  0
 16 17  1  0
 18 17  2  0
 19 15  1  0
 19 18  1  0
 20  3  1  0
 21 20  1  0
  2 22  1  0
  6 23  1  0
  9 24  1  0
 10 25  1  0
 16 26  1  0
 17 27  1  0
 18 28  1  0
 20 29  1  0
 20 30  1  0
 21 31  1  0
 21 32  1  0
M  ISO  8  22  14  23   9  24  14  25  14  26  14  27  14  28  14  29   8
M  ISO  3  30   8  31   5  32   5
M  END
>  <minimizedAffinity>  (1) 
-5.7241683

>  <minimizedRMSD>  (1) 
0.0377868824

$$$$
