
     RDKit          3D

 38 41  0  0  0  0  0  0  0  0999 V2000
   47.3620   33.1520   42.3290 N   0  0  0  0  0  0  0  0  0  0  0  0
   46.9660   32.2770   41.3860 C   0  0  0  0  0  0  0  0  0  0  0  0
   47.7280   31.9400   40.3050 C   0  0  0  0  0  0  0  0  0  0  0  0
   48.9640   32.5750   40.2450 C   0  0  0  0  0  0  0  0  0  0  0  0
   49.7330   32.3180   39.2730 O   0  0  0  0  0  0  0  0  0  0  0  0
   49.3930   33.4650   41.1860 N   0  0  0  0  0  0  0  0  0  0  0  0
   48.5780   33.7490   42.2330 C   0  0  0  0  0  0  0  0  0  0  0  0
   49.0240   34.5630   43.0510 O   0  0  0  0  0  0  0  0  0  0  0  0
   45.0950   35.1500   44.4400 C   0  0  0  0  0  0  0  0  0  0  0  0
   45.8410   34.6890   43.3360 C   0  0  0  0  0  0  0  0  0  0  0  0
   46.6440   33.5560   43.4680 C   0  0  0  0  0  0  0  0  0  0  0  0
   46.6700   32.9310   44.6830 N   0  0  0  0  0  0  0  0  0  0  0  0
   45.9360   33.4080   45.7160 C   0  0  0  0  0  0  0  0  0  0  0  0
   45.1590   34.4870   45.6250 N   0  0  0  0  0  0  0  0  0  0  0  0
   46.0300   32.6640   46.9580 C   0  0  0  0  0  0  0  0  0  0  0  0
   45.2120   32.5690   48.0190 C   0  0  0  0  0  0  0  0  0  0  0  0
   45.5120   31.7900   49.0780 C   0  0  0  0  0  0  0  0  0  0  0  0
   46.7720   31.0850   48.9560 C   0  0  0  0  0  0  0  0  0  0  0  0
   47.3940   31.6090   47.3450 S   0  0  0  0  0  0  0  0  0  0  0  0
   47.2620   30.9770   39.2860 C   0  0  0  0  0  0  0  0  0  0  0  0
   46.6380   31.6540   38.1270 C   0  0  0  0  0  0  0  0  0  0  0  0
   46.7620   30.9250   36.9370 C   0  0  0  0  0  0  0  0  0  0  0  0
   46.2420   31.3910   35.7360 C   0  0  0  0  0  0  0  0  0  0  0  0
   45.6070   32.5760   35.7380 N   0  0  0  0  0  0  0  0  0  0  0  0
   45.5210   33.2300   36.9170 C   0  0  0  0  0  0  0  0  0  0  0  0
   46.0000   32.8470   38.1360 N   0  0  0  0  0  0  0  0  0  0  0  0
   45.9762   31.8089   41.4922 H   0  0  0  0  0  0  0  0  0  0  0  0
   50.3171   33.9124   41.1032 H   0  0  0  0  0  0  0  0  0  0  0  0
   44.4623   36.0446   44.3426 H   0  0  0  0  0  0  0  0  0  0  0  0
   45.7900   35.2207   42.3744 H   0  0  0  0  0  0  0  0  0  0  0  0
   44.2728   33.1416   48.0242 H   0  0  0  0  0  0  0  0  0  0  0  0
   44.8576   31.6978   49.9574 H   0  0  0  0  0  0  0  0  0  0  0  0
   47.2384   30.3947   49.6743 H   0  0  0  0  0  0  0  0  0  0  0  0
   48.1223   30.3894   38.9330 H   0  0  0  0  0  0  0  0  0  0  0  0
   46.5028   30.3311   39.7512 H   0  0  0  0  0  0  0  0  0  0  0  0
   47.2852   29.9576   36.9541 H   0  0  0  0  0  0  0  0  0  0  0  0
   46.3468   30.8070   34.8097 H   0  0  0  0  0  0  0  0  0  0  0  0
   44.9968   34.1967   36.8909 H   0  0  0  0  0  0  0  0  0  0  0  0
  1 11  1  0
  2  1  1  0
  3  2  2  0
  4  3  1  0
  4  6  1  0
  5  4  2  0
  6  7  1  0
  7  1  1  0
  7  8  2  0
  9 14  2  0
 10 11  2  0
 10  9  1  0
 11 12  1  0
 12 13  2  0
 13 15  1  0
 14 13  1  0
 15 19  1  0
 15 16  2  0
 16 17  1  0
 18 17  2  0
 19 18  1  0
 20  3  1  0
 21 26  1  0
 21 20  1  0
 22 21  2  0
 23 24  2  0
 23 22  1  0
 24 25  1  0
 25 26  2  0
  2 27  1  0
  6 28  1  0
  9 29  1  0
 10 30  1  0
 16 31  1  0
 17 32  1  0
 18 33  1  0
 20 34  1  0
 20 35  1  0
 22 36  1  0
 23 37  1  0
 25 38  1  0
M  ISO  8  27  14  28   9  29  14  30  14  31  14  32  14  33  14  34   8
M  ISO  4  35   8  36  14  37  14  38  14
M  END
>  <minimizedAffinity>  (1) 
-5.69685841

>  <minimizedRMSD>  (1) 
1.94113827

$$$$
