
     RDKit          3D

 37 40  0  0  0  0  0  0  0  0999 V2000
   46.5790   34.4090   41.6230 N   0  0  0  0  0  0  0  0  0  0  0  0
   45.9880   33.8130   40.5680 C   0  0  0  0  0  0  0  0  0  0  0  0
   46.6220   33.6450   39.3520 C   0  0  0  0  0  0  0  0  0  0  0  0
   47.9170   34.1400   39.3070 C   0  0  0  0  0  0  0  0  0  0  0  0
   48.5740   34.0310   38.2340 O   0  0  0  0  0  0  0  0  0  0  0  0
   48.5320   34.7460   40.3620 N   0  0  0  0  0  0  0  0  0  0  0  0
   47.8560   34.8780   41.5220 C   0  0  0  0  0  0  0  0  0  0  0  0
   48.4730   35.4390   42.4450 O   0  0  0  0  0  0  0  0  0  0  0  0
   44.6580   36.0500   44.3100 C   0  0  0  0  0  0  0  0  0  0  0  0
   45.2530   35.7760   43.0570 C   0  0  0  0  0  0  0  0  0  0  0  0
   46.0160   34.6220   42.8920 C   0  0  0  0  0  0  0  0  0  0  0  0
   46.1550   33.7920   43.9780 N   0  0  0  0  0  0  0  0  0  0  0  0
   45.5760   34.0890   45.1470 C   0  0  0  0  0  0  0  0  0  0  0  0
   44.8340   35.1910   45.3400 N   0  0  0  0  0  0  0  0  0  0  0  0
   45.7790   33.1600   46.2300 C   0  0  0  0  0  0  0  0  0  0  0  0
   45.2650   33.0400   47.4550 C   0  0  0  0  0  0  0  0  0  0  0  0
   45.6190   32.0580   48.3230 C   0  0  0  0  0  0  0  0  0  0  0  0
   46.6110   31.1640   47.7690 C   0  0  0  0  0  0  0  0  0  0  0  0
   46.9300   31.7980   46.1070 S   0  0  0  0  0  0  0  0  0  0  0  0
   45.9630   32.9880   38.2320 C   0  0  0  0  0  0  0  0  0  0  0  0
   46.4120   31.5720   38.1800 C   0  0  0  0  0  0  0  0  0  0  0  0
   47.1020   30.9610   37.1380 C   0  0  0  0  0  0  0  0  0  0  0  0
   47.3320   29.6590   37.4700 N   0  0  0  0  0  0  0  0  0  0  0  0
   46.8060   29.4360   38.6910 C   0  0  0  0  0  0  0  0  0  0  0  0
   46.2540   30.6000   39.1050 N   0  0  0  0  0  0  0  0  0  0  0  0
   44.9575   33.4449   40.6801 H   0  0  0  0  0  0  0  0  0  0  0  0
   49.4964   35.0971   40.2749 H   0  0  0  0  0  0  0  0  0  0  0  0
   44.0538   36.9590   44.4468 H   0  0  0  0  0  0  0  0  0  0  0  0
   45.1141   36.4711   42.2159 H   0  0  0  0  0  0  0  0  0  0  0  0
   44.5144   33.7758   47.7792 H   0  0  0  0  0  0  0  0  0  0  0  0
   45.1984   31.9542   49.3341 H   0  0  0  0  0  0  0  0  0  0  0  0
   47.0707   30.2897   48.2530 H   0  0  0  0  0  0  0  0  0  0  0  0
   44.8724   33.0258   38.3701 H   0  0  0  0  0  0  0  0  0  0  0  0
   46.2218   33.4984   37.2926 H   0  0  0  0  0  0  0  0  0  0  0  0
   47.4109   31.4479   36.2012 H   0  0  0  0  0  0  0  0  0  0  0  0
   46.8224   28.4866   39.2462 H   0  0  0  0  0  0  0  0  0  0  0  0
   45.7755   30.7283   40.0080 H   0  0  0  0  0  0  0  0  0  0  0  0
  1 11  1  0
  2  1  1  0
  3  2  2  0
  4  3  1  0
  4  6  1  0
  5  4  2  0
  6  7  1  0
  7  1  1  0
  7  8  2  0
  9 14  2  0
 10  9  1  0
 11 10  2  0
 11 12  1  0
 12 13  2  0
 13 14  1  0
 13 15  1  0
 15 16  2  0
 16 17  1  0
 18 17  2  0
 19 15  1  0
 19 18  1  0
 20  3  1  0
 21 20  1  0
 21 25  1  0
 22 23  1  0
 22 21  2  0
 23 24  2  0
 24 25  1  0
  2 26  1  0
  6 27  1  0
  9 28  1  0
 10 29  1  0
 16 30  1  0
 17 31  1  0
 18 32  1  0
 20 33  1  0
 20 34  1  0
 22 35  1  0
 24 36  1  0
 25 37  1  0
M  ISO  8  26  14  27   9  28  14  29  14  30  14  31  14  32  14  33   8
M  ISO  4  34   8  35  14  36  14  37   9
M  END
>  <minimizedAffinity>  (1) 
-5.66451216

>  <minimizedRMSD>  (1) 
0.0927590057

$$$$
