
     RDKit          3D

 33 35  0  0  0  0  0  0  0  0999 V2000
   47.2580   34.2500   40.2260 C   0  0  0  0  0  0  0  0  0  0  0  0
   48.1830   34.2030   39.2030 C   0  0  0  0  0  0  0  0  0  0  0  0
   47.9410   33.7420   37.9270 C   0  0  0  0  0  0  0  0  0  0  0  0
   46.6620   33.3040   37.6980 N   0  0  0  0  0  0  0  0  0  0  0  0
   45.7530   33.3480   38.6920 C   0  0  0  0  0  0  0  0  0  0  0  0
   45.9970   33.8020   39.9470 N   0  0  0  0  0  0  0  0  0  0  0  0
   44.4080   32.8630   38.3800 C   0  0  0  0  0  0  0  0  0  0  0  0
   43.2820   33.5680   38.7880 C   0  0  0  0  0  0  0  0  0  0  0  0
   42.0270   33.1000   38.4890 C   0  0  0  0  0  0  0  0  0  0  0  0
   41.8700   31.9830   37.8150 N   0  0  0  0  0  0  0  0  0  0  0  0
   42.9740   31.2980   37.4180 C   0  0  0  0  0  0  0  0  0  0  0  0
   44.2430   31.7240   37.6920 N   0  0  0  0  0  0  0  0  0  0  0  0
   47.6030   34.7570   41.5850 C   0  0  0  0  0  0  0  0  0  0  0  0
   47.2500   33.6970   42.5800 C   0  0  0  0  0  0  0  0  0  0  0  0
   44.7200   35.6720   44.5620 C   0  0  0  0  0  0  0  0  0  0  0  0
   45.5630   35.2480   43.5260 C   0  0  0  0  0  0  0  0  0  0  0  0
   46.3610   34.1450   43.6630 C   0  0  0  0  0  0  0  0  0  0  0  0
   46.3140   33.4730   44.8330 N   0  0  0  0  0  0  0  0  0  0  0  0
   45.4760   33.9090   45.8380 C   0  0  0  0  0  0  0  0  0  0  0  0
   44.7060   34.9790   45.6940 N   0  0  0  0  0  0  0  0  0  0  0  0
   45.5620   32.8770   47.3100 S   0  0  0  0  0  0  0  0  0  0  0  0
   49.1983   34.5636   39.4245 H   0  0  0  0  0  0  0  0  0  0  0  0
   48.7179   33.7265   37.1484 H   0  0  0  0  0  0  0  0  0  0  0  0
   43.3971   34.5049   39.3528 H   0  0  0  0  0  0  0  0  0  0  0  0
   41.1428   33.6662   38.8172 H   0  0  0  0  0  0  0  0  0  0  0  0
   42.8410   30.3633   36.8535 H   0  0  0  0  0  0  0  0  0  0  0  0
   48.6797   34.9755   41.6392 H   0  0  0  0  0  0  0  0  0  0  0  0
   47.0467   35.6814   41.7994 H   0  0  0  0  0  0  0  0  0  0  0  0
   46.7512   32.8760   42.0442 H   0  0  0  0  0  0  0  0  0  0  0  0
   48.1927   33.3911   43.0571 H   0  0  0  0  0  0  0  0  0  0  0  0
   44.0832   36.5605   44.4397 H   0  0  0  0  0  0  0  0  0  0  0  0
   45.5836   35.8138   42.5829 H   0  0  0  0  0  0  0  0  0  0  0  0
   45.4961   33.6679   48.4267 H   0  0  0  0  0  0  0  0  0  0  0  0
  1 13  1  0
  2  1  2  0
  3  2  1  0
  4  3  2  0
  4  5  1  0
  5  6  2  0
  6  1  1  0
  7  5  1  0
  7  8  2  0
  9  8  1  0
 10  9  2  0
 11 12  2  0
 11 10  1  0
 12  7  1  0
 13 14  1  0
 14 17  1  0
 15 20  2  0
 16 17  2  0
 16 15  1  0
 17 18  1  0
 18 19  2  0
 19 21  1  0
 20 19  1  0
  2 22  1  0
  3 23  1  0
  8 24  1  0
  9 25  1  0
 11 26  1  0
 13 27  1  0
 13 28  1  0
 14 29  1  0
 14 30  1  0
 15 31  1  0
 16 32  1  0
 21 33  1  0
M  ISO  8  22  14  23  14  24  14  25  14  26  14  27   8  28   8  29   8
M  ISO  4  30   8  31  14  32  14  33  11
M  END
>  <minimizedAffinity>  (1) 
-4.86566734

>  <minimizedRMSD>  (1) 
0.283000141

$$$$
