
     RDKit          3D

 23 24  0  0  0  0  0  0  0  0999 V2000
   46.9460   34.3460   43.2700 C   0  0  0  0  0  0  0  0  0  0  0  0
   46.3610   33.8070   44.4440 C   0  0  0  0  0  0  0  0  0  0  0  0
   45.1880   34.4130   44.8850 C   0  0  0  0  0  0  0  0  0  0  0  0
   44.6920   35.4530   44.1810 N   0  0  0  0  0  0  0  0  0  0  0  0
   45.2770   35.9400   43.0660 C   0  0  0  0  0  0  0  0  0  0  0  0
   46.4010   35.3840   42.6160 N   0  0  0  0  0  0  0  0  0  0  0  0
   48.1340   33.8230   42.7210 N   0  0  0  0  0  0  0  0  0  0  0  0
   48.3390   32.7210   42.0060 N   0  0  0  0  0  0  0  0  0  0  0  0
   49.6530   32.6640   41.7200 C   0  0  0  0  0  0  0  0  0  0  0  0
   50.3190   33.7610   42.2670 C   0  0  0  0  0  0  0  0  0  0  0  0
   49.3140   34.4710   42.8940 C   0  0  0  0  0  0  0  0  0  0  0  0
   47.0000   32.6860   45.1000 C   0  0  0  0  0  0  0  0  0  0  0  0
   46.6830   32.7490   46.5820 C   0  0  0  0  0  0  0  0  0  0  0  0
   44.6754   34.0519   45.7888 H   0  0  0  0  0  0  0  0  0  0  0  0
   44.8283   36.7908   42.5322 H   0  0  0  0  0  0  0  0  0  0  0  0
   50.1341   31.8648   41.1370 H   0  0  0  0  0  0  0  0  0  0  0  0
   51.3906   34.0031   42.2119 H   0  0  0  0  0  0  0  0  0  0  0  0
   49.4486   35.4127   43.4463 H   0  0  0  0  0  0  0  0  0  0  0  0
   46.6191   31.7438   44.6791 H   0  0  0  0  0  0  0  0  0  0  0  0
   48.0882   32.7303   44.9458 H   0  0  0  0  0  0  0  0  0  0  0  0
   47.6002   32.5667   47.1612 H   0  0  0  0  0  0  0  0  0  0  0  0
   46.2845   33.7439   46.8298 H   0  0  0  0  0  0  0  0  0  0  0  0
   45.9344   31.9821   46.8298 H   0  0  0  0  0  0  0  0  0  0  0  0
  1  2  2  0
  2  3  1  0
  2 12  1  0
  4  3  2  0
  5  4  1  0
  6  5  2  0
  6  1  1  0
  7 11  1  0
  7  1  1  0
  8  7  1  0
  9  8  2  0
  9 10  1  0
 10 11  2  0
 12 13  1  0
  3 14  1  0
  5 15  1  0
  9 16  1  0
 10 17  1  0
 11 18  1  0
 12 19  1  0
 12 20  1  0
 13 21  1  0
 13 22  1  0
 13 23  1  0
M  ISO  8  14  14  15  14  16  14  17  14  18  14  19   8  20   8  21   8
M  ISO  2  22   8  23   8
M  END
>  <minimizedAffinity>  (1) 
-4.00228214

>  <minimizedRMSD>  (1) 
4.85348701

$$$$
