
     RDKit          3D

 25 25  0  0  0  0  0  0  0  0999 V2000
   46.2220   34.7030   43.3440 C   0  0  0  0  0  0  0  0  0  0  0  0
   47.3750   34.3340   42.6390 C   0  0  0  0  0  0  0  0  0  0  0  0
   48.0870   33.2320   43.1030 C   0  0  0  0  0  0  0  0  0  0  0  0
   47.6540   32.5660   44.1990 N   0  0  0  0  0  0  0  0  0  0  0  0
   46.5320   32.9480   44.8610 C   0  0  0  0  0  0  0  0  0  0  0  0
   45.8330   33.9960   44.4400 N   0  0  0  0  0  0  0  0  0  0  0  0
   47.7460   35.0830   41.4720 C   0  0  0  0  0  0  0  0  0  0  0  0
   49.0680   35.7730   41.7060 C   0  0  0  0  0  0  0  0  0  0  0  0
   45.3470   35.8530   42.9930 C   0  0  0  0  0  0  0  0  0  0  0  0
   44.1760   35.4310   42.1370 C   0  0  0  0  0  0  0  0  0  0  0  0
   44.7020   36.4080   44.2760 C   0  0  0  0  0  0  0  0  0  0  0  0
   48.9980   32.9035   42.5812 H   0  0  0  0  0  0  0  0  0  0  0  0
   46.2010   32.3882   45.7482 H   0  0  0  0  0  0  0  0  0  0  0  0
   46.9731   35.8367   41.2608 H   0  0  0  0  0  0  0  0  0  0  0  0
   47.8401   34.3986   40.6160 H   0  0  0  0  0  0  0  0  0  0  0  0
   49.2466   35.8662   42.7874 H   0  0  0  0  0  0  0  0  0  0  0  0
   49.8760   35.1816   41.2506 H   0  0  0  0  0  0  0  0  0  0  0  0
   49.0448   36.7740   41.2506 H   0  0  0  0  0  0  0  0  0  0  0  0
   45.9826   36.5794   42.4654 H   0  0  0  0  0  0  0  0  0  0  0  0
   43.3389   35.1293   42.7838 H   0  0  0  0  0  0  0  0  0  0  0  0
   43.8637   36.2731   41.5020 H   0  0  0  0  0  0  0  0  0  0  0  0
   44.4727   34.5832   41.5020 H   0  0  0  0  0  0  0  0  0  0  0  0
   45.2035   35.9765   45.1548 H   0  0  0  0  0  0  0  0  0  0  0  0
   44.8066   37.5028   44.2950 H   0  0  0  0  0  0  0  0  0  0  0  0
   43.6350   36.1412   44.2950 H   0  0  0  0  0  0  0  0  0  0  0  0
  1  6  2  0
  2  3  2  0
  2  1  1  0
  3  4  1  0
  4  5  2  0
  6  5  1  0
  7  8  1  0
  7  2  1  0
  9  1  1  0
  9 11  1  0
 10  9  1  0
  3 12  1  0
  5 13  1  0
  7 14  1  0
  7 15  1  0
  8 16  1  0
  8 17  1  0
  8 18  1  0
  9 19  1  0
 10 20  1  0
 10 21  1  0
 10 22  1  0
 11 23  1  0
 11 24  1  0
 11 25  1  0
M  ISO  8  12  14  13  14  14   8  15   8  16   8  17   8  18   8  19   8
M  ISO  6  20   8  21   8  22   8  23   8  24   8  25   8
M  END
>  <minimizedAffinity>  (1) 
-3.90558887

>  <minimizedRMSD>  (1) 
1.46173882

$$$$
