
     RDKit          3D

 18 18  0  0  0  0  0  0  0  0999 V2000
   45.5640   34.9190   43.3800 C   0  0  0  0  0  0  0  0  0  0  0  0
   46.7650   34.4300   42.8750 C   0  0  0  0  0  0  0  0  0  0  0  0
   47.4490   33.5650   43.7230 C   0  0  0  0  0  0  0  0  0  0  0  0
   46.9160   33.2760   44.9290 N   0  0  0  0  0  0  0  0  0  0  0  0
   45.7590   33.7680   45.3740 C   0  0  0  0  0  0  0  0  0  0  0  0
   45.0780   34.5970   44.5920 N   0  0  0  0  0  0  0  0  0  0  0  0
   47.2210   34.8200   41.5650 C   0  0  0  0  0  0  0  0  0  0  0  0
   48.5960   35.4870   41.7220 C   0  0  0  0  0  0  0  0  0  0  0  0
   44.7050   35.8280   42.6510 C   0  0  0  0  0  0  0  0  0  0  0  0
   43.8560   35.8980   41.7730 O   0  0  0  0  0  0  0  0  0  0  0  0
   48.4086   33.1237   43.4158 H   0  0  0  0  0  0  0  0  0  0  0  0
   45.3770   33.4927   46.3681 H   0  0  0  0  0  0  0  0  0  0  0  0
   46.5100   35.5304   41.1181 H   0  0  0  0  0  0  0  0  0  0  0  0
   47.2947   33.9410   40.9078 H   0  0  0  0  0  0  0  0  0  0  0  0
   48.8288   35.5999   42.7911 H   0  0  0  0  0  0  0  0  0  0  0  0
   49.3638   34.8612   41.2436 H   0  0  0  0  0  0  0  0  0  0  0  0
   48.5799   36.4774   41.2436 H   0  0  0  0  0  0  0  0  0  0  0  0
   44.8841   36.8442   43.0322 H   0  0  0  0  0  0  0  0  0  0  0  0
  1  6  2  0
  2  1  1  0
  2  3  2  0
  3  4  1  0
  4  5  2  0
  6  5  1  0
  7  8  1  0
  7  2  1  0
  9  1  1  0
 10  9  2  0
  3 11  1  0
  5 12  1  0
  7 13  1  0
  7 14  1  0
  8 15  1  0
  8 16  1  0
  8 17  1  0
  9 18  1  0
M  ISO  8  11  14  12  14  13   8  14   8  15   8  16   8  17   8  18   6
M  END
>  <minimizedAffinity>  (1) 
-3.42214155

>  <minimizedRMSD>  (1) 
0.997269869

$$$$
