
     RDKit          3D

 22 22  0  0  0  0  0  0  0  0999 V2000
   45.8090   34.9940   43.4770 C   0  0  0  0  0  0  0  0  0  0  0  0
   46.9650   34.4370   42.9080 C   0  0  0  0  0  0  0  0  0  0  0  0
   47.5840   33.4070   43.6110 C   0  0  0  0  0  0  0  0  0  0  0  0
   47.0480   32.9920   44.8000 N   0  0  0  0  0  0  0  0  0  0  0  0
   45.9440   33.5450   45.3130 C   0  0  0  0  0  0  0  0  0  0  0  0
   45.3290   34.5360   44.6600 N   0  0  0  0  0  0  0  0  0  0  0  0
   47.4590   34.9230   41.6420 C   0  0  0  0  0  0  0  0  0  0  0  0
   48.8650   35.4840   41.8420 C   0  0  0  0  0  0  0  0  0  0  0  0
   45.0460   36.0950   42.8540 C   0  0  0  0  0  0  0  0  0  0  0  0
   43.8890   35.5360   42.0270 C   0  0  0  0  0  0  0  0  0  0  0  0
   48.4938   32.9320   43.2152 H   0  0  0  0  0  0  0  0  0  0  0  0
   45.5422   33.1847   46.2715 H   0  0  0  0  0  0  0  0  0  0  0  0
   46.7952   35.7156   41.2663 H   0  0  0  0  0  0  0  0  0  0  0  0
   47.4863   34.1005   40.9121 H   0  0  0  0  0  0  0  0  0  0  0  0
   49.0765   35.5684   42.9182 H   0  0  0  0  0  0  0  0  0  0  0  0
   49.5986   34.8097   41.3759 H   0  0  0  0  0  0  0  0  0  0  0  0
   48.9329   36.4781   41.3759 H   0  0  0  0  0  0  0  0  0  0  0  0
   44.6458   36.7504   43.6416 H   0  0  0  0  0  0  0  0  0  0  0  0
   45.7154   36.6656   42.1934 H   0  0  0  0  0  0  0  0  0  0  0  0
   43.1060   35.1577   42.7006 H   0  0  0  0  0  0  0  0  0  0  0  0
   43.4733   36.3327   41.3925 H   0  0  0  0  0  0  0  0  0  0  0  0
   44.2548   34.7152   41.3925 H   0  0  0  0  0  0  0  0  0  0  0  0
  1  6  2  0
  2  1  1  0
  2  3  2  0
  3  4  1  0
  4  5  2  0
  6  5  1  0
  7  8  1  0
  7  2  1  0
  9  1  1  0
 10  9  1  0
  3 11  1  0
  5 12  1  0
  7 13  1  0
  7 14  1  0
  8 15  1  0
  8 16  1  0
  8 17  1  0
  9 18  1  0
  9 19  1  0
 10 20  1  0
 10 21  1  0
 10 22  1  0
M  ISO  8  11  14  12  14  13   8  14   8  15   8  16   8  17   8  18   8
M  ISO  4  19   8  20   8  21   8  22   8
M  END
>  <minimizedAffinity>  (1) 
-3.63674092

>  <minimizedRMSD>  (1) 
1.02170205

$$$$
