
     RDKit          3D

 18 18  0  0  0  0  0  0  0  0999 V2000
   45.1990   35.2370   44.0610 C   0  0  0  0  0  0  0  0  0  0  0  0
   46.2310   34.5800   43.3760 C   0  0  0  0  0  0  0  0  0  0  0  0
   46.8870   33.5560   44.0510 C   0  0  0  0  0  0  0  0  0  0  0  0
   46.5080   33.2480   45.3080 N   0  0  0  0  0  0  0  0  0  0  0  0
   45.5040   33.8970   45.9520 C   0  0  0  0  0  0  0  0  0  0  0  0
   44.8510   34.8940   45.3240 N   0  0  0  0  0  0  0  0  0  0  0  0
   44.4300   36.3050   43.5120 N   0  0  0  0  0  0  0  0  0  0  0  0
   46.5410   35.0060   42.0310 C   0  0  0  0  0  0  0  0  0  0  0  0
   48.0460   35.2230   41.9390 C   0  0  0  0  0  0  0  0  0  0  0  0
   47.7052   33.0040   43.5653 H   0  0  0  0  0  0  0  0  0  0  0  0
   45.2264   33.6112   46.9773 H   0  0  0  0  0  0  0  0  0  0  0  0
   44.6200   36.6380   42.5560 H   0  0  0  0  0  0  0  0  0  0  0  0
   43.6846   36.7435   44.0715 H   0  0  0  0  0  0  0  0  0  0  0  0
   46.2313   34.2316   41.3138 H   0  0  0  0  0  0  0  0  0  0  0  0
   46.0062   35.9373   41.7932 H   0  0  0  0  0  0  0  0  0  0  0  0
   48.4702   35.2842   42.9521 H   0  0  0  0  0  0  0  0  0  0  0  0
   48.5054   34.3818   41.3993 H   0  0  0  0  0  0  0  0  0  0  0  0
   48.2491   36.1597   41.3993 H   0  0  0  0  0  0  0  0  0  0  0  0
  1  6  2  0
  2  3  2  0
  2  1  1  0
  3  4  1  0
  4  5  2  0
  6  5  1  0
  7  1  1  0
  8  2  1  0
  9  8  1  0
  3 10  1  0
  5 11  1  0
  7 12  1  0
  7 13  1  0
  8 14  1  0
  8 15  1  0
  9 16  1  0
  9 17  1  0
  9 18  1  0
M  ISO  7  10  14  11  14  14   8  15   8  16   8  17   8  18   8
M  END
>  <minimizedAffinity>  (1) 
-3.61566424

>  <minimizedRMSD>  (1) 
0.026977621

$$$$
