
     RDKit          3D

 39 41  0  0  0  0  0  0  0  0999 V2000
   44.9520   34.9870   43.3070 C   0  0  0  0  0  0  0  0  0  0  0  0
   45.7000   33.8440   43.5740 C   0  0  0  0  0  0  0  0  0  0  0  0
   45.8580   33.5040   44.9170 C   0  0  0  0  0  0  0  0  0  0  0  0
   45.2850   34.2910   45.8770 N   0  0  0  0  0  0  0  0  0  0  0  0
   44.5690   35.3900   45.5700 C   0  0  0  0  0  0  0  0  0  0  0  0
   44.4040   35.7350   44.2900 N   0  0  0  0  0  0  0  0  0  0  0  0
   44.6910   35.4810   41.9960 N   0  0  0  0  0  0  0  0  0  0  0  0
   43.3800   35.4140   41.3850 C   0  0  0  0  0  0  0  0  0  0  0  0
   42.3440   35.3500   42.2080 N   0  0  0  0  0  0  0  0  0  0  0  0
   43.1870   35.4160   39.9550 N   0  0  0  0  0  0  0  0  0  0  0  0
   41.4070   35.2920   41.7570 H   0  0  0  0  0  0  0  0  0  0  0  0
   46.2680   33.0680   42.4950 C   0  0  0  0  0  0  0  0  0  0  0  0
   47.6530   33.6420   42.1750 C   0  0  0  0  0  0  0  0  0  0  0  0
   48.4220   32.8070   41.2430 C   0  0  0  0  0  0  0  0  0  0  0  0
   49.0390   31.6490   41.7350 C   0  0  0  0  0  0  0  0  0  0  0  0
   49.7830   30.7480   41.0010 C   0  0  0  0  0  0  0  0  0  0  0  0
   49.9400   31.0020   39.6560 C   0  0  0  0  0  0  0  0  0  0  0  0
   49.3490   32.1370   39.1150 C   0  0  0  0  0  0  0  0  0  0  0  0
   49.5100   32.3970   37.7630 C   0  0  0  0  0  0  0  0  0  0  0  0
   48.9350   33.5230   37.1990 C   0  0  0  0  0  0  0  0  0  0  0  0
   48.2040   34.3800   38.0020 C   0  0  0  0  0  0  0  0  0  0  0  0
   48.0290   34.1380   39.3640 C   0  0  0  0  0  0  0  0  0  0  0  0
   48.6130   33.0090   39.8920 C   0  0  0  0  0  0  0  0  0  0  0  0
   46.4370   32.6128   45.2009 H   0  0  0  0  0  0  0  0  0  0  0  0
   44.1226   36.0001   46.3690 H   0  0  0  0  0  0  0  0  0  0  0  0
   45.4649   35.9020   41.4624 H   0  0  0  0  0  0  0  0  0  0  0  0
   42.2355   35.3669   39.5637 H   0  0  0  0  0  0  0  0  0  0  0  0
   44.0007   35.4665   39.3256 H   0  0  0  0  0  0  0  0  0  0  0  0
   46.3620   32.0157   42.8015 H   0  0  0  0  0  0  0  0  0  0  0  0
   45.6201   33.1172   41.6074 H   0  0  0  0  0  0  0  0  0  0  0  0
   47.5240   34.6385   41.7273 H   0  0  0  0  0  0  0  0  0  0  0  0
   48.2164   33.6840   43.1188 H   0  0  0  0  0  0  0  0  0  0  0  0
   48.9189   31.4383   42.8079 H   0  0  0  0  0  0  0  0  0  0  0  0
   50.2332   29.8614   41.4714 H   0  0  0  0  0  0  0  0  0  0  0  0
   50.5230   30.3182   39.0216 H   0  0  0  0  0  0  0  0  0  0  0  0
   50.0956   31.7075   37.1372 H   0  0  0  0  0  0  0  0  0  0  0  0
   49.0578   33.7335   36.1263 H   0  0  0  0  0  0  0  0  0  0  0  0
   47.7489   35.2758   37.5543 H   0  0  0  0  0  0  0  0  0  0  0  0
   47.4450   34.8249   39.9941 H   0  0  0  0  0  0  0  0  0  0  0  0
  1  2  2  0
  1  6  1  0
  2  3  1  0
  3  4  2  0
  5  4  1  0
  6  5  2  0
  7  1  1  0
  8  7  1  0
  8  9  2  0
 10  8  1  0
 11  9  1  0
 12  2  1  0
 13 12  1  0
 14 15  2  0
 14 13  1  0
 16 15  1  0
 17 16  2  0
 18 17  1  0
 18 23  2  0
 19 18  1  0
 20 19  2  0
 20 21  1  0
 21 22  2  0
 22 23  1  0
 23 14  1  0
  3 24  1  0
  5 25  1  0
  7 26  1  0
 10 27  1  0
 10 28  1  0
 12 29  1  0
 12 30  1  0
 13 31  1  0
 13 32  1  0
 15 33  1  0
 16 34  1  0
 17 35  1  0
 19 36  1  0
 20 37  1  0
 21 38  1  0
 22 39  1  0
M  ISO  8  24  14  25  14  29   8  30   8  31   8  32   8  33  14  34  14
M  ISO  5  35  14  36  14  37  14  38  14  39  14
M  END
>  <minimizedAffinity>  (1) 
-5.57026148

>  <minimizedRMSD>  (1) 
0.945715487

$$$$
