
     RDKit          3D

 36 37  0  0  0  0  0  0  0  0999 V2000
   44.9040   34.8440   43.3240 C   0  0  0  0  0  0  0  0  0  0  0  0
   45.4850   33.6380   43.6940 C   0  0  0  0  0  0  0  0  0  0  0  0
   45.6020   33.3720   45.0590 C   0  0  0  0  0  0  0  0  0  0  0  0
   45.1500   34.2920   45.9590 N   0  0  0  0  0  0  0  0  0  0  0  0
   44.5890   35.4590   45.5650 C   0  0  0  0  0  0  0  0  0  0  0  0
   44.4670   35.7330   44.2640 N   0  0  0  0  0  0  0  0  0  0  0  0
   44.7050   35.2770   41.9820 N   0  0  0  0  0  0  0  0  0  0  0  0
   43.3950   35.3400   41.3790 C   0  0  0  0  0  0  0  0  0  0  0  0
   42.3710   35.4610   42.1850 N   0  0  0  0  0  0  0  0  0  0  0  0
   43.2100   35.2740   39.9550 N   0  0  0  0  0  0  0  0  0  0  0  0
   41.4310   35.5210   41.7370 H   0  0  0  0  0  0  0  0  0  0  0  0
   45.9370   32.7210   42.6720 C   0  0  0  0  0  0  0  0  0  0  0  0
   47.4330   33.0180   42.4000 C   0  0  0  0  0  0  0  0  0  0  0  0
   47.6700   33.3610   41.0310 N   0  0  0  0  0  0  0  0  0  0  0  0
   47.3800   32.6290   39.9420 C   0  0  0  0  0  0  0  0  0  0  0  0
   47.6810   33.1210   38.6830 C   0  0  0  0  0  0  0  0  0  0  0  0
   47.3540   32.3010   37.4930 C   0  0  0  0  0  0  0  0  0  0  0  0
   48.2800   34.3550   38.5020 C   0  0  0  0  0  0  0  0  0  0  0  0
   48.5220   34.7280   37.3240 O   0  0  0  0  0  0  0  0  0  0  0  0
   48.5580   35.0650   39.6290 N   0  0  0  0  0  0  0  0  0  0  0  0
   48.2520   34.5580   40.8360 C   0  0  0  0  0  0  0  0  0  0  0  0
   48.5700   35.3330   41.7970 O   0  0  0  0  0  0  0  0  0  0  0  0
   46.0538   32.4307   45.4053 H   0  0  0  0  0  0  0  0  0  0  0  0
   44.2341   36.1806   46.3155 H   0  0  0  0  0  0  0  0  0  0  0  0
   45.5239   35.5548   41.4224 H   0  0  0  0  0  0  0  0  0  0  0  0
   42.2616   35.3217   39.5561 H   0  0  0  0  0  0  0  0  0  0  0  0
   44.0259   35.1790   39.3335 H   0  0  0  0  0  0  0  0  0  0  0  0
   45.8182   31.6843   43.0199 H   0  0  0  0  0  0  0  0  0  0  0  0
   45.3461   32.8472   41.7528 H   0  0  0  0  0  0  0  0  0  0  0  0
   47.7502   33.8571   43.0366 H   0  0  0  0  0  0  0  0  0  0  0  0
   48.0074   32.1078   42.6271 H   0  0  0  0  0  0  0  0  0  0  0  0
   46.9053   31.6426   40.0502 H   0  0  0  0  0  0  0  0  0  0  0  0
   46.9646   31.3244   37.8164 H   0  0  0  0  0  0  0  0  0  0  0  0
   46.5931   32.8176   36.8896 H   0  0  0  0  0  0  0  0  0  0  0  0
   48.2616   32.1522   36.8896 H   0  0  0  0  0  0  0  0  0  0  0  0
   49.0030   35.9911   39.5574 H   0  0  0  0  0  0  0  0  0  0  0  0
  1  2  2  0
  1  6  1  0
  2  3  1  0
  3  4  2  0
  5  4  1  0
  6  5  2  0
  7  1  1  0
  8  7  1  0
  8  9  2  0
 10  8  1  0
 11  9  1  0
 12  2  1  0
 13 12  1  0
 14 13  1  0
 15 14  1  0
 16 15  2  0
 17 16  1  0
 18 16  1  0
 18 20  1  0
 19 18  2  0
 20 21  1  0
 21 14  1  0
 21 22  2  0
  3 23  1  0
  5 24  1  0
  7 25  1  0
 10 26  1  0
 10 27  1  0
 12 28  1  0
 12 29  1  0
 13 30  1  0
 13 31  1  0
 15 32  1  0
 17 33  1  0
 17 34  1  0
 17 35  1  0
 20 36  1  0
M  ISO  8  23  14  24  14  28   8  29   8  30   8  31   8  32  14  33   8
M  ISO  3  34   8  35   8  36   9
M  END
>  <minimizedAffinity>  (1) 
-5.78281498

>  <minimizedRMSD>  (1) 
2.50647306

$$$$
