
     RDKit          3D

 36 37  0  0  0  0  0  0  0  0999 V2000
   45.1600   34.9270   43.6070 C   0  0  0  0  0  0  0  0  0  0  0  0
   45.9720   33.8510   43.9340 C   0  0  0  0  0  0  0  0  0  0  0  0
   46.0390   33.4930   45.2790 C   0  0  0  0  0  0  0  0  0  0  0  0
   45.3060   34.2180   46.1950 N   0  0  0  0  0  0  0  0  0  0  0  0
   44.5290   35.2570   45.8310 C   0  0  0  0  0  0  0  0  0  0  0  0
   44.4550   35.6090   44.5610 N   0  0  0  0  0  0  0  0  0  0  0  0
   44.9800   35.4230   42.2810 N   0  0  0  0  0  0  0  0  0  0  0  0
   43.7230   35.3760   41.5960 C   0  0  0  0  0  0  0  0  0  0  0  0
   42.6360   35.2940   42.3410 N   0  0  0  0  0  0  0  0  0  0  0  0
   43.6230   35.4140   40.1610 N   0  0  0  0  0  0  0  0  0  0  0  0
   41.7290   35.2920   41.8400 H   0  0  0  0  0  0  0  0  0  0  0  0
   46.7030   33.1480   42.9290 C   0  0  0  0  0  0  0  0  0  0  0  0
   48.1430   33.7020   42.8750 C   0  0  0  0  0  0  0  0  0  0  0  0
   48.7030   33.6280   41.4900 C   0  0  0  0  0  0  0  0  0  0  0  0
   48.2640   34.8420   40.7000 C   0  0  0  0  0  0  0  0  0  0  0  0
   48.0980   34.3700   39.2590 C   0  0  0  0  0  0  0  0  0  0  0  0
   48.6610   32.9440   39.2690 C   0  0  0  0  0  0  0  0  0  0  0  0
   48.1990   32.4930   40.6620 C   0  0  0  0  0  0  0  0  0  0  0  0
   46.6645   32.6484   45.6039 H   0  0  0  0  0  0  0  0  0  0  0  0
   43.9576   35.8106   46.5906 H   0  0  0  0  0  0  0  0  0  0  0  0
   45.7902   35.8331   41.7949 H   0  0  0  0  0  0  0  0  0  0  0  0
   42.6987   35.3779   39.7080 H   0  0  0  0  0  0  0  0  0  0  0  0
   44.4758   35.4773   39.5868 H   0  0  0  0  0  0  0  0  0  0  0  0
   46.7292   32.0759   43.1740 H   0  0  0  0  0  0  0  0  0  0  0  0
   46.2159   33.2832   41.9521 H   0  0  0  0  0  0  0  0  0  0  0  0
   48.1353   34.7521   43.2026 H   0  0  0  0  0  0  0  0  0  0  0  0
   48.7745   33.0918   43.5375 H   0  0  0  0  0  0  0  0  0  0  0  0
   49.7864   33.5294   41.6530 H   0  0  0  0  0  0  0  0  0  0  0  0
   47.3092   35.2258   41.0886 H   0  0  0  0  0  0  0  0  0  0  0  0
   48.9984   35.6575   40.7742 H   0  0  0  0  0  0  0  0  0  0  0  0
   48.6676   35.0105   38.5696 H   0  0  0  0  0  0  0  0  0  0  0  0
   47.0530   34.4104   38.9178 H   0  0  0  0  0  0  0  0  0  0  0  0
   48.2229   32.3252   38.4720 H   0  0  0  0  0  0  0  0  0  0  0  0
   49.7438   32.8690   39.0900 H   0  0  0  0  0  0  0  0  0  0  0  0
   47.1042   32.4028   40.7183 H   0  0  0  0  0  0  0  0  0  0  0  0
   48.5629   31.5015   40.9693 H   0  0  0  0  0  0  0  0  0  0  0  0
  1  2  2  0
  1  6  1  0
  2  3  1  0
  3  4  2  0
  5  4  1  0
  6  5  2  0
  7  1  1  0
  8  7  1  0
  8  9  2  0
 10  8  1  0
 11  9  1  0
 12  2  1  0
 13 12  1  0
 14 13  1  0
 15 14  1  0
 16 17  1  0
 16 15  1  0
 17 18  1  0
 18 14  1  0
  3 19  1  0
  5 20  1  0
  7 21  1  0
 10 22  1  0
 10 23  1  0
 12 24  1  0
 12 25  1  0
 13 26  1  0
 13 27  1  0
 14 28  1  0
 15 29  1  0
 15 30  1  0
 16 31  1  0
 16 32  1  0
 17 33  1  0
 17 34  1  0
 18 35  1  0
 18 36  1  0
M  ISO  8  19  14  20  14  24   8  25   8  26   8  27   8  28  13  29  13
M  ISO  7  30  13  31  13  32  13  33  13  34  13  35  13  36  13
M  END
>  <minimizedAffinity>  (1) 
-5.04967308

>  <minimizedRMSD>  (1) 
0.888722301

$$$$
