
     RDKit          3D

 30 30  0  0  0  0  0  0  0  0999 V2000
   45.1130   34.9320   43.6750 C   0  0  0  0  0  0  0  0  0  0  0  0
   45.8780   33.8090   44.0300 C   0  0  0  0  0  0  0  0  0  0  0  0
   45.9130   33.4660   45.3630 C   0  0  0  0  0  0  0  0  0  0  0  0
   45.2070   34.2300   46.2670 N   0  0  0  0  0  0  0  0  0  0  0  0
   44.4830   35.3020   45.8850 C   0  0  0  0  0  0  0  0  0  0  0  0
   44.4360   35.6530   44.5990 N   0  0  0  0  0  0  0  0  0  0  0  0
   44.9750   35.4220   42.3320 N   0  0  0  0  0  0  0  0  0  0  0  0
   43.7120   35.3790   41.6370 C   0  0  0  0  0  0  0  0  0  0  0  0
   42.6220   35.3310   42.3570 N   0  0  0  0  0  0  0  0  0  0  0  0
   43.6350   35.3950   40.1910 N   0  0  0  0  0  0  0  0  0  0  0  0
   41.7160   35.2700   41.8380 H   0  0  0  0  0  0  0  0  0  0  0  0
   46.5720   33.0860   43.0110 C   0  0  0  0  0  0  0  0  0  0  0  0
   48.0550   32.9740   43.3810 C   0  0  0  0  0  0  0  0  0  0  0  0
   48.6280   34.2900   43.0710 N   0  0  0  0  0  0  0  0  0  0  0  0
   49.2310   34.5420   41.7990 C   0  0  0  0  0  0  0  0  0  0  0  0
   49.7390   33.5230   41.1990 N   0  0  0  0  0  0  0  0  0  0  0  0
   49.1900   35.9030   41.3660 N   0  0  0  0  0  0  0  0  0  0  0  0
   50.2070   33.5360   40.2820 H   0  0  0  0  0  0  0  0  0  0  0  0
   46.4952   32.5961   45.7010 H   0  0  0  0  0  0  0  0  0  0  0  0
   43.9307   35.8874   46.6348 H   0  0  0  0  0  0  0  0  0  0  0  0
   45.7985   35.8139   41.8533 H   0  0  0  0  0  0  0  0  0  0  0  0
   42.7176   35.3633   39.7237 H   0  0  0  0  0  0  0  0  0  0  0  0
   44.4976   35.4381   39.6298 H   0  0  0  0  0  0  0  0  0  0  0  0
   46.4726   33.6170   42.0528 H   0  0  0  0  0  0  0  0  0  0  0  0
   46.1408   32.0782   42.9193 H   0  0  0  0  0  0  0  0  0  0  0  0
   48.1697   32.7453   44.4508 H   0  0  0  0  0  0  0  0  0  0  0  0
   48.5572   32.1658   42.8290 H   0  0  0  0  0  0  0  0  0  0  0  0
   48.5953   35.0393   43.7770 H   0  0  0  0  0  0  0  0  0  0  0  0
   49.6028   36.1680   40.4603 H   0  0  0  0  0  0  0  0  0  0  0  0
   48.7476   36.6192   41.9595 H   0  0  0  0  0  0  0  0  0  0  0  0
  1  2  2  0
  1  6  1  0
  2  3  1  0
  3  4  2  0
  5  4  1  0
  6  5  2  0
  7  1  1  0
  8  7  1  0
  8  9  2  0
 10  8  1  0
 11  9  1  0
 12 13  1  0
 12  2  1  0
 14 13  1  0
 15 14  1  0
 16 15  2  0
 17 15  1  0
 18 16  1  0
  3 19  1  0
  5 20  1  0
  7 21  1  0
 10 22  1  0
 10 23  1  0
 12 24  1  0
 12 25  1  0
 13 26  1  0
 13 27  1  0
 14 28  1  0
 17 29  1  0
 17 30  1  0
M  ISO  6  19  14  20  14  24   8  25   8  26   8  27   8
M  END
>  <minimizedAffinity>  (1) 
-5.14413881

>  <minimizedRMSD>  (1) 
1.61938715

$$$$
