
     RDKit          3D

 30 31  0  0  0  0  0  0  0  0999 V2000
   44.9980   35.1880   43.2070 C   0  0  0  0  0  0  0  0  0  0  0  0
   45.9880   34.2040   43.3700 C   0  0  0  0  0  0  0  0  0  0  0  0
   46.2500   33.7930   44.6600 C   0  0  0  0  0  0  0  0  0  0  0  0
   45.5400   34.3600   45.6990 N   0  0  0  0  0  0  0  0  0  0  0  0
   44.6030   35.2980   45.4990 C   0  0  0  0  0  0  0  0  0  0  0  0
   44.3360   35.7060   44.2690 N   0  0  0  0  0  0  0  0  0  0  0  0
   44.6050   35.7250   41.9320 N   0  0  0  0  0  0  0  0  0  0  0  0
   43.3020   35.4980   41.3880 C   0  0  0  0  0  0  0  0  0  0  0  0
   42.3400   35.1840   42.2090 N   0  0  0  0  0  0  0  0  0  0  0  0
   43.0490   35.6120   39.9700 N   0  0  0  0  0  0  0  0  0  0  0  0
   41.4010   34.9980   41.7890 H   0  0  0  0  0  0  0  0  0  0  0  0
   46.6600   33.6880   42.2090 C   0  0  0  0  0  0  0  0  0  0  0  0
   47.7260   34.7020   41.7880 C   0  0  0  0  0  0  0  0  0  0  0  0
   49.0860   34.1630   41.9860 C   0  0  0  0  0  0  0  0  0  0  0  0
   49.3880   32.8700   41.6380 C   0  0  0  0  0  0  0  0  0  0  0  0
   50.7300   32.6610   41.9400 C   0  0  0  0  0  0  0  0  0  0  0  0
   51.1740   33.8330   42.4550 N   0  0  0  0  0  0  0  0  0  0  0  0
   50.1870   34.7340   42.4810 N   0  0  0  0  0  0  0  0  0  0  0  0
   47.0127   33.0255   44.8578 H   0  0  0  0  0  0  0  0  0  0  0  0
   44.0588   35.7264   46.3536 H   0  0  0  0  0  0  0  0  0  0  0  0
   45.2804   36.2884   41.3961 H   0  0  0  0  0  0  0  0  0  0  0  0
   42.1023   35.4440   39.6006 H   0  0  0  0  0  0  0  0  0  0  0  0
   43.8153   35.8613   39.3285 H   0  0  0  0  0  0  0  0  0  0  0  0
   47.1351   32.7256   42.4500 H   0  0  0  0  0  0  0  0  0  0  0  0
   45.9413   33.5285   41.3917 H   0  0  0  0  0  0  0  0  0  0  0  0
   47.6108   35.6146   42.3913 H   0  0  0  0  0  0  0  0  0  0  0  0
   47.5922   34.9232   40.7188 H   0  0  0  0  0  0  0  0  0  0  0  0
   48.6965   32.1346   41.2009 H   0  0  0  0  0  0  0  0  0  0  0  0
   51.3092   31.7377   41.7917 H   0  0  0  0  0  0  0  0  0  0  0  0
   52.1359   34.0052   42.7804 H   0  0  0  0  0  0  0  0  0  0  0  0
  1  2  2  0
  1  6  1  0
  2  3  1  0
  3  4  2  0
  5  4  1  0
  6  5  2  0
  7  1  1  0
  8  7  1  0
  8  9  2  0
 10  8  1  0
 11  9  1  0
 12  2  1  0
 13 14  1  0
 13 12  1  0
 14 18  2  0
 15 16  2  0
 15 14  1  0
 16 17  1  0
 17 18  1  0
  3 19  1  0
  5 20  1  0
  7 21  1  0
 10 22  1  0
 10 23  1  0
 12 24  1  0
 12 25  1  0
 13 26  1  0
 13 27  1  0
 15 28  1  0
 16 29  1  0
 17 30  1  0
M  ISO  8  19  14  20  14  24   8  25   8  26   8  27   8  28  14  29  14
M  ISO  1  30   9
M  END
>  <minimizedAffinity>  (1) 
-5.2530942

>  <minimizedRMSD>  (1) 
1.3400842

$$$$
