
     RDKit          3D

 34 36  0  0  0  0  0  0  0  0999 V2000
   44.9620   34.9570   43.2810 C   0  0  0  0  0  0  0  0  0  0  0  0
   45.7130   33.8050   43.5590 C   0  0  0  0  0  0  0  0  0  0  0  0
   45.8730   33.4770   44.8890 C   0  0  0  0  0  0  0  0  0  0  0  0
   45.3040   34.2720   45.8470 N   0  0  0  0  0  0  0  0  0  0  0  0
   44.5880   35.3710   45.5410 C   0  0  0  0  0  0  0  0  0  0  0  0
   44.4220   35.7060   44.2650 N   0  0  0  0  0  0  0  0  0  0  0  0
   44.7010   35.4370   41.9490 N   0  0  0  0  0  0  0  0  0  0  0  0
   43.3790   35.3970   41.3740 C   0  0  0  0  0  0  0  0  0  0  0  0
   42.3520   35.3550   42.2010 N   0  0  0  0  0  0  0  0  0  0  0  0
   43.1830   35.4030   39.9390 N   0  0  0  0  0  0  0  0  0  0  0  0
   41.4160   35.3510   41.7660 H   0  0  0  0  0  0  0  0  0  0  0  0
   46.2660   33.0430   42.4610 C   0  0  0  0  0  0  0  0  0  0  0  0
   47.6890   33.5490   42.2020 C   0  0  0  0  0  0  0  0  0  0  0  0
   48.3290   32.8940   41.1080 N   0  0  0  0  0  0  0  0  0  0  0  0
   48.9510   31.6900   41.2810 C   0  0  0  0  0  0  0  0  0  0  0  0
   49.4810   31.2660   40.1220 N   0  0  0  0  0  0  0  0  0  0  0  0
   49.2140   32.1730   39.1940 C   0  0  0  0  0  0  0  0  0  0  0  0
   49.4660   32.3440   37.8300 C   0  0  0  0  0  0  0  0  0  0  0  0
   49.0100   33.4510   37.2140 N   0  0  0  0  0  0  0  0  0  0  0  0
   48.3070   34.4190   37.8700 C   0  0  0  0  0  0  0  0  0  0  0  0
   48.0450   34.2820   39.2030 N   0  0  0  0  0  0  0  0  0  0  0  0
   48.5030   33.1780   39.8060 C   0  0  0  0  0  0  0  0  0  0  0  0
   46.4513   32.5866   45.1766 H   0  0  0  0  0  0  0  0  0  0  0  0
   44.1450   35.9853   46.3387 H   0  0  0  0  0  0  0  0  0  0  0  0
   45.4788   35.8190   41.3922 H   0  0  0  0  0  0  0  0  0  0  0  0
   42.2300   35.3739   39.5493 H   0  0  0  0  0  0  0  0  0  0  0  0
   43.9966   35.4363   39.3082 H   0  0  0  0  0  0  0  0  0  0  0  0
   46.2916   31.9751   42.7234 H   0  0  0  0  0  0  0  0  0  0  0  0
   45.6468   33.1667   41.5603 H   0  0  0  0  0  0  0  0  0  0  0  0
   47.6427   34.6265   41.9855 H   0  0  0  0  0  0  0  0  0  0  0  0
   48.2813   33.3332   43.1034 H   0  0  0  0  0  0  0  0  0  0  0  0
   49.0095   31.1449   42.2347 H   0  0  0  0  0  0  0  0  0  0  0  0
   50.0291   31.5847   37.2675 H   0  0  0  0  0  0  0  0  0  0  0  0
   47.9523   35.3072   37.3266 H   0  0  0  0  0  0  0  0  0  0  0  0
  1  2  2  0
  1  6  1  0
  2  3  1  0
  3  4  2  0
  5  4  1  0
  6  5  2  0
  7  1  1  0
  8  7  1  0
  8  9  2  0
 10  8  1  0
 11  9  1  0
 12  2  1  0
 13 12  1  0
 14 15  1  0
 14 13  1  0
 16 15  2  0
 17 22  2  0
 17 16  1  0
 18 17  1  0
 19 18  2  0
 19 20  1  0
 20 21  2  0
 21 22  1  0
 22 14  1  0
  3 23  1  0
  5 24  1  0
  7 25  1  0
 10 26  1  0
 10 27  1  0
 12 28  1  0
 12 29  1  0
 13 30  1  0
 13 31  1  0
 15 32  1  0
 18 33  1  0
 20 34  1  0
M  ISO  8  23  14  24  14  28   8  29   8  30   8  31   8  32  14  33  14
M  ISO  1  34  14
M  END
>  <minimizedAffinity>  (1) 
-5.28689718

>  <minimizedRMSD>  (1) 
0.859436989

$$$$
