
     RDKit          3D

 30 31  0  0  0  0  0  0  0  0999 V2000
   45.2160   35.0290   43.5410 C   0  0  0  0  0  0  0  0  0  0  0  0
   46.2090   34.0490   43.7170 C   0  0  0  0  0  0  0  0  0  0  0  0
   46.3780   33.5810   45.0240 C   0  0  0  0  0  0  0  0  0  0  0  0
   45.6000   34.0780   46.0250 N   0  0  0  0  0  0  0  0  0  0  0  0
   44.6610   35.0180   45.8030 C   0  0  0  0  0  0  0  0  0  0  0  0
   44.4750   35.4850   44.5710 N   0  0  0  0  0  0  0  0  0  0  0  0
   44.9110   35.6190   42.2660 N   0  0  0  0  0  0  0  0  0  0  0  0
   43.6270   35.4460   41.6390 C   0  0  0  0  0  0  0  0  0  0  0  0
   42.6070   35.1460   42.4120 N   0  0  0  0  0  0  0  0  0  0  0  0
   43.4430   35.5920   40.2230 N   0  0  0  0  0  0  0  0  0  0  0  0
   41.6830   35.0310   41.9440 H   0  0  0  0  0  0  0  0  0  0  0  0
   46.9780   33.5890   42.5960 C   0  0  0  0  0  0  0  0  0  0  0  0
   48.2830   34.4070   42.5490 C   0  0  0  0  0  0  0  0  0  0  0  0
   49.3400   33.4960   42.0320 C   0  0  0  0  0  0  0  0  0  0  0  0
   50.6650   33.3310   42.3530 C   0  0  0  0  0  0  0  0  0  0  0  0
   51.1890   32.3200   41.5380 C   0  0  0  0  0  0  0  0  0  0  0  0
   50.1150   31.9300   40.7540 C   0  0  0  0  0  0  0  0  0  0  0  0
   49.0720   32.6370   41.0760 O   0  0  0  0  0  0  0  0  0  0  0  0
   47.1362   32.8146   45.2425 H   0  0  0  0  0  0  0  0  0  0  0  0
   44.0511   35.3976   46.6360 H   0  0  0  0  0  0  0  0  0  0  0  0
   45.6305   36.1805   41.7885 H   0  0  0  0  0  0  0  0  0  0  0  0
   42.5091   35.4608   39.8088 H   0  0  0  0  0  0  0  0  0  0  0  0
   44.2448   35.8280   39.6211 H   0  0  0  0  0  0  0  0  0  0  0  0
   47.2107   32.5206   42.7157 H   0  0  0  0  0  0  0  0  0  0  0  0
   46.4104   33.7192   41.6628 H   0  0  0  0  0  0  0  0  0  0  0  0
   48.1652   35.2706   41.8779 H   0  0  0  0  0  0  0  0  0  0  0  0
   48.5450   34.7919   43.5456 H   0  0  0  0  0  0  0  0  0  0  0  0
   51.2188   33.8953   43.1178 H   0  0  0  0  0  0  0  0  0  0  0  0
   52.2160   31.9263   41.5235 H   0  0  0  0  0  0  0  0  0  0  0  0
   50.1406   31.1469   39.9820 H   0  0  0  0  0  0  0  0  0  0  0  0
  1  2  2  0
  1  6  1  0
  2  3  1  0
  3  4  2  0
  5  4  1  0
  6  5  2  0
  7  1  1  0
  8  7  1  0
  8  9  2  0
 10  8  1  0
 11  9  1  0
 12  2  1  0
 13 12  1  0
 14 15  2  0
 14 13  1  0
 16 15  1  0
 17 18  1  0
 17 16  2  0
 18 14  1  0
  3 19  1  0
  5 20  1  0
  7 21  1  0
 10 22  1  0
 10 23  1  0
 12 24  1  0
 12 25  1  0
 13 26  1  0
 13 27  1  0
 15 28  1  0
 16 29  1  0
 17 30  1  0
M  ISO  8  19  14  20  14  24   8  25   8  26   8  27   8  28  14  29  14
M  ISO  1  30  14
M  END
>  <minimizedAffinity>  (1) 
-4.87106276

>  <minimizedRMSD>  (1) 
0.769413173

$$$$
