
     RDKit          3D

 28 29  0  0  0  0  0  0  0  0999 V2000
   45.2240   35.0040   43.5800 C   0  0  0  0  0  0  0  0  0  0  0  0
   46.2000   34.0290   43.7770 C   0  0  0  0  0  0  0  0  0  0  0  0
   46.3630   33.5680   45.0760 C   0  0  0  0  0  0  0  0  0  0  0  0
   45.5710   34.0840   46.0810 N   0  0  0  0  0  0  0  0  0  0  0  0
   44.6360   35.0290   45.8400 C   0  0  0  0  0  0  0  0  0  0  0  0
   44.4680   35.4830   44.5950 N   0  0  0  0  0  0  0  0  0  0  0  0
   44.9260   35.5890   42.3000 N   0  0  0  0  0  0  0  0  0  0  0  0
   43.6540   35.4320   41.6670 C   0  0  0  0  0  0  0  0  0  0  0  0
   42.6220   35.1390   42.4360 N   0  0  0  0  0  0  0  0  0  0  0  0
   43.4910   35.5840   40.2360 N   0  0  0  0  0  0  0  0  0  0  0  0
   41.7050   35.0360   41.9550 H   0  0  0  0  0  0  0  0  0  0  0  0
   46.9820   33.5450   42.6750 C   0  0  0  0  0  0  0  0  0  0  0  0
   48.3060   34.3350   42.6460 C   0  0  0  0  0  0  0  0  0  0  0  0
   49.3220   33.4420   42.0220 C   0  0  0  0  0  0  0  0  0  0  0  0
   50.6470   33.4940   42.3390 N   0  0  0  0  0  0  0  0  0  0  0  0
   51.3010   32.6030   41.6430 O   0  0  0  0  0  0  0  0  0  0  0  0
   50.4610   31.9470   40.8630 C   0  0  0  0  0  0  0  0  0  0  0  0
   49.2250   32.4740   41.1030 N   0  0  0  0  0  0  0  0  0  0  0  0
   47.1162   32.7988   45.3020 H   0  0  0  0  0  0  0  0  0  0  0  0
   44.0186   35.4210   46.6617 H   0  0  0  0  0  0  0  0  0  0  0  0
   45.6541   36.1399   41.8233 H   0  0  0  0  0  0  0  0  0  0  0  0
   42.5617   35.4649   39.8080 H   0  0  0  0  0  0  0  0  0  0  0  0
   44.3043   35.8112   39.6463 H   0  0  0  0  0  0  0  0  0  0  0  0
   47.1899   32.4730   42.8073 H   0  0  0  0  0  0  0  0  0  0  0  0
   46.4355   33.6809   41.7301 H   0  0  0  0  0  0  0  0  0  0  0  0
   48.1881   35.2511   42.0487 H   0  0  0  0  0  0  0  0  0  0  0  0
   48.6109   34.6347   43.6595 H   0  0  0  0  0  0  0  0  0  0  0  0
   50.7081   31.1376   40.1603 H   0  0  0  0  0  0  0  0  0  0  0  0
  1  2  2  0
  1  6  1  0
  2  3  1  0
  3  4  2  0
  5  4  1  0
  6  5  2  0
  7  1  1  0
  8  7  1  0
  8  9  2  0
 10  8  1  0
 11  9  1  0
 12  2  1  0
 13 12  1  0
 14 15  2  0
 14 13  1  0
 16 15  1  0
 17 18  2  0
 17 16  1  0
 18 14  1  0
  3 19  1  0
  5 20  1  0
  7 21  1  0
 10 22  1  0
 10 23  1  0
 12 24  1  0
 12 25  1  0
 13 26  1  0
 13 27  1  0
 17 28  1  0
M  ISO  7  19  14  20  14  24   8  25   8  26   8  27   8  28  14
M  END
>  <minimizedAffinity>  (1) 
-4.74098349

>  <minimizedRMSD>  (1) 
0.579243004

$$$$
