
     RDKit          3D

 24 24  0  0  0  0  0  0  0  0999 V2000
   45.0580   34.8810   43.5300 C   0  0  0  0  0  0  0  0  0  0  0  0
   45.7900   33.7270   43.8460 C   0  0  0  0  0  0  0  0  0  0  0  0
   45.8810   33.3830   45.1770 C   0  0  0  0  0  0  0  0  0  0  0  0
   45.2570   34.1760   46.1150 N   0  0  0  0  0  0  0  0  0  0  0  0
   44.5610   35.2760   45.7800 C   0  0  0  0  0  0  0  0  0  0  0  0
   44.4600   35.6270   44.5070 N   0  0  0  0  0  0  0  0  0  0  0  0
   44.8640   35.3810   42.1950 N   0  0  0  0  0  0  0  0  0  0  0  0
   43.5660   35.3880   41.5730 C   0  0  0  0  0  0  0  0  0  0  0  0
   42.5130   35.3650   42.3450 N   0  0  0  0  0  0  0  0  0  0  0  0
   43.4460   35.4170   40.1420 N   0  0  0  0  0  0  0  0  0  0  0  0
   41.5800   35.3190   41.8680 H   0  0  0  0  0  0  0  0  0  0  0  0
   46.3970   32.9810   42.7860 C   0  0  0  0  0  0  0  0  0  0  0  0
   47.8930   32.8580   43.0590 C   0  0  0  0  0  0  0  0  0  0  0  0
   48.7990   34.3450   42.6430 S   0  0  0  0  0  0  0  0  0  0  0  0
   46.4430   32.4893   45.4859 H   0  0  0  0  0  0  0  0  0  0  0  0
   44.0772   35.8822   46.5600 H   0  0  0  0  0  0  0  0  0  0  0  0
   45.6739   35.7428   41.6715 H   0  0  0  0  0  0  0  0  0  0  0  0
   42.5141   35.4219   39.7033 H   0  0  0  0  0  0  0  0  0  0  0  0
   44.2919   35.4329   39.5545 H   0  0  0  0  0  0  0  0  0  0  0  0
   46.2381   33.5019   41.8303 H   0  0  0  0  0  0  0  0  0  0  0  0
   45.9456   31.9794   42.7304 H   0  0  0  0  0  0  0  0  0  0  0  0
   48.0387   32.6453   44.1284 H   0  0  0  0  0  0  0  0  0  0  0  0
   48.2796   32.0465   42.4250 H   0  0  0  0  0  0  0  0  0  0  0  0
   49.1863   34.9806   43.7932 H   0  0  0  0  0  0  0  0  0  0  0  0
  1  2  2  0
  1  6  1  0
  2  3  1  0
  3  4  2  0
  5  4  1  0
  6  5  2  0
  7  1  1  0
  8  7  1  0
  8  9  2  0
 10  8  1  0
 11  9  1  0
 12 13  1  0
 12  2  1  0
 14 13  1  0
  3 15  1  0
  5 16  1  0
  7 17  1  0
 10 18  1  0
 10 19  1  0
 12 20  1  0
 12 21  1  0
 13 22  1  0
 13 23  1  0
 14 24  1  0
M  ISO  7  15  14  16  14  20   8  21   8  22   8  23   8  24  11
M  END
>  <minimizedAffinity>  (1) 
-4.05289316

>  <minimizedRMSD>  (1) 
0.430062622

$$$$
