
     RDKit          3D

 52 54  0  0  1  0  0  0  0  0999 V2000
   48.1030   34.1610   42.5750 C   0  0  0  0  0  0  0  0  0  0  0  0
   49.0660   33.5070   41.6420 C   0  0  1  0  0  0  0  0  0  0  0  0
   50.2330   32.8760   42.3120 C   0  0  0  0  0  0  0  0  0  0  0  0
   51.1200   32.2500   41.2410 C   0  0  0  0  0  0  0  0  0  0  0  0
   50.3860   31.1830   40.5060 C   0  0  0  0  0  0  0  0  0  0  0  0
   48.9340   31.1470   40.8770 C   0  0  0  0  0  0  0  0  0  0  0  0
   48.3090   32.5130   40.8180 C   0  0  2  0  0  0  0  0  0  0  0  0
   48.6420   32.9140   39.3440 C   0  0  0  0  0  0  0  0  0  0  0  0
   47.6550   32.2080   38.4150 C   0  0  0  0  0  0  0  0  0  0  0  0
   47.0860   33.2570   37.4990 C   0  0  0  0  0  0  0  0  0  0  0  0
   48.0700   34.3760   37.5990 C   0  0  0  0  0  0  0  0  0  0  0  0
   48.4030   34.3670   39.0980 C   0  0  0  0  0  0  0  0  0  0  0  0
   46.7660   33.4620   42.6620 C   0  0  0  0  0  0  0  0  0  0  0  0
   45.1220   35.0520   43.5270 C   0  0  0  0  0  0  0  0  0  0  0  0
   46.0230   34.0320   43.7620 C   0  0  0  0  0  0  0  0  0  0  0  0
   46.1560   33.6160   45.0760 C   0  0  0  0  0  0  0  0  0  0  0  0
   45.4180   34.2100   46.0490 N   0  0  0  0  0  0  0  0  0  0  0  0
   44.5480   35.2020   45.7750 C   0  0  0  0  0  0  0  0  0  0  0  0
   44.3970   35.6260   44.5160 N   0  0  0  0  0  0  0  0  0  0  0  0
   44.8510   35.6200   42.2300 N   0  0  0  0  0  0  0  0  0  0  0  0
   43.5570   35.4660   41.5770 C   0  0  0  0  0  0  0  0  0  0  0  0
   42.5080   35.2270   42.3520 N   0  0  0  0  0  0  0  0  0  0  0  0
   43.4030   35.5660   40.1520 N   0  0  0  0  0  0  0  0  0  0  0  0
   41.6040   35.1100   41.8730 H   0  0  0  0  0  0  0  0  0  0  0  0
   47.9333   35.1921   42.2313 H   0  0  0  0  0  0  0  0  0  0  0  0
   48.5516   34.1195   43.5785 H   0  0  0  0  0  0  0  0  0  0  0  0
   49.5072   34.2907   41.0086 H   0  0  0  0  0  0  0  0  0  0  0  0
   50.8006   33.6382   42.8661 H   0  0  0  0  0  0  0  0  0  0  0  0
   49.8926   32.1057   43.0196 H   0  0  0  0  0  0  0  0  0  0  0  0
   51.4317   33.0291   40.5298 H   0  0  0  0  0  0  0  0  0  0  0  0
   51.9994   31.8029   41.7276 H   0  0  0  0  0  0  0  0  0  0  0  0
   50.8388   30.2097   40.7461 H   0  0  0  0  0  0  0  0  0  0  0  0
   50.4579   31.3988   39.4298 H   0  0  0  0  0  0  0  0  0  0  0  0
   48.4043   30.4826   40.1785 H   0  0  0  0  0  0  0  0  0  0  0  0
   48.8540   30.7786   41.9104 H   0  0  0  0  0  0  0  0  0  0  0  0
   47.2587   32.5019   41.1448 H   0  0  0  0  0  0  0  0  0  0  0  0
   49.6954   32.6506   39.1681 H   0  0  0  0  0  0  0  0  0  0  0  0
   48.1744   31.4358   37.8285 H   0  0  0  0  0  0  0  0  0  0  0  0
   46.8577   31.7152   38.9907 H   0  0  0  0  0  0  0  0  0  0  0  0
   46.0900   33.5774   37.8385 H   0  0  0  0  0  0  0  0  0  0  0  0
   46.9482   32.8977   36.4685 H   0  0  0  0  0  0  0  0  0  0  0  0
   48.9638   34.1793   36.9888 H   0  0  0  0  0  0  0  0  0  0  0  0
   47.6874   35.3402   37.2330 H   0  0  0  0  0  0  0  0  0  0  0  0
   49.3018   34.9636   39.3131 H   0  0  0  0  0  0  0  0  0  0  0  0
   47.6190   34.8052   39.7331 H   0  0  0  0  0  0  0  0  0  0  0  0
   46.2099   33.6063   41.7240 H   0  0  0  0  0  0  0  0  0  0  0  0
   46.9134   32.3841   42.8244 H   0  0  0  0  0  0  0  0  0  0  0  0
   46.8569   32.8074   45.3308 H   0  0  0  0  0  0  0  0  0  0  0  0
   43.9634   35.6619   46.5854 H   0  0  0  0  0  0  0  0  0  0  0  0
   45.5931   36.1499   41.7510 H   0  0  0  0  0  0  0  0  0  0  0  0
   42.4726   35.4515   39.7253 H   0  0  0  0  0  0  0  0  0  0  0  0
   44.2230   35.7522   39.5572 H   0  0  0  0  0  0  0  0  0  0  0  0
  1 13  1  0
  2  3  1  0
  2  1  1  0
  4  3  1  0
  5  6  1  0
  5  4  1  0
  7  6  1  0
  7  2  1  0
  8  7  1  0
  9  8  1  0
 10 11  1  0
 10  9  1  0
 11 12  1  0
 12  8  1  0
 13 15  1  0
 14 15  2  0
 14 19  1  0
 15 16  1  0
 16 17  2  0
 18 17  1  0
 19 18  2  0
 20 14  1  0
 21 20  1  0
 21 22  2  0
 23 21  1  0
 24 22  1  0
  1 25  1  0
  1 26  1  0
  2 27  1  6
  3 28  1  0
  3 29  1  0
  4 30  1  0
  4 31  1  0
  5 32  1  0
  5 33  1  0
  6 34  1  0
  6 35  1  0
  7 36  1  6
  8 37  1  0
  9 38  1  0
  9 39  1  0
 10 40  1  0
 10 41  1  0
 11 42  1  0
 11 43  1  0
 12 44  1  0
 12 45  1  0
 13 46  1  0
 13 47  1  0
 16 48  1  0
 18 49  1  0
 20 50  1  0
 23 51  1  0
 23 52  1  0
M  ISO  8  25   8  26   8  27  13  28  13  29  13  30  13  31  13  32  13
M  ISO  8  33  13  34  13  35  13  36  13  37  13  38  13  39  13  40  13
M  ISO  8  41  13  42  13  43  13  44  13  45  13  46   8  47   8  48  14
M  ISO  1  49  14
M  END
>  <minimizedAffinity>  (1) 
-5.60892105

>  <minimizedRMSD>  (1) 
2.0402503

$$$$
