
     RDKit          3D

 41 42  0  0  1  0  0  0  0  0999 V2000
   47.8840   33.2590   43.0770 C   0  0  0  0  0  0  0  0  0  0  0  0
   48.4720   33.3750   41.7060 C   0  0  1  0  0  0  0  0  0  0  0  0
   48.4610   32.1130   40.9210 C   0  0  0  0  0  0  0  0  0  0  0  0
   49.1320   32.4190   39.5860 C   0  0  0  0  0  0  0  0  0  0  0  0
   48.3780   33.4640   38.8140 C   0  0  0  0  0  0  0  0  0  0  0  0
   47.2340   33.9870   39.6200 C   0  0  0  0  0  0  0  0  0  0  0  0
   47.7410   34.4550   40.9810 C   0  0  2  0  0  0  0  0  0  0  0  0
   48.8170   35.4950   40.6550 C   0  0  0  0  0  0  0  0  0  0  0  0
   49.2740   36.2450   41.5270 O   0  0  0  0  0  0  0  0  0  0  0  0
   46.4020   32.9640   43.0590 C   0  0  0  0  0  0  0  0  0  0  0  0
   45.0660   34.8910   43.7110 C   0  0  0  0  0  0  0  0  0  0  0  0
   45.7540   33.7540   44.0690 C   0  0  0  0  0  0  0  0  0  0  0  0
   45.7760   33.4340   45.4230 C   0  0  0  0  0  0  0  0  0  0  0  0
   45.1350   34.2340   46.3120 N   0  0  0  0  0  0  0  0  0  0  0  0
   44.4660   35.3480   45.9150 C   0  0  0  0  0  0  0  0  0  0  0  0
   44.4270   35.6820   44.6180 N   0  0  0  0  0  0  0  0  0  0  0  0
   44.9400   35.4140   42.3780 N   0  0  0  0  0  0  0  0  0  0  0  0
   43.6600   35.3860   41.6790 C   0  0  0  0  0  0  0  0  0  0  0  0
   42.5440   35.3400   42.4110 N   0  0  0  0  0  0  0  0  0  0  0  0
   43.5710   35.4160   40.2470 N   0  0  0  0  0  0  0  0  0  0  0  0
   41.6600   35.3920   41.8940 H   0  0  0  0  0  0  0  0  0  0  0  0
   48.3971   32.4458   43.6112 H   0  0  0  0  0  0  0  0  0  0  0  0
   48.0212   34.2287   43.5778 H   0  0  0  0  0  0  0  0  0  0  0  0
   49.5384   33.6180   41.8231 H   0  0  0  0  0  0  0  0  0  0  0  0
   49.0194   31.3300   41.4549 H   0  0  0  0  0  0  0  0  0  0  0  0
   47.4335   31.7494   40.7723 H   0  0  0  0  0  0  0  0  0  0  0  0
   50.1530   32.7822   39.7748 H   0  0  0  0  0  0  0  0  0  0  0  0
   49.1473   31.4951   38.9892 H   0  0  0  0  0  0  0  0  0  0  0  0
   49.0575   34.2937   38.5693 H   0  0  0  0  0  0  0  0  0  0  0  0
   47.9853   33.0105   37.8920 H   0  0  0  0  0  0  0  0  0  0  0  0
   46.7696   34.8325   39.0914 H   0  0  0  0  0  0  0  0  0  0  0  0
   46.4903   33.1889   39.7610 H   0  0  0  0  0  0  0  0  0  0  0  0
   46.8935   34.8013   41.5908 H   0  0  0  0  0  0  0  0  0  0  0  0
   49.1916   35.5771   39.6240 H   0  0  0  0  0  0  0  0  0  0  0  0
   45.9880   33.2165   42.0717 H   0  0  0  0  0  0  0  0  0  0  0  0
   46.2340   31.8955   43.2593 H   0  0  0  0  0  0  0  0  0  0  0  0
   46.3101   32.5374   45.7708 H   0  0  0  0  0  0  0  0  0  0  0  0
   43.9556   35.9766   46.6595 H   0  0  0  0  0  0  0  0  0  0  0  0
   45.7654   35.8143   41.9097 H   0  0  0  0  0  0  0  0  0  0  0  0
   42.6493   35.3948   39.7877 H   0  0  0  0  0  0  0  0  0  0  0  0
   44.4288   35.4587   39.6785 H   0  0  0  0  0  0  0  0  0  0  0  0
  2  1  1  0
  3  2  1  0
  4  3  1  0
  5  4  1  0
  5  6  1  0
  6  7  1  0
  7  2  1  0
  8  7  1  0
  8  9  2  0
 10  1  1  0
 10 12  1  0
 11 12  2  0
 11 16  1  0
 12 13  1  0
 13 14  2  0
 15 14  1  0
 16 15  2  0
 17 11  1  0
 18 17  1  0
 18 19  2  0
 20 18  1  0
 21 19  1  0
  1 22  1  0
  1 23  1  0
  2 24  1  1
  3 25  1  0
  3 26  1  0
  4 27  1  0
  4 28  1  0
  5 29  1  0
  5 30  1  0
  6 31  1  0
  6 32  1  0
  7 33  1  1
  8 34  1  0
 10 35  1  0
 10 36  1  0
 13 37  1  0
 15 38  1  0
 17 39  1  0
 20 40  1  0
 20 41  1  0
M  ISO  8  22   8  23   8  24  13  25  13  26  13  27  13  28  13  29  13
M  ISO  8  30  13  31  13  32  13  33  13  34   6  35   8  36   8  37  14
M  ISO  1  38  14
M  END
>  <minimizedAffinity>  (1) 
-5.3240118

>  <minimizedRMSD>  (1) 
0.500174284

$$$$
