
     RDKit          3D

 44 46  0  0  1  0  0  0  0  0999 V2000
   48.3060   33.7260   42.9960 C   0  0  0  0  0  0  0  0  0  0  0  0
   49.1090   33.2060   41.8540 C   0  0  1  0  0  0  0  0  0  0  0  0
   50.3690   32.5290   42.2300 C   0  0  0  0  0  0  0  0  0  0  0  0
   51.0570   32.0640   40.9550 C   0  0  0  0  0  0  0  0  0  0  0  0
   50.2220   31.1190   40.1630 C   0  0  0  0  0  0  0  0  0  0  0  0
   48.8610   30.9450   40.7980 C   0  0  0  0  0  0  0  0  0  0  0  0
   48.2230   32.2780   41.0610 C   0  0  2  0  0  0  0  0  0  0  0  0
   47.9730   32.9070   39.7020 C   0  0  0  0  0  0  0  0  0  0  0  0
   48.3750   34.1630   39.4320 N   0  0  0  0  0  0  0  0  0  0  0  0
   48.0650   34.5090   38.2020 O   0  0  0  0  0  0  0  0  0  0  0  0
   47.4640   33.4950   37.6580 C   0  0  0  0  0  0  0  0  0  0  0  0
   47.3950   32.5030   38.5580 N   0  0  0  0  0  0  0  0  0  0  0  0
   46.9940   32.9910   43.1780 C   0  0  0  0  0  0  0  0  0  0  0  0
   45.3520   34.7300   43.6290 C   0  0  0  0  0  0  0  0  0  0  0  0
   46.1650   33.7220   44.0970 C   0  0  0  0  0  0  0  0  0  0  0  0
   46.1330   33.4720   45.4660 C   0  0  0  0  0  0  0  0  0  0  0  0
   45.3220   34.2110   46.2650 N   0  0  0  0  0  0  0  0  0  0  0  0
   44.5330   35.1960   45.7640 C   0  0  0  0  0  0  0  0  0  0  0  0
   44.5470   35.4560   44.4500 N   0  0  0  0  0  0  0  0  0  0  0  0
   45.2470   35.1660   42.2680 N   0  0  0  0  0  0  0  0  0  0  0  0
   44.1460   34.7150   41.4240 C   0  0  0  0  0  0  0  0  0  0  0  0
   43.0100   34.3270   42.0130 N   0  0  0  0  0  0  0  0  0  0  0  0
   44.2430   34.6870   39.9870 N   0  0  0  0  0  0  0  0  0  0  0  0
   42.2290   34.1090   41.3900 H   0  0  0  0  0  0  0  0  0  0  0  0
   48.0904   34.7898   42.8177 H   0  0  0  0  0  0  0  0  0  0  0  0
   48.8979   33.5757   43.9109 H   0  0  0  0  0  0  0  0  0  0  0  0
   49.4375   34.0726   41.2614 H   0  0  0  0  0  0  0  0  0  0  0  0
   51.0215   33.2302   42.7709 H   0  0  0  0  0  0  0  0  0  0  0  0
   50.1585   31.6696   42.8836 H   0  0  0  0  0  0  0  0  0  0  0  0
   51.2780   32.9442   40.3334 H   0  0  0  0  0  0  0  0  0  0  0  0
   51.9741   31.5318   41.2476 H   0  0  0  0  0  0  0  0  0  0  0  0
   50.7265   30.1426   40.1177 H   0  0  0  0  0  0  0  0  0  0  0  0
   50.0895   31.5283   39.1506 H   0  0  0  0  0  0  0  0  0  0  0  0
   48.2180   30.3645   40.1201 H   0  0  0  0  0  0  0  0  0  0  0  0
   48.9826   30.4166   41.7551 H   0  0  0  0  0  0  0  0  0  0  0  0
   47.3065   32.1250   41.6497 H   0  0  0  0  0  0  0  0  0  0  0  0
   47.0758   33.4559   36.6295 H   0  0  0  0  0  0  0  0  0  0  0  0
   46.4821   32.9068   42.2080 H   0  0  0  0  0  0  0  0  0  0  0  0
   47.1873   31.9839   43.5761 H   0  0  0  0  0  0  0  0  0  0  0  0
   46.7618   32.6796   45.8981 H   0  0  0  0  0  0  0  0  0  0  0  0
   43.8845   35.7785   46.4349 H   0  0  0  0  0  0  0  0  0  0  0  0
   45.9566   35.8047   41.8815 H   0  0  0  0  0  0  0  0  0  0  0  0
   45.1137   34.9839   39.5237 H   0  0  0  0  0  0  0  0  0  0  0  0
   43.4416   34.3701   39.4228 H   0  0  0  0  0  0  0  0  0  0  0  0
  1 13  1  0
  2  3  1  0
  2  1  1  0
  4  3  1  0
  5  6  1  0
  5  4  1  0
  6  7  1  0
  7  2  1  0
  8  7  1  0
  9  8  2  0
 10  9  1  0
 11 10  1  0
 11 12  2  0
 12  8  1  0
 13 15  1  0
 14 15  2  0
 14 19  1  0
 15 16  1  0
 16 17  2  0
 18 17  1  0
 19 18  2  0
 20 14  1  0
 21 22  2  0
 21 20  1  0
 23 21  1  0
 24 22  1  0
  1 25  1  0
  1 26  1  0
  2 27  1  6
  3 28  1  0
  3 29  1  0
  4 30  1  0
  4 31  1  0
  5 32  1  0
  5 33  1  0
  6 34  1  0
  6 35  1  0
  7 36  1  1
 11 37  1  0
 13 38  1  0
 13 39  1  0
 16 40  1  0
 18 41  1  0
 20 42  1  0
 23 43  1  0
 23 44  1  0
M  ISO  8  25   8  26   8  27  13  28  13  29  13  30  13  31  13  32  13
M  ISO  8  33  13  34  13  35  13  36  13  37  14  38   8  39   8  40  14
M  ISO  1  41  14
M  END
>  <minimizedAffinity>  (1) 
-5.08767891

>  <minimizedRMSD>  (1) 
2.30200243

$$$$
