
     RDKit          3D

 30 33  0  0  0  0  0  0  0  0999 V2000
   46.0460   32.8740   38.7850 C   0  0  0  0  0  0  0  0  0  0  0  0
   47.2950   33.0170   39.4140 C   0  0  0  0  0  0  0  0  0  0  0  0
   47.3670   33.7400   40.6020 C   0  0  0  0  0  0  0  0  0  0  0  0
   46.2110   34.2800   41.1040 N   0  0  0  0  0  0  0  0  0  0  0  0
   45.0200   34.1160   40.4590 C   0  0  0  0  0  0  0  0  0  0  0  0
   44.9590   33.4200   39.3190 N   0  0  0  0  0  0  0  0  0  0  0  0
   43.8120   34.7030   41.0210 C   0  0  0  0  0  0  0  0  0  0  0  0
   43.6520   35.1590   42.3140 C   0  0  0  0  0  0  0  0  0  0  0  0
   42.4080   35.6420   42.5010 N   0  0  0  0  0  0  0  0  0  0  0  0
   41.7490   35.5060   41.3360 C   0  0  0  0  0  0  0  0  0  0  0  0
   40.4560   35.8320   40.9600 C   0  0  0  0  0  0  0  0  0  0  0  0
   39.9680   35.6020   39.6800 C   0  0  0  0  0  0  0  0  0  0  0  0
   40.8600   35.0240   38.7990 C   0  0  0  0  0  0  0  0  0  0  0  0
   42.1400   34.6960   39.1550 C   0  0  0  0  0  0  0  0  0  0  0  0
   42.6020   34.9350   40.4350 C   0  0  0  0  0  0  0  0  0  0  0  0
   48.5620   33.9600   41.3380 N   0  0  0  0  0  0  0  0  0  0  0  0
   49.6410   33.2180   41.6450 C   0  0  0  0  0  0  0  0  0  0  0  0
   50.5110   33.9240   42.3890 N   0  0  0  0  0  0  0  0  0  0  0  0
   49.9430   35.1330   42.5410 C   0  0  0  0  0  0  0  0  0  0  0  0
   48.7350   35.1700   41.8950 N   0  0  0  0  0  0  0  0  0  0  0  0
   45.9683   32.3070   37.8456 H   0  0  0  0  0  0  0  0  0  0  0  0
   48.1980   32.5665   38.9763 H   0  0  0  0  0  0  0  0  0  0  0  0
   44.4341   35.1318   43.0870 H   0  0  0  0  0  0  0  0  0  0  0  0
   42.0319   36.0408   43.3730 H   0  0  0  0  0  0  0  0  0  0  0  0
   39.7893   36.2912   41.7048 H   0  0  0  0  0  0  0  0  0  0  0  0
   38.9400   35.8628   39.3880 H   0  0  0  0  0  0  0  0  0  0  0  0
   40.5288   34.8190   37.7703 H   0  0  0  0  0  0  0  0  0  0  0  0
   42.8094   34.2364   38.4129 H   0  0  0  0  0  0  0  0  0  0  0  0
   49.7915   32.1748   41.3302 H   0  0  0  0  0  0  0  0  0  0  0  0
   50.3836   35.9703   43.1020 H   0  0  0  0  0  0  0  0  0  0  0  0
  1  6  2  0
  1  2  1  0
  2  3  2  0
  3  4  1  0
  3 16  1  0
  5  7  1  0
  5  4  2  0
  6  5  1  0
  7  8  2  0
  8  9  1  0
 10  9  1  0
 11 10  2  0
 12 11  1  0
 13 14  1  0
 13 12  2  0
 14 15  2  0
 15  7  1  0
 15 10  1  0
 16 17  1  0
 16 20  1  0
 17 18  2  0
 18 19  1  0
 20 19  2  0
  1 21  1  0
  2 22  1  0
  8 23  1  0
  9 24  1  0
 11 25  1  0
 12 26  1  0
 13 27  1  0
 14 28  1  0
 17 29  1  0
 19 30  1  0
M  ISO  8  21  14  22  14  23  14  24   9  25  14  26  14  27  14  28  14
M  ISO  2  29  14  30  14
M  END
>  <minimizedAffinity>  (1) 
-6.04465246

>  <minimizedRMSD>  (1) 
7.20390987

$$$$
