
     RDKit          3D

 25 27  0  0  0  0  0  0  0  0999 V2000
   44.4550   35.8940   44.7890 C   0  0  0  0  0  0  0  0  0  0  0  0
   45.0760   35.8750   43.5240 C   0  0  0  0  0  0  0  0  0  0  0  0
   46.0120   34.8790   43.2730 C   0  0  0  0  0  0  0  0  0  0  0  0
   46.2840   33.9650   44.2660 N   0  0  0  0  0  0  0  0  0  0  0  0
   45.6590   34.0240   45.4710 C   0  0  0  0  0  0  0  0  0  0  0  0
   44.7580   34.9770   45.7220 N   0  0  0  0  0  0  0  0  0  0  0  0
   46.7210   34.7330   42.0430 N   0  0  0  0  0  0  0  0  0  0  0  0
   46.4650   34.1610   40.8600 C   0  0  0  0  0  0  0  0  0  0  0  0
   47.5220   34.3280   40.0310 N   0  0  0  0  0  0  0  0  0  0  0  0
   48.4360   35.0180   40.7310 C   0  0  0  0  0  0  0  0  0  0  0  0
   47.9550   35.2750   41.9770 N   0  0  0  0  0  0  0  0  0  0  0  0
   45.9830   33.0350   46.4820 C   0  0  0  0  0  0  0  0  0  0  0  0
   45.2210   32.9160   47.6310 C   0  0  0  0  0  0  0  0  0  0  0  0
   45.4770   32.0080   48.6140 C   0  0  0  0  0  0  0  0  0  0  0  0
   46.5820   31.1850   48.3850 C   0  0  0  0  0  0  0  0  0  0  0  0
   47.3530   31.2830   47.2520 C   0  0  0  0  0  0  0  0  0  0  0  0
   47.0460   32.2110   46.3060 N   0  0  0  0  0  0  0  0  0  0  0  0
   43.7108   36.6718   45.0155 H   0  0  0  0  0  0  0  0  0  0  0  0
   44.8275   36.6254   42.7590 H   0  0  0  0  0  0  0  0  0  0  0  0
   45.5349   33.6341   40.6005 H   0  0  0  0  0  0  0  0  0  0  0  0
   49.4222   35.3279   40.3549 H   0  0  0  0  0  0  0  0  0  0  0  0
   44.3619   33.5912   47.7576 H   0  0  0  0  0  0  0  0  0  0  0  0
   44.8593   31.9289   49.5207 H   0  0  0  0  0  0  0  0  0  0  0  0
   46.8449   30.4298   49.1403 H   0  0  0  0  0  0  0  0  0  0  0  0
   48.2147   30.6140   47.1105 H   0  0  0  0  0  0  0  0  0  0  0  0
  1  6  2  0
  2  1  1  0
  3  2  2  0
  3  4  1  0
  4  5  2  0
  5  6  1  0
  5 12  1  0
  7  3  1  0
  8  7  1  0
  9 10  1  0
  9  8  2  0
 10 11  2  0
 11  7  1  0
 12 13  2  0
 13 14  1  0
 15 14  2  0
 16 15  1  0
 17 12  1  0
 17 16  2  0
  1 18  1  0
  2 19  1  0
  8 20  1  0
 10 21  1  0
 13 22  1  0
 14 23  1  0
 15 24  1  0
 16 25  1  0
M  ISO  8  18  14  19  14  20  14  21  14  22  14  23  14  24  14  25  14
M  END
>  <minimizedAffinity>  (1) 
-5.72132874

>  <minimizedRMSD>  (1) 
0.600062549

$$$$
