
     RDKit          3D

 28 30  0  0  0  0  0  0  0  0999 V2000
   44.4240   35.9850   44.7400 C   0  0  0  0  0  0  0  0  0  0  0  0
   45.0590   35.9190   43.4960 C   0  0  0  0  0  0  0  0  0  0  0  0
   45.9960   34.9010   43.2520 C   0  0  0  0  0  0  0  0  0  0  0  0
   46.2200   34.0320   44.2720 N   0  0  0  0  0  0  0  0  0  0  0  0
   45.5960   34.1140   45.4660 C   0  0  0  0  0  0  0  0  0  0  0  0
   44.7090   35.0830   45.6890 N   0  0  0  0  0  0  0  0  0  0  0  0
   45.9170   33.1440   46.4550 N   0  0  0  0  0  0  0  0  0  0  0  0
   47.0640   32.2580   46.4260 C   0  0  0  0  0  0  0  0  0  0  0  0
   47.2870   32.0190   47.9260 C   0  0  0  0  0  0  0  0  0  0  0  0
   45.8600   31.8040   48.3900 C   0  0  0  0  0  0  0  0  0  0  0  0
   45.1290   32.9030   47.6490 C   0  0  0  0  0  0  0  0  0  0  0  0
   46.6980   34.7340   42.0360 N   0  0  0  0  0  0  0  0  0  0  0  0
   46.4390   34.1500   40.8590 C   0  0  0  0  0  0  0  0  0  0  0  0
   47.4850   34.2880   40.0250 N   0  0  0  0  0  0  0  0  0  0  0  0
   48.4150   34.9810   40.7180 C   0  0  0  0  0  0  0  0  0  0  0  0
   47.9300   35.2550   41.9570 N   0  0  0  0  0  0  0  0  0  0  0  0
   43.6892   36.7788   44.9399 H   0  0  0  0  0  0  0  0  0  0  0  0
   44.8269   36.6579   42.7149 H   0  0  0  0  0  0  0  0  0  0  0  0
   46.8372   31.3207   45.8969 H   0  0  0  0  0  0  0  0  0  0  0  0
   47.9382   32.6649   45.8966 H   0  0  0  0  0  0  0  0  0  0  0  0
   47.9104   31.1310   48.1069 H   0  0  0  0  0  0  0  0  0  0  0  0
   47.8188   32.8306   48.4441 H   0  0  0  0  0  0  0  0  0  0  0  0
   45.4894   30.8096   48.1004 H   0  0  0  0  0  0  0  0  0  0  0  0
   45.7346   31.8412   49.4822 H   0  0  0  0  0  0  0  0  0  0  0  0
   45.0732   33.8128   48.2648 H   0  0  0  0  0  0  0  0  0  0  0  0
   44.0937   32.6195   47.4088 H   0  0  0  0  0  0  0  0  0  0  0  0
   45.5022   33.6303   40.6094 H   0  0  0  0  0  0  0  0  0  0  0  0
   49.4051   35.2758   40.3400 H   0  0  0  0  0  0  0  0  0  0  0  0
  1  6  2  0
  2  1  1  0
  3  2  2  0
  3  4  1  0
  4  5  2  0
  5  6  1  0
  5  7  1  0
  7 11  1  0
  8  7  1  0
  8  9  1  0
  9 10  1  0
 11 10  1  0
 12  3  1  0
 13 12  1  0
 14 15  1  0
 14 13  2  0
 15 16  2  0
 16 12  1  0
  1 17  1  0
  2 18  1  0
  8 19  1  0
  8 20  1  0
  9 21  1  0
  9 22  1  0
 10 23  1  0
 10 24  1  0
 11 25  1  0
 11 26  1  0
 13 27  1  0
 15 28  1  0
M  ISO  8  17  14  18  14  19  13  20  13  21  13  22  13  23  13  24  13
M  ISO  4  25  13  26  13  27  14  28  14
M  END
>  <minimizedAffinity>  (1) 
-5.65972996

>  <minimizedRMSD>  (1) 
0.204694167

$$$$
