
     RDKit          3D

 31 33  0  0  0  0  0  0  0  0999 V2000
   44.4350   35.9290   44.7960 C   0  0  0  0  0  0  0  0  0  0  0  0
   45.0540   35.8860   43.5390 C   0  0  0  0  0  0  0  0  0  0  0  0
   45.9940   34.8740   43.3030 C   0  0  0  0  0  0  0  0  0  0  0  0
   46.2480   33.9960   44.3070 N   0  0  0  0  0  0  0  0  0  0  0  0
   45.6360   34.0590   45.5120 C   0  0  0  0  0  0  0  0  0  0  0  0
   44.7330   35.0320   45.7380 N   0  0  0  0  0  0  0  0  0  0  0  0
   45.9190   33.1280   46.5510 N   0  0  0  0  0  0  0  0  0  0  0  0
   47.0550   32.2820   46.5190 C   0  0  0  0  0  0  0  0  0  0  0  0
   47.5070   31.7520   47.8280 C   0  0  0  0  0  0  0  0  0  0  0  0
   46.4270   31.4620   48.8250 C   0  0  0  0  0  0  0  0  0  0  0  0
   45.0510   31.6270   48.1660 C   0  0  0  0  0  0  0  0  0  0  0  0
   45.0210   33.0520   47.6580 C   0  0  0  0  0  0  0  0  0  0  0  0
   46.6990   34.7120   42.0720 N   0  0  0  0  0  0  0  0  0  0  0  0
   46.4060   34.1360   40.8820 C   0  0  0  0  0  0  0  0  0  0  0  0
   47.4360   34.2610   40.0400 N   0  0  0  0  0  0  0  0  0  0  0  0
   48.3880   34.9320   40.7250 C   0  0  0  0  0  0  0  0  0  0  0  0
   47.9460   35.2230   41.9970 N   0  0  0  0  0  0  0  0  0  0  0  0
   43.6934   36.7130   45.0088 H   0  0  0  0  0  0  0  0  0  0  0  0
   44.8092   36.6244   42.7613 H   0  0  0  0  0  0  0  0  0  0  0  0
   46.8180   31.4244   45.8722 H   0  0  0  0  0  0  0  0  0  0  0  0
   47.8811   32.9081   46.1510 H   0  0  0  0  0  0  0  0  0  0  0  0
   48.0540   30.8160   47.6419 H   0  0  0  0  0  0  0  0  0  0  0  0
   48.1195   32.5483   48.2760 H   0  0  0  0  0  0  0  0  0  0  0  0
   46.5352   30.4301   49.1904 H   0  0  0  0  0  0  0  0  0  0  0  0
   46.5124   32.1650   49.6668 H   0  0  0  0  0  0  0  0  0  0  0  0
   44.9352   30.9182   47.3328 H   0  0  0  0  0  0  0  0  0  0  0  0
   44.2313   31.4253   48.8712 H   0  0  0  0  0  0  0  0  0  0  0  0
   45.3435   33.7414   48.4521 H   0  0  0  0  0  0  0  0  0  0  0  0
   44.0027   33.3349   47.3530 H   0  0  0  0  0  0  0  0  0  0  0  0
   45.4556   33.6365   40.6426 H   0  0  0  0  0  0  0  0  0  0  0  0
   49.3749   35.2067   40.3243 H   0  0  0  0  0  0  0  0  0  0  0  0
  1  6  2  0
  2  1  1  0
  3  2  2  0
  3  4  1  0
  4  5  2  0
  5  6  1  0
  5  7  1  0
  7 12  1  0
  8  7  1  0
  8  9  1  0
  9 10  1  0
 11 10  1  0
 12 11  1  0
 13  3  1  0
 14 13  1  0
 15 16  1  0
 15 14  2  0
 16 17  2  0
 17 13  1  0
  1 18  1  0
  2 19  1  0
  8 20  1  0
  8 21  1  0
  9 22  1  0
  9 23  1  0
 10 24  1  0
 10 25  1  0
 11 26  1  0
 11 27  1  0
 12 28  1  0
 12 29  1  0
 14 30  1  0
 16 31  1  0
M  ISO  8  18  14  19  14  20  13  21  13  22  13  23  13  24  13  25  13
M  ISO  6  26  13  27  13  28  13  29  13  30  14  31  14
M  END
>  <minimizedAffinity>  (1) 
-6.00163555

>  <minimizedRMSD>  (1) 
0.283663094

$$$$
