
     RDKit          3D

 26 28  0  0  0  0  0  0  0  0999 V2000
   44.4410   35.9400   44.7640 C   0  0  0  0  0  0  0  0  0  0  0  0
   45.0750   35.9050   43.5120 C   0  0  0  0  0  0  0  0  0  0  0  0
   46.0160   34.8880   43.2630 C   0  0  0  0  0  0  0  0  0  0  0  0
   46.2470   34.0010   44.2680 N   0  0  0  0  0  0  0  0  0  0  0  0
   45.6160   34.0640   45.4650 C   0  0  0  0  0  0  0  0  0  0  0  0
   44.7250   35.0280   45.7010 N   0  0  0  0  0  0  0  0  0  0  0  0
   45.9610   33.0460   46.4550 C   0  0  0  0  0  0  0  0  0  0  0  0
   47.0090   32.1690   46.2510 C   0  0  0  0  0  0  0  0  0  0  0  0
   47.3200   31.2030   47.2120 C   0  0  0  0  0  0  0  0  0  0  0  0
   46.5390   31.1580   48.3720 C   0  0  0  0  0  0  0  0  0  0  0  0
   45.4900   32.0280   48.5890 C   0  0  0  0  0  0  0  0  0  0  0  0
   45.2060   32.9810   47.6110 C   0  0  0  0  0  0  0  0  0  0  0  0
   46.7280   34.7370   42.0420 N   0  0  0  0  0  0  0  0  0  0  0  0
   46.4400   34.1520   40.8570 C   0  0  0  0  0  0  0  0  0  0  0  0
   47.5010   34.3100   40.0320 N   0  0  0  0  0  0  0  0  0  0  0  0
   48.4190   34.9870   40.7220 C   0  0  0  0  0  0  0  0  0  0  0  0
   47.9610   35.2690   41.9880 N   0  0  0  0  0  0  0  0  0  0  0  0
   43.7020   36.7264   44.9773 H   0  0  0  0  0  0  0  0  0  0  0  0
   44.8417   36.6556   42.7425 H   0  0  0  0  0  0  0  0  0  0  0  0
   47.6021   32.2314   45.3267 H   0  0  0  0  0  0  0  0  0  0  0  0
   48.1526   30.5002   47.0611 H   0  0  0  0  0  0  0  0  0  0  0  0
   46.7692   30.4027   49.1378 H   0  0  0  0  0  0  0  0  0  0  0  0
   44.8924   31.9713   49.5108 H   0  0  0  0  0  0  0  0  0  0  0  0
   44.3751   33.6861   47.7607 H   0  0  0  0  0  0  0  0  0  0  0  0
   45.5019   33.6352   40.6063 H   0  0  0  0  0  0  0  0  0  0  0  0
   49.4055   35.2794   40.3330 H   0  0  0  0  0  0  0  0  0  0  0  0
  1  6  2  0
  2  1  1  0
  3  2  2  0
  3  4  1  0
  4  5  2  0
  5  6  1  0
  5  7  1  0
  7 12  1  0
  8  7  2  0
  8  9  1  0
  9 10  2  0
 10 11  1  0
 12 11  2  0
 13  3  1  0
 14 13  1  0
 15 16  1  0
 15 14  2  0
 16 17  2  0
 17 13  1  0
  1 18  1  0
  2 19  1  0
  8 20  1  0
  9 21  1  0
 10 22  1  0
 11 23  1  0
 12 24  1  0
 14 25  1  0
 16 26  1  0
M  ISO  8  18  14  19  14  20  14  21  14  22  14  23  14  24  14  25  14
M  ISO  1  26  14
M  END
>  <minimizedAffinity>  (1) 
-5.77822638

>  <minimizedRMSD>  (1) 
0.319902688

$$$$
