
     RDKit          3D

 23 25  0  0  0  0  0  0  0  0999 V2000
   44.4350   35.9900   44.7460 C   0  0  0  0  0  0  0  0  0  0  0  0
   45.0730   35.9390   43.4880 C   0  0  0  0  0  0  0  0  0  0  0  0
   46.0000   34.9010   43.2620 C   0  0  0  0  0  0  0  0  0  0  0  0
   46.2220   34.0170   44.2660 N   0  0  0  0  0  0  0  0  0  0  0  0
   45.5880   34.1010   45.4610 C   0  0  0  0  0  0  0  0  0  0  0  0
   44.7080   35.0780   45.6900 N   0  0  0  0  0  0  0  0  0  0  0  0
   45.8920   33.1190   46.4550 N   0  0  0  0  0  0  0  0  0  0  0  0
   45.1940   32.8650   47.5710 C   0  0  0  0  0  0  0  0  0  0  0  0
   45.8510   31.8420   48.2310 C   0  0  0  0  0  0  0  0  0  0  0  0
   46.9420   31.4960   47.4910 N   0  0  0  0  0  0  0  0  0  0  0  0
   46.9570   32.2980   46.3880 C   0  0  0  0  0  0  0  0  0  0  0  0
   46.7100   34.7390   42.0350 N   0  0  0  0  0  0  0  0  0  0  0  0
   46.4310   34.1520   40.8550 C   0  0  0  0  0  0  0  0  0  0  0  0
   47.4880   34.2990   40.0250 N   0  0  0  0  0  0  0  0  0  0  0  0
   48.4120   34.9810   40.7120 C   0  0  0  0  0  0  0  0  0  0  0  0
   47.9480   35.2680   41.9760 N   0  0  0  0  0  0  0  0  0  0  0  0
   43.7058   36.7868   44.9542 H   0  0  0  0  0  0  0  0  0  0  0  0
   44.8542   36.6846   42.7095 H   0  0  0  0  0  0  0  0  0  0  0  0
   44.2750   33.3727   47.8991 H   0  0  0  0  0  0  0  0  0  0  0  0
   45.5464   31.3876   49.1854 H   0  0  0  0  0  0  0  0  0  0  0  0
   47.7078   32.2777   45.5843 H   0  0  0  0  0  0  0  0  0  0  0  0
   45.4923   33.6352   40.6063 H   0  0  0  0  0  0  0  0  0  0  0  0
   49.3994   35.2704   40.3230 H   0  0  0  0  0  0  0  0  0  0  0  0
  1  6  2  0
  2  1  1  0
  3  2  2  0
  3  4  1  0
  4  5  2  0
  5  6  1  0
  5  7  1  0
  7  8  1  0
  8  9  2  0
 10  9  1  0
 11  7  1  0
 11 10  2  0
 12  3  1  0
 13 12  1  0
 14 15  1  0
 14 13  2  0
 15 16  2  0
 16 12  1  0
  1 17  1  0
  2 18  1  0
  8 19  1  0
  9 20  1  0
 11 21  1  0
 13 22  1  0
 15 23  1  0
M  ISO  7  17  14  18  14  19  14  20  14  21  14  22  14  23  14
M  END
>  <minimizedAffinity>  (1) 
-5.46504259

>  <minimizedRMSD>  (1) 
0.191370547

$$$$
