
     RDKit          3D

 23 25  0  0  0  0  0  0  0  0999 V2000
   44.4330   35.9960   44.6280 C   0  0  0  0  0  0  0  0  0  0  0  0
   45.1020   35.9410   43.3940 C   0  0  0  0  0  0  0  0  0  0  0  0
   46.0630   34.9270   43.1860 C   0  0  0  0  0  0  0  0  0  0  0  0
   46.2850   34.0560   44.2070 N   0  0  0  0  0  0  0  0  0  0  0  0
   45.6190   34.1420   45.3850 C   0  0  0  0  0  0  0  0  0  0  0  0
   44.7090   35.0980   45.5850 N   0  0  0  0  0  0  0  0  0  0  0  0
   46.7950   34.7770   41.9830 N   0  0  0  0  0  0  0  0  0  0  0  0
   46.5440   34.1680   40.7970 C   0  0  0  0  0  0  0  0  0  0  0  0
   47.6000   34.3280   39.9750 N   0  0  0  0  0  0  0  0  0  0  0  0
   48.4980   35.0410   40.6690 C   0  0  0  0  0  0  0  0  0  0  0  0
   48.0090   35.3270   41.9220 N   0  0  0  0  0  0  0  0  0  0  0  0
   45.8460   33.2150   46.4880 C   0  0  0  0  0  0  0  0  0  0  0  0
   46.9160   32.3550   46.6150 C   0  0  0  0  0  0  0  0  0  0  0  0
   46.7390   31.6570   47.8110 C   0  0  0  0  0  0  0  0  0  0  0  0
   45.5640   32.1310   48.3520 C   0  0  0  0  0  0  0  0  0  0  0  0
   45.0760   33.0530   47.5280 O   0  0  0  0  0  0  0  0  0  0  0  0
   43.6808   36.7777   44.8098 H   0  0  0  0  0  0  0  0  0  0  0  0
   44.8815   36.6742   42.6042 H   0  0  0  0  0  0  0  0  0  0  0  0
   45.6202   33.6266   40.5449 H   0  0  0  0  0  0  0  0  0  0  0  0
   49.4831   35.3522   40.2911 H   0  0  0  0  0  0  0  0  0  0  0  0
   47.7509   32.2405   45.9080 H   0  0  0  0  0  0  0  0  0  0  0  0
   47.4012   30.8873   48.2342 H   0  0  0  0  0  0  0  0  0  0  0  0
   45.1097   31.8041   49.2990 H   0  0  0  0  0  0  0  0  0  0  0  0
  1  6  2  0
  2  1  1  0
  3  2  2  0
  3  4  1  0
  4  5  2  0
  5  6  1  0
  5 12  1  0
  7  3  1  0
  8  7  1  0
  9 10  1  0
  9  8  2  0
 10 11  2  0
 11  7  1  0
 12 13  2  0
 12 16  1  0
 13 14  1  0
 14 15  2  0
 16 15  1  0
  1 17  1  0
  2 18  1  0
  8 19  1  0
 10 20  1  0
 13 21  1  0
 14 22  1  0
 15 23  1  0
M  ISO  7  17  14  18  14  19  14  20  14  21  14  22  14  23  14
M  END
>  <minimizedAffinity>  (1) 
-5.43906164

>  <minimizedRMSD>  (1) 
0.442269534

$$$$
