
     RDKit          3D

 30 32  0  0  0  0  0  0  0  0999 V2000
   44.5010   35.8950   44.9080 C   0  0  0  0  0  0  0  0  0  0  0  0
   45.1570   35.8990   43.6560 C   0  0  0  0  0  0  0  0  0  0  0  0
   46.0310   34.8600   43.3580 C   0  0  0  0  0  0  0  0  0  0  0  0
   46.2030   33.8790   44.3120 N   0  0  0  0  0  0  0  0  0  0  0  0
   45.5650   33.8980   45.5010 C   0  0  0  0  0  0  0  0  0  0  0  0
   44.7230   34.9020   45.7860 N   0  0  0  0  0  0  0  0  0  0  0  0
   45.7840   32.8580   46.4470 N   0  0  0  0  0  0  0  0  0  0  0  0
   45.0950   32.8850   47.7220 C   0  0  0  0  0  0  0  0  0  0  0  0
   45.9700   32.3710   48.8190 C   0  0  0  0  0  0  0  0  0  0  0  0
   46.7890   31.2560   48.4620 N   0  0  0  0  0  0  0  0  0  0  0  0
   47.6050   31.4560   47.3040 C   0  0  0  0  0  0  0  0  0  0  0  0
   46.6940   31.7710   46.1400 C   0  0  0  0  0  0  0  0  0  0  0  0
   46.7510   34.7380   42.1390 N   0  0  0  0  0  0  0  0  0  0  0  0
   46.4870   34.1650   40.9420 C   0  0  0  0  0  0  0  0  0  0  0  0
   47.5500   34.3500   40.1200 N   0  0  0  0  0  0  0  0  0  0  0  0
   48.4520   35.0380   40.8380 C   0  0  0  0  0  0  0  0  0  0  0  0
   47.9640   35.2800   42.0820 N   0  0  0  0  0  0  0  0  0  0  0  0
   43.8059   36.7080   45.1648 H   0  0  0  0  0  0  0  0  0  0  0  0
   44.9795   36.7080   42.9321 H   0  0  0  0  0  0  0  0  0  0  0  0
   44.8036   33.9207   47.9507 H   0  0  0  0  0  0  0  0  0  0  0  0
   44.2073   32.2392   47.6524 H   0  0  0  0  0  0  0  0  0  0  0  0
   46.6295   33.1899   49.1423 H   0  0  0  0  0  0  0  0  0  0  0  0
   45.2950   32.0170   49.6121 H   0  0  0  0  0  0  0  0  0  0  0  0
   47.4083   31.0458   49.2577 H   0  0  0  0  0  0  0  0  0  0  0  0
   48.2963   32.2945   47.4746 H   0  0  0  0  0  0  0  0  0  0  0  0
   48.1969   30.5532   47.0928 H   0  0  0  0  0  0  0  0  0  0  0  0
   46.1069   30.8738   45.8944 H   0  0  0  0  0  0  0  0  0  0  0  0
   47.3200   32.0790   45.2895 H   0  0  0  0  0  0  0  0  0  0  0  0
   45.5600   33.6348   40.6781 H   0  0  0  0  0  0  0  0  0  0  0  0
   49.4391   35.3580   40.4731 H   0  0  0  0  0  0  0  0  0  0  0  0
  1  6  2  0
  2  1  1  0
  3  2  2  0
  3  4  1  0
  4  5  2  0
  5  6  1  0
  5  7  1  0
  7  8  1  0
  8  9  1  0
 10  9  1  0
 11 10  1  0
 12  7  1  0
 12 11  1  0
 13  3  1  0
 14 13  1  0
 15 16  1  0
 15 14  2  0
 16 17  2  0
 17 13  1  0
  1 18  1  0
  2 19  1  0
  8 20  1  0
  8 21  1  0
  9 22  1  0
  9 23  1  0
 10 24  1  0
 11 25  1  0
 11 26  1  0
 12 27  1  0
 12 28  1  0
 14 29  1  0
 16 30  1  0
M  ISO  8  18  14  19  14  20  13  21  13  22  13  23  13  24   5  25  13
M  ISO  5  26  13  27  13  28  13  29  14  30  14
M  END
>  <minimizedAffinity>  (1) 
-5.62927389

>  <minimizedRMSD>  (1) 
0.259014308

$$$$
