
     RDKit          3D

 24 26  0  0  0  0  0  0  0  0999 V2000
   44.4510   35.9500   44.7320 C   0  0  0  0  0  0  0  0  0  0  0  0
   45.0920   35.9190   43.4790 C   0  0  0  0  0  0  0  0  0  0  0  0
   46.0250   34.9000   43.2360 C   0  0  0  0  0  0  0  0  0  0  0  0
   46.2530   33.9990   44.2410 N   0  0  0  0  0  0  0  0  0  0  0  0
   45.6160   34.0650   45.4300 C   0  0  0  0  0  0  0  0  0  0  0  0
   44.7290   35.0300   45.6650 N   0  0  0  0  0  0  0  0  0  0  0  0
   46.7410   34.7530   42.0190 N   0  0  0  0  0  0  0  0  0  0  0  0
   46.4800   34.1680   40.8350 C   0  0  0  0  0  0  0  0  0  0  0  0
   47.5230   34.3230   40.0020 N   0  0  0  0  0  0  0  0  0  0  0  0
   48.4380   35.0170   40.6970 C   0  0  0  0  0  0  0  0  0  0  0  0
   47.9700   35.2950   41.9560 N   0  0  0  0  0  0  0  0  0  0  0  0
   45.9290   33.0570   46.4330 C   0  0  0  0  0  0  0  0  0  0  0  0
   46.9830   32.1750   46.2130 C   0  0  0  0  0  0  0  0  0  0  0  0
   47.2150   31.2510   47.2110 C   0  0  0  0  0  0  0  0  0  0  0  0
   46.4750   31.1970   48.3310 N   0  0  0  0  0  0  0  0  0  0  0  0
   45.4470   32.0730   48.5240 C   0  0  0  0  0  0  0  0  0  0  0  0
   45.1930   32.9910   47.5640 N   0  0  0  0  0  0  0  0  0  0  0  0
   43.7142   36.7379   44.9471 H   0  0  0  0  0  0  0  0  0  0  0  0
   44.8672   36.6737   42.7109 H   0  0  0  0  0  0  0  0  0  0  0  0
   45.5480   33.6397   40.5855 H   0  0  0  0  0  0  0  0  0  0  0  0
   49.4229   35.3197   40.3117 H   0  0  0  0  0  0  0  0  0  0  0  0
   47.5939   32.2123   45.2990 H   0  0  0  0  0  0  0  0  0  0  0  0
   48.0371   30.5312   47.0848 H   0  0  0  0  0  0  0  0  0  0  0  0
   44.8386   32.0335   49.4396 H   0  0  0  0  0  0  0  0  0  0  0  0
  1  6  2  0
  2  1  1  0
  3  2  2  0
  3  4  1  0
  4  5  2  0
  5  6  1  0
  5 12  1  0
  7  3  1  0
  8  7  1  0
  9 10  1  0
  9  8  2  0
 10 11  2  0
 11  7  1  0
 12 17  1  0
 13 12  2  0
 13 14  1  0
 14 15  2  0
 15 16  1  0
 17 16  2  0
  1 18  1  0
  2 19  1  0
  8 20  1  0
 10 21  1  0
 13 22  1  0
 14 23  1  0
 16 24  1  0
M  ISO  7  18  14  19  14  20  14  21  14  22  14  23  14  24  14
M  END
>  <minimizedAffinity>  (1) 
-5.56422853

>  <minimizedRMSD>  (1) 
0.285070568

$$$$
