
     RDKit          3D

 38 41  0  0  0  0  0  0  0  0999 V2000
   47.5430   34.7520   41.6830 C   0  0  0  0  0  0  0  0  0  0  0  0
   47.2800   34.2720   40.3010 C   0  0  0  0  0  0  0  0  0  0  0  0
   48.2260   34.3530   39.2940 C   0  0  0  0  0  0  0  0  0  0  0  0
   48.0760   33.9350   37.9990 C   0  0  0  0  0  0  0  0  0  0  0  0
   46.8520   33.3920   37.7180 N   0  0  0  0  0  0  0  0  0  0  0  0
   45.9040   33.3000   38.6850 C   0  0  0  0  0  0  0  0  0  0  0  0
   46.0760   33.7200   39.9620 N   0  0  0  0  0  0  0  0  0  0  0  0
   44.6350   32.7100   38.3030 C   0  0  0  0  0  0  0  0  0  0  0  0
   43.4340   33.2990   38.7180 C   0  0  0  0  0  0  0  0  0  0  0  0
   42.2330   32.7470   38.3600 C   0  0  0  0  0  0  0  0  0  0  0  0
   42.1870   31.6440   37.6140 N   0  0  0  0  0  0  0  0  0  0  0  0
   43.3540   31.0920   37.2250 C   0  0  0  0  0  0  0  0  0  0  0  0
   44.5770   31.6040   37.5540 N   0  0  0  0  0  0  0  0  0  0  0  0
   47.2550   33.6300   42.6280 C   0  0  0  0  0  0  0  0  0  0  0  0
   44.7360   35.3840   44.8140 C   0  0  0  0  0  0  0  0  0  0  0  0
   45.5410   35.0380   43.7200 C   0  0  0  0  0  0  0  0  0  0  0  0
   46.4100   33.9840   43.7730 C   0  0  0  0  0  0  0  0  0  0  0  0
   46.4680   33.2780   44.9210 N   0  0  0  0  0  0  0  0  0  0  0  0
   45.6730   33.6270   45.9870 C   0  0  0  0  0  0  0  0  0  0  0  0
   44.8390   34.6450   45.9290 N   0  0  0  0  0  0  0  0  0  0  0  0
   45.8910   32.7260   47.1480 C   0  0  0  0  0  0  0  0  0  0  0  0
   44.9140   32.0640   48.0040 C   0  0  0  0  0  0  0  0  0  0  0  0
   46.0390   31.1910   49.1270 S   0  0  0  0  0  0  0  0  0  0  0  0
   47.6090   31.8460   48.2770 C   0  0  0  0  0  0  0  0  0  0  0  0
   47.2010   32.6250   47.2750 N   0  0  0  0  0  0  0  0  0  0  0  0
   46.8906   35.6079   41.9108 H   0  0  0  0  0  0  0  0  0  0  0  0
   48.5904   35.0734   41.7815 H   0  0  0  0  0  0  0  0  0  0  0  0
   49.1959   34.7980   39.5610 H   0  0  0  0  0  0  0  0  0  0  0  0
   48.8733   34.0280   37.2469 H   0  0  0  0  0  0  0  0  0  0  0  0
   43.4556   34.2096   39.3347 H   0  0  0  0  0  0  0  0  0  0  0  0
   41.2965   33.2191   38.6918 H   0  0  0  0  0  0  0  0  0  0  0  0
   43.3194   30.1807   36.6099 H   0  0  0  0  0  0  0  0  0  0  0  0
   46.7496   32.8314   42.0652 H   0  0  0  0  0  0  0  0  0  0  0  0
   48.2254   33.3239   43.0458 H   0  0  0  0  0  0  0  0  0  0  0  0
   44.0413   36.2351   44.7600 H   0  0  0  0  0  0  0  0  0  0  0  0
   45.4718   35.6296   42.7952 H   0  0  0  0  0  0  0  0  0  0  0  0
   43.8146   32.0873   47.9767 H   0  0  0  0  0  0  0  0  0  0  0  0
   48.6496   31.6254   48.5571 H   0  0  0  0  0  0  0  0  0  0  0  0
  1 14  1  0
  2  1  1  0
  3  2  2  0
  4  3  1  0
  5  4  2  0
  5  6  1  0
  6  7  2  0
  7  2  1  0
  8  6  1  0
  8  9  2  0
 10  9  1  0
 11 10  2  0
 12 13  2  0
 12 11  1  0
 13  8  1  0
 14 17  1  0
 15 20  2  0
 16 17  2  0
 16 15  1  0
 17 18  1  0
 18 19  2  0
 19 21  1  0
 20 19  1  0
 21 25  1  0
 21 22  2  0
 22 23  1  0
 24 23  1  0
 25 24  2  0
  1 26  1  0
  1 27  1  0
  3 28  1  0
  4 29  1  0
  9 30  1  0
 10 31  1  0
 12 32  1  0
 14 33  1  0
 14 34  1  0
 15 35  1  0
 16 36  1  0
 22 37  1  0
 24 38  1  0
M  ISO  8  26   8  27   8  28  14  29  14  30  14  31  14  32  14  33   8
M  ISO  5  34   8  35  14  36  14  37  14  38  14
M  END
>  <minimizedAffinity>  (1) 
-5.69549179

>  <minimizedRMSD>  (1) 
0.738218009

$$$$
