
     RDKit          3D

 29 31  0  0  0  0  0  0  0  0999 V2000
   44.8160   35.0290   44.7420 C   0  0  0  0  0  0  0  0  0  0  0  0
   45.3810   35.2850   43.4810 C   0  0  0  0  0  0  0  0  0  0  0  0
   46.5320   34.5520   43.1260 C   0  0  0  0  0  0  0  0  0  0  0  0
   47.0400   33.6350   44.0200 N   0  0  0  0  0  0  0  0  0  0  0  0
   46.4370   33.4420   45.2270 C   0  0  0  0  0  0  0  0  0  0  0  0
   45.3480   34.1300   45.5720 N   0  0  0  0  0  0  0  0  0  0  0  0
   47.2100   34.7040   41.8880 N   0  0  0  0  0  0  0  0  0  0  0  0
   47.0300   34.2220   40.6400 C   0  0  0  0  0  0  0  0  0  0  0  0
   47.9930   34.7000   39.8230 N   0  0  0  0  0  0  0  0  0  0  0  0
   48.7680   35.4830   40.5840 C   0  0  0  0  0  0  0  0  0  0  0  0
   48.2960   35.4950   41.8650 N   0  0  0  0  0  0  0  0  0  0  0  0
   48.0700   30.6480   48.0120 C   0  0  0  0  0  0  0  0  0  0  0  0
   47.8730   30.3240   46.6710 C   0  0  0  0  0  0  0  0  0  0  0  0
   47.3480   31.1960   45.7360 C   0  0  0  0  0  0  0  0  0  0  0  0
   46.9980   32.4650   46.1530 C   0  0  0  0  0  0  0  0  0  0  0  0
   47.1920   32.7870   47.4790 C   0  0  0  0  0  0  0  0  0  0  0  0
   47.7180   31.9190   48.4200 C   0  0  0  0  0  0  0  0  0  0  0  0
   48.7480   29.4500   49.1100 S   0  0  0  0  0  0  0  0  0  0  0  0
   49.3880   30.1320   50.2780 O   0  0  0  0  0  0  0  0  0  0  0  0
   49.7010   28.6320   48.3040 O   0  0  0  0  0  0  0  0  0  0  0  0
   43.9164   35.5813   45.0512 H   0  0  0  0  0  0  0  0  0  0  0  0
   44.9428   36.0277   42.7981 H   0  0  0  0  0  0  0  0  0  0  0  0
   46.2208   33.5423   40.3346 H   0  0  0  0  0  0  0  0  0  0  0  0
   49.6520   36.0338   40.2303 H   0  0  0  0  0  0  0  0  0  0  0  0
   48.1520   29.3139   46.3367 H   0  0  0  0  0  0  0  0  0  0  0  0
   47.2127   30.8877   44.6888 H   0  0  0  0  0  0  0  0  0  0  0  0
   46.9111   33.7976   47.8103 H   0  0  0  0  0  0  0  0  0  0  0  0
   47.8520   32.2336   49.4655 H   0  0  0  0  0  0  0  0  0  0  0  0
   47.7937   28.6264   49.6466 H   0  0  0  0  0  0  0  0  0  0  0  0
  1  6  2  0
  2  1  1  0
  3  2  2  0
  3  4  1  0
  4  5  2  0
  5  6  1  0
  5 15  1  0
  7  3  1  0
  8  7  1  0
  9 10  1  0
  9  8  2  0
 10 11  2  0
 11  7  1  0
 12 17  2  0
 12 18  1  0
 13 12  1  0
 14 15  1  0
 14 13  2  0
 15 16  2  0
 16 17  1  0
 18 19  2  0
 20 18  2  0
  1 21  1  0
  2 22  1  0
  8 23  1  0
 10 24  1  0
 13 25  1  0
 14 26  1  0
 16 27  1  0
 17 28  1  0
 18 29  1  0
M  ISO  8  21  14  22  14  23  14  24  14  25  14  26  14  27  14  28  14
M  ISO  1  29  11
M  END
>  <minimizedAffinity>  (1) 
-4.90049219

>  <minimizedRMSD>  (1) 
1.47587013

$$$$
