
     RDKit          3D

 17 18  0  0  0  0  0  0  0  0999 V2000
   44.5110   35.8940   44.6560 C   0  0  0  0  0  0  0  0  0  0  0  0
   45.1770   35.8960   43.4180 C   0  0  0  0  0  0  0  0  0  0  0  0
   46.1300   34.8990   43.1690 C   0  0  0  0  0  0  0  0  0  0  0  0
   46.3500   33.9820   44.1550 N   0  0  0  0  0  0  0  0  0  0  0  0
   45.6990   33.9980   45.3390 C   0  0  0  0  0  0  0  0  0  0  0  0
   44.7850   34.9570   45.5730 N   0  0  0  0  0  0  0  0  0  0  0  0
   46.8760   34.7870   41.9570 N   0  0  0  0  0  0  0  0  0  0  0  0
   46.6660   34.1820   40.7800 C   0  0  0  0  0  0  0  0  0  0  0  0
   47.7100   34.3920   39.9610 N   0  0  0  0  0  0  0  0  0  0  0  0
   48.5710   35.1430   40.6630 C   0  0  0  0  0  0  0  0  0  0  0  0
   48.0730   35.4050   41.9150 N   0  0  0  0  0  0  0  0  0  0  0  0
   46.0590   32.7520   46.5660 S   0  0  0  0  0  0  0  0  0  0  0  0
   43.7595   36.6674   44.8731 H   0  0  0  0  0  0  0  0  0  0  0  0
   44.9551   36.6631   42.6615 H   0  0  0  0  0  0  0  0  0  0  0  0
   45.7698   33.5987   40.5221 H   0  0  0  0  0  0  0  0  0  0  0  0
   49.5416   35.4996   40.2877 H   0  0  0  0  0  0  0  0  0  0  0  0
   45.9047   33.2861   47.8181 H   0  0  0  0  0  0  0  0  0  0  0  0
  1  6  2  0
  2  1  1  0
  3  2  2  0
  3  4  1  0
  4  5  2  0
  5  6  1  0
  5 12  1  0
  7  3  1  0
  8  7  1  0
  9 10  1  0
  9  8  2  0
 10 11  2  0
 11  7  1  0
  1 13  1  0
  2 14  1  0
  8 15  1  0
 10 16  1  0
 12 17  1  0
M  ISO  5  13  14  14  14  15  14  16  14  17  11
M  END
>  <minimizedAffinity>  (1) 
-4.38758039

>  <minimizedRMSD>  (1) 
0.134178072

$$$$
