
     RDKit          3D

 17 18  0  0  0  0  0  0  0  0999 V2000
   44.4710   36.0470   44.6140 C   0  0  0  0  0  0  0  0  0  0  0  0
   45.1410   35.9990   43.3820 C   0  0  0  0  0  0  0  0  0  0  0  0
   46.0520   34.9590   43.1520 C   0  0  0  0  0  0  0  0  0  0  0  0
   46.2290   34.0460   44.1640 N   0  0  0  0  0  0  0  0  0  0  0  0
   45.5720   34.1170   45.3400 C   0  0  0  0  0  0  0  0  0  0  0  0
   44.6970   35.1170   45.5580 N   0  0  0  0  0  0  0  0  0  0  0  0
   46.7910   34.7970   41.9550 N   0  0  0  0  0  0  0  0  0  0  0  0
   46.5610   34.1850   40.7820 C   0  0  0  0  0  0  0  0  0  0  0  0
   47.6110   34.3340   39.9670 N   0  0  0  0  0  0  0  0  0  0  0  0
   48.5170   35.0610   40.6610 C   0  0  0  0  0  0  0  0  0  0  0  0
   48.0160   35.3580   41.9070 N   0  0  0  0  0  0  0  0  0  0  0  0
   45.8250   33.1420   46.2980 O   0  0  0  0  0  0  0  0  0  0  0  0
   43.7517   36.8559   44.8098 H   0  0  0  0  0  0  0  0  0  0  0  0
   44.9550   36.7623   42.6121 H   0  0  0  0  0  0  0  0  0  0  0  0
   45.6405   33.6391   40.5277 H   0  0  0  0  0  0  0  0  0  0  0  0
   49.5044   35.3679   40.2856 H   0  0  0  0  0  0  0  0  0  0  0  0
   45.3562   33.1709   47.1695 H   0  0  0  0  0  0  0  0  0  0  0  0
  1  6  2  0
  2  1  1  0
  3  2  2  0
  3  4  1  0
  4  5  2  0
  5  6  1  0
  5 12  1  0
  7  3  1  0
  8  7  1  0
  9 10  1  0
  9  8  2  0
 10 11  2  0
 11  7  1  0
  1 13  1  0
  2 14  1  0
  8 15  1  0
 10 16  1  0
 12 17  1  0
M  ISO  5  13  14  14  14  15  14  16  14  17   3
M  END
>  <minimizedAffinity>  (1) 
-4.36324358

>  <minimizedRMSD>  (1) 
0.0315571763

$$$$
