
     RDKit          3D

 29 31  0  0  0  0  0  0  0  0999 V2000
   44.6220   36.0540   44.2960 C   0  0  0  0  0  0  0  0  0  0  0  0
   44.9560   35.6640   42.9870 C   0  0  0  0  0  0  0  0  0  0  0  0
   45.5200   34.3930   42.8210 C   0  0  0  0  0  0  0  0  0  0  0  0
   45.7100   33.6210   43.9210 N   0  0  0  0  0  0  0  0  0  0  0  0
   45.3710   34.0420   45.1690 C   0  0  0  0  0  0  0  0  0  0  0  0
   44.8340   35.2450   45.3400 N   0  0  0  0  0  0  0  0  0  0  0  0
   45.5970   33.1840   46.2750 N   0  0  0  0  0  0  0  0  0  0  0  0
   46.3040   32.0460   46.2760 C   0  0  0  0  0  0  0  0  0  0  0  0
   46.2760   31.5330   47.5240 N   0  0  0  0  0  0  0  0  0  0  0  0
   45.5510   32.3420   48.3170 C   0  0  0  0  0  0  0  0  0  0  0  0
   45.1380   33.3630   47.5200 N   0  0  0  0  0  0  0  0  0  0  0  0
   45.9110   33.8660   41.5520 N   0  0  0  0  0  0  0  0  0  0  0  0
   45.2970   33.3720   40.4890 C   0  0  0  0  0  0  0  0  0  0  0  0
   46.1800   33.0110   39.5410 N   0  0  0  0  0  0  0  0  0  0  0  0
   47.3950   33.3030   40.0560 C   0  0  0  0  0  0  0  0  0  0  0  0
   47.2460   33.8370   41.3090 N   0  0  0  0  0  0  0  0  0  0  0  0
   48.6660   33.1080   39.4380 N   0  0  0  0  0  0  0  0  0  0  0  0
   49.0200   33.7420   38.1930 C   0  0  0  0  0  0  0  0  0  0  0  0
   48.5030   34.9160   37.9960 N   0  0  0  0  0  0  0  0  0  0  0  0
   49.8990   33.0270   37.2990 N   0  0  0  0  0  0  0  0  0  0  0  0
   48.7450   35.4050   37.0910 H   0  0  0  0  0  0  0  0  0  0  0  0
   44.1769   37.0456   44.4651 H   0  0  0  0  0  0  0  0  0  0  0  0
   44.7815   36.3297   42.1289 H   0  0  0  0  0  0  0  0  0  0  0  0
   46.8185   31.6057   45.4092 H   0  0  0  0  0  0  0  0  0  0  0  0
   45.3369   32.2059   49.3873 H   0  0  0  0  0  0  0  0  0  0  0  0
   44.2060   33.2699   40.3932 H   0  0  0  0  0  0  0  0  0  0  0  0
   49.3536   32.4936   39.8969 H   0  0  0  0  0  0  0  0  0  0  0  0
   50.1737   33.4487   36.4003 H   0  0  0  0  0  0  0  0  0  0  0  0
   50.2516   32.0950   37.5597 H   0  0  0  0  0  0  0  0  0  0  0  0
  1  6  2  0
  2  1  1  0
  3  2  2  0
  3  4  1  0
  4  5  2  0
  5  6  1  0
  5  7  1  0
  7  8  1  0
  7 11  1  0
  8  9  2  0
  9 10  1  0
 11 10  2  0
 12  3  1  0
 13 12  1  0
 14 15  1  0
 14 13  2  0
 15 16  2  0
 16 12  1  0
 17 15  1  0
 18 17  1  0
 19 18  2  0
 20 18  1  0
 21 19  1  0
  1 22  1  0
  2 23  1  0
  8 24  1  0
 10 25  1  0
 13 26  1  0
 17 27  1  0
 20 28  1  0
 20 29  1  0
M  ISO  5  22  14  23  14  24  14  25  14  26  14
M  END
>  <minimizedAffinity>  (1) 
-5.79600286

>  <minimizedRMSD>  (1) 
1.60038018

$$$$
