
     RDKit          3D

 24 26  0  0  0  0  0  0  0  0999 V2000
   44.5800   35.6750   44.6700 C   0  0  0  0  0  0  0  0  0  0  0  0
   45.3630   35.5180   43.5080 C   0  0  0  0  0  0  0  0  0  0  0  0
   46.3200   34.4890   43.4940 C   0  0  0  0  0  0  0  0  0  0  0  0
   46.4280   33.7120   44.5980 N   0  0  0  0  0  0  0  0  0  0  0  0
   45.6540   33.8970   45.6940 C   0  0  0  0  0  0  0  0  0  0  0  0
   44.7500   34.8580   45.7280 N   0  0  0  0  0  0  0  0  0  0  0  0
   45.8390   33.0220   46.8080 N   0  0  0  0  0  0  0  0  0  0  0  0
   46.8140   32.1010   46.9720 C   0  0  0  0  0  0  0  0  0  0  0  0
   46.6150   31.4960   48.1560 N   0  0  0  0  0  0  0  0  0  0  0  0
   45.5310   32.0220   48.7420 C   0  0  0  0  0  0  0  0  0  0  0  0
   45.0680   32.9610   47.8950 N   0  0  0  0  0  0  0  0  0  0  0  0
   47.1700   34.2270   42.3840 N   0  0  0  0  0  0  0  0  0  0  0  0
   47.1870   34.5840   41.1060 C   0  0  0  0  0  0  0  0  0  0  0  0
   48.2550   34.0390   40.4690 N   0  0  0  0  0  0  0  0  0  0  0  0
   48.8990   33.3260   41.4210 C   0  0  0  0  0  0  0  0  0  0  0  0
   48.2320   33.4420   42.6010 N   0  0  0  0  0  0  0  0  0  0  0  0
   50.1200   32.5570   41.1950 C   0  0  0  0  0  0  0  0  0  0  0  0
   51.1330   32.8720   41.8820 O   0  0  0  0  0  0  0  0  0  0  0  0
   43.8231   36.4720   44.7133 H   0  0  0  0  0  0  0  0  0  0  0  0
   45.2290   36.1801   42.6398 H   0  0  0  0  0  0  0  0  0  0  0  0
   47.6264   31.8846   46.2626 H   0  0  0  0  0  0  0  0  0  0  0  0
   45.1055   31.7433   49.7173 H   0  0  0  0  0  0  0  0  0  0  0  0
   46.4382   35.2328   40.6281 H   0  0  0  0  0  0  0  0  0  0  0  0
   50.1563   31.7399   40.4595 H   0  0  0  0  0  0  0  0  0  0  0  0
  1  6  2  0
  2  1  1  0
  3  2  2  0
  3  4  1  0
  4  5  2  0
  5  6  1  0
  5  7  1  0
  7  8  1  0
  7 11  1  0
  8  9  2  0
  9 10  1  0
 11 10  2  0
 12 16  1  0
 12  3  1  0
 13 12  1  0
 14 13  2  0
 14 15  1  0
 15 16  2  0
 17 15  1  0
 17 18  2  0
  1 19  1  0
  2 20  1  0
  8 21  1  0
 10 22  1  0
 13 23  1  0
 17 24  1  0
M  ISO  6  19  14  20  14  21  14  22  14  23  14  24   6
M  END
>  <minimizedAffinity>  (1) 
-5.32506514

>  <minimizedRMSD>  (1) 
1.27547956

$$$$
