
     RDKit          3D

 35 38  0  0  0  0  0  0  0  0999 V2000
   44.4770   36.0950   44.7270 C   0  0  0  0  0  0  0  0  0  0  0  0
   44.7500   35.8550   43.3640 C   0  0  0  0  0  0  0  0  0  0  0  0
   45.3350   34.6300   43.0230 C   0  0  0  0  0  0  0  0  0  0  0  0
   45.6110   33.7330   44.0130 N   0  0  0  0  0  0  0  0  0  0  0  0
   45.3280   34.0110   45.3200 C   0  0  0  0  0  0  0  0  0  0  0  0
   44.7710   35.1740   45.6610 N   0  0  0  0  0  0  0  0  0  0  0  0
   45.6360   33.0460   46.3020 N   0  0  0  0  0  0  0  0  0  0  0  0
   46.3380   31.9050   46.1290 C   0  0  0  0  0  0  0  0  0  0  0  0
   46.4020   31.2730   47.3150 N   0  0  0  0  0  0  0  0  0  0  0  0
   45.7550   31.9850   48.2480 C   0  0  0  0  0  0  0  0  0  0  0  0
   45.2930   33.0740   47.5940 N   0  0  0  0  0  0  0  0  0  0  0  0
   45.6640   34.2550   41.6870 N   0  0  0  0  0  0  0  0  0  0  0  0
   44.9920   33.7660   40.6510 C   0  0  0  0  0  0  0  0  0  0  0  0
   45.8320   33.5910   39.5890 N   0  0  0  0  0  0  0  0  0  0  0  0
   47.0460   33.9930   40.0180 C   0  0  0  0  0  0  0  0  0  0  0  0
   46.9560   34.4050   41.3120 N   0  0  0  0  0  0  0  0  0  0  0  0
   48.3250   34.0130   39.2610 C   0  0  0  0  0  0  0  0  0  0  0  0
   48.9560   32.6150   39.2310 C   0  0  0  0  0  0  0  0  0  0  0  0
   48.0300   31.8960   38.2460 C   0  0  0  0  0  0  0  0  0  0  0  0
   47.5190   32.9610   37.3180 C   0  0  0  0  0  0  0  0  0  0  0  0
   48.1370   34.2620   37.7820 C   0  0  0  0  0  0  0  0  0  0  0  0
   44.0178   37.0477   45.0294 H   0  0  0  0  0  0  0  0  0  0  0  0
   44.5113   36.6049   42.5954 H   0  0  0  0  0  0  0  0  0  0  0  0
   46.7797   31.5543   45.1846 H   0  0  0  0  0  0  0  0  0  0  0  0
   45.6278   31.7375   49.3122 H   0  0  0  0  0  0  0  0  0  0  0  0
   43.9164   33.5358   40.6489 H   0  0  0  0  0  0  0  0  0  0  0  0
   48.9145   34.7941   39.7633 H   0  0  0  0  0  0  0  0  0  0  0  0
   49.9916   32.6473   38.8615 H   0  0  0  0  0  0  0  0  0  0  0  0
   49.0326   32.1314   40.2160 H   0  0  0  0  0  0  0  0  0  0  0  0
   48.5870   31.1321   37.6836 H   0  0  0  0  0  0  0  0  0  0  0  0
   47.2081   31.3799   38.7639 H   0  0  0  0  0  0  0  0  0  0  0  0
   46.4219   33.0196   37.3731 H   0  0  0  0  0  0  0  0  0  0  0  0
   47.7856   32.7422   36.2735 H   0  0  0  0  0  0  0  0  0  0  0  0
   49.0995   34.4474   37.2827 H   0  0  0  0  0  0  0  0  0  0  0  0
   47.5253   35.1480   37.5564 H   0  0  0  0  0  0  0  0  0  0  0  0
  1  6  2  0
  2  1  1  0
  3  2  2  0
  3  4  1  0
  4  5  2  0
  5  6  1  0
  5  7  1  0
  7 11  1  0
  8  7  1  0
  8  9  2  0
  9 10  1  0
 11 10  2  0
 12  3  1  0
 13 12  1  0
 14 15  1  0
 14 13  2  0
 15 16  2  0
 16 12  1  0
 17 15  1  0
 18 17  1  0
 19 18  1  0
 20 21  1  0
 20 19  1  0
 21 17  1  0
  1 22  1  0
  2 23  1  0
  8 24  1  0
 10 25  1  0
 13 26  1  0
 17 27  1  0
 18 28  1  0
 18 29  1  0
 19 30  1  0
 19 31  1  0
 20 32  1  0
 20 33  1  0
 21 34  1  0
 21 35  1  0
M  ISO  8  22  14  23  14  24  14  25  14  26  14  27  13  28  13  29  13
M  ISO  6  30  13  31  13  32  13  33  13  34  13  35  13
M  END
>  <minimizedAffinity>  (1) 
-5.63377666

>  <minimizedRMSD>  (1) 
1.55671465

$$$$
