
     RDKit          3D

 53 57  0  0  0  0  0  0  0  0999 V2000
   47.2500   33.6760   42.6030 C   0  0  0  0  0  0  0  0  0  0  0  0
   44.7380   35.4100   44.7900 C   0  0  0  0  0  0  0  0  0  0  0  0
   45.5540   35.0600   43.7000 C   0  0  0  0  0  0  0  0  0  0  0  0
   46.4160   34.0130   43.7520 C   0  0  0  0  0  0  0  0  0  0  0  0
   46.4720   33.3030   44.8980 N   0  0  0  0  0  0  0  0  0  0  0  0
   45.6730   33.6520   45.9540 C   0  0  0  0  0  0  0  0  0  0  0  0
   44.8390   34.6650   45.9050 N   0  0  0  0  0  0  0  0  0  0  0  0
   45.8920   32.7370   47.1120 C   0  0  0  0  0  0  0  0  0  0  0  0
   44.9030   32.2020   48.0550 C   0  0  0  0  0  0  0  0  0  0  0  0
   46.0210   31.2140   49.0930 S   0  0  0  0  0  0  0  0  0  0  0  0
   47.5660   31.6730   48.1130 C   0  0  0  0  0  0  0  0  0  0  0  0
   47.1720   32.4810   47.1420 N   0  0  0  0  0  0  0  0  0  0  0  0
   48.8340   31.0940   48.5720 N   0  0  0  0  0  0  0  0  0  0  0  0
   49.5990   31.8130   49.5300 C   0  0  0  0  0  0  0  0  0  0  0  0
   50.6530   30.9900   50.1740 C   0  0  0  0  0  0  0  0  0  0  0  0
   50.4690   29.5190   50.1470 C   0  0  0  0  0  0  0  0  0  0  0  0
   49.6330   28.9300   49.1010 C   0  0  0  0  0  0  0  0  0  0  0  0
   49.1720   29.8230   47.9810 C   0  0  0  0  0  0  0  0  0  0  0  0
   47.5570   34.7760   41.6570 C   0  0  0  0  0  0  0  0  0  0  0  0
   47.2970   34.2860   40.2740 C   0  0  0  0  0  0  0  0  0  0  0  0
   48.2310   34.3550   39.2610 C   0  0  0  0  0  0  0  0  0  0  0  0
   48.0840   33.9340   37.9710 C   0  0  0  0  0  0  0  0  0  0  0  0
   46.8680   33.3940   37.6980 N   0  0  0  0  0  0  0  0  0  0  0  0
   45.9220   33.3050   38.6610 C   0  0  0  0  0  0  0  0  0  0  0  0
   46.0840   33.7290   39.9380 N   0  0  0  0  0  0  0  0  0  0  0  0
   44.6480   32.7110   38.2790 C   0  0  0  0  0  0  0  0  0  0  0  0
   43.4470   33.2940   38.7060 C   0  0  0  0  0  0  0  0  0  0  0  0
   42.2500   32.7330   38.3480 C   0  0  0  0  0  0  0  0  0  0  0  0
   42.2080   31.6300   37.5920 N   0  0  0  0  0  0  0  0  0  0  0  0
   43.3700   31.0920   37.1970 C   0  0  0  0  0  0  0  0  0  0  0  0
   44.6000   31.6000   37.5190 N   0  0  0  0  0  0  0  0  0  0  0  0
   48.2059   33.2900   42.9868 H   0  0  0  0  0  0  0  0  0  0  0  0
   46.6616   32.9508   42.0217 H   0  0  0  0  0  0  0  0  0  0  0  0
   44.0433   36.2609   44.7330 H   0  0  0  0  0  0  0  0  0  0  0  0
   45.4919   35.6534   42.7759 H   0  0  0  0  0  0  0  0  0  0  0  0
   43.8151   32.3531   48.1153 H   0  0  0  0  0  0  0  0  0  0  0  0
   50.0796   32.6643   49.0258 H   0  0  0  0  0  0  0  0  0  0  0  0
   48.9085   32.1379   50.3223 H   0  0  0  0  0  0  0  0  0  0  0  0
   51.6042   31.2147   49.6692 H   0  0  0  0  0  0  0  0  0  0  0  0
   50.6174   31.2628   51.2391 H   0  0  0  0  0  0  0  0  0  0  0  0
   51.4688   29.0703   50.0519 H   0  0  0  0  0  0  0  0  0  0  0  0
   49.9214   29.3035   51.0763 H   0  0  0  0  0  0  0  0  0  0  0  0
   50.2057   28.1068   48.6489 H   0  0  0  0  0  0  0  0  0  0  0  0
   48.7077   28.6383   49.6194 H   0  0  0  0  0  0  0  0  0  0  0  0
   48.2897   29.3879   47.4888 H   0  0  0  0  0  0  0  0  0  0  0  0
   49.9580   29.9387   47.2202 H   0  0  0  0  0  0  0  0  0  0  0  0
   46.9144   35.6425   41.8721 H   0  0  0  0  0  0  0  0  0  0  0  0
   48.6080   35.0839   41.7600 H   0  0  0  0  0  0  0  0  0  0  0  0
   49.2029   34.7990   39.5222 H   0  0  0  0  0  0  0  0  0  0  0  0
   48.8809   34.0242   37.2181 H   0  0  0  0  0  0  0  0  0  0  0  0
   43.4658   34.2011   39.3279 H   0  0  0  0  0  0  0  0  0  0  0  0
   41.3110   33.1953   38.6864 H   0  0  0  0  0  0  0  0  0  0  0  0
   43.3334   30.1854   36.5751 H   0  0  0  0  0  0  0  0  0  0  0  0
  1  4  1  0
  2  7  2  0
  3  4  2  0
  3  2  1  0
  4  5  1  0
  5  6  2  0
  6  8  1  0
  7  6  1  0
  8 12  1  0
  8  9  2  0
  9 10  1  0
 11 13  1  0
 11 10  1  0
 12 11  2  0
 13 14  1  0
 14 15  1  0
 16 15  1  0
 17 16  1  0
 18 13  1  0
 18 17  1  0
 19  1  1  0
 20 19  1  0
 21 20  2  0
 22 21  1  0
 23 22  2  0
 23 24  1  0
 24 25  2  0
 25 20  1  0
 26 24  1  0
 26 27  2  0
 28 27  1  0
 29 28  2  0
 30 31  2  0
 30 29  1  0
 31 26  1  0
  1 32  1  0
  1 33  1  0
  2 34  1  0
  3 35  1  0
  9 36  1  0
 14 37  1  0
 14 38  1  0
 15 39  1  0
 15 40  1  0
 16 41  1  0
 16 42  1  0
 17 43  1  0
 17 44  1  0
 18 45  1  0
 18 46  1  0
 19 47  1  0
 19 48  1  0
 21 49  1  0
 22 50  1  0
 27 51  1  0
 28 52  1  0
 30 53  1  0
M  ISO  8  32   8  33   8  34  14  35  14  36  14  37  13  38  13  39  13
M  ISO  8  40  13  41  13  42  13  43  13  44  13  45  13  46  13  47   8
M  ISO  6  48   8  49  14  50  14  51  14  52  14  53  14
M  END
>  <minimizedAffinity>  (1) 
-6.75749636

>  <minimizedRMSD>  (1) 
0.246578008

$$$$
