
     RDKit          3D

 34 36  0  0  0  0  0  0  0  0999 V2000
   44.4500   36.0270   44.8050 C   0  0  0  0  0  0  0  0  0  0  0  0
   44.6570   35.7440   43.4370 C   0  0  0  0  0  0  0  0  0  0  0  0
   45.2030   34.5030   43.0990 C   0  0  0  0  0  0  0  0  0  0  0  0
   45.5020   33.6390   44.1090 N   0  0  0  0  0  0  0  0  0  0  0  0
   45.2860   33.9510   45.4090 C   0  0  0  0  0  0  0  0  0  0  0  0
   44.7710   35.1230   45.7460 N   0  0  0  0  0  0  0  0  0  0  0  0
   45.6310   32.9800   46.4010 N   0  0  0  0  0  0  0  0  0  0  0  0
   46.3240   31.8440   46.2230 C   0  0  0  0  0  0  0  0  0  0  0  0
   46.4150   31.2340   47.4200 N   0  0  0  0  0  0  0  0  0  0  0  0
   45.7950   31.9610   48.3570 C   0  0  0  0  0  0  0  0  0  0  0  0
   45.3100   33.0500   47.6950 N   0  0  0  0  0  0  0  0  0  0  0  0
   45.4630   34.0900   41.7610 N   0  0  0  0  0  0  0  0  0  0  0  0
   44.7260   33.5260   40.7880 C   0  0  0  0  0  0  0  0  0  0  0  0
   45.4760   33.3340   39.6840 N   0  0  0  0  0  0  0  0  0  0  0  0
   46.7030   33.8000   40.0100 C   0  0  0  0  0  0  0  0  0  0  0  0
   46.6970   34.2660   41.2890 N   0  0  0  0  0  0  0  0  0  0  0  0
   47.8510   33.7780   39.0630 C   0  0  0  0  0  0  0  0  0  0  0  0
   47.4310   33.7200   37.6310 C   0  0  0  0  0  0  0  0  0  0  0  0
   48.7740   32.6020   39.3380 C   0  0  0  0  0  0  0  0  0  0  0  0
   48.7030   35.0210   39.2310 C   0  0  0  0  0  0  0  0  0  0  0  0
   44.0223   36.9957   45.1028 H   0  0  0  0  0  0  0  0  0  0  0  0
   44.3962   36.4785   42.6608 H   0  0  0  0  0  0  0  0  0  0  0  0
   46.7412   31.4784   45.2731 H   0  0  0  0  0  0  0  0  0  0  0  0
   45.6978   31.7303   49.4281 H   0  0  0  0  0  0  0  0  0  0  0  0
   43.6628   33.2593   40.8796 H   0  0  0  0  0  0  0  0  0  0  0  0
   46.3428   33.5697   37.5739 H   0  0  0  0  0  0  0  0  0  0  0  0
   47.6976   34.6635   37.1322 H   0  0  0  0  0  0  0  0  0  0  0  0
   47.9433   32.8841   37.1322 H   0  0  0  0  0  0  0  0  0  0  0  0
   48.8808   32.4659   40.4243 H   0  0  0  0  0  0  0  0  0  0  0  0
   48.3480   31.6900   38.8943 H   0  0  0  0  0  0  0  0  0  0  0  0
   49.7611   32.7990   38.8943 H   0  0  0  0  0  0  0  0  0  0  0  0
   48.8441   35.2268   40.3023 H   0  0  0  0  0  0  0  0  0  0  0  0
   49.6823   34.8612   38.7563 H   0  0  0  0  0  0  0  0  0  0  0  0
   48.2007   35.8768   38.7563 H   0  0  0  0  0  0  0  0  0  0  0  0
  1  6  2  0
  2  1  1  0
  3  2  2  0
  3  4  1  0
  4  5  2  0
  5  6  1  0
  5  7  1  0
  7 11  1  0
  8  7  1  0
  8  9  2  0
  9 10  1  0
 11 10  2  0
 12  3  1  0
 13 12  1  0
 14 15  1  0
 14 13  2  0
 15 16  2  0
 16 12  1  0
 17 20  1  0
 17 19  1  0
 17 15  1  0
 18 17  1  0
  1 21  1  0
  2 22  1  0
  8 23  1  0
 10 24  1  0
 13 25  1  0
 18 26  1  0
 18 27  1  0
 18 28  1  0
 19 29  1  0
 19 30  1  0
 19 31  1  0
 20 32  1  0
 20 33  1  0
 20 34  1  0
M  ISO  8  21  14  22  14  23  14  24  14  25  14  26   8  27   8  28   8
M  ISO  6  29   8  30   8  31   8  32   8  33   8  34   8
M  END
>  <minimizedAffinity>  (1) 
-5.16823292

>  <minimizedRMSD>  (1) 
1.66322696

$$$$
