
     RDKit          3D

 37 41  0  0  0  0  0  0  0  0999 V2000
   45.9190   34.1910   41.8440 N   0  0  0  0  0  0  0  0  0  0  0  0
   45.4000   33.4370   40.8710 C   0  0  0  0  0  0  0  0  0  0  0  0
   46.2370   33.4410   39.8120 N   0  0  0  0  0  0  0  0  0  0  0  0
   47.2780   34.2150   40.1640 C   0  0  0  0  0  0  0  0  0  0  0  0
   47.1030   34.7040   41.4480 N   0  0  0  0  0  0  0  0  0  0  0  0
   44.4680   35.9990   44.7950 C   0  0  0  0  0  0  0  0  0  0  0  0
   44.8380   35.7570   43.4500 C   0  0  0  0  0  0  0  0  0  0  0  0
   45.4970   34.5490   43.1620 C   0  0  0  0  0  0  0  0  0  0  0  0
   45.7370   33.6910   44.1860 N   0  0  0  0  0  0  0  0  0  0  0  0
   45.3580   33.9770   45.4600 C   0  0  0  0  0  0  0  0  0  0  0  0
   44.7430   35.0960   45.7530 N   0  0  0  0  0  0  0  0  0  0  0  0
   45.6500   33.0060   46.4760 N   0  0  0  0  0  0  0  0  0  0  0  0
   46.3660   31.8740   46.3440 C   0  0  0  0  0  0  0  0  0  0  0  0
   46.3880   31.2670   47.5340 N   0  0  0  0  0  0  0  0  0  0  0  0
   45.7020   31.9800   48.4320 C   0  0  0  0  0  0  0  0  0  0  0  0
   45.2560   33.0570   47.7410 N   0  0  0  0  0  0  0  0  0  0  0  0
   48.4150   34.5390   39.4190 O   0  0  0  0  0  0  0  0  0  0  0  0
   48.4260   33.9620   38.1370 C   0  0  0  0  0  0  0  0  0  0  0  0
   47.8660   34.3760   36.9350 C   0  0  0  0  0  0  0  0  0  0  0  0
   48.1630   33.4670   35.9850 N   0  0  0  0  0  0  0  0  0  0  0  0
   48.9040   32.4570   36.5090 C   0  0  0  0  0  0  0  0  0  0  0  0
   49.4210   31.3300   35.9010 C   0  0  0  0  0  0  0  0  0  0  0  0
   50.1580   30.4390   36.6860 C   0  0  0  0  0  0  0  0  0  0  0  0
   50.3480   30.7050   38.0250 C   0  0  0  0  0  0  0  0  0  0  0  0
   49.7990   31.8540   38.5610 C   0  0  0  0  0  0  0  0  0  0  0  0
   49.0670   32.7650   37.8440 C   0  0  0  0  0  0  0  0  0  0  0  0
   44.4424   32.8983   40.9243 H   0  0  0  0  0  0  0  0  0  0  0  0
   43.9512   36.9335   45.0587 H   0  0  0  0  0  0  0  0  0  0  0  0
   44.6176   36.4883   42.6584 H   0  0  0  0  0  0  0  0  0  0  0  0
   46.8465   31.5136   45.4225 H   0  0  0  0  0  0  0  0  0  0  0  0
   45.5364   31.7454   49.4939 H   0  0  0  0  0  0  0  0  0  0  0  0
   47.2779   35.2932   36.7836 H   0  0  0  0  0  0  0  0  0  0  0  0
   47.8691   33.5298   34.9998 H   0  0  0  0  0  0  0  0  0  0  0  0
   49.2575   31.1391   34.8301 H   0  0  0  0  0  0  0  0  0  0  0  0
   50.5844   29.5297   36.2373 H   0  0  0  0  0  0  0  0  0  0  0  0
   50.9267   30.0144   38.6560 H   0  0  0  0  0  0  0  0  0  0  0  0
   49.9594   32.0504   39.6314 H   0  0  0  0  0  0  0  0  0  0  0  0
  1  8  1  0
  2  1  1  0
  3  4  1  0
  3  2  2  0
  4  5  2  0
  5  1  1  0
  6 11  2  0
  7  6  1  0
  8  7  2  0
  8  9  1  0
  9 10  2  0
 10 11  1  0
 10 12  1  0
 12 16  1  0
 13 12  1  0
 13 14  2  0
 14 15  1  0
 16 15  2  0
 17  4  1  0
 18 17  1  0
 19 18  2  0
 20 21  1  0
 20 19  1  0
 21 26  2  0
 22 21  1  0
 22 23  2  0
 23 24  1  0
 24 25  2  0
 26 18  1  0
 26 25  1  0
  2 27  1  0
  6 28  1  0
  7 29  1  0
 13 30  1  0
 15 31  1  0
 19 32  1  0
 20 33  1  0
 22 34  1  0
 23 35  1  0
 24 36  1  0
 25 37  1  0
M  ISO  8  27  14  28  14  29  14  30  14  31  14  32  14  33   9  34  14
M  ISO  3  35  14  36  14  37  14
M  END
>  <minimizedAffinity>  (1) 
-6.28085279

>  <minimizedRMSD>  (1) 
1.51353717

$$$$
