
     RDKit          3D

 33 36  0  0  0  0  0  0  0  0999 V2000
   47.4400   34.0340   42.4290 N   0  0  0  0  0  0  0  0  0  0  0  0
   48.4750   33.2100   42.2370 C   0  0  0  0  0  0  0  0  0  0  0  0
   48.9610   33.3890   40.9900 N   0  0  0  0  0  0  0  0  0  0  0  0
   48.2070   34.3270   40.4390 C   0  0  0  0  0  0  0  0  0  0  0  0
   47.2290   34.7660   41.3150 N   0  0  0  0  0  0  0  0  0  0  0  0
   44.7270   35.4680   44.5850 C   0  0  0  0  0  0  0  0  0  0  0  0
   45.5460   35.3050   43.4560 C   0  0  0  0  0  0  0  0  0  0  0  0
   46.5460   34.2940   43.5140 C   0  0  0  0  0  0  0  0  0  0  0  0
   46.6570   33.5490   44.6400 N   0  0  0  0  0  0  0  0  0  0  0  0
   45.8340   33.7540   45.7030 C   0  0  0  0  0  0  0  0  0  0  0  0
   44.8920   34.6930   45.6690 N   0  0  0  0  0  0  0  0  0  0  0  0
   45.9870   32.9520   46.8570 N   0  0  0  0  0  0  0  0  0  0  0  0
   47.0010   32.1030   47.1020 C   0  0  0  0  0  0  0  0  0  0  0  0
   46.8010   31.5270   48.2920 N   0  0  0  0  0  0  0  0  0  0  0  0
   45.6700   31.9890   48.8240 C   0  0  0  0  0  0  0  0  0  0  0  0
   45.1760   32.8800   47.9100 N   0  0  0  0  0  0  0  0  0  0  0  0
   48.2990   34.8830   39.1350 O   0  0  0  0  0  0  0  0  0  0  0  0
   48.0060   34.0090   38.0960 C   0  0  0  0  0  0  0  0  0  0  0  0
   48.8930   33.8090   37.0510 C   0  0  0  0  0  0  0  0  0  0  0  0
   48.5140   32.9210   36.0640 C   0  0  0  0  0  0  0  0  0  0  0  0
   47.2950   32.2630   36.1280 C   0  0  0  0  0  0  0  0  0  0  0  0
   46.4120   32.4690   37.1790 C   0  0  0  0  0  0  0  0  0  0  0  0
   46.7900   33.3620   38.1720 C   0  0  0  0  0  0  0  0  0  0  0  0
   48.8686   32.4985   42.9779 H   0  0  0  0  0  0  0  0  0  0  0  0
   43.9421   36.2386   44.5813 H   0  0  0  0  0  0  0  0  0  0  0  0
   45.4197   35.9338   42.5623 H   0  0  0  0  0  0  0  0  0  0  0  0
   47.8540   31.9138   46.4337 H   0  0  0  0  0  0  0  0  0  0  0  0
   45.2273   31.7129   49.7924 H   0  0  0  0  0  0  0  0  0  0  0  0
   49.8581   34.3352   37.0093 H   0  0  0  0  0  0  0  0  0  0  0  0
   49.1882   32.7329   35.2154 H   0  0  0  0  0  0  0  0  0  0  0  0
   47.0212   31.5609   35.3266 H   0  0  0  0  0  0  0  0  0  0  0  0
   45.4469   31.9431   37.2233 H   0  0  0  0  0  0  0  0  0  0  0  0
   46.1183   33.5543   39.0216 H   0  0  0  0  0  0  0  0  0  0  0  0
  1  8  1  0
  2  1  1  0
  3  2  2  0
  4  3  1  0
  4  5  2  0
  5  1  1  0
  6 11  2  0
  7  8  2  0
  7  6  1  0
  8  9  1  0
  9 10  2  0
 10 12  1  0
 11 10  1  0
 12 13  1  0
 12 16  1  0
 13 14  2  0
 14 15  1  0
 16 15  2  0
 17  4  1  0
 18 23  1  0
 18 17  1  0
 19 18  2  0
 20 21  2  0
 20 19  1  0
 21 22  1  0
 22 23  2  0
  2 24  1  0
  6 25  1  0
  7 26  1  0
 13 27  1  0
 15 28  1  0
 19 29  1  0
 20 30  1  0
 21 31  1  0
 22 32  1  0
 23 33  1  0
M  ISO  8  24  14  25  14  26  14  27  14  28  14  29  14  30  14  31  14
M  ISO  2  32  14  33  14
M  END
>  <minimizedAffinity>  (1) 
-6.17409134

>  <minimizedRMSD>  (1) 
1.70933318

$$$$
