
     RDKit          3D

 50 54  0  0  0  0  0  0  0  0999 V2000
   47.3820   33.7760   42.8450 C   0  0  0  0  0  0  0  0  0  0  0  0
   44.7150   35.3890   44.9370 C   0  0  0  0  0  0  0  0  0  0  0  0
   45.5990   35.0870   43.8800 C   0  0  0  0  0  0  0  0  0  0  0  0
   46.4820   34.0600   43.9530 C   0  0  0  0  0  0  0  0  0  0  0  0
   46.4920   33.3240   45.0810 N   0  0  0  0  0  0  0  0  0  0  0  0
   45.6230   33.6280   46.1070 C   0  0  0  0  0  0  0  0  0  0  0  0
   44.7740   34.6190   46.0350 N   0  0  0  0  0  0  0  0  0  0  0  0
   45.8190   32.6830   47.2510 C   0  0  0  0  0  0  0  0  0  0  0  0
   44.7960   32.0930   48.1090 C   0  0  0  0  0  0  0  0  0  0  0  0
   45.8570   31.1160   49.1960 S   0  0  0  0  0  0  0  0  0  0  0  0
   47.4730   31.6570   48.3260 C   0  0  0  0  0  0  0  0  0  0  0  0
   47.1020   32.4750   47.3540 N   0  0  0  0  0  0  0  0  0  0  0  0
   48.7740   31.1780   48.7660 N   0  0  0  0  0  0  0  0  0  0  0  0
   49.7950   31.8960   49.5120 C   0  0  0  0  0  0  0  0  0  0  0  0
   50.1530   30.8340   50.5330 C   0  0  0  0  0  0  0  0  0  0  0  0
   50.0070   29.5310   49.7770 C   0  0  0  0  0  0  0  0  0  0  0  0
   49.2540   29.8390   48.4980 C   0  0  0  0  0  0  0  0  0  0  0  0
   47.6000   34.8670   41.8640 C   0  0  0  0  0  0  0  0  0  0  0  0
   47.2930   34.3350   40.5000 C   0  0  0  0  0  0  0  0  0  0  0  0
   48.2330   34.2850   39.4900 C   0  0  0  0  0  0  0  0  0  0  0  0
   48.0610   33.8250   38.2240 C   0  0  0  0  0  0  0  0  0  0  0  0
   46.7990   33.3680   37.9640 N   0  0  0  0  0  0  0  0  0  0  0  0
   45.8450   33.3990   38.9290 C   0  0  0  0  0  0  0  0  0  0  0  0
   46.0430   33.8650   40.1870 N   0  0  0  0  0  0  0  0  0  0  0  0
   44.5270   32.8950   38.5750 C   0  0  0  0  0  0  0  0  0  0  0  0
   43.3810   33.4730   39.1260 C   0  0  0  0  0  0  0  0  0  0  0  0
   42.1420   32.9910   38.7890 C   0  0  0  0  0  0  0  0  0  0  0  0
   42.0070   31.9750   37.9410 N   0  0  0  0  0  0  0  0  0  0  0  0
   43.1300   31.4290   37.4180 C   0  0  0  0  0  0  0  0  0  0  0  0
   44.3880   31.8670   37.7170 N   0  0  0  0  0  0  0  0  0  0  0  0
   48.3609   33.5110   43.2710 H   0  0  0  0  0  0  0  0  0  0  0  0
   46.8935   32.9710   42.2764 H   0  0  0  0  0  0  0  0  0  0  0  0
   44.0035   36.2247   44.8642 H   0  0  0  0  0  0  0  0  0  0  0  0
   45.5714   35.7030   42.9691 H   0  0  0  0  0  0  0  0  0  0  0  0
   43.7022   32.2091   48.0970 H   0  0  0  0  0  0  0  0  0  0  0  0
   50.6542   32.1628   48.8790 H   0  0  0  0  0  0  0  0  0  0  0  0
   49.4756   32.8609   49.9327 H   0  0  0  0  0  0  0  0  0  0  0  0
   51.1858   30.9659   50.8879 H   0  0  0  0  0  0  0  0  0  0  0  0
   49.5149   30.8766   51.4280 H   0  0  0  0  0  0  0  0  0  0  0  0
   50.9991   29.1188   49.5407 H   0  0  0  0  0  0  0  0  0  0  0  0
   49.4658   28.7872   50.3802 H   0  0  0  0  0  0  0  0  0  0  0  0
   48.4218   29.1368   48.3417 H   0  0  0  0  0  0  0  0  0  0  0  0
   49.8624   29.7531   47.5856 H   0  0  0  0  0  0  0  0  0  0  0  0
   46.9344   35.7124   42.0928 H   0  0  0  0  0  0  0  0  0  0  0  0
   48.6415   35.2180   41.9102 H   0  0  0  0  0  0  0  0  0  0  0  0
   49.2362   34.6609   39.7394 H   0  0  0  0  0  0  0  0  0  0  0  0
   48.8658   33.8205   37.4741 H   0  0  0  0  0  0  0  0  0  0  0  0
   43.4721   34.3138   39.8294 H   0  0  0  0  0  0  0  0  0  0  0  0
   41.2448   33.4523   39.2273 H   0  0  0  0  0  0  0  0  0  0  0  0
   43.0233   30.5890   36.7158 H   0  0  0  0  0  0  0  0  0  0  0  0
  1  4  1  0
  2  7  2  0
  3  4  2  0
  3  2  1  0
  4  5  1  0
  5  6  2  0
  6  8  1  0
  7  6  1  0
  8 12  1  0
  8  9  2  0
  9 10  1  0
 11 13  1  0
 11 10  1  0
 12 11  2  0
 13 14  1  0
 14 15  1  0
 16 15  1  0
 17 13  1  0
 17 16  1  0
 18  1  1  0
 19 18  1  0
 20 19  2  0
 21 20  1  0
 22 21  2  0
 22 23  1  0
 23 24  2  0
 24 19  1  0
 25 23  1  0
 25 26  2  0
 27 26  1  0
 28 27  2  0
 29 30  2  0
 29 28  1  0
 30 25  1  0
  1 31  1  0
  1 32  1  0
  2 33  1  0
  3 34  1  0
  9 35  1  0
 14 36  1  0
 14 37  1  0
 15 38  1  0
 15 39  1  0
 16 40  1  0
 16 41  1  0
 17 42  1  0
 17 43  1  0
 18 44  1  0
 18 45  1  0
 20 46  1  0
 21 47  1  0
 26 48  1  0
 27 49  1  0
 29 50  1  0
M  ISO  8  31   8  32   8  33  14  34  14  35  14  36  13  37  13  38  13
M  ISO  8  39  13  40  13  41  13  42  13  43  13  44   8  45   8  46  14
M  ISO  4  47  14  48  14  49  14  50  14
M  END
>  <minimizedAffinity>  (1) 
-6.7418294

>  <minimizedRMSD>  (1) 
0.30957526

$$$$
