
     RDKit          3D

 30 33  0  0  0  0  0  0  0  0999 V2000
   44.7530   35.4880   44.5020 C   0  0  0  0  0  0  0  0  0  0  0  0
   45.5650   35.3200   43.3590 C   0  0  0  0  0  0  0  0  0  0  0  0
   46.5520   34.2950   43.4220 C   0  0  0  0  0  0  0  0  0  0  0  0
   46.6460   33.5650   44.5510 N   0  0  0  0  0  0  0  0  0  0  0  0
   45.8300   33.7800   45.6180 C   0  0  0  0  0  0  0  0  0  0  0  0
   44.9130   34.7180   45.5850 N   0  0  0  0  0  0  0  0  0  0  0  0
   46.0020   32.9580   46.7680 N   0  0  0  0  0  0  0  0  0  0  0  0
   46.9740   32.0690   46.9890 C   0  0  0  0  0  0  0  0  0  0  0  0
   46.7640   31.5120   48.1910 N   0  0  0  0  0  0  0  0  0  0  0  0
   45.6600   32.0360   48.7480 C   0  0  0  0  0  0  0  0  0  0  0  0
   45.2010   32.9370   47.8420 N   0  0  0  0  0  0  0  0  0  0  0  0
   47.4330   34.0240   42.3320 N   0  0  0  0  0  0  0  0  0  0  0  0
   48.4290   33.1560   42.1300 C   0  0  0  0  0  0  0  0  0  0  0  0
   48.9280   33.3310   40.8990 N   0  0  0  0  0  0  0  0  0  0  0  0
   48.2240   34.3140   40.3530 C   0  0  0  0  0  0  0  0  0  0  0  0
   47.2700   34.7770   41.2310 N   0  0  0  0  0  0  0  0  0  0  0  0
   48.3420   34.8940   39.0590 O   0  0  0  0  0  0  0  0  0  0  0  0
   48.0410   34.0570   37.9940 C   0  0  0  0  0  0  0  0  0  0  0  0
   47.0490   33.2470   37.4490 C   0  0  0  0  0  0  0  0  0  0  0  0
   47.5700   32.7190   36.2830 C   0  0  0  0  0  0  0  0  0  0  0  0
   48.8280   33.1880   36.1220 N   0  0  0  0  0  0  0  0  0  0  0  0
   49.1110   33.9900   37.1470 N   0  0  0  0  0  0  0  0  0  0  0  0
   43.9750   36.2656   44.5023 H   0  0  0  0  0  0  0  0  0  0  0  0
   45.4415   35.9490   42.4651 H   0  0  0  0  0  0  0  0  0  0  0  0
   47.8025   31.8345   46.3045 H   0  0  0  0  0  0  0  0  0  0  0  0
   45.2224   31.7887   49.7264 H   0  0  0  0  0  0  0  0  0  0  0  0
   48.7837   32.4138   42.8604 H   0  0  0  0  0  0  0  0  0  0  0  0
   46.0473   33.0632   37.8647 H   0  0  0  0  0  0  0  0  0  0  0  0
   47.0486   32.0321   35.6001 H   0  0  0  0  0  0  0  0  0  0  0  0
   49.4597   32.9633   35.3401 H   0  0  0  0  0  0  0  0  0  0  0  0
  1  6  2  0
  2  3  2  0
  2  1  1  0
  3  4  1  0
  4  5  2  0
  5  7  1  0
  6  5  1  0
  7  8  1  0
  7 11  1  0
  8  9  2  0
  9 10  1  0
 11 10  2  0
 12  3  1  0
 13 12  1  0
 14 13  2  0
 15 14  1  0
 15 16  2  0
 16 12  1  0
 17 15  1  0
 18 17  1  0
 19 18  1  0
 20 19  2  0
 21 20  1  0
 21 22  1  0
 22 18  2  0
  1 23  1  0
  2 24  1  0
  8 25  1  0
 10 26  1  0
 13 27  1  0
 19 28  1  0
 20 29  1  0
 21 30  1  0
M  ISO  8  23  14  24  14  25  14  26  14  27  14  28  14  29  14  30   9
M  END
>  <minimizedAffinity>  (1) 
-6.10837841

>  <minimizedRMSD>  (1) 
1.56852806

$$$$
