
     RDKit          3D

 31 34  0  0  0  0  0  0  0  0999 V2000
   44.7690   35.4930   44.4140 C   0  0  0  0  0  0  0  0  0  0  0  0
   45.5910   35.3110   43.2740 C   0  0  0  0  0  0  0  0  0  0  0  0
   46.5750   34.2830   43.3570 C   0  0  0  0  0  0  0  0  0  0  0  0
   46.6620   33.5610   44.4920 N   0  0  0  0  0  0  0  0  0  0  0  0
   45.8380   33.7900   45.5520 C   0  0  0  0  0  0  0  0  0  0  0  0
   44.9210   34.7290   45.5070 N   0  0  0  0  0  0  0  0  0  0  0  0
   45.9950   32.9830   46.7160 N   0  0  0  0  0  0  0  0  0  0  0  0
   46.9660   32.0990   46.9580 C   0  0  0  0  0  0  0  0  0  0  0  0
   46.7460   31.5570   48.1630 N   0  0  0  0  0  0  0  0  0  0  0  0
   45.6310   32.0920   48.7020 C   0  0  0  0  0  0  0  0  0  0  0  0
   45.1880   32.9720   47.7810 N   0  0  0  0  0  0  0  0  0  0  0  0
   47.4620   34.0010   42.2750 N   0  0  0  0  0  0  0  0  0  0  0  0
   48.5500   33.2440   42.1400 C   0  0  0  0  0  0  0  0  0  0  0  0
   49.0090   33.3370   40.8850 N   0  0  0  0  0  0  0  0  0  0  0  0
   48.1810   34.1730   40.2350 C   0  0  0  0  0  0  0  0  0  0  0  0
   47.1920   34.6030   41.1060 N   0  0  0  0  0  0  0  0  0  0  0  0
   48.2040   34.6120   38.9120 O   0  0  0  0  0  0  0  0  0  0  0  0
   47.6980   33.8430   37.8890 C   0  0  0  0  0  0  0  0  0  0  0  0
   46.5020   33.2270   37.5950 C   0  0  0  0  0  0  0  0  0  0  0  0
   46.3390   32.5080   36.4340 C   0  0  0  0  0  0  0  0  0  0  0  0
   47.3740   32.4100   35.5770 N   0  0  0  0  0  0  0  0  0  0  0  0
   48.5580   32.9980   35.8310 C   0  0  0  0  0  0  0  0  0  0  0  0
   48.7050   33.7070   36.9830 N   0  0  0  0  0  0  0  0  0  0  0  0
   43.9937   36.2732   44.4029 H   0  0  0  0  0  0  0  0  0  0  0  0
   45.4757   35.9305   42.3724 H   0  0  0  0  0  0  0  0  0  0  0  0
   47.8016   31.8577   46.2846 H   0  0  0  0  0  0  0  0  0  0  0  0
   45.1815   31.8610   49.6790 H   0  0  0  0  0  0  0  0  0  0  0  0
   49.0022   32.6357   42.9372 H   0  0  0  0  0  0  0  0  0  0  0  0
   45.6626   33.3115   38.3009 H   0  0  0  0  0  0  0  0  0  0  0  0
   45.3789   32.0207   36.2087 H   0  0  0  0  0  0  0  0  0  0  0  0
   49.3921   32.9069   35.1197 H   0  0  0  0  0  0  0  0  0  0  0  0
  1  6  2  0
  2  3  2  0
  2  1  1  0
  3  4  1  0
  4  5  2  0
  5  7  1  0
  6  5  1  0
  7  8  1  0
  7 11  1  0
  8  9  2  0
  9 10  1  0
 11 10  2  0
 12  3  1  0
 13 12  1  0
 14 13  2  0
 15 14  1  0
 15 16  2  0
 16 12  1  0
 17 15  1  0
 18 17  1  0
 19 18  2  0
 20 19  1  0
 21 22  1  0
 21 20  2  0
 22 23  2  0
 23 18  1  0
  1 24  1  0
  2 25  1  0
  8 26  1  0
 10 27  1  0
 13 28  1  0
 19 29  1  0
 20 30  1  0
 22 31  1  0
M  ISO  8  24  14  25  14  26  14  27  14  28  14  29  14  30  14  31  14
M  END
>  <minimizedAffinity>  (1) 
-6.18543196

>  <minimizedRMSD>  (1) 
2.17895365

$$$$
