
     RDKit          3D

 32 34  0  0  0  0  0  0  0  0999 V2000
   44.6650   35.3410   44.8430 C   0  0  0  0  0  0  0  0  0  0  0  0
   45.5160   35.2340   43.7340 C   0  0  0  0  0  0  0  0  0  0  0  0
   46.5460   34.2670   43.7850 C   0  0  0  0  0  0  0  0  0  0  0  0
   46.6520   33.5050   44.8930 N   0  0  0  0  0  0  0  0  0  0  0  0
   45.7970   33.6480   45.9470 C   0  0  0  0  0  0  0  0  0  0  0  0
   44.8340   34.5470   45.9100 N   0  0  0  0  0  0  0  0  0  0  0  0
   45.9790   32.8030   47.0800 N   0  0  0  0  0  0  0  0  0  0  0  0
   46.9900   31.9530   47.3080 C   0  0  0  0  0  0  0  0  0  0  0  0
   46.7740   31.3560   48.4900 N   0  0  0  0  0  0  0  0  0  0  0  0
   45.6260   31.8160   49.0230 C   0  0  0  0  0  0  0  0  0  0  0  0
   45.1450   32.7190   48.1290 N   0  0  0  0  0  0  0  0  0  0  0  0
   47.4780   34.0610   42.7200 N   0  0  0  0  0  0  0  0  0  0  0  0
   48.6280   33.4170   42.5840 C   0  0  0  0  0  0  0  0  0  0  0  0
   49.0860   33.5580   41.3290 N   0  0  0  0  0  0  0  0  0  0  0  0
   48.1850   34.3060   40.6930 C   0  0  0  0  0  0  0  0  0  0  0  0
   47.1510   34.6460   41.5410 N   0  0  0  0  0  0  0  0  0  0  0  0
   48.1910   34.7460   39.3470 O   0  0  0  0  0  0  0  0  0  0  0  0
   48.1220   33.7390   38.3570 C   0  0  0  0  0  0  0  0  0  0  0  0
   48.4690   34.3530   37.0270 C   0  0  0  0  0  0  0  0  0  0  0  0
   46.7160   33.1710   38.3660 C   0  0  0  0  0  0  0  0  0  0  0  0
   43.8523   36.0822   44.8377 H   0  0  0  0  0  0  0  0  0  0  0  0
   45.3866   35.8808   42.8537 H   0  0  0  0  0  0  0  0  0  0  0  0
   47.8474   31.7758   46.6421 H   0  0  0  0  0  0  0  0  0  0  0  0
   45.1727   31.5222   49.9813 H   0  0  0  0  0  0  0  0  0  0  0  0
   49.1328   32.8508   43.3806 H   0  0  0  0  0  0  0  0  0  0  0  0
   48.8322   32.9218   38.5514 H   0  0  0  0  0  0  0  0  0  0  0  0
   49.0043   35.3002   37.1889 H   0  0  0  0  0  0  0  0  0  0  0  0
   49.1100   33.6618   36.4601 H   0  0  0  0  0  0  0  0  0  0  0  0
   47.5462   34.5456   36.4601 H   0  0  0  0  0  0  0  0  0  0  0  0
   46.3817   33.0360   39.4052 H   0  0  0  0  0  0  0  0  0  0  0  0
   46.0368   33.8653   37.8496 H   0  0  0  0  0  0  0  0  0  0  0  0
   46.7096   32.1997   37.8496 H   0  0  0  0  0  0  0  0  0  0  0  0
  1  6  2  0
  2  3  2  0
  2  1  1  0
  3  4  1  0
  4  5  2  0
  5  7  1  0
  6  5  1  0
  7  8  1  0
  7 11  1  0
  8  9  2  0
  9 10  1  0
 11 10  2  0
 12  3  1  0
 13 12  1  0
 14 13  2  0
 15 14  1  0
 15 16  2  0
 16 12  1  0
 17 15  1  0
 18 20  1  0
 18 17  1  0
 19 18  1  0
  1 21  1  0
  2 22  1  0
  8 23  1  0
 10 24  1  0
 13 25  1  0
 18 26  1  0
 19 27  1  0
 19 28  1  0
 19 29  1  0
 20 30  1  0
 20 31  1  0
 20 32  1  0
M  ISO  8  21  14  22  14  23  14  24  14  25  14  26   8  27   8  28   8
M  ISO  4  29   8  30   8  31   8  32   8
M  END
>  <minimizedAffinity>  (1) 
-5.59383488

>  <minimizedRMSD>  (1) 
1.31793511

$$$$
