
     RDKit          3D

 31 32  0  0  0  0  0  0  0  0999 V2000
   44.5950   34.3990   42.2280 C   0  0  0  0  0  0  0  0  0  0  0  0
   43.6200   33.3310   41.9560 C   0  0  0  0  0  0  0  0  0  0  0  0
   42.5700   33.9000   41.0190 C   0  0  0  0  0  0  0  0  0  0  0  0
   42.9880   35.3130   40.6890 C   0  0  0  0  0  0  0  0  0  0  0  0
   43.8960   35.6950   41.8390 C   0  0  0  0  0  0  0  0  0  0  0  0
   45.8570   34.3800   41.4590 C   0  0  0  0  0  0  0  0  0  0  0  0
   45.9210   33.6600   40.2710 C   0  0  0  0  0  0  0  0  0  0  0  0
   47.1030   33.6460   39.5530 C   0  0  0  0  0  0  0  0  0  0  0  0
   48.1600   34.3430   40.0420 N   0  0  0  0  0  0  0  0  0  0  0  0
   48.0830   35.0390   41.2000 C   0  0  0  0  0  0  0  0  0  0  0  0
   46.9370   35.0390   41.8750 N   0  0  0  0  0  0  0  0  0  0  0  0
   49.2330   35.7830   41.7080 C   0  0  0  0  0  0  0  0  0  0  0  0
   50.0040   35.3330   42.5980 O   0  0  0  0  0  0  0  0  0  0  0  0
   44.9790   34.5040   43.6690 C   0  0  0  0  0  0  0  0  0  0  0  0
   44.5270   35.6930   44.4080 C   0  0  0  0  0  0  0  0  0  0  0  0
   44.1227   32.4753   41.4815 H   0  0  0  0  0  0  0  0  0  0  0  0
   43.1569   32.9817   42.8907 H   0  0  0  0  0  0  0  0  0  0  0  0
   42.5181   33.2976   40.1001 H   0  0  0  0  0  0  0  0  0  0  0  0
   41.5761   33.8857   41.4900 H   0  0  0  0  0  0  0  0  0  0  0  0
   43.5299   35.3487   39.7324 H   0  0  0  0  0  0  0  0  0  0  0  0
   42.1329   35.9956   40.5754 H   0  0  0  0  0  0  0  0  0  0  0  0
   44.6292   36.4503   41.5197 H   0  0  0  0  0  0  0  0  0  0  0  0
   43.3396   36.1358   42.6793 H   0  0  0  0  0  0  0  0  0  0  0  0
   45.0420   33.1082   39.9067 H   0  0  0  0  0  0  0  0  0  0  0  0
   47.1843   33.0848   38.6105 H   0  0  0  0  0  0  0  0  0  0  0  0
   49.4355   36.7821   41.2948 H   0  0  0  0  0  0  0  0  0  0  0  0
   44.5712   33.6215   44.1837 H   0  0  0  0  0  0  0  0  0  0  0  0
   46.0764   34.5794   43.6615 H   0  0  0  0  0  0  0  0  0  0  0  0
   44.5995   35.5024   45.4889 H   0  0  0  0  0  0  0  0  0  0  0  0
   45.1613   36.5520   44.1438 H   0  0  0  0  0  0  0  0  0  0  0  0
   43.4822   35.9137   44.1438 H   0  0  0  0  0  0  0  0  0  0  0  0
  1 14  1  0
  2  1  1  0
  3  2  1  0
  4  3  1  0
  4  5  1  0
  5  1  1  0
  6 11  1  0
  6  1  1  0
  7  6  2  0
  8  9  2  0
  8  7  1  0
  9 10  1  0
 10 12  1  0
 10 11  2  0
 12 13  2  0
 14 15  1  0
  2 16  1  0
  2 17  1  0
  3 18  1  0
  3 19  1  0
  4 20  1  0
  4 21  1  0
  5 22  1  0
  5 23  1  0
  7 24  1  0
  8 25  1  0
 12 26  1  0
 14 27  1  0
 14 28  1  0
 15 29  1  0
 15 30  1  0
 15 31  1  0
M  ISO  8  16  13  17  13  18  13  19  13  20  13  21  13  22  13  23  13
M  ISO  8  24  14  25  14  26   6  27   8  28   8  29   8  30   8  31   8
M  END
>  <minimizedAffinity>  (1) 
-4.44551611

>  <minimizedRMSD>  (1) 
0.960249543

$$$$
