
     RDKit          3D

 32 33  0  0  0  0  0  0  0  0999 V2000
   44.8850   34.3670   42.4820 C   0  0  0  0  0  0  0  0  0  0  0  0
   43.8240   33.4150   42.0710 C   0  0  0  0  0  0  0  0  0  0  0  0
   42.7640   34.1990   41.3370 C   0  0  0  0  0  0  0  0  0  0  0  0
   43.2490   35.6120   41.2470 C   0  0  0  0  0  0  0  0  0  0  0  0
   44.2480   35.7360   42.3870 C   0  0  0  0  0  0  0  0  0  0  0  0
   46.0920   34.4150   41.6140 C   0  0  0  0  0  0  0  0  0  0  0  0
   46.1310   33.6870   40.4350 C   0  0  0  0  0  0  0  0  0  0  0  0
   47.2740   33.7460   39.6460 C   0  0  0  0  0  0  0  0  0  0  0  0
   48.3110   34.5210   40.0680 N   0  0  0  0  0  0  0  0  0  0  0  0
   48.2460   35.2150   41.2150 C   0  0  0  0  0  0  0  0  0  0  0  0
   47.1490   35.1570   41.9700 N   0  0  0  0  0  0  0  0  0  0  0  0
   49.3500   36.0770   41.7230 C   0  0  0  0  0  0  0  0  0  0  0  0
   45.3660   34.1570   43.8710 C   0  0  0  0  0  0  0  0  0  0  0  0
   44.8690   35.0920   44.8910 C   0  0  0  0  0  0  0  0  0  0  0  0
   44.2471   32.6455   41.4085 H   0  0  0  0  0  0  0  0  0  0  0  0
   43.3933   32.9145   42.9508 H   0  0  0  0  0  0  0  0  0  0  0  0
   42.6180   33.7847   40.3285 H   0  0  0  0  0  0  0  0  0  0  0  0
   41.8007   34.1474   41.8656 H   0  0  0  0  0  0  0  0  0  0  0  0
   43.7371   35.7961   40.2786 H   0  0  0  0  0  0  0  0  0  0  0  0
   42.4313   36.3440   41.3214 H   0  0  0  0  0  0  0  0  0  0  0  0
   45.0042   36.5019   42.1599 H   0  0  0  0  0  0  0  0  0  0  0  0
   43.7713   36.0422   43.3299 H   0  0  0  0  0  0  0  0  0  0  0  0
   45.2715   33.0726   40.1287 H   0  0  0  0  0  0  0  0  0  0  0  0
   47.3391   33.1809   38.7045 H   0  0  0  0  0  0  0  0  0  0  0  0
   49.3430   36.0715   42.8230 H   0  0  0  0  0  0  0  0  0  0  0  0
   50.3138   35.6900   41.3605 H   0  0  0  0  0  0  0  0  0  0  0  0
   49.2083   37.1059   41.3605 H   0  0  0  0  0  0  0  0  0  0  0  0
   45.0699   33.1426   44.1764 H   0  0  0  0  0  0  0  0  0  0  0  0
   46.4521   34.3259   43.8291 H   0  0  0  0  0  0  0  0  0  0  0  0
   45.0828   34.6899   45.8923 H   0  0  0  0  0  0  0  0  0  0  0  0
   45.3693   36.0644   44.7719 H   0  0  0  0  0  0  0  0  0  0  0  0
   43.7831   35.2213   44.7719 H   0  0  0  0  0  0  0  0  0  0  0  0
  1 13  1  0
  2  1  1  0
  3  2  1  0
  4  3  1  0
  4  5  1  0
  5  1  1  0
  6 11  1  0
  6  1  1  0
  7  6  2  0
  8  9  2  0
  8  7  1  0
  9 10  1  0
 10 12  1  0
 10 11  2  0
 13 14  1  0
  2 15  1  0
  2 16  1  0
  3 17  1  0
  3 18  1  0
  4 19  1  0
  4 20  1  0
  5 21  1  0
  5 22  1  0
  7 23  1  0
  8 24  1  0
 12 25  1  0
 12 26  1  0
 12 27  1  0
 13 28  1  0
 13 29  1  0
 14 30  1  0
 14 31  1  0
 14 32  1  0
M  ISO  8  15  13  16  13  17  13  18  13  19  13  20  13  21  13  22  13
M  ISO  8  23  14  24  14  25   8  26   8  27   8  28   8  29   8  30   8
M  ISO  2  31   8  32   8
M  END
>  <minimizedAffinity>  (1) 
-4.490376

>  <minimizedRMSD>  (1) 
0.561080694

$$$$
