
     RDKit          3D

 31 32  0  0  0  0  0  0  0  0999 V2000
   45.1320   34.4350   42.6150 C   0  0  0  0  0  0  0  0  0  0  0  0
   44.0980   33.4680   42.2030 C   0  0  0  0  0  0  0  0  0  0  0  0
   43.0130   34.2400   41.4640 C   0  0  0  0  0  0  0  0  0  0  0  0
   43.4610   35.6760   41.3980 C   0  0  0  0  0  0  0  0  0  0  0  0
   44.4480   35.7870   42.5270 C   0  0  0  0  0  0  0  0  0  0  0  0
   46.3350   34.5290   41.7520 C   0  0  0  0  0  0  0  0  0  0  0  0
   46.3600   33.8780   40.5260 C   0  0  0  0  0  0  0  0  0  0  0  0
   47.4890   33.9680   39.7320 C   0  0  0  0  0  0  0  0  0  0  0  0
   48.5470   34.7070   40.2020 N   0  0  0  0  0  0  0  0  0  0  0  0
   48.4900   35.3200   41.3840 C   0  0  0  0  0  0  0  0  0  0  0  0
   47.4080   35.2300   42.1370 N   0  0  0  0  0  0  0  0  0  0  0  0
   49.6350   36.0640   41.7880 N   0  0  0  0  0  0  0  0  0  0  0  0
   45.6190   34.2460   44.0060 C   0  0  0  0  0  0  0  0  0  0  0  0
   44.9140   34.9750   45.0700 C   0  0  0  0  0  0  0  0  0  0  0  0
   44.5374   32.7096   41.5384 H   0  0  0  0  0  0  0  0  0  0  0  0
   43.6773   32.9553   43.0806 H   0  0  0  0  0  0  0  0  0  0  0  0
   42.8875   33.8365   40.4484 H   0  0  0  0  0  0  0  0  0  0  0  0
   42.0472   34.1538   41.9834 H   0  0  0  0  0  0  0  0  0  0  0  0
   43.9413   35.8942   40.4328 H   0  0  0  0  0  0  0  0  0  0  0  0
   42.6282   36.3894   41.4847 H   0  0  0  0  0  0  0  0  0  0  0  0
   45.1849   36.5757   42.3150 H   0  0  0  0  0  0  0  0  0  0  0  0
   43.9523   36.0515   43.4727 H   0  0  0  0  0  0  0  0  0  0  0  0
   45.4897   33.2958   40.1891 H   0  0  0  0  0  0  0  0  0  0  0  0
   47.5379   33.4639   38.7555 H   0  0  0  0  0  0  0  0  0  0  0  0
   49.6371   36.5547   42.6936 H   0  0  0  0  0  0  0  0  0  0  0  0
   50.4611   36.1115   41.1746 H   0  0  0  0  0  0  0  0  0  0  0  0
   45.5493   33.1730   44.2380 H   0  0  0  0  0  0  0  0  0  0  0  0
   46.6387   34.6586   44.0076 H   0  0  0  0  0  0  0  0  0  0  0  0
   45.2600   34.6172   46.0509 H   0  0  0  0  0  0  0  0  0  0  0  0
   45.1228   36.0510   44.9777 H   0  0  0  0  0  0  0  0  0  0  0  0
   43.8316   34.8023   44.9777 H   0  0  0  0  0  0  0  0  0  0  0  0
  1 13  1  0
  2  1  1  0
  3  2  1  0
  4  3  1  0
  4  5  1  0
  5  1  1  0
  6 11  1  0
  6  1  1  0
  7  6  2  0
  8  9  2  0
  8  7  1  0
  9 10  1  0
 10 12  1  0
 10 11  2  0
 13 14  1  0
  2 15  1  0
  2 16  1  0
  3 17  1  0
  3 18  1  0
  4 19  1  0
  4 20  1  0
  5 21  1  0
  5 22  1  0
  7 23  1  0
  8 24  1  0
 12 25  1  0
 12 26  1  0
 13 27  1  0
 13 28  1  0
 14 29  1  0
 14 30  1  0
 14 31  1  0
M  ISO  8  15  13  16  13  17  13  18  13  19  13  20  13  21  13  22  13
M  ISO  7  23  14  24  14  27   8  28   8  29   8  30   8  31   8
M  END
>  <minimizedAffinity>  (1) 
-4.39398718

>  <minimizedRMSD>  (1) 
0.293020755

$$$$
