
     RDKit          3D

 30 31  0  0  0  0  0  0  0  0999 V2000
   44.6980   34.0750   42.3680 C   0  0  0  0  0  0  0  0  0  0  0  0
   43.5730   33.2520   41.8530 C   0  0  0  0  0  0  0  0  0  0  0  0
   42.5480   34.1880   41.2570 C   0  0  0  0  0  0  0  0  0  0  0  0
   43.1240   35.5830   41.3510 C   0  0  0  0  0  0  0  0  0  0  0  0
   44.1330   35.4720   42.4720 C   0  0  0  0  0  0  0  0  0  0  0  0
   45.8890   34.1700   41.4970 C   0  0  0  0  0  0  0  0  0  0  0  0
   45.9250   33.4870   40.2900 C   0  0  0  0  0  0  0  0  0  0  0  0
   47.0490   33.5780   39.4900 C   0  0  0  0  0  0  0  0  0  0  0  0
   48.0910   34.3540   39.9350 N   0  0  0  0  0  0  0  0  0  0  0  0
   48.0260   34.9980   41.0990 C   0  0  0  0  0  0  0  0  0  0  0  0
   46.9420   34.9040   41.8610 N   0  0  0  0  0  0  0  0  0  0  0  0
   49.3620   36.0230   41.7190 S   0  0  0  0  0  0  0  0  0  0  0  0
   45.1690   33.6500   43.7080 C   0  0  0  0  0  0  0  0  0  0  0  0
   45.0620   34.6200   44.8030 C   0  0  0  0  0  0  0  0  0  0  0  0
   43.9395   32.5589   41.0815 H   0  0  0  0  0  0  0  0  0  0  0  0
   43.1259   32.6620   42.6667 H   0  0  0  0  0  0  0  0  0  0  0  0
   41.6063   34.1281   41.8224 H   0  0  0  0  0  0  0  0  0  0  0  0
   42.3292   33.9207   40.2127 H   0  0  0  0  0  0  0  0  0  0  0  0
   43.6129   35.8711   40.4087 H   0  0  0  0  0  0  0  0  0  0  0  0
   42.3591   36.3513   41.5369 H   0  0  0  0  0  0  0  0  0  0  0  0
   43.6432   35.6173   43.4462 H   0  0  0  0  0  0  0  0  0  0  0  0
   44.9188   36.2375   42.3917 H   0  0  0  0  0  0  0  0  0  0  0  0
   45.0661   32.8778   39.9719 H   0  0  0  0  0  0  0  0  0  0  0  0
   47.1067   33.0463   38.5287 H   0  0  0  0  0  0  0  0  0  0  0  0
   49.3479   36.0122   43.0889 H   0  0  0  0  0  0  0  0  0  0  0  0
   44.5861   32.7626   43.9959 H   0  0  0  0  0  0  0  0  0  0  0  0
   46.2495   33.4841   43.5854 H   0  0  0  0  0  0  0  0  0  0  0  0
   45.1201   34.0929   45.7667 H   0  0  0  0  0  0  0  0  0  0  0  0
   45.8855   35.3457   44.7317 H   0  0  0  0  0  0  0  0  0  0  0  0
   44.1001   35.1488   44.7317 H   0  0  0  0  0  0  0  0  0  0  0  0
  1  5  1  0
  1 13  1  0
  2  1  1  0
  3  4  1  0
  3  2  1  0
  4  5  1  0
  6 11  1  0
  6  1  1  0
  7  6  2  0
  8  9  2  0
  8  7  1  0
  9 10  1  0
 10 12  1  0
 10 11  2  0
 13 14  1  0
  2 15  1  0
  2 16  1  0
  3 17  1  0
  3 18  1  0
  4 19  1  0
  4 20  1  0
  5 21  1  0
  5 22  1  0
  7 23  1  0
  8 24  1  0
 12 25  1  0
 13 26  1  0
 13 27  1  0
 14 28  1  0
 14 29  1  0
 14 30  1  0
M  ISO  8  15  13  16  13  17  13  18  13  19  13  20  13  21  13  22  13
M  ISO  8  23  14  24  14  25  11  26   8  27   8  28   8  29   8  30   8
M  END
>  <minimizedAffinity>  (1) 
-3.88090396

>  <minimizedRMSD>  (1) 
0.81739831

$$$$
