
     RDKit          3D

 36 37  0  0  0  0  0  0  0  0999 V2000
   45.1070   34.1410   41.8100 C   0  0  0  0  0  0  0  0  0  0  0  0
   45.4860   33.8950   40.4970 C   0  0  0  0  0  0  0  0  0  0  0  0
   44.6530   33.1470   39.6810 C   0  0  0  0  0  0  0  0  0  0  0  0
   43.4820   32.6780   40.2150 N   0  0  0  0  0  0  0  0  0  0  0  0
   43.1480   32.9310   41.4820 C   0  0  0  0  0  0  0  0  0  0  0  0
   43.9560   33.6510   42.2540 N   0  0  0  0  0  0  0  0  0  0  0  0
   41.9230   32.4240   41.9990 N   0  0  0  0  0  0  0  0  0  0  0  0
   41.7120   31.0590   42.3480 C   0  0  0  0  0  0  0  0  0  0  0  0
   42.7490   30.2870   42.3590 N   0  0  0  0  0  0  0  0  0  0  0  0
   40.3900   30.5910   42.6670 N   0  0  0  0  0  0  0  0  0  0  0  0
   42.5790   29.2890   42.6160 H   0  0  0  0  0  0  0  0  0  0  0  0
   45.9890   34.9460   42.6990 C   0  0  0  0  0  0  0  0  0  0  0  0
   47.3420   35.2350   42.1900 C   0  0  0  0  0  0  0  0  0  0  0  0
   48.2990   34.2400   42.8310 C   0  0  0  0  0  0  0  0  0  0  0  0
   47.4690   33.3090   43.6710 C   0  0  0  0  0  0  0  0  0  0  0  0
   46.2150   34.0980   43.9350 C   0  0  0  0  0  0  0  0  0  0  0  0
   45.2100   36.1490   43.0870 C   0  0  0  0  0  0  0  0  0  0  0  0
   44.7040   36.1990   44.4640 C   0  0  0  0  0  0  0  0  0  0  0  0
   46.4368   34.2895   40.1092 H   0  0  0  0  0  0  0  0  0  0  0  0
   44.9237   32.9361   38.6359 H   0  0  0  0  0  0  0  0  0  0  0  0
   41.1423   33.0832   42.1286 H   0  0  0  0  0  0  0  0  0  0  0  0
   40.2401   29.6036   42.9190 H   0  0  0  0  0  0  0  0  0  0  0  0
   39.5932   31.2432   42.6434 H   0  0  0  0  0  0  0  0  0  0  0  0
   47.3626   35.1233   41.0959 H   0  0  0  0  0  0  0  0  0  0  0  0
   47.6350   36.2660   42.4374 H   0  0  0  0  0  0  0  0  0  0  0  0
   48.8315   33.6733   42.0530 H   0  0  0  0  0  0  0  0  0  0  0  0
   49.0501   34.7582   43.4453 H   0  0  0  0  0  0  0  0  0  0  0  0
   47.2425   32.3821   43.1237 H   0  0  0  0  0  0  0  0  0  0  0  0
   47.9792   32.9941   44.5932 H   0  0  0  0  0  0  0  0  0  0  0  0
   46.3452   34.7385   44.8198 H   0  0  0  0  0  0  0  0  0  0  0  0
   45.3576   33.4384   44.1342 H   0  0  0  0  0  0  0  0  0  0  0  0
   45.8577   37.0258   42.9393 H   0  0  0  0  0  0  0  0  0  0  0  0
   44.3115   36.1246   42.4529 H   0  0  0  0  0  0  0  0  0  0  0  0
   45.5458   36.1158   45.1672 H   0  0  0  0  0  0  0  0  0  0  0  0
   44.1818   37.1531   44.6283 H   0  0  0  0  0  0  0  0  0  0  0  0
   44.0052   35.3655   44.6283 H   0  0  0  0  0  0  0  0  0  0  0  0
  1  6  1  0
  1 12  1  0
  2  1  2  0
  3  4  2  0
  3  2  1  0
  4  5  1  0
  5  7  1  0
  5  6  2  0
  7  8  1  0
  8  9  2  0
  8 10  1  0
  9 11  1  0
 12 17  1  0
 12 16  1  0
 13 12  1  0
 13 14  1  0
 14 15  1  0
 15 16  1  0
 17 18  1  0
  2 19  1  0
  3 20  1  0
  7 21  1  0
 10 22  1  0
 10 23  1  0
 13 24  1  0
 13 25  1  0
 14 26  1  0
 14 27  1  0
 15 28  1  0
 15 29  1  0
 16 30  1  0
 16 31  1  0
 17 32  1  0
 17 33  1  0
 18 34  1  0
 18 35  1  0
 18 36  1  0
M  ISO  8  19  14  20  14  24  13  25  13  26  13  27  13  28  13  29  13
M  ISO  7  30  13  31  13  32   8  33   8  34   8  35   8  36   8
M  END
>  <minimizedAffinity>  (1) 
-4.79022169

>  <minimizedRMSD>  (1) 
6.20011091

$$$$
