
     RDKit          3D

 41 44  0  0  0  0  0  0  0  0999 V2000
   47.4200   33.7770   42.8060 C   0  0  0  0  0  0  0  0  0  0  0  0
   44.7220   35.3260   44.9070 C   0  0  0  0  0  0  0  0  0  0  0  0
   45.6040   35.0410   43.8500 C   0  0  0  0  0  0  0  0  0  0  0  0
   46.5190   34.0430   43.9220 C   0  0  0  0  0  0  0  0  0  0  0  0
   46.5670   33.3130   45.0530 N   0  0  0  0  0  0  0  0  0  0  0  0
   45.7010   33.5960   46.0820 C   0  0  0  0  0  0  0  0  0  0  0  0
   44.8180   34.5580   46.0160 N   0  0  0  0  0  0  0  0  0  0  0  0
   45.9260   32.6680   47.2330 C   0  0  0  0  0  0  0  0  0  0  0  0
   44.9160   31.9930   48.0600 C   0  0  0  0  0  0  0  0  0  0  0  0
   46.0400   31.1020   49.1740 S   0  0  0  0  0  0  0  0  0  0  0  0
   47.6210   31.7720   48.3580 C   0  0  0  0  0  0  0  0  0  0  0  0
   47.2190   32.5680   47.3680 N   0  0  0  0  0  0  0  0  0  0  0  0
   48.8720   31.2770   48.9820 C   0  0  0  0  0  0  0  0  0  0  0  0
   49.7160   32.3330   49.3450 F   0  0  0  0  0  0  0  0  0  0  0  0
   48.4810   30.5280   50.0470 F   0  0  0  0  0  0  0  0  0  0  0  0
   49.5710   30.4360   48.1230 F   0  0  0  0  0  0  0  0  0  0  0  0
   47.6100   34.8740   41.8250 C   0  0  0  0  0  0  0  0  0  0  0  0
   47.3070   34.3400   40.4680 C   0  0  0  0  0  0  0  0  0  0  0  0
   48.2360   34.2820   39.4520 C   0  0  0  0  0  0  0  0  0  0  0  0
   48.0520   33.8140   38.1910 C   0  0  0  0  0  0  0  0  0  0  0  0
   46.7830   33.3560   37.9340 N   0  0  0  0  0  0  0  0  0  0  0  0
   45.8430   33.3960   38.9010 C   0  0  0  0  0  0  0  0  0  0  0  0
   46.0530   33.8680   40.1550 N   0  0  0  0  0  0  0  0  0  0  0  0
   44.5220   32.8940   38.5550 C   0  0  0  0  0  0  0  0  0  0  0  0
   43.3830   33.4740   39.1080 C   0  0  0  0  0  0  0  0  0  0  0  0
   42.1410   32.9960   38.7780 C   0  0  0  0  0  0  0  0  0  0  0  0
   42.0060   31.9710   37.9270 N   0  0  0  0  0  0  0  0  0  0  0  0
   43.1200   31.4250   37.4060 C   0  0  0  0  0  0  0  0  0  0  0  0
   44.3780   31.8650   37.7030 N   0  0  0  0  0  0  0  0  0  0  0  0
   48.4066   33.5311   43.2258 H   0  0  0  0  0  0  0  0  0  0  0  0
   46.9448   32.9626   42.2395 H   0  0  0  0  0  0  0  0  0  0  0  0
   43.9849   36.1393   44.8350 H   0  0  0  0  0  0  0  0  0  0  0  0
   45.5500   35.6478   42.9341 H   0  0  0  0  0  0  0  0  0  0  0  0
   43.8171   32.0193   48.0174 H   0  0  0  0  0  0  0  0  0  0  0  0
   46.9288   35.7054   42.0590 H   0  0  0  0  0  0  0  0  0  0  0  0
   48.6444   35.2461   41.8655 H   0  0  0  0  0  0  0  0  0  0  0  0
   49.2420   34.6580   39.6899 H   0  0  0  0  0  0  0  0  0  0  0  0
   48.8532   33.8026   37.4373 H   0  0  0  0  0  0  0  0  0  0  0  0
   43.4798   34.3157   39.8096 H   0  0  0  0  0  0  0  0  0  0  0  0
   41.2454   33.4597   39.2173 H   0  0  0  0  0  0  0  0  0  0  0  0
   43.0119   30.5829   36.7066 H   0  0  0  0  0  0  0  0  0  0  0  0
  1  4  1  0
  2  7  2  0
  3  4  2  0
  3  2  1  0
  4  5  1  0
  5  6  2  0
  6  8  1  0
  7  6  1  0
  8 12  1  0
  8  9  2  0
  9 10  1  0
 11 13  1  0
 11 10  1  0
 12 11  2  0
 13 14  1  0
 13 15  1  0
 16 13  1  0
 17  1  1  0
 18 17  1  0
 19 18  2  0
 20 19  1  0
 21 20  2  0
 21 22  1  0
 22 23  2  0
 23 18  1  0
 24 22  1  0
 24 25  2  0
 26 25  1  0
 27 26  2  0
 28 29  2  0
 28 27  1  0
 29 24  1  0
  1 30  1  0
  1 31  1  0
  2 32  1  0
  3 33  1  0
  9 34  1  0
 17 35  1  0
 17 36  1  0
 19 37  1  0
 20 38  1  0
 25 39  1  0
 26 40  1  0
 28 41  1  0
M  ISO  8  30   8  31   8  32  14  33  14  34  14  35   8  36   8  37  14
M  ISO  4  38  14  39  14  40  14  41  14
M  END
>  <minimizedAffinity>  (1) 
-6.44062376

>  <minimizedRMSD>  (1) 
0.370498508

$$$$
