
     RDKit          3D

 46 48  0  0  1  0  0  0  0  0999 V2000
   45.6490   35.2840   42.6660 C   0  0  0  0  0  0  0  0  0  0  0  0
   47.0800   35.2450   42.4410 C   0  0  0  0  0  0  0  0  0  0  0  0
   47.6270   34.0600   43.2560 C   0  0  0  0  0  0  0  0  0  0  0  0
   46.4810   33.4480   43.9790 C   0  0  0  0  0  0  0  0  0  0  0  0
   45.4300   34.5430   43.9660 C   0  0  0  0  0  0  0  0  0  0  0  0
   44.7380   34.6350   41.6910 C   0  0  0  0  0  0  0  0  0  0  0  0
   45.2610   33.9740   40.6110 C   0  0  0  0  0  0  0  0  0  0  0  0
   44.4340   33.3590   39.6820 C   0  0  0  0  0  0  0  0  0  0  0  0
   43.0820   33.4500   39.9030 N   0  0  0  0  0  0  0  0  0  0  0  0
   42.5930   34.0980   40.9620 C   0  0  0  0  0  0  0  0  0  0  0  0
   43.4130   34.6730   41.8270 N   0  0  0  0  0  0  0  0  0  0  0  0
   41.1800   34.1710   41.1580 N   0  0  0  0  0  0  0  0  0  0  0  0
   40.4020   33.0640   41.6280 C   0  0  0  0  0  0  0  0  0  0  0  0
   41.0380   32.0100   42.0610 N   0  0  0  0  0  0  0  0  0  0  0  0
   38.9660   33.1140   41.6200 N   0  0  0  0  0  0  0  0  0  0  0  0
   40.4540   31.2110   42.3740 H   0  0  0  0  0  0  0  0  0  0  0  0
   45.1150   36.6750   42.8480 C   0  0  0  0  0  0  0  0  0  0  0  0
   45.1590   37.2430   44.1980 C   0  0  0  0  0  0  0  0  0  0  0  0
   44.8070   38.7530   44.1630 C   0  0  2  0  0  0  0  0  0  0  0  0
   45.8120   39.6910   43.6250 C   0  0  0  0  0  0  0  0  0  0  0  0
   45.6100   39.6280   45.1120 C   0  0  1  0  0  0  0  0  0  0  0  0
   44.7930   40.7380   45.7010 C   0  0  0  0  0  0  0  0  0  0  0  0
   44.3860   41.7520   45.0730 O   0  0  0  0  0  0  0  0  0  0  0  0
   44.4510   40.6520   47.0400 O   0  0  0  0  0  0  0  0  0  0  0  0
   47.2911   35.0984   41.3715 H   0  0  0  0  0  0  0  0  0  0  0  0
   47.5536   36.1884   42.7503 H   0  0  0  0  0  0  0  0  0  0  0  0
   48.0844   33.3203   42.5825 H   0  0  0  0  0  0  0  0  0  0  0  0
   48.3958   34.3998   43.9655 H   0  0  0  0  0  0  0  0  0  0  0  0
   46.1201   32.5501   43.4560 H   0  0  0  0  0  0  0  0  0  0  0  0
   46.7424   33.1164   44.9947 H   0  0  0  0  0  0  0  0  0  0  0  0
   45.5658   35.2188   44.8233 H   0  0  0  0  0  0  0  0  0  0  0  0
   44.4106   34.1367   44.0421 H   0  0  0  0  0  0  0  0  0  0  0  0
   46.3521   33.9302   40.4784 H   0  0  0  0  0  0  0  0  0  0  0  0
   44.8416   32.8247   38.8111 H   0  0  0  0  0  0  0  0  0  0  0  0
   40.6995   35.0585   40.9524 H   0  0  0  0  0  0  0  0  0  0  0  0
   38.4208   32.3096   41.9614 H   0  0  0  0  0  0  0  0  0  0  0  0
   38.4819   33.9543   41.2729 H   0  0  0  0  0  0  0  0  0  0  0  0
   45.6954   37.3398   42.1913 H   0  0  0  0  0  0  0  0  0  0  0  0
   44.0438   36.5984   42.6099 H   0  0  0  0  0  0  0  0  0  0  0  0
   44.4337   36.7168   44.8361 H   0  0  0  0  0  0  0  0  0  0  0  0
   46.1753   37.1236   44.6015 H   0  0  0  0  0  0  0  0  0  0  0  0
   43.7416   38.5769   43.9535 H   0  0  0  0  0  0  0  0  0  0  0  0
   46.7410   39.3017   43.1831 H   0  0  0  0  0  0  0  0  0  0  0  0
   45.7890   40.4988   42.8787 H   0  0  0  0  0  0  0  0  0  0  0  0
   46.2744   39.4815   45.9763 H   0  0  0  0  0  0  0  0  0  0  0  0
   43.9120   41.3683   47.4602 H   0  0  0  0  0  0  0  0  0  0  0  0
  1 17  1  0
  1  5  1  0
  2  1  1  0
  2  3  1  0
  3  4  1  0
  5  4  1  0
  6 11  1  0
  6  1  1  0
  7  6  2  0
  8  9  2  0
  8  7  1  0
  9 10  1  0
 10 12  1  0
 10 11  2  0
 12 13  1  0
 13 14  2  0
 14 16  1  0
 15 13  1  0
 17 18  1  0
 19 18  1  0
 19 21  1  0
 20 19  1  0
 20 21  1  0
 21 22  1  0
 22 24  1  0
 23 22  2  0
  2 25  1  0
  2 26  1  0
  3 27  1  0
  3 28  1  0
  4 29  1  0
  4 30  1  0
  5 31  1  0
  5 32  1  0
  7 33  1  0
  8 34  1  0
 12 35  1  0
 15 36  1  0
 15 37  1  0
 17 38  1  0
 17 39  1  0
 18 40  1  0
 18 41  1  0
 19 42  1  6
 20 43  1  0
 20 44  1  0
 21 45  1  1
 24 46  1  0
M  ISO  8  25  13  26  13  27  13  28  13  29  13  30  13  31  13  32  13
M  ISO  8  33  14  34  14  38   8  39   8  40   8  41   8  42  13  43  13
M  ISO  3  44  13  45  13  46   3
M  END
>  <minimizedAffinity>  (1) 
-5.18502283

>  <minimizedRMSD>  (1) 
0.573560059

$$$$
