
     RDKit          3D

 50 53  0  0  1  0  0  0  0  0999 V2000
   45.6550   35.0500   42.6090 C   0  0  0  0  0  0  0  0  0  0  0  0
   47.0880   34.9590   42.4080 C   0  0  0  0  0  0  0  0  0  0  0  0
   47.5930   33.8070   43.2950 C   0  0  0  0  0  0  0  0  0  0  0  0
   46.4250   33.2700   44.0360 C   0  0  0  0  0  0  0  0  0  0  0  0
   45.4050   34.3890   43.9460 C   0  0  0  0  0  0  0  0  0  0  0  0
   44.7370   34.3710   41.6630 C   0  0  0  0  0  0  0  0  0  0  0  0
   45.2510   33.6260   40.6370 C   0  0  0  0  0  0  0  0  0  0  0  0
   44.4140   32.9820   39.7380 C   0  0  0  0  0  0  0  0  0  0  0  0
   43.0620   33.1340   39.9330 N   0  0  0  0  0  0  0  0  0  0  0  0
   42.5860   33.8650   40.9370 C   0  0  0  0  0  0  0  0  0  0  0  0
   43.4080   34.4700   41.7840 N   0  0  0  0  0  0  0  0  0  0  0  0
   41.1730   33.9940   41.1000 N   0  0  0  0  0  0  0  0  0  0  0  0
   40.3470   32.9470   41.6200 C   0  0  0  0  0  0  0  0  0  0  0  0
   40.9390   31.9020   42.1270 N   0  0  0  0  0  0  0  0  0  0  0  0
   38.9140   33.0520   41.5800 N   0  0  0  0  0  0  0  0  0  0  0  0
   40.3190   31.1520   42.5020 H   0  0  0  0  0  0  0  0  0  0  0  0
   45.1610   36.4610   42.7110 C   0  0  0  0  0  0  0  0  0  0  0  0
   45.1140   37.0730   44.0390 C   0  0  0  0  0  0  0  0  0  0  0  0
   44.7920   38.5840   43.9450 C   0  0  2  0  0  0  0  0  0  0  0  0
   45.7730   39.4550   43.2710 C   0  0  0  0  0  0  0  0  0  0  0  0
   45.7060   39.4880   44.7650 C   0  0  1  0  0  0  0  0  0  0  0  0
   44.9610   40.5740   45.4520 C   0  0  0  0  0  0  0  0  0  0  0  0
   44.7450   40.7990   46.8050 C   0  0  0  0  0  0  0  0  0  0  0  0
   44.0060   41.9180   46.9760 N   0  0  0  0  0  0  0  0  0  0  0  0
   43.7490   42.4070   45.7320 C   0  0  0  0  0  0  0  0  0  0  0  0
   44.3210   41.6030   44.8260 N   0  0  0  0  0  0  0  0  0  0  0  0
   47.3088   34.7473   41.3514 H   0  0  0  0  0  0  0  0  0  0  0  0
   47.5830   35.9050   42.6726 H   0  0  0  0  0  0  0  0  0  0  0  0
   48.0362   33.0180   42.6697 H   0  0  0  0  0  0  0  0  0  0  0  0
   48.3638   34.1649   43.9934 H   0  0  0  0  0  0  0  0  0  0  0  0
   46.0458   32.3530   43.5614 H   0  0  0  0  0  0  0  0  0  0  0  0
   46.6658   32.9916   45.0726 H   0  0  0  0  0  0  0  0  0  0  0  0
   45.5497   35.1091   44.7649 H   0  0  0  0  0  0  0  0  0  0  0  0
   44.3748   34.0128   44.0314 H   0  0  0  0  0  0  0  0  0  0  0  0
   46.3415   33.5367   40.5237 H   0  0  0  0  0  0  0  0  0  0  0  0
   44.8129   32.3788   38.9091 H   0  0  0  0  0  0  0  0  0  0  0  0
   40.7272   34.8826   40.8306 H   0  0  0  0  0  0  0  0  0  0  0  0
   38.3311   32.2914   41.9576 H   0  0  0  0  0  0  0  0  0  0  0  0
   38.4700   33.8879   41.1737 H   0  0  0  0  0  0  0  0  0  0  0  0
   45.8170   37.0843   42.0856 H   0  0  0  0  0  0  0  0  0  0  0  0
   44.1095   36.4101   42.3921 H   0  0  0  0  0  0  0  0  0  0  0  0
   44.3352   36.5762   44.6362 H   0  0  0  0  0  0  0  0  0  0  0  0
   46.0994   36.9546   44.5134 H   0  0  0  0  0  0  0  0  0  0  0  0
   43.7076   38.4314   43.8408 H   0  0  0  0  0  0  0  0  0  0  0  0
   46.6473   39.0089   42.7743 H   0  0  0  0  0  0  0  0  0  0  0  0
   45.7064   40.2194   42.4828 H   0  0  0  0  0  0  0  0  0  0  0  0
   46.4750   39.4034   45.5470 H   0  0  0  0  0  0  0  0  0  0  0  0
   45.1201   40.1605   47.6184 H   0  0  0  0  0  0  0  0  0  0  0  0
   43.1673   43.3133   45.5076 H   0  0  0  0  0  0  0  0  0  0  0  0
   44.2831   41.7416   43.8061 H   0  0  0  0  0  0  0  0  0  0  0  0
  1 17  1  0
  1  5  1  0
  2  1  1  0
  2  3  1  0
  3  4  1  0
  5  4  1  0
  6 11  1  0
  6  1  1  0
  7  6  2  0
  8  9  2  0
  8  7  1  0
  9 10  1  0
 10 12  1  0
 10 11  2  0
 12 13  1  0
 13 14  2  0
 14 16  1  0
 15 13  1  0
 17 18  1  0
 19 18  1  0
 19 21  1  0
 20 19  1  0
 20 21  1  0
 21 22  1  0
 22 23  2  0
 23 24  1  0
 25 24  2  0
 26 22  1  0
 26 25  1  0
  2 27  1  0
  2 28  1  0
  3 29  1  0
  3 30  1  0
  4 31  1  0
  4 32  1  0
  5 33  1  0
  5 34  1  0
  7 35  1  0
  8 36  1  0
 12 37  1  0
 15 38  1  0
 15 39  1  0
 17 40  1  0
 17 41  1  0
 18 42  1  0
 18 43  1  0
 19 44  1  6
 20 45  1  0
 20 46  1  0
 21 47  1  1
 23 48  1  0
 25 49  1  0
 26 50  1  0
M  ISO  8  27  13  28  13  29  13  30  13  31  13  32  13  33  13  34  13
M  ISO  8  35  14  36  14  40   8  41   8  42   8  43   8  44  13  45  13
M  ISO  5  46  13  47  13  48  14  49  14  50   9
M  END
>  <minimizedAffinity>  (1) 
-5.26620436

>  <minimizedRMSD>  (1) 
0.762950361

$$$$
