
     RDKit          3D

 45 47  0  0  1  0  0  0  0  0999 V2000
   45.4610   35.2660   42.8420 C   0  0  0  0  0  0  0  0  0  0  0  0
   46.8840   34.9750   42.8440 C   0  0  0  0  0  0  0  0  0  0  0  0
   47.1080   33.8410   43.8560 C   0  0  0  0  0  0  0  0  0  0  0  0
   45.7900   33.5160   44.4620 C   0  0  0  0  0  0  0  0  0  0  0  0
   44.9580   34.7520   44.1730 C   0  0  0  0  0  0  0  0  0  0  0  0
   44.5880   34.6410   41.8210 C   0  0  0  0  0  0  0  0  0  0  0  0
   45.1470   34.0180   40.7390 C   0  0  0  0  0  0  0  0  0  0  0  0
   44.3560   33.4240   39.7650 C   0  0  0  0  0  0  0  0  0  0  0  0
   42.9960   33.4990   39.9520 N   0  0  0  0  0  0  0  0  0  0  0  0
   42.4760   34.1090   41.0110 C   0  0  0  0  0  0  0  0  0  0  0  0
   43.2620   34.6670   41.9240 N   0  0  0  0  0  0  0  0  0  0  0  0
   41.0520   34.1650   41.1690 N   0  0  0  0  0  0  0  0  0  0  0  0
   40.2670   33.0360   41.5810 C   0  0  0  0  0  0  0  0  0  0  0  0
   40.8990   31.9810   42.0000 N   0  0  0  0  0  0  0  0  0  0  0  0
   38.8320   33.0870   41.5280 N   0  0  0  0  0  0  0  0  0  0  0  0
   40.3110   31.1670   42.2770 H   0  0  0  0  0  0  0  0  0  0  0  0
   45.1600   36.7330   42.7860 C   0  0  0  0  0  0  0  0  0  0  0  0
   45.0810   37.4630   44.0530 C   0  0  0  0  0  0  0  0  0  0  0  0
   45.1600   38.9900   43.8220 C   0  0  2  0  0  0  0  0  0  0  0  0
   46.4390   39.6710   44.1240 C   0  0  0  0  0  0  0  0  0  0  0  0
   45.2960   39.8280   45.0850 C   0  0  1  0  0  0  0  0  0  0  0  0
   44.5030   41.0210   45.0780 N   0  0  0  0  0  0  0  0  0  0  0  0
   47.2060   34.6562   41.8417 H   0  0  0  0  0  0  0  0  0  0  0  0
   47.4671   35.8667   43.1175 H   0  0  0  0  0  0  0  0  0  0  0  0
   47.5146   32.9561   43.3445 H   0  0  0  0  0  0  0  0  0  0  0  0
   47.8252   34.1494   44.6309 H   0  0  0  0  0  0  0  0  0  0  0  0
   45.3488   32.6251   43.9911 H   0  0  0  0  0  0  0  0  0  0  0  0
   45.8556   33.2827   45.5350 H   0  0  0  0  0  0  0  0  0  0  0  0
   45.1042   35.5079   44.9587 H   0  0  0  0  0  0  0  0  0  0  0  0
   43.8817   34.5263   44.1466 H   0  0  0  0  0  0  0  0  0  0  0  0
   46.2420   33.9872   40.6390 H   0  0  0  0  0  0  0  0  0  0  0  0
   44.7938   32.9204   38.8906 H   0  0  0  0  0  0  0  0  0  0  0  0
   40.5706   35.0554   40.9783 H   0  0  0  0  0  0  0  0  0  0  0  0
   38.2764   32.2723   41.8255 H   0  0  0  0  0  0  0  0  0  0  0  0
   38.3590   33.9382   41.1925 H   0  0  0  0  0  0  0  0  0  0  0  0
   45.9486   37.2069   42.1830 H   0  0  0  0  0  0  0  0  0  0  0  0
   44.1438   36.7914   42.3690 H   0  0  0  0  0  0  0  0  0  0  0  0
   44.1278   37.2233   44.5468 H   0  0  0  0  0  0  0  0  0  0  0  0
   45.9301   37.1608   44.6837 H   0  0  0  0  0  0  0  0  0  0  0  0
   44.4931   38.9728   42.9474 H   0  0  0  0  0  0  0  0  0  0  0  0
   47.3186   39.0775   44.4138 H   0  0  0  0  0  0  0  0  0  0  0  0
   47.0857   40.3721   43.5761 H   0  0  0  0  0  0  0  0  0  0  0  0
   45.2087   39.6969   46.1737 H   0  0  0  0  0  0  0  0  0  0  0  0
   44.3103   41.3109   46.0474 H   0  0  0  0  0  0  0  0  0  0  0  0
   45.0146   41.7705   44.5908 H   0  0  0  0  0  0  0  0  0  0  0  0
  1  2  1  0
  1  5  1  0
  2  3  1  0
  3  4  1  0
  5  4  1  0
  6 11  1  0
  6  1  1  0
  7  6  2  0
  8  9  2  0
  8  7  1  0
  9 10  1  0
 10 12  1  0
 10 11  2  0
 12 13  1  0
 13 14  2  0
 14 16  1  0
 15 13  1  0
 17  1  1  0
 17 18  1  0
 19 18  1  0
 19 20  1  0
 19 21  1  0
 20 21  1  0
 22 21  1  0
  2 23  1  0
  2 24  1  0
  3 25  1  0
  3 26  1  0
  4 27  1  0
  4 28  1  0
  5 29  1  0
  5 30  1  0
  7 31  1  0
  8 32  1  0
 12 33  1  0
 15 34  1  0
 15 35  1  0
 17 36  1  0
 17 37  1  0
 18 38  1  0
 18 39  1  0
 19 40  1  6
 20 41  1  0
 20 42  1  0
 21 43  1  1
 22 44  1  0
 22 45  1  0
M  ISO  8  23  13  24  13  25  13  26  13  27  13  28  13  29  13  30  13
M  ISO  8  31  14  32  14  36   8  37   8  38   8  39   8  40  13  41  13
M  ISO  4  42  13  43  13  44   5  45   5
M  END
>  <minimizedAffinity>  (1) 
-5.0269599

>  <minimizedRMSD>  (1) 
0.0152893271

$$$$
