
     RDKit          3D

 50 53  0  0  1  0  0  0  0  0999 V2000
   45.6970   35.0910   42.5520 C   0  0  0  0  0  0  0  0  0  0  0  0
   47.1210   35.0620   42.2840 C   0  0  0  0  0  0  0  0  0  0  0  0
   47.7030   33.8920   43.0930 C   0  0  0  0  0  0  0  0  0  0  0  0
   46.5860   33.2750   43.8500 C   0  0  0  0  0  0  0  0  0  0  0  0
   45.5240   34.3560   43.8630 C   0  0  0  0  0  0  0  0  0  0  0  0
   44.7650   34.4270   41.6080 C   0  0  0  0  0  0  0  0  0  0  0  0
   45.2610   33.7070   40.5540 C   0  0  0  0  0  0  0  0  0  0  0  0
   44.4060   33.0810   39.6600 C   0  0  0  0  0  0  0  0  0  0  0  0
   43.0650   33.2160   39.8780 N   0  0  0  0  0  0  0  0  0  0  0  0
   42.6040   33.9190   40.9080 C   0  0  0  0  0  0  0  0  0  0  0  0
   43.4350   34.5130   41.7570 N   0  0  0  0  0  0  0  0  0  0  0  0
   41.1900   34.0360   41.1030 N   0  0  0  0  0  0  0  0  0  0  0  0
   40.3820   32.9780   41.6250 C   0  0  0  0  0  0  0  0  0  0  0  0
   40.9910   31.9290   42.1040 N   0  0  0  0  0  0  0  0  0  0  0  0
   38.9490   33.0860   41.6130 N   0  0  0  0  0  0  0  0  0  0  0  0
   40.3830   31.1670   42.4790 H   0  0  0  0  0  0  0  0  0  0  0  0
   45.1560   36.4730   42.7470 C   0  0  0  0  0  0  0  0  0  0  0  0
   45.1380   37.0260   44.1000 C   0  0  0  0  0  0  0  0  0  0  0  0
   44.7760   38.5370   44.0710 C   0  0  2  0  0  0  0  0  0  0  0  0
   45.6860   39.4480   43.3410 C   0  0  0  0  0  0  0  0  0  0  0  0
   45.7300   39.4380   44.8420 C   0  0  1  0  0  0  0  0  0  0  0  0
   45.0100   40.5480   45.4800 N   0  0  0  0  0  0  0  0  0  0  0  0
   44.5160   41.5950   44.8150 N   0  0  0  0  0  0  0  0  0  0  0  0
   43.9150   42.4340   45.6710 C   0  0  0  0  0  0  0  0  0  0  0  0
   44.0380   41.8850   46.9510 C   0  0  0  0  0  0  0  0  0  0  0  0
   44.7320   40.6980   46.7890 C   0  0  0  0  0  0  0  0  0  0  0  0
   47.3008   34.9060   41.2101 H   0  0  0  0  0  0  0  0  0  0  0  0
   47.5951   36.0127   42.5693 H   0  0  0  0  0  0  0  0  0  0  0  0
   48.1508   33.1516   42.4138 H   0  0  0  0  0  0  0  0  0  0  0  0
   48.4868   34.2465   43.7785 H   0  0  0  0  0  0  0  0  0  0  0  0
   46.2197   32.3707   43.3421 H   0  0  0  0  0  0  0  0  0  0  0  0
   46.8805   32.9531   44.8598 H   0  0  0  0  0  0  0  0  0  0  0  0
   45.6774   35.0384   44.7120 H   0  0  0  0  0  0  0  0  0  0  0  0
   44.5119   33.9394   43.9726 H   0  0  0  0  0  0  0  0  0  0  0  0
   46.3491   33.6245   40.4152 H   0  0  0  0  0  0  0  0  0  0  0  0
   44.7922   32.4994   38.8099 H   0  0  0  0  0  0  0  0  0  0  0  0
   40.7330   34.9252   40.8553 H   0  0  0  0  0  0  0  0  0  0  0  0
   38.3717   32.3210   41.9903 H   0  0  0  0  0  0  0  0  0  0  0  0
   38.4992   33.9285   41.2271 H   0  0  0  0  0  0  0  0  0  0  0  0
   45.7613   37.1502   42.1265 H   0  0  0  0  0  0  0  0  0  0  0  0
   44.0937   36.3895   42.4739 H   0  0  0  0  0  0  0  0  0  0  0  0
   44.3904   36.4870   44.7005 H   0  0  0  0  0  0  0  0  0  0  0  0
   46.1383   36.9104   44.5427 H   0  0  0  0  0  0  0  0  0  0  0  0
   43.6900   38.3638   44.0474 H   0  0  0  0  0  0  0  0  0  0  0  0
   46.5283   39.0342   42.7672 H   0  0  0  0  0  0  0  0  0  0  0  0
   45.5448   40.2300   42.5804 H   0  0  0  0  0  0  0  0  0  0  0  0
   46.5288   39.3193   45.5889 H   0  0  0  0  0  0  0  0  0  0  0  0
   43.4168   43.3803   45.4135 H   0  0  0  0  0  0  0  0  0  0  0  0
   43.6608   42.3091   47.8933 H   0  0  0  0  0  0  0  0  0  0  0  0
   45.0086   39.9981   47.5913 H   0  0  0  0  0  0  0  0  0  0  0  0
  1 17  1  0
  1  5  1  0
  2  1  1  0
  2  3  1  0
  3  4  1  0
  4  5  1  0
  6 11  1  0
  6  1  1  0
  7  6  2  0
  8  9  2  0
  8  7  1  0
  9 10  1  0
 10 12  1  0
 10 11  2  0
 12 13  1  0
 13 14  2  0
 14 16  1  0
 15 13  1  0
 17 18  1  0
 19 18  1  0
 19 21  1  0
 20 19  1  0
 20 21  1  0
 21 22  1  0
 22 26  1  0
 23 22  1  0
 23 24  2  0
 24 25  1  0
 26 25  2  0
  2 27  1  0
  2 28  1  0
  3 29  1  0
  3 30  1  0
  4 31  1  0
  4 32  1  0
  5 33  1  0
  5 34  1  0
  7 35  1  0
  8 36  1  0
 12 37  1  0
 15 38  1  0
 15 39  1  0
 17 40  1  0
 17 41  1  0
 18 42  1  0
 18 43  1  0
 19 44  1  1
 20 45  1  0
 20 46  1  0
 21 47  1  6
 24 48  1  0
 25 49  1  0
 26 50  1  0
M  ISO  8  27  13  28  13  29  13  30  13  31  13  32  13  33  13  34  13
M  ISO  8  35  14  36  14  40   8  41   8  42   8  43   8  44  13  45  13
M  ISO  5  46  13  47  13  48  14  49  14  50  14
M  END
>  <minimizedAffinity>  (1) 
-4.74531889

>  <minimizedRMSD>  (1) 
0.983049273

$$$$
