
     RDKit          3D

 43 47  0  0  0  0  0  0  0  0999 V2000
   47.3760   33.7770   42.8430 C   0  0  0  0  0  0  0  0  0  0  0  0
   44.7020   35.3910   44.9250 C   0  0  0  0  0  0  0  0  0  0  0  0
   45.5880   35.0820   43.8760 C   0  0  0  0  0  0  0  0  0  0  0  0
   46.4760   34.0590   43.9530 C   0  0  0  0  0  0  0  0  0  0  0  0
   46.4930   33.3290   45.0750 N   0  0  0  0  0  0  0  0  0  0  0  0
   45.6230   33.6340   46.1030 C   0  0  0  0  0  0  0  0  0  0  0  0
   44.7680   34.6190   46.0310 N   0  0  0  0  0  0  0  0  0  0  0  0
   45.8160   32.6970   47.2510 C   0  0  0  0  0  0  0  0  0  0  0  0
   44.7890   32.0590   48.0840 C   0  0  0  0  0  0  0  0  0  0  0  0
   45.8720   31.1280   49.1960 S   0  0  0  0  0  0  0  0  0  0  0  0
   47.4720   31.7330   48.3840 C   0  0  0  0  0  0  0  0  0  0  0  0
   47.1040   32.5440   47.3900 N   0  0  0  0  0  0  0  0  0  0  0  0
   48.8400   31.2960   48.8730 C   0  0  0  0  0  0  0  0  0  0  0  0
   49.3020   30.0520   48.6790 N   0  0  0  0  0  0  0  0  0  0  0  0
   50.4840   29.9580   49.1940 O   0  0  0  0  0  0  0  0  0  0  0  0
   50.7960   31.1150   49.7160 C   0  0  0  0  0  0  0  0  0  0  0  0
   49.7610   31.9740   49.5200 N   0  0  0  0  0  0  0  0  0  0  0  0
   47.5970   34.8660   41.8620 C   0  0  0  0  0  0  0  0  0  0  0  0
   47.2870   34.3330   40.4990 C   0  0  0  0  0  0  0  0  0  0  0  0
   48.2300   34.2840   39.4900 C   0  0  0  0  0  0  0  0  0  0  0  0
   48.0480   33.8200   38.2230 C   0  0  0  0  0  0  0  0  0  0  0  0
   46.7870   33.3640   37.9640 N   0  0  0  0  0  0  0  0  0  0  0  0
   45.8420   33.3990   38.9290 C   0  0  0  0  0  0  0  0  0  0  0  0
   46.0480   33.8650   40.1820 N   0  0  0  0  0  0  0  0  0  0  0  0
   44.5260   32.8950   38.5740 C   0  0  0  0  0  0  0  0  0  0  0  0
   43.3790   33.4720   39.1190 C   0  0  0  0  0  0  0  0  0  0  0  0
   42.1410   32.9920   38.7810 C   0  0  0  0  0  0  0  0  0  0  0  0
   42.0070   31.9740   37.9360 N   0  0  0  0  0  0  0  0  0  0  0  0
   43.1230   31.4310   37.4210 C   0  0  0  0  0  0  0  0  0  0  0  0
   44.3850   31.8650   37.7180 N   0  0  0  0  0  0  0  0  0  0  0  0
   48.3546   33.5104   43.2688 H   0  0  0  0  0  0  0  0  0  0  0  0
   46.8840   32.9750   42.2732 H   0  0  0  0  0  0  0  0  0  0  0  0
   43.9878   36.2240   44.8474 H   0  0  0  0  0  0  0  0  0  0  0  0
   45.5595   35.6917   42.9609 H   0  0  0  0  0  0  0  0  0  0  0  0
   43.6918   32.1265   48.0443 H   0  0  0  0  0  0  0  0  0  0  0  0
   51.7394   31.3538   50.2287 H   0  0  0  0  0  0  0  0  0  0  0  0
   46.9345   35.7139   42.0905 H   0  0  0  0  0  0  0  0  0  0  0  0
   48.6395   35.2142   41.9072 H   0  0  0  0  0  0  0  0  0  0  0  0
   49.2340   34.6597   39.7366 H   0  0  0  0  0  0  0  0  0  0  0  0
   48.8502   33.8130   37.4703 H   0  0  0  0  0  0  0  0  0  0  0  0
   43.4685   34.3138   39.8214 H   0  0  0  0  0  0  0  0  0  0  0  0
   41.2435   33.4562   39.2156 H   0  0  0  0  0  0  0  0  0  0  0  0
   43.0151   30.5896   36.7207 H   0  0  0  0  0  0  0  0  0  0  0  0
  1  4  1  0
  2  7  2  0
  3  4  2  0
  3  2  1  0
  4  5  1  0
  5  6  2  0
  6  8  1  0
  7  6  1  0
  8 12  1  0
  8  9  2  0
  9 10  1  0
 11 13  1  0
 11 10  1  0
 12 11  2  0
 13 17  1  0
 14 13  2  0
 14 15  1  0
 15 16  1  0
 17 16  2  0
 18  1  1  0
 19 18  1  0
 20 19  2  0
 21 20  1  0
 22 21  2  0
 22 23  1  0
 23 24  2  0
 24 19  1  0
 25 23  1  0
 25 26  2  0
 27 26  1  0
 28 27  2  0
 29 30  2  0
 29 28  1  0
 30 25  1  0
  1 31  1  0
  1 32  1  0
  2 33  1  0
  3 34  1  0
  9 35  1  0
 16 36  1  0
 18 37  1  0
 18 38  1  0
 20 39  1  0
 21 40  1  0
 26 41  1  0
 27 42  1  0
 29 43  1  0
M  ISO  8  31   8  32   8  33  14  34  14  35  14  36  14  37   8  38   8
M  ISO  5  39  14  40  14  41  14  42  14  43  14
M  END
>  <minimizedAffinity>  (1) 
-6.32034206

>  <minimizedRMSD>  (1) 
0.297210425

$$$$
