
     RDKit          3D

 52 55  0  0  1  0  0  0  0  0999 V2000
   45.6800   34.9980   42.5150 C   0  0  0  0  0  0  0  0  0  0  0  0
   47.0960   35.0080   42.2360 C   0  0  0  0  0  0  0  0  0  0  0  0
   47.7340   33.8850   43.0650 C   0  0  0  0  0  0  0  0  0  0  0  0
   46.6480   33.2510   43.8520 C   0  0  0  0  0  0  0  0  0  0  0  0
   45.5500   34.2950   43.8490 C   0  0  0  0  0  0  0  0  0  0  0  0
   44.7570   34.2760   41.6040 C   0  0  0  0  0  0  0  0  0  0  0  0
   45.2670   33.4750   40.6190 C   0  0  0  0  0  0  0  0  0  0  0  0
   44.4320   32.7870   39.7540 C   0  0  0  0  0  0  0  0  0  0  0  0
   43.0830   32.9490   39.9350 N   0  0  0  0  0  0  0  0  0  0  0  0
   42.6080   33.7340   40.9000 C   0  0  0  0  0  0  0  0  0  0  0  0
   43.4250   34.3840   41.7190 N   0  0  0  0  0  0  0  0  0  0  0  0
   41.1900   33.8830   41.0640 N   0  0  0  0  0  0  0  0  0  0  0  0
   40.3500   32.8930   41.6260 C   0  0  0  0  0  0  0  0  0  0  0  0
   40.9300   31.8720   42.1970 N   0  0  0  0  0  0  0  0  0  0  0  0
   38.9200   33.0180   41.5630 N   0  0  0  0  0  0  0  0  0  0  0  0
   40.3020   31.1530   42.6120 H   0  0  0  0  0  0  0  0  0  0  0  0
   45.0870   36.3660   42.6840 C   0  0  0  0  0  0  0  0  0  0  0  0
   45.1060   36.9650   44.0140 C   0  0  0  0  0  0  0  0  0  0  0  0
   44.7760   38.4770   43.9490 C   0  0  2  0  0  0  0  0  0  0  0  0
   45.6850   39.3510   43.1770 C   0  0  0  0  0  0  0  0  0  0  0  0
   45.7410   39.3870   44.6760 C   0  0  1  0  0  0  0  0  0  0  0  0
   45.0880   40.5100   45.4000 C   0  0  0  0  0  0  0  0  0  0  0  0
   44.8770   40.5420   46.7670 C   0  0  0  0  0  0  0  0  0  0  0  0
   44.2640   41.6180   47.3740 C   0  0  0  0  0  0  0  0  0  0  0  0
   43.8450   42.7010   46.5970 C   0  0  0  0  0  0  0  0  0  0  0  0
   44.0680   42.6440   45.2230 C   0  0  0  0  0  0  0  0  0  0  0  0
   44.6620   41.5870   44.6850 N   0  0  0  0  0  0  0  0  0  0  0  0
   47.2695   34.8297   41.1645 H   0  0  0  0  0  0  0  0  0  0  0  0
   47.5367   35.9817   42.4961 H   0  0  0  0  0  0  0  0  0  0  0  0
   48.2000   33.1432   42.3997 H   0  0  0  0  0  0  0  0  0  0  0  0
   48.5155   34.2843   43.7282 H   0  0  0  0  0  0  0  0  0  0  0  0
   46.3072   32.3212   43.3731 H   0  0  0  0  0  0  0  0  0  0  0  0
   46.9649   32.9668   44.8663 H   0  0  0  0  0  0  0  0  0  0  0  0
   45.6909   35.0064   44.6761 H   0  0  0  0  0  0  0  0  0  0  0  0
   44.5544   33.8473   43.9843 H   0  0  0  0  0  0  0  0  0  0  0  0
   46.3573   33.3758   40.5123 H   0  0  0  0  0  0  0  0  0  0  0  0
   44.8328   32.1409   38.9591 H   0  0  0  0  0  0  0  0  0  0  0  0
   40.7574   34.7647   40.7535 H   0  0  0  0  0  0  0  0  0  0  0  0
   38.3206   32.2895   41.9765 H   0  0  0  0  0  0  0  0  0  0  0  0
   38.4943   33.8361   41.1044 H   0  0  0  0  0  0  0  0  0  0  0  0
   45.6344   37.0442   42.0128 H   0  0  0  0  0  0  0  0  0  0  0  0
   44.0185   36.2298   42.4611 H   0  0  0  0  0  0  0  0  0  0  0  0
   44.3596   36.4612   44.6457 H   0  0  0  0  0  0  0  0  0  0  0  0
   46.1144   36.8452   44.4369 H   0  0  0  0  0  0  0  0  0  0  0  0
   43.6878   38.3162   43.9486 H   0  0  0  0  0  0  0  0  0  0  0  0
   46.5170   38.9094   42.6088 H   0  0  0  0  0  0  0  0  0  0  0  0
   45.5451   40.1083   42.3915 H   0  0  0  0  0  0  0  0  0  0  0  0
   46.5593   39.2919   45.4050 H   0  0  0  0  0  0  0  0  0  0  0  0
   45.2050   39.6914   47.3826 H   0  0  0  0  0  0  0  0  0  0  0  0
   44.1060   41.6236   48.4626 H   0  0  0  0  0  0  0  0  0  0  0  0
   43.3542   43.5718   47.0560 H   0  0  0  0  0  0  0  0  0  0  0  0
   43.7501   43.4791   44.5815 H   0  0  0  0  0  0  0  0  0  0  0  0
  1 17  1  0
  1  5  1  0
  2  1  1  0
  2  3  1  0
  3  4  1  0
  5  4  1  0
  6 11  1  0
  6  1  1  0
  7  6  2  0
  8  9  2  0
  8  7  1  0
  9 10  1  0
 10 12  1  0
 10 11  2  0
 12 13  1  0
 13 14  2  0
 14 16  1  0
 15 13  1  0
 17 18  1  0
 19 18  1  0
 19 21  1  0
 20 19  1  0
 20 21  1  0
 21 22  1  0
 22 23  2  0
 23 24  1  0
 25 24  2  0
 26 25  1  0
 27 26  2  0
 27 22  1  0
  2 28  1  0
  2 29  1  0
  3 30  1  0
  3 31  1  0
  4 32  1  0
  4 33  1  0
  5 34  1  0
  5 35  1  0
  7 36  1  0
  8 37  1  0
 12 38  1  0
 15 39  1  0
 15 40  1  0
 17 41  1  0
 17 42  1  0
 18 43  1  0
 18 44  1  0
 19 45  1  1
 20 46  1  0
 20 47  1  0
 21 48  1  6
 23 49  1  0
 24 50  1  0
 25 51  1  0
 26 52  1  0
M  ISO  8  28  13  29  13  30  13  31  13  32  13  33  13  34  13  35  13
M  ISO  8  36  14  37  14  41   8  42   8  43   8  44   8  45  13  46  13
M  ISO  6  47  13  48  13  49  14  50  14  51  14  52  14
M  END
>  <minimizedAffinity>  (1) 
-4.21099186

>  <minimizedRMSD>  (1) 
1.06494296

$$$$
