
     RDKit          3D

 32 33  0  0  0  0  0  0  0  0999 V2000
   47.0530   34.1130   42.4210 C   0  0  0  0  0  0  0  0  0  0  0  0
   48.5080   34.7540   42.5960 C   0  0  0  0  0  0  0  0  0  0  0  0
   49.1240   34.0540   41.3680 C   0  0  0  0  0  0  0  0  0  0  0  0
   48.0680   34.3440   40.3150 C   0  0  0  0  0  0  0  0  0  0  0  0
   46.7540   34.5310   41.0770 C   0  0  0  0  0  0  0  0  0  0  0  0
   46.1420   33.8770   44.6740 C   0  0  0  0  0  0  0  0  0  0  0  0
   46.1750   34.6510   43.4810 C   0  0  0  0  0  0  0  0  0  0  0  0
   45.3320   35.8190   43.3590 C   0  0  0  0  0  0  0  0  0  0  0  0
   44.5440   36.1210   44.4040 N   0  0  0  0  0  0  0  0  0  0  0  0
   44.5410   35.3540   45.5400 C   0  0  0  0  0  0  0  0  0  0  0  0
   45.3310   34.2420   45.6760 N   0  0  0  0  0  0  0  0  0  0  0  0
   46.8070   32.6200   45.0320 C   0  0  0  0  0  0  0  0  0  0  0  0
   45.9020   31.4390   44.5710 C   0  0  0  0  0  0  0  0  0  0  0  0
   46.9310   32.4590   46.5320 C   0  0  0  0  0  0  0  0  0  0  0  0
   46.9419   33.0242   42.5318 H   0  0  0  0  0  0  0  0  0  0  0  0
   48.5056   35.8503   42.5064 H   0  0  0  0  0  0  0  0  0  0  0  0
   49.0106   34.6147   43.5645 H   0  0  0  0  0  0  0  0  0  0  0  0
   50.0961   34.4921   41.0977 H   0  0  0  0  0  0  0  0  0  0  0  0
   49.3400   32.9853   41.5139 H   0  0  0  0  0  0  0  0  0  0  0  0
   47.9863   33.5010   39.6131 H   0  0  0  0  0  0  0  0  0  0  0  0
   48.3221   35.2364   39.7241 H   0  0  0  0  0  0  0  0  0  0  0  0
   46.4407   35.5853   41.0585 H   0  0  0  0  0  0  0  0  0  0  0  0
   45.9285   33.9546   40.6341 H   0  0  0  0  0  0  0  0  0  0  0  0
   45.3357   36.4352   42.4478 H   0  0  0  0  0  0  0  0  0  0  0  0
   43.8812   35.6410   46.3721 H   0  0  0  0  0  0  0  0  0  0  0  0
   47.8012   32.6277   44.5614 H   0  0  0  0  0  0  0  0  0  0  0  0
   45.5023   30.9174   45.4531 H   0  0  0  0  0  0  0  0  0  0  0  0
   45.0694   31.8291   43.9672 H   0  0  0  0  0  0  0  0  0  0  0  0
   46.4952   30.7365   43.9672 H   0  0  0  0  0  0  0  0  0  0  0  0
   46.3339   33.2342   47.0346 H   0  0  0  0  0  0  0  0  0  0  0  0
   46.5630   31.4649   46.8257 H   0  0  0  0  0  0  0  0  0  0  0  0
   47.9861   32.5609   46.8257 H   0  0  0  0  0  0  0  0  0  0  0  0
  1  2  1  0
  1  7  1  0
  3  2  1  0
  4  5  1  0
  4  3  1  0
  5  1  1  0
  6 12  1  0
  6 11  2  0
  7  6  1  0
  8  7  2  0
  8  9  1  0
  9 10  2  0
 10 11  1  0
 12 14  1  0
 13 12  1  0
  1 15  1  0
  2 16  1  0
  2 17  1  0
  3 18  1  0
  3 19  1  0
  4 20  1  0
  4 21  1  0
  5 22  1  0
  5 23  1  0
  8 24  1  0
 10 25  1  0
 12 26  1  0
 13 27  1  0
 13 28  1  0
 13 29  1  0
 14 30  1  0
 14 31  1  0
 14 32  1  0
M  ISO  8  15  13  16  13  17  13  18  13  19  13  20  13  21  13  22  13
M  ISO  8  23  13  24  14  25  14  26   8  27   8  28   8  29   8  30   8
M  ISO  2  31   8  32   8
M  END
>  <minimizedAffinity>  (1) 
-4.65620184

>  <minimizedRMSD>  (1) 
4.40752983

$$$$
