
     RDKit          3D

 26 27  0  0  0  0  0  0  0  0999 V2000
   46.5790   35.0410   41.7760 C   0  0  0  0  0  0  0  0  0  0  0  0
   46.2320   33.6420   41.1400 C   0  0  0  0  0  0  0  0  0  0  0  0
   47.0020   33.8980   39.8070 C   0  0  0  0  0  0  0  0  0  0  0  0
   48.3090   34.4160   40.3230 C   0  0  0  0  0  0  0  0  0  0  0  0
   48.0120   34.9910   41.7100 C   0  0  0  0  0  0  0  0  0  0  0  0
   46.3330   34.0430   43.9990 C   0  0  0  0  0  0  0  0  0  0  0  0
   45.9700   35.1170   43.1300 C   0  0  0  0  0  0  0  0  0  0  0  0
   44.9920   36.1210   43.5070 C   0  0  0  0  0  0  0  0  0  0  0  0
   44.4270   36.0040   44.7290 N   0  0  0  0  0  0  0  0  0  0  0  0
   44.7880   34.9700   45.5500 C   0  0  0  0  0  0  0  0  0  0  0  0
   45.7080   34.0310   45.1890 N   0  0  0  0  0  0  0  0  0  0  0  0
   47.2800   32.9730   43.8460 C   0  0  0  0  0  0  0  0  0  0  0  0
   48.5420   33.5180   43.4560 F   0  0  0  0  0  0  0  0  0  0  0  0
   47.5840   32.1920   44.8850 F   0  0  0  0  0  0  0  0  0  0  0  0
   47.0500   32.2440   42.6380 F   0  0  0  0  0  0  0  0  0  0  0  0
   46.1940   35.9518   41.2942 H   0  0  0  0  0  0  0  0  0  0  0  0
   46.6397   32.7973   41.7147 H   0  0  0  0  0  0  0  0  0  0  0  0
   45.1701   33.3637   41.0695 H   0  0  0  0  0  0  0  0  0  0  0  0
   46.4902   34.6451   39.1826 H   0  0  0  0  0  0  0  0  0  0  0  0
   47.0903   33.0136   39.1588 H   0  0  0  0  0  0  0  0  0  0  0  0
   49.0426   33.5996   40.3960 H   0  0  0  0  0  0  0  0  0  0  0  0
   48.7359   35.1765   39.6526 H   0  0  0  0  0  0  0  0  0  0  0  0
   48.4154   34.3370   42.4971 H   0  0  0  0  0  0  0  0  0  0  0  0
   48.4736   35.9777   41.8626 H   0  0  0  0  0  0  0  0  0  0  0  0
   44.7221   36.9423   42.8269 H   0  0  0  0  0  0  0  0  0  0  0  0
   44.3168   34.8936   46.5410 H   0  0  0  0  0  0  0  0  0  0  0  0
  1  7  1  0
  2  1  1  0
  3  4  1  0
  3  2  1  0
  4  5  1  0
  5  1  1  0
  6 11  2  0
  7  8  2  0
  7  6  1  0
  8  9  1  0
  9 10  2  0
 11 10  1  0
 12  6  1  0
 12 14  1  0
 13 12  1  0
 15 12  1  0
  1 16  1  0
  2 17  1  0
  2 18  1  0
  3 19  1  0
  3 20  1  0
  4 21  1  0
  4 22  1  0
  5 23  1  0
  5 24  1  0
  8 25  1  0
 10 26  1  0
M  ISO  8  16  13  17  13  18  13  19  13  20  13  21  13  22  13  23  13
M  ISO  3  24  13  25  14  26  14
M  END
>  <minimizedAffinity>  (1) 
-4.81829977

>  <minimizedRMSD>  (1) 
4.31271887

$$$$
