
     RDKit          3D

 45 49  0  0  0  0  0  0  0  0999 V2000
   47.2130   34.7800   41.6830 C   0  0  0  0  0  0  0  0  0  0  0  0
   46.5050   34.1160   40.5440 C   0  0  0  0  0  0  0  0  0  0  0  0
   47.1790   33.3990   39.5770 C   0  0  0  0  0  0  0  0  0  0  0  0
   46.6240   32.7590   38.5010 C   0  0  0  0  0  0  0  0  0  0  0  0
   45.2700   32.8680   38.4230 N   0  0  0  0  0  0  0  0  0  0  0  0
   44.5850   33.5640   39.3580 C   0  0  0  0  0  0  0  0  0  0  0  0
   45.1520   34.1900   40.4130 N   0  0  0  0  0  0  0  0  0  0  0  0
   43.1400   33.6300   39.1990 C   0  0  0  0  0  0  0  0  0  0  0  0
   42.3910   34.5550   39.9340 C   0  0  0  0  0  0  0  0  0  0  0  0
   41.0300   34.6090   39.7810 C   0  0  0  0  0  0  0  0  0  0  0  0
   40.4010   33.7940   38.9400 N   0  0  0  0  0  0  0  0  0  0  0  0
   41.1370   32.9090   38.2380 C   0  0  0  0  0  0  0  0  0  0  0  0
   42.4930   32.8090   38.3490 N   0  0  0  0  0  0  0  0  0  0  0  0
   47.2910   33.8190   42.8050 C   0  0  0  0  0  0  0  0  0  0  0  0
   44.6670   35.3410   45.0120 C   0  0  0  0  0  0  0  0  0  0  0  0
   45.5090   35.0710   43.9190 C   0  0  0  0  0  0  0  0  0  0  0  0
   46.4280   34.0720   43.9520 C   0  0  0  0  0  0  0  0  0  0  0  0
   46.5080   33.3330   45.0760 N   0  0  0  0  0  0  0  0  0  0  0  0
   45.6810   33.6060   46.1340 C   0  0  0  0  0  0  0  0  0  0  0  0
   44.7970   34.5680   46.1050 N   0  0  0  0  0  0  0  0  0  0  0  0
   45.9390   32.6710   47.2640 C   0  0  0  0  0  0  0  0  0  0  0  0
   44.9680   31.9160   48.0650 C   0  0  0  0  0  0  0  0  0  0  0  0
   46.1250   31.0740   49.1810 S   0  0  0  0  0  0  0  0  0  0  0  0
   47.6600   31.8540   48.4050 C   0  0  0  0  0  0  0  0  0  0  0  0
   47.2400   32.6420   47.4270 N   0  0  0  0  0  0  0  0  0  0  0  0
   49.0230   31.4930   48.9700 C   0  0  0  0  0  0  0  0  0  0  0  0
   49.5210   30.2030   48.4920 C   0  0  0  0  0  0  0  0  0  0  0  0
   49.0880   30.3880   49.9600 C   0  0  0  0  0  0  0  0  0  0  0  0
   46.6549   35.6743   41.9973 H   0  0  0  0  0  0  0  0  0  0  0  0
   48.2238   35.0854   41.3746 H   0  0  0  0  0  0  0  0  0  0  0  0
   48.2722   33.3350   39.6807 H   0  0  0  0  0  0  0  0  0  0  0  0
   47.2218   32.2042   37.7628 H   0  0  0  0  0  0  0  0  0  0  0  0
   42.8938   35.2384   40.6341 H   0  0  0  0  0  0  0  0  0  0  0  0
   40.4487   35.3387   40.3637 H   0  0  0  0  0  0  0  0  0  0  0  0
   40.6184   32.2341   37.5412 H   0  0  0  0  0  0  0  0  0  0  0  0
   47.0349   32.8250   42.4094 H   0  0  0  0  0  0  0  0  0  0  0  0
   48.3164   33.9129   43.1918 H   0  0  0  0  0  0  0  0  0  0  0  0
   43.9284   36.1553   44.9746 H   0  0  0  0  0  0  0  0  0  0  0  0
   45.4208   35.6864   43.0115 H   0  0  0  0  0  0  0  0  0  0  0  0
   43.8704   31.8734   48.0065 H   0  0  0  0  0  0  0  0  0  0  0  0
   49.4043   32.5245   48.9938 H   0  0  0  0  0  0  0  0  0  0  0  0
   48.9107   29.5942   47.8087 H   0  0  0  0  0  0  0  0  0  0  0  0
   50.4320   29.8558   47.9825 H   0  0  0  0  0  0  0  0  0  0  0  0
   49.8392   30.4047   50.7634 H   0  0  0  0  0  0  0  0  0  0  0  0
   48.3802   29.8962   50.6435 H   0  0  0  0  0  0  0  0  0  0  0  0
  1 14  1  0
  2  1  1  0
  3  2  2  0
  4  3  1  0
  5  4  2  0
  5  6  1  0
  6  7  2  0
  7  2  1  0
  8  6  1  0
  8  9  2  0
 10  9  1  0
 11 10  2  0
 12 13  2  0
 12 11  1  0
 13  8  1  0
 14 17  1  0
 15 20  2  0
 16 17  2  0
 16 15  1  0
 17 18  1  0
 18 19  2  0
 19 21  1  0
 20 19  1  0
 21 25  1  0
 21 22  2  0
 22 23  1  0
 24 26  1  0
 24 23  1  0
 25 24  2  0
 26 28  1  0
 27 26  1  0
 27 28  1  0
  1 29  1  0
  1 30  1  0
  3 31  1  0
  4 32  1  0
  9 33  1  0
 10 34  1  0
 12 35  1  0
 14 36  1  0
 14 37  1  0
 15 38  1  0
 16 39  1  0
 22 40  1  0
 26 41  1  0
 27 42  1  0
 27 43  1  0
 28 44  1  0
 28 45  1  0
M  ISO  8  29   8  30   8  31  14  32  14  33  14  34  14  35  14  36   8
M  ISO  8  37   8  38  14  39  14  40  14  41  13  42  13  43  13  44  13
M  ISO  1  45  13
M  END
>  <minimizedAffinity>  (1) 
-6.200459

>  <minimizedRMSD>  (1) 
1.47396564

$$$$
