
     RDKit          3D

 39 41  0  0  0  0  0  0  0  0999 V2000
   46.6420   33.9850   43.7010 C   0  0  0  0  0  0  0  0  0  0  0  0
   47.4010   32.7930   43.4790 C   0  0  0  0  0  0  0  0  0  0  0  0
   47.4770   31.7200   44.4700 C   0  0  0  0  0  0  0  0  0  0  0  0
   46.7860   31.9170   45.6160 N   0  0  0  0  0  0  0  0  0  0  0  0
   46.0760   33.0370   45.8100 C   0  0  0  0  0  0  0  0  0  0  0  0
   46.0370   33.9860   44.8780 N   0  0  0  0  0  0  0  0  0  0  0  0
   48.1850   32.7450   42.2240 C   0  0  0  0  0  0  0  0  0  0  0  0
   47.8770   31.3860   41.4840 C   0  0  0  0  0  0  0  0  0  0  0  0
   48.8100   31.6410   40.2720 C   0  0  0  0  0  0  0  0  0  0  0  0
   50.0470   32.1480   40.9520 C   0  0  0  0  0  0  0  0  0  0  0  0
   49.5980   32.6010   42.3350 C   0  0  0  0  0  0  0  0  0  0  0  0
   46.4390   35.0860   42.8190 C   0  0  0  0  0  0  0  0  0  0  0  0
   45.5220   36.2020   43.0250 C   0  0  0  0  0  0  0  0  0  0  0  0
   44.0980   35.8800   43.3600 C   0  0  0  0  0  0  0  0  0  0  0  0
   43.5370   35.1760   42.1070 C   0  0  0  0  0  0  0  0  0  0  0  0
   44.4540   33.9670   41.9340 C   0  0  0  0  0  0  0  0  0  0  0  0
   45.8050   34.4720   41.5100 C   0  0  0  0  0  0  0  0  0  0  0  0
   48.0623   30.8055   44.2935 H   0  0  0  0  0  0  0  0  0  0  0  0
   45.5198   33.1732   46.7492 H   0  0  0  0  0  0  0  0  0  0  0  0
   47.9104   33.7012   41.7546 H   0  0  0  0  0  0  0  0  0  0  0  0
   48.1761   30.5056   42.0718 H   0  0  0  0  0  0  0  0  0  0  0  0
   46.8222   31.1635   41.2652 H   0  0  0  0  0  0  0  0  0  0  0  0
   48.3878   32.3945   39.5908 H   0  0  0  0  0  0  0  0  0  0  0  0
   48.9755   30.7573   39.6382 H   0  0  0  0  0  0  0  0  0  0  0  0
   50.7956   31.3463   41.0348 H   0  0  0  0  0  0  0  0  0  0  0  0
   50.5148   32.9679   40.3872 H   0  0  0  0  0  0  0  0  0  0  0  0
   50.0665   33.5601   42.6007 H   0  0  0  0  0  0  0  0  0  0  0  0
   49.8844   31.8873   43.1215 H   0  0  0  0  0  0  0  0  0  0  0  0
   47.4408   35.5335   42.8970 H   0  0  0  0  0  0  0  0  0  0  0  0
   45.9240   36.8098   43.8490 H   0  0  0  0  0  0  0  0  0  0  0  0
   45.4711   36.7042   42.0477 H   0  0  0  0  0  0  0  0  0  0  0  0
   44.0486   35.2119   44.2325 H   0  0  0  0  0  0  0  0  0  0  0  0
   43.5223   36.7812   43.6176 H   0  0  0  0  0  0  0  0  0  0  0  0
   42.4958   34.8595   42.2673 H   0  0  0  0  0  0  0  0  0  0  0  0
   43.5187   35.8289   41.2219 H   0  0  0  0  0  0  0  0  0  0  0  0
   44.5398   33.4231   42.8863 H   0  0  0  0  0  0  0  0  0  0  0  0
   44.0458   33.2802   41.1779 H   0  0  0  0  0  0  0  0  0  0  0  0
   46.4250   33.6465   41.1303 H   0  0  0  0  0  0  0  0  0  0  0  0
   45.7345   35.2111   40.6983 H   0  0  0  0  0  0  0  0  0  0  0  0
  1  6  2  0
  2  1  1  0
  2  3  2  0
  3  4  1  0
  4  5  2  0
  6  5  1  0
  7 11  1  0
  7  2  1  0
  8  7  1  0
  9 10  1  0
  9  8  1  0
 10 11  1  0
 12 13  1  0
 12  1  1  0
 13 14  1  0
 15 14  1  0
 16 15  1  0
 17 16  1  0
 17 12  1  0
  3 18  1  0
  5 19  1  0
  7 20  1  0
  8 21  1  0
  8 22  1  0
  9 23  1  0
  9 24  1  0
 10 25  1  0
 10 26  1  0
 11 27  1  0
 11 28  1  0
 12 29  1  0
 13 30  1  0
 13 31  1  0
 14 32  1  0
 14 33  1  0
 15 34  1  0
 15 35  1  0
 16 36  1  0
 16 37  1  0
 17 38  1  0
 17 39  1  0
M  ISO  8  18  14  19  14  20  13  21  13  22  13  23  13  24  13  25  13
M  ISO  8  26  13  27  13  28  13  29  13  30  13  31  13  32  13  33  13
M  ISO  6  34  13  35  13  36  13  37  13  38  13  39  13
M  END
>  <minimizedAffinity>  (1) 
-4.18536758

>  <minimizedRMSD>  (1) 
4.5146203

$$$$
