
     RDKit          3D

 24 25  0  0  0  0  0  0  0  0999 V2000
   44.0470   34.7800   41.6420 C   0  0  0  0  0  0  0  0  0  0  0  0
   42.4830   34.7510   41.5990 C   0  0  0  0  0  0  0  0  0  0  0  0
   42.3440   35.2510   40.1430 C   0  0  0  0  0  0  0  0  0  0  0  0
   43.3410   34.3640   39.4280 C   0  0  0  0  0  0  0  0  0  0  0  0
   44.3850   34.0090   40.4790 C   0  0  0  0  0  0  0  0  0  0  0  0
   44.7230   35.2860   43.9170 C   0  0  0  0  0  0  0  0  0  0  0  0
   44.5400   34.2970   42.9390 C   0  0  0  0  0  0  0  0  0  0  0  0
   44.9570   32.9370   43.1740 C   0  0  0  0  0  0  0  0  0  0  0  0
   45.5280   32.6800   44.3750 N   0  0  0  0  0  0  0  0  0  0  0  0
   45.7030   33.6530   45.3230 C   0  0  0  0  0  0  0  0  0  0  0  0
   45.3060   34.9430   45.1000 N   0  0  0  0  0  0  0  0  0  0  0  0
   44.3200   36.5900   43.6910 O   0  0  0  0  0  0  0  0  0  0  0  0
   44.5261   35.7689   41.5914 H   0  0  0  0  0  0  0  0  0  0  0  0
   42.0739   33.7398   41.7406 H   0  0  0  0  0  0  0  0  0  0  0  0
   41.9519   35.3213   42.3753 H   0  0  0  0  0  0  0  0  0  0  0  0
   41.3237   35.0994   39.7609 H   0  0  0  0  0  0  0  0  0  0  0  0
   42.5282   36.3281   40.0172 H   0  0  0  0  0  0  0  0  0  0  0  0
   42.8484   33.4555   39.0513 H   0  0  0  0  0  0  0  0  0  0  0  0
   43.7881   34.8664   38.5575 H   0  0  0  0  0  0  0  0  0  0  0  0
   44.3477   32.9338   40.7081 H   0  0  0  0  0  0  0  0  0  0  0  0
   45.4039   34.2304   40.1285 H   0  0  0  0  0  0  0  0  0  0  0  0
   44.8188   32.1499   42.4181 H   0  0  0  0  0  0  0  0  0  0  0  0
   46.1722   33.3919   46.2830 H   0  0  0  0  0  0  0  0  0  0  0  0
   43.8968   36.8352   42.8302 H   0  0  0  0  0  0  0  0  0  0  0  0
  1  7  1  0
  2  1  1  0
  3  2  1  0
  4  3  1  0
  4  5  1  0
  5  1  1  0
  6 11  2  0
  7  8  2  0
  7  6  1  0
  8  9  1  0
  9 10  2  0
 11 10  1  0
 12  6  1  0
  1 13  1  0
  2 14  1  0
  2 15  1  0
  3 16  1  0
  3 17  1  0
  4 18  1  0
  4 19  1  0
  5 20  1  0
  5 21  1  0
  8 22  1  0
 10 23  1  0
 12 24  1  0
M  ISO  8  13  13  14  13  15  13  16  13  17  13  18  13  19  13  20  13
M  ISO  4  21  13  22  14  23  14  24   3
M  END
>  <minimizedAffinity>  (1) 
-3.65886283

>  <minimizedRMSD>  (1) 
0.575042605

$$$$
