
     RDKit          3D

 24 25  0  0  0  0  0  0  0  0999 V2000
   47.4350   34.7780   42.0000 C   0  0  0  0  0  0  0  0  0  0  0  0
   48.5150   35.3820   40.9920 C   0  0  0  0  0  0  0  0  0  0  0  0
   49.6120   35.5980   42.0490 C   0  0  0  0  0  0  0  0  0  0  0  0
   49.5860   34.2710   42.7730 C   0  0  0  0  0  0  0  0  0  0  0  0
   48.1960   33.6820   42.5420 C   0  0  0  0  0  0  0  0  0  0  0  0
   45.0030   34.8750   41.8500 C   0  0  0  0  0  0  0  0  0  0  0  0
   46.2170   34.4350   41.2470 C   0  0  0  0  0  0  0  0  0  0  0  0
   46.1890   33.6250   40.0600 C   0  0  0  0  0  0  0  0  0  0  0  0
   44.9610   33.3170   39.5670 N   0  0  0  0  0  0  0  0  0  0  0  0
   43.8070   33.7510   40.1630 C   0  0  0  0  0  0  0  0  0  0  0  0
   43.8200   34.5230   41.2920 N   0  0  0  0  0  0  0  0  0  0  0  0
   44.8720   35.8670   43.3120 S   0  0  0  0  0  0  0  0  0  0  0  0
   47.0403   35.4208   42.8006 H   0  0  0  0  0  0  0  0  0  0  0  0
   48.8126   34.6686   40.2094 H   0  0  0  0  0  0  0  0  0  0  0  0
   48.2130   36.2547   40.3944 H   0  0  0  0  0  0  0  0  0  0  0  0
   50.5907   35.7837   41.5824 H   0  0  0  0  0  0  0  0  0  0  0  0
   49.4481   36.4705   42.6986 H   0  0  0  0  0  0  0  0  0  0  0  0
   50.3563   33.5999   42.3653 H   0  0  0  0  0  0  0  0  0  0  0  0
   49.7926   34.3976   43.8460 H   0  0  0  0  0  0  0  0  0  0  0  0
   47.7577   33.3328   43.4886 H   0  0  0  0  0  0  0  0  0  0  0  0
   48.2136   32.8090   41.8730 H   0  0  0  0  0  0  0  0  0  0  0  0
   47.1124   33.2733   39.5766 H   0  0  0  0  0  0  0  0  0  0  0  0
   42.8400   33.4702   39.7202 H   0  0  0  0  0  0  0  0  0  0  0  0
   44.9778   35.0660   44.4184 H   0  0  0  0  0  0  0  0  0  0  0  0
  1  5  1  0
  2  1  1  0
  2  3  1  0
  3  4  1  0
  5  4  1  0
  6 12  1  0
  7  6  2  0
  7  1  1  0
  8  7  1  0
  9  8  2  0
  9 10  1  0
 10 11  2  0
 11  6  1  0
  1 13  1  0
  2 14  1  0
  2 15  1  0
  3 16  1  0
  3 17  1  0
  4 18  1  0
  4 19  1  0
  5 20  1  0
  5 21  1  0
  8 22  1  0
 10 23  1  0
 12 24  1  0
M  ISO  8  13  13  14  13  15  13  16  13  17  13  18  13  19  13  20  13
M  ISO  4  21  13  22  14  23  14  24  11
M  END
>  <minimizedAffinity>  (1) 
-4.19611788

>  <minimizedRMSD>  (1) 
4.80256271

$$$$
