
     RDKit          3D

 47 50  0  0  0  0  0  0  0  0999 V2000
   47.5930   34.7850   41.6280 C   0  0  0  0  0  0  0  0  0  0  0  0
   47.3070   34.2850   40.2490 C   0  0  0  0  0  0  0  0  0  0  0  0
   48.2370   34.3460   39.2320 C   0  0  0  0  0  0  0  0  0  0  0  0
   48.0760   33.9200   37.9530 C   0  0  0  0  0  0  0  0  0  0  0  0
   46.8500   33.3810   37.6900 N   0  0  0  0  0  0  0  0  0  0  0  0
   45.9140   33.3040   38.6550 C   0  0  0  0  0  0  0  0  0  0  0  0
   46.0950   33.7340   39.9230 N   0  0  0  0  0  0  0  0  0  0  0  0
   44.6320   32.7150   38.2940 C   0  0  0  0  0  0  0  0  0  0  0  0
   43.4430   33.3050   38.7180 C   0  0  0  0  0  0  0  0  0  0  0  0
   42.2400   32.7470   38.3760 C   0  0  0  0  0  0  0  0  0  0  0  0
   42.1840   31.6400   37.6390 N   0  0  0  0  0  0  0  0  0  0  0  0
   43.3450   31.0870   37.2410 C   0  0  0  0  0  0  0  0  0  0  0  0
   44.5740   31.5960   37.5500 N   0  0  0  0  0  0  0  0  0  0  0  0
   47.2800   33.6940   42.5830 C   0  0  0  0  0  0  0  0  0  0  0  0
   44.7590   35.4670   44.7310 C   0  0  0  0  0  0  0  0  0  0  0  0
   45.5860   35.1050   43.6550 C   0  0  0  0  0  0  0  0  0  0  0  0
   46.4310   34.0470   43.7180 C   0  0  0  0  0  0  0  0  0  0  0  0
   46.4600   33.3340   44.8620 N   0  0  0  0  0  0  0  0  0  0  0  0
   45.6450   33.6990   45.9070 C   0  0  0  0  0  0  0  0  0  0  0  0
   44.8300   34.7200   45.8480 N   0  0  0  0  0  0  0  0  0  0  0  0
   45.8410   32.7800   47.0700 C   0  0  0  0  0  0  0  0  0  0  0  0
   44.8930   32.4530   48.1430 C   0  0  0  0  0  0  0  0  0  0  0  0
   45.9260   31.3100   49.0890 S   0  0  0  0  0  0  0  0  0  0  0  0
   47.4120   31.4590   47.9190 C   0  0  0  0  0  0  0  0  0  0  0  0
   47.0550   32.3000   46.9620 N   0  0  0  0  0  0  0  0  0  0  0  0
   48.6970   30.6840   48.1820 C   0  0  0  0  0  0  0  0  0  0  0  0
   48.4320   29.3050   47.6750 C   0  0  0  0  0  0  0  0  0  0  0  0
   49.0090   30.7310   49.6530 C   0  0  0  0  0  0  0  0  0  0  0  0
   46.9662   35.6626   41.8448 H   0  0  0  0  0  0  0  0  0  0  0  0
   48.6488   35.0807   41.7169 H   0  0  0  0  0  0  0  0  0  0  0  0
   49.2128   34.7867   39.4841 H   0  0  0  0  0  0  0  0  0  0  0  0
   48.8669   34.0023   37.1929 H   0  0  0  0  0  0  0  0  0  0  0  0
   43.4707   34.2199   39.3281 H   0  0  0  0  0  0  0  0  0  0  0  0
   41.3068   33.2203   38.7152 H   0  0  0  0  0  0  0  0  0  0  0  0
   43.3012   30.1722   36.6317 H   0  0  0  0  0  0  0  0  0  0  0  0
   46.7739   32.8940   42.0228 H   0  0  0  0  0  0  0  0  0  0  0  0
   48.2463   33.4032   43.0207 H   0  0  0  0  0  0  0  0  0  0  0  0
   44.0788   36.3288   44.6631 H   0  0  0  0  0  0  0  0  0  0  0  0
   45.5466   35.6998   42.7305 H   0  0  0  0  0  0  0  0  0  0  0  0
   43.8638   32.7994   48.3184 H   0  0  0  0  0  0  0  0  0  0  0  0
   49.5806   31.1007   47.6764 H   0  0  0  0  0  0  0  0  0  0  0  0
   48.3005   28.6205   48.5259 H   0  0  0  0  0  0  0  0  0  0  0  0
   47.5181   29.3087   47.0628 H   0  0  0  0  0  0  0  0  0  0  0  0
   49.2822   28.9698   47.0628 H   0  0  0  0  0  0  0  0  0  0  0  0
   48.0823   30.5914   50.2290 H   0  0  0  0  0  0  0  0  0  0  0  0
   49.7202   29.9299   49.9028 H   0  0  0  0  0  0  0  0  0  0  0  0
   49.4526   31.7061   49.9028 H   0  0  0  0  0  0  0  0  0  0  0  0
  1 14  1  0
  2  1  1  0
  3  2  2  0
  4  3  1  0
  5  4  2  0
  5  6  1  0
  6  7  2  0
  7  2  1  0
  8  6  1  0
  8  9  2  0
 10  9  1  0
 11 10  2  0
 12 13  2  0
 12 11  1  0
 13  8  1  0
 14 17  1  0
 15 20  2  0
 16 17  2  0
 16 15  1  0
 17 18  1  0
 18 19  2  0
 19 21  1  0
 20 19  1  0
 21 22  2  0
 22 23  1  0
 24 26  1  0
 24 23  1  0
 25 21  1  0
 25 24  2  0
 26 28  1  0
 27 26  1  0
  1 29  1  0
  1 30  1  0
  3 31  1  0
  4 32  1  0
  9 33  1  0
 10 34  1  0
 12 35  1  0
 14 36  1  0
 14 37  1  0
 15 38  1  0
 16 39  1  0
 22 40  1  0
 26 41  1  0
 27 42  1  0
 27 43  1  0
 27 44  1  0
 28 45  1  0
 28 46  1  0
 28 47  1  0
M  ISO  8  29   8  30   8  31  14  32  14  33  14  34  14  35  14  36   8
M  ISO  8  37   8  38  14  39  14  40  14  41   8  42   8  43   8  44   8
M  ISO  3  45   8  46   8  47   8
M  END
>  <minimizedAffinity>  (1) 
-6.03699398

>  <minimizedRMSD>  (1) 
0.393766016

$$$$
