
     RDKit          3D

 41 44  0  0  0  0  0  0  0  0999 V2000
   42.6260   32.5660   41.7050 C   0  0  0  0  0  0  0  0  0  0  0  0
   41.6910   33.1760   40.8860 C   0  0  0  0  0  0  0  0  0  0  0  0
   42.0790   34.2310   39.9820 C   0  0  0  0  0  0  0  0  0  0  0  0
   43.3800   34.5830   39.9850 N   0  0  0  0  0  0  0  0  0  0  0  0
   44.2930   33.9960   40.7810 C   0  0  0  0  0  0  0  0  0  0  0  0
   43.9200   33.0020   41.6260 N   0  0  0  0  0  0  0  0  0  0  0  0
   42.2520   31.5200   42.5680 N   0  0  0  0  0  0  0  0  0  0  0  0
   40.2950   32.8030   41.0670 C   0  0  0  0  0  0  0  0  0  0  0  0
   39.9400   31.5490   40.1670 C   0  0  0  0  0  0  0  0  0  0  0  0
   38.4480   31.4660   40.5920 C   0  0  0  0  0  0  0  0  0  0  0  0
   38.0310   32.9030   40.4750 C   0  0  0  0  0  0  0  0  0  0  0  0
   39.2830   33.7320   40.7540 C   0  0  0  0  0  0  0  0  0  0  0  0
   45.7200   34.2660   40.8970 C   0  0  0  0  0  0  0  0  0  0  0  0
   46.3000   34.9500   41.9720 C   0  0  0  0  0  0  0  0  0  0  0  0
   47.6200   35.2180   42.1100 C   0  0  0  0  0  0  0  0  0  0  0  0
   48.5020   34.8150   41.1620 C   0  0  0  0  0  0  0  0  0  0  0  0
   48.0280   34.1410   40.0790 C   0  0  0  0  0  0  0  0  0  0  0  0
   48.9420   33.7410   39.1270 C   0  0  0  0  0  0  0  0  0  0  0  0
   48.5470   33.0590   38.0110 C   0  0  0  0  0  0  0  0  0  0  0  0
   47.1800   32.7920   37.8830 C   0  0  0  0  0  0  0  0  0  0  0  0
   46.3060   33.2110   38.8600 C   0  0  0  0  0  0  0  0  0  0  0  0
   46.6780   33.8930   39.9840 C   0  0  0  0  0  0  0  0  0  0  0  0
   41.3492   34.7238   39.3228 H   0  0  0  0  0  0  0  0  0  0  0  0
   42.9568   31.0741   43.1725 H   0  0  0  0  0  0  0  0  0  0  0  0
   41.2734   31.2000   42.5954 H   0  0  0  0  0  0  0  0  0  0  0  0
   40.2757   32.6556   42.1569 H   0  0  0  0  0  0  0  0  0  0  0  0
   40.5119   30.6510   40.4438 H   0  0  0  0  0  0  0  0  0  0  0  0
   40.1530   31.6258   39.0906 H   0  0  0  0  0  0  0  0  0  0  0  0
   37.8705   30.8221   39.9124 H   0  0  0  0  0  0  0  0  0  0  0  0
   38.2861   31.0287   41.5883 H   0  0  0  0  0  0  0  0  0  0  0  0
   37.6541   33.1098   39.4625 H   0  0  0  0  0  0  0  0  0  0  0  0
   37.2231   33.1455   41.1811 H   0  0  0  0  0  0  0  0  0  0  0  0
   39.5613   34.3170   39.8650 H   0  0  0  0  0  0  0  0  0  0  0  0
   39.1213   34.4471   41.5741 H   0  0  0  0  0  0  0  0  0  0  0  0
   45.6281   35.2984   42.7702 H   0  0  0  0  0  0  0  0  0  0  0  0
   47.9784   35.7648   42.9946 H   0  0  0  0  0  0  0  0  0  0  0  0
   49.5761   35.0281   41.2661 H   0  0  0  0  0  0  0  0  0  0  0  0
   50.0074   33.9751   39.2686 H   0  0  0  0  0  0  0  0  0  0  0  0
   49.2705   32.7349   37.2485 H   0  0  0  0  0  0  0  0  0  0  0  0
   46.8044   32.2484   37.0035 H   0  0  0  0  0  0  0  0  0  0  0  0
   45.2383   32.9819   38.7274 H   0  0  0  0  0  0  0  0  0  0  0  0
  1  7  1  0
  2  8  1  0
  2  1  2  0
  3  4  2  0
  3  2  1  0
  4  5  1  0
  5 13  1  0
  5  6  2  0
  6  1  1  0
  9 10  1  0
  9  8  1  0
 11 10  1  0
 11 12  1  0
 12  8  1  0
 13 14  2  0
 14 15  1  0
 16 15  2  0
 17 16  1  0
 18 17  2  0
 19 18  1  0
 20 19  2  0
 20 21  1  0
 21 22  2  0
 22 17  1  0
 22 13  1  0
  3 23  1  0
  7 24  1  0
  7 25  1  0
  8 26  1  0
  9 27  1  0
  9 28  1  0
 10 29  1  0
 10 30  1  0
 11 31  1  0
 11 32  1  0
 12 33  1  0
 12 34  1  0
 14 35  1  0
 15 36  1  0
 16 37  1  0
 18 38  1  0
 19 39  1  0
 20 40  1  0
 21 41  1  0
M  ISO  8  23  14  26  13  27  13  28  13  29  13  30  13  31  13  32  13
M  ISO  8  33  13  34  13  35  14  36  14  37  14  38  14  39  14  40  14
M  ISO  1  41  14
M  END
>  <minimizedAffinity>  (1) 
-5.51844454

>  <minimizedRMSD>  (1) 
6.70022011

$$$$
