
     RDKit          3D

 41 43  0  0  0  0  0  0  0  0999 V2000
   44.9050   35.0180   44.1660 C   0  0  0  0  0  0  0  0  0  0  0  0
   44.6770   34.1470   43.1100 C   0  0  0  0  0  0  0  0  0  0  0  0
   45.0110   32.7470   43.2100 C   0  0  0  0  0  0  0  0  0  0  0  0
   45.5630   32.3200   44.3770 N   0  0  0  0  0  0  0  0  0  0  0  0
   45.7830   33.1890   45.4030 C   0  0  0  0  0  0  0  0  0  0  0  0
   45.4630   34.5270   45.3190 N   0  0  0  0  0  0  0  0  0  0  0  0
   44.5430   36.3710   44.0660 N   0  0  0  0  0  0  0  0  0  0  0  0
   44.2300   34.7180   41.8530 C   0  0  0  0  0  0  0  0  0  0  0  0
   42.6540   34.7060   41.7650 C   0  0  0  0  0  0  0  0  0  0  0  0
   42.5710   35.3560   40.3480 C   0  0  0  0  0  0  0  0  0  0  0  0
   43.6170   34.5710   39.5960 C   0  0  0  0  0  0  0  0  0  0  0  0
   44.6400   34.1360   40.6360 C   0  0  0  0  0  0  0  0  0  0  0  0
   46.3840   32.7820   46.7030 C   0  0  0  0  0  0  0  0  0  0  0  0
   47.1690   31.5150   46.5440 C   0  0  0  0  0  0  0  0  0  0  0  0
   47.7900   31.1470   47.8620 C   0  0  0  0  0  0  0  0  0  0  0  0
   46.8160   31.0800   49.0000 C   0  0  0  0  0  0  0  0  0  0  0  0
   45.9090   32.2880   49.0770 C   0  0  0  0  0  0  0  0  0  0  0  0
   45.2820   32.4580   47.7220 C   0  0  0  0  0  0  0  0  0  0  0  0
   44.8267   32.0534   42.3763 H   0  0  0  0  0  0  0  0  0  0  0  0
   44.1247   36.7292   43.1956 H   0  0  0  0  0  0  0  0  0  0  0  0
   44.6957   37.0052   44.8631 H   0  0  0  0  0  0  0  0  0  0  0  0
   44.7140   35.7037   41.9168 H   0  0  0  0  0  0  0  0  0  0  0  0
   42.2336   33.6899   41.7928 H   0  0  0  0  0  0  0  0  0  0  0  0
   42.1001   35.1977   42.5783 H   0  0  0  0  0  0  0  0  0  0  0  0
   41.5734   35.2249   39.9035 H   0  0  0  0  0  0  0  0  0  0  0  0
   42.7362   36.4435   40.3428 H   0  0  0  0  0  0  0  0  0  0  0  0
   43.1632   33.6921   39.1147 H   0  0  0  0  0  0  0  0  0  0  0  0
   44.0804   35.1739   38.8012 H   0  0  0  0  0  0  0  0  0  0  0  0
   44.6542   33.0395   40.7226 H   0  0  0  0  0  0  0  0  0  0  0  0
   45.6558   34.4550   40.3594 H   0  0  0  0  0  0  0  0  0  0  0  0
   47.0196   33.6147   47.0386 H   0  0  0  0  0  0  0  0  0  0  0  0
   46.4994   30.7067   46.2148 H   0  0  0  0  0  0  0  0  0  0  0  0
   47.9589   31.6626   45.7928 H   0  0  0  0  0  0  0  0  0  0  0  0
   48.2661   30.1610   47.7563 H   0  0  0  0  0  0  0  0  0  0  0  0
   48.5096   31.9422   48.1067 H   0  0  0  0  0  0  0  0  0  0  0  0
   46.1931   30.1820   48.8752 H   0  0  0  0  0  0  0  0  0  0  0  0
   47.4011   31.0495   49.9310 H   0  0  0  0  0  0  0  0  0  0  0  0
   45.1292   32.1264   49.8358 H   0  0  0  0  0  0  0  0  0  0  0  0
   46.4771   33.1862   49.3606 H   0  0  0  0  0  0  0  0  0  0  0  0
   44.5533   33.2815   47.7527 H   0  0  0  0  0  0  0  0  0  0  0  0
   44.7650   31.5317   47.4310 H   0  0  0  0  0  0  0  0  0  0  0  0
  1  6  2  0
  2  3  2  0
  2  1  1  0
  3  4  1  0
  4  5  2  0
  5 13  1  0
  6  5  1  0
  7  1  1  0
  8  2  1  0
  9  8  1  0
 10  9  1  0
 11 10  1  0
 11 12  1  0
 12  8  1  0
 13 18  1  0
 14 13  1  0
 14 15  1  0
 15 16  1  0
 16 17  1  0
 18 17  1  0
  3 19  1  0
  7 20  1  0
  7 21  1  0
  8 22  1  0
  9 23  1  0
  9 24  1  0
 10 25  1  0
 10 26  1  0
 11 27  1  0
 11 28  1  0
 12 29  1  0
 12 30  1  0
 13 31  1  0
 14 32  1  0
 14 33  1  0
 15 34  1  0
 15 35  1  0
 16 36  1  0
 16 37  1  0
 17 38  1  0
 17 39  1  0
 18 40  1  0
 18 41  1  0
M  ISO  8  19  14  22  13  23  13  24  13  25  13  26  13  27  13  28  13
M  ISO  8  29  13  30  13  31  13  32  13  33  13  34  13  35  13  36  13
M  ISO  5  37  13  38  13  39  13  40  13  41  13
M  END
>  <minimizedAffinity>  (1) 
-5.36720991

>  <minimizedRMSD>  (1) 
1.20998001

$$$$
