
     RDKit          3D

 38 40  0  0  0  0  0  0  0  0999 V2000
   44.6880   34.9090   43.4920 C   0  0  0  0  0  0  0  0  0  0  0  0
   44.1750   34.1130   42.4800 C   0  0  0  0  0  0  0  0  0  0  0  0
   44.3580   32.6820   42.4810 C   0  0  0  0  0  0  0  0  0  0  0  0
   45.0600   32.1520   43.5190 N   0  0  0  0  0  0  0  0  0  0  0  0
   45.5640   32.9430   44.5100 C   0  0  0  0  0  0  0  0  0  0  0  0
   45.3890   34.3140   44.5140 N   0  0  0  0  0  0  0  0  0  0  0  0
   44.4780   36.2990   43.4920 N   0  0  0  0  0  0  0  0  0  0  0  0
   43.5440   34.7940   41.3520 C   0  0  0  0  0  0  0  0  0  0  0  0
   41.9700   34.7320   41.4850 C   0  0  0  0  0  0  0  0  0  0  0  0
   41.6690   35.4920   40.1580 C   0  0  0  0  0  0  0  0  0  0  0  0
   42.6010   34.8140   39.2070 C   0  0  0  0  0  0  0  0  0  0  0  0
   43.8000   34.3500   40.0390 C   0  0  0  0  0  0  0  0  0  0  0  0
   47.7610   31.2800   47.7860 C   0  0  0  0  0  0  0  0  0  0  0  0
   47.1990   32.5430   47.8540 C   0  0  0  0  0  0  0  0  0  0  0  0
   46.4900   33.0580   46.7720 C   0  0  0  0  0  0  0  0  0  0  0  0
   46.3170   32.3560   45.6140 C   0  0  0  0  0  0  0  0  0  0  0  0
   46.8680   31.0910   45.5180 C   0  0  0  0  0  0  0  0  0  0  0  0
   47.5620   30.6080   46.5990 C   0  0  0  0  0  0  0  0  0  0  0  0
   48.6490   30.6300   49.1350 S   0  0  0  0  0  0  0  0  0  0  0  0
   49.3900   29.4150   48.6680 O   0  0  0  0  0  0  0  0  0  0  0  0
   49.5900   31.6470   49.6810 O   0  0  0  0  0  0  0  0  0  0  0  0
   43.9490   32.0489   41.6798 H   0  0  0  0  0  0  0  0  0  0  0  0
   43.9522   36.7404   42.7242 H   0  0  0  0  0  0  0  0  0  0  0  0
   44.8500   36.8760   44.2598 H   0  0  0  0  0  0  0  0  0  0  0  0
   44.0069   35.7877   41.4432 H   0  0  0  0  0  0  0  0  0  0  0  0
   41.5829   33.7024   41.4831 H   0  0  0  0  0  0  0  0  0  0  0  0
   41.5265   35.1347   42.4075 H   0  0  0  0  0  0  0  0  0  0  0  0
   40.6202   35.3652   39.8516 H   0  0  0  0  0  0  0  0  0  0  0  0
   41.8098   36.5810   40.2235 H   0  0  0  0  0  0  0  0  0  0  0  0
   42.9278   35.5175   38.4270 H   0  0  0  0  0  0  0  0  0  0  0  0
   42.1122   33.9674   38.7027 H   0  0  0  0  0  0  0  0  0  0  0  0
   43.8837   33.2535   40.0138 H   0  0  0  0  0  0  0  0  0  0  0  0
   44.7464   34.7535   39.6498 H   0  0  0  0  0  0  0  0  0  0  0  0
   47.3132   33.1436   48.7685 H   0  0  0  0  0  0  0  0  0  0  0  0
   46.0544   34.0648   46.8530 H   0  0  0  0  0  0  0  0  0  0  0  0
   46.7535   30.4906   44.6034 H   0  0  0  0  0  0  0  0  0  0  0  0
   47.9955   29.6009   46.5109 H   0  0  0  0  0  0  0  0  0  0  0  0
   47.7863   30.2871   50.1425 H   0  0  0  0  0  0  0  0  0  0  0  0
  1  6  2  0
  2  3  2  0
  2  1  1  0
  3  4  1  0
  4  5  2  0
  5  6  1  0
  5 16  1  0
  7  1  1  0
  8  9  1  0
  8  2  1  0
 10  9  1  0
 11 12  1  0
 11 10  1  0
 12  8  1  0
 13 14  2  0
 13 19  1  0
 15 14  1  0
 16 15  2  0
 17 16  1  0
 17 18  2  0
 18 13  1  0
 19 21  2  0
 20 19  2  0
  3 22  1  0
  7 23  1  0
  7 24  1  0
  8 25  1  0
  9 26  1  0
  9 27  1  0
 10 28  1  0
 10 29  1  0
 11 30  1  0
 11 31  1  0
 12 32  1  0
 12 33  1  0
 14 34  1  0
 15 35  1  0
 17 36  1  0
 18 37  1  0
 19 38  1  0
M  ISO  8  22  14  25  13  26  13  27  13  28  13  29  13  30  13  31  13
M  ISO  7  32  13  33  13  34  14  35  14  36  14  37  14  38  11
M  END
>  <minimizedAffinity>  (1) 
-5.38274717

>  <minimizedRMSD>  (1) 
1.46483397

$$$$
