
     RDKit          3D

 38 41  0  0  0  0  0  0  0  0999 V2000
   44.8000   34.7660   43.8100 C   0  0  0  0  0  0  0  0  0  0  0  0
   44.5150   33.9160   42.7510 C   0  0  0  0  0  0  0  0  0  0  0  0
   44.7700   32.4930   42.8470 C   0  0  0  0  0  0  0  0  0  0  0  0
   45.2990   32.0400   44.0070 N   0  0  0  0  0  0  0  0  0  0  0  0
   45.5790   32.8830   45.0400 C   0  0  0  0  0  0  0  0  0  0  0  0
   45.3360   34.2410   44.9580 N   0  0  0  0  0  0  0  0  0  0  0  0
   44.5230   36.1410   43.7230 N   0  0  0  0  0  0  0  0  0  0  0  0
   46.1370   32.4550   46.2780 N   0  0  0  0  0  0  0  0  0  0  0  0
   45.8400   32.9880   47.4880 C   0  0  0  0  0  0  0  0  0  0  0  0
   46.5260   32.3740   48.4680 N   0  0  0  0  0  0  0  0  0  0  0  0
   47.2870   31.4210   47.8990 C   0  0  0  0  0  0  0  0  0  0  0  0
   48.1790   30.4930   48.3810 C   0  0  0  0  0  0  0  0  0  0  0  0
   48.7700   29.6810   47.5010 N   0  0  0  0  0  0  0  0  0  0  0  0
   48.5470   29.7180   46.1800 C   0  0  0  0  0  0  0  0  0  0  0  0
   47.6690   30.6330   45.7160 N   0  0  0  0  0  0  0  0  0  0  0  0
   47.0360   31.4830   46.5450 C   0  0  0  0  0  0  0  0  0  0  0  0
   44.0720   34.5270   41.5050 C   0  0  0  0  0  0  0  0  0  0  0  0
   42.4910   34.5790   41.4550 C   0  0  0  0  0  0  0  0  0  0  0  0
   42.3930   35.2120   40.0400 C   0  0  0  0  0  0  0  0  0  0  0  0
   43.3960   34.4260   39.2740 C   0  0  0  0  0  0  0  0  0  0  0  0
   44.4270   33.9260   40.2830 C   0  0  0  0  0  0  0  0  0  0  0  0
   48.3950   30.4800   49.7890 N   0  0  0  0  0  0  0  0  0  0  0  0
   44.5436   31.8113   42.0139 H   0  0  0  0  0  0  0  0  0  0  0  0
   44.1204   36.5316   42.8591 H   0  0  0  0  0  0  0  0  0  0  0  0
   44.7225   36.7582   44.5231 H   0  0  0  0  0  0  0  0  0  0  0  0
   45.1312   33.8140   47.6474 H   0  0  0  0  0  0  0  0  0  0  0  0
   49.0618   29.0264   45.4969 H   0  0  0  0  0  0  0  0  0  0  0  0
   44.5970   35.4922   41.5579 H   0  0  0  0  0  0  0  0  0  0  0  0
   42.0313   33.5810   41.5067 H   0  0  0  0  0  0  0  0  0  0  0  0
   41.9803   35.1041   42.2757 H   0  0  0  0  0  0  0  0  0  0  0  0
   41.3845   35.0908   39.6179 H   0  0  0  0  0  0  0  0  0  0  0  0
   42.5786   36.2962   40.0275 H   0  0  0  0  0  0  0  0  0  0  0  0
   42.9097   33.5745   38.7756 H   0  0  0  0  0  0  0  0  0  0  0  0
   43.8708   35.0423   38.4963 H   0  0  0  0  0  0  0  0  0  0  0  0
   44.3849   32.8299   40.3660 H   0  0  0  0  0  0  0  0  0  0  0  0
   45.4534   34.1830   39.9823 H   0  0  0  0  0  0  0  0  0  0  0  0
   49.0534   29.8046   50.2028 H   0  0  0  0  0  0  0  0  0  0  0  0
   47.8928   31.1460   50.3932 H   0  0  0  0  0  0  0  0  0  0  0  0
  1  6  2  0
  2  3  2  0
  2  1  1  0
  3  4  1  0
  4  5  2  0
  5  8  1  0
  6  5  1  0
  7  1  1  0
  8 16  1  0
  8  9  1  0
  9 10  2  0
 11 12  2  0
 11 10  1  0
 12 22  1  0
 13 12  1  0
 14 13  2  0
 15 14  1  0
 15 16  2  0
 16 11  1  0
 17  2  1  0
 18 17  1  0
 19 18  1  0
 20 19  1  0
 20 21  1  0
 21 17  1  0
  3 23  1  0
  7 24  1  0
  7 25  1  0
  9 26  1  0
 14 27  1  0
 17 28  1  0
 18 29  1  0
 18 30  1  0
 19 31  1  0
 19 32  1  0
 20 33  1  0
 20 34  1  0
 21 35  1  0
 21 36  1  0
 22 37  1  0
 22 38  1  0
M  ISO  8  23  14  26  14  27  14  28  13  29  13  30  13  31  13  32  13
M  ISO  4  33  13  34  13  35  13  36  13
M  END
>  <minimizedAffinity>  (1) 
-5.85801935

>  <minimizedRMSD>  (1) 
0.849736929

$$$$
