
     RDKit          3D

 41 44  0  0  0  0  0  0  0  0999 V2000
   47.5530   34.7370   41.7200 C   0  0  0  0  0  0  0  0  0  0  0  0
   47.2780   34.2590   40.3280 C   0  0  0  0  0  0  0  0  0  0  0  0
   48.2170   34.3420   39.3170 C   0  0  0  0  0  0  0  0  0  0  0  0
   48.0720   33.9410   38.0270 C   0  0  0  0  0  0  0  0  0  0  0  0
   46.8470   33.4020   37.7520 N   0  0  0  0  0  0  0  0  0  0  0  0
   45.9050   33.3030   38.7140 C   0  0  0  0  0  0  0  0  0  0  0  0
   46.0820   33.7130   39.9880 N   0  0  0  0  0  0  0  0  0  0  0  0
   44.6290   32.7160   38.3300 C   0  0  0  0  0  0  0  0  0  0  0  0
   43.4350   33.3090   38.7330 C   0  0  0  0  0  0  0  0  0  0  0  0
   42.2350   32.7570   38.3730 C   0  0  0  0  0  0  0  0  0  0  0  0
   42.1870   31.6450   37.6340 N   0  0  0  0  0  0  0  0  0  0  0  0
   43.3530   31.0850   37.2540 C   0  0  0  0  0  0  0  0  0  0  0  0
   44.5660   31.6020   37.5900 N   0  0  0  0  0  0  0  0  0  0  0  0
   47.2270   33.6390   42.6590 C   0  0  0  0  0  0  0  0  0  0  0  0
   44.7230   35.3820   44.8440 C   0  0  0  0  0  0  0  0  0  0  0  0
   45.5380   35.0220   43.7560 C   0  0  0  0  0  0  0  0  0  0  0  0
   46.3980   33.9740   43.8090 C   0  0  0  0  0  0  0  0  0  0  0  0
   46.4540   33.2710   44.9550 N   0  0  0  0  0  0  0  0  0  0  0  0
   45.6570   33.6250   46.0140 C   0  0  0  0  0  0  0  0  0  0  0  0
   44.8290   34.6340   45.9640 N   0  0  0  0  0  0  0  0  0  0  0  0
   45.8810   32.7100   47.1720 C   0  0  0  0  0  0  0  0  0  0  0  0
   44.8770   31.9940   47.9690 C   0  0  0  0  0  0  0  0  0  0  0  0
   45.9940   31.1520   49.1250 S   0  0  0  0  0  0  0  0  0  0  0  0
   47.5630   31.8810   48.3650 C   0  0  0  0  0  0  0  0  0  0  0  0
   47.1720   32.6610   47.3550 N   0  0  0  0  0  0  0  0  0  0  0  0
   48.8400   31.4520   49.0190 C   0  0  0  0  0  0  0  0  0  0  0  0
   46.9287   35.6149   41.9424 H   0  0  0  0  0  0  0  0  0  0  0  0
   48.6104   35.0227   41.8218 H   0  0  0  0  0  0  0  0  0  0  0  0
   49.1888   34.7811   39.5866 H   0  0  0  0  0  0  0  0  0  0  0  0
   48.8673   34.0410   37.2737 H   0  0  0  0  0  0  0  0  0  0  0  0
   43.4562   34.2243   39.3428 H   0  0  0  0  0  0  0  0  0  0  0  0
   41.2985   33.2351   38.6963 H   0  0  0  0  0  0  0  0  0  0  0  0
   43.3224   30.1693   36.6452 H   0  0  0  0  0  0  0  0  0  0  0  0
   46.7019   32.8593   42.0877 H   0  0  0  0  0  0  0  0  0  0  0  0
   48.1937   33.3319   43.0846 H   0  0  0  0  0  0  0  0  0  0  0  0
   44.0302   36.2344   44.7857 H   0  0  0  0  0  0  0  0  0  0  0  0
   45.4760   35.6110   42.8291 H   0  0  0  0  0  0  0  0  0  0  0  0
   43.7801   31.9740   47.8895 H   0  0  0  0  0  0  0  0  0  0  0  0
   48.7233   31.4912   50.1121 H   0  0  0  0  0  0  0  0  0  0  0  0
   49.0813   30.4235   48.7127 H   0  0  0  0  0  0  0  0  0  0  0  0
   49.6534   32.1262   48.7127 H   0  0  0  0  0  0  0  0  0  0  0  0
  1 14  1  0
  2  1  1  0
  3  2  2  0
  4  3  1  0
  5  4  2  0
  5  6  1  0
  6  7  2  0
  7  2  1  0
  8  6  1  0
  8  9  2  0
 10  9  1  0
 11 10  2  0
 12 13  2  0
 12 11  1  0
 13  8  1  0
 14 17  1  0
 15 20  2  0
 16 17  2  0
 16 15  1  0
 17 18  1  0
 18 19  2  0
 19 21  1  0
 20 19  1  0
 21 25  1  0
 21 22  2  0
 22 23  1  0
 24 26  1  0
 24 23  1  0
 25 24  2  0
  1 27  1  0
  1 28  1  0
  3 29  1  0
  4 30  1  0
  9 31  1  0
 10 32  1  0
 12 33  1  0
 14 34  1  0
 14 35  1  0
 15 36  1  0
 16 37  1  0
 22 38  1  0
 26 39  1  0
 26 40  1  0
 26 41  1  0
M  ISO  8  27   8  28   8  29  14  30  14  31  14  32  14  33  14  34   8
M  ISO  7  35   8  36  14  37  14  38  14  39   8  40   8  41   8
M  END
>  <minimizedAffinity>  (1) 
-5.99676895

>  <minimizedRMSD>  (1) 
0.0590018071

$$$$
