
     RDKit          3D

 39 42  0  0  0  0  0  0  0  0999 V2000
   47.5950   34.8790   41.8340 C   0  0  0  0  0  0  0  0  0  0  0  0
   47.2910   34.3410   40.4780 C   0  0  0  0  0  0  0  0  0  0  0  0
   48.2280   34.2820   39.4670 C   0  0  0  0  0  0  0  0  0  0  0  0
   48.0460   33.8100   38.2010 C   0  0  0  0  0  0  0  0  0  0  0  0
   46.7810   33.3530   37.9470 N   0  0  0  0  0  0  0  0  0  0  0  0
   45.8380   33.3930   38.9090 C   0  0  0  0  0  0  0  0  0  0  0  0
   46.0430   33.8680   40.1610 N   0  0  0  0  0  0  0  0  0  0  0  0
   44.5230   32.8900   38.5580 C   0  0  0  0  0  0  0  0  0  0  0  0
   43.3720   33.4710   39.1070 C   0  0  0  0  0  0  0  0  0  0  0  0
   42.1330   32.9920   38.7730 C   0  0  0  0  0  0  0  0  0  0  0  0
   42.0030   31.9680   37.9230 N   0  0  0  0  0  0  0  0  0  0  0  0
   43.1210   31.4250   37.4090 C   0  0  0  0  0  0  0  0  0  0  0  0
   44.3830   31.8580   37.7030 N   0  0  0  0  0  0  0  0  0  0  0  0
   47.3940   33.7880   42.8160 C   0  0  0  0  0  0  0  0  0  0  0  0
   44.7080   35.3640   44.9160 C   0  0  0  0  0  0  0  0  0  0  0  0
   45.5880   35.0750   43.8560 C   0  0  0  0  0  0  0  0  0  0  0  0
   46.4900   34.0610   43.9290 C   0  0  0  0  0  0  0  0  0  0  0  0
   46.5250   33.3220   45.0600 N   0  0  0  0  0  0  0  0  0  0  0  0
   45.6640   33.6100   46.0840 C   0  0  0  0  0  0  0  0  0  0  0  0
   44.7840   34.5980   46.0140 N   0  0  0  0  0  0  0  0  0  0  0  0
   45.8590   32.6860   47.2400 C   0  0  0  0  0  0  0  0  0  0  0  0
   44.8480   31.9920   48.0280 C   0  0  0  0  0  0  0  0  0  0  0  0
   45.9360   31.1280   49.1920 S   0  0  0  0  0  0  0  0  0  0  0  0
   47.5370   31.8420   48.4230 C   0  0  0  0  0  0  0  0  0  0  0  0
   47.1490   32.6190   47.4220 N   0  0  0  0  0  0  0  0  0  0  0  0
   49.0800   31.3090   49.2070 S   0  0  0  0  0  0  0  0  0  0  0  0
   46.9196   35.7164   42.0632 H   0  0  0  0  0  0  0  0  0  0  0  0
   48.6317   35.2444   41.8762 H   0  0  0  0  0  0  0  0  0  0  0  0
   49.2332   34.6574   39.7092 H   0  0  0  0  0  0  0  0  0  0  0  0
   48.8475   33.7975   37.4478 H   0  0  0  0  0  0  0  0  0  0  0  0
   43.4638   34.3138   39.8079 H   0  0  0  0  0  0  0  0  0  0  0  0
   41.2352   33.4547   39.2087 H   0  0  0  0  0  0  0  0  0  0  0  0
   43.0129   30.5822   36.7104 H   0  0  0  0  0  0  0  0  0  0  0  0
   46.9973   32.9189   42.2709 H   0  0  0  0  0  0  0  0  0  0  0  0
   48.3799   33.6324   43.2783 H   0  0  0  0  0  0  0  0  0  0  0  0
   43.9837   36.1889   44.8461 H   0  0  0  0  0  0  0  0  0  0  0  0
   45.5444   35.6870   42.9430 H   0  0  0  0  0  0  0  0  0  0  0  0
   43.7514   31.9925   47.9419 H   0  0  0  0  0  0  0  0  0  0  0  0
   48.9406   31.3572   50.5690 H   0  0  0  0  0  0  0  0  0  0  0  0
  1 14  1  0
  2  1  1  0
  3  2  2  0
  4  3  1  0
  5  4  2  0
  5  6  1  0
  6  7  2  0
  7  2  1  0
  8  6  1  0
  8  9  2  0
 10  9  1  0
 11 10  2  0
 12 13  2  0
 12 11  1  0
 13  8  1  0
 14 17  1  0
 15 20  2  0
 16 17  2  0
 16 15  1  0
 17 18  1  0
 18 19  2  0
 19 21  1  0
 20 19  1  0
 21 25  1  0
 21 22  2  0
 22 23  1  0
 24 23  1  0
 24 26  1  0
 25 24  2  0
  1 27  1  0
  1 28  1  0
  3 29  1  0
  4 30  1  0
  9 31  1  0
 10 32  1  0
 12 33  1  0
 14 34  1  0
 14 35  1  0
 15 36  1  0
 16 37  1  0
 22 38  1  0
 26 39  1  0
M  ISO  8  27   8  28   8  29  14  30  14  31  14  32  14  33  14  34   8
M  ISO  5  35   8  36  14  37  14  38  14  39  11
M  END
>  <minimizedAffinity>  (1) 
-5.97438192

>  <minimizedRMSD>  (1) 
0.260876209

$$$$
