
     RDKit          3D

 38 40  0  0  0  0  0  0  0  0999 V2000
   44.7960   34.7040   44.8160 C   0  0  0  0  0  0  0  0  0  0  0  0
   45.1480   33.8640   43.7750 C   0  0  0  0  0  0  0  0  0  0  0  0
   45.8110   32.6020   44.0120 C   0  0  0  0  0  0  0  0  0  0  0  0
   46.0760   32.2860   45.3150 N   0  0  0  0  0  0  0  0  0  0  0  0
   45.7280   33.1230   46.3300 C   0  0  0  0  0  0  0  0  0  0  0  0
   45.0900   34.3300   46.1070 N   0  0  0  0  0  0  0  0  0  0  0  0
   44.1160   35.9070   44.5610 N   0  0  0  0  0  0  0  0  0  0  0  0
   44.9560   34.3540   42.4160 C   0  0  0  0  0  0  0  0  0  0  0  0
   43.6260   33.7570   41.8000 C   0  0  0  0  0  0  0  0  0  0  0  0
   43.7750   34.4560   40.4140 C   0  0  0  0  0  0  0  0  0  0  0  0
   45.2110   34.1790   40.0920 C   0  0  0  0  0  0  0  0  0  0  0  0
   45.9340   34.0950   41.4360 C   0  0  0  0  0  0  0  0  0  0  0  0
   46.0400   32.7340   47.7320 C   0  0  0  0  0  0  0  0  0  0  0  0
   47.3080   31.9470   47.8450 C   0  0  0  0  0  0  0  0  0  0  0  0
   47.2060   31.0640   49.0570 C   0  0  0  0  0  0  0  0  0  0  0  0
   45.7350   31.0360   49.4150 C   0  0  0  0  0  0  0  0  0  0  0  0
   45.0150   31.7780   48.2910 C   0  0  0  0  0  0  0  0  0  0  0  0
   46.0881   31.9303   43.1862 H   0  0  0  0  0  0  0  0  0  0  0  0
   43.8992   36.1806   43.5920 H   0  0  0  0  0  0  0  0  0  0  0  0
   43.8343   36.5151   45.3431 H   0  0  0  0  0  0  0  0  0  0  0  0
   44.9733   35.4383   42.6002 H   0  0  0  0  0  0  0  0  0  0  0  0
   43.6438   32.6595   41.7286 H   0  0  0  0  0  0  0  0  0  0  0  0
   42.6910   33.9262   42.3543 H   0  0  0  0  0  0  0  0  0  0  0  0
   43.1025   34.0115   39.6656 H   0  0  0  0  0  0  0  0  0  0  0  0
   43.5153   35.5249   40.4208 H   0  0  0  0  0  0  0  0  0  0  0  0
   45.3042   33.2278   39.5475 H   0  0  0  0  0  0  0  0  0  0  0  0
   45.6396   34.9640   39.4516 H   0  0  0  0  0  0  0  0  0  0  0  0
   46.3623   33.0918   41.5783 H   0  0  0  0  0  0  0  0  0  0  0  0
   46.7647   34.8137   41.4939 H   0  0  0  0  0  0  0  0  0  0  0  0
   46.0847   33.6960   48.2636 H   0  0  0  0  0  0  0  0  0  0  0  0
   47.4446   31.3296   46.9449 H   0  0  0  0  0  0  0  0  0  0  0  0
   48.1689   32.6250   47.9401 H   0  0  0  0  0  0  0  0  0  0  0  0
   47.5645   30.0502   48.8252 H   0  0  0  0  0  0  0  0  0  0  0  0
   47.8210   31.4394   49.8881 H   0  0  0  0  0  0  0  0  0  0  0  0
   45.3767   29.9980   49.4788 H   0  0  0  0  0  0  0  0  0  0  0  0
   45.5488   31.5055   50.3922 H   0  0  0  0  0  0  0  0  0  0  0  0
   44.1479   32.3284   48.6850 H   0  0  0  0  0  0  0  0  0  0  0  0
   44.6305   31.0905   47.5232 H   0  0  0  0  0  0  0  0  0  0  0  0
  1  6  2  0
  2  3  2  0
  2  1  1  0
  3  4  1  0
  4  5  2  0
  5 13  1  0
  6  5  1  0
  7  1  1  0
  8  2  1  0
  9  8  1  0
 10  9  1  0
 11 10  1  0
 11 12  1  0
 12  8  1  0
 13 14  1  0
 13 17  1  0
 14 15  1  0
 15 16  1  0
 17 16  1  0
  3 18  1  0
  7 19  1  0
  7 20  1  0
  8 21  1  0
  9 22  1  0
  9 23  1  0
 10 24  1  0
 10 25  1  0
 11 26  1  0
 11 27  1  0
 12 28  1  0
 12 29  1  0
 13 30  1  0
 14 31  1  0
 14 32  1  0
 15 33  1  0
 15 34  1  0
 16 35  1  0
 16 36  1  0
 17 37  1  0
 17 38  1  0
M  ISO  8  18  14  21  13  22  13  23  13  24  13  25  13  26  13  27  13
M  ISO  8  28  13  29  13  30  13  31  13  32  13  33  13  34  13  35  13
M  ISO  3  36  13  37  13  38  13
M  END
>  <minimizedAffinity>  (1) 
-5.13022804

>  <minimizedRMSD>  (1) 
1.77470362

$$$$
