
     RDKit          3D

 35 37  0  0  0  0  0  0  0  0999 V2000
   44.8850   34.8590   44.2710 C   0  0  0  0  0  0  0  0  0  0  0  0
   44.7560   34.0160   43.1780 C   0  0  0  0  0  0  0  0  0  0  0  0
   45.0840   32.6190   43.2600 C   0  0  0  0  0  0  0  0  0  0  0  0
   45.5320   32.1610   44.4600 N   0  0  0  0  0  0  0  0  0  0  0  0
   45.6600   33.0010   45.5380 C   0  0  0  0  0  0  0  0  0  0  0  0
   45.3390   34.3430   45.4510 N   0  0  0  0  0  0  0  0  0  0  0  0
   44.5260   36.2180   44.1820 N   0  0  0  0  0  0  0  0  0  0  0  0
   44.3800   34.6300   41.9030 C   0  0  0  0  0  0  0  0  0  0  0  0
   42.8100   34.5940   41.7160 C   0  0  0  0  0  0  0  0  0  0  0  0
   42.8030   35.2690   40.3100 C   0  0  0  0  0  0  0  0  0  0  0  0
   43.8730   34.5010   39.6170 C   0  0  0  0  0  0  0  0  0  0  0  0
   44.8870   34.1080   40.6970 C   0  0  0  0  0  0  0  0  0  0  0  0
   46.1480   32.4470   46.7970 C   0  0  0  0  0  0  0  0  0  0  0  0
   47.3820   31.8330   46.8210 C   0  0  0  0  0  0  0  0  0  0  0  0
   47.8250   31.3160   48.0220 C   0  0  0  0  0  0  0  0  0  0  0  0
   47.0110   31.4400   49.1280 C   0  0  0  0  0  0  0  0  0  0  0  0
   45.7580   32.0620   49.1100 C   0  0  0  0  0  0  0  0  0  0  0  0
   45.3170   32.5840   47.8890 C   0  0  0  0  0  0  0  0  0  0  0  0
   44.9777   31.9511   42.3925 H   0  0  0  0  0  0  0  0  0  0  0  0
   44.1840   36.6030   43.2899 H   0  0  0  0  0  0  0  0  0  0  0  0
   44.6054   36.8269   45.0090 H   0  0  0  0  0  0  0  0  0  0  0  0
   44.8388   35.6217   42.0295 H   0  0  0  0  0  0  0  0  0  0  0  0
   42.4066   33.5708   41.6990 H   0  0  0  0  0  0  0  0  0  0  0  0
   42.1984   35.0611   42.5020 H   0  0  0  0  0  0  0  0  0  0  0  0
   41.8310   35.1482   39.8094 H   0  0  0  0  0  0  0  0  0  0  0  0
   42.9676   36.3564   40.3298 H   0  0  0  0  0  0  0  0  0  0  0  0
   43.4515   33.6015   39.1446 H   0  0  0  0  0  0  0  0  0  0  0  0
   44.3449   35.0989   38.8234 H   0  0  0  0  0  0  0  0  0  0  0  0
   44.9756   33.0134   40.7600 H   0  0  0  0  0  0  0  0  0  0  0  0
   45.8902   34.5004   40.4744 H   0  0  0  0  0  0  0  0  0  0  0  0
   47.9951   31.7573   45.9108 H   0  0  0  0  0  0  0  0  0  0  0  0
   48.8029   30.8176   48.0948 H   0  0  0  0  0  0  0  0  0  0  0  0
   47.3683   31.0249   50.0819 H   0  0  0  0  0  0  0  0  0  0  0  0
   45.1440   32.1377   50.0195 H   0  0  0  0  0  0  0  0  0  0  0  0
   44.3419   33.0859   47.8032 H   0  0  0  0  0  0  0  0  0  0  0  0
  1  6  2  0
  2  3  2  0
  2  1  1  0
  3  4  1  0
  4  5  2  0
  5 13  1  0
  6  5  1  0
  7  1  1  0
  8  2  1  0
  9  8  1  0
 10  9  1  0
 11 10  1  0
 11 12  1  0
 12  8  1  0
 13 14  2  0
 13 18  1  0
 14 15  1  0
 15 16  2  0
 17 16  1  0
 18 17  2  0
  3 19  1  0
  7 20  1  0
  7 21  1  0
  8 22  1  0
  9 23  1  0
  9 24  1  0
 10 25  1  0
 10 26  1  0
 11 27  1  0
 11 28  1  0
 12 29  1  0
 12 30  1  0
 14 31  1  0
 15 32  1  0
 16 33  1  0
 17 34  1  0
 18 35  1  0
M  ISO  8  19  14  22  13  23  13  24  13  25  13  26  13  27  13  28  13
M  ISO  7  29  13  30  13  31  14  32  14  33  14  34  14  35  14
M  END
>  <minimizedAffinity>  (1) 
-5.18980932

>  <minimizedRMSD>  (1) 
0.672308624

$$$$
