
     RDKit          3D

 34 35  0  0  0  0  0  0  0  0999 V2000
   45.9870   34.3420   43.8050 C   0  0  0  0  0  0  0  0  0  0  0  0
   44.9890   33.6390   42.7860 C   0  0  0  0  0  0  0  0  0  0  0  0
   45.2510   34.6190   41.6090 C   0  0  0  0  0  0  0  0  0  0  0  0
   46.7480   34.7100   41.6200 C   0  0  0  0  0  0  0  0  0  0  0  0
   47.1780   34.4710   43.0650 C   0  0  0  0  0  0  0  0  0  0  0  0
   45.1920   34.1160   46.0890 C   0  0  0  0  0  0  0  0  0  0  0  0
   45.9890   33.6150   45.0760 C   0  0  0  0  0  0  0  0  0  0  0  0
   46.8770   32.4940   45.2850 C   0  0  0  0  0  0  0  0  0  0  0  0
   46.8860   31.9610   46.5400 N   0  0  0  0  0  0  0  0  0  0  0  0
   46.0910   32.4690   47.5430 C   0  0  0  0  0  0  0  0  0  0  0  0
   45.2600   33.5240   47.3280 N   0  0  0  0  0  0  0  0  0  0  0  0
   44.3020   35.1850   45.8430 N   0  0  0  0  0  0  0  0  0  0  0  0
   46.1210   31.8720   48.9030 C   0  0  0  0  0  0  0  0  0  0  0  0
   44.8920   30.9620   48.9640 C   0  0  0  0  0  0  0  0  0  0  0  0
   47.3700   31.0400   49.0250 C   0  0  0  0  0  0  0  0  0  0  0  0
   45.7257   35.3498   44.1600 H   0  0  0  0  0  0  0  0  0  0  0  0
   45.2791   32.6042   42.5512 H   0  0  0  0  0  0  0  0  0  0  0  0
   43.9461   33.5090   43.1108 H   0  0  0  0  0  0  0  0  0  0  0  0
   44.7879   35.5997   41.7926 H   0  0  0  0  0  0  0  0  0  0  0  0
   44.8298   34.2875   40.6484 H   0  0  0  0  0  0  0  0  0  0  0  0
   47.1816   33.9432   40.9612 H   0  0  0  0  0  0  0  0  0  0  0  0
   47.0930   35.6889   41.2556 H   0  0  0  0  0  0  0  0  0  0  0  0
   47.7762   33.5509   43.1391 H   0  0  0  0  0  0  0  0  0  0  0  0
   47.8013   35.2949   43.4427 H   0  0  0  0  0  0  0  0  0  0  0  0
   47.5090   32.0940   44.4784 H   0  0  0  0  0  0  0  0  0  0  0  0
   44.2628   35.6180   44.9093 H   0  0  0  0  0  0  0  0  0  0  0  0
   43.6922   35.5314   46.5974 H   0  0  0  0  0  0  0  0  0  0  0  0
   46.1146   32.6245   49.7053 H   0  0  0  0  0  0  0  0  0  0  0  0
   44.6308   30.7686   50.0149 H   0  0  0  0  0  0  0  0  0  0  0  0
   44.0465   31.4535   48.4605 H   0  0  0  0  0  0  0  0  0  0  0  0
   45.1154   30.0099   48.4605 H   0  0  0  0  0  0  0  0  0  0  0  0
   47.6042   30.8840   50.0884 H   0  0  0  0  0  0  0  0  0  0  0  0
   47.2112   30.0666   48.5379 H   0  0  0  0  0  0  0  0  0  0  0  0
   48.2071   31.5616   48.5379 H   0  0  0  0  0  0  0  0  0  0  0  0
  1  7  1  0
  2  1  1  0
  3  4  1  0
  3  2  1  0
  4  5  1  0
  5  1  1  0
  6 11  2  0
  7  8  2  0
  7  6  1  0
  8  9  1  0
  9 10  2  0
 10 13  1  0
 11 10  1  0
 12  6  1  0
 13 14  1  0
 13 15  1  0
  1 16  1  0
  2 17  1  0
  2 18  1  0
  3 19  1  0
  3 20  1  0
  4 21  1  0
  4 22  1  0
  5 23  1  0
  5 24  1  0
  8 25  1  0
 12 26  1  0
 12 27  1  0
 13 28  1  0
 14 29  1  0
 14 30  1  0
 14 31  1  0
 15 32  1  0
 15 33  1  0
 15 34  1  0
M  ISO  8  16  13  17  13  18  13  19  13  20  13  21  13  22  13  23  13
M  ISO  8  24  13  25  14  28   8  29   8  30   8  31   8  32   8  33   8
M  ISO  1  34   8
M  END
>  <minimizedAffinity>  (1) 
-5.1115365

>  <minimizedRMSD>  (1) 
2.97711134

$$$$
