
     RDKit          3D

 33 35  0  0  0  0  0  0  0  0999 V2000
   44.8840   34.9380   44.2880 C   0  0  0  0  0  0  0  0  0  0  0  0
   44.7530   34.0790   43.2050 C   0  0  0  0  0  0  0  0  0  0  0  0
   45.0810   32.6750   43.3260 C   0  0  0  0  0  0  0  0  0  0  0  0
   45.5220   32.2420   44.5370 N   0  0  0  0  0  0  0  0  0  0  0  0
   45.6480   33.0980   45.5920 C   0  0  0  0  0  0  0  0  0  0  0  0
   45.3370   34.4230   45.4790 N   0  0  0  0  0  0  0  0  0  0  0  0
   44.5430   36.2960   44.1700 N   0  0  0  0  0  0  0  0  0  0  0  0
   44.3920   34.6730   41.9240 C   0  0  0  0  0  0  0  0  0  0  0  0
   42.8190   34.6340   41.7340 C   0  0  0  0  0  0  0  0  0  0  0  0
   42.8150   35.2720   40.3150 C   0  0  0  0  0  0  0  0  0  0  0  0
   43.9150   34.5190   39.6350 C   0  0  0  0  0  0  0  0  0  0  0  0
   44.8920   34.1050   40.7370 C   0  0  0  0  0  0  0  0  0  0  0  0
   46.1310   32.5590   46.8610 C   0  0  0  0  0  0  0  0  0  0  0  0
   45.2580   32.4440   47.9240 C   0  0  0  0  0  0  0  0  0  0  0  0
   45.6500   31.9440   49.1470 C   0  0  0  0  0  0  0  0  0  0  0  0
   46.9490   31.5650   49.2520 N   0  0  0  0  0  0  0  0  0  0  0  0
   47.7790   31.6930   48.1800 C   0  0  0  0  0  0  0  0  0  0  0  0
   47.3980   32.1880   46.9680 N   0  0  0  0  0  0  0  0  0  0  0  0
   44.9779   31.9869   42.4740 H   0  0  0  0  0  0  0  0  0  0  0  0
   44.2051   36.6658   43.2700 H   0  0  0  0  0  0  0  0  0  0  0  0
   44.6310   36.9216   44.9835 H   0  0  0  0  0  0  0  0  0  0  0  0
   44.8549   35.6658   42.0240 H   0  0  0  0  0  0  0  0  0  0  0  0
   42.4146   33.6111   41.7419 H   0  0  0  0  0  0  0  0  0  0  0  0
   42.2065   35.1215   42.5067 H   0  0  0  0  0  0  0  0  0  0  0  0
   41.8509   35.1159   39.8088 H   0  0  0  0  0  0  0  0  0  0  0  0
   42.9585   36.3626   40.3176 H   0  0  0  0  0  0  0  0  0  0  0  0
   43.5120   33.6296   39.1285 H   0  0  0  0  0  0  0  0  0  0  0  0
   44.4103   35.1355   38.8704 H   0  0  0  0  0  0  0  0  0  0  0  0
   44.9307   33.0091   40.8231 H   0  0  0  0  0  0  0  0  0  0  0  0
   45.9147   34.4487   40.5224 H   0  0  0  0  0  0  0  0  0  0  0  0
   44.2136   32.7624   47.7904 H   0  0  0  0  0  0  0  0  0  0  0  0
   44.9495   31.8570   49.9906 H   0  0  0  0  0  0  0  0  0  0  0  0
   48.8256   31.3762   48.2997 H   0  0  0  0  0  0  0  0  0  0  0  0
  1  6  2  0
  2  3  2  0
  2  1  1  0
  3  4  1  0
  4  5  2  0
  5 13  1  0
  6  5  1  0
  7  1  1  0
  8  2  1  0
  9  8  1  0
 10  9  1  0
 11 10  1  0
 11 12  1  0
 12  8  1  0
 13 18  1  0
 13 14  2  0
 14 15  1  0
 15 16  2  0
 17 16  1  0
 18 17  2  0
  3 19  1  0
  7 20  1  0
  7 21  1  0
  8 22  1  0
  9 23  1  0
  9 24  1  0
 10 25  1  0
 10 26  1  0
 11 27  1  0
 11 28  1  0
 12 29  1  0
 12 30  1  0
 14 31  1  0
 15 32  1  0
 17 33  1  0
M  ISO  8  19  14  22  13  23  13  24  13  25  13  26  13  27  13  28  13
M  ISO  5  29  13  30  13  31  14  32  14  33  14
M  END
>  <minimizedAffinity>  (1) 
-5.04675865

>  <minimizedRMSD>  (1) 
0.739825189

$$$$
