
     RDKit          3D

 32 34  0  0  0  0  0  0  0  0999 V2000
   44.1680   35.0450   42.5930 C   0  0  0  0  0  0  0  0  0  0  0  0
   43.1980   34.4320   41.8150 C   0  0  0  0  0  0  0  0  0  0  0  0
   43.0960   32.9950   41.7260 C   0  0  0  0  0  0  0  0  0  0  0  0
   44.0030   32.2750   42.4400 N   0  0  0  0  0  0  0  0  0  0  0  0
   44.9580   32.8820   43.2010 C   0  0  0  0  0  0  0  0  0  0  0  0
   45.0520   34.2550   43.2890 N   0  0  0  0  0  0  0  0  0  0  0  0
   44.2490   36.4390   42.6910 N   0  0  0  0  0  0  0  0  0  0  0  0
   42.3690   35.3010   40.9910 C   0  0  0  0  0  0  0  0  0  0  0  0
   40.8900   35.3410   41.5420 C   0  0  0  0  0  0  0  0  0  0  0  0
   40.3440   36.3190   40.4590 C   0  0  0  0  0  0  0  0  0  0  0  0
   40.9000   35.6950   39.2080 C   0  0  0  0  0  0  0  0  0  0  0  0
   42.2150   35.0300   39.6160 C   0  0  0  0  0  0  0  0  0  0  0  0
   45.9290   32.0810   43.9640 C   0  0  0  0  0  0  0  0  0  0  0  0
   46.1680   32.2730   45.3370 C   0  0  0  0  0  0  0  0  0  0  0  0
   47.0970   31.4630   45.9390 C   0  0  0  0  0  0  0  0  0  0  0  0
   47.7520   30.4760   45.0950 C   0  0  0  0  0  0  0  0  0  0  0  0
   46.9670   30.7860   43.4530 S   0  0  0  0  0  0  0  0  0  0  0  0
   42.3245   32.5070   41.1123 H   0  0  0  0  0  0  0  0  0  0  0  0
   43.5869   37.0313   42.1697 H   0  0  0  0  0  0  0  0  0  0  0  0
   44.9707   36.8725   43.2844 H   0  0  0  0  0  0  0  0  0  0  0  0
   42.9504   36.2319   41.0648 H   0  0  0  0  0  0  0  0  0  0  0  0
   40.3985   34.3573   41.5138 H   0  0  0  0  0  0  0  0  0  0  0  0
   40.7527   35.6283   42.5949 H   0  0  0  0  0  0  0  0  0  0  0  0
   39.2442   36.3372   40.4478 H   0  0  0  0  0  0  0  0  0  0  0  0
   40.6307   37.3703   40.6092 H   0  0  0  0  0  0  0  0  0  0  0  0
   41.0825   36.4661   38.4450 H   0  0  0  0  0  0  0  0  0  0  0  0
   40.1981   34.9669   38.7752 H   0  0  0  0  0  0  0  0  0  0  0  0
   42.1662   33.9449   39.4421 H   0  0  0  0  0  0  0  0  0  0  0  0
   43.0629   35.4131   39.0292 H   0  0  0  0  0  0  0  0  0  0  0  0
   45.6296   33.0445   45.9070 H   0  0  0  0  0  0  0  0  0  0  0  0
   47.3352   31.5555   47.0089 H   0  0  0  0  0  0  0  0  0  0  0  0
   48.5185   29.7349   45.3656 H   0  0  0  0  0  0  0  0  0  0  0  0
  1  7  1  0
  1  6  2  0
  2  1  1  0
  3  2  2  0
  3  4  1  0
  4  5  2  0
  5  6  1  0
  5 13  1  0
  8  9  1  0
  8  2  1  0
 10  9  1  0
 11 12  1  0
 11 10  1  0
 12  8  1  0
 13 14  2  0
 14 15  1  0
 16 15  2  0
 17 13  1  0
 17 16  1  0
  3 18  1  0
  7 19  1  0
  7 20  1  0
  8 21  1  0
  9 22  1  0
  9 23  1  0
 10 24  1  0
 10 25  1  0
 11 26  1  0
 11 27  1  0
 12 28  1  0
 12 29  1  0
 14 30  1  0
 15 31  1  0
 16 32  1  0
M  ISO  8  18  14  21  13  22  13  23  13  24  13  25  13  26  13  27  13
M  ISO  5  28  13  29  13  30  14  31  14  32  14
M  END
>  <minimizedAffinity>  (1) 
-4.70526552

>  <minimizedRMSD>  (1) 
2.67202926

$$$$
