
     RDKit          3D

 28 29  0  0  0  0  0  0  0  0999 V2000
   44.3140   34.6500   41.6840 C   0  0  0  0  0  0  0  0  0  0  0  0
   42.7410   34.6230   41.4840 C   0  0  0  0  0  0  0  0  0  0  0  0
   42.7660   35.1170   40.0070 C   0  0  0  0  0  0  0  0  0  0  0  0
   43.8040   34.1990   39.4360 C   0  0  0  0  0  0  0  0  0  0  0  0
   44.8170   33.9660   40.5610 C   0  0  0  0  0  0  0  0  0  0  0  0
   44.7450   35.1310   44.0280 C   0  0  0  0  0  0  0  0  0  0  0  0
   44.6580   34.1820   43.0210 C   0  0  0  0  0  0  0  0  0  0  0  0
   45.0190   32.8060   43.2690 C   0  0  0  0  0  0  0  0  0  0  0  0
   45.4470   32.4830   44.5170 N   0  0  0  0  0  0  0  0  0  0  0  0
   45.5300   33.4360   45.5000 C   0  0  0  0  0  0  0  0  0  0  0  0
   45.1850   34.7540   45.2740 N   0  0  0  0  0  0  0  0  0  0  0  0
   44.3600   36.4630   43.7850 N   0  0  0  0  0  0  0  0  0  0  0  0
   45.9920   33.0880   46.8420 C   0  0  0  0  0  0  0  0  0  0  0  0
   45.1930   32.6770   47.7410 O   0  0  0  0  0  0  0  0  0  0  0  0
   47.3440   33.2130   47.1290 O   0  0  0  0  0  0  0  0  0  0  0  0
   44.7930   35.6402   41.6919 H   0  0  0  0  0  0  0  0  0  0  0  0
   42.3150   33.6143   41.5891 H   0  0  0  0  0  0  0  0  0  0  0  0
   42.1310   35.1958   42.1980 H   0  0  0  0  0  0  0  0  0  0  0  0
   41.7905   34.9837   39.5166 H   0  0  0  0  0  0  0  0  0  0  0  0
   42.9805   36.1888   39.8832 H   0  0  0  0  0  0  0  0  0  0  0  0
   43.3465   33.2470   39.1289 H   0  0  0  0  0  0  0  0  0  0  0  0
   44.2810   34.6311   38.5439 H   0  0  0  0  0  0  0  0  0  0  0  0
   44.9077   32.8913   40.7771 H   0  0  0  0  0  0  0  0  0  0  0  0
   45.8178   34.3285   40.2834 H   0  0  0  0  0  0  0  0  0  0  0  0
   44.9499   32.0469   42.4759 H   0  0  0  0  0  0  0  0  0  0  0  0
   44.0308   36.7414   42.8496 H   0  0  0  0  0  0  0  0  0  0  0  0
   44.4075   37.1592   44.5426 H   0  0  0  0  0  0  0  0  0  0  0  0
   47.6819   32.9835   48.0308 H   0  0  0  0  0  0  0  0  0  0  0  0
  1  7  1  0
  2  1  1  0
  3  2  1  0
  4  3  1  0
  4  5  1  0
  5  1  1  0
  6 11  2  0
  7  8  2  0
  7  6  1  0
  8  9  1  0
  9 10  2  0
 10 13  1  0
 11 10  1  0
 12  6  1  0
 13 15  1  0
 13 14  2  0
  1 16  1  0
  2 17  1  0
  2 18  1  0
  3 19  1  0
  3 20  1  0
  4 21  1  0
  4 22  1  0
  5 23  1  0
  5 24  1  0
  8 25  1  0
 12 26  1  0
 12 27  1  0
 15 28  1  0
M  ISO  8  16  13  17  13  18  13  19  13  20  13  21  13  22  13  23  13
M  ISO  3  24  13  25  14  28   3
M  END
>  <minimizedAffinity>  (1) 
-4.6447854

>  <minimizedRMSD>  (1) 
0.341008931

$$$$
