
     RDKit          3D

 28 29  0  0  0  0  0  0  0  0999 V2000
   43.0550   35.3810   41.3510 C   0  0  0  0  0  0  0  0  0  0  0  0
   41.5550   35.2610   41.8670 C   0  0  0  0  0  0  0  0  0  0  0  0
   40.9290   36.0310   40.6710 C   0  0  0  0  0  0  0  0  0  0  0  0
   41.6060   35.3540   39.5090 C   0  0  0  0  0  0  0  0  0  0  0  0
   42.9830   34.9290   40.0200 C   0  0  0  0  0  0  0  0  0  0  0  0
   44.7970   35.5230   43.0420 C   0  0  0  0  0  0  0  0  0  0  0  0
   43.9640   34.7130   42.2840 C   0  0  0  0  0  0  0  0  0  0  0  0
   44.0620   33.2730   42.3370 C   0  0  0  0  0  0  0  0  0  0  0  0
   45.0110   32.7500   43.1610 N   0  0  0  0  0  0  0  0  0  0  0  0
   45.8360   33.5700   43.9100 C   0  0  0  0  0  0  0  0  0  0  0  0
   45.7370   34.9460   43.8580 N   0  0  0  0  0  0  0  0  0  0  0  0
   44.6690   36.9250   42.9980 N   0  0  0  0  0  0  0  0  0  0  0  0
   46.8370   32.9160   44.7760 C   0  0  0  0  0  0  0  0  0  0  0  0
   43.4958   36.3886   41.3320 H   0  0  0  0  0  0  0  0  0  0  0  0
   41.2077   34.2194   41.9340 H   0  0  0  0  0  0  0  0  0  0  0  0
   41.3350   35.6296   42.8798 H   0  0  0  0  0  0  0  0  0  0  0  0
   39.8373   35.9016   40.6340 H   0  0  0  0  0  0  0  0  0  0  0  0
   41.0726   37.1210   40.7078 H   0  0  0  0  0  0  0  0  0  0  0  0
   41.7091   36.0526   38.6656 H   0  0  0  0  0  0  0  0  0  0  0  0
   41.0248   34.4931   39.1470 H   0  0  0  0  0  0  0  0  0  0  0  0
   43.0847   33.8344   39.9813 H   0  0  0  0  0  0  0  0  0  0  0  0
   43.7910   35.3517   39.4049 H   0  0  0  0  0  0  0  0  0  0  0  0
   43.4005   32.6288   41.7392 H   0  0  0  0  0  0  0  0  0  0  0  0
   43.9635   37.3588   42.3856 H   0  0  0  0  0  0  0  0  0  0  0  0
   45.2809   37.5165   43.5782 H   0  0  0  0  0  0  0  0  0  0  0  0
   46.5763   33.0863   45.8310 H   0  0  0  0  0  0  0  0  0  0  0  0
   46.8490   31.8353   44.5711 H   0  0  0  0  0  0  0  0  0  0  0  0
   47.8315   33.3391   44.5711 H   0  0  0  0  0  0  0  0  0  0  0  0
  1  2  1  0
  1  7  1  0
  3  2  1  0
  4  5  1  0
  4  3  1  0
  5  1  1  0
  6 11  2  0
  7  8  2  0
  7  6  1  0
  8  9  1  0
  9 10  2  0
 10 13  1  0
 11 10  1  0
 12  6  1  0
  1 14  1  0
  2 15  1  0
  2 16  1  0
  3 17  1  0
  3 18  1  0
  4 19  1  0
  4 20  1  0
  5 21  1  0
  5 22  1  0
  8 23  1  0
 12 24  1  0
 12 25  1  0
 13 26  1  0
 13 27  1  0
 13 28  1  0
M  ISO  8  14  13  15  13  16  13  17  13  18  13  19  13  20  13  21  13
M  ISO  5  22  13  23  14  26   8  27   8  28   8
M  END
>  <minimizedAffinity>  (1) 
-4.23379803

>  <minimizedRMSD>  (1) 
1.42636216

$$$$
