
     RDKit          3D

 26 27  0  0  0  0  0  0  0  0999 V2000
   44.1570   34.7550   41.6620 C   0  0  0  0  0  0  0  0  0  0  0  0
   42.5610   34.7460   41.6520 C   0  0  0  0  0  0  0  0  0  0  0  0
   42.4270   35.2000   40.1690 C   0  0  0  0  0  0  0  0  0  0  0  0
   43.4030   34.2770   39.4900 C   0  0  0  0  0  0  0  0  0  0  0  0
   44.4890   33.9910   40.5290 C   0  0  0  0  0  0  0  0  0  0  0  0
   44.8750   35.3230   43.9210 C   0  0  0  0  0  0  0  0  0  0  0  0
   44.6400   34.3380   42.9730 C   0  0  0  0  0  0  0  0  0  0  0  0
   44.9680   32.9580   43.2580 C   0  0  0  0  0  0  0  0  0  0  0  0
   45.5080   32.6860   44.4770 N   0  0  0  0  0  0  0  0  0  0  0  0
   45.7310   33.6900   45.3960 C   0  0  0  0  0  0  0  0  0  0  0  0
   45.4200   34.9880   45.1280 N   0  0  0  0  0  0  0  0  0  0  0  0
   44.5040   36.6700   43.6370 N   0  0  0  0  0  0  0  0  0  0  0  0
   46.2830   33.3640   46.6200 O   0  0  0  0  0  0  0  0  0  0  0  0
   44.6609   35.7275   41.5604 H   0  0  0  0  0  0  0  0  0  0  0  0
   42.1372   33.7474   41.8342 H   0  0  0  0  0  0  0  0  0  0  0  0
   42.0434   35.3439   42.4166 H   0  0  0  0  0  0  0  0  0  0  0  0
   41.4039   35.0517   39.7931 H   0  0  0  0  0  0  0  0  0  0  0  0
   42.6281   36.2689   40.0047 H   0  0  0  0  0  0  0  0  0  0  0  0
   42.9038   33.3440   39.1894 H   0  0  0  0  0  0  0  0  0  0  0  0
   43.8210   34.7264   38.5771 H   0  0  0  0  0  0  0  0  0  0  0  0
   44.5031   32.9204   40.7814 H   0  0  0  0  0  0  0  0  0  0  0  0
   45.4876   34.2511   40.1480 H   0  0  0  0  0  0  0  0  0  0  0  0
   44.7884   32.1621   42.5202 H   0  0  0  0  0  0  0  0  0  0  0  0
   44.0940   36.9095   42.7230 H   0  0  0  0  0  0  0  0  0  0  0  0
   44.6460   37.4037   44.3459 H   0  0  0  0  0  0  0  0  0  0  0  0
   46.4501   34.0716   47.2919 H   0  0  0  0  0  0  0  0  0  0  0  0
  1  7  1  0
  2  1  1  0
  3  2  1  0
  4  3  1  0
  4  5  1  0
  5  1  1  0
  6 11  2  0
  7  8  2  0
  7  6  1  0
  8  9  1  0
  9 10  2  0
 10 13  1  0
 11 10  1  0
 12  6  1  0
  1 14  1  0
  2 15  1  0
  2 16  1  0
  3 17  1  0
  3 18  1  0
  4 19  1  0
  4 20  1  0
  5 21  1  0
  5 22  1  0
  8 23  1  0
 12 24  1  0
 12 25  1  0
 13 26  1  0
M  ISO  8  14  13  15  13  16  13  17  13  18  13  19  13  20  13  21  13
M  ISO  3  22  13  23  14  26   3
M  END
>  <minimizedAffinity>  (1) 
-4.12189817

>  <minimizedRMSD>  (1) 
0.109655321

$$$$
