
     RDKit          3D

 27 28  0  0  0  0  0  0  0  0999 V2000
   43.0670   35.3710   41.3460 C   0  0  0  0  0  0  0  0  0  0  0  0
   41.5700   35.2630   41.8540 C   0  0  0  0  0  0  0  0  0  0  0  0
   40.9470   36.0230   40.6430 C   0  0  0  0  0  0  0  0  0  0  0  0
   41.6200   35.3350   39.5000 C   0  0  0  0  0  0  0  0  0  0  0  0
   43.0040   34.9190   40.0170 C   0  0  0  0  0  0  0  0  0  0  0  0
   44.8200   35.5020   43.0510 C   0  0  0  0  0  0  0  0  0  0  0  0
   43.9640   34.7110   42.2990 C   0  0  0  0  0  0  0  0  0  0  0  0
   44.0470   33.2760   42.3610 C   0  0  0  0  0  0  0  0  0  0  0  0
   44.9950   32.7530   43.1800 N   0  0  0  0  0  0  0  0  0  0  0  0
   45.8290   33.5460   43.9070 C   0  0  0  0  0  0  0  0  0  0  0  0
   45.7470   34.9240   43.8490 N   0  0  0  0  0  0  0  0  0  0  0  0
   44.6640   36.9160   43.0140 N   0  0  0  0  0  0  0  0  0  0  0  0
   46.8290   32.9180   44.7660 C   0  0  0  0  0  0  0  0  0  0  0  0
   46.7090   33.1370   46.0010 O   0  0  0  0  0  0  0  0  0  0  0  0
   43.5178   36.3739   41.3162 H   0  0  0  0  0  0  0  0  0  0  0  0
   41.2193   34.2233   41.9320 H   0  0  0  0  0  0  0  0  0  0  0  0
   41.3477   35.6455   42.8611 H   0  0  0  0  0  0  0  0  0  0  0  0
   39.8550   35.8964   40.6047 H   0  0  0  0  0  0  0  0  0  0  0  0
   41.0935   37.1129   40.6668 H   0  0  0  0  0  0  0  0  0  0  0  0
   41.7206   36.0209   38.6459 H   0  0  0  0  0  0  0  0  0  0  0  0
   41.0404   34.4670   39.1526 H   0  0  0  0  0  0  0  0  0  0  0  0
   43.1146   33.8252   39.9786 H   0  0  0  0  0  0  0  0  0  0  0  0
   43.8110   35.3475   39.4045 H   0  0  0  0  0  0  0  0  0  0  0  0
   43.3748   32.6337   41.7732 H   0  0  0  0  0  0  0  0  0  0  0  0
   43.9533   37.3398   42.4007 H   0  0  0  0  0  0  0  0  0  0  0  0
   45.2618   37.5156   43.6005 H   0  0  0  0  0  0  0  0  0  0  0  0
   47.6374   32.2922   44.3599 H   0  0  0  0  0  0  0  0  0  0  0  0
  1  2  1  0
  1  7  1  0
  3  2  1  0
  4  5  1  0
  4  3  1  0
  5  1  1  0
  6 11  2  0
  7  8  2  0
  7  6  1  0
  8  9  1  0
  9 10  2  0
 10 13  1  0
 11 10  1  0
 12  6  1  0
 13 14  2  0
  1 15  1  0
  2 16  1  0
  2 17  1  0
  3 18  1  0
  3 19  1  0
  4 20  1  0
  4 21  1  0
  5 22  1  0
  5 23  1  0
  8 24  1  0
 12 25  1  0
 12 26  1  0
 13 27  1  0
M  ISO  8  15  13  16  13  17  13  18  13  19  13  20  13  21  13  22  13
M  ISO  3  23  13  24  14  27   6
M  END
>  <minimizedAffinity>  (1) 
-4.26722574

>  <minimizedRMSD>  (1) 
1.41993523

$$$$
