
     RDKit          3D

 45 48  0  0  0  0  0  0  0  0999 V2000
   44.5490   35.2220   42.4390 C   0  0  0  0  0  0  0  0  0  0  0  0
   43.6190   34.6270   41.6000 C   0  0  0  0  0  0  0  0  0  0  0  0
   43.7210   33.2280   41.3210 C   0  0  0  0  0  0  0  0  0  0  0  0
   44.7450   32.5400   41.9020 N   0  0  0  0  0  0  0  0  0  0  0  0
   45.6370   33.1570   42.7160 C   0  0  0  0  0  0  0  0  0  0  0  0
   45.5440   34.5020   42.9900 N   0  0  0  0  0  0  0  0  0  0  0  0
   44.4070   36.6130   42.7180 N   0  0  0  0  0  0  0  0  0  0  0  0
   42.5900   35.4310   40.9730 C   0  0  0  0  0  0  0  0  0  0  0  0
   41.2160   35.3200   41.7240 C   0  0  0  0  0  0  0  0  0  0  0  0
   40.4150   36.2170   40.7470 C   0  0  0  0  0  0  0  0  0  0  0  0
   40.8290   35.6650   39.4250 C   0  0  0  0  0  0  0  0  0  0  0  0
   42.2900   35.1990   39.6030 C   0  0  0  0  0  0  0  0  0  0  0  0
   46.7580   32.3910   43.3220 C   0  0  0  0  0  0  0  0  0  0  0  0
   46.8580   32.6090   44.8140 C   0  0  0  0  0  0  0  0  0  0  0  0
   46.2190   31.4580   45.4790 C   0  0  0  0  0  0  0  0  0  0  0  0
   45.9050   30.3610   44.7350 N   0  0  0  0  0  0  0  0  0  0  0  0
   45.3400   29.2760   45.2840 C   0  0  0  0  0  0  0  0  0  0  0  0
   45.0270   29.1550   46.6040 N   0  0  0  0  0  0  0  0  0  0  0  0
   45.3260   30.2250   47.3690 C   0  0  0  0  0  0  0  0  0  0  0  0
   45.0350   30.1910   48.7360 C   0  0  0  0  0  0  0  0  0  0  0  0
   45.3190   31.2640   49.5480 C   0  0  0  0  0  0  0  0  0  0  0  0
   45.8980   32.3670   48.9620 C   0  0  0  0  0  0  0  0  0  0  0  0
   46.1920   32.4190   47.6170 C   0  0  0  0  0  0  0  0  0  0  0  0
   45.9010   31.3340   46.8130 C   0  0  0  0  0  0  0  0  0  0  0  0
   42.9990   32.7248   40.6611 H   0  0  0  0  0  0  0  0  0  0  0  0
   43.6398   37.1489   42.2878 H   0  0  0  0  0  0  0  0  0  0  0  0
   45.0717   37.0820   43.3498 H   0  0  0  0  0  0  0  0  0  0  0  0
   43.0624   36.4222   41.0390 H   0  0  0  0  0  0  0  0  0  0  0  0
   40.8355   34.2886   41.7609 H   0  0  0  0  0  0  0  0  0  0  0  0
   41.2038   35.6046   42.7865 H   0  0  0  0  0  0  0  0  0  0  0  0
   39.3312   36.1132   40.9037 H   0  0  0  0  0  0  0  0  0  0  0  0
   40.6116   37.2929   40.8640 H   0  0  0  0  0  0  0  0  0  0  0  0
   40.7666   36.4420   38.6489 H   0  0  0  0  0  0  0  0  0  0  0  0
   40.1759   34.8383   39.1088 H   0  0  0  0  0  0  0  0  0  0  0  0
   42.3861   34.1299   39.3626 H   0  0  0  0  0  0  0  0  0  0  0  0
   42.9779   35.7371   38.9343 H   0  0  0  0  0  0  0  0  0  0  0  0
   46.5991   31.3195   43.1305 H   0  0  0  0  0  0  0  0  0  0  0  0
   47.6942   32.7449   42.8657 H   0  0  0  0  0  0  0  0  0  0  0  0
   47.9145   32.6753   45.1130 H   0  0  0  0  0  0  0  0  0  0  0  0
   46.3582   33.5460   45.1009 H   0  0  0  0  0  0  0  0  0  0  0  0
   45.1139   28.4259   44.6235 H   0  0  0  0  0  0  0  0  0  0  0  0
   44.5717   29.2921   49.1688 H   0  0  0  0  0  0  0  0  0  0  0  0
   45.0923   31.2418   50.6242 H   0  0  0  0  0  0  0  0  0  0  0  0
   46.1345   33.2383   49.5904 H   0  0  0  0  0  0  0  0  0  0  0  0
   46.6555   33.3187   47.1861 H   0  0  0  0  0  0  0  0  0  0  0  0
  1  7  1  0
  1  6  2  0
  2  1  1  0
  3  2  2  0
  3  4  1  0
  4  5  2  0
  5  6  1  0
  5 13  1  0
  8  2  1  0
  8  9  1  0
 10  9  1  0
 11 12  1  0
 11 10  1  0
 12  8  1  0
 13 14  1  0
 14 15  1  0
 15 24  2  0
 16 17  2  0
 16 15  1  0
 17 18  1  0
 18 19  2  0
 19 20  1  0
 20 21  2  0
 22 21  1  0
 23 22  2  0
 24 19  1  0
 24 23  1  0
  3 25  1  0
  7 26  1  0
  7 27  1  0
  8 28  1  0
  9 29  1  0
  9 30  1  0
 10 31  1  0
 10 32  1  0
 11 33  1  0
 11 34  1  0
 12 35  1  0
 12 36  1  0
 13 37  1  0
 13 38  1  0
 14 39  1  0
 14 40  1  0
 17 41  1  0
 20 42  1  0
 21 43  1  0
 22 44  1  0
 23 45  1  0
M  ISO  8  25  14  28  13  29  13  30  13  31  13  32  13  33  13  34  13
M  ISO  8  35  13  36  13  37   8  38   8  39   8  40   8  41  14  42  14
M  ISO  3  43  14  44  14  45  14
M  END
>  <minimizedAffinity>  (1) 
-6.4115181

>  <minimizedRMSD>  (1) 
2.35466695

$$$$
