
     RDKit          3D

 45 48  0  0  0  0  0  0  0  0999 V2000
   44.5610   35.2680   42.7510 C   0  0  0  0  0  0  0  0  0  0  0  0
   43.6300   34.6460   41.9530 C   0  0  0  0  0  0  0  0  0  0  0  0
   43.6480   33.2180   41.8480 C   0  0  0  0  0  0  0  0  0  0  0  0
   44.5970   32.5300   42.5460 N   0  0  0  0  0  0  0  0  0  0  0  0
   45.4980   33.1850   43.3190 C   0  0  0  0  0  0  0  0  0  0  0  0
   45.4920   34.5660   43.4320 N   0  0  0  0  0  0  0  0  0  0  0  0
   44.5090   36.7020   42.8520 N   0  0  0  0  0  0  0  0  0  0  0  0
   42.6740   35.4280   41.1960 C   0  0  0  0  0  0  0  0  0  0  0  0
   41.2280   35.3410   41.8100 C   0  0  0  0  0  0  0  0  0  0  0  0
   40.5260   36.1880   40.7250 C   0  0  0  0  0  0  0  0  0  0  0  0
   41.0960   35.6250   39.4660 C   0  0  0  0  0  0  0  0  0  0  0  0
   42.5080   35.1480   39.8150 C   0  0  0  0  0  0  0  0  0  0  0  0
   46.5510   32.4560   44.0780 C   0  0  0  0  0  0  0  0  0  0  0  0
   45.9820   31.4710   45.0610 C   0  0  0  0  0  0  0  0  0  0  0  0
   46.7080   31.5940   46.3050 N   0  0  0  0  0  0  0  0  0  0  0  0
   46.8910   32.7040   47.0410 C   0  0  0  0  0  0  0  0  0  0  0  0
   47.6200   32.4260   48.1320 N   0  0  0  0  0  0  0  0  0  0  0  0
   47.9290   31.1110   48.1280 C   0  0  0  0  0  0  0  0  0  0  0  0
   48.6530   30.3680   49.0310 C   0  0  0  0  0  0  0  0  0  0  0  0
   49.1700   30.8450   50.0700 O   0  0  0  0  0  0  0  0  0  0  0  0
   48.8050   29.0410   48.7640 N   0  0  0  0  0  0  0  0  0  0  0  0
   48.2360   28.5400   47.6310 C   0  0  0  0  0  0  0  0  0  0  0  0
   48.4710   27.1430   47.4720 N   0  0  0  0  0  0  0  0  0  0  0  0
   47.5280   29.2980   46.7600 N   0  0  0  0  0  0  0  0  0  0  0  0
   47.3470   30.6200   46.9800 C   0  0  0  0  0  0  0  0  0  0  0  0
   42.9153   32.6893   41.2206 H   0  0  0  0  0  0  0  0  0  0  0  0
   43.7955   37.2296   42.3291 H   0  0  0  0  0  0  0  0  0  0  0  0
   45.1853   37.2012   43.4473 H   0  0  0  0  0  0  0  0  0  0  0  0
   43.1445   36.4194   41.2717 H   0  0  0  0  0  0  0  0  0  0  0  0
   40.8481   34.3096   41.8528 H   0  0  0  0  0  0  0  0  0  0  0  0
   41.1099   35.6717   42.8524 H   0  0  0  0  0  0  0  0  0  0  0  0
   39.4344   36.0574   40.7617 H   0  0  0  0  0  0  0  0  0  0  0  0
   40.6878   37.2703   40.8371 H   0  0  0  0  0  0  0  0  0  0  0  0
   41.1366   36.3993   38.6857 H   0  0  0  0  0  0  0  0  0  0  0  0
   40.4782   34.8016   39.0783 H   0  0  0  0  0  0  0  0  0  0  0  0
   42.6061   34.0686   39.6274 H   0  0  0  0  0  0  0  0  0  0  0  0
   43.2709   35.6511   39.2028 H   0  0  0  0  0  0  0  0  0  0  0  0
   47.1870   31.9126   43.3637 H   0  0  0  0  0  0  0  0  0  0  0  0
   47.1245   33.2011   44.6490 H   0  0  0  0  0  0  0  0  0  0  0  0
   44.9169   31.6882   45.2298 H   0  0  0  0  0  0  0  0  0  0  0  0
   46.0775   30.4480   44.6681 H   0  0  0  0  0  0  0  0  0  0  0  0
   46.4985   33.6991   46.7848 H   0  0  0  0  0  0  0  0  0  0  0  0
   49.3364   28.4315   49.4020 H   0  0  0  0  0  0  0  0  0  0  0  0
   48.0915   26.6469   46.6530 H   0  0  0  0  0  0  0  0  0  0  0  0
   49.0203   26.6297   48.1761 H   0  0  0  0  0  0  0  0  0  0  0  0
  1  7  1  0
  1  6  2  0
  2  1  1  0
  3  2  2  0
  3  4  1  0
  4  5  2  0
  5  6  1  0
  5 13  1  0
  8  9  1  0
  8  2  1  0
 10  9  1  0
 11 12  1  0
 11 10  1  0
 12  8  1  0
 13 14  1  0
 14 15  1  0
 15 25  1  0
 15 16  1  0
 16 17  2  0
 18 17  1  0
 18 19  1  0
 19 20  2  0
 21 19  1  0
 22 21  1  0
 23 22  1  0
 24 25  1  0
 24 22  2  0
 25 18  2  0
  3 26  1  0
  7 27  1  0
  7 28  1  0
  8 29  1  0
  9 30  1  0
  9 31  1  0
 10 32  1  0
 10 33  1  0
 11 34  1  0
 11 35  1  0
 12 36  1  0
 12 37  1  0
 13 38  1  0
 13 39  1  0
 14 40  1  0
 14 41  1  0
 16 42  1  0
 21 43  1  0
 23 44  1  0
 23 45  1  0
M  ISO  8  26  14  29  13  30  13  31  13  32  13  33  13  34  13  35  13
M  ISO  8  36  13  37  13  38   8  39   8  40   8  41   8  42  14  43   9
M  END
>  <minimizedAffinity>  (1) 
-6.1645689

>  <minimizedRMSD>  (1) 
1.05521226

$$$$
