
     RDKit          3D

 45 47  0  0  0  0  0  0  0  0999 V2000
   44.7990   35.4590   43.1400 C   0  0  0  0  0  0  0  0  0  0  0  0
   43.9800   34.7120   42.3200 C   0  0  0  0  0  0  0  0  0  0  0  0
   44.0760   33.2710   42.3550 C   0  0  0  0  0  0  0  0  0  0  0  0
   44.9880   32.7170   43.2110 N   0  0  0  0  0  0  0  0  0  0  0  0
   45.7790   33.5040   44.0020 C   0  0  0  0  0  0  0  0  0  0  0  0
   45.6850   34.8860   43.9680 N   0  0  0  0  0  0  0  0  0  0  0  0
   44.6660   36.8770   43.0930 N   0  0  0  0  0  0  0  0  0  0  0  0
   43.0660   35.3590   41.3970 C   0  0  0  0  0  0  0  0  0  0  0  0
   41.5750   35.2710   41.8890 C   0  0  0  0  0  0  0  0  0  0  0  0
   40.9480   35.9810   40.6690 C   0  0  0  0  0  0  0  0  0  0  0  0
   41.6510   35.3140   39.5240 C   0  0  0  0  0  0  0  0  0  0  0  0
   43.0390   34.9180   40.0510 C   0  0  0  0  0  0  0  0  0  0  0  0
   46.7780   32.8890   44.9130 C   0  0  0  0  0  0  0  0  0  0  0  0
   46.4280   33.0770   46.3560 C   0  0  0  0  0  0  0  0  0  0  0  0
   45.9730   31.9370   47.0300 N   0  0  0  0  0  0  0  0  0  0  0  0
   45.0750   32.0760   48.1110 C   0  0  0  0  0  0  0  0  0  0  0  0
   45.5040   31.3400   49.3570 C   0  0  0  0  0  0  0  0  0  0  0  0
   46.8990   31.0110   49.3950 N   0  0  0  0  0  0  0  0  0  0  0  0
   47.3950   30.3260   48.2360 C   0  0  0  0  0  0  0  0  0  0  0  0
   46.7210   30.7400   46.9540 C   0  0  0  0  0  0  0  0  0  0  0  0
   43.4387   32.6418   41.7163 H   0  0  0  0  0  0  0  0  0  0  0  0
   43.9832   37.3093   42.4544 H   0  0  0  0  0  0  0  0  0  0  0  0
   45.2526   37.4696   43.6976 H   0  0  0  0  0  0  0  0  0  0  0  0
   43.4876   36.3750   41.3985 H   0  0  0  0  0  0  0  0  0  0  0  0
   41.2266   34.2336   42.0001 H   0  0  0  0  0  0  0  0  0  0  0  0
   41.3520   35.6938   42.8797 H   0  0  0  0  0  0  0  0  0  0  0  0
   39.8619   35.8129   40.6235 H   0  0  0  0  0  0  0  0  0  0  0  0
   41.0647   37.0747   40.6843 H   0  0  0  0  0  0  0  0  0  0  0  0
   41.7479   36.0099   38.6776 H   0  0  0  0  0  0  0  0  0  0  0  0
   41.0920   34.4377   39.1639 H   0  0  0  0  0  0  0  0  0  0  0  0
   43.1742   33.8275   39.9998 H   0  0  0  0  0  0  0  0  0  0  0  0
   43.8478   35.3666   39.4555 H   0  0  0  0  0  0  0  0  0  0  0  0
   46.8330   31.8111   44.7006 H   0  0  0  0  0  0  0  0  0  0  0  0
   47.7435   33.3853   44.7352 H   0  0  0  0  0  0  0  0  0  0  0  0
   47.3270   33.4393   46.8761 H   0  0  0  0  0  0  0  0  0  0  0  0
   45.5860   33.7847   46.3676 H   0  0  0  0  0  0  0  0  0  0  0  0
   44.9862   33.1454   48.3530 H   0  0  0  0  0  0  0  0  0  0  0  0
   44.1186   31.6361   47.7920 H   0  0  0  0  0  0  0  0  0  0  0  0
   45.2751   31.9726   50.2273 H   0  0  0  0  0  0  0  0  0  0  0  0
   44.9544   30.3872   49.3660 H   0  0  0  0  0  0  0  0  0  0  0  0
   47.4306   31.8870   49.4997 H   0  0  0  0  0  0  0  0  0  0  0  0
   48.4716   30.5323   48.1448 H   0  0  0  0  0  0  0  0  0  0  0  0
   47.1837   29.2561   48.3796 H   0  0  0  0  0  0  0  0  0  0  0  0
   46.0401   29.9312   46.6502 H   0  0  0  0  0  0  0  0  0  0  0  0
   47.5277   30.9280   46.2302 H   0  0  0  0  0  0  0  0  0  0  0  0
  1  6  2  0
  2  3  2  0
  2  1  1  0
  3  4  1  0
  4  5  2  0
  5 13  1  0
  6  5  1  0
  7  1  1  0
  8  9  1  0
  8  2  1  0
 10  9  1  0
 11 12  1  0
 11 10  1  0
 12  8  1  0
 13 14  1  0
 14 15  1  0
 15 16  1  0
 16 17  1  0
 17 18  1  0
 19 18  1  0
 20 15  1  0
 20 19  1  0
  3 21  1  0
  7 22  1  0
  7 23  1  0
  8 24  1  0
  9 25  1  0
  9 26  1  0
 10 27  1  0
 10 28  1  0
 11 29  1  0
 11 30  1  0
 12 31  1  0
 12 32  1  0
 13 33  1  0
 13 34  1  0
 14 35  1  0
 14 36  1  0
 16 37  1  0
 16 38  1  0
 17 39  1  0
 17 40  1  0
 18 41  1  0
 19 42  1  0
 19 43  1  0
 20 44  1  0
 20 45  1  0
M  ISO  8  21  14  24  13  25  13  26  13  27  13  28  13  29  13  30  13
M  ISO  8  31  13  32  13  33   8  34   8  35   8  36   8  37  13  38  13
M  ISO  7  39  13  40  13  41   5  42  13  43  13  44  13  45  13
M  END
>  <minimizedAffinity>  (1) 
-5.86454582

>  <minimizedRMSD>  (1) 
1.41452026

$$$$
