
     RDKit          3D

 44 46  0  0  0  0  0  0  0  0999 V2000
   44.7830   35.4730   43.1520 C   0  0  0  0  0  0  0  0  0  0  0  0
   44.0060   34.6930   42.3310 C   0  0  0  0  0  0  0  0  0  0  0  0
   44.0970   33.2650   42.4240 C   0  0  0  0  0  0  0  0  0  0  0  0
   44.9630   32.7480   43.3350 N   0  0  0  0  0  0  0  0  0  0  0  0
   45.7150   33.5490   44.1280 C   0  0  0  0  0  0  0  0  0  0  0  0
   45.6350   34.9270   44.0490 N   0  0  0  0  0  0  0  0  0  0  0  0
   44.6590   36.8950   43.0540 N   0  0  0  0  0  0  0  0  0  0  0  0
   43.1380   35.3170   41.3490 C   0  0  0  0  0  0  0  0  0  0  0  0
   41.6270   35.2450   41.7750 C   0  0  0  0  0  0  0  0  0  0  0  0
   41.0650   35.9140   40.4950 C   0  0  0  0  0  0  0  0  0  0  0  0
   41.8160   35.2140   39.4150 C   0  0  0  0  0  0  0  0  0  0  0  0
   43.1590   34.8060   40.0230 C   0  0  0  0  0  0  0  0  0  0  0  0
   46.6830   32.9750   45.1170 C   0  0  0  0  0  0  0  0  0  0  0  0
   46.1070   32.8870   46.4940 C   0  0  0  0  0  0  0  0  0  0  0  0
   46.6350   31.6520   47.1770 C   0  0  0  0  0  0  0  0  0  0  0  0
   45.5860   30.5420   47.1640 C   0  0  0  0  0  0  0  0  0  0  0  0
   45.0300   30.5350   48.5500 C   0  0  0  0  0  0  0  0  0  0  0  0
   45.5620   31.7500   49.2480 C   0  0  0  0  0  0  0  0  0  0  0  0
   46.9330   31.8940   48.6190 C   0  0  0  0  0  0  0  0  0  0  0  0
   43.4882   32.6119   41.7815 H   0  0  0  0  0  0  0  0  0  0  0  0
   44.0096   37.3094   42.3703 H   0  0  0  0  0  0  0  0  0  0  0  0
   45.2191   37.5043   43.6672 H   0  0  0  0  0  0  0  0  0  0  0  0
   43.5618   36.3319   41.3313 H   0  0  0  0  0  0  0  0  0  0  0  0
   41.2712   34.2124   41.9059 H   0  0  0  0  0  0  0  0  0  0  0  0
   41.3555   35.6997   42.7391 H   0  0  0  0  0  0  0  0  0  0  0  0
   39.9820   35.7461   40.4004 H   0  0  0  0  0  0  0  0  0  0  0  0
   41.1873   37.0071   40.4793 H   0  0  0  0  0  0  0  0  0  0  0  0
   41.9736   35.8893   38.5611 H   0  0  0  0  0  0  0  0  0  0  0  0
   41.2619   34.3390   39.0444 H   0  0  0  0  0  0  0  0  0  0  0  0
   43.2611   33.7108   40.0332 H   0  0  0  0  0  0  0  0  0  0  0  0
   44.0084   35.1982   39.4445 H   0  0  0  0  0  0  0  0  0  0  0  0
   46.9669   31.9646   44.7877 H   0  0  0  0  0  0  0  0  0  0  0  0
   47.5545   33.6448   45.1604 H   0  0  0  0  0  0  0  0  0  0  0  0
   46.3962   33.7779   47.0708 H   0  0  0  0  0  0  0  0  0  0  0  0
   45.0101   32.8330   46.4317 H   0  0  0  0  0  0  0  0  0  0  0  0
   47.5467   31.3744   46.6277 H   0  0  0  0  0  0  0  0  0  0  0  0
   44.7969   30.7617   46.4298 H   0  0  0  0  0  0  0  0  0  0  0  0
   46.0116   29.5683   46.8797 H   0  0  0  0  0  0  0  0  0  0  0  0
   43.9311   30.5714   48.5153 H   0  0  0  0  0  0  0  0  0  0  0  0
   45.3234   29.6188   49.0834 H   0  0  0  0  0  0  0  0  0  0  0  0
   44.9357   32.6322   49.0495 H   0  0  0  0  0  0  0  0  0  0  0  0
   45.5822   31.6607   50.3442 H   0  0  0  0  0  0  0  0  0  0  0  0
   47.6353   31.1451   49.0139 H   0  0  0  0  0  0  0  0  0  0  0  0
   47.4144   32.8629   48.8176 H   0  0  0  0  0  0  0  0  0  0  0  0
  1  6  2  0
  2  3  2  0
  2  1  1  0
  3  4  1  0
  4  5  2  0
  5 13  1  0
  6  5  1  0
  7  1  1  0
  8  9  1  0
  8  2  1  0
 10  9  1  0
 11 12  1  0
 11 10  1  0
 12  8  1  0
 13 14  1  0
 14 15  1  0
 15 19  1  0
 16 15  1  0
 16 17  1  0
 17 18  1  0
 19 18  1  0
  3 20  1  0
  7 21  1  0
  7 22  1  0
  8 23  1  0
  9 24  1  0
  9 25  1  0
 10 26  1  0
 10 27  1  0
 11 28  1  0
 11 29  1  0
 12 30  1  0
 12 31  1  0
 13 32  1  0
 13 33  1  0
 14 34  1  0
 14 35  1  0
 15 36  1  0
 16 37  1  0
 16 38  1  0
 17 39  1  0
 17 40  1  0
 18 41  1  0
 18 42  1  0
 19 43  1  0
 19 44  1  0
M  ISO  8  20  14  23  13  24  13  25  13  26  13  27  13  28  13  29  13
M  ISO  8  30  13  31  13  32   8  33   8  34   8  35   8  36  13  37  13
M  ISO  7  38  13  39  13  40  13  41  13  42  13  43  13  44  13
M  END
>  <minimizedAffinity>  (1) 
-5.64707279

>  <minimizedRMSD>  (1) 
1.391536

$$$$
