
     RDKit          3D

 38 40  0  0  0  0  0  0  0  0999 V2000
   44.7090   35.3860   43.1200 C   0  0  0  0  0  0  0  0  0  0  0  0
   43.9020   34.6560   42.2790 C   0  0  0  0  0  0  0  0  0  0  0  0
   43.9550   33.2240   42.3230 C   0  0  0  0  0  0  0  0  0  0  0  0
   44.8190   32.6530   43.2130 N   0  0  0  0  0  0  0  0  0  0  0  0
   45.5990   33.4090   44.0230 C   0  0  0  0  0  0  0  0  0  0  0  0
   45.5520   34.7830   43.9870 N   0  0  0  0  0  0  0  0  0  0  0  0
   44.6240   36.8150   43.0650 N   0  0  0  0  0  0  0  0  0  0  0  0
   43.0420   35.3280   41.3280 C   0  0  0  0  0  0  0  0  0  0  0  0
   41.5340   35.3070   41.7740 C   0  0  0  0  0  0  0  0  0  0  0  0
   40.9640   36.0110   40.5240 C   0  0  0  0  0  0  0  0  0  0  0  0
   41.6800   35.2970   39.4150 C   0  0  0  0  0  0  0  0  0  0  0  0
   43.0420   34.8870   39.9790 C   0  0  0  0  0  0  0  0  0  0  0  0
   46.5420   32.7680   44.9770 C   0  0  0  0  0  0  0  0  0  0  0  0
   46.3510   33.2270   46.3900 C   0  0  0  0  0  0  0  0  0  0  0  0
   45.8410   32.1990   47.3000 C   0  0  0  0  0  0  0  0  0  0  0  0
   45.8840   32.3450   48.6720 C   0  0  0  0  0  0  0  0  0  0  0  0
   45.3460   31.2470   49.2300 N   0  0  0  0  0  0  0  0  0  0  0  0
   44.9720   30.4230   48.2360 C   0  0  0  0  0  0  0  0  0  0  0  0
   45.2740   31.0060   47.0480 N   0  0  0  0  0  0  0  0  0  0  0  0
   43.3238   32.6087   41.6650 H   0  0  0  0  0  0  0  0  0  0  0  0
   43.9790   37.2674   42.4015 H   0  0  0  0  0  0  0  0  0  0  0  0
   45.2078   37.3900   43.6890 H   0  0  0  0  0  0  0  0  0  0  0  0
   43.5039   36.3262   41.3406 H   0  0  0  0  0  0  0  0  0  0  0  0
   41.1448   34.2855   41.8969 H   0  0  0  0  0  0  0  0  0  0  0  0
   41.3001   35.7625   42.7476 H   0  0  0  0  0  0  0  0  0  0  0  0
   39.8749   35.8755   40.4499 H   0  0  0  0  0  0  0  0  0  0  0  0
   41.1125   37.1009   40.5205 H   0  0  0  0  0  0  0  0  0  0  0  0
   41.8107   35.9669   38.5524 H   0  0  0  0  0  0  0  0  0  0  0  0
   41.1103   34.4221   39.0687 H   0  0  0  0  0  0  0  0  0  0  0  0
   43.1648   33.7949   39.9315 H   0  0  0  0  0  0  0  0  0  0  0  0
   43.8707   35.3278   39.4055 H   0  0  0  0  0  0  0  0  0  0  0  0
   46.3917   31.6790   44.9393 H   0  0  0  0  0  0  0  0  0  0  0  0
   47.5600   33.0541   44.6740 H   0  0  0  0  0  0  0  0  0  0  0  0
   47.3224   33.5731   46.7728 H   0  0  0  0  0  0  0  0  0  0  0  0
   45.5916   34.0223   46.3601 H   0  0  0  0  0  0  0  0  0  0  0  0
   46.2891   33.2114   49.2154 H   0  0  0  0  0  0  0  0  0  0  0  0
   44.4990   29.4382   48.3642 H   0  0  0  0  0  0  0  0  0  0  0  0
   45.0993   30.6045   46.1157 H   0  0  0  0  0  0  0  0  0  0  0  0
  1  6  2  0
  2  3  2  0
  2  1  1  0
  3  4  1  0
  4  5  2  0
  5 13  1  0
  6  5  1  0
  7  1  1  0
  8  9  1  0
  8  2  1  0
 10  9  1  0
 11 12  1  0
 11 10  1  0
 12  8  1  0
 13 14  1  0
 14 15  1  0
 15 16  2  0
 16 17  1  0
 18 17  2  0
 19 15  1  0
 19 18  1  0
  3 20  1  0
  7 21  1  0
  7 22  1  0
  8 23  1  0
  9 24  1  0
  9 25  1  0
 10 26  1  0
 10 27  1  0
 11 28  1  0
 11 29  1  0
 12 30  1  0
 12 31  1  0
 13 32  1  0
 13 33  1  0
 14 34  1  0
 14 35  1  0
 16 36  1  0
 18 37  1  0
 19 38  1  0
M  ISO  8  20  14  23  13  24  13  25  13  26  13  27  13  28  13  29  13
M  ISO  8  30  13  31  13  32   8  33   8  34   8  35   8  36  14  37  14
M  ISO  1  38   9
M  END
>  <minimizedAffinity>  (1) 
-5.5790596

>  <minimizedRMSD>  (1) 
0.957743645

$$$$
