
     RDKit          3D

 17 18  0  0  0  0  0  0  0  0999 V2000
   44.4800   36.0410   44.4320 C   0  0  0  0  0  0  0  0  0  0  0  0
   45.1920   35.8390   43.2190 C   0  0  0  0  0  0  0  0  0  0  0  0
   46.0940   34.7790   43.1510 C   0  0  0  0  0  0  0  0  0  0  0  0
   46.2480   33.9850   44.2570 N   0  0  0  0  0  0  0  0  0  0  0  0
   45.5560   34.2020   45.4000 C   0  0  0  0  0  0  0  0  0  0  0  0
   44.6870   35.2150   45.4830 N   0  0  0  0  0  0  0  0  0  0  0  0
   45.7540   33.3310   46.5490 C   0  0  0  0  0  0  0  0  0  0  0  0
   46.7850   32.4480   46.7820 C   0  0  0  0  0  0  0  0  0  0  0  0
   46.6240   31.8060   47.9740 N   0  0  0  0  0  0  0  0  0  0  0  0
   45.4720   32.3070   48.4810 C   0  0  0  0  0  0  0  0  0  0  0  0
   44.9570   33.2170   47.6260 N   0  0  0  0  0  0  0  0  0  0  0  0
   43.7606   36.8689   44.5163 H   0  0  0  0  0  0  0  0  0  0  0  0
   45.0352   36.5024   42.3557 H   0  0  0  0  0  0  0  0  0  0  0  0
   46.6678   34.5846   42.2328 H   0  0  0  0  0  0  0  0  0  0  0  0
   47.6285   32.2823   46.0957 H   0  0  0  0  0  0  0  0  0  0  0  0
   45.0241   32.0168   49.4428 H   0  0  0  0  0  0  0  0  0  0  0  0
   44.0850   33.7442   47.7763 H   0  0  0  0  0  0  0  0  0  0  0  0
  1  6  2  0
  2  1  1  0
  3  2  2  0
  3  4  1  0
  4  5  2  0
  5  6  1  0
  5  7  1  0
  7  8  2  0
  7 11  1  0
  8  9  1  0
  9 10  2  0
 11 10  1  0
  1 12  1  0
  2 13  1  0
  3 14  1  0
  8 15  1  0
 10 16  1  0
 11 17  1  0
M  ISO  6  12  14  13  14  14  14  15  14  16  14  17   9
M  END
>  <minimizedAffinity>  (1) 
-4.52914953

>  <minimizedRMSD>  (1) 
0.369559169

$$$$
