
     RDKit          3D

 32 33  0  0  0  0  0  0  0  0999 V2000
   44.0890   35.0260   42.5490 C   0  0  0  0  0  0  0  0  0  0  0  0
   43.6000   34.7020   41.3040 C   0  0  0  0  0  0  0  0  0  0  0  0
   44.4330   33.9930   40.3820 C   0  0  0  0  0  0  0  0  0  0  0  0
   45.6970   33.6730   40.7970 N   0  0  0  0  0  0  0  0  0  0  0  0
   46.1430   34.0130   42.0290 C   0  0  0  0  0  0  0  0  0  0  0  0
   45.3490   34.6920   42.9230 N   0  0  0  0  0  0  0  0  0  0  0  0
   43.2250   35.7200   43.4570 N   0  0  0  0  0  0  0  0  0  0  0  0
   42.2670   35.1210   40.9200 C   0  0  0  0  0  0  0  0  0  0  0  0
   41.1870   34.0270   41.2460 C   0  0  0  0  0  0  0  0  0  0  0  0
   39.9830   34.8000   40.6590 C   0  0  0  0  0  0  0  0  0  0  0  0
   40.5210   35.2680   39.3590 C   0  0  0  0  0  0  0  0  0  0  0  0
   42.0280   35.4480   39.5600 C   0  0  0  0  0  0  0  0  0  0  0  0
   47.5230   33.6800   42.4650 C   0  0  0  0  0  0  0  0  0  0  0  0
   48.5600   34.0220   41.4330 C   0  0  0  0  0  0  0  0  0  0  0  0
   49.0030   35.7680   41.5390 S   0  0  0  0  0  0  0  0  0  0  0  0
   44.0721   33.7164   39.3804 H   0  0  0  0  0  0  0  0  0  0  0  0
   42.2689   35.9713   43.1678 H   0  0  0  0  0  0  0  0  0  0  0  0
   43.5599   35.9677   44.3990 H   0  0  0  0  0  0  0  0  0  0  0  0
   42.1885   36.0436   41.5139 H   0  0  0  0  0  0  0  0  0  0  0  0
   41.3755   33.0766   40.7252 H   0  0  0  0  0  0  0  0  0  0  0  0
   41.1080   33.6992   42.2930 H   0  0  0  0  0  0  0  0  0  0  0  0
   39.1146   34.1397   40.5177 H   0  0  0  0  0  0  0  0  0  0  0  0
   39.6189   35.6115   41.3062 H   0  0  0  0  0  0  0  0  0  0  0  0
   40.0571   36.2245   39.0765 H   0  0  0  0  0  0  0  0  0  0  0  0
   40.3071   34.5489   38.5545 H   0  0  0  0  0  0  0  0  0  0  0  0
   42.5884   34.7722   38.8972 H   0  0  0  0  0  0  0  0  0  0  0  0
   42.3539   36.4711   39.3213 H   0  0  0  0  0  0  0  0  0  0  0  0
   47.7453   34.2402   43.3852 H   0  0  0  0  0  0  0  0  0  0  0  0
   47.5648   32.5929   42.6278 H   0  0  0  0  0  0  0  0  0  0  0  0
   48.1577   33.8105   40.4313 H   0  0  0  0  0  0  0  0  0  0  0  0
   49.4587   33.4146   41.6160 H   0  0  0  0  0  0  0  0  0  0  0  0
   49.0965   36.1363   42.8552 H   0  0  0  0  0  0  0  0  0  0  0  0
  1  6  2  0
  1  7  1  0
  2  1  1  0
  3  4  1  0
  3  2  2  0
  4  5  2  0
  5 13  1  0
  5  6  1  0
  8  9  1  0
  8  2  1  0
 10  9  1  0
 11 12  1  0
 11 10  1  0
 12  8  1  0
 14 15  1  0
 14 13  1  0
  3 16  1  0
  7 17  1  0
  7 18  1  0
  8 19  1  0
  9 20  1  0
  9 21  1  0
 10 22  1  0
 10 23  1  0
 11 24  1  0
 11 25  1  0
 12 26  1  0
 12 27  1  0
 13 28  1  0
 13 29  1  0
 14 30  1  0
 14 31  1  0
 15 32  1  0
M  ISO  8  16  14  19  13  20  13  21  13  22  13  23  13  24  13  25  13
M  ISO  7  26  13  27  13  28   8  29   8  30   8  31   8  32  11
M  END
>  <minimizedAffinity>  (1) 
-4.41661119

>  <minimizedRMSD>  (1) 
2.56340766

$$$$
