
     RDKit          3D

 36 38  0  0  0  0  0  0  0  0999 V2000
   44.6000   35.3300   42.8950 C   0  0  0  0  0  0  0  0  0  0  0  0
   43.7140   34.6460   42.0940 C   0  0  0  0  0  0  0  0  0  0  0  0
   43.7380   33.2130   42.0810 C   0  0  0  0  0  0  0  0  0  0  0  0
   44.6580   32.5980   42.8790 N   0  0  0  0  0  0  0  0  0  0  0  0
   45.5130   33.3050   43.6500 C   0  0  0  0  0  0  0  0  0  0  0  0
   45.4980   34.6880   43.6720 N   0  0  0  0  0  0  0  0  0  0  0  0
   44.5420   36.7630   42.9020 N   0  0  0  0  0  0  0  0  0  0  0  0
   42.8060   35.3730   41.2300 C   0  0  0  0  0  0  0  0  0  0  0  0
   41.3290   35.3240   41.7450 C   0  0  0  0  0  0  0  0  0  0  0  0
   40.7180   36.1180   40.5520 C   0  0  0  0  0  0  0  0  0  0  0  0
   41.3490   35.4480   39.3810 C   0  0  0  0  0  0  0  0  0  0  0  0
   42.7300   34.9900   39.8640 C   0  0  0  0  0  0  0  0  0  0  0  0
   46.5280   32.6090   44.4830 C   0  0  0  0  0  0  0  0  0  0  0  0
   46.5580   33.1100   45.8920 C   0  0  0  0  0  0  0  0  0  0  0  0
   45.8730   32.2390   46.8480 C   0  0  0  0  0  0  0  0  0  0  0  0
   45.2120   32.6460   47.9460 N   0  0  0  0  0  0  0  0  0  0  0  0
   44.7170   31.5970   48.5790 O   0  0  0  0  0  0  0  0  0  0  0  0
   45.0400   30.4930   47.9170 C   0  0  0  0  0  0  0  0  0  0  0  0
   45.7620   30.8990   46.8360 N   0  0  0  0  0  0  0  0  0  0  0  0
   43.0441   32.6336   41.4542 H   0  0  0  0  0  0  0  0  0  0  0  0
   43.8571   37.2536   42.3094 H   0  0  0  0  0  0  0  0  0  0  0  0
   45.1852   37.3015   43.4996 H   0  0  0  0  0  0  0  0  0  0  0  0
   43.2668   36.3708   41.2749 H   0  0  0  0  0  0  0  0  0  0  0  0
   40.9378   34.2985   41.8185 H   0  0  0  0  0  0  0  0  0  0  0  0
   41.1361   35.7092   42.7571 H   0  0  0  0  0  0  0  0  0  0  0  0
   39.6226   36.0209   40.5261 H   0  0  0  0  0  0  0  0  0  0  0  0
   40.9040   37.2012   40.5975 H   0  0  0  0  0  0  0  0  0  0  0  0
   41.4496   36.1534   38.5430 H   0  0  0  0  0  0  0  0  0  0  0  0
   40.7433   34.6040   39.0194 H   0  0  0  0  0  0  0  0  0  0  0  0
   42.8283   33.8988   39.7656 H   0  0  0  0  0  0  0  0  0  0  0  0
   43.5382   35.4417   39.2701 H   0  0  0  0  0  0  0  0  0  0  0  0
   46.2956   31.5339   44.4963 H   0  0  0  0  0  0  0  0  0  0  0  0
   47.5149   32.8055   44.0387 H   0  0  0  0  0  0  0  0  0  0  0  0
   47.6088   33.2059   46.2027 H   0  0  0  0  0  0  0  0  0  0  0  0
   46.0248   34.0721   45.8992 H   0  0  0  0  0  0  0  0  0  0  0  0
   44.7777   29.4594   48.1868 H   0  0  0  0  0  0  0  0  0  0  0  0
  1  7  1  0
  1  6  2  0
  2  1  1  0
  3  2  2  0
  3  4  1  0
  4  5  2  0
  5  6  1  0
  5 13  1  0
  8  9  1  0
  8  2  1  0
 10  9  1  0
 11 12  1  0
 11 10  1  0
 12  8  1  0
 13 14  1  0
 14 15  1  0
 15 16  2  0
 16 17  1  0
 18 17  1  0
 19 15  1  0
 19 18  2  0
  3 20  1  0
  7 21  1  0
  7 22  1  0
  8 23  1  0
  9 24  1  0
  9 25  1  0
 10 26  1  0
 10 27  1  0
 11 28  1  0
 11 29  1  0
 12 30  1  0
 12 31  1  0
 13 32  1  0
 13 33  1  0
 14 34  1  0
 14 35  1  0
 18 36  1  0
M  ISO  8  20  14  23  13  24  13  25  13  26  13  27  13  28  13  29  13
M  ISO  7  30  13  31  13  32   8  33   8  34   8  35   8  36  14
M  END
>  <minimizedAffinity>  (1) 
-5.3469286

>  <minimizedRMSD>  (1) 
0.845872939

$$$$
