
     RDKit          3D

 45 48  0  0  0  0  0  0  0  0999 V2000
   44.8160   35.5570   42.8290 C   0  0  0  0  0  0  0  0  0  0  0  0
   43.9270   34.8280   42.0930 C   0  0  0  0  0  0  0  0  0  0  0  0
   44.0480   33.4160   42.0900 C   0  0  0  0  0  0  0  0  0  0  0  0
   45.0520   32.8490   42.8240 N   0  0  0  0  0  0  0  0  0  0  0  0
   45.9020   33.6110   43.5320 C   0  0  0  0  0  0  0  0  0  0  0  0
   45.8020   34.9940   43.5490 N   0  0  0  0  0  0  0  0  0  0  0  0
   44.6700   36.9950   42.8340 N   0  0  0  0  0  0  0  0  0  0  0  0
   42.9030   35.4870   41.3110 C   0  0  0  0  0  0  0  0  0  0  0  0
   41.4660   35.3240   41.9440 C   0  0  0  0  0  0  0  0  0  0  0  0
   40.6960   36.0580   40.8260 C   0  0  0  0  0  0  0  0  0  0  0  0
   41.2940   35.4700   39.5950 C   0  0  0  0  0  0  0  0  0  0  0  0
   42.7320   35.1070   39.9630 C   0  0  0  0  0  0  0  0  0  0  0  0
   46.9990   32.9960   44.3220 C   0  0  0  0  0  0  0  0  0  0  0  0
   46.6150   32.6560   45.7200 C   0  0  0  0  0  0  0  0  0  0  0  0
   46.1770   31.2960   45.8810 N   0  0  0  0  0  0  0  0  0  0  0  0
   46.3400   30.2150   45.0900 C   0  0  0  0  0  0  0  0  0  0  0  0
   45.7210   29.1230   45.6990 C   0  0  0  0  0  0  0  0  0  0  0  0
   45.2030   29.6060   46.8550 N   0  0  0  0  0  0  0  0  0  0  0  0
   45.4720   30.9220   46.9780 C   0  0  0  0  0  0  0  0  0  0  0  0
   45.0350   31.7470   48.1430 C   0  0  0  0  0  0  0  0  0  0  0  0
   46.0230   32.3300   49.0680 C   0  0  0  0  0  0  0  0  0  0  0  0
   45.1590   31.1990   49.5300 C   0  0  0  0  0  0  0  0  0  0  0  0
   43.3512   32.7918   41.5113 H   0  0  0  0  0  0  0  0  0  0  0  0
   43.9186   37.4383   42.2865 H   0  0  0  0  0  0  0  0  0  0  0  0
   45.3174   37.5765   43.3851 H   0  0  0  0  0  0  0  0  0  0  0  0
   43.3037   36.5113   41.3284 H   0  0  0  0  0  0  0  0  0  0  0  0
   41.1649   34.2707   42.0431 H   0  0  0  0  0  0  0  0  0  0  0  0
   41.3298   35.6990   42.9691 H   0  0  0  0  0  0  0  0  0  0  0  0
   39.6170   35.8519   40.8831 H   0  0  0  0  0  0  0  0  0  0  0  0
   40.7794   37.1536   40.8779 H   0  0  0  0  0  0  0  0  0  0  0  0
   41.2819   36.2035   38.7753 H   0  0  0  0  0  0  0  0  0  0  0  0
   40.7298   34.5905   39.2512 H   0  0  0  0  0  0  0  0  0  0  0  0
   42.8929   34.0248   39.8488 H   0  0  0  0  0  0  0  0  0  0  0  0
   43.4536   35.6179   39.3086 H   0  0  0  0  0  0  0  0  0  0  0  0
   47.3160   32.0727   43.8151 H   0  0  0  0  0  0  0  0  0  0  0  0
   47.8061   33.7408   44.3835 H   0  0  0  0  0  0  0  0  0  0  0  0
   47.4871   32.8200   46.3701 H   0  0  0  0  0  0  0  0  0  0  0  0
   45.7665   33.3026   45.9883 H   0  0  0  0  0  0  0  0  0  0  0  0
   46.8715   30.1977   44.1271 H   0  0  0  0  0  0  0  0  0  0  0  0
   45.6652   28.0911   45.3220 H   0  0  0  0  0  0  0  0  0  0  0  0
   44.2146   32.1573   47.5358 H   0  0  0  0  0  0  0  0  0  0  0  0
   47.0973   32.1657   48.8981 H   0  0  0  0  0  0  0  0  0  0  0  0
   46.2345   33.3444   49.4372 H   0  0  0  0  0  0  0  0  0  0  0  0
   44.3630   31.3772   50.2680 H   0  0  0  0  0  0  0  0  0  0  0  0
   45.3363   30.2052   49.9670 H   0  0  0  0  0  0  0  0  0  0  0  0
  1  7  1  0
  1  6  2  0
  2  1  1  0
  3  2  2  0
  3  4  1  0
  4  5  2  0
  5  6  1  0
  5 13  1  0
  8  9  1  0
  8  2  1  0
 10  9  1  0
 11 12  1  0
 11 10  1  0
 12  8  1  0
 13 14  1  0
 14 15  1  0
 15 19  1  0
 16 17  2  0
 16 15  1  0
 17 18  1  0
 18 19  2  0
 19 20  1  0
 20 21  1  0
 20 22  1  0
 21 22  1  0
  3 23  1  0
  7 24  1  0
  7 25  1  0
  8 26  1  0
  9 27  1  0
  9 28  1  0
 10 29  1  0
 10 30  1  0
 11 31  1  0
 11 32  1  0
 12 33  1  0
 12 34  1  0
 13 35  1  0
 13 36  1  0
 14 37  1  0
 14 38  1  0
 16 39  1  0
 17 40  1  0
 20 41  1  0
 21 42  1  0
 21 43  1  0
 22 44  1  0
 22 45  1  0
M  ISO  8  23  14  26  13  27  13  28  13  29  13  30  13  31  13  32  13
M  ISO  8  33  13  34  13  35   8  36   8  37   8  38   8  39  14  40  14
M  ISO  5  41  13  42  13  43  13  44  13  45  13
M  END
>  <minimizedAffinity>  (1) 
-5.63391447

>  <minimizedRMSD>  (1) 
1.38963425

$$$$
