
     RDKit          3D

 44 47  0  0  0  0  0  0  0  0999 V2000
   43.9060   34.6330   42.2810 C   0  0  0  0  0  0  0  0  0  0  0  0
   43.1990   34.2350   41.1830 C   0  0  0  0  0  0  0  0  0  0  0  0
   43.6620   33.1160   40.4420 C   0  0  0  0  0  0  0  0  0  0  0  0
   44.8000   32.4900   40.8630 N   0  0  0  0  0  0  0  0  0  0  0  0
   45.4610   32.9220   41.9500 C   0  0  0  0  0  0  0  0  0  0  0  0
   45.0310   34.0080   42.6900 N   0  0  0  0  0  0  0  0  0  0  0  0
   43.4100   35.7640   43.0270 N   0  0  0  0  0  0  0  0  0  0  0  0
   42.0150   34.9510   40.7650 C   0  0  0  0  0  0  0  0  0  0  0  0
   40.6820   34.1920   41.1430 C   0  0  0  0  0  0  0  0  0  0  0  0
   39.7200   35.2250   40.4980 C   0  0  0  0  0  0  0  0  0  0  0  0
   40.3630   35.4430   39.1760 C   0  0  0  0  0  0  0  0  0  0  0  0
   41.8610   35.2670   39.3980 C   0  0  0  0  0  0  0  0  0  0  0  0
   46.7060   32.2500   42.4120 C   0  0  0  0  0  0  0  0  0  0  0  0
   47.8720   32.4500   41.5130 C   0  0  0  0  0  0  0  0  0  0  0  0
   48.3480   33.7880   41.4550 N   0  0  0  0  0  0  0  0  0  0  0  0
   48.8590   34.5810   42.4020 C   0  0  0  0  0  0  0  0  0  0  0  0
   49.1830   35.8120   41.8520 C   0  0  0  0  0  0  0  0  0  0  0  0
   48.8430   35.7130   40.5430 N   0  0  0  0  0  0  0  0  0  0  0  0
   48.3330   34.4810   40.2880 C   0  0  0  0  0  0  0  0  0  0  0  0
   47.8810   34.0540   39.0070 N   0  0  0  0  0  0  0  0  0  0  0  0
   48.5360   34.4960   37.8970 C   0  0  0  0  0  0  0  0  0  0  0  0
   47.9540   33.9810   36.7920 N   0  0  0  0  0  0  0  0  0  0  0  0
   46.9300   33.2110   37.2260 C   0  0  0  0  0  0  0  0  0  0  0  0
   46.8970   33.2670   38.5830 N   0  0  0  0  0  0  0  0  0  0  0  0
   43.1188   32.7630   39.5530 H   0  0  0  0  0  0  0  0  0  0  0  0
   42.5526   36.2463   42.7218 H   0  0  0  0  0  0  0  0  0  0  0  0
   43.9133   36.0891   43.8648 H   0  0  0  0  0  0  0  0  0  0  0  0
   42.1819   35.8894   41.3142 H   0  0  0  0  0  0  0  0  0  0  0  0
   40.6123   33.1978   40.6776 H   0  0  0  0  0  0  0  0  0  0  0  0
   40.5238   33.9534   42.2051 H   0  0  0  0  0  0  0  0  0  0  0  0
   38.7051   34.8152   40.3886 H   0  0  0  0  0  0  0  0  0  0  0  0
   39.5862   36.1433   41.0887 H   0  0  0  0  0  0  0  0  0  0  0  0
   40.1483   36.4579   38.8102 H   0  0  0  0  0  0  0  0  0  0  0  0
   39.9832   34.7359   38.4238 H   0  0  0  0  0  0  0  0  0  0  0  0
   42.2474   34.4503   38.7706 H   0  0  0  0  0  0  0  0  0  0  0  0
   42.4188   36.1759   39.1283 H   0  0  0  0  0  0  0  0  0  0  0  0
   46.9638   32.6454   43.4056 H   0  0  0  0  0  0  0  0  0  0  0  0
   46.4974   31.1700   42.4260 H   0  0  0  0  0  0  0  0  0  0  0  0
   48.6926   31.8083   41.8664 H   0  0  0  0  0  0  0  0  0  0  0  0
   47.5327   32.1940   40.4984 H   0  0  0  0  0  0  0  0  0  0  0  0
   49.0008   34.3001   43.4560 H   0  0  0  0  0  0  0  0  0  0  0  0
   49.6208   36.6804   42.3660 H   0  0  0  0  0  0  0  0  0  0  0  0
   49.4058   35.1693   37.9002 H   0  0  0  0  0  0  0  0  0  0  0  0
   46.2412   32.6371   36.5886 H   0  0  0  0  0  0  0  0  0  0  0  0
  1  6  2  0
  1  7  1  0
  2  1  1  0
  3  4  1  0
  3  2  2  0
  4  5  2  0
  5 13  1  0
  5  6  1  0
  8  9  1  0
  8  2  1  0
 10  9  1  0
 11 12  1  0
 11 10  1  0
 12  8  1  0
 14 13  1  0
 15 14  1  0
 15 16  1  0
 17 16  2  0
 18 17  1  0
 19 18  2  0
 19 15  1  0
 20 19  1  0
 21 20  1  0
 22 23  1  0
 22 21  2  0
 23 24  2  0
 24 20  1  0
  3 25  1  0
  7 26  1  0
  7 27  1  0
  8 28  1  0
  9 29  1  0
  9 30  1  0
 10 31  1  0
 10 32  1  0
 11 33  1  0
 11 34  1  0
 12 35  1  0
 12 36  1  0
 13 37  1  0
 13 38  1  0
 14 39  1  0
 14 40  1  0
 16 41  1  0
 17 42  1  0
 21 43  1  0
 23 44  1  0
M  ISO  8  25  14  28  13  29  13  30  13  31  13  32  13  33  13  34  13
M  ISO  8  35  13  36  13  37   8  38   8  39   8  40   8  41  14  42  14
M  ISO  2  43  14  44  14
M  END
>  <minimizedAffinity>  (1) 
-5.79624796

>  <minimizedRMSD>  (1) 
6.64419127

$$$$
