
     RDKit          3D

 45 48  0  0  0  0  0  0  0  0999 V2000
   44.5510   35.2030   42.4150 C   0  0  0  0  0  0  0  0  0  0  0  0
   43.6330   34.6460   41.5720 C   0  0  0  0  0  0  0  0  0  0  0  0
   43.7400   33.2520   41.2700 C   0  0  0  0  0  0  0  0  0  0  0  0
   44.7590   32.5440   41.8390 N   0  0  0  0  0  0  0  0  0  0  0  0
   45.6360   33.1470   42.6630 C   0  0  0  0  0  0  0  0  0  0  0  0
   45.5460   34.4880   42.9640 N   0  0  0  0  0  0  0  0  0  0  0  0
   44.4050   36.6000   42.7150 N   0  0  0  0  0  0  0  0  0  0  0  0
   42.5930   35.4370   40.9580 C   0  0  0  0  0  0  0  0  0  0  0  0
   41.2170   35.3210   41.7210 C   0  0  0  0  0  0  0  0  0  0  0  0
   40.4000   36.2020   40.7530 C   0  0  0  0  0  0  0  0  0  0  0  0
   40.8260   35.6910   39.4220 C   0  0  0  0  0  0  0  0  0  0  0  0
   42.2670   35.2140   39.6010 C   0  0  0  0  0  0  0  0  0  0  0  0
   46.7490   32.3740   43.2670 C   0  0  0  0  0  0  0  0  0  0  0  0
   46.5120   31.9770   44.6790 C   0  0  0  0  0  0  0  0  0  0  0  0
   45.9140   30.6990   44.8420 N   0  0  0  0  0  0  0  0  0  0  0  0
   45.6460   29.7380   43.9610 C   0  0  0  0  0  0  0  0  0  0  0  0
   45.0510   28.6580   44.5960 C   0  0  0  0  0  0  0  0  0  0  0  0
   44.9810   29.0330   45.9000 N   0  0  0  0  0  0  0  0  0  0  0  0
   45.5010   30.2660   46.0600 C   0  0  0  0  0  0  0  0  0  0  0  0
   45.5770   30.9460   47.3100 N   0  0  0  0  0  0  0  0  0  0  0  0
   45.7850   32.2250   47.6830 C   0  0  0  0  0  0  0  0  0  0  0  0
   45.7460   32.2610   49.0640 C   0  0  0  0  0  0  0  0  0  0  0  0
   45.5130   30.9910   49.4810 N   0  0  0  0  0  0  0  0  0  0  0  0
   45.4090   30.1820   48.4230 C   0  0  0  0  0  0  0  0  0  0  0  0
   43.0201   32.7633   40.5970 H   0  0  0  0  0  0  0  0  0  0  0  0
   43.6387   37.1408   42.2893 H   0  0  0  0  0  0  0  0  0  0  0  0
   45.0666   37.0610   43.3558 H   0  0  0  0  0  0  0  0  0  0  0  0
   43.0769   36.4227   41.0228 H   0  0  0  0  0  0  0  0  0  0  0  0
   40.8453   34.2867   41.7662 H   0  0  0  0  0  0  0  0  0  0  0  0
   41.2123   35.6141   42.7812 H   0  0  0  0  0  0  0  0  0  0  0  0
   39.3193   36.0645   40.9051 H   0  0  0  0  0  0  0  0  0  0  0  0
   40.5729   37.2801   40.8866 H   0  0  0  0  0  0  0  0  0  0  0  0
   40.7785   36.4930   38.6706 H   0  0  0  0  0  0  0  0  0  0  0  0
   40.1714   34.8795   39.0714 H   0  0  0  0  0  0  0  0  0  0  0  0
   42.3464   34.1434   39.3612 H   0  0  0  0  0  0  0  0  0  0  0  0
   42.9528   35.7535   38.9312 H   0  0  0  0  0  0  0  0  0  0  0  0
   46.8995   31.4614   42.6716 H   0  0  0  0  0  0  0  0  0  0  0  0
   47.6311   33.0312   43.2648 H   0  0  0  0  0  0  0  0  0  0  0  0
   47.4803   31.9717   45.2009 H   0  0  0  0  0  0  0  0  0  0  0  0
   45.8022   32.7082   45.0932 H   0  0  0  0  0  0  0  0  0  0  0  0
   45.8649   29.7925   42.8844 H   0  0  0  0  0  0  0  0  0  0  0  0
   44.7127   27.7129   44.1462 H   0  0  0  0  0  0  0  0  0  0  0  0
   45.9543   33.0806   47.0127 H   0  0  0  0  0  0  0  0  0  0  0  0
   45.8782   33.1475   49.7016 H   0  0  0  0  0  0  0  0  0  0  0  0
   45.2221   29.0983   48.4473 H   0  0  0  0  0  0  0  0  0  0  0  0
  1  7  1  0
  1  6  2  0
  2  1  1  0
  3  2  2  0
  3  4  1  0
  4  5  2  0
  5  6  1  0
  5 13  1  0
  8  2  1  0
  8  9  1  0
 10  9  1  0
 11 12  1  0
 11 10  1  0
 12  8  1  0
 13 14  1  0
 14 15  1  0
 15 19  1  0
 16 17  2  0
 16 15  1  0
 17 18  1  0
 18 19  2  0
 19 20  1  0
 20 21  1  0
 20 24  1  0
 21 22  2  0
 22 23  1  0
 24 23  2  0
  3 25  1  0
  7 26  1  0
  7 27  1  0
  8 28  1  0
  9 29  1  0
  9 30  1  0
 10 31  1  0
 10 32  1  0
 11 33  1  0
 11 34  1  0
 12 35  1  0
 12 36  1  0
 13 37  1  0
 13 38  1  0
 14 39  1  0
 14 40  1  0
 16 41  1  0
 17 42  1  0
 21 43  1  0
 22 44  1  0
 24 45  1  0
M  ISO  8  25  14  28  13  29  13  30  13  31  13  32  13  33  13  34  13
M  ISO  8  35  13  36  13  37   8  38   8  39   8  40   8  41  14  42  14
M  ISO  3  43  14  44  14  45  14
M  END
>  <minimizedAffinity>  (1) 
-5.67845631

>  <minimizedRMSD>  (1) 
2.31469297

$$$$
