
     RDKit          3D

 41 43  0  0  0  0  0  0  0  0999 V2000
   44.7580   35.4240   42.9440 C   0  0  0  0  0  0  0  0  0  0  0  0
   43.8790   34.7360   42.1560 C   0  0  0  0  0  0  0  0  0  0  0  0
   43.9730   33.3230   42.1080 C   0  0  0  0  0  0  0  0  0  0  0  0
   44.9370   32.7050   42.8510 N   0  0  0  0  0  0  0  0  0  0  0  0
   45.7830   33.4340   43.6150 C   0  0  0  0  0  0  0  0  0  0  0  0
   45.7110   34.8050   43.6770 N   0  0  0  0  0  0  0  0  0  0  0  0
   44.6380   36.8640   42.9840 N   0  0  0  0  0  0  0  0  0  0  0  0
   42.8930   35.4280   41.3630 C   0  0  0  0  0  0  0  0  0  0  0  0
   41.4350   35.2920   41.9540 C   0  0  0  0  0  0  0  0  0  0  0  0
   40.7240   36.0890   40.8310 C   0  0  0  0  0  0  0  0  0  0  0  0
   41.3290   35.4790   39.6040 C   0  0  0  0  0  0  0  0  0  0  0  0
   42.7510   35.0920   39.9980 C   0  0  0  0  0  0  0  0  0  0  0  0
   46.8440   32.7800   44.4240 C   0  0  0  0  0  0  0  0  0  0  0  0
   46.5040   32.6450   45.8670 C   0  0  0  0  0  0  0  0  0  0  0  0
   45.9700   31.3540   46.2050 N   0  0  0  0  0  0  0  0  0  0  0  0
   45.7570   30.2560   45.4460 C   0  0  0  0  0  0  0  0  0  0  0  0
   45.2160   29.2550   46.2540 C   0  0  0  0  0  0  0  0  0  0  0  0
   45.1240   29.8060   47.4920 N   0  0  0  0  0  0  0  0  0  0  0  0
   45.5750   31.0710   47.4750 C   0  0  0  0  0  0  0  0  0  0  0  0
   45.6220   31.9870   48.6700 C   0  0  0  0  0  0  0  0  0  0  0  0
   46.9580   32.2430   48.9880 F   0  0  0  0  0  0  0  0  0  0  0  0
   44.9570   31.4640   49.7530 F   0  0  0  0  0  0  0  0  0  0  0  0
   45.0560   33.1780   48.3410 F   0  0  0  0  0  0  0  0  0  0  0  0
   43.2829   32.7358   41.4844 H   0  0  0  0  0  0  0  0  0  0  0  0
   43.9123   37.3360   42.4259 H   0  0  0  0  0  0  0  0  0  0  0  0
   45.2782   37.4180   43.5706 H   0  0  0  0  0  0  0  0  0  0  0  0
   43.3212   36.4399   41.4158 H   0  0  0  0  0  0  0  0  0  0  0  0
   41.0966   34.2469   42.0119 H   0  0  0  0  0  0  0  0  0  0  0  0
   41.2801   35.6372   42.9869 H   0  0  0  0  0  0  0  0  0  0  0  0
   39.6347   35.9387   40.8593 H   0  0  0  0  0  0  0  0  0  0  0  0
   40.8554   37.1788   40.9019 H   0  0  0  0  0  0  0  0  0  0  0  0
   41.3435   36.2076   38.7800 H   0  0  0  0  0  0  0  0  0  0  0  0
   40.7523   34.6100   39.2543 H   0  0  0  0  0  0  0  0  0  0  0  0
   42.9050   34.0124   39.8541 H   0  0  0  0  0  0  0  0  0  0  0  0
   43.4930   35.6176   39.3790 H   0  0  0  0  0  0  0  0  0  0  0  0
   47.0220   31.7747   44.0144 H   0  0  0  0  0  0  0  0  0  0  0  0
   47.7341   33.4236   44.3641 H   0  0  0  0  0  0  0  0  0  0  0  0
   47.4166   32.8114   46.4582 H   0  0  0  0  0  0  0  0  0  0  0  0
   45.7253   33.3892   46.0902 H   0  0  0  0  0  0  0  0  0  0  0  0
   45.9738   30.1664   44.3713 H   0  0  0  0  0  0  0  0  0  0  0  0
   44.9261   28.2375   45.9527 H   0  0  0  0  0  0  0  0  0  0  0  0
  1  7  1  0
  1  6  2  0
  2  1  1  0
  3  2  2  0
  3  4  1  0
  4  5  2  0
  5  6  1  0
  5 13  1  0
  8  9  1  0
  8  2  1  0
 10  9  1  0
 11 12  1  0
 11 10  1  0
 12  8  1  0
 13 14  1  0
 14 15  1  0
 15 19  1  0
 16 15  1  0
 16 17  2  0
 17 18  1  0
 19 18  2  0
 19 20  1  0
 20 21  1  0
 20 22  1  0
 23 20  1  0
  3 24  1  0
  7 25  1  0
  7 26  1  0
  8 27  1  0
  9 28  1  0
  9 29  1  0
 10 30  1  0
 10 31  1  0
 11 32  1  0
 11 33  1  0
 12 34  1  0
 12 35  1  0
 13 36  1  0
 13 37  1  0
 14 38  1  0
 14 39  1  0
 16 40  1  0
 17 41  1  0
M  ISO  8  24  14  27  13  28  13  29  13  30  13  31  13  32  13  33  13
M  ISO  8  34  13  35  13  36   8  37   8  38   8  39   8  40  14  41  14
M  END
>  <minimizedAffinity>  (1) 
-6.00432205

>  <minimizedRMSD>  (1) 
1.219558

$$$$
