
     RDKit          3D

 45 48  0  0  0  0  0  0  0  0999 V2000
   44.7490   35.3740   42.1570 C   0  0  0  0  0  0  0  0  0  0  0  0
   43.9040   34.7970   41.2490 C   0  0  0  0  0  0  0  0  0  0  0  0
   44.2080   33.5040   40.7590 C   0  0  0  0  0  0  0  0  0  0  0  0
   45.3360   32.8770   41.2100 N   0  0  0  0  0  0  0  0  0  0  0  0
   46.1440   33.4990   42.1150 C   0  0  0  0  0  0  0  0  0  0  0  0
   45.8620   34.7630   42.6070 N   0  0  0  0  0  0  0  0  0  0  0  0
   44.4070   36.6890   42.6480 N   0  0  0  0  0  0  0  0  0  0  0  0
   42.7400   35.5030   40.7690 C   0  0  0  0  0  0  0  0  0  0  0  0
   41.4660   35.2420   41.6610 C   0  0  0  0  0  0  0  0  0  0  0  0
   40.4860   36.0870   40.8070 C   0  0  0  0  0  0  0  0  0  0  0  0
   40.8150   35.6240   39.4190 C   0  0  0  0  0  0  0  0  0  0  0  0
   42.2900   35.2520   39.4530 C   0  0  0  0  0  0  0  0  0  0  0  0
   47.3790   32.8390   42.6100 C   0  0  0  0  0  0  0  0  0  0  0  0
   47.4290   32.6820   44.0880 C   0  0  0  0  0  0  0  0  0  0  0  0
   47.6900   31.3570   44.5250 N   0  0  0  0  0  0  0  0  0  0  0  0
   48.3180   30.3350   43.9210 C   0  0  0  0  0  0  0  0  0  0  0  0
   48.3200   29.2320   44.7630 C   0  0  0  0  0  0  0  0  0  0  0  0
   47.6700   29.6450   45.8800 N   0  0  0  0  0  0  0  0  0  0  0  0
   47.2890   30.9200   45.7480 C   0  0  0  0  0  0  0  0  0  0  0  0
   46.5730   31.5800   46.8260 C   0  0  0  0  0  0  0  0  0  0  0  0
   46.9160   31.4250   48.1520 C   0  0  0  0  0  0  0  0  0  0  0  0
   46.0350   32.1860   48.8910 C   0  0  0  0  0  0  0  0  0  0  0  0
   45.1920   32.7720   47.9750 C   0  0  0  0  0  0  0  0  0  0  0  0
   45.5540   32.3780   46.7570 O   0  0  0  0  0  0  0  0  0  0  0  0
   43.5484   33.0127   40.0285 H   0  0  0  0  0  0  0  0  0  0  0  0
   43.5572   37.1610   42.3074 H   0  0  0  0  0  0  0  0  0  0  0  0
   45.0130   37.1546   43.3386 H   0  0  0  0  0  0  0  0  0  0  0  0
   43.1344   36.5290   40.8097 H   0  0  0  0  0  0  0  0  0  0  0  0
   41.1862   34.1789   41.6998 H   0  0  0  0  0  0  0  0  0  0  0  0
   41.5436   35.4948   42.7288 H   0  0  0  0  0  0  0  0  0  0  0  0
   39.4391   35.8690   41.0648 H   0  0  0  0  0  0  0  0  0  0  0  0
   40.5895   37.1725   40.9518 H   0  0  0  0  0  0  0  0  0  0  0  0
   40.6388   36.4311   38.6927 H   0  0  0  0  0  0  0  0  0  0  0  0
   40.1870   34.7744   39.1128 H   0  0  0  0  0  0  0  0  0  0  0  0
   42.4189   34.1883   39.2043 H   0  0  0  0  0  0  0  0  0  0  0  0
   42.8636   35.8375   38.7194 H   0  0  0  0  0  0  0  0  0  0  0  0
   47.4445   31.8403   42.1535 H   0  0  0  0  0  0  0  0  0  0  0  0
   48.2215   33.4883   42.3298 H   0  0  0  0  0  0  0  0  0  0  0  0
   48.2230   33.3362   44.4775 H   0  0  0  0  0  0  0  0  0  0  0  0
   46.4316   32.9488   44.4676 H   0  0  0  0  0  0  0  0  0  0  0  0
   48.7619   30.3673   42.9150 H   0  0  0  0  0  0  0  0  0  0  0  0
   48.7536   28.2401   44.5676 H   0  0  0  0  0  0  0  0  0  0  0  0
   47.7381   30.8098   48.5466 H   0  0  0  0  0  0  0  0  0  0  0  0
   46.0111   32.3007   49.9847 H   0  0  0  0  0  0  0  0  0  0  0  0
   44.3595   33.4514   48.2101 H   0  0  0  0  0  0  0  0  0  0  0  0
  1  6  2  0
  1  7  1  0
  2  1  1  0
  3  4  1  0
  3  2  2  0
  4  5  2  0
  5  6  1  0
  5 13  1  0
  8  2  1  0
  8  9  1  0
 10  9  1  0
 11 12  1  0
 11 10  1  0
 12  8  1  0
 13 14  1  0
 14 15  1  0
 15 19  1  0
 16 15  1  0
 16 17  2  0
 17 18  1  0
 19 18  2  0
 19 20  1  0
 20 21  2  0
 21 22  1  0
 23 22  2  0
 24 20  1  0
 24 23  1  0
  3 25  1  0
  7 26  1  0
  7 27  1  0
  8 28  1  0
  9 29  1  0
  9 30  1  0
 10 31  1  0
 10 32  1  0
 11 33  1  0
 11 34  1  0
 12 35  1  0
 12 36  1  0
 13 37  1  0
 13 38  1  0
 14 39  1  0
 14 40  1  0
 16 41  1  0
 17 42  1  0
 21 43  1  0
 22 44  1  0
 23 45  1  0
M  ISO  8  25  14  28  13  29  13  30  13  31  13  32  13  33  13  34  13
M  ISO  8  35  13  36  13  37   8  38   8  39   8  40   8  41  14  42  14
M  ISO  3  43  14  44  14  45  14
M  END
>  <minimizedAffinity>  (1) 
-5.33436155

>  <minimizedRMSD>  (1) 
2.50496936

$$$$
