
     RDKit          3D

 47 49  0  0  0  0  0  0  0  0999 V2000
   44.7710   35.3990   42.8700 C   0  0  0  0  0  0  0  0  0  0  0  0
   43.8870   34.7230   42.0780 C   0  0  0  0  0  0  0  0  0  0  0  0
   43.9980   33.3150   41.9840 C   0  0  0  0  0  0  0  0  0  0  0  0
   44.9870   32.6940   42.6920 N   0  0  0  0  0  0  0  0  0  0  0  0
   45.8350   33.4060   43.4590 C   0  0  0  0  0  0  0  0  0  0  0  0
   45.7450   34.7860   43.5670 N   0  0  0  0  0  0  0  0  0  0  0  0
   44.6320   36.8370   42.9610 N   0  0  0  0  0  0  0  0  0  0  0  0
   42.8780   35.4300   41.3250 C   0  0  0  0  0  0  0  0  0  0  0  0
   41.4370   35.2770   41.9510 C   0  0  0  0  0  0  0  0  0  0  0  0
   40.6910   36.0890   40.8650 C   0  0  0  0  0  0  0  0  0  0  0  0
   41.2710   35.5230   39.6100 C   0  0  0  0  0  0  0  0  0  0  0  0
   42.7010   35.1220   39.9590 C   0  0  0  0  0  0  0  0  0  0  0  0
   46.9190   32.7350   44.2240 C   0  0  0  0  0  0  0  0  0  0  0  0
   46.5480   32.3990   45.6290 C   0  0  0  0  0  0  0  0  0  0  0  0
   46.0310   31.0720   45.7840 N   0  0  0  0  0  0  0  0  0  0  0  0
   46.0290   30.0150   44.9410 C   0  0  0  0  0  0  0  0  0  0  0  0
   45.3990   28.9410   45.5620 C   0  0  0  0  0  0  0  0  0  0  0  0
   45.0380   29.4020   46.7820 N   0  0  0  0  0  0  0  0  0  0  0  0
   45.4150   30.6900   46.9280 C   0  0  0  0  0  0  0  0  0  0  0  0
   45.1070   31.3960   48.2210 C   0  0  0  0  0  0  0  0  0  0  0  0
   45.0220   32.8980   47.9900 C   0  0  0  0  0  0  0  0  0  0  0  0
   46.1710   31.1370   49.2320 C   0  0  0  0  0  0  0  0  0  0  0  0
   43.3050   32.7355   41.3564 H   0  0  0  0  0  0  0  0  0  0  0  0
   43.8901   37.3172   42.4320 H   0  0  0  0  0  0  0  0  0  0  0  0
   45.2750   37.3800   43.5548 H   0  0  0  0  0  0  0  0  0  0  0  0
   43.3049   36.4419   41.3875 H   0  0  0  0  0  0  0  0  0  0  0  0
   41.1052   34.2293   41.9990 H   0  0  0  0  0  0  0  0  0  0  0  0
   41.3092   35.6040   42.9935 H   0  0  0  0  0  0  0  0  0  0  0  0
   39.6049   35.9223   40.9153 H   0  0  0  0  0  0  0  0  0  0  0  0
   40.8119   37.1781   40.9606 H   0  0  0  0  0  0  0  0  0  0  0  0
   41.2691   36.2796   38.8116 H   0  0  0  0  0  0  0  0  0  0  0  0
   40.6872   34.6655   39.2441 H   0  0  0  0  0  0  0  0  0  0  0  0
   42.8463   34.0449   39.7897 H   0  0  0  0  0  0  0  0  0  0  0  0
   43.4298   35.6561   39.3316 H   0  0  0  0  0  0  0  0  0  0  0  0
   47.1845   31.8030   43.7035 H   0  0  0  0  0  0  0  0  0  0  0  0
   47.7589   33.4435   44.2761 H   0  0  0  0  0  0  0  0  0  0  0  0
   47.4444   32.4987   46.2587 H   0  0  0  0  0  0  0  0  0  0  0  0
   45.7484   33.0935   45.9264 H   0  0  0  0  0  0  0  0  0  0  0  0
   46.4565   30.0056   43.9275 H   0  0  0  0  0  0  0  0  0  0  0  0
   45.2308   27.9349   45.1503 H   0  0  0  0  0  0  0  0  0  0  0  0
   44.1450   31.0125   48.5918 H   0  0  0  0  0  0  0  0  0  0  0  0
   44.9926   33.4170   48.9594 H   0  0  0  0  0  0  0  0  0  0  0  0
   45.9027   33.2320   47.4218 H   0  0  0  0  0  0  0  0  0  0  0  0
   44.1093   33.1305   47.4218 H   0  0  0  0  0  0  0  0  0  0  0  0
   45.7492   31.2397   50.2427 H   0  0  0  0  0  0  0  0  0  0  0  0
   46.5621   30.1174   49.0997 H   0  0  0  0  0  0  0  0  0  0  0  0
   46.9870   31.8627   49.0997 H   0  0  0  0  0  0  0  0  0  0  0  0
  1  7  1  0
  1  6  2  0
  2  1  1  0
  3  2  2  0
  3  4  1  0
  4  5  2  0
  5  6  1  0
  5 13  1  0
  8  9  1  0
  8  2  1  0
 10  9  1  0
 11 12  1  0
 11 10  1  0
 12  8  1  0
 13 14  1  0
 14 15  1  0
 15 19  1  0
 16 17  2  0
 16 15  1  0
 17 18  1  0
 18 19  2  0
 19 20  1  0
 20 22  1  0
 21 20  1  0
  3 23  1  0
  7 24  1  0
  7 25  1  0
  8 26  1  0
  9 27  1  0
  9 28  1  0
 10 29  1  0
 10 30  1  0
 11 31  1  0
 11 32  1  0
 12 33  1  0
 12 34  1  0
 13 35  1  0
 13 36  1  0
 14 37  1  0
 14 38  1  0
 16 39  1  0
 17 40  1  0
 20 41  1  0
 21 42  1  0
 21 43  1  0
 21 44  1  0
 22 45  1  0
 22 46  1  0
 22 47  1  0
M  ISO  8  23  14  26  13  27  13  28  13  29  13  30  13  31  13  32  13
M  ISO  8  33  13  34  13  35   8  36   8  37   8  38   8  39  14  40  14
M  ISO  7  41   8  42   8  43   8  44   8  45   8  46   8  47   8
M  END
>  <minimizedAffinity>  (1) 
-5.33957958

>  <minimizedRMSD>  (1) 
1.46883738

$$$$
