
     RDKit          3D

 39 41  0  0  0  0  0  0  0  0999 V2000
   44.7720   35.4600   42.9430 C   0  0  0  0  0  0  0  0  0  0  0  0
   43.9040   34.7540   42.1610 C   0  0  0  0  0  0  0  0  0  0  0  0
   44.0000   33.3410   42.1420 C   0  0  0  0  0  0  0  0  0  0  0  0
   44.9630   32.7450   42.9060 N   0  0  0  0  0  0  0  0  0  0  0  0
   45.7980   33.4870   43.6600 C   0  0  0  0  0  0  0  0  0  0  0  0
   45.7210   34.8670   43.6950 N   0  0  0  0  0  0  0  0  0  0  0  0
   44.6470   36.9010   42.9570 N   0  0  0  0  0  0  0  0  0  0  0  0
   42.9230   35.4320   41.3460 C   0  0  0  0  0  0  0  0  0  0  0  0
   41.4610   35.3030   41.9260 C   0  0  0  0  0  0  0  0  0  0  0  0
   40.7550   36.0720   40.7830 C   0  0  0  0  0  0  0  0  0  0  0  0
   41.3890   35.4660   39.5670 C   0  0  0  0  0  0  0  0  0  0  0  0
   42.7930   35.0640   39.9890 C   0  0  0  0  0  0  0  0  0  0  0  0
   46.8550   32.8500   44.4890 C   0  0  0  0  0  0  0  0  0  0  0  0
   46.4760   32.6850   45.9270 C   0  0  0  0  0  0  0  0  0  0  0  0
   45.9790   31.3670   46.2250 N   0  0  0  0  0  0  0  0  0  0  0  0
   45.7520   30.3020   45.4540 C   0  0  0  0  0  0  0  0  0  0  0  0
   45.2650   29.2620   46.2390 C   0  0  0  0  0  0  0  0  0  0  0  0
   45.2190   29.7660   47.4970 N   0  0  0  0  0  0  0  0  0  0  0  0
   45.6490   31.0440   47.5070 C   0  0  0  0  0  0  0  0  0  0  0  0
   45.7030   31.9810   49.0320 S   0  0  0  0  0  0  0  0  0  0  0  0
   43.3157   32.7381   41.5270 H   0  0  0  0  0  0  0  0  0  0  0  0
   43.9243   37.3608   42.3850 H   0  0  0  0  0  0  0  0  0  0  0  0
   45.2807   37.4673   43.5390 H   0  0  0  0  0  0  0  0  0  0  0  0
   43.3470   36.4463   41.3826 H   0  0  0  0  0  0  0  0  0  0  0  0
   41.1266   34.2579   42.0030 H   0  0  0  0  0  0  0  0  0  0  0  0
   41.2966   35.6702   42.9498 H   0  0  0  0  0  0  0  0  0  0  0  0
   39.6686   35.8999   40.7960 H   0  0  0  0  0  0  0  0  0  0  0  0
   40.8673   37.1644   40.8459 H   0  0  0  0  0  0  0  0  0  0  0  0
   41.4303   36.2012   38.7498 H   0  0  0  0  0  0  0  0  0  0  0  0
   40.8145   34.6036   39.1980 H   0  0  0  0  0  0  0  0  0  0  0  0
   42.9282   33.9783   39.8748 H   0  0  0  0  0  0  0  0  0  0  0  0
   43.5532   35.5595   39.3672 H   0  0  0  0  0  0  0  0  0  0  0  0
   47.0717   31.8558   44.0710 H   0  0  0  0  0  0  0  0  0  0  0  0
   47.7292   33.5172   44.4622 H   0  0  0  0  0  0  0  0  0  0  0  0
   47.3636   32.8748   46.5485 H   0  0  0  0  0  0  0  0  0  0  0  0
   45.6679   33.4000   46.1408 H   0  0  0  0  0  0  0  0  0  0  0  0
   45.9230   30.2539   44.3684 H   0  0  0  0  0  0  0  0  0  0  0  0
   44.9796   28.2516   45.9109 H   0  0  0  0  0  0  0  0  0  0  0  0
   45.6535   31.1218   50.0979 H   0  0  0  0  0  0  0  0  0  0  0  0
  1  7  1  0
  1  6  2  0
  2  1  1  0
  3  2  2  0
  3  4  1  0
  4  5  2  0
  5  6  1  0
  5 13  1  0
  8  9  1  0
  8  2  1  0
 10  9  1  0
 11 12  1  0
 11 10  1  0
 12  8  1  0
 13 14  1  0
 14 15  1  0
 15 19  1  0
 16 15  1  0
 16 17  2  0
 17 18  1  0
 18 19  2  0
 19 20  1  0
  3 21  1  0
  7 22  1  0
  7 23  1  0
  8 24  1  0
  9 25  1  0
  9 26  1  0
 10 27  1  0
 10 28  1  0
 11 29  1  0
 11 30  1  0
 12 31  1  0
 12 32  1  0
 13 33  1  0
 13 34  1  0
 14 35  1  0
 14 36  1  0
 16 37  1  0
 17 38  1  0
 20 39  1  0
M  ISO  8  21  14  24  13  25  13  26  13  27  13  28  13  29  13  30  13
M  ISO  8  31  13  32  13  33   8  34   8  35   8  36   8  37  14  38  14
M  ISO  1  39  11
M  END
>  <minimizedAffinity>  (1) 
-5.23928022

>  <minimizedRMSD>  (1) 
0.990080118

$$$$
