
     RDKit          3D

 50 54  0  0  0  0  0  0  0  0999 V2000
   44.8400   35.4540   43.0590 C   0  0  0  0  0  0  0  0  0  0  0  0
   44.0160   34.7430   42.2430 C   0  0  0  0  0  0  0  0  0  0  0  0
   44.1450   33.3420   42.2210 C   0  0  0  0  0  0  0  0  0  0  0  0
   45.0890   32.7530   43.0150 N   0  0  0  0  0  0  0  0  0  0  0  0
   45.8740   33.5100   43.8010 C   0  0  0  0  0  0  0  0  0  0  0  0
   45.7700   34.8850   43.8430 N   0  0  0  0  0  0  0  0  0  0  0  0
   44.6810   36.8950   43.0700 N   0  0  0  0  0  0  0  0  0  0  0  0
   43.0420   35.4090   41.4030 C   0  0  0  0  0  0  0  0  0  0  0  0
   41.5570   35.2150   41.9360 C   0  0  0  0  0  0  0  0  0  0  0  0
   40.8660   35.9890   40.7860 C   0  0  0  0  0  0  0  0  0  0  0  0
   41.5600   35.4340   39.5860 C   0  0  0  0  0  0  0  0  0  0  0  0
   42.9430   35.0340   40.0550 C   0  0  0  0  0  0  0  0  0  0  0  0
   46.9140   32.8960   44.6720 C   0  0  0  0  0  0  0  0  0  0  0  0
   46.4760   32.6750   46.0880 C   0  0  0  0  0  0  0  0  0  0  0  0
   46.1590   31.3050   46.3770 N   0  0  0  0  0  0  0  0  0  0  0  0
   45.4990   30.3770   45.6930 C   0  0  0  0  0  0  0  0  0  0  0  0
   45.4740   29.1970   46.4320 C   0  0  0  0  0  0  0  0  0  0  0  0
   46.1460   29.4840   47.5710 N   0  0  0  0  0  0  0  0  0  0  0  0
   46.5710   30.7720   47.5500 C   0  0  0  0  0  0  0  0  0  0  0  0
   47.5010   31.4470   48.9370 S   0  0  0  0  0  0  0  0  0  0  0  0
   52.2900   31.5660   49.8300 N   0  0  0  0  0  0  0  0  0  0  0  0
   51.6680   32.7330   50.0630 C   0  0  0  0  0  0  0  0  0  0  0  0
   50.3670   32.5360   49.7720 N   0  0  0  0  0  0  0  0  0  0  0  0
   50.1810   31.2630   49.3640 C   0  0  0  0  0  0  0  0  0  0  0  0
   49.0590   30.5670   48.9570 C   0  0  0  0  0  0  0  0  0  0  0  0
   49.2130   29.2640   48.6010 N   0  0  0  0  0  0  0  0  0  0  0  0
   50.4210   28.6730   48.6440 C   0  0  0  0  0  0  0  0  0  0  0  0
   51.5510   29.3250   49.0380 N   0  0  0  0  0  0  0  0  0  0  0  0
   51.4250   30.6300   49.4000 C   0  0  0  0  0  0  0  0  0  0  0  0
   43.4969   32.7309   41.5756 H   0  0  0  0  0  0  0  0  0  0  0  0
   43.9700   37.3393   42.4716 H   0  0  0  0  0  0  0  0  0  0  0  0
   45.2790   37.4745   43.6762 H   0  0  0  0  0  0  0  0  0  0  0  0
   43.4423   36.4321   41.4581 H   0  0  0  0  0  0  0  0  0  0  0  0
   41.2556   34.1579   41.9773 H   0  0  0  0  0  0  0  0  0  0  0  0
   41.3458   35.5497   42.9623 H   0  0  0  0  0  0  0  0  0  0  0  0
   39.7861   35.7820   40.7558 H   0  0  0  0  0  0  0  0  0  0  0  0
   40.9391   37.0827   40.8775 H   0  0  0  0  0  0  0  0  0  0  0  0
   41.6294   36.1972   38.7969 H   0  0  0  0  0  0  0  0  0  0  0  0
   41.0135   34.5781   39.1630 H   0  0  0  0  0  0  0  0  0  0  0  0
   43.0765   33.9468   39.9543 H   0  0  0  0  0  0  0  0  0  0  0  0
   43.7202   35.5262   39.4520 H   0  0  0  0  0  0  0  0  0  0  0  0
   47.1943   31.9233   44.2416 H   0  0  0  0  0  0  0  0  0  0  0  0
   47.7551   33.6040   44.7078 H   0  0  0  0  0  0  0  0  0  0  0  0
   47.2875   32.9945   46.7584 H   0  0  0  0  0  0  0  0  0  0  0  0
   45.5576   33.2610   46.2402 H   0  0  0  0  0  0  0  0  0  0  0  0
   45.0447   30.5181   44.7012 H   0  0  0  0  0  0  0  0  0  0  0  0
   45.0094   28.2403   46.1512 H   0  0  0  0  0  0  0  0  0  0  0  0
   53.2990   31.4080   49.9633 H   0  0  0  0  0  0  0  0  0  0  0  0
   52.1292   33.6654   50.4207 H   0  0  0  0  0  0  0  0  0  0  0  0
   50.5000   27.6165   48.3480 H   0  0  0  0  0  0  0  0  0  0  0  0
  1  7  1  0
  1  6  2  0
  2  1  1  0
  3  2  2  0
  3  4  1  0
  4  5  2  0
  5  6  1  0
  5 13  1  0
  8  9  1  0
  8  2  1  0
 10  9  1  0
 11 12  1  0
 11 10  1  0
 12  8  1  0
 13 14  1  0
 14 15  1  0
 15 19  1  0
 16 15  1  0
 16 17  2  0
 17 18  1  0
 19 18  2  0
 19 20  1  0
 20 25  1  0
 21 22  1  0
 23 22  2  0
 24 29  2  0
 24 23  1  0
 25 24  1  0
 26 27  1  0
 26 25  2  0
 27 28  2  0
 28 29  1  0
 29 21  1  0
  3 30  1  0
  7 31  1  0
  7 32  1  0
  8 33  1  0
  9 34  1  0
  9 35  1  0
 10 36  1  0
 10 37  1  0
 11 38  1  0
 11 39  1  0
 12 40  1  0
 12 41  1  0
 13 42  1  0
 13 43  1  0
 14 44  1  0
 14 45  1  0
 16 46  1  0
 17 47  1  0
 21 48  1  0
 22 49  1  0
 27 50  1  0
M  ISO  8  30  14  33  13  34  13  35  13  36  13  37  13  38  13  39  13
M  ISO  8  40  13  41  13  42   8  43   8  44   8  45   8  46  14  47  14
M  ISO  3  48   9  49  14  50  14
M  END
>  <minimizedAffinity>  (1) 
-5.99189997

>  <minimizedRMSD>  (1) 
1.63024104

$$$$
