
     RDKit          3D

 49 52  0  0  0  0  0  0  0  0999 V2000
   44.8020   35.4460   43.0660 C   0  0  0  0  0  0  0  0  0  0  0  0
   43.9890   34.7430   42.2410 C   0  0  0  0  0  0  0  0  0  0  0  0
   44.0930   33.3340   42.2410 C   0  0  0  0  0  0  0  0  0  0  0  0
   45.0060   32.7440   43.0670 N   0  0  0  0  0  0  0  0  0  0  0  0
   45.7880   33.4930   43.8660 C   0  0  0  0  0  0  0  0  0  0  0  0
   45.7020   34.8690   43.8820 N   0  0  0  0  0  0  0  0  0  0  0  0
   44.6680   36.8900   43.0550 N   0  0  0  0  0  0  0  0  0  0  0  0
   43.0460   35.4110   41.3670 C   0  0  0  0  0  0  0  0  0  0  0  0
   41.5490   35.2690   41.8870 C   0  0  0  0  0  0  0  0  0  0  0  0
   40.8910   36.0300   40.7110 C   0  0  0  0  0  0  0  0  0  0  0  0
   41.5730   35.4020   39.5360 C   0  0  0  0  0  0  0  0  0  0  0  0
   42.9540   35.0020   40.0270 C   0  0  0  0  0  0  0  0  0  0  0  0
   46.7920   32.8810   44.7720 C   0  0  0  0  0  0  0  0  0  0  0  0
   46.2800   32.5370   46.1230 C   0  0  0  0  0  0  0  0  0  0  0  0
   46.0910   31.1170   46.3010 N   0  0  0  0  0  0  0  0  0  0  0  0
   45.6000   30.1770   45.5080 C   0  0  0  0  0  0  0  0  0  0  0  0
   45.6360   28.9450   46.1620 C   0  0  0  0  0  0  0  0  0  0  0  0
   46.1730   29.2200   47.3740 N   0  0  0  0  0  0  0  0  0  0  0  0
   46.4580   30.5370   47.4820 C   0  0  0  0  0  0  0  0  0  0  0  0
   47.1830   31.2100   48.9790 S   0  0  0  0  0  0  0  0  0  0  0  0
   48.9530   30.9930   48.9810 C   0  0  0  0  0  0  0  0  0  0  0  0
   49.8320   31.8540   49.6060 C   0  0  0  0  0  0  0  0  0  0  0  0
   51.2090   31.6560   49.5880 C   0  0  0  0  0  0  0  0  0  0  0  0
   51.6900   30.5350   48.9040 C   0  0  0  0  0  0  0  0  0  0  0  0
   50.8080   29.6780   48.2810 C   0  0  0  0  0  0  0  0  0  0  0  0
   49.4460   29.8980   48.3140 C   0  0  0  0  0  0  0  0  0  0  0  0
   43.4509   32.7243   41.5883 H   0  0  0  0  0  0  0  0  0  0  0  0
   43.9808   37.3387   42.4326 H   0  0  0  0  0  0  0  0  0  0  0  0
   45.2600   37.4668   43.6696 H   0  0  0  0  0  0  0  0  0  0  0  0
   43.4739   36.4239   41.3963 H   0  0  0  0  0  0  0  0  0  0  0  0
   41.2199   34.2214   41.9514 H   0  0  0  0  0  0  0  0  0  0  0  0
   41.3353   35.6356   42.9018 H   0  0  0  0  0  0  0  0  0  0  0  0
   39.8040   35.8636   40.6818 H   0  0  0  0  0  0  0  0  0  0  0  0
   41.0014   37.1232   40.7642 H   0  0  0  0  0  0  0  0  0  0  0  0
   41.6540   36.1230   38.7092 H   0  0  0  0  0  0  0  0  0  0  0  0
   41.0110   34.5362   39.1557 H   0  0  0  0  0  0  0  0  0  0  0  0
   43.0796   33.9116   39.9551 H   0  0  0  0  0  0  0  0  0  0  0  0
   43.7396   35.4725   39.4175 H   0  0  0  0  0  0  0  0  0  0  0  0
   47.1619   31.9586   44.3005 H   0  0  0  0  0  0  0  0  0  0  0  0
   47.5780   33.6361   44.9204 H   0  0  0  0  0  0  0  0  0  0  0  0
   47.0006   32.8932   46.8739 H   0  0  0  0  0  0  0  0  0  0  0  0
   45.2989   33.0205   46.2401 H   0  0  0  0  0  0  0  0  0  0  0  0
   45.2213   30.3423   44.4886 H   0  0  0  0  0  0  0  0  0  0  0  0
   45.3028   27.9692   45.7788 H   0  0  0  0  0  0  0  0  0  0  0  0
   49.4292   32.7287   50.1378 H   0  0  0  0  0  0  0  0  0  0  0  0
   51.8931   32.3543   50.0924 H   0  0  0  0  0  0  0  0  0  0  0  0
   52.7713   30.3372   48.8631 H   0  0  0  0  0  0  0  0  0  0  0  0
   51.1983   28.7997   47.7460 H   0  0  0  0  0  0  0  0  0  0  0  0
   48.7600   29.2014   47.8098 H   0  0  0  0  0  0  0  0  0  0  0  0
  1  6  2  0
  2  3  2  0
  2  1  1  0
  3  4  1  0
  4  5  2  0
  5  6  1  0
  5 13  1  0
  7  1  1  0
  8  9  1  0
  8  2  1  0
 10  9  1  0
 11 12  1  0
 11 10  1  0
 12  8  1  0
 13 14  1  0
 14 15  1  0
 15 19  1  0
 16 17  2  0
 16 15  1  0
 17 18  1  0
 18 19  2  0
 19 20  1  0
 20 21  1  0
 21 22  2  0
 23 22  1  0
 24 23  2  0
 25 26  2  0
 25 24  1  0
 26 21  1  0
  3 27  1  0
  7 28  1  0
  7 29  1  0
  8 30  1  0
  9 31  1  0
  9 32  1  0
 10 33  1  0
 10 34  1  0
 11 35  1  0
 11 36  1  0
 12 37  1  0
 12 38  1  0
 13 39  1  0
 13 40  1  0
 14 41  1  0
 14 42  1  0
 16 43  1  0
 17 44  1  0
 22 45  1  0
 23 46  1  0
 24 47  1  0
 25 48  1  0
 26 49  1  0
M  ISO  8  27  14  30  13  31  13  32  13  33  13  34  13  35  13  36  13
M  ISO  8  37  13  38  13  39   8  40   8  41   8  42   8  43  14  44  14
M  ISO  5  45  14  46  14  47  14  48  14  49  14
M  END
>  <minimizedAffinity>  (1) 
-5.82259369

>  <minimizedRMSD>  (1) 
1.30904281

$$$$
