
     RDKit          3D

 51 53  0  0  0  0  0  0  0  0999 V2000
   44.0110   35.2450   42.6490 C   0  0  0  0  0  0  0  0  0  0  0  0
   43.3260   34.8110   41.5640 C   0  0  0  0  0  0  0  0  0  0  0  0
   44.0570   34.2680   40.4850 C   0  0  0  0  0  0  0  0  0  0  0  0
   45.4150   34.2050   40.5780 N   0  0  0  0  0  0  0  0  0  0  0  0
   46.0500   34.6520   41.6790 C   0  0  0  0  0  0  0  0  0  0  0  0
   45.3440   35.1860   42.7490 N   0  0  0  0  0  0  0  0  0  0  0  0
   43.2430   35.7880   43.7500 N   0  0  0  0  0  0  0  0  0  0  0  0
   41.8870   34.9120   41.4970 C   0  0  0  0  0  0  0  0  0  0  0  0
   41.1940   33.5250   41.1410 C   0  0  0  0  0  0  0  0  0  0  0  0
   39.7470   34.0560   41.0960 C   0  0  0  0  0  0  0  0  0  0  0  0
   39.8960   35.3150   40.3140 C   0  0  0  0  0  0  0  0  0  0  0  0
   41.3080   35.8070   40.5860 C   0  0  0  0  0  0  0  0  0  0  0  0
   47.5280   34.6010   41.8110 C   0  0  0  0  0  0  0  0  0  0  0  0
   48.0100   34.2300   43.1680 C   0  0  0  0  0  0  0  0  0  0  0  0
   48.0640   32.8110   43.3770 N   0  0  0  0  0  0  0  0  0  0  0  0
   48.7580   31.8460   42.7880 C   0  0  0  0  0  0  0  0  0  0  0  0
   48.4630   30.6220   43.3520 C   0  0  0  0  0  0  0  0  0  0  0  0
   47.5580   30.8980   44.3060 N   0  0  0  0  0  0  0  0  0  0  0  0
   47.2950   32.2300   44.3430 C   0  0  0  0  0  0  0  0  0  0  0  0
   46.1300   32.9450   45.5060 S   0  0  0  0  0  0  0  0  0  0  0  0
   46.1040   32.0620   47.0540 C   0  0  0  0  0  0  0  0  0  0  0  0
   45.1500   32.6820   48.0660 C   0  0  0  0  0  0  0  0  0  0  0  0
   45.6650   30.6110   46.9280 C   0  0  0  0  0  0  0  0  0  0  0  0
   47.4960   32.0720   47.6500 C   0  0  0  0  0  0  0  0  0  0  0  0
   43.5397   33.9025   39.5857 H   0  0  0  0  0  0  0  0  0  0  0  0
   42.2163   35.8391   43.6859 H   0  0  0  0  0  0  0  0  0  0  0  0
   43.7235   36.1231   44.5972 H   0  0  0  0  0  0  0  0  0  0  0  0
   41.7048   35.2857   42.5154 H   0  0  0  0  0  0  0  0  0  0  0  0
   41.5267   33.1228   40.1727 H   0  0  0  0  0  0  0  0  0  0  0  0
   41.3924   32.6826   41.8200 H   0  0  0  0  0  0  0  0  0  0  0  0
   39.0780   33.3471   40.5862 H   0  0  0  0  0  0  0  0  0  0  0  0
   39.3010   34.2049   42.0904 H   0  0  0  0  0  0  0  0  0  0  0  0
   39.1596   36.0616   40.6462 H   0  0  0  0  0  0  0  0  0  0  0  0
   39.7256   35.1472   39.2403 H   0  0  0  0  0  0  0  0  0  0  0  0
   41.8886   35.8233   39.6519 H   0  0  0  0  0  0  0  0  0  0  0  0
   41.2954   36.8284   40.9941 H   0  0  0  0  0  0  0  0  0  0  0  0
   47.9122   33.8599   41.0947 H   0  0  0  0  0  0  0  0  0  0  0  0
   47.8966   35.6184   41.6137 H   0  0  0  0  0  0  0  0  0  0  0  0
   49.0201   34.6430   43.3059 H   0  0  0  0  0  0  0  0  0  0  0  0
   47.2943   34.6419   43.8947 H   0  0  0  0  0  0  0  0  0  0  0  0
   49.4701   32.0004   41.9640 H   0  0  0  0  0  0  0  0  0  0  0  0
   48.8765   29.6393   43.0811 H   0  0  0  0  0  0  0  0  0  0  0  0
   45.4982   32.4557   49.0846 H   0  0  0  0  0  0  0  0  0  0  0  0
   45.1207   33.7722   47.9222 H   0  0  0  0  0  0  0  0  0  0  0  0
   44.1419   32.2660   47.9222 H   0  0  0  0  0  0  0  0  0  0  0  0
   45.5343   30.1790   47.9312 H   0  0  0  0  0  0  0  0  0  0  0  0
   44.7120   30.5624   46.3809 H   0  0  0  0  0  0  0  0  0  0  0  0
   46.4313   30.0423   46.3809 H   0  0  0  0  0  0  0  0  0  0  0  0
   47.4249   32.0715   48.7477 H   0  0  0  0  0  0  0  0  0  0  0  0
   48.0436   31.1778   47.3176 H   0  0  0  0  0  0  0  0  0  0  0  0
   48.0307   32.9740   47.3176 H   0  0  0  0  0  0  0  0  0  0  0  0
  1  6  2  0
  1  7  1  0
  2  1  1  0
  3  4  1  0
  3  2  2  0
  4  5  2  0
  5 13  1  0
  5  6  1  0
  8  2  1  0
  9  8  1  0
 10  9  1  0
 11 12  1  0
 11 10  1  0
 12  8  1  0
 13 14  1  0
 14 15  1  0
 15 19  1  0
 16 17  2  0
 16 15  1  0
 17 18  1  0
 18 19  2  0
 19 20  1  0
 20 21  1  0
 21 24  1  0
 21 22  1  0
 23 21  1  0
  3 25  1  0
  7 26  1  0
  7 27  1  0
  8 28  1  0
  9 29  1  0
  9 30  1  0
 10 31  1  0
 10 32  1  0
 11 33  1  0
 11 34  1  0
 12 35  1  0
 12 36  1  0
 13 37  1  0
 13 38  1  0
 14 39  1  0
 14 40  1  0
 16 41  1  0
 17 42  1  0
 22 43  1  0
 22 44  1  0
 22 45  1  0
 23 46  1  0
 23 47  1  0
 23 48  1  0
 24 49  1  0
 24 50  1  0
 24 51  1  0
M  ISO  8  25  14  28  13  29  13  30  13  31  13  32  13  33  13  34  13
M  ISO  8  35  13  36  13  37   8  38   8  39   8  40   8  41  14  42  14
M  ISO  8  43   8  44   8  45   8  46   8  47   8  48   8  49   8  50   8
M  ISO  1  51   8
M  END
>  <minimizedAffinity>  (1) 
-5.85703945

>  <minimizedRMSD>  (1) 
3.00030851

$$$$
