
     RDKit          3D

 44 47  0  0  0  0  0  0  0  0999 V2000
   44.8360   35.4580   43.1010 C   0  0  0  0  0  0  0  0  0  0  0  0
   44.0190   34.7300   42.2970 C   0  0  0  0  0  0  0  0  0  0  0  0
   44.1450   33.3320   42.3130 C   0  0  0  0  0  0  0  0  0  0  0  0
   45.0730   32.7520   43.1240 N   0  0  0  0  0  0  0  0  0  0  0  0
   45.8630   33.5200   43.9050 C   0  0  0  0  0  0  0  0  0  0  0  0
   45.7660   34.8980   43.9150 N   0  0  0  0  0  0  0  0  0  0  0  0
   44.6890   36.9030   43.0810 N   0  0  0  0  0  0  0  0  0  0  0  0
   43.0610   35.3790   41.4350 C   0  0  0  0  0  0  0  0  0  0  0  0
   41.5660   35.1960   41.9450 C   0  0  0  0  0  0  0  0  0  0  0  0
   40.8920   35.9480   40.7740 C   0  0  0  0  0  0  0  0  0  0  0  0
   41.6040   35.3670   39.5940 C   0  0  0  0  0  0  0  0  0  0  0  0
   42.9840   34.9960   40.0870 C   0  0  0  0  0  0  0  0  0  0  0  0
   46.8860   32.9290   44.7930 C   0  0  0  0  0  0  0  0  0  0  0  0
   46.4430   32.7580   46.2130 C   0  0  0  0  0  0  0  0  0  0  0  0
   46.2340   31.3850   46.5780 N   0  0  0  0  0  0  0  0  0  0  0  0
   45.4400   30.4410   46.0950 C   0  0  0  0  0  0  0  0  0  0  0  0
   45.6160   29.2660   46.8070 C   0  0  0  0  0  0  0  0  0  0  0  0
   46.5530   29.5690   47.7340 N   0  0  0  0  0  0  0  0  0  0  0  0
   46.9410   30.8620   47.6060 C   0  0  0  0  0  0  0  0  0  0  0  0
   48.1850   31.5590   48.7050 S   0  0  0  0  0  0  0  0  0  0  0  0
   49.1680   30.1910   49.2990 C   0  0  0  0  0  0  0  0  0  0  0  0
   49.5970   30.3720   50.5650 N   0  0  0  0  0  0  0  0  0  0  0  0
   50.3170   29.3430   50.9610 O   0  0  0  0  0  0  0  0  0  0  0  0
   50.3760   28.4750   49.9810 C   0  0  0  0  0  0  0  0  0  0  0  0
   49.6710   28.9870   48.9500 N   0  0  0  0  0  0  0  0  0  0  0  0
   43.4994   32.7099   41.6757 H   0  0  0  0  0  0  0  0  0  0  0  0
   43.9868   37.3408   42.4676 H   0  0  0  0  0  0  0  0  0  0  0  0
   45.2869   37.4898   43.6802 H   0  0  0  0  0  0  0  0  0  0  0  0
   43.4649   36.4009   41.4867 H   0  0  0  0  0  0  0  0  0  0  0  0
   41.2636   34.1398   41.9999 H   0  0  0  0  0  0  0  0  0  0  0  0
   41.3392   35.5506   42.9613 H   0  0  0  0  0  0  0  0  0  0  0  0
   39.8123   35.7417   40.7329 H   0  0  0  0  0  0  0  0  0  0  0  0
   40.9638   37.0433   40.8452 H   0  0  0  0  0  0  0  0  0  0  0  0
   41.6730   36.1090   38.7849 H   0  0  0  0  0  0  0  0  0  0  0  0
   41.0707   34.4943   39.1889 H   0  0  0  0  0  0  0  0  0  0  0  0
   43.1380   33.9108   39.9943 H   0  0  0  0  0  0  0  0  0  0  0  0
   43.7595   35.5017   39.4929 H   0  0  0  0  0  0  0  0  0  0  0  0
   47.1580   31.9402   44.3953 H   0  0  0  0  0  0  0  0  0  0  0  0
   47.7332   33.6304   44.8090 H   0  0  0  0  0  0  0  0  0  0  0  0
   47.2138   33.1820   46.8734 H   0  0  0  0  0  0  0  0  0  0  0  0
   45.4782   33.2755   46.3194 H   0  0  0  0  0  0  0  0  0  0  0  0
   44.7440   30.5710   45.2532 H   0  0  0  0  0  0  0  0  0  0  0  0
   45.1078   28.3027   46.6530 H   0  0  0  0  0  0  0  0  0  0  0  0
   50.9021   27.5091   49.9958 H   0  0  0  0  0  0  0  0  0  0  0  0
  1  6  2  0
  2  3  2  0
  2  1  1  0
  3  4  1  0
  4  5  2  0
  5  6  1  0
  5 13  1  0
  7  1  1  0
  8  9  1  0
  8  2  1  0
 10  9  1  0
 11 12  1  0
 11 10  1  0
 12  8  1  0
 13 14  1  0
 14 15  1  0
 15 19  1  0
 16 15  1  0
 16 17  2  0
 17 18  1  0
 19 18  2  0
 19 20  1  0
 20 21  1  0
 21 22  2  0
 22 23  1  0
 24 23  1  0
 25 21  1  0
 25 24  2  0
  3 26  1  0
  7 27  1  0
  7 28  1  0
  8 29  1  0
  9 30  1  0
  9 31  1  0
 10 32  1  0
 10 33  1  0
 11 34  1  0
 11 35  1  0
 12 36  1  0
 12 37  1  0
 13 38  1  0
 13 39  1  0
 14 40  1  0
 14 41  1  0
 16 42  1  0
 17 43  1  0
 24 44  1  0
M  ISO  8  26  14  29  13  30  13  31  13  32  13  33  13  34  13  35  13
M  ISO  8  36  13  37  13  38   8  39   8  40   8  41   8  42  14  43  14
M  ISO  1  44  14
M  END
>  <minimizedAffinity>  (1) 
-5.61014748

>  <minimizedRMSD>  (1) 
1.40663743

$$$$
