
     RDKit          3D

 45 47  0  0  0  0  0  0  0  0999 V2000
   44.7930   35.4890   43.0550 C   0  0  0  0  0  0  0  0  0  0  0  0
   43.9760   34.7610   42.2460 C   0  0  0  0  0  0  0  0  0  0  0  0
   44.0680   33.3520   42.2840 C   0  0  0  0  0  0  0  0  0  0  0  0
   44.9760   32.7880   43.1340 N   0  0  0  0  0  0  0  0  0  0  0  0
   45.7580   33.5490   43.9110 C   0  0  0  0  0  0  0  0  0  0  0  0
   45.6820   34.9230   43.8860 N   0  0  0  0  0  0  0  0  0  0  0  0
   44.6720   36.9290   43.0030 N   0  0  0  0  0  0  0  0  0  0  0  0
   43.0470   35.4130   41.3510 C   0  0  0  0  0  0  0  0  0  0  0  0
   41.5440   35.3040   41.8570 C   0  0  0  0  0  0  0  0  0  0  0  0
   40.8980   36.0120   40.6500 C   0  0  0  0  0  0  0  0  0  0  0  0
   41.6100   35.3650   39.4910 C   0  0  0  0  0  0  0  0  0  0  0  0
   42.9670   34.9740   40.0210 C   0  0  0  0  0  0  0  0  0  0  0  0
   46.7510   32.9470   44.8320 C   0  0  0  0  0  0  0  0  0  0  0  0
   46.1920   32.5460   46.1570 C   0  0  0  0  0  0  0  0  0  0  0  0
   46.1270   31.1220   46.3380 N   0  0  0  0  0  0  0  0  0  0  0  0
   45.6960   30.1450   45.5230 C   0  0  0  0  0  0  0  0  0  0  0  0
   45.8440   28.9280   46.1710 C   0  0  0  0  0  0  0  0  0  0  0  0
   46.3710   29.2260   47.3780 N   0  0  0  0  0  0  0  0  0  0  0  0
   46.5560   30.5670   47.5070 C   0  0  0  0  0  0  0  0  0  0  0  0
   47.2340   31.2770   48.9880 S   0  0  0  0  0  0  0  0  0  0  0  0
   48.8480   30.6400   49.4180 C   0  0  0  0  0  0  0  0  0  0  0  0
   49.9050   31.6620   49.6470 C   0  0  0  0  0  0  0  0  0  0  0  0
   43.4260   32.7263   41.6465 H   0  0  0  0  0  0  0  0  0  0  0  0
   43.9905   37.3659   42.3661 H   0  0  0  0  0  0  0  0  0  0  0  0
   45.2673   37.5178   43.6028 H   0  0  0  0  0  0  0  0  0  0  0  0
   43.4833   36.4227   41.3638 H   0  0  0  0  0  0  0  0  0  0  0  0
   41.2090   34.2618   41.9642 H   0  0  0  0  0  0  0  0  0  0  0  0
   41.3243   35.7196   42.8515 H   0  0  0  0  0  0  0  0  0  0  0  0
   39.8149   35.8244   40.6090 H   0  0  0  0  0  0  0  0  0  0  0  0
   40.9940   37.1075   40.6744 H   0  0  0  0  0  0  0  0  0  0  0  0
   41.7127   36.0755   38.6575 H   0  0  0  0  0  0  0  0  0  0  0  0
   41.0564   34.4965   39.1046 H   0  0  0  0  0  0  0  0  0  0  0  0
   43.0851   33.8812   39.9793 H   0  0  0  0  0  0  0  0  0  0  0  0
   43.7638   35.4306   39.4155 H   0  0  0  0  0  0  0  0  0  0  0  0
   47.1709   32.0521   44.3495 H   0  0  0  0  0  0  0  0  0  0  0  0
   47.5086   33.7198   45.0292 H   0  0  0  0  0  0  0  0  0  0  0  0
   46.8287   32.9699   46.9475 H   0  0  0  0  0  0  0  0  0  0  0  0
   45.1618   32.9284   46.2057 H   0  0  0  0  0  0  0  0  0  0  0  0
   45.2925   30.2869   44.5095 H   0  0  0  0  0  0  0  0  0  0  0  0
   45.5866   27.9311   45.7838 H   0  0  0  0  0  0  0  0  0  0  0  0
   48.7436   30.0493   50.3401 H   0  0  0  0  0  0  0  0  0  0  0  0
   49.1806   30.0543   48.5483 H   0  0  0  0  0  0  0  0  0  0  0  0
   50.0507   31.8029   50.7282 H   0  0  0  0  0  0  0  0  0  0  0  0
   50.8471   31.3236   49.1911 H   0  0  0  0  0  0  0  0  0  0  0  0
   49.5985   32.6150   49.1911 H   0  0  0  0  0  0  0  0  0  0  0  0
  1  6  2  0
  2  3  2  0
  2  1  1  0
  3  4  1  0
  4  5  2  0
  5 13  1  0
  6  5  1  0
  7  1  1  0
  8  9  1  0
  8  2  1  0
 10  9  1  0
 11 12  1  0
 11 10  1  0
 12  8  1  0
 13 14  1  0
 14 15  1  0
 15 19  1  0
 16 17  2  0
 16 15  1  0
 17 18  1  0
 18 19  2  0
 19 20  1  0
 20 21  1  0
 21 22  1  0
  3 23  1  0
  7 24  1  0
  7 25  1  0
  8 26  1  0
  9 27  1  0
  9 28  1  0
 10 29  1  0
 10 30  1  0
 11 31  1  0
 11 32  1  0
 12 33  1  0
 12 34  1  0
 13 35  1  0
 13 36  1  0
 14 37  1  0
 14 38  1  0
 16 39  1  0
 17 40  1  0
 21 41  1  0
 21 42  1  0
 22 43  1  0
 22 44  1  0
 22 45  1  0
M  ISO  8  23  14  26  13  27  13  28  13  29  13  30  13  31  13  32  13
M  ISO  8  33  13  34  13  35   8  36   8  37   8  38   8  39  14  40  14
M  ISO  5  41   8  42   8  43   8  44   8  45   8
M  END
>  <minimizedAffinity>  (1) 
-5.1823678

>  <minimizedRMSD>  (1) 
0.91013062

$$$$
