
     RDKit          3D

 46 49  0  0  0  0  0  0  0  0999 V2000
   44.7780   35.4540   43.0330 C   0  0  0  0  0  0  0  0  0  0  0  0
   43.9550   34.7290   42.2140 C   0  0  0  0  0  0  0  0  0  0  0  0
   44.0580   33.3290   42.2370 C   0  0  0  0  0  0  0  0  0  0  0  0
   44.9680   32.7380   43.0690 N   0  0  0  0  0  0  0  0  0  0  0  0
   45.7580   33.4970   43.8560 C   0  0  0  0  0  0  0  0  0  0  0  0
   45.6820   34.8800   43.8590 N   0  0  0  0  0  0  0  0  0  0  0  0
   44.6550   36.8930   43.0060 N   0  0  0  0  0  0  0  0  0  0  0  0
   43.0240   35.4050   41.3360 C   0  0  0  0  0  0  0  0  0  0  0  0
   41.5240   35.2980   41.8540 C   0  0  0  0  0  0  0  0  0  0  0  0
   40.8780   36.0220   40.6540 C   0  0  0  0  0  0  0  0  0  0  0  0
   41.5670   35.3810   39.4930 C   0  0  0  0  0  0  0  0  0  0  0  0
   42.9360   34.9750   40.0040 C   0  0  0  0  0  0  0  0  0  0  0  0
   46.7570   32.8840   44.7550 C   0  0  0  0  0  0  0  0  0  0  0  0
   46.2280   32.5050   46.1020 C   0  0  0  0  0  0  0  0  0  0  0  0
   46.1190   31.0960   46.3040 N   0  0  0  0  0  0  0  0  0  0  0  0
   45.6530   30.1220   45.5150 C   0  0  0  0  0  0  0  0  0  0  0  0
   45.7550   28.9060   46.2050 C   0  0  0  0  0  0  0  0  0  0  0  0
   46.2970   29.2220   47.4150 N   0  0  0  0  0  0  0  0  0  0  0  0
   46.5270   30.5580   47.4930 C   0  0  0  0  0  0  0  0  0  0  0  0
   47.2480   31.2460   48.9600 S   0  0  0  0  0  0  0  0  0  0  0  0
   49.0240   30.9430   48.9790 C   0  0  0  0  0  0  0  0  0  0  0  0
   49.9810   31.7080   49.7780 C   0  0  0  0  0  0  0  0  0  0  0  0
   49.6270   30.3190   50.2400 C   0  0  0  0  0  0  0  0  0  0  0  0
   43.4132   32.7138   41.5922 H   0  0  0  0  0  0  0  0  0  0  0  0
   43.9695   37.3396   42.3803 H   0  0  0  0  0  0  0  0  0  0  0  0
   45.2528   37.4724   43.6124 H   0  0  0  0  0  0  0  0  0  0  0  0
   43.4594   36.4149   41.3569 H   0  0  0  0  0  0  0  0  0  0  0  0
   41.1835   34.2568   41.9539 H   0  0  0  0  0  0  0  0  0  0  0  0
   41.3116   35.7032   42.8543 H   0  0  0  0  0  0  0  0  0  0  0  0
   39.7924   35.8477   40.6199 H   0  0  0  0  0  0  0  0  0  0  0  0
   40.9890   37.1159   40.6854 H   0  0  0  0  0  0  0  0  0  0  0  0
   41.6637   36.0951   38.6619 H   0  0  0  0  0  0  0  0  0  0  0  0
   41.0027   34.5174   39.1112 H   0  0  0  0  0  0  0  0  0  0  0  0
   43.0490   33.8820   39.9522 H   0  0  0  0  0  0  0  0  0  0  0  0
   43.7314   35.4274   39.3935 H   0  0  0  0  0  0  0  0  0  0  0  0
   47.1446   31.9760   44.2700 H   0  0  0  0  0  0  0  0  0  0  0  0
   47.5332   33.6445   44.9258 H   0  0  0  0  0  0  0  0  0  0  0  0
   46.9042   32.9135   46.8674 H   0  0  0  0  0  0  0  0  0  0  0  0
   45.2110   32.9180   46.1740 H   0  0  0  0  0  0  0  0  0  0  0  0
   45.2568   30.2528   44.4972 H   0  0  0  0  0  0  0  0  0  0  0  0
   45.4603   27.9088   45.8462 H   0  0  0  0  0  0  0  0  0  0  0  0
   48.9745   30.7187   47.9033 H   0  0  0  0  0  0  0  0  0  0  0  0
   50.9859   31.9090   49.3782 H   0  0  0  0  0  0  0  0  0  0  0  0
   49.9620   32.7005   50.2519 H   0  0  0  0  0  0  0  0  0  0  0  0
   49.0092   30.1717   51.1382 H   0  0  0  0  0  0  0  0  0  0  0  0
   50.1808   29.3997   50.4814 H   0  0  0  0  0  0  0  0  0  0  0  0
  1  6  2  0
  2  3  2  0
  2  1  1  0
  3  4  1  0
  4  5  2  0
  5  6  1  0
  5 13  1  0
  7  1  1  0
  8  9  1  0
  8  2  1  0
 10  9  1  0
 11 12  1  0
 11 10  1  0
 12  8  1  0
 13 14  1  0
 14 15  1  0
 15 19  1  0
 16 17  2  0
 16 15  1  0
 17 18  1  0
 18 19  2  0
 19 20  1  0
 20 21  1  0
 21 22  1  0
 21 23  1  0
 22 23  1  0
  3 24  1  0
  7 25  1  0
  7 26  1  0
  8 27  1  0
  9 28  1  0
  9 29  1  0
 10 30  1  0
 10 31  1  0
 11 32  1  0
 11 33  1  0
 12 34  1  0
 12 35  1  0
 13 36  1  0
 13 37  1  0
 14 38  1  0
 14 39  1  0
 16 40  1  0
 17 41  1  0
 21 42  1  0
 22 43  1  0
 22 44  1  0
 23 45  1  0
 23 46  1  0
M  ISO  8  24  14  27  13  28  13  29  13  30  13  31  13  32  13  33  13
M  ISO  8  34  13  35  13  36   8  37   8  38   8  39   8  40  14  41  14
M  ISO  5  42  13  43  13  44  13  45  13  46  13
M  END
>  <minimizedAffinity>  (1) 
-5.43570518

>  <minimizedRMSD>  (1) 
0.98557508

$$$$
