
     RDKit          3D

 52 55  0  0  0  0  0  0  0  0999 V2000
   44.7520   35.4140   42.9250 C   0  0  0  0  0  0  0  0  0  0  0  0
   43.8800   34.7430   42.1270 C   0  0  0  0  0  0  0  0  0  0  0  0
   43.9710   33.3350   42.0730 C   0  0  0  0  0  0  0  0  0  0  0  0
   44.9280   32.7010   42.8190 N   0  0  0  0  0  0  0  0  0  0  0  0
   45.7690   33.4250   43.5940 C   0  0  0  0  0  0  0  0  0  0  0  0
   45.6960   34.8030   43.6620 N   0  0  0  0  0  0  0  0  0  0  0  0
   44.6290   36.8570   42.9690 N   0  0  0  0  0  0  0  0  0  0  0  0
   42.8920   35.4390   41.3380 C   0  0  0  0  0  0  0  0  0  0  0  0
   41.4260   35.2970   41.9370 C   0  0  0  0  0  0  0  0  0  0  0  0
   40.7080   36.1010   40.8300 C   0  0  0  0  0  0  0  0  0  0  0  0
   41.3200   35.5310   39.5960 C   0  0  0  0  0  0  0  0  0  0  0  0
   42.7230   35.0900   39.9890 C   0  0  0  0  0  0  0  0  0  0  0  0
   46.8190   32.7740   44.4130 C   0  0  0  0  0  0  0  0  0  0  0  0
   46.4480   32.5720   45.8360 C   0  0  0  0  0  0  0  0  0  0  0  0
   46.0400   31.2220   46.1210 N   0  0  0  0  0  0  0  0  0  0  0  0
   45.4970   30.2770   45.3670 C   0  0  0  0  0  0  0  0  0  0  0  0
   45.2920   29.1370   46.1320 C   0  0  0  0  0  0  0  0  0  0  0  0
   45.7400   29.4560   47.3690 N   0  0  0  0  0  0  0  0  0  0  0  0
   46.2050   30.7330   47.3920 C   0  0  0  0  0  0  0  0  0  0  0  0
   46.8600   31.4370   48.8900 S   0  0  0  0  0  0  0  0  0  0  0  0
   48.4640   30.7260   49.2870 C   0  0  0  0  0  0  0  0  0  0  0  0
   49.5510   31.7710   49.4790 C   0  0  0  0  0  0  0  0  0  0  0  0
   50.7730   30.8500   49.5850 C   0  0  0  0  0  0  0  0  0  0  0  0
   50.4830   29.7260   48.6010 C   0  0  0  0  0  0  0  0  0  0  0  0
   49.0390   29.9230   48.1540 C   0  0  0  0  0  0  0  0  0  0  0  0
   43.2825   32.7555   41.4403 H   0  0  0  0  0  0  0  0  0  0  0  0
   43.9074   37.3298   42.4062 H   0  0  0  0  0  0  0  0  0  0  0  0
   45.2631   37.4100   43.5630 H   0  0  0  0  0  0  0  0  0  0  0  0
   43.3315   36.4463   41.3843 H   0  0  0  0  0  0  0  0  0  0  0  0
   41.0887   34.2512   41.9868 H   0  0  0  0  0  0  0  0  0  0  0  0
   41.2770   35.6343   42.9733 H   0  0  0  0  0  0  0  0  0  0  0  0
   39.6212   35.9325   40.8531 H   0  0  0  0  0  0  0  0  0  0  0  0
   40.8244   37.1908   40.9233 H   0  0  0  0  0  0  0  0  0  0  0  0
   41.3666   36.2939   38.8049 H   0  0  0  0  0  0  0  0  0  0  0  0
   40.7284   34.6906   39.2039 H   0  0  0  0  0  0  0  0  0  0  0  0
   42.8279   34.0023   39.8627 H   0  0  0  0  0  0  0  0  0  0  0  0
   43.4818   35.5742   39.3568 H   0  0  0  0  0  0  0  0  0  0  0  0
   47.0395   31.7908   43.9718 H   0  0  0  0  0  0  0  0  0  0  0  0
   47.6866   33.4502   44.4072 H   0  0  0  0  0  0  0  0  0  0  0  0
   47.3177   32.8160   46.4637 H   0  0  0  0  0  0  0  0  0  0  0  0
   45.5918   33.2284   46.0508 H   0  0  0  0  0  0  0  0  0  0  0  0
   45.2475   30.3800   44.3006 H   0  0  0  0  0  0  0  0  0  0  0  0
   44.8589   28.1806   45.8038 H   0  0  0  0  0  0  0  0  0  0  0  0
   48.2442   30.1407   50.1921 H   0  0  0  0  0  0  0  0  0  0  0  0
   49.6232   32.4508   48.6173 H   0  0  0  0  0  0  0  0  0  0  0  0
   49.4017   32.4502   50.3313 H   0  0  0  0  0  0  0  0  0  0  0  0
   51.6911   31.3868   49.3039 H   0  0  0  0  0  0  0  0  0  0  0  0
   50.9339   30.4813   50.6088 H   0  0  0  0  0  0  0  0  0  0  0  0
   51.1624   29.7883   47.7381 H   0  0  0  0  0  0  0  0  0  0  0  0
   50.6316   28.7382   49.0616 H   0  0  0  0  0  0  0  0  0  0  0  0
   48.9870   30.4774   47.2053 H   0  0  0  0  0  0  0  0  0  0  0  0
   48.5031   28.9816   47.9628 H   0  0  0  0  0  0  0  0  0  0  0  0
  1  7  1  0
  1  6  2  0
  2  1  1  0
  3  2  2  0
  3  4  1  0
  4  5  2  0
  5  6  1  0
  5 13  1  0
  8  9  1  0
  8  2  1  0
 10  9  1  0
 11 12  1  0
 11 10  1  0
 12  8  1  0
 13 14  1  0
 14 15  1  0
 15 19  1  0
 16 15  1  0
 16 17  2  0
 17 18  1  0
 18 19  2  0
 19 20  1  0
 20 21  1  0
 21 22  1  0
 22 23  1  0
 24 23  1  0
 25 24  1  0
 25 21  1  0
  3 26  1  0
  7 27  1  0
  7 28  1  0
  8 29  1  0
  9 30  1  0
  9 31  1  0
 10 32  1  0
 10 33  1  0
 11 34  1  0
 11 35  1  0
 12 36  1  0
 12 37  1  0
 13 38  1  0
 13 39  1  0
 14 40  1  0
 14 41  1  0
 16 42  1  0
 17 43  1  0
 21 44  1  0
 22 45  1  0
 22 46  1  0
 23 47  1  0
 23 48  1  0
 24 49  1  0
 24 50  1  0
 25 51  1  0
 25 52  1  0
M  ISO  8  26  14  29  13  30  13  31  13  32  13  33  13  34  13  35  13
M  ISO  8  36  13  37  13  38   8  39   8  40   8  41   8  42  14  43  14
M  ISO  8  44  13  45  13  46  13  47  13  48  13  49  13  50  13  51  13
M  ISO  1  52  13
M  END
>  <minimizedAffinity>  (1) 
-5.65505028

>  <minimizedRMSD>  (1) 
1.08426964

$$$$
