
     RDKit          3D

 29 30  0  0  0  0  0  0  0  0999 V2000
   45.0730   34.9930   42.4490 C   0  0  0  0  0  0  0  0  0  0  0  0
   46.3240   35.0230   41.8410 C   0  0  0  0  0  0  0  0  0  0  0  0
   47.4290   34.5500   42.5520 C   0  0  0  0  0  0  0  0  0  0  0  0
   47.2260   34.0680   43.8360 N   0  0  0  0  0  0  0  0  0  0  0  0
   45.9930   34.0640   44.3710 C   0  0  0  0  0  0  0  0  0  0  0  0
   44.9300   34.5130   43.7050 N   0  0  0  0  0  0  0  0  0  0  0  0
   45.8840   33.5500   45.6970 N   0  0  0  0  0  0  0  0  0  0  0  0
   46.6250   32.4980   46.1120 C   0  0  0  0  0  0  0  0  0  0  0  0
   46.6180   31.9110   47.3450 C   0  0  0  0  0  0  0  0  0  0  0  0
   47.4930   30.7610   47.6480 C   0  0  0  0  0  0  0  0  0  0  0  0
   45.7650   32.4520   48.2550 C   0  0  0  0  0  0  0  0  0  0  0  0
   45.6870   31.9730   49.4320 O   0  0  0  0  0  0  0  0  0  0  0  0
   45.0090   33.5010   47.8810 N   0  0  0  0  0  0  0  0  0  0  0  0
   45.0550   34.0480   46.6400 C   0  0  0  0  0  0  0  0  0  0  0  0
   44.3280   35.0380   46.3210 O   0  0  0  0  0  0  0  0  0  0  0  0
   48.8360   34.5260   42.0120 C   0  0  0  0  0  0  0  0  0  0  0  0
   49.1690   35.9270   41.4600 C   0  0  0  0  0  0  0  0  0  0  0  0
   44.1925   35.3630   41.9032 H   0  0  0  0  0  0  0  0  0  0  0  0
   46.4406   35.4122   40.8188 H   0  0  0  0  0  0  0  0  0  0  0  0
   47.3129   32.0649   45.3709 H   0  0  0  0  0  0  0  0  0  0  0  0
   47.5814   30.6448   48.7383 H   0  0  0  0  0  0  0  0  0  0  0  0
   47.0600   29.8469   47.2157 H   0  0  0  0  0  0  0  0  0  0  0  0
   48.4895   30.9346   47.2157 H   0  0  0  0  0  0  0  0  0  0  0  0
   44.3630   33.9091   48.5716 H   0  0  0  0  0  0  0  0  0  0  0  0
   49.5389   34.2673   42.8177 H   0  0  0  0  0  0  0  0  0  0  0  0
   48.9217   33.7746   41.2132 H   0  0  0  0  0  0  0  0  0  0  0  0
   49.3340   36.6212   42.2971 H   0  0  0  0  0  0  0  0  0  0  0  0
   50.0791   35.8718   40.8446 H   0  0  0  0  0  0  0  0  0  0  0  0
   48.3315   36.2872   40.8446 H   0  0  0  0  0  0  0  0  0  0  0  0
  1  6  2  0
  2  1  1  0
  2  3  2  0
  3  4  1  0
  4  5  2  0
  5  7  1  0
  6  5  1  0
  7  8  1  0
  7 14  1  0
  8  9  2  0
  9 10  1  0
  9 11  1  0
 11 12  2  0
 13 11  1  0
 14 13  1  0
 15 14  2  0
 16  3  1  0
 17 16  1  0
  1 18  1  0
  2 19  1  0
  8 20  1  0
 10 21  1  0
 10 22  1  0
 10 23  1  0
 13 24  1  0
 16 25  1  0
 16 26  1  0
 17 27  1  0
 17 28  1  0
 17 29  1  0
M  ISO  8  18  14  19  14  20  14  21   8  22   8  23   8  24   9  25   8
M  ISO  4  26   8  27   8  28   8  29   8
M  END
>  <minimizedAffinity>  (1) 
-6.16133881

>  <minimizedRMSD>  (1) 
1.71335745

$$$$
