
     RDKit          3D

 26 27  0  0  0  0  0  0  0  0999 V2000
   45.2160   35.1690   42.5890 C   0  0  0  0  0  0  0  0  0  0  0  0
   46.4060   35.0880   41.8600 C   0  0  0  0  0  0  0  0  0  0  0  0
   47.5040   34.4290   42.4100 C   0  0  0  0  0  0  0  0  0  0  0  0
   47.3640   33.8820   43.6560 N   0  0  0  0  0  0  0  0  0  0  0  0
   46.2040   33.9750   44.3370 C   0  0  0  0  0  0  0  0  0  0  0  0
   45.1390   34.6080   43.8180 N   0  0  0  0  0  0  0  0  0  0  0  0
   46.0160   33.4200   45.6340 N   0  0  0  0  0  0  0  0  0  0  0  0
   46.6880   32.3350   46.0630 C   0  0  0  0  0  0  0  0  0  0  0  0
   46.5120   31.7840   47.3310 C   0  0  0  0  0  0  0  0  0  0  0  0
   45.5930   32.4290   48.1320 C   0  0  0  0  0  0  0  0  0  0  0  0
   45.4160   31.9480   49.2870 O   0  0  0  0  0  0  0  0  0  0  0  0
   44.9230   33.5180   47.6930 N   0  0  0  0  0  0  0  0  0  0  0  0
   45.1290   34.0200   46.4450 C   0  0  0  0  0  0  0  0  0  0  0  0
   44.4540   35.0350   46.1360 O   0  0  0  0  0  0  0  0  0  0  0  0
   48.8080   34.3020   41.6930 C   0  0  0  0  0  0  0  0  0  0  0  0
   49.9230   34.9120   42.5490 C   0  0  0  0  0  0  0  0  0  0  0  0
   44.3439   35.6878   42.1644 H   0  0  0  0  0  0  0  0  0  0  0  0
   46.4753   35.5409   40.8600 H   0  0  0  0  0  0  0  0  0  0  0  0
   47.4095   31.8614   45.3810 H   0  0  0  0  0  0  0  0  0  0  0  0
   47.0672   30.8967   47.6693 H   0  0  0  0  0  0  0  0  0  0  0  0
   44.2429   33.9770   48.3156 H   0  0  0  0  0  0  0  0  0  0  0  0
   49.0248   33.2389   41.5118 H   0  0  0  0  0  0  0  0  0  0  0  0
   48.7512   34.8336   40.7317 H   0  0  0  0  0  0  0  0  0  0  0  0
   49.6815   34.7799   43.6140 H   0  0  0  0  0  0  0  0  0  0  0  0
   50.8750   34.4091   42.3237 H   0  0  0  0  0  0  0  0  0  0  0  0
   50.0129   35.9849   42.3237 H   0  0  0  0  0  0  0  0  0  0  0  0
  1  6  2  0
  2  3  2  0
  2  1  1  0
  3  4  1  0
  4  5  2  0
  5  7  1  0
  6  5  1  0
  7  8  1  0
  7 13  1  0
  8  9  2  0
  9 10  1  0
 10 11  2  0
 12 10  1  0
 13 12  1  0
 14 13  2  0
 15  3  1  0
 15 16  1  0
  1 17  1  0
  2 18  1  0
  8 19  1  0
  9 20  1  0
 12 21  1  0
 15 22  1  0
 15 23  1  0
 16 24  1  0
 16 25  1  0
 16 26  1  0
M  ISO  8  17  14  18  14  19  14  20  14  21   9  22   8  23   8  24   8
M  ISO  2  25   8  26   8
M  END
>  <minimizedAffinity>  (1) 
-5.88775396

>  <minimizedRMSD>  (1) 
1.52999794

$$$$
