
     RDKit          3D

 27 28  0  0  0  0  0  0  0  0999 V2000
   44.6420   36.0070   44.2640 C   0  0  0  0  0  0  0  0  0  0  0  0
   45.3170   35.9190   43.0440 C   0  0  0  0  0  0  0  0  0  0  0  0
   46.2530   34.8870   42.8730 C   0  0  0  0  0  0  0  0  0  0  0  0
   46.4620   34.0120   43.9040 N   0  0  0  0  0  0  0  0  0  0  0  0
   45.7810   34.1350   45.0780 C   0  0  0  0  0  0  0  0  0  0  0  0
   44.8950   35.1150   45.2340 N   0  0  0  0  0  0  0  0  0  0  0  0
   45.9830   33.2370   46.1640 N   0  0  0  0  0  0  0  0  0  0  0  0
   46.9590   32.3120   45.9890 C   0  0  0  0  0  0  0  0  0  0  0  0
   47.2640   31.3900   46.9390 C   0  0  0  0  0  0  0  0  0  0  0  0
   46.5320   31.4240   48.1180 C   0  0  0  0  0  0  0  0  0  0  0  0
   46.8200   30.4780   49.1360 N   0  0  0  0  0  0  0  0  0  0  0  0
   45.5600   32.3560   48.2770 N   0  0  0  0  0  0  0  0  0  0  0  0
   45.2760   33.2580   47.3200 C   0  0  0  0  0  0  0  0  0  0  0  0
   44.3850   34.1430   47.4170 O   0  0  0  0  0  0  0  0  0  0  0  0
   47.0380   34.6970   41.6030 C   0  0  0  0  0  0  0  0  0  0  0  0
   48.3830   35.4140   41.7250 C   0  0  0  0  0  0  0  0  0  0  0  0
   43.9044   36.8062   44.4291 H   0  0  0  0  0  0  0  0  0  0  0  0
   45.1199   36.6405   42.2374 H   0  0  0  0  0  0  0  0  0  0  0  0
   47.5235   32.3081   45.0449 H   0  0  0  0  0  0  0  0  0  0  0  0
   48.0590   30.6465   46.7804 H   0  0  0  0  0  0  0  0  0  0  0  0
   46.2857   30.4902   50.0165 H   0  0  0  0  0  0  0  0  0  0  0  0
   47.5633   29.7792   48.9943 H   0  0  0  0  0  0  0  0  0  0  0  0
   46.4740   35.1164   40.7568 H   0  0  0  0  0  0  0  0  0  0  0  0
   47.2080   33.6235   41.4333 H   0  0  0  0  0  0  0  0  0  0  0  0
   48.6325   35.5470   42.7880 H   0  0  0  0  0  0  0  0  0  0  0  0
   49.1645   34.8128   41.2374 H   0  0  0  0  0  0  0  0  0  0  0  0
   48.3195   36.3980   41.2374 H   0  0  0  0  0  0  0  0  0  0  0  0
  1  6  2  0
  2  1  1  0
  3  2  2  0
  3  4  1  0
  4  5  2  0
  5  6  1  0
  5  7  1  0
  7 13  1  0
  8  7  1  0
  8  9  2  0
  9 10  1  0
 10 12  2  0
 10 11  1  0
 13 14  2  0
 13 12  1  0
 15 16  1  0
 15  3  1  0
  1 17  1  0
  2 18  1  0
  8 19  1  0
  9 20  1  0
 11 21  1  0
 11 22  1  0
 15 23  1  0
 15 24  1  0
 16 25  1  0
 16 26  1  0
 16 27  1  0
M  ISO  8  17  14  18  14  19  14  20  14  23   8  24   8  25   8  26   8
M  ISO  1  27   8
M  END
>  <minimizedAffinity>  (1) 
-5.74222994

>  <minimizedRMSD>  (1) 
0.271646768

$$$$
