
     RDKit          3D

 29 31  0  0  0  0  0  0  0  0999 V2000
   44.6540   36.1730   43.9750 C   0  0  0  0  0  0  0  0  0  0  0  0
   45.4230   35.9890   42.8270 C   0  0  0  0  0  0  0  0  0  0  0  0
   46.2960   34.9120   42.7770 C   0  0  0  0  0  0  0  0  0  0  0  0
   46.3600   34.0810   43.8630 N   0  0  0  0  0  0  0  0  0  0  0  0
   45.5980   34.2940   44.9570 C   0  0  0  0  0  0  0  0  0  0  0  0
   44.7540   35.3210   45.0230 N   0  0  0  0  0  0  0  0  0  0  0  0
   45.6420   33.4470   46.1000 N   0  0  0  0  0  0  0  0  0  0  0  0
   44.9470   33.7340   47.2230 C   0  0  0  0  0  0  0  0  0  0  0  0
   45.1810   32.7590   48.1320 N   0  0  0  0  0  0  0  0  0  0  0  0
   46.0120   31.8670   47.5940 C   0  0  0  0  0  0  0  0  0  0  0  0
   46.6030   30.6770   48.0230 C   0  0  0  0  0  0  0  0  0  0  0  0
   47.4130   30.0190   47.1880 N   0  0  0  0  0  0  0  0  0  0  0  0
   47.6810   30.4600   45.9490 C   0  0  0  0  0  0  0  0  0  0  0  0
   47.1110   31.6180   45.5160 N   0  0  0  0  0  0  0  0  0  0  0  0
   46.3010   32.3040   46.3110 C   0  0  0  0  0  0  0  0  0  0  0  0
   47.1740   34.6110   41.5970 C   0  0  0  0  0  0  0  0  0  0  0  0
   48.4570   35.4540   41.6980 C   0  0  0  0  0  0  0  0  0  0  0  0
   46.2580   30.3000   49.3440 N   0  0  0  0  0  0  0  0  0  0  0  0
   43.9565   37.0217   44.0305 H   0  0  0  0  0  0  0  0  0  0  0  0
   45.3393   36.6836   41.9781 H   0  0  0  0  0  0  0  0  0  0  0  0
   44.3007   34.6114   47.3728 H   0  0  0  0  0  0  0  0  0  0  0  0
   48.3542   29.8917   45.2903 H   0  0  0  0  0  0  0  0  0  0  0  0
   46.6410   34.8608   40.6677 H   0  0  0  0  0  0  0  0  0  0  0  0
   47.4320   33.5417   41.5895 H   0  0  0  0  0  0  0  0  0  0  0  0
   48.7059   35.6175   42.7569 H   0  0  0  0  0  0  0  0  0  0  0  0
   49.2844   34.9230   41.2046 H   0  0  0  0  0  0  0  0  0  0  0  0
   48.2980   36.4242   41.2046 H   0  0  0  0  0  0  0  0  0  0  0  0
   46.6443   29.4361   49.7505 H   0  0  0  0  0  0  0  0  0  0  0  0
   45.6208   30.8898   49.8981 H   0  0  0  0  0  0  0  0  0  0  0  0
  1  6  2  0
  2  1  1  0
  3  2  2  0
  3  4  1  0
  4  5  2  0
  5  6  1  0
  5  7  1  0
  7 15  1  0
  7  8  1  0
  8  9  2  0
 10 11  2  0
 10  9  1  0
 11 18  1  0
 12 11  1  0
 13 12  2  0
 14 13  1  0
 14 15  2  0
 15 10  1  0
 16 17  1  0
 16  3  1  0
  1 19  1  0
  2 20  1  0
  8 21  1  0
 13 22  1  0
 16 23  1  0
 16 24  1  0
 17 25  1  0
 17 26  1  0
 17 27  1  0
 18 28  1  0
 18 29  1  0
M  ISO  8  19  14  20  14  21  14  22  14  23   8  24   8  25   8  26   8
M  ISO  1  27   8
M  END
>  <minimizedAffinity>  (1) 
-5.78996897

>  <minimizedRMSD>  (1) 
0.491675794

$$$$
