
     RDKit          3D

 32 34  0  0  0  0  0  0  0  0999 V2000
   45.0140   35.3670   44.0680 C   0  0  0  0  0  0  0  0  0  0  0  0
   45.7330   35.6450   42.9090 C   0  0  0  0  0  0  0  0  0  0  0  0
   46.7480   34.7750   42.5650 C   0  0  0  0  0  0  0  0  0  0  0  0
   46.9520   33.7200   43.3970 N   0  0  0  0  0  0  0  0  0  0  0  0
   46.2660   33.4500   44.5080 C   0  0  0  0  0  0  0  0  0  0  0  0
   45.3020   34.3000   44.8110 N   0  0  0  0  0  0  0  0  0  0  0  0
   46.7400   32.2430   45.1690 C   0  0  0  0  0  0  0  0  0  0  0  0
   47.5180   31.3150   44.5220 C   0  0  0  0  0  0  0  0  0  0  0  0
   47.9910   30.1620   45.0980 C   0  0  0  0  0  0  0  0  0  0  0  0
   47.6960   29.8680   46.3990 C   0  0  0  0  0  0  0  0  0  0  0  0
   46.9240   30.7530   47.0990 C   0  0  0  0  0  0  0  0  0  0  0  0
   46.6290   30.4540   48.4110 C   0  0  0  0  0  0  0  0  0  0  0  0
   45.8560   31.3000   49.1740 C   0  0  0  0  0  0  0  0  0  0  0  0
   45.4020   32.4500   48.5550 C   0  0  0  0  0  0  0  0  0  0  0  0
   45.7100   32.7260   47.2440 C   0  0  0  0  0  0  0  0  0  0  0  0
   46.4790   31.8920   46.4720 C   0  0  0  0  0  0  0  0  0  0  0  0
   47.6340   34.9050   41.3390 C   0  0  0  0  0  0  0  0  0  0  0  0
   48.8660   35.7270   41.6890 C   0  0  0  0  0  0  0  0  0  0  0  0
   44.1973   36.0373   44.3742 H   0  0  0  0  0  0  0  0  0  0  0  0
   45.5011   36.5247   42.2906 H   0  0  0  0  0  0  0  0  0  0  0  0
   47.7800   31.5083   43.4713 H   0  0  0  0  0  0  0  0  0  0  0  0
   48.6112   29.4708   44.5084 H   0  0  0  0  0  0  0  0  0  0  0  0
   48.0687   28.9462   46.8696 H   0  0  0  0  0  0  0  0  0  0  0  0
   47.0168   29.5256   48.8556 H   0  0  0  0  0  0  0  0  0  0  0  0
   45.6121   31.0727   50.2223 H   0  0  0  0  0  0  0  0  0  0  0  0
   44.7816   33.1586   49.1233 H   0  0  0  0  0  0  0  0  0  0  0  0
   45.3242   33.6534   46.7955 H   0  0  0  0  0  0  0  0  0  0  0  0
   47.0755   35.4056   40.5343 H   0  0  0  0  0  0  0  0  0  0  0  0
   47.9438   33.9046   41.0025 H   0  0  0  0  0  0  0  0  0  0  0  0
   48.9644   35.7927   42.7826 H   0  0  0  0  0  0  0  0  0  0  0  0
   49.7605   35.2441   41.2687 H   0  0  0  0  0  0  0  0  0  0  0  0
   48.7636   36.7384   41.2687 H   0  0  0  0  0  0  0  0  0  0  0  0
  1  6  2  0
  2  1  1  0
  3  2  2  0
  3  4  1  0
  4  5  2  0
  5  6  1  0
  5  7  1  0
  7 16  2  0
  8  9  2  0
  8  7  1  0
  9 10  1  0
 10 11  2  0
 11 12  1  0
 12 13  2  0
 14 13  1  0
 15 14  2  0
 16 11  1  0
 16 15  1  0
 17 18  1  0
 17  3  1  0
  1 19  1  0
  2 20  1  0
  8 21  1  0
  9 22  1  0
 10 23  1  0
 12 24  1  0
 13 25  1  0
 14 26  1  0
 15 27  1  0
 17 28  1  0
 17 29  1  0
 18 30  1  0
 18 31  1  0
 18 32  1  0
M  ISO  8  19  14  20  14  21  14  22  14  23  14  24  14  25  14  26  14
M  ISO  6  27  14  28   8  29   8  30   8  31   8  32   8
M  END
>  <minimizedAffinity>  (1) 
-5.69215631

>  <minimizedRMSD>  (1) 
1.35326874

$$$$
