
     RDKit          3D

 30 32  0  0  0  0  0  0  0  0999 V2000
   44.5820   35.4920   45.3440 C   0  0  0  0  0  0  0  0  0  0  0  0
   44.3340   35.6470   43.9760 C   0  0  0  0  0  0  0  0  0  0  0  0
   44.8180   34.6700   43.1080 C   0  0  0  0  0  0  0  0  0  0  0  0
   45.5080   33.6200   43.6500 N   0  0  0  0  0  0  0  0  0  0  0  0
   45.7270   33.5070   44.9790 C   0  0  0  0  0  0  0  0  0  0  0  0
   45.2650   34.4410   45.8160 N   0  0  0  0  0  0  0  0  0  0  0  0
   46.4680   32.3330   45.3170 N   0  0  0  0  0  0  0  0  0  0  0  0
   47.2760   31.5720   44.5960 C   0  0  0  0  0  0  0  0  0  0  0  0
   47.7320   30.5840   45.3540 N   0  0  0  0  0  0  0  0  0  0  0  0
   47.2020   30.7170   46.5990 C   0  0  0  0  0  0  0  0  0  0  0  0
   47.3750   29.9410   47.7320 C   0  0  0  0  0  0  0  0  0  0  0  0
   48.1300   28.9230   47.6990 O   0  0  0  0  0  0  0  0  0  0  0  0
   46.7090   30.3210   48.8410 N   0  0  0  0  0  0  0  0  0  0  0  0
   45.9180   31.4160   48.8170 C   0  0  0  0  0  0  0  0  0  0  0  0
   45.2000   31.8510   49.9650 N   0  0  0  0  0  0  0  0  0  0  0  0
   45.7470   32.1800   47.7040 N   0  0  0  0  0  0  0  0  0  0  0  0
   46.3870   31.8490   46.5630 C   0  0  0  0  0  0  0  0  0  0  0  0
   44.6240   34.7110   41.6170 C   0  0  0  0  0  0  0  0  0  0  0  0
   45.9120   34.2650   40.9260 C   0  0  0  0  0  0  0  0  0  0  0  0
   44.2078   36.2501   46.0477 H   0  0  0  0  0  0  0  0  0  0  0  0
   43.7736   36.5142   43.5967 H   0  0  0  0  0  0  0  0  0  0  0  0
   47.5288   31.7332   43.5376 H   0  0  0  0  0  0  0  0  0  0  0  0
   46.8035   29.7748   49.7091 H   0  0  0  0  0  0  0  0  0  0  0  0
   44.6054   32.6904   49.9130 H   0  0  0  0  0  0  0  0  0  0  0  0
   45.2747   31.3266   50.8484 H   0  0  0  0  0  0  0  0  0  0  0  0
   43.8031   34.0354   41.3349 H   0  0  0  0  0  0  0  0  0  0  0  0
   44.3762   35.7367   41.3064 H   0  0  0  0  0  0  0  0  0  0  0  0
   46.6642   34.0045   41.6852 H   0  0  0  0  0  0  0  0  0  0  0  0
   45.7056   33.3860   40.2977 H   0  0  0  0  0  0  0  0  0  0  0  0
   46.2934   35.0834   40.2977 H   0  0  0  0  0  0  0  0  0  0  0  0
  1  6  2  0
  2  1  1  0
  3  4  1  0
  3  2  2  0
  4  5  2  0
  5  7  1  0
  5  6  1  0
  7 17  1  0
  8  7  1  0
  8  9  2  0
  9 10  1  0
 10 11  1  0
 11 13  1  0
 12 11  2  0
 14 13  1  0
 14 15  1  0
 16 14  2  0
 17 10  2  0
 17 16  1  0
 18  3  1  0
 19 18  1  0
  1 20  1  0
  2 21  1  0
  8 22  1  0
 13 23  1  0
 15 24  1  0
 15 25  1  0
 18 26  1  0
 18 27  1  0
 19 28  1  0
 19 29  1  0
 19 30  1  0
M  ISO  8  20  14  21  14  22  14  23   9  26   8  27   8  28   8  29   8
M  ISO  1  30   8
M  END
>  <minimizedAffinity>  (1) 
-5.97388315

>  <minimizedRMSD>  (1) 
2.11246133

$$$$
