
     RDKit          3D

 23 24  0  0  0  0  0  0  0  0999 V2000
   44.5210   36.1460   44.3860 C   0  0  0  0  0  0  0  0  0  0  0  0
   45.2140   35.9610   43.1900 C   0  0  0  0  0  0  0  0  0  0  0  0
   46.0770   34.8650   43.0980 C   0  0  0  0  0  0  0  0  0  0  0  0
   46.1990   34.0380   44.1780 N   0  0  0  0  0  0  0  0  0  0  0  0
   45.5000   34.2600   45.3290 C   0  0  0  0  0  0  0  0  0  0  0  0
   44.6800   35.3030   45.4120 N   0  0  0  0  0  0  0  0  0  0  0  0
   45.6690   33.3400   46.4560 C   0  0  0  0  0  0  0  0  0  0  0  0
   46.5990   32.3260   46.5420 C   0  0  0  0  0  0  0  0  0  0  0  0
   46.4410   31.7070   47.7220 N   0  0  0  0  0  0  0  0  0  0  0  0
   45.4290   32.3410   48.3350 C   0  0  0  0  0  0  0  0  0  0  0  0
   44.9230   33.3560   47.5890 N   0  0  0  0  0  0  0  0  0  0  0  0
   46.8770   34.5460   41.8730 C   0  0  0  0  0  0  0  0  0  0  0  0
   48.1720   35.3420   41.8710 C   0  0  0  0  0  0  0  0  0  0  0  0
   43.8331   36.9984   44.4870 H   0  0  0  0  0  0  0  0  0  0  0  0
   45.0857   36.6550   42.3463 H   0  0  0  0  0  0  0  0  0  0  0  0
   47.3435   32.0683   45.7743 H   0  0  0  0  0  0  0  0  0  0  0  0
   45.0515   32.0683   49.3315 H   0  0  0  0  0  0  0  0  0  0  0  0
   44.1496   33.9927   47.8284 H   0  0  0  0  0  0  0  0  0  0  0  0
   47.1109   33.4712   41.8612 H   0  0  0  0  0  0  0  0  0  0  0  0
   46.2903   34.8119   40.9813 H   0  0  0  0  0  0  0  0  0  0  0  0
   48.4855   35.5347   42.9076 H   0  0  0  0  0  0  0  0  0  0  0  0
   48.9541   34.7685   41.3520 H   0  0  0  0  0  0  0  0  0  0  0  0
   48.0135   36.2988   41.3520 H   0  0  0  0  0  0  0  0  0  0  0  0
  1  6  2  0
  2  1  1  0
  3  2  2  0
  3  4  1  0
  4  5  2  0
  5  6  1  0
  5  7  1  0
  7  8  2  0
  7 11  1  0
  8  9  1  0
  9 10  2  0
 11 10  1  0
 12  3  1  0
 13 12  1  0
  1 14  1  0
  2 15  1  0
  8 16  1  0
 10 17  1  0
 11 18  1  0
 12 19  1  0
 12 20  1  0
 13 21  1  0
 13 22  1  0
 13 23  1  0
M  ISO  8  14  14  15  14  16  14  17  14  18   9  19   8  20   8  21   8
M  ISO  2  22   8  23   8
M  END
>  <minimizedAffinity>  (1) 
-5.15116692

>  <minimizedRMSD>  (1) 
0.501271665

$$$$
