
     RDKit          3D

 23 24  0  0  0  0  0  0  0  0999 V2000
   44.5060   36.0230   44.4680 C   0  0  0  0  0  0  0  0  0  0  0  0
   45.1700   35.9160   43.2360 C   0  0  0  0  0  0  0  0  0  0  0  0
   46.0800   34.8820   43.0690 C   0  0  0  0  0  0  0  0  0  0  0  0
   46.2840   34.0200   44.1100 N   0  0  0  0  0  0  0  0  0  0  0  0
   45.6180   34.1560   45.2900 C   0  0  0  0  0  0  0  0  0  0  0  0
   44.7460   35.1470   45.4510 N   0  0  0  0  0  0  0  0  0  0  0  0
   45.8920   33.2080   46.3270 N   0  0  0  0  0  0  0  0  0  0  0  0
   45.2350   33.0140   47.5030 C   0  0  0  0  0  0  0  0  0  0  0  0
   45.9030   31.9790   48.1370 C   0  0  0  0  0  0  0  0  0  0  0  0
   46.9270   31.5630   47.3670 N   0  0  0  0  0  0  0  0  0  0  0  0
   46.9180   32.3110   46.2680 C   0  0  0  0  0  0  0  0  0  0  0  0
   46.8480   34.6590   41.8040 C   0  0  0  0  0  0  0  0  0  0  0  0
   48.2020   35.3500   41.8730 C   0  0  0  0  0  0  0  0  0  0  0  0
   43.7811   36.8349   44.6272 H   0  0  0  0  0  0  0  0  0  0  0  0
   44.9742   36.6326   42.4247 H   0  0  0  0  0  0  0  0  0  0  0  0
   44.3571   33.5640   47.8728 H   0  0  0  0  0  0  0  0  0  0  0  0
   45.6377   31.5608   49.1192 H   0  0  0  0  0  0  0  0  0  0  0  0
   47.6313   32.2202   45.4355 H   0  0  0  0  0  0  0  0  0  0  0  0
   46.2765   35.0665   40.9571 H   0  0  0  0  0  0  0  0  0  0  0  0
   47.0066   33.5788   41.6701 H   0  0  0  0  0  0  0  0  0  0  0  0
   48.4864   35.4951   42.9257 H   0  0  0  0  0  0  0  0  0  0  0  0
   48.9575   34.7272   41.3716 H   0  0  0  0  0  0  0  0  0  0  0  0
   48.1409   36.3272   41.3716 H   0  0  0  0  0  0  0  0  0  0  0  0
  1  6  2  0
  2  1  1  0
  3  2  2  0
  3  4  1  0
  4  5  2  0
  5  6  1  0
  5  7  1  0
  7  8  1  0
  8  9  2  0
 10  9  1  0
 11  7  1  0
 11 10  2  0
 12 13  1  0
 12  3  1  0
  1 14  1  0
  2 15  1  0
  8 16  1  0
  9 17  1  0
 11 18  1  0
 12 19  1  0
 12 20  1  0
 13 21  1  0
 13 22  1  0
 13 23  1  0
M  ISO  8  14  14  15  14  16  14  17  14  18  14  19   8  20   8  21   8
M  ISO  2  22   8  23   8
M  END
>  <minimizedAffinity>  (1) 
-4.7921524

>  <minimizedRMSD>  (1) 
0.220384389

$$$$
