
     RDKit          3D

 23 24  0  0  0  0  0  0  0  0999 V2000
   44.5530   36.0420   44.2870 C   0  0  0  0  0  0  0  0  0  0  0  0
   45.2850   35.8140   43.1270 C   0  0  0  0  0  0  0  0  0  0  0  0
   46.1850   34.7450   43.0870 C   0  0  0  0  0  0  0  0  0  0  0  0
   46.2960   33.9700   44.2120 N   0  0  0  0  0  0  0  0  0  0  0  0
   45.5730   34.2160   45.3240 C   0  0  0  0  0  0  0  0  0  0  0  0
   44.7150   35.2440   45.3480 N   0  0  0  0  0  0  0  0  0  0  0  0
   45.7550   33.3390   46.4790 C   0  0  0  0  0  0  0  0  0  0  0  0
   46.8740   32.5230   46.6200 C   0  0  0  0  0  0  0  0  0  0  0  0
   46.7520   31.8300   47.7940 C   0  0  0  0  0  0  0  0  0  0  0  0
   45.5460   32.2570   48.3340 C   0  0  0  0  0  0  0  0  0  0  0  0
   45.0170   33.1360   47.5170 O   0  0  0  0  0  0  0  0  0  0  0  0
   47.0270   34.3960   41.9000 C   0  0  0  0  0  0  0  0  0  0  0  0
   48.1960   35.3750   41.7910 C   0  0  0  0  0  0  0  0  0  0  0  0
   43.8405   36.8789   44.3321 H   0  0  0  0  0  0  0  0  0  0  0  0
   45.1574   36.4671   42.2511 H   0  0  0  0  0  0  0  0  0  0  0  0
   47.7114   32.4481   45.9106 H   0  0  0  0  0  0  0  0  0  0  0  0
   47.4544   31.0965   48.2166 H   0  0  0  0  0  0  0  0  0  0  0  0
   45.1092   31.9163   49.2843 H   0  0  0  0  0  0  0  0  0  0  0  0
   47.4160   33.3736   42.0157 H   0  0  0  0  0  0  0  0  0  0  0  0
   46.4144   34.4575   40.9884 H   0  0  0  0  0  0  0  0  0  0  0  0
   48.5331   35.6573   42.7993 H   0  0  0  0  0  0  0  0  0  0  0  0
   49.0247   34.8975   41.2476 H   0  0  0  0  0  0  0  0  0  0  0  0
   47.8714   36.2747   41.2476 H   0  0  0  0  0  0  0  0  0  0  0  0
  1  6  2  0
  2  1  1  0
  3  2  2  0
  3  4  1  0
  4  5  2  0
  5  6  1  0
  5  7  1  0
  7  8  2  0
  7 11  1  0
  8  9  1  0
  9 10  2  0
 11 10  1  0
 12  3  1  0
 13 12  1  0
  1 14  1  0
  2 15  1  0
  8 16  1  0
  9 17  1  0
 10 18  1  0
 12 19  1  0
 12 20  1  0
 13 21  1  0
 13 22  1  0
 13 23  1  0
M  ISO  8  14  14  15  14  16  14  17  14  18  14  19   8  20   8  21   8
M  ISO  2  22   8  23   8
M  END
>  <minimizedAffinity>  (1) 
-4.77527857

>  <minimizedRMSD>  (1) 
0.572072864

$$$$
