
     RDKit          3D

 23 24  0  0  0  0  0  0  0  0999 V2000
   44.5310   35.9920   44.0270 C   0  0  0  0  0  0  0  0  0  0  0  0
   45.3150   35.7460   42.9030 C   0  0  0  0  0  0  0  0  0  0  0  0
   46.2630   34.7250   42.9780 C   0  0  0  0  0  0  0  0  0  0  0  0
   46.3840   34.0090   44.1380 N   0  0  0  0  0  0  0  0  0  0  0  0
   45.6030   34.2810   45.2040 C   0  0  0  0  0  0  0  0  0  0  0  0
   44.6800   35.2650   45.1560 N   0  0  0  0  0  0  0  0  0  0  0  0
   45.7540   33.5000   46.4350 C   0  0  0  0  0  0  0  0  0  0  0  0
   46.7640   32.6030   46.7110 C   0  0  0  0  0  0  0  0  0  0  0  0
   46.5260   32.0980   47.9630 C   0  0  0  0  0  0  0  0  0  0  0  0
   45.3940   32.6770   48.4320 N   0  0  0  0  0  0  0  0  0  0  0  0
   44.9410   33.5220   47.4940 N   0  0  0  0  0  0  0  0  0  0  0  0
   47.1640   34.3690   41.8270 C   0  0  0  0  0  0  0  0  0  0  0  0
   48.2940   35.3830   41.7180 C   0  0  0  0  0  0  0  0  0  0  0  0
   43.7770   36.7923   43.9953 H   0  0  0  0  0  0  0  0  0  0  0  0
   45.1909   36.3382   41.9844 H   0  0  0  0  0  0  0  0  0  0  0  0
   47.6036   32.3415   46.0502 H   0  0  0  0  0  0  0  0  0  0  0  0
   47.1428   31.3564   48.4918 H   0  0  0  0  0  0  0  0  0  0  0  0
   44.9580   32.4993   49.3481 H   0  0  0  0  0  0  0  0  0  0  0  0
   47.5879   33.3675   41.9923 H   0  0  0  0  0  0  0  0  0  0  0  0
   46.5799   34.3775   40.8949 H   0  0  0  0  0  0  0  0  0  0  0  0
   48.6215   35.6769   42.7262 H   0  0  0  0  0  0  0  0  0  0  0  0
   49.1384   34.9340   41.1745 H   0  0  0  0  0  0  0  0  0  0  0  0
   47.9387   36.2709   41.1745 H   0  0  0  0  0  0  0  0  0  0  0  0
  1  6  2  0
  2  3  2  0
  2  1  1  0
  3  4  1  0
  4  5  2  0
  5  7  1  0
  6  5  1  0
  7  8  1  0
  7 11  2  0
  8  9  2  0
  9 10  1  0
 11 10  1  0
 12  3  1  0
 13 12  1  0
  1 14  1  0
  2 15  1  0
  8 16  1  0
  9 17  1  0
 10 18  1  0
 12 19  1  0
 12 20  1  0
 13 21  1  0
 13 22  1  0
 13 23  1  0
M  ISO  8  14  14  15  14  16  14  17  14  18   9  19   8  20   8  21   8
M  ISO  2  22   8  23   8
M  END
>  <minimizedAffinity>  (1) 
-4.75516272

>  <minimizedRMSD>  (1) 
0.67279166

$$$$
