
     RDKit          3D

 18 18  0  0  0  0  0  0  0  0999 V2000
   44.5280   36.0200   44.4810 C   0  0  0  0  0  0  0  0  0  0  0  0
   45.1870   35.9410   43.2340 C   0  0  0  0  0  0  0  0  0  0  0  0
   46.0990   34.8970   43.0150 C   0  0  0  0  0  0  0  0  0  0  0  0
   46.3000   34.0000   44.0380 N   0  0  0  0  0  0  0  0  0  0  0  0
   45.6490   34.1170   45.2070 C   0  0  0  0  0  0  0  0  0  0  0  0
   44.7820   35.1000   45.4320 N   0  0  0  0  0  0  0  0  0  0  0  0
   46.8390   34.7350   41.7310 C   0  0  0  0  0  0  0  0  0  0  0  0
   48.2320   35.3570   41.8660 C   0  0  0  0  0  0  0  0  0  0  0  0
   45.9470   33.1050   46.2150 C   0  0  0  0  0  0  0  0  0  0  0  0
   45.3050   33.0290   47.2720 O   0  0  0  0  0  0  0  0  0  0  0  0
   43.8097   36.8302   44.6750 H   0  0  0  0  0  0  0  0  0  0  0  0
   44.9888   36.6849   42.4483 H   0  0  0  0  0  0  0  0  0  0  0  0
   46.2882   35.2397   40.9236 H   0  0  0  0  0  0  0  0  0  0  0  0
   46.9352   33.6651   41.4943 H   0  0  0  0  0  0  0  0  0  0  0  0
   48.4820   35.4686   42.9314 H   0  0  0  0  0  0  0  0  0  0  0  0
   48.9734   34.7044   41.3818 H   0  0  0  0  0  0  0  0  0  0  0  0
   48.2411   36.3447   41.3818 H   0  0  0  0  0  0  0  0  0  0  0  0
   46.7632   32.3907   46.0317 H   0  0  0  0  0  0  0  0  0  0  0  0
  1  6  2  0
  2  1  1  0
  3  2  2  0
  3  4  1  0
  4  5  2  0
  5  6  1  0
  5  9  1  0
  7  8  1  0
  7  3  1  0
  9 10  2  0
  1 11  1  0
  2 12  1  0
  7 13  1  0
  7 14  1  0
  8 15  1  0
  8 16  1  0
  8 17  1  0
  9 18  1  0
M  ISO  8  11  14  12  14  13   8  14   8  15   8  16   8  17   8  18   6
M  END
>  <minimizedAffinity>  (1) 
-3.86409593

>  <minimizedRMSD>  (1) 
0.192823216

$$$$
