
     RDKit          3D

 23 24  0  0  0  0  0  0  0  0999 V2000
   44.5140   35.6600   44.7790 C   0  0  0  0  0  0  0  0  0  0  0  0
   45.0470   35.6910   43.4830 C   0  0  0  0  0  0  0  0  0  0  0  0
   46.0750   34.7960   43.1640 C   0  0  0  0  0  0  0  0  0  0  0  0
   46.5110   33.9310   44.1400 N   0  0  0  0  0  0  0  0  0  0  0  0
   45.9630   33.9420   45.3700 C   0  0  0  0  0  0  0  0  0  0  0  0
   44.9850   34.7840   45.6970 N   0  0  0  0  0  0  0  0  0  0  0  0
   46.7200   34.7370   41.8150 C   0  0  0  0  0  0  0  0  0  0  0  0
   48.1610   35.2760   41.9240 C   0  0  0  0  0  0  0  0  0  0  0  0
   46.5210   32.9580   46.3380 C   0  0  0  0  0  0  0  0  0  0  0  0
   45.5010   32.5460   47.3910 C   0  0  0  0  0  0  0  0  0  0  0  0
   46.0340   31.5810   46.4100 C   0  0  0  0  0  0  0  0  0  0  0  0
   43.7055   36.3540   45.0525 H   0  0  0  0  0  0  0  0  0  0  0  0
   44.6666   36.4016   42.7345 H   0  0  0  0  0  0  0  0  0  0  0  0
   46.1483   35.3533   41.1055 H   0  0  0  0  0  0  0  0  0  0  0  0
   46.7380   33.6972   41.4566 H   0  0  0  0  0  0  0  0  0  0  0  0
   48.4349   35.3785   42.9844 H   0  0  0  0  0  0  0  0  0  0  0  0
   48.8526   34.5758   41.4327 H   0  0  0  0  0  0  0  0  0  0  0  0
   48.2232   36.2582   41.4327 H   0  0  0  0  0  0  0  0  0  0  0  0
   47.5404   33.3659   46.2710 H   0  0  0  0  0  0  0  0  0  0  0  0
   45.7929   32.4792   48.4495 H   0  0  0  0  0  0  0  0  0  0  0  0
   44.5009   32.8887   47.6950 H   0  0  0  0  0  0  0  0  0  0  0  0
   45.3776   31.1948   45.6162 H   0  0  0  0  0  0  0  0  0  0  0  0
   46.5262   30.6008   46.4935 H   0  0  0  0  0  0  0  0  0  0  0  0
  1  6  2  0
  2  1  1  0
  3  2  2  0
  3  4  1  0
  4  5  2  0
  5  6  1  0
  5  9  1  0
  7  8  1  0
  7  3  1  0
  9 11  1  0
  9 10  1  0
 11 10  1  0
  1 12  1  0
  2 13  1  0
  7 14  1  0
  7 15  1  0
  8 16  1  0
  8 17  1  0
  8 18  1  0
  9 19  1  0
 10 20  1  0
 10 21  1  0
 11 22  1  0
 11 23  1  0
M  ISO  8  12  14  13  14  14   8  15   8  16   8  17   8  18   8  19  13
M  ISO  4  20  13  21  13  22  13  23  13
M  END
>  <minimizedAffinity>  (1) 
-4.03932333

>  <minimizedRMSD>  (1) 
0.548001826

$$$$
