
     RDKit          3D

 28 28  0  0  0  0  0  0  0  0999 V2000
   47.0100   32.4580   44.6670 C   0  0  0  0  0  0  0  0  0  0  0  0
   45.9400   33.3150   44.9170 C   0  0  0  0  0  0  0  0  0  0  0  0
   45.8360   34.4650   44.1240 C   0  0  0  0  0  0  0  0  0  0  0  0
   46.7830   34.6780   43.1580 N   0  0  0  0  0  0  0  0  0  0  0  0
   47.8080   33.8100   42.9560 C   0  0  0  0  0  0  0  0  0  0  0  0
   47.9110   32.7120   43.7100 N   0  0  0  0  0  0  0  0  0  0  0  0
   48.7990   34.1130   41.8840 C   0  0  0  0  0  0  0  0  0  0  0  0
   49.8150   35.0710   42.5130 C   0  0  0  0  0  0  0  0  0  0  0  0
   48.1260   34.8340   40.7190 C   0  0  0  0  0  0  0  0  0  0  0  0
   49.4570   32.8810   41.3340 C   0  0  0  0  0  0  0  0  0  0  0  0
   44.7410   35.4840   44.2710 C   0  0  0  0  0  0  0  0  0  0  0  0
   44.9840   36.6350   43.3010 C   0  0  0  0  0  0  0  0  0  0  0  0
   47.1174   31.5466   45.2734 H   0  0  0  0  0  0  0  0  0  0  0  0
   45.2056   33.0969   45.7064 H   0  0  0  0  0  0  0  0  0  0  0  0
   49.7483   35.0081   43.6092 H   0  0  0  0  0  0  0  0  0  0  0  0
   50.8293   34.7930   42.1908 H   0  0  0  0  0  0  0  0  0  0  0  0
   49.5970   36.0999   42.1908 H   0  0  0  0  0  0  0  0  0  0  0  0
   47.4242   35.5858   41.1093 H   0  0  0  0  0  0  0  0  0  0  0  0
   48.8910   35.3307   40.1041 H   0  0  0  0  0  0  0  0  0  0  0  0
   47.5778   34.1050   40.1041 H   0  0  0  0  0  0  0  0  0  0  0  0
   49.7967   32.2449   42.1646 H   0  0  0  0  0  0  0  0  0  0  0  0
   48.7360   32.3245   40.7172 H   0  0  0  0  0  0  0  0  0  0  0  0
   50.3205   33.1708   40.7172 H   0  0  0  0  0  0  0  0  0  0  0  0
   43.7713   35.0150   44.0478 H   0  0  0  0  0  0  0  0  0  0  0  0
   44.7339   35.8684   45.3016 H   0  0  0  0  0  0  0  0  0  0  0  0
   45.1787   37.5573   43.8679 H   0  0  0  0  0  0  0  0  0  0  0  0
   45.8531   36.4035   42.6677 H   0  0  0  0  0  0  0  0  0  0  0  0
   44.0955   36.7745   42.6677 H   0  0  0  0  0  0  0  0  0  0  0  0
  1  2  2  0
  3 11  1  0
  3  2  1  0
  4  3  2  0
  5  4  1  0
  5  6  2  0
  6  1  1  0
  7  8  1  0
  7  5  1  0
  9  7  1  0
 10  7  1  0
 12 11  1  0
  1 13  1  0
  2 14  1  0
  8 15  1  0
  8 16  1  0
  8 17  1  0
  9 18  1  0
  9 19  1  0
  9 20  1  0
 10 21  1  0
 10 22  1  0
 10 23  1  0
 11 24  1  0
 11 25  1  0
 12 26  1  0
 12 27  1  0
 12 28  1  0
M  ISO  8  13  14  14  14  15   8  16   8  17   8  18   8  19   8  20   8
M  ISO  8  21   8  22   8  23   8  24   8  25   8  26   8  27   8  28   8
M  END
>  <minimizedAffinity>  (1) 
-4.03067923

>  <minimizedRMSD>  (1) 
4.44268751

$$$$
