
     RDKit          3D

 21 22  0  0  0  0  0  0  0  0999 V2000
   44.5030   36.0540   44.4550 C   0  0  0  0  0  0  0  0  0  0  0  0
   45.1790   35.9210   43.2210 C   0  0  0  0  0  0  0  0  0  0  0  0
   46.0800   34.8800   43.0590 C   0  0  0  0  0  0  0  0  0  0  0  0
   46.2790   34.0100   44.1220 N   0  0  0  0  0  0  0  0  0  0  0  0
   45.6090   34.1840   45.2710 C   0  0  0  0  0  0  0  0  0  0  0  0
   44.7320   35.1880   45.4470 N   0  0  0  0  0  0  0  0  0  0  0  0
   45.9480   33.1740   46.2730 C   0  0  0  0  0  0  0  0  0  0  0  0
   46.9970   32.3240   46.1880 N   0  0  0  0  0  0  0  0  0  0  0  0
   47.0350   31.5550   47.2180 O   0  0  0  0  0  0  0  0  0  0  0  0
   46.0060   31.9020   47.9830 C   0  0  0  0  0  0  0  0  0  0  0  0
   45.2980   32.9070   47.4390 N   0  0  0  0  0  0  0  0  0  0  0  0
   46.8530   34.6450   41.7960 C   0  0  0  0  0  0  0  0  0  0  0  0
   48.2080   35.3680   41.9000 C   0  0  0  0  0  0  0  0  0  0  0  0
   43.7847   36.8744   44.5998 H   0  0  0  0  0  0  0  0  0  0  0  0
   44.9932   36.6319   42.4024 H   0  0  0  0  0  0  0  0  0  0  0  0
   45.7629   31.4253   48.9441 H   0  0  0  0  0  0  0  0  0  0  0  0
   46.2884   35.0399   40.9385 H   0  0  0  0  0  0  0  0  0  0  0  0
   47.0156   33.5665   41.6533 H   0  0  0  0  0  0  0  0  0  0  0  0
   48.4689   35.5072   42.9595 H   0  0  0  0  0  0  0  0  0  0  0  0
   48.9845   34.7643   41.4074 H   0  0  0  0  0  0  0  0  0  0  0  0
   48.1389   36.3491   41.4074 H   0  0  0  0  0  0  0  0  0  0  0  0
  1  6  2  0
  2  1  1  0
  3  2  2  0
  3  4  1  0
  4  5  2  0
  5  6  1  0
  5  7  1  0
  7 11  1  0
  8  7  2  0
  8  9  1  0
  9 10  1  0
 11 10  2  0
 12 13  1  0
 12  3  1  0
  1 14  1  0
  2 15  1  0
 10 16  1  0
 12 17  1  0
 12 18  1  0
 13 19  1  0
 13 20  1  0
 13 21  1  0
M  ISO  8  14  14  15  14  16  14  17   8  18   8  19   8  20   8  21   8
M  END
>  <minimizedAffinity>  (1) 
-4.57448244

>  <minimizedRMSD>  (1) 
0.250648916

$$$$
