
     RDKit          3D

 22 24  0  0  0  0  0  0  0  0999 V2000
   46.8540   32.4190   44.6770 C   0  0  0  0  0  0  0  0  0  0  0  0
   47.6780   31.9050   43.6910 C   0  0  0  0  0  0  0  0  0  0  0  0
   48.2490   30.7400   44.0900 N   0  0  0  0  0  0  0  0  0  0  0  0
   47.7640   30.5360   45.3410 C   0  0  0  0  0  0  0  0  0  0  0  0
   46.9310   31.5350   45.6980 N   0  0  0  0  0  0  0  0  0  0  0  0
   46.2530   31.6300   46.9460 C   0  0  0  0  0  0  0  0  0  0  0  0
   45.0570   31.1940   47.3890 N   0  0  0  0  0  0  0  0  0  0  0  0
   44.8850   31.5350   48.6310 O   0  0  0  0  0  0  0  0  0  0  0  0
   45.9500   32.2050   49.0560 C   0  0  0  0  0  0  0  0  0  0  0  0
   46.8060   32.2620   47.9950 N   0  0  0  0  0  0  0  0  0  0  0  0
   44.6440   35.1550   45.6970 C   0  0  0  0  0  0  0  0  0  0  0  0
   44.5910   35.9540   44.5350 C   0  0  0  0  0  0  0  0  0  0  0  0
   45.3110   35.5430   43.4260 C   0  0  0  0  0  0  0  0  0  0  0  0
   46.0310   34.3890   43.5180 N   0  0  0  0  0  0  0  0  0  0  0  0
   46.0680   33.6320   44.6510 C   0  0  0  0  0  0  0  0  0  0  0  0
   45.3790   34.0170   45.7240 N   0  0  0  0  0  0  0  0  0  0  0  0
   47.8479   32.3783   42.7127 H   0  0  0  0  0  0  0  0  0  0  0  0
   48.0157   29.6742   45.9766 H   0  0  0  0  0  0  0  0  0  0  0  0
   46.1095   32.6278   50.0589 H   0  0  0  0  0  0  0  0  0  0  0  0
   44.0817   35.4598   46.5919 H   0  0  0  0  0  0  0  0  0  0  0  0
   43.9942   36.8777   44.5109 H   0  0  0  0  0  0  0  0  0  0  0  0
   45.3023   36.1313   42.4966 H   0  0  0  0  0  0  0  0  0  0  0  0
  1  5  1  0
  2  3  1  0
  2  1  2  0
  3  4  2  0
  4  5  1  0
  5  6  1  0
  6  7  2  0
  6 10  1  0
  7  8  1  0
  8  9  1  0
 10  9  2  0
 11 16  2  0
 12 11  1  0
 13 14  1  0
 13 12  2  0
 14 15  2  0
 15  1  1  0
 15 16  1  0
  2 17  1  0
  4 18  1  0
  9 19  1  0
 11 20  1  0
 12 21  1  0
 13 22  1  0
M  ISO  6  17  14  18  14  19  14  20  14  21  14  22  14
M  END
>  <minimizedAffinity>  (1) 
-4.60859442

>  <minimizedRMSD>  (1) 
3.16932678

$$$$
