
     RDKit          3D

 25 25  0  0  0  0  0  0  0  0999 V2000
   44.5430   35.6630   44.7900 C   0  0  0  0  0  0  0  0  0  0  0  0
   45.0720   35.7280   43.5050 C   0  0  0  0  0  0  0  0  0  0  0  0
   46.0800   34.8130   43.1570 C   0  0  0  0  0  0  0  0  0  0  0  0
   46.4930   33.9010   44.1030 N   0  0  0  0  0  0  0  0  0  0  0  0
   45.9480   33.8770   45.3400 C   0  0  0  0  0  0  0  0  0  0  0  0
   44.9950   34.7490   45.6550 N   0  0  0  0  0  0  0  0  0  0  0  0
   46.7390   34.7720   41.8020 C   0  0  0  0  0  0  0  0  0  0  0  0
   48.1670   35.2870   41.9220 C   0  0  0  0  0  0  0  0  0  0  0  0
   46.3880   32.8960   46.3680 C   0  0  0  0  0  0  0  0  0  0  0  0
   45.3870   32.7580   47.4840 C   0  0  0  0  0  0  0  0  0  0  0  0
   46.4580   31.5320   45.6660 C   0  0  0  0  0  0  0  0  0  0  0  0
   43.7521   36.3642   45.0948 H   0  0  0  0  0  0  0  0  0  0  0  0
   44.7114   36.4745   42.7819 H   0  0  0  0  0  0  0  0  0  0  0  0
   46.1772   35.4064   41.1006 H   0  0  0  0  0  0  0  0  0  0  0  0
   46.7502   33.7374   41.4285 H   0  0  0  0  0  0  0  0  0  0  0  0
   48.4340   35.3833   42.9848 H   0  0  0  0  0  0  0  0  0  0  0  0
   48.8540   34.5800   41.4340 H   0  0  0  0  0  0  0  0  0  0  0  0
   48.2446   36.2698   41.4340 H   0  0  0  0  0  0  0  0  0  0  0  0
   47.3453   33.2312   46.7937 H   0  0  0  0  0  0  0  0  0  0  0  0
   45.9048   32.8294   48.4519 H   0  0  0  0  0  0  0  0  0  0  0  0
   44.6398   33.5616   47.4078 H   0  0  0  0  0  0  0  0  0  0  0  0
   44.8851   31.7822   47.4078 H   0  0  0  0  0  0  0  0  0  0  0  0
   46.4990   30.7329   46.4208 H   0  0  0  0  0  0  0  0  0  0  0  0
   45.5656   31.3970   45.0372 H   0  0  0  0  0  0  0  0  0  0  0  0
   47.3595   31.4891   45.0372 H   0  0  0  0  0  0  0  0  0  0  0  0
  1  6  2  0
  2  1  1  0
  3  2  2  0
  3  4  1  0
  4  5  2  0
  5  6  1  0
  5  9  1  0
  7  8  1  0
  7  3  1  0
  9 10  1  0
 11  9  1  0
  1 12  1  0
  2 13  1  0
  7 14  1  0
  7 15  1  0
  8 16  1  0
  8 17  1  0
  8 18  1  0
  9 19  1  0
 10 20  1  0
 10 21  1  0
 10 22  1  0
 11 23  1  0
 11 24  1  0
 11 25  1  0
M  ISO  8  12  14  13  14  14   8  15   8  16   8  17   8  18   8  19   8
M  ISO  6  20   8  21   8  22   8  23   8  24   8  25   8
M  END
>  <minimizedAffinity>  (1) 
-4.05650759

>  <minimizedRMSD>  (1) 
0.471206278

$$$$
