
     RDKit          3D

 18 18  0  0  0  0  0  0  0  0999 V2000
   44.6120   36.1930   44.4140 C   0  0  0  0  0  0  0  0  0  0  0  0
   45.2710   36.0830   43.1900 C   0  0  0  0  0  0  0  0  0  0  0  0
   46.0350   34.9400   42.9390 C   0  0  0  0  0  0  0  0  0  0  0  0
   46.0930   33.9840   43.9170 N   0  0  0  0  0  0  0  0  0  0  0  0
   45.4370   34.1300   45.0950 C   0  0  0  0  0  0  0  0  0  0  0  0
   44.7110   35.2150   45.3380 N   0  0  0  0  0  0  0  0  0  0  0  0
   45.5300   33.1130   46.0730 N   0  0  0  0  0  0  0  0  0  0  0  0
   46.7910   34.6910   41.6750 C   0  0  0  0  0  0  0  0  0  0  0  0
   48.1790   35.3390   41.7720 C   0  0  0  0  0  0  0  0  0  0  0  0
   44.0058   37.0855   44.6281 H   0  0  0  0  0  0  0  0  0  0  0  0
   45.1910   36.8805   42.4366 H   0  0  0  0  0  0  0  0  0  0  0  0
   45.0353   33.2150   46.9707 H   0  0  0  0  0  0  0  0  0  0  0  0
   46.0924   32.2702   45.8877 H   0  0  0  0  0  0  0  0  0  0  0  0
   46.2416   35.1266   40.8274 H   0  0  0  0  0  0  0  0  0  0  0  0
   46.9025   33.6074   41.5222 H   0  0  0  0  0  0  0  0  0  0  0  0
   48.4512   35.4661   42.8302 H   0  0  0  0  0  0  0  0  0  0  0  0
   48.9202   34.6938   41.2777 H   0  0  0  0  0  0  0  0  0  0  0  0
   48.1603   36.3215   41.2777 H   0  0  0  0  0  0  0  0  0  0  0  0
  1  6  2  0
  2  1  1  0
  3  2  2  0
  3  4  1  0
  4  5  2  0
  5  6  1  0
  5  7  1  0
  8  9  1  0
  8  3  1  0
  1 10  1  0
  2 11  1  0
  7 12  1  0
  7 13  1  0
  8 14  1  0
  8 15  1  0
  9 16  1  0
  9 17  1  0
  9 18  1  0
M  ISO  7  10  14  11  14  14   8  15   8  16   8  17   8  18   8
M  END
>  <minimizedAffinity>  (1) 
-3.8468082

>  <minimizedRMSD>  (1) 
0.170930147

$$$$
