
     RDKit          3D

 17 17  0  0  0  0  0  0  0  0999 V2000
   44.5240   36.0130   44.4880 C   0  0  0  0  0  0  0  0  0  0  0  0
   45.1550   35.9480   43.2440 C   0  0  0  0  0  0  0  0  0  0  0  0
   46.0560   34.9210   43.0000 C   0  0  0  0  0  0  0  0  0  0  0  0
   46.2850   34.0070   44.0060 N   0  0  0  0  0  0  0  0  0  0  0  0
   45.6530   34.1110   45.1880 C   0  0  0  0  0  0  0  0  0  0  0  0
   44.7910   35.0970   45.4200 N   0  0  0  0  0  0  0  0  0  0  0  0
   46.7980   34.7440   41.7000 C   0  0  0  0  0  0  0  0  0  0  0  0
   48.2120   35.3390   41.8610 C   0  0  0  0  0  0  0  0  0  0  0  0
   46.0820   32.8330   46.3670 S   0  0  0  0  0  0  0  0  0  0  0  0
   43.8067   36.8197   44.6993 H   0  0  0  0  0  0  0  0  0  0  0  0
   44.9412   36.6992   42.4694 H   0  0  0  0  0  0  0  0  0  0  0  0
   46.2642   35.2679   40.8934 H   0  0  0  0  0  0  0  0  0  0  0  0
   46.8643   33.6760   41.4453 H   0  0  0  0  0  0  0  0  0  0  0  0
   48.4483   35.4385   42.9307 H   0  0  0  0  0  0  0  0  0  0  0  0
   48.9464   34.6736   41.3836 H   0  0  0  0  0  0  0  0  0  0  0  0
   48.2497   36.3293   41.3836 H   0  0  0  0  0  0  0  0  0  0  0  0
   45.9208   33.3132   47.6399 H   0  0  0  0  0  0  0  0  0  0  0  0
  1  6  2  0
  2  1  1  0
  3  2  2  0
  3  4  1  0
  4  5  2  0
  5  6  1  0
  5  9  1  0
  7  8  1  0
  7  3  1  0
  1 10  1  0
  2 11  1  0
  7 12  1  0
  7 13  1  0
  8 14  1  0
  8 15  1  0
  8 16  1  0
  9 17  1  0
M  ISO  8  10  14  11  14  12   8  13   8  14   8  15   8  16   8  17  11
M  END
>  <minimizedAffinity>  (1) 
-3.72720861

>  <minimizedRMSD>  (1) 
0.0565268695

$$$$
