
     RDKit          3D

 17 17  0  0  0  0  0  0  0  0999 V2000
   44.5320   36.0420   44.4720 C   0  0  0  0  0  0  0  0  0  0  0  0
   45.1750   35.9800   43.2240 C   0  0  0  0  0  0  0  0  0  0  0  0
   46.0640   34.9360   43.0080 C   0  0  0  0  0  0  0  0  0  0  0  0
   46.2680   34.0280   44.0110 N   0  0  0  0  0  0  0  0  0  0  0  0
   45.6230   34.1270   45.2030 C   0  0  0  0  0  0  0  0  0  0  0  0
   44.7570   35.1360   45.4270 N   0  0  0  0  0  0  0  0  0  0  0  0
   46.8250   34.7330   41.7370 C   0  0  0  0  0  0  0  0  0  0  0  0
   48.2110   35.3440   41.8510 C   0  0  0  0  0  0  0  0  0  0  0  0
   45.8730   33.1740   46.1790 O   0  0  0  0  0  0  0  0  0  0  0  0
   43.8232   36.8601   44.6679 H   0  0  0  0  0  0  0  0  0  0  0  0
   44.9806   36.7324   42.4455 H   0  0  0  0  0  0  0  0  0  0  0  0
   46.2834   35.2133   40.9088 H   0  0  0  0  0  0  0  0  0  0  0  0
   46.9234   33.6541   41.5465 H   0  0  0  0  0  0  0  0  0  0  0  0
   48.4743   35.4601   42.9127 H   0  0  0  0  0  0  0  0  0  0  0  0
   48.9435   34.6854   41.3614 H   0  0  0  0  0  0  0  0  0  0  0  0
   48.2189   36.3290   41.3614 H   0  0  0  0  0  0  0  0  0  0  0  0
   45.4129   33.2290   47.0539 H   0  0  0  0  0  0  0  0  0  0  0  0
  1  6  2  0
  2  1  1  0
  3  2  2  0
  3  4  1  0
  4  5  2  0
  5  6  1  0
  5  9  1  0
  7  8  1  0
  7  3  1  0
  1 10  1  0
  2 11  1  0
  7 12  1  0
  7 13  1  0
  8 14  1  0
  8 15  1  0
  8 16  1  0
  9 17  1  0
M  ISO  8  10  14  11  14  12   8  13   8  14   8  15   8  16   8  17   3
M  END
>  <minimizedAffinity>  (1) 
-3.69139361

>  <minimizedRMSD>  (1) 
0.0528942831

$$$$
