
     RDKit          3D

 23 25  0  0  0  0  0  0  0  0999 V2000
   46.9880   32.4480   44.3630 C   0  0  0  0  0  0  0  0  0  0  0  0
   47.7510   32.0430   43.2860 C   0  0  0  0  0  0  0  0  0  0  0  0
   48.3930   30.8770   43.5550 N   0  0  0  0  0  0  0  0  0  0  0  0
   48.0150   30.5660   44.8110 C   0  0  0  0  0  0  0  0  0  0  0  0
   47.1680   31.5110   45.3000 N   0  0  0  0  0  0  0  0  0  0  0  0
   44.7220   34.9920   45.7050 C   0  0  0  0  0  0  0  0  0  0  0  0
   44.5960   35.9020   44.6300 C   0  0  0  0  0  0  0  0  0  0  0  0
   45.2890   35.6290   43.4640 C   0  0  0  0  0  0  0  0  0  0  0  0
   46.0520   34.5030   43.4160 N   0  0  0  0  0  0  0  0  0  0  0  0
   46.1590   33.6380   44.4640 C   0  0  0  0  0  0  0  0  0  0  0  0
   45.4960   33.8970   45.5850 N   0  0  0  0  0  0  0  0  0  0  0  0
   46.5910   31.4570   46.6230 C   0  0  0  0  0  0  0  0  0  0  0  0
   45.5520   30.6020   46.8200 C   0  0  0  0  0  0  0  0  0  0  0  0
   45.1350   30.8440   48.5850 S   0  0  0  0  0  0  0  0  0  0  0  0
   46.5280   32.1380   48.7490 C   0  0  0  0  0  0  0  0  0  0  0  0
   46.9250   32.1260   47.6960 N   0  0  0  0  0  0  0  0  0  0  0  0
   47.8286   32.5920   42.3360 H   0  0  0  0  0  0  0  0  0  0  0  0
   48.3452   29.6735   45.3627 H   0  0  0  0  0  0  0  0  0  0  0  0
   44.1839   35.1801   46.6458 H   0  0  0  0  0  0  0  0  0  0  0  0
   43.9662   36.7996   44.7181 H   0  0  0  0  0  0  0  0  0  0  0  0
   45.2249   36.3045   42.5982 H   0  0  0  0  0  0  0  0  0  0  0  0
   45.0766   29.9271   46.0930 H   0  0  0  0  0  0  0  0  0  0  0  0
   46.8500   32.7260   49.6211 H   0  0  0  0  0  0  0  0  0  0  0  0
  1 10  1  0
  1  5  1  0
  2  3  1  0
  2  1  2  0
  3  4  2  0
  4  5  1  0
  5 12  1  0
  7  6  2  0
  8  7  1  0
  9  8  2  0
  9 10  1  0
 10 11  2  0
 11  6  1  0
 12 13  2  0
 12 16  1  0
 13 14  1  0
 14 15  1  0
 16 15  2  0
  2 17  1  0
  4 18  1  0
  6 19  1  0
  7 20  1  0
  8 21  1  0
 13 22  1  0
 15 23  1  0
M  ISO  7  17  14  18  14  19  14  20  14  21  14  22  14  23  14
M  END
>  <minimizedAffinity>  (1) 
-4.30257988

>  <minimizedRMSD>  (1) 
3.59273601

$$$$
