
     RDKit          3D

 33 35  0  0  0  0  0  0  0  0999 V2000
   44.5370   36.1120   44.5300 C   0  0  0  0  0  0  0  0  0  0  0  0
   45.1690   36.0350   43.2890 C   0  0  0  0  0  0  0  0  0  0  0  0
   46.0120   34.9570   43.0480 C   0  0  0  0  0  0  0  0  0  0  0  0
   46.1950   34.0010   44.0390 N   0  0  0  0  0  0  0  0  0  0  0  0
   45.5480   34.1420   45.2170 C   0  0  0  0  0  0  0  0  0  0  0  0
   44.7420   35.1640   45.4620 N   0  0  0  0  0  0  0  0  0  0  0  0
   46.7580   34.7600   41.7390 C   0  0  0  0  0  0  0  0  0  0  0  0
   48.1820   35.3290   41.9100 C   0  0  0  0  0  0  0  0  0  0  0  0
   45.8130   33.0810   46.1830 C   0  0  0  0  0  0  0  0  0  0  0  0
   45.2080   33.0590   47.2800 O   0  0  0  0  0  0  0  0  0  0  0  0
   46.7520   32.0990   45.8610 O   0  0  0  0  0  0  0  0  0  0  0  0
   47.4300   31.5140   46.9410 C   0  0  0  0  0  0  0  0  0  0  0  0
   47.8340   32.2330   48.0260 N   0  0  0  0  0  0  0  0  0  0  0  0
   48.4870   31.6250   49.0470 C   0  0  0  0  0  0  0  0  0  0  0  0
   48.7590   30.3050   49.0380 N   0  0  0  0  0  0  0  0  0  0  0  0
   48.3620   29.5870   47.9710 C   0  0  0  0  0  0  0  0  0  0  0  0
   48.5950   28.2230   47.8640 C   0  0  0  0  0  0  0  0  0  0  0  0
   48.1860   27.4910   46.7680 C   0  0  0  0  0  0  0  0  0  0  0  0
   47.5250   28.0910   45.7230 C   0  0  0  0  0  0  0  0  0  0  0  0
   47.2800   29.4470   45.8020 C   0  0  0  0  0  0  0  0  0  0  0  0
   47.6980   30.1740   46.9160 C   0  0  0  0  0  0  0  0  0  0  0  0
   43.8652   36.9552   44.7484 H   0  0  0  0  0  0  0  0  0  0  0  0
   45.0046   36.8064   42.5222 H   0  0  0  0  0  0  0  0  0  0  0  0
   46.2380   35.2930   40.9294 H   0  0  0  0  0  0  0  0  0  0  0  0
   46.8024   33.6913   41.4821 H   0  0  0  0  0  0  0  0  0  0  0  0
   48.4137   35.4216   42.9813 H   0  0  0  0  0  0  0  0  0  0  0  0
   48.9070   34.6515   41.4353 H   0  0  0  0  0  0  0  0  0  0  0  0
   48.2405   36.3196   41.4353 H   0  0  0  0  0  0  0  0  0  0  0  0
   48.8049   32.2283   49.9101 H   0  0  0  0  0  0  0  0  0  0  0  0
   49.1233   27.7083   48.6800 H   0  0  0  0  0  0  0  0  0  0  0  0
   48.3921   26.4111   46.7302 H   0  0  0  0  0  0  0  0  0  0  0  0
   47.2006   27.5073   44.8489 H   0  0  0  0  0  0  0  0  0  0  0  0
   46.7525   29.9566   44.9822 H   0  0  0  0  0  0  0  0  0  0  0  0
  1  6  2  0
  2  1  1  0
  3  2  2  0
  3  4  1  0
  4  5  2  0
  5  6  1  0
  5  9  1  0
  7  8  1  0
  7  3  1  0
  9 10  2  0
 11  9  1  0
 11 12  1  0
 12 13  2  0
 13 14  1  0
 15 14  2  0
 16 15  1  0
 17 16  2  0
 18 17  1  0
 19 20  1  0
 19 18  2  0
 20 21  2  0
 21 12  1  0
 21 16  1  0
  1 22  1  0
  2 23  1  0
  7 24  1  0
  7 25  1  0
  8 26  1  0
  8 27  1  0
  8 28  1  0
 14 29  1  0
 17 30  1  0
 18 31  1  0
 19 32  1  0
 20 33  1  0
M  ISO  8  22  14  23  14  24   8  25   8  26   8  27   8  28   8  29  14
M  ISO  4  30  14  31  14  32  14  33  14
M  END
>  <minimizedAffinity>  (1) 
-5.26653147

>  <minimizedRMSD>  (1) 
1.27940476

$$$$
