
     RDKit          3D

 32 33  0  0  0  0  0  0  0  0999 V2000
   45.1020   35.4930   43.9760 C   0  0  0  0  0  0  0  0  0  0  0  0
   46.1410   35.2280   43.0860 C   0  0  0  0  0  0  0  0  0  0  0  0
   46.9850   34.1610   43.3740 C   0  0  0  0  0  0  0  0  0  0  0  0
   46.7620   33.4220   44.5060 N   0  0  0  0  0  0  0  0  0  0  0  0
   45.7430   33.7150   45.3400 C   0  0  0  0  0  0  0  0  0  0  0  0
   44.9310   34.7360   45.0720 N   0  0  0  0  0  0  0  0  0  0  0  0
   48.1490   33.7800   42.4750 C   0  0  0  0  0  0  0  0  0  0  0  0
   49.2280   34.8880   42.5890 C   0  0  0  0  0  0  0  0  0  0  0  0
   45.6140   32.8610   46.5010 C   0  0  0  0  0  0  0  0  0  0  0  0
   45.0690   33.2780   47.5380 O   0  0  0  0  0  0  0  0  0  0  0  0
   46.1200   31.5590   46.4200 O   0  0  0  0  0  0  0  0  0  0  0  0
   49.1700   30.3180   48.9840 C   0  0  0  0  0  0  0  0  0  0  0  0
   48.7630   31.6210   49.0260 C   0  0  0  0  0  0  0  0  0  0  0  0
   47.7590   32.1150   48.2110 C   0  0  0  0  0  0  0  0  0  0  0  0
   47.1380   31.2660   47.3170 C   0  0  0  0  0  0  0  0  0  0  0  0
   47.5340   29.9290   47.2520 C   0  0  0  0  0  0  0  0  0  0  0  0
   48.5500   29.4630   48.0870 C   0  0  0  0  0  0  0  0  0  0  0  0
   50.4400   29.7310   50.0270 S   0  0  0  0  0  0  0  0  0  0  0  0
   50.2840   28.2590   50.2860 O   0  0  0  0  0  0  0  0  0  0  0  0
   50.4830   30.5140   51.2970 O   0  0  0  0  0  0  0  0  0  0  0  0
   44.4157   36.3298   43.7790 H   0  0  0  0  0  0  0  0  0  0  0  0
   46.2886   35.8424   42.1856 H   0  0  0  0  0  0  0  0  0  0  0  0
   47.8050   33.7002   41.4332 H   0  0  0  0  0  0  0  0  0  0  0  0
   48.5656   32.8092   42.7815 H   0  0  0  0  0  0  0  0  0  0  0  0
   49.4299   35.0954   43.6502 H   0  0  0  0  0  0  0  0  0  0  0  0
   50.1532   34.5507   42.0988 H   0  0  0  0  0  0  0  0  0  0  0  0
   48.8663   35.8039   42.0988 H   0  0  0  0  0  0  0  0  0  0  0  0
   49.2522   32.3048   49.7353 H   0  0  0  0  0  0  0  0  0  0  0  0
   47.4596   33.1715   48.2750 H   0  0  0  0  0  0  0  0  0  0  0  0
   47.0457   29.2438   46.5434 H   0  0  0  0  0  0  0  0  0  0  0  0
   48.8611   28.4093   48.0328 H   0  0  0  0  0  0  0  0  0  0  0  0
   51.6403   29.9083   49.3907 H   0  0  0  0  0  0  0  0  0  0  0  0
  1  6  2  0
  2  3  2  0
  2  1  1  0
  3  4  1  0
  4  5  2  0
  5  9  1  0
  6  5  1  0
  7  8  1  0
  7  3  1  0
  9 10  2  0
 11  9  1  0
 11 15  1  0
 12 13  2  0
 12 18  1  0
 14 13  1  0
 15 14  2  0
 16 15  1  0
 16 17  2  0
 17 12  1  0
 18 19  2  0
 18 20  2  0
  1 21  1  0
  2 22  1  0
  7 23  1  0
  7 24  1  0
  8 25  1  0
  8 26  1  0
  8 27  1  0
 13 28  1  0
 14 29  1  0
 16 30  1  0
 17 31  1  0
 18 32  1  0
M  ISO  8  21  14  22  14  23   8  24   8  25   8  26   8  27   8  28  14
M  ISO  4  29  14  30  14  31  14  32  11
M  END
>  <minimizedAffinity>  (1) 
-5.0250597

>  <minimizedRMSD>  (1) 
1.88425112

$$$$
