
     RDKit          3D

 30 32  0  0  0  0  0  0  0  0999 V2000
   44.8420   35.1710   43.0320 C   0  0  0  0  0  0  0  0  0  0  0  0
   45.7440   35.4080   41.9960 C   0  0  0  0  0  0  0  0  0  0  0  0
   46.9920   34.8040   42.0490 C   0  0  0  0  0  0  0  0  0  0  0  0
   47.2810   33.9960   43.1280 N   0  0  0  0  0  0  0  0  0  0  0  0
   46.3770   33.7950   44.1100 C   0  0  0  0  0  0  0  0  0  0  0  0
   45.1850   34.3660   44.0680 N   0  0  0  0  0  0  0  0  0  0  0  0
   48.0520   34.9830   40.9890 C   0  0  0  0  0  0  0  0  0  0  0  0
   49.1190   35.9580   41.5530 C   0  0  0  0  0  0  0  0  0  0  0  0
   46.8190   32.9190   45.1840 C   0  0  0  0  0  0  0  0  0  0  0  0
   47.2850   31.7850   44.9290 O   0  0  0  0  0  0  0  0  0  0  0  0
   46.7090   33.3750   46.4990 O   0  0  0  0  0  0  0  0  0  0  0  0
   48.1140   30.5860   49.8800 N   0  0  0  0  0  0  0  0  0  0  0  0
   49.1670   31.2370   49.3160 C   0  0  0  0  0  0  0  0  0  0  0  0
   48.6410   32.0090   48.3580 N   0  0  0  0  0  0  0  0  0  0  0  0
   47.3090   31.8660   48.3020 C   0  0  0  0  0  0  0  0  0  0  0  0
   46.3440   32.4520   47.4830 C   0  0  0  0  0  0  0  0  0  0  0  0
   45.0650   32.0800   47.6960 N   0  0  0  0  0  0  0  0  0  0  0  0
   44.7210   31.1910   48.6430 C   0  0  0  0  0  0  0  0  0  0  0  0
   45.6760   30.6320   49.4310 N   0  0  0  0  0  0  0  0  0  0  0  0
   46.9680   30.9510   49.2810 C   0  0  0  0  0  0  0  0  0  0  0  0
   43.8469   35.6393   43.0091 H   0  0  0  0  0  0  0  0  0  0  0  0
   45.4719   36.0607   41.1534 H   0  0  0  0  0  0  0  0  0  0  0  0
   47.6034   35.4043   40.0773 H   0  0  0  0  0  0  0  0  0  0  0  0
   48.5093   34.0160   40.7326 H   0  0  0  0  0  0  0  0  0  0  0  0
   49.0929   35.9341   42.6524 H   0  0  0  0  0  0  0  0  0  0  0  0
   50.1162   35.6526   41.2032 H   0  0  0  0  0  0  0  0  0  0  0  0
   48.9045   36.9786   41.2032 H   0  0  0  0  0  0  0  0  0  0  0  0
   48.1850   29.9107   50.6545 H   0  0  0  0  0  0  0  0  0  0  0  0
   50.2285   31.1475   49.5901 H   0  0  0  0  0  0  0  0  0  0  0  0
   43.6649   30.9156   48.7803 H   0  0  0  0  0  0  0  0  0  0  0  0
  1  6  2  0
  2  3  2  0
  2  1  1  0
  3  4  1  0
  4  5  2  0
  5  9  1  0
  6  5  1  0
  7  8  1  0
  7  3  1  0
  9 11  1  0
 10  9  2  0
 11 16  1  0
 13 12  1  0
 14 13  2  0
 15 14  1  0
 15 20  2  0
 16 17  2  0
 16 15  1  0
 17 18  1  0
 18 19  2  0
 20 19  1  0
 20 12  1  0
  1 21  1  0
  2 22  1  0
  7 23  1  0
  7 24  1  0
  8 25  1  0
  8 26  1  0
  8 27  1  0
 12 28  1  0
 13 29  1  0
 18 30  1  0
M  ISO  8  21  14  22  14  23   8  24   8  25   8  26   8  27   8  28   9
M  ISO  2  29  14  30  14
M  END
>  <minimizedAffinity>  (1) 
-5.44564104

>  <minimizedRMSD>  (1) 
1.75659168

$$$$
