
     RDKit          3D

 26 27  0  0  0  0  0  0  0  0999 V2000
   45.0190   35.4100   43.9060 C   0  0  0  0  0  0  0  0  0  0  0  0
   45.7750   35.5970   42.7320 C   0  0  0  0  0  0  0  0  0  0  0  0
   46.8770   34.7940   42.5140 C   0  0  0  0  0  0  0  0  0  0  0  0
   47.2070   33.8300   43.4540 N   0  0  0  0  0  0  0  0  0  0  0  0
   46.4440   33.6930   44.5660 C   0  0  0  0  0  0  0  0  0  0  0  0
   45.3720   34.4620   44.7940 N   0  0  0  0  0  0  0  0  0  0  0  0
   47.7480   34.9170   41.2910 C   0  0  0  0  0  0  0  0  0  0  0  0
   48.9600   35.7960   41.6360 C   0  0  0  0  0  0  0  0  0  0  0  0
   46.8800   32.6470   45.4920 C   0  0  0  0  0  0  0  0  0  0  0  0
   47.0400   31.4920   45.0740 O   0  0  0  0  0  0  0  0  0  0  0  0
   47.1060   32.9700   46.8150 O   0  0  0  0  0  0  0  0  0  0  0  0
   46.5310   32.1450   47.7860 C   0  0  0  0  0  0  0  0  0  0  0  0
   45.1710   32.2570   48.0920 C   0  0  0  0  0  0  0  0  0  0  0  0
   44.8670   31.3390   49.0700 C   0  0  0  0  0  0  0  0  0  0  0  0
   46.0810   30.7010   49.3150 C   0  0  0  0  0  0  0  0  0  0  0  0
   47.0400   31.1850   48.5550 O   0  0  0  0  0  0  0  0  0  0  0  0
   44.1380   36.0403   44.0975 H   0  0  0  0  0  0  0  0  0  0  0  0
   45.4923   36.3694   42.0016 H   0  0  0  0  0  0  0  0  0  0  0  0
   47.1755   35.3801   40.4738 H   0  0  0  0  0  0  0  0  0  0  0  0
   48.0866   33.9208   40.9702 H   0  0  0  0  0  0  0  0  0  0  0  0
   49.0607   35.8690   42.7289 H   0  0  0  0  0  0  0  0  0  0  0  0
   49.8708   35.3471   41.2130 H   0  0  0  0  0  0  0  0  0  0  0  0
   48.8162   36.8012   41.2130 H   0  0  0  0  0  0  0  0  0  0  0  0
   44.4637   32.9606   47.6287 H   0  0  0  0  0  0  0  0  0  0  0  0
   43.8935   31.1523   49.5469 H   0  0  0  0  0  0  0  0  0  0  0  0
   46.2202   29.8949   50.0504 H   0  0  0  0  0  0  0  0  0  0  0  0
  1  6  2  0
  2  1  1  0
  3  2  2  0
  3  4  1  0
  4  5  2  0
  5  6  1  0
  5  9  1  0
  7  8  1  0
  7  3  1  0
  9 11  1  0
 10  9  2  0
 11 12  1  0
 12 13  2  0
 12 16  1  0
 13 14  1  0
 14 15  2  0
 16 15  1  0
  1 17  1  0
  2 18  1  0
  7 19  1  0
  7 20  1  0
  8 21  1  0
  8 22  1  0
  8 23  1  0
 13 24  1  0
 14 25  1  0
 15 26  1  0
M  ISO  8  17  14  18  14  19   8  20   8  21   8  22   8  23   8  24  14
M  ISO  2  25  14  26  14
M  END
>  <minimizedAffinity>  (1) 
-4.91053295

>  <minimizedRMSD>  (1) 
1.37729943

$$$$
