
     RDKit          3D

 28 29  0  0  0  0  0  0  0  0999 V2000
   45.0320   35.4350   43.4190 C   0  0  0  0  0  0  0  0  0  0  0  0
   45.8690   35.6600   42.3290 C   0  0  0  0  0  0  0  0  0  0  0  0
   47.0400   34.9150   42.2260 C   0  0  0  0  0  0  0  0  0  0  0  0
   47.3410   33.9730   43.2040 N   0  0  0  0  0  0  0  0  0  0  0  0
   46.4830   33.8050   44.2360 C   0  0  0  0  0  0  0  0  0  0  0  0
   45.3610   34.5140   44.3440 N   0  0  0  0  0  0  0  0  0  0  0  0
   48.0140   35.0880   41.0810 C   0  0  0  0  0  0  0  0  0  0  0  0
   49.1580   36.0150   41.5410 C   0  0  0  0  0  0  0  0  0  0  0  0
   46.8870   32.7960   45.2060 C   0  0  0  0  0  0  0  0  0  0  0  0
   47.0550   31.6060   44.8410 O   0  0  0  0  0  0  0  0  0  0  0  0
   47.0820   33.1710   46.5200 O   0  0  0  0  0  0  0  0  0  0  0  0
   46.5580   32.3610   47.5220 C   0  0  0  0  0  0  0  0  0  0  0  0
   45.1900   32.3070   47.8030 C   0  0  0  0  0  0  0  0  0  0  0  0
   44.7550   31.4710   48.8210 C   0  0  0  0  0  0  0  0  0  0  0  0
   45.6830   30.7190   49.5250 C   0  0  0  0  0  0  0  0  0  0  0  0
   47.0480   30.7920   49.2220 C   0  0  0  0  0  0  0  0  0  0  0  0
   47.4380   31.6240   48.2170 N   0  0  0  0  0  0  0  0  0  0  0  0
   44.1006   36.0107   43.5243 H   0  0  0  0  0  0  0  0  0  0  0  0
   45.6104   36.4096   41.5666 H   0  0  0  0  0  0  0  0  0  0  0  0
   47.4972   35.5370   40.2200 H   0  0  0  0  0  0  0  0  0  0  0  0
   48.4205   34.1101   40.7836 H   0  0  0  0  0  0  0  0  0  0  0  0
   49.1896   36.0406   42.6402 H   0  0  0  0  0  0  0  0  0  0  0  0
   50.1155   35.6349   41.1554 H   0  0  0  0  0  0  0  0  0  0  0  0
   48.9846   37.0305   41.1554 H   0  0  0  0  0  0  0  0  0  0  0  0
   44.4740   32.9140   47.2296 H   0  0  0  0  0  0  0  0  0  0  0  0
   43.6849   31.4054   49.0671 H   0  0  0  0  0  0  0  0  0  0  0  0
   45.3419   30.0554   50.3333 H   0  0  0  0  0  0  0  0  0  0  0  0
   47.7842   30.1945   49.7797 H   0  0  0  0  0  0  0  0  0  0  0  0
  1  6  2  0
  2  1  1  0
  3  2  2  0
  3  4  1  0
  4  5  2  0
  5  6  1  0
  5  9  1  0
  7  8  1  0
  7  3  1  0
  9 11  1  0
 10  9  2  0
 11 12  1  0
 12 13  2  0
 12 17  1  0
 13 14  1  0
 14 15  2  0
 16 15  1  0
 17 16  2  0
  1 18  1  0
  2 19  1  0
  7 20  1  0
  7 21  1  0
  8 22  1  0
  8 23  1  0
  8 24  1  0
 13 25  1  0
 14 26  1  0
 15 27  1  0
 16 28  1  0
M  ISO  8  18  14  19  14  20   8  21   8  22   8  23   8  24   8  25  14
M  ISO  3  26  14  27  14  28  14
M  END
>  <minimizedAffinity>  (1) 
-4.86953211

>  <minimizedRMSD>  (1) 
1.58283162

$$$$
