
     RDKit          3D

 29 30  0  0  0  0  0  0  0  0999 V2000
   44.9830   35.2550   43.1140 C   0  0  0  0  0  0  0  0  0  0  0  0
   45.8850   35.5100   42.0570 C   0  0  0  0  0  0  0  0  0  0  0  0
   47.1050   34.8670   42.0360 C   0  0  0  0  0  0  0  0  0  0  0  0
   47.4030   33.9840   43.0660 N   0  0  0  0  0  0  0  0  0  0  0  0
   46.5170   33.7710   44.0500 C   0  0  0  0  0  0  0  0  0  0  0  0
   45.3360   34.3820   44.0890 N   0  0  0  0  0  0  0  0  0  0  0  0
   48.1320   35.0700   40.9550 C   0  0  0  0  0  0  0  0  0  0  0  0
   49.1920   36.0700   41.4780 C   0  0  0  0  0  0  0  0  0  0  0  0
   46.9430   32.8220   45.0740 C   0  0  0  0  0  0  0  0  0  0  0  0
   47.2480   31.6610   44.7710 O   0  0  0  0  0  0  0  0  0  0  0  0
   47.0040   33.2420   46.4010 O   0  0  0  0  0  0  0  0  0  0  0  0
   46.6720   32.4050   47.4480 C   0  0  0  0  0  0  0  0  0  0  0  0
   45.2890   32.3530   47.6470 C   0  0  0  0  0  0  0  0  0  0  0  0
   44.7810   31.5480   48.6730 C   0  0  0  0  0  0  0  0  0  0  0  0
   45.6410   30.8070   49.4860 C   0  0  0  0  0  0  0  0  0  0  0  0
   47.0160   30.8750   49.2680 C   0  0  0  0  0  0  0  0  0  0  0  0
   47.5200   31.6710   48.2540 C   0  0  0  0  0  0  0  0  0  0  0  0
   44.0057   35.7590   43.1454 H   0  0  0  0  0  0  0  0  0  0  0  0
   45.6165   36.2157   41.2571 H   0  0  0  0  0  0  0  0  0  0  0  0
   47.6492   35.4762   40.0539 H   0  0  0  0  0  0  0  0  0  0  0  0
   48.6073   34.1121   40.6971 H   0  0  0  0  0  0  0  0  0  0  0  0
   49.1882   36.0664   42.5780 H   0  0  0  0  0  0  0  0  0  0  0  0
   50.1868   35.7737   41.1138 H   0  0  0  0  0  0  0  0  0  0  0  0
   48.9541   37.0803   41.1138 H   0  0  0  0  0  0  0  0  0  0  0  0
   44.6105   32.9360   47.0068 H   0  0  0  0  0  0  0  0  0  0  0  0
   43.6949   31.4986   48.8404 H   0  0  0  0  0  0  0  0  0  0  0  0
   45.2371   30.1755   50.2910 H   0  0  0  0  0  0  0  0  0  0  0  0
   47.7019   30.2950   49.9030 H   0  0  0  0  0  0  0  0  0  0  0  0
   48.6064   31.7195   48.0885 H   0  0  0  0  0  0  0  0  0  0  0  0
  1  6  2  0
  2  1  1  0
  3  2  2  0
  3  4  1  0
  4  5  2  0
  5  6  1  0
  5  9  1  0
  7  8  1  0
  7  3  1  0
  9 11  1  0
 10  9  2  0
 11 12  1  0
 12 13  2  0
 12 17  1  0
 13 14  1  0
 14 15  2  0
 16 15  1  0
 17 16  2  0
  1 18  1  0
  2 19  1  0
  7 20  1  0
  7 21  1  0
  8 22  1  0
  8 23  1  0
  8 24  1  0
 13 25  1  0
 14 26  1  0
 15 27  1  0
 16 28  1  0
 17 29  1  0
M  ISO  8  18  14  19  14  20   8  21   8  22   8  23   8  24   8  25  14
M  ISO  4  26  14  27  14  28  14  29  14
M  END
>  <minimizedAffinity>  (1) 
-4.98775625

>  <minimizedRMSD>  (1) 
1.60877359

$$$$
