
     RDKit          3D

 27 28  0  0  0  0  0  0  0  0999 V2000
   44.7910   34.4290   41.7090 C   0  0  0  0  0  0  0  0  0  0  0  0
   46.0980   34.4390   41.1950 C   0  0  0  0  0  0  0  0  0  0  0  0
   47.1530   34.4310   42.0870 C   0  0  0  0  0  0  0  0  0  0  0  0
   46.8860   34.4120   43.4440 N   0  0  0  0  0  0  0  0  0  0  0  0
   45.6070   34.4030   43.8900 C   0  0  0  0  0  0  0  0  0  0  0  0
   44.5780   34.4100   43.0510 N   0  0  0  0  0  0  0  0  0  0  0  0
   48.6020   34.4400   41.6530 C   0  0  0  0  0  0  0  0  0  0  0  0
   49.0520   35.9170   41.5060 C   0  0  0  0  0  0  0  0  0  0  0  0
   45.4550   34.3830   45.3360 C   0  0  0  0  0  0  0  0  0  0  0  0
   44.5730   35.0610   45.8840 O   0  0  0  0  0  0  0  0  0  0  0  0
   46.3310   33.5830   46.0790 O   0  0  0  0  0  0  0  0  0  0  0  0
   45.9170   32.3700   46.6160 C   0  0  0  0  0  0  0  0  0  0  0  0
   45.9700   31.1130   46.0540 C   0  0  0  0  0  0  0  0  0  0  0  0
   45.4900   30.0650   46.8030 C   0  0  0  0  0  0  0  0  0  0  0  0
   44.9800   30.2150   48.0400 N   0  0  0  0  0  0  0  0  0  0  0  0
   44.9440   31.4620   48.5640 C   0  0  0  0  0  0  0  0  0  0  0  0
   45.4020   32.5160   47.8670 N   0  0  0  0  0  0  0  0  0  0  0  0
   43.9334   34.4366   41.0202 H   0  0  0  0  0  0  0  0  0  0  0  0
   46.2771   34.4529   40.1098 H   0  0  0  0  0  0  0  0  0  0  0  0
   49.2209   33.9352   42.4094 H   0  0  0  0  0  0  0  0  0  0  0  0
   48.7164   33.9098   40.6960 H   0  0  0  0  0  0  0  0  0  0  0  0
   49.1870   36.3602   42.5037 H   0  0  0  0  0  0  0  0  0  0  0  0
   50.0032   35.9574   40.9550 H   0  0  0  0  0  0  0  0  0  0  0  0
   48.2849   36.4809   40.9550 H   0  0  0  0  0  0  0  0  0  0  0  0
   46.3802   30.9544   45.0458 H   0  0  0  0  0  0  0  0  0  0  0  0
   45.5243   29.0542   46.3705 H   0  0  0  0  0  0  0  0  0  0  0  0
   44.5346   31.6151   49.5734 H   0  0  0  0  0  0  0  0  0  0  0  0
  1  6  2  0
  2  1  1  0
  2  3  2  0
  3  4  1  0
  4  5  2  0
  5  9  1  0
  6  5  1  0
  7  3  1  0
  8  7  1  0
  9 10  2  0
  9 11  1  0
 11 12  1  0
 12 17  1  0
 13 12  2  0
 13 14  1  0
 14 15  2  0
 15 16  1  0
 17 16  2  0
  1 18  1  0
  2 19  1  0
  7 20  1  0
  7 21  1  0
  8 22  1  0
  8 23  1  0
  8 24  1  0
 13 25  1  0
 14 26  1  0
 16 27  1  0
M  ISO  8  18  14  19  14  20   8  21   8  22   8  23   8  24   8  25  14
M  ISO  2  26  14  27  14
M  END
>  <minimizedAffinity>  (1) 
-4.98384047

>  <minimizedRMSD>  (1) 
2.65017986

$$$$
