
     RDKit          3D

 31 31  0  0  0  0  0  0  0  0999 V2000
   44.5400   35.5970   44.9810 C   0  0  0  0  0  0  0  0  0  0  0  0
   45.0060   35.7240   43.6740 C   0  0  0  0  0  0  0  0  0  0  0  0
   45.9660   34.8320   43.2300 C   0  0  0  0  0  0  0  0  0  0  0  0
   46.4190   33.8550   44.1000 N   0  0  0  0  0  0  0  0  0  0  0  0
   45.9310   33.7790   45.3550 C   0  0  0  0  0  0  0  0  0  0  0  0
   45.0140   34.6300   45.7870 N   0  0  0  0  0  0  0  0  0  0  0  0
   46.5490   34.8690   41.8310 C   0  0  0  0  0  0  0  0  0  0  0  0
   48.0370   35.2780   41.9540 C   0  0  0  0  0  0  0  0  0  0  0  0
   46.4880   32.7070   46.1730 C   0  0  0  0  0  0  0  0  0  0  0  0
   47.3030   31.9020   45.6740 O   0  0  0  0  0  0  0  0  0  0  0  0
   46.1010   32.6010   47.4950 O   0  0  0  0  0  0  0  0  0  0  0  0
   45.9860   31.3420   48.1220 C   0  0  0  0  0  0  0  0  0  0  0  0
   45.2160   31.5720   49.4050 C   0  0  0  0  0  0  0  0  0  0  0  0
   45.2800   30.3050   47.3170 C   0  0  0  0  0  0  0  0  0  0  0  0
   47.3530   30.7790   48.4870 C   0  0  0  0  0  0  0  0  0  0  0  0
   43.7771   36.2943   45.3574 H   0  0  0  0  0  0  0  0  0  0  0  0
   44.6205   36.5134   43.0120 H   0  0  0  0  0  0  0  0  0  0  0  0
   46.0073   35.6047   41.2184 H   0  0  0  0  0  0  0  0  0  0  0  0
   46.4578   33.8846   41.3486 H   0  0  0  0  0  0  0  0  0  0  0  0
   48.3100   35.3530   43.0169 H   0  0  0  0  0  0  0  0  0  0  0  0
   48.6672   34.5198   41.4662 H   0  0  0  0  0  0  0  0  0  0  0  0
   48.1911   36.2518   41.4662 H   0  0  0  0  0  0  0  0  0  0  0  0
   45.8717   31.3762   50.2663 H   0  0  0  0  0  0  0  0  0  0  0  0
   44.8655   32.6141   49.4405 H   0  0  0  0  0  0  0  0  0  0  0  0
   44.3514   30.8929   49.4405 H   0  0  0  0  0  0  0  0  0  0  0  0
   44.7911   29.5869   47.9918 H   0  0  0  0  0  0  0  0  0  0  0  0
   44.5215   30.7868   46.6826 H   0  0  0  0  0  0  0  0  0  0  0  0
   46.0064   29.7759   46.6826 H   0  0  0  0  0  0  0  0  0  0  0  0
   47.4523   30.7381   49.5817 H   0  0  0  0  0  0  0  0  0  0  0  0
   47.4551   29.7656   48.0715 H   0  0  0  0  0  0  0  0  0  0  0  0
   48.1391   31.4266   48.0715 H   0  0  0  0  0  0  0  0  0  0  0  0
  1  6  2  0
  2  1  1  0
  3  2  2  0
  3  4  1  0
  4  5  2  0
  5  6  1  0
  5  9  1  0
  7  8  1  0
  7  3  1  0
  9 11  1  0
 10  9  2  0
 11 12  1  0
 12 15  1  0
 12 13  1  0
 14 12  1  0
  1 16  1  0
  2 17  1  0
  7 18  1  0
  7 19  1  0
  8 20  1  0
  8 21  1  0
  8 22  1  0
 13 23  1  0
 13 24  1  0
 13 25  1  0
 14 26  1  0
 14 27  1  0
 14 28  1  0
 15 29  1  0
 15 30  1  0
 15 31  1  0
M  ISO  8  16  14  17  14  18   8  19   8  20   8  21   8  22   8  23   8
M  ISO  8  24   8  25   8  26   8  27   8  28   8  29   8  30   8  31   8
M  END
>  <minimizedAffinity>  (1) 
-4.72185946

>  <minimizedRMSD>  (1) 
1.25396419

$$$$
