
     RDKit          3D

 26 27  0  0  0  0  0  0  0  0999 V2000
   45.0490   35.3860   43.7360 C   0  0  0  0  0  0  0  0  0  0  0  0
   45.8160   35.6160   42.5900 C   0  0  0  0  0  0  0  0  0  0  0  0
   46.9480   34.8500   42.3880 C   0  0  0  0  0  0  0  0  0  0  0  0
   47.2640   33.8990   43.3280 N   0  0  0  0  0  0  0  0  0  0  0  0
   46.5040   33.7080   44.4150 C   0  0  0  0  0  0  0  0  0  0  0  0
   45.4170   34.4370   44.6150 N   0  0  0  0  0  0  0  0  0  0  0  0
   47.8480   35.0120   41.1880 C   0  0  0  0  0  0  0  0  0  0  0  0
   49.0600   35.8800   41.5880 C   0  0  0  0  0  0  0  0  0  0  0  0
   46.9510   32.6710   45.3260 C   0  0  0  0  0  0  0  0  0  0  0  0
   47.1510   31.5100   44.9280 O   0  0  0  0  0  0  0  0  0  0  0  0
   47.1550   33.0020   46.6690 O   0  0  0  0  0  0  0  0  0  0  0  0
   46.5110   32.2270   47.6510 C   0  0  0  0  0  0  0  0  0  0  0  0
   45.1130   32.2860   47.9200 C   0  0  0  0  0  0  0  0  0  0  0  0
   44.6750   31.4500   48.9180 C   0  0  0  0  0  0  0  0  0  0  0  0
   45.5480   30.6410   49.5730 C   0  0  0  0  0  0  0  0  0  0  0  0
   47.1550   31.0300   48.7730 S   0  0  0  0  0  0  0  0  0  0  0  0
   44.1429   35.9823   43.9191 H   0  0  0  0  0  0  0  0  0  0  0  0
   45.5246   36.3901   41.8648 H   0  0  0  0  0  0  0  0  0  0  0  0
   47.2942   35.5031   40.3743 H   0  0  0  0  0  0  0  0  0  0  0  0
   48.1924   34.0257   40.8436 H   0  0  0  0  0  0  0  0  0  0  0  0
   49.1294   35.9297   42.6847 H   0  0  0  0  0  0  0  0  0  0  0  0
   49.9801   35.4342   41.1822 H   0  0  0  0  0  0  0  0  0  0  0  0
   48.9342   36.8946   41.1822 H   0  0  0  0  0  0  0  0  0  0  0  0
   44.4338   32.9527   47.3685 H   0  0  0  0  0  0  0  0  0  0  0  0
   43.6090   31.4354   49.1890 H   0  0  0  0  0  0  0  0  0  0  0  0
   45.3426   29.9272   50.3844 H   0  0  0  0  0  0  0  0  0  0  0  0
  1  6  2  0
  2  1  1  0
  3  2  2  0
  3  4  1  0
  4  5  2  0
  5  6  1  0
  5  9  1  0
  7  8  1  0
  7  3  1  0
  9 11  1  0
 10  9  2  0
 11 12  1  0
 12 13  2  0
 12 16  1  0
 13 14  1  0
 14 15  2  0
 16 15  1  0
  1 17  1  0
  2 18  1  0
  7 19  1  0
  7 20  1  0
  8 21  1  0
  8 22  1  0
  8 23  1  0
 13 24  1  0
 14 25  1  0
 15 26  1  0
M  ISO  8  17  14  18  14  19   8  20   8  21   8  22   8  23   8  24  14
M  ISO  2  25  14  26  14
M  END
>  <minimizedAffinity>  (1) 
-4.67866516

>  <minimizedRMSD>  (1) 
1.62734509

$$$$
