
     RDKit          3D

 22 22  0  0  0  0  0  0  0  0999 V2000
   44.6050   35.9360   44.7500 C   0  0  0  0  0  0  0  0  0  0  0  0
   45.2080   35.9340   43.4890 C   0  0  0  0  0  0  0  0  0  0  0  0
   46.0090   34.8660   43.1330 C   0  0  0  0  0  0  0  0  0  0  0  0
   46.1760   33.8390   44.0530 N   0  0  0  0  0  0  0  0  0  0  0  0
   45.5730   33.8900   45.2540 C   0  0  0  0  0  0  0  0  0  0  0  0
   44.8050   34.9040   45.6080 N   0  0  0  0  0  0  0  0  0  0  0  0
   46.7040   34.7620   41.8040 C   0  0  0  0  0  0  0  0  0  0  0  0
   48.1410   35.2980   41.9570 C   0  0  0  0  0  0  0  0  0  0  0  0
   45.8330   32.7460   46.1250 C   0  0  0  0  0  0  0  0  0  0  0  0
   46.2800   31.6840   45.6500 O   0  0  0  0  0  0  0  0  0  0  0  0
   45.5780   32.8640   47.4750 O   0  0  0  0  0  0  0  0  0  0  0  0
   46.4670   32.3670   48.4120 C   0  0  0  0  0  0  0  0  0  0  0  0
   47.6970   32.6080   48.1690 O   0  0  0  0  0  0  0  0  0  0  0  0
   46.0450   31.6580   49.5290 O   0  0  0  0  0  0  0  0  0  0  0  0
   43.9646   36.7791   45.0485 H   0  0  0  0  0  0  0  0  0  0  0  0
   45.0474   36.7692   42.7914 H   0  0  0  0  0  0  0  0  0  0  0  0
   46.1633   35.3597   41.0553 H   0  0  0  0  0  0  0  0  0  0  0  0
   46.7275   33.7131   41.4734 H   0  0  0  0  0  0  0  0  0  0  0  0
   48.3864   35.3895   43.0254 H   0  0  0  0  0  0  0  0  0  0  0  0
   48.8450   34.6020   41.4774 H   0  0  0  0  0  0  0  0  0  0  0  0
   48.2172   36.2850   41.4774 H   0  0  0  0  0  0  0  0  0  0  0  0
   46.7094   31.3170   50.1790 H   0  0  0  0  0  0  0  0  0  0  0  0
  1  6  2  0
  2  1  1  0
  3  2  2  0
  3  4  1  0
  4  5  2  0
  5  6  1  0
  5  9  1  0
  7  8  1  0
  7  3  1  0
  9 11  1  0
 10  9  2  0
 11 12  1  0
 12 14  1  0
 13 12  2  0
  1 15  1  0
  2 16  1  0
  7 17  1  0
  7 18  1  0
  8 19  1  0
  8 20  1  0
  8 21  1  0
 14 22  1  0
M  ISO  8  15  14  16  14  17   8  18   8  19   8  20   8  21   8  22   3
M  END
>  <minimizedAffinity>  (1) 
-4.60403299

>  <minimizedRMSD>  (1) 
0.938652933

$$$$
