
     RDKit          3D

 21 21  0  0  0  0  0  0  0  0999 V2000
   44.6390   35.6950   44.7810 C   0  0  0  0  0  0  0  0  0  0  0  0
   45.1820   35.7890   43.4990 C   0  0  0  0  0  0  0  0  0  0  0  0
   46.0770   34.8200   43.1000 C   0  0  0  0  0  0  0  0  0  0  0  0
   46.4080   33.7950   43.9740 N   0  0  0  0  0  0  0  0  0  0  0  0
   45.8540   33.7590   45.1930 C   0  0  0  0  0  0  0  0  0  0  0  0
   44.9850   34.6870   45.5960 N   0  0  0  0  0  0  0  0  0  0  0  0
   46.7380   34.8110   41.7310 C   0  0  0  0  0  0  0  0  0  0  0  0
   48.2010   35.2890   41.9000 C   0  0  0  0  0  0  0  0  0  0  0  0
   46.2670   32.6360   46.0390 C   0  0  0  0  0  0  0  0  0  0  0  0
   45.9040   31.4760   45.7350 O   0  0  0  0  0  0  0  0  0  0  0  0
   47.0540   32.8990   47.1580 O   0  0  0  0  0  0  0  0  0  0  0  0
   46.7850   32.1530   48.3160 C   0  0  0  0  0  0  0  0  0  0  0  0
   45.7890   32.4760   49.0100 O   0  0  0  0  0  0  0  0  0  0  0  0
   43.9213   36.4537   45.1263 H   0  0  0  0  0  0  0  0  0  0  0  0
   44.9035   36.6133   42.8259 H   0  0  0  0  0  0  0  0  0  0  0  0
   46.2000   35.4897   41.0528 H   0  0  0  0  0  0  0  0  0  0  0  0
   46.7152   33.7977   41.3035 H   0  0  0  0  0  0  0  0  0  0  0  0
   48.4399   35.3670   42.9709 H   0  0  0  0  0  0  0  0  0  0  0  0
   48.8802   34.5660   41.4246 H   0  0  0  0  0  0  0  0  0  0  0  0
   48.3223   36.2735   41.4246 H   0  0  0  0  0  0  0  0  0  0  0  0
   47.4280   31.3095   48.6076 H   0  0  0  0  0  0  0  0  0  0  0  0
  1  6  2  0
  2  1  1  0
  3  2  2  0
  3  4  1  0
  4  5  2  0
  5  6  1  0
  5  9  1  0
  7  8  1  0
  7  3  1  0
  9 11  1  0
 10  9  2  0
 11 12  1  0
 12 13  2  0
  1 14  1  0
  2 15  1  0
  7 16  1  0
  7 17  1  0
  8 18  1  0
  8 19  1  0
  8 20  1  0
 12 21  1  0
M  ISO  8  14  14  15  14  16   8  17   8  18   8  19   8  20   8  21   6
M  END
>  <minimizedAffinity>  (1) 
-4.16989136

>  <minimizedRMSD>  (1) 
0.543777466

$$$$
