
     RDKit          3D

 33 35  0  0  0  0  0  0  0  0999 V2000
   46.5670   34.1460   41.0280 C   0  0  0  0  0  0  0  0  0  0  0  0
   45.4330   34.0230   40.5430 O   0  0  0  0  0  0  0  0  0  0  0  0
   49.2490   31.6210   41.1040 C   0  0  0  0  0  0  0  0  0  0  0  0
   49.6600   31.6170   39.7800 C   0  0  0  0  0  0  0  0  0  0  0  0
   49.0260   32.4630   38.8880 C   0  0  0  0  0  0  0  0  0  0  0  0
   48.0150   33.2750   39.3530 N   0  0  0  0  0  0  0  0  0  0  0  0
   47.6420   33.2510   40.6520 C   0  0  0  0  0  0  0  0  0  0  0  0
   48.2500   32.4330   41.5220 N   0  0  0  0  0  0  0  0  0  0  0  0
   49.3930   32.5410   37.4220 C   0  0  0  0  0  0  0  0  0  0  0  0
   48.5670   33.6760   36.7800 C   0  0  0  0  0  0  0  0  0  0  0  0
   46.8210   35.1500   41.9430 O   0  0  0  0  0  0  0  0  0  0  0  0
   46.1050   35.1190   43.1390 C   0  0  0  0  0  0  0  0  0  0  0  0
   45.1720   36.1340   43.3240 C   0  0  0  0  0  0  0  0  0  0  0  0
   44.4650   36.0940   44.5200 C   0  0  0  0  0  0  0  0  0  0  0  0
   44.6280   35.1540   45.4820 N   0  0  0  0  0  0  0  0  0  0  0  0
   45.5550   34.1900   45.2430 C   0  0  0  0  0  0  0  0  0  0  0  0
   46.2740   34.1710   44.1030 N   0  0  0  0  0  0  0  0  0  0  0  0
   45.9130   33.0960   46.0880 N   0  0  0  0  0  0  0  0  0  0  0  0
   46.7350   32.1910   45.4860 C   0  0  0  0  0  0  0  0  0  0  0  0
   47.0240   31.1860   46.3630 N   0  0  0  0  0  0  0  0  0  0  0  0
   46.3500   31.5270   47.4970 C   0  0  0  0  0  0  0  0  0  0  0  0
   45.6780   32.6920   47.3150 N   0  0  0  0  0  0  0  0  0  0  0  0
   49.7425   30.9539   41.8261 H   0  0  0  0  0  0  0  0  0  0  0  0
   50.4728   30.9553   39.4460 H   0  0  0  0  0  0  0  0  0  0  0  0
   50.4666   32.7563   37.3175 H   0  0  0  0  0  0  0  0  0  0  0  0
   49.1772   31.5843   36.9239 H   0  0  0  0  0  0  0  0  0  0  0  0
   48.1170   34.2944   37.5706 H   0  0  0  0  0  0  0  0  0  0  0  0
   49.2239   34.2997   36.1559 H   0  0  0  0  0  0  0  0  0  0  0  0
   47.7715   33.2427   36.1559 H   0  0  0  0  0  0  0  0  0  0  0  0
   45.0044   36.9186   42.5715 H   0  0  0  0  0  0  0  0  0  0  0  0
   43.7192   36.8826   44.6984 H   0  0  0  0  0  0  0  0  0  0  0  0
   47.1078   32.2598   44.4534 H   0  0  0  0  0  0  0  0  0  0  0  0
   46.3505   30.9411   48.4280 H   0  0  0  0  0  0  0  0  0  0  0  0
  1 11  1  0
  2  1  2  0
  3  8  2  0
  4  3  1  0
  5  6  1  0
  5  4  2  0
  6  7  2  0
  7  1  1  0
  7  8  1  0
  9  5  1  0
 10  9  1  0
 11 12  1  0
 12 13  2  0
 12 17  1  0
 13 14  1  0
 14 15  2  0
 16 15  1  0
 16 18  1  0
 17 16  2  0
 18 22  1  0
 19 18  1  0
 19 20  2  0
 20 21  1  0
 22 21  2  0
  3 23  1  0
  4 24  1  0
  9 25  1  0
  9 26  1  0
 10 27  1  0
 10 28  1  0
 10 29  1  0
 13 30  1  0
 14 31  1  0
 19 32  1  0
 21 33  1  0
M  ISO  8  23  14  24  14  25   8  26   8  27   8  28   8  29   8  30  14
M  ISO  3  31  14  32  14  33  14
M  END
>  <minimizedAffinity>  (1) 
-5.28805256

>  <minimizedRMSD>  (1) 
5.09468985

$$$$
