
     RDKit          3D

 30 31  0  0  0  0  0  0  0  0999 V2000
   44.5020   33.9630   41.1750 C   0  0  0  0  0  0  0  0  0  0  0  0
   45.7060   34.1730   40.5170 C   0  0  0  0  0  0  0  0  0  0  0  0
   46.8240   34.5010   41.2720 C   0  0  0  0  0  0  0  0  0  0  0  0
   46.6870   34.6020   42.6430 N   0  0  0  0  0  0  0  0  0  0  0  0
   45.4900   34.3870   43.2320 C   0  0  0  0  0  0  0  0  0  0  0  0
   44.4080   34.0720   42.5170 N   0  0  0  0  0  0  0  0  0  0  0  0
   48.1830   34.7500   40.6720 C   0  0  0  0  0  0  0  0  0  0  0  0
   48.9250   35.7820   41.5480 C   0  0  0  0  0  0  0  0  0  0  0  0
   45.4710   34.5240   44.6860 C   0  0  0  0  0  0  0  0  0  0  0  0
   44.6140   35.2120   45.2410 O   0  0  0  0  0  0  0  0  0  0  0  0
   46.4480   33.8540   45.4320 O   0  0  0  0  0  0  0  0  0  0  0  0
   46.1160   32.5810   45.8860 C   0  0  0  0  0  0  0  0  0  0  0  0
   46.0350   31.5890   44.9150 C   0  0  0  0  0  0  0  0  0  0  0  0
   45.7050   30.3210   45.3730 C   0  0  0  0  0  0  0  0  0  0  0  0
   45.4620   30.0070   46.6860 N   0  0  0  0  0  0  0  0  0  0  0  0
   45.5620   31.0320   47.5690 C   0  0  0  0  0  0  0  0  0  0  0  0
   45.8770   32.2730   47.1860 N   0  0  0  0  0  0  0  0  0  0  0  0
   45.3000   30.7010   49.0020 C   0  0  0  0  0  0  0  0  0  0  0  0
   44.8080   29.3970   49.1470 F   0  0  0  0  0  0  0  0  0  0  0  0
   46.4500   30.7430   49.7460 F   0  0  0  0  0  0  0  0  0  0  0  0
   44.3530   31.5390   49.5580 F   0  0  0  0  0  0  0  0  0  0  0  0
   43.6068   33.7026   40.5912 H   0  0  0  0  0  0  0  0  0  0  0  0
   45.7728   34.0817   39.4228 H   0  0  0  0  0  0  0  0  0  0  0  0
   48.7534   33.8099   40.6429 H   0  0  0  0  0  0  0  0  0  0  0  0
   48.0771   35.1336   39.6465 H   0  0  0  0  0  0  0  0  0  0  0  0
   48.7577   35.5493   42.6100 H   0  0  0  0  0  0  0  0  0  0  0  0
   50.0022   35.7417   41.3291 H   0  0  0  0  0  0  0  0  0  0  0  0
   48.5438   36.7904   41.3291 H   0  0  0  0  0  0  0  0  0  0  0  0
   46.2208   31.7961   43.8508 H   0  0  0  0  0  0  0  0  0  0  0  0
   45.6334   29.5116   44.6315 H   0  0  0  0  0  0  0  0  0  0  0  0
  1  6  2  0
  2  1  1  0
  2  3  2  0
  3  4  1  0
  4  5  2  0
  5  9  1  0
  6  5  1  0
  7  3  1  0
  7  8  1  0
  9 10  2  0
  9 11  1  0
 11 12  1  0
 12 17  2  0
 13 14  2  0
 13 12  1  0
 14 15  1  0
 15 16  2  0
 16 18  1  0
 17 16  1  0
 18 19  1  0
 18 21  1  0
 18 20  1  0
  1 22  1  0
  2 23  1  0
  7 24  1  0
  7 25  1  0
  8 26  1  0
  8 27  1  0
  8 28  1  0
 13 29  1  0
 14 30  1  0
M  ISO  8  22  14  23  14  24   8  25   8  26   8  27   8  28   8  29  14
M  ISO  1  30  14
M  END
>  <minimizedAffinity>  (1) 
-5.54790449

>  <minimizedRMSD>  (1) 
1.59592044

$$$$
