
     RDKit          3D

 28 29  0  0  0  0  0  0  0  0999 V2000
   44.9420   33.9210   41.6480 C   0  0  0  0  0  0  0  0  0  0  0  0
   46.1350   34.4010   41.0960 C   0  0  0  0  0  0  0  0  0  0  0  0
   47.1560   34.7800   41.9450 C   0  0  0  0  0  0  0  0  0  0  0  0
   46.9540   34.6690   43.3050 N   0  0  0  0  0  0  0  0  0  0  0  0
   45.7810   34.1990   43.7900 C   0  0  0  0  0  0  0  0  0  0  0  0
   44.7950   33.8310   42.9900 N   0  0  0  0  0  0  0  0  0  0  0  0
   48.4750   35.3080   41.4590 C   0  0  0  0  0  0  0  0  0  0  0  0
   49.5660   34.9550   42.5130 C   0  0  0  0  0  0  0  0  0  0  0  0
   45.6950   34.1300   45.2390 C   0  0  0  0  0  0  0  0  0  0  0  0
   44.7960   34.7430   45.8440 O   0  0  0  0  0  0  0  0  0  0  0  0
   46.6280   33.3740   45.9370 O   0  0  0  0  0  0  0  0  0  0  0  0
   46.1270   32.3640   46.7670 C   0  0  0  0  0  0  0  0  0  0  0  0
   45.8950   31.1450   46.0990 C   0  0  0  0  0  0  0  0  0  0  0  0
   45.3960   30.1230   46.9020 C   0  0  0  0  0  0  0  0  0  0  0  0
   45.1350   30.2330   48.2290 N   0  0  0  0  0  0  0  0  0  0  0  0
   45.3890   31.4530   48.8020 C   0  0  0  0  0  0  0  0  0  0  0  0
   45.8720   32.4870   48.0850 N   0  0  0  0  0  0  0  0  0  0  0  0
   45.2000   31.8020   50.1380 O   0  0  0  0  0  0  0  0  0  0  0  0
   44.1182   33.6148   40.9864 H   0  0  0  0  0  0  0  0  0  0  0  0
   46.2573   34.4751   40.0053 H   0  0  0  0  0  0  0  0  0  0  0  0
   48.7275   34.8446   40.4938 H   0  0  0  0  0  0  0  0  0  0  0  0
   48.4187   36.3983   41.3249 H   0  0  0  0  0  0  0  0  0  0  0  0
   49.1551   35.0880   43.5247 H   0  0  0  0  0  0  0  0  0  0  0  0
   49.8802   33.9093   42.3794 H   0  0  0  0  0  0  0  0  0  0  0  0
   50.4332   35.6184   42.3794 H   0  0  0  0  0  0  0  0  0  0  0  0
   46.0930   31.0112   45.0253 H   0  0  0  0  0  0  0  0  0  0  0  0
   45.1982   29.1521   46.4242 H   0  0  0  0  0  0  0  0  0  0  0  0
   45.4178   32.7173   50.4461 H   0  0  0  0  0  0  0  0  0  0  0  0
  1  6  2  0
  2  1  1  0
  2  3  2  0
  3  4  1  0
  4  5  2  0
  5  9  1  0
  6  5  1  0
  7  3  1  0
  7  8  1  0
  9 10  2  0
  9 11  1  0
 11 12  1  0
 12 17  1  0
 13 12  2  0
 13 14  1  0
 14 15  2  0
 15 16  1  0
 16 18  1  0
 17 16  2  0
  1 19  1  0
  2 20  1  0
  7 21  1  0
  7 22  1  0
  8 23  1  0
  8 24  1  0
  8 25  1  0
 13 26  1  0
 14 27  1  0
 18 28  1  0
M  ISO  8  19  14  20  14  21   8  22   8  23   8  24   8  25   8  26  14
M  ISO  2  27  14  28   3
M  END
>  <minimizedAffinity>  (1) 
-5.55831814

>  <minimizedRMSD>  (1) 
0.377380013

$$$$
