
     RDKit          3D

 34 36  0  0  0  0  0  0  0  0999 V2000
   44.9360   33.9160   41.6500 C   0  0  0  0  0  0  0  0  0  0  0  0
   46.1250   34.4010   41.1020 C   0  0  0  0  0  0  0  0  0  0  0  0
   47.1560   34.7840   41.9500 C   0  0  0  0  0  0  0  0  0  0  0  0
   46.9480   34.6630   43.3080 N   0  0  0  0  0  0  0  0  0  0  0  0
   45.7890   34.1910   43.7990 C   0  0  0  0  0  0  0  0  0  0  0  0
   44.7850   33.8160   42.9980 N   0  0  0  0  0  0  0  0  0  0  0  0
   48.4720   35.3180   41.4670 C   0  0  0  0  0  0  0  0  0  0  0  0
   49.5540   34.9440   42.5060 C   0  0  0  0  0  0  0  0  0  0  0  0
   45.6990   34.1120   45.2600 C   0  0  0  0  0  0  0  0  0  0  0  0
   44.8000   34.7180   45.8580 O   0  0  0  0  0  0  0  0  0  0  0  0
   46.6390   33.3450   45.9470 O   0  0  0  0  0  0  0  0  0  0  0  0
   46.5630   31.9770   45.7690 C   0  0  0  0  0  0  0  0  0  0  0  0
   47.5770   31.4180   44.9640 C   0  0  0  0  0  0  0  0  0  0  0  0
   47.5060   30.0390   44.7800 C   0  0  0  0  0  0  0  0  0  0  0  0
   46.5580   29.2310   45.3080 N   0  0  0  0  0  0  0  0  0  0  0  0
   45.6010   29.8440   46.0820 C   0  0  0  0  0  0  0  0  0  0  0  0
   45.6270   31.1640   46.2870 N   0  0  0  0  0  0  0  0  0  0  0  0
   44.5660   28.9630   46.6580 C   0  0  0  0  0  0  0  0  0  0  0  0
   43.4380   28.4920   45.7530 C   0  0  0  0  0  0  0  0  0  0  0  0
   44.4470   27.5350   46.3200 C   0  0  0  0  0  0  0  0  0  0  0  0
   44.1138   33.6120   40.9855 H   0  0  0  0  0  0  0  0  0  0  0  0
   46.2438   34.4789   40.0112 H   0  0  0  0  0  0  0  0  0  0  0  0
   48.7205   34.8713   40.4930 H   0  0  0  0  0  0  0  0  0  0  0  0
   48.4192   36.4104   41.3489 H   0  0  0  0  0  0  0  0  0  0  0  0
   49.1519   35.0830   43.5204 H   0  0  0  0  0  0  0  0  0  0  0  0
   49.8466   33.8926   42.3684 H   0  0  0  0  0  0  0  0  0  0  0  0
   50.4334   35.5903   42.3684 H   0  0  0  0  0  0  0  0  0  0  0  0
   48.3711   32.0301   44.5115 H   0  0  0  0  0  0  0  0  0  0  0  0
   48.2816   29.5703   44.1565 H   0  0  0  0  0  0  0  0  0  0  0  0
   44.6614   29.4999   47.6133 H   0  0  0  0  0  0  0  0  0  0  0  0
   43.4478   28.7375   44.6808 H   0  0  0  0  0  0  0  0  0  0  0  0
   42.3409   28.5725   45.7547 H   0  0  0  0  0  0  0  0  0  0  0  0
   44.1417   26.8147   47.0933 H   0  0  0  0  0  0  0  0  0  0  0  0
   45.1278   26.7885   45.8850 H   0  0  0  0  0  0  0  0  0  0  0  0
  1  6  2  0
  2  1  1  0
  2  3  2  0
  3  4  1  0
  4  5  2  0
  5  9  1  0
  6  5  1  0
  7  3  1  0
  7  8  1  0
  9 10  2  0
  9 11  1  0
 12 11  1  0
 12 17  1  0
 13 12  2  0
 14 13  1  0
 14 15  2  0
 15 16  1  0
 16 17  2  0
 16 18  1  0
 19 20  1  0
 19 18  1  0
 20 18  1  0
  1 21  1  0
  2 22  1  0
  7 23  1  0
  7 24  1  0
  8 25  1  0
  8 26  1  0
  8 27  1  0
 13 28  1  0
 14 29  1  0
 18 30  1  0
 19 31  1  0
 19 32  1  0
 20 33  1  0
 20 34  1  0
M  ISO  8  21  14  22  14  23   8  24   8  25   8  26   8  27   8  28  14
M  ISO  6  29  14  30  13  31  13  32  13  33  13  34  13
M  END
>  <minimizedAffinity>  (1) 
-4.62297869

>  <minimizedRMSD>  (1) 
2.86470485

$$$$
