
     RDKit          3D

 34 36  0  0  0  0  0  0  0  0999 V2000
   45.8090   32.8940   46.2170 C   0  0  0  0  0  0  0  0  0  0  0  0
   45.2070   33.8590   46.7230 O   0  0  0  0  0  0  0  0  0  0  0  0
   48.3030   31.7720   48.6850 C   0  0  0  0  0  0  0  0  0  0  0  0
   48.3240   30.4030   48.4280 C   0  0  0  0  0  0  0  0  0  0  0  0
   47.5060   29.8890   47.4400 C   0  0  0  0  0  0  0  0  0  0  0  0
   46.6960   30.7570   46.7410 N   0  0  0  0  0  0  0  0  0  0  0  0
   46.7040   32.0850   47.0210 C   0  0  0  0  0  0  0  0  0  0  0  0
   47.4900   32.6000   47.9750 N   0  0  0  0  0  0  0  0  0  0  0  0
   47.4660   28.4260   47.0990 C   0  0  0  0  0  0  0  0  0  0  0  0
   46.4750   28.2370   45.9170 C   0  0  0  0  0  0  0  0  0  0  0  0
   45.6320   32.5730   44.8660 O   0  0  0  0  0  0  0  0  0  0  0  0
   46.3410   33.3510   43.9510 C   0  0  0  0  0  0  0  0  0  0  0  0
   45.6990   34.5060   43.5240 C   0  0  0  0  0  0  0  0  0  0  0  0
   46.4000   35.2900   42.6080 C   0  0  0  0  0  0  0  0  0  0  0  0
   47.6500   34.9780   42.1310 N   0  0  0  0  0  0  0  0  0  0  0  0
   48.2110   33.8330   42.5950 C   0  0  0  0  0  0  0  0  0  0  0  0
   47.5810   33.0420   43.4770 N   0  0  0  0  0  0  0  0  0  0  0  0
   49.5320   33.3620   42.1860 C   0  0  0  0  0  0  0  0  0  0  0  0
   49.6830   32.1990   41.4310 C   0  0  0  0  0  0  0  0  0  0  0  0
   51.0620   32.0660   41.2310 C   0  0  0  0  0  0  0  0  0  0  0  0
   51.6830   33.1130   41.8500 N   0  0  0  0  0  0  0  0  0  0  0  0
   50.7330   33.8750   42.4140 N   0  0  0  0  0  0  0  0  0  0  0  0
   48.9509   32.1880   49.4706 H   0  0  0  0  0  0  0  0  0  0  0  0
   48.9842   29.7388   49.0050 H   0  0  0  0  0  0  0  0  0  0  0  0
   48.4689   28.0836   46.8041 H   0  0  0  0  0  0  0  0  0  0  0  0
   47.1395   27.8387   47.9699 H   0  0  0  0  0  0  0  0  0  0  0  0
   45.4663   28.0446   46.3114 H   0  0  0  0  0  0  0  0  0  0  0  0
   46.4603   29.1485   45.3015 H   0  0  0  0  0  0  0  0  0  0  0  0
   46.7969   27.3841   45.3015 H   0  0  0  0  0  0  0  0  0  0  0  0
   44.6986   34.7855   43.8861 H   0  0  0  0  0  0  0  0  0  0  0  0
   45.9237   36.2131   42.2459 H   0  0  0  0  0  0  0  0  0  0  0  0
   48.8884   31.5295   41.0700 H   0  0  0  0  0  0  0  0  0  0  0  0
   51.5588   31.2589   40.6726 H   0  0  0  0  0  0  0  0  0  0  0  0
   52.6979   33.2866   41.8788 H   0  0  0  0  0  0  0  0  0  0  0  0
  1  2  2  0
  1  7  1  0
  4  3  2  0
  5  4  1  0
  6  7  1  0
  6  5  2  0
  7  8  2  0
  8  3  1  0
  9  5  1  0
 10  9  1  0
 11  1  1  0
 12 11  1  0
 13 12  2  0
 14 13  1  0
 15 16  1  0
 15 14  2  0
 16 17  2  0
 17 12  1  0
 18 22  2  0
 18 16  1  0
 19 18  1  0
 20 19  2  0
 20 21  1  0
 21 22  1  0
  3 23  1  0
  4 24  1  0
  9 25  1  0
  9 26  1  0
 10 27  1  0
 10 28  1  0
 10 29  1  0
 13 30  1  0
 14 31  1  0
 19 32  1  0
 20 33  1  0
 21 34  1  0
M  ISO  8  23  14  24  14  25   8  26   8  27   8  28   8  29   8  30  14
M  ISO  4  31  14  32  14  33  14  34   9
M  END
>  <minimizedAffinity>  (1) 
-4.90747023

>  <minimizedRMSD>  (1) 
7.61615896

$$$$
