
     RDKit          3D

 33 34  0  0  0  0  0  0  0  0999 V2000
   45.0840   33.9920   41.3370 C   0  0  0  0  0  0  0  0  0  0  0  0
   46.3060   34.4320   40.8330 C   0  0  0  0  0  0  0  0  0  0  0  0
   47.3080   34.8080   41.7150 C   0  0  0  0  0  0  0  0  0  0  0  0
   47.0400   34.7250   43.0580 N   0  0  0  0  0  0  0  0  0  0  0  0
   45.8400   34.2900   43.5040 C   0  0  0  0  0  0  0  0  0  0  0  0
   44.8720   33.9290   42.6660 N   0  0  0  0  0  0  0  0  0  0  0  0
   48.6590   35.2960   41.2660 C   0  0  0  0  0  0  0  0  0  0  0  0
   49.6530   35.0850   42.4310 C   0  0  0  0  0  0  0  0  0  0  0  0
   45.6860   34.2490   44.9630 C   0  0  0  0  0  0  0  0  0  0  0  0
   44.7620   34.8850   45.5100 O   0  0  0  0  0  0  0  0  0  0  0  0
   46.5870   33.4920   45.7050 O   0  0  0  0  0  0  0  0  0  0  0  0
   46.1890   32.1930   46.0060 C   0  0  0  0  0  0  0  0  0  0  0  0
   46.1880   31.2990   44.9340 C   0  0  0  0  0  0  0  0  0  0  0  0
   45.7930   29.9960   45.2140 C   0  0  0  0  0  0  0  0  0  0  0  0
   45.4140   29.5630   46.4590 N   0  0  0  0  0  0  0  0  0  0  0  0
   45.4370   30.4830   47.4570 C   0  0  0  0  0  0  0  0  0  0  0  0
   45.8110   31.7490   47.2280 N   0  0  0  0  0  0  0  0  0  0  0  0
   45.0430   30.1010   48.8380 C   0  0  0  0  0  0  0  0  0  0  0  0
   45.1110   31.3200   49.7350 C   0  0  0  0  0  0  0  0  0  0  0  0
   44.2845   33.6931   40.6431 H   0  0  0  0  0  0  0  0  0  0  0  0
   46.4743   34.4807   39.7470 H   0  0  0  0  0  0  0  0  0  0  0  0
   48.9888   34.7250   40.3856 H   0  0  0  0  0  0  0  0  0  0  0  0
   48.6100   36.3604   40.9928 H   0  0  0  0  0  0  0  0  0  0  0  0
   49.1242   35.1972   43.3890 H   0  0  0  0  0  0  0  0  0  0  0  0
   50.0845   34.0752   42.3665 H   0  0  0  0  0  0  0  0  0  0  0  0
   50.4575   35.8324   42.3665 H   0  0  0  0  0  0  0  0  0  0  0  0
   46.4842   31.6092   43.9211 H   0  0  0  0  0  0  0  0  0  0  0  0
   45.7838   29.2692   44.3883 H   0  0  0  0  0  0  0  0  0  0  0  0
   44.0160   29.7070   48.8311 H   0  0  0  0  0  0  0  0  0  0  0  0
   45.7284   29.3278   49.2155 H   0  0  0  0  0  0  0  0  0  0  0  0
   45.0933   31.0019   50.7879 H   0  0  0  0  0  0  0  0  0  0  0  0
   46.0413   31.8716   49.5342 H   0  0  0  0  0  0  0  0  0  0  0  0
   44.2478   31.9716   49.5342 H   0  0  0  0  0  0  0  0  0  0  0  0
  1  6  2  0
  2  1  1  0
  2  3  2  0
  3  4  1  0
  4  5  2  0
  5  9  1  0
  6  5  1  0
  7  3  1  0
  7  8  1  0
  9 10  2  0
  9 11  1  0
 11 12  1  0
 12 17  2  0
 13 14  2  0
 13 12  1  0
 14 15  1  0
 15 16  2  0
 16 18  1  0
 17 16  1  0
 18 19  1  0
  1 20  1  0
  2 21  1  0
  7 22  1  0
  7 23  1  0
  8 24  1  0
  8 25  1  0
  8 26  1  0
 13 27  1  0
 14 28  1  0
 18 29  1  0
 18 30  1  0
 19 31  1  0
 19 32  1  0
 19 33  1  0
M  ISO  8  20  14  21  14  22   8  23   8  24   8  25   8  26   8  27  14
M  ISO  6  28  14  29   8  30   8  31   8  32   8  33   8
M  END
>  <minimizedAffinity>  (1) 
-5.0440588

>  <minimizedRMSD>  (1) 
1.40100861

$$$$
