
     RDKit          3D

 34 36  0  0  0  0  0  0  0  0999 V2000
   45.6200   33.3190   45.7030 C   0  0  0  0  0  0  0  0  0  0  0  0
   45.1740   34.4110   46.0690 O   0  0  0  0  0  0  0  0  0  0  0  0
   47.7800   31.8960   48.3320 C   0  0  0  0  0  0  0  0  0  0  0  0
   47.3060   30.5890   48.4030 C   0  0  0  0  0  0  0  0  0  0  0  0
   46.2630   30.2120   47.5580 C   0  0  0  0  0  0  0  0  0  0  0  0
   45.7510   31.1520   46.6940 N   0  0  0  0  0  0  0  0  0  0  0  0
   46.2440   32.4070   46.6630 C   0  0  0  0  0  0  0  0  0  0  0  0
   47.2440   32.7870   47.4660 N   0  0  0  0  0  0  0  0  0  0  0  0
   45.6700   28.8310   47.5430 C   0  0  0  0  0  0  0  0  0  0  0  0
   44.5140   28.8130   46.5220 C   0  0  0  0  0  0  0  0  0  0  0  0
   45.5410   32.9260   44.3710 O   0  0  0  0  0  0  0  0  0  0  0  0
   46.5420   33.3920   43.5300 C   0  0  0  0  0  0  0  0  0  0  0  0
   46.3610   34.6820   43.0170 C   0  0  0  0  0  0  0  0  0  0  0  0
   47.3650   35.1470   42.1740 C   0  0  0  0  0  0  0  0  0  0  0  0
   48.4830   34.4320   41.8320 N   0  0  0  0  0  0  0  0  0  0  0  0
   48.5830   33.1920   42.3710 C   0  0  0  0  0  0  0  0  0  0  0  0
   47.6490   32.6910   43.1870 N   0  0  0  0  0  0  0  0  0  0  0  0
   49.7530   32.3880   42.0400 C   0  0  0  0  0  0  0  0  0  0  0  0
   50.1420   31.2080   42.6410 C   0  0  0  0  0  0  0  0  0  0  0  0
   51.2620   30.7490   42.0810 N   0  0  0  0  0  0  0  0  0  0  0  0
   51.5860   31.6420   41.1200 C   0  0  0  0  0  0  0  0  0  0  0  0
   50.6760   32.6330   41.0920 N   0  0  0  0  0  0  0  0  0  0  0  0
   48.6035   32.2095   48.9905 H   0  0  0  0  0  0  0  0  0  0  0  0
   47.7446   29.8696   49.1101 H   0  0  0  0  0  0  0  0  0  0  0  0
   46.4374   28.0996   47.2494 H   0  0  0  0  0  0  0  0  0  0  0  0
   45.2969   28.5672   48.5436 H   0  0  0  0  0  0  0  0  0  0  0  0
   43.5528   28.7980   47.0566 H   0  0  0  0  0  0  0  0  0  0  0  0
   44.5684   29.7121   45.8906 H   0  0  0  0  0  0  0  0  0  0  0  0
   44.5964   27.9160   45.8906 H   0  0  0  0  0  0  0  0  0  0  0  0
   45.4789   35.2905   43.2653 H   0  0  0  0  0  0  0  0  0  0  0  0
   47.2540   36.1573   41.7533 H   0  0  0  0  0  0  0  0  0  0  0  0
   49.6045   30.7159   43.4650 H   0  0  0  0  0  0  0  0  0  0  0  0
   52.4625   31.5697   40.4594 H   0  0  0  0  0  0  0  0  0  0  0  0
   50.6846   33.4413   40.4537 H   0  0  0  0  0  0  0  0  0  0  0  0
  1  2  2  0
  1  7  1  0
  3  4  2  0
  5  4  1  0
  6  5  2  0
  7  6  1  0
  7  8  2  0
  8  3  1  0
  9  5  1  0
 10  9  1  0
 11  1  1  0
 12 11  1  0
 13 12  2  0
 14 13  1  0
 15 14  2  0
 15 16  1  0
 16 17  2  0
 17 12  1  0
 18 16  1  0
 18 19  2  0
 20 19  1  0
 21 20  2  0
 22 21  1  0
 22 18  1  0
  3 23  1  0
  4 24  1  0
  9 25  1  0
  9 26  1  0
 10 27  1  0
 10 28  1  0
 10 29  1  0
 13 30  1  0
 14 31  1  0
 19 32  1  0
 21 33  1  0
 22 34  1  0
M  ISO  8  23  14  24  14  25   8  26   8  27   8  28   8  29   8  30  14
M  ISO  4  31  14  32  14  33  14  34   9
M  END
>  <minimizedAffinity>  (1) 
-4.72440338

>  <minimizedRMSD>  (1) 
7.7285018

$$$$
