
     RDKit          3D

 34 36  0  0  0  0  0  0  0  0999 V2000
   48.3590   33.4240   42.7710 C   0  0  0  0  0  0  0  0  0  0  0  0
   49.3240   34.1690   43.0020 O   0  0  0  0  0  0  0  0  0  0  0  0
   45.3000   34.3600   40.9430 C   0  0  0  0  0  0  0  0  0  0  0  0
   44.6400   35.1250   41.9110 C   0  0  0  0  0  0  0  0  0  0  0  0
   45.2250   35.3120   43.1420 C   0  0  0  0  0  0  0  0  0  0  0  0
   46.4560   34.7220   43.3600 N   0  0  0  0  0  0  0  0  0  0  0  0
   47.0600   33.9920   42.4050 C   0  0  0  0  0  0  0  0  0  0  0  0
   46.5030   33.8070   41.2150 N   0  0  0  0  0  0  0  0  0  0  0  0
   44.6110   36.1130   44.2570 C   0  0  0  0  0  0  0  0  0  0  0  0
   44.6390   35.2680   45.5490 C   0  0  0  0  0  0  0  0  0  0  0  0
   48.4910   32.0400   42.8530 O   0  0  0  0  0  0  0  0  0  0  0  0
   47.5310   31.3700   43.6010 C   0  0  0  0  0  0  0  0  0  0  0  0
   46.6950   30.5180   42.8900 C   0  0  0  0  0  0  0  0  0  0  0  0
   45.7240   29.8330   43.6130 C   0  0  0  0  0  0  0  0  0  0  0  0
   45.5650   29.9620   44.9640 N   0  0  0  0  0  0  0  0  0  0  0  0
   46.4180   30.8140   45.6080 C   0  0  0  0  0  0  0  0  0  0  0  0
   47.3700   31.4930   44.9340 N   0  0  0  0  0  0  0  0  0  0  0  0
   46.3620   31.0490   47.0470 C   0  0  0  0  0  0  0  0  0  0  0  0
   45.7410   32.2230   47.4200 C   0  0  0  0  0  0  0  0  0  0  0  0
   45.7700   32.2950   48.8190 C   0  0  0  0  0  0  0  0  0  0  0  0
   46.4300   31.1210   49.1980 C   0  0  0  0  0  0  0  0  0  0  0  0
   46.7530   30.4310   48.1370 O   0  0  0  0  0  0  0  0  0  0  0  0
   44.8379   34.2080   39.9564 H   0  0  0  0  0  0  0  0  0  0  0  0
   43.6604   35.5736   41.6893 H   0  0  0  0  0  0  0  0  0  0  0  0
   45.1861   37.0385   44.4078 H   0  0  0  0  0  0  0  0  0  0  0  0
   43.5730   36.3738   44.0028 H   0  0  0  0  0  0  0  0  0  0  0  0
   44.6169   35.9347   46.4237 H   0  0  0  0  0  0  0  0  0  0  0  0
   43.7624   34.6039   45.5719 H   0  0  0  0  0  0  0  0  0  0  0  0
   45.5577   34.6634   45.5719 H   0  0  0  0  0  0  0  0  0  0  0  0
   46.7966   30.3906   41.8021 H   0  0  0  0  0  0  0  0  0  0  0  0
   45.0505   29.1535   43.0701 H   0  0  0  0  0  0  0  0  0  0  0  0
   45.3019   32.9687   46.7410 H   0  0  0  0  0  0  0  0  0  0  0  0
   45.3683   33.0880   49.4669 H   0  0  0  0  0  0  0  0  0  0  0  0
   46.6449   30.8234   50.2350 H   0  0  0  0  0  0  0  0  0  0  0  0
  1 11  1  0
  1  2  2  0
  3  8  2  0
  3  4  1  0
  4  5  2  0
  5  6  1  0
  5  9  1  0
  7  1  1  0
  7  6  2  0
  8  7  1  0
  9 10  1  0
 11 12  1  0
 12 17  1  0
 13 12  2  0
 13 14  1  0
 14 15  2  0
 15 16  1  0
 16 18  1  0
 17 16  2  0
 18 19  2  0
 18 22  1  0
 19 20  1  0
 20 21  2  0
 22 21  1  0
  3 23  1  0
  4 24  1  0
  9 25  1  0
  9 26  1  0
 10 27  1  0
 10 28  1  0
 10 29  1  0
 13 30  1  0
 14 31  1  0
 19 32  1  0
 20 33  1  0
 21 34  1  0
M  ISO  8  23  14  24  14  25   8  26   8  27   8  28   8  29   8  30  14
M  ISO  4  31  14  32  14  33  14  34  14
M  END
>  <minimizedAffinity>  (1) 
-4.74680376

>  <minimizedRMSD>  (1) 
3.65201783

$$$$
