
     RDKit          3D

 44 46  0  0  0  0  0  0  0  0999 V2000
   45.6800   34.2320   44.3710 C   0  0  0  0  0  0  0  0  0  0  0  0
   44.8410   34.8130   45.0750 O   0  0  0  0  0  0  0  0  0  0  0  0
   44.2060   33.8180   41.0200 C   0  0  0  0  0  0  0  0  0  0  0  0
   45.3310   33.9910   40.2170 C   0  0  0  0  0  0  0  0  0  0  0  0
   46.5450   34.2390   40.8130 C   0  0  0  0  0  0  0  0  0  0  0  0
   46.6140   34.3100   42.1800 N   0  0  0  0  0  0  0  0  0  0  0  0
   45.4970   34.1370   42.9380 C   0  0  0  0  0  0  0  0  0  0  0  0
   44.2990   33.8930   42.3720 N   0  0  0  0  0  0  0  0  0  0  0  0
   47.8080   34.4390   40.0320 C   0  0  0  0  0  0  0  0  0  0  0  0
   48.7250   35.4050   40.8290 C   0  0  0  0  0  0  0  0  0  0  0  0
   46.8160   33.6590   44.9410 O   0  0  0  0  0  0  0  0  0  0  0  0
   46.6190   32.4810   45.6810 C   0  0  0  0  0  0  0  0  0  0  0  0
   46.0440   31.4230   44.9860 C   0  0  0  0  0  0  0  0  0  0  0  0
   45.8610   30.2760   45.7350 C   0  0  0  0  0  0  0  0  0  0  0  0
   46.1970   30.1330   47.0570 N   0  0  0  0  0  0  0  0  0  0  0  0
   46.7570   31.2300   47.6560 C   0  0  0  0  0  0  0  0  0  0  0  0
   46.9560   32.3560   46.9820 N   0  0  0  0  0  0  0  0  0  0  0  0
   47.1990   31.0540   49.3770 S   0  0  0  0  0  0  0  0  0  0  0  0
   48.8950   30.4050   49.4290 C   0  0  0  0  0  0  0  0  0  0  0  0
   49.8140   31.5330   49.8270 C   0  0  0  0  0  0  0  0  0  0  0  0
   51.2110   31.3980   49.2790 C   0  0  0  0  0  0  0  0  0  0  0  0
   51.4820   29.9260   49.0560 C   0  0  0  0  0  0  0  0  0  0  0  0
   50.6360   29.5320   47.8500 C   0  0  0  0  0  0  0  0  0  0  0  0
   49.1940   29.8750   48.0450 C   0  0  0  0  0  0  0  0  0  0  0  0
   43.2304   33.6182   40.5527 H   0  0  0  0  0  0  0  0  0  0  0  0
   45.2493   33.9301   39.1217 H   0  0  0  0  0  0  0  0  0  0  0  0
   48.3163   33.4735   39.8928 H   0  0  0  0  0  0  0  0  0  0  0  0
   47.5794   34.8626   39.0429 H   0  0  0  0  0  0  0  0  0  0  0  0
   48.5750   35.2470   41.9072 H   0  0  0  0  0  0  0  0  0  0  0  0
   49.7763   35.2080   40.5723 H   0  0  0  0  0  0  0  0  0  0  0  0
   48.4735   36.4447   40.5723 H   0  0  0  0  0  0  0  0  0  0  0  0
   45.7580   31.4931   43.9262 H   0  0  0  0  0  0  0  0  0  0  0  0
   45.4099   29.4087   45.2307 H   0  0  0  0  0  0  0  0  0  0  0  0
   49.0310   29.5943   50.1599 H   0  0  0  0  0  0  0  0  0  0  0  0
   49.3858   32.4766   49.4578 H   0  0  0  0  0  0  0  0  0  0  0  0
   49.8952   31.5098   50.9238 H   0  0  0  0  0  0  0  0  0  0  0  0
   51.2931   31.9418   48.3264 H   0  0  0  0  0  0  0  0  0  0  0  0
   51.9421   31.8200   49.9843 H   0  0  0  0  0  0  0  0  0  0  0  0
   52.5491   29.7592   48.8476 H   0  0  0  0  0  0  0  0  0  0  0  0
   51.2303   29.3266   49.9433 H   0  0  0  0  0  0  0  0  0  0  0  0
   50.7253   28.4471   47.6920 H   0  0  0  0  0  0  0  0  0  0  0  0
   51.0046   30.0913   46.9775 H   0  0  0  0  0  0  0  0  0  0  0  0
   48.9132   30.6416   47.3078 H   0  0  0  0  0  0  0  0  0  0  0  0
   48.6149   28.9489   47.9150 H   0  0  0  0  0  0  0  0  0  0  0  0
  1 11  1  0
  1  2  2  0
  3  8  2  0
  4  5  2  0
  4  3  1  0
  5  6  1  0
  6  7  2  0
  7  1  1  0
  8  7  1  0
  9  5  1  0
  9 10  1  0
 11 12  1  0
 12 17  1  0
 13 12  2  0
 13 14  1  0
 14 15  2  0
 15 16  1  0
 16 18  1  0
 17 16  2  0
 18 19  1  0
 19 20  1  0
 21 20  1  0
 22 21  1  0
 23 24  1  0
 23 22  1  0
 24 19  1  0
  3 25  1  0
  4 26  1  0
  9 27  1  0
  9 28  1  0
 10 29  1  0
 10 30  1  0
 10 31  1  0
 13 32  1  0
 14 33  1  0
 19 34  1  0
 20 35  1  0
 20 36  1  0
 21 37  1  0
 21 38  1  0
 22 39  1  0
 22 40  1  0
 23 41  1  0
 23 42  1  0
 24 43  1  0
 24 44  1  0
M  ISO  8  25  14  26  14  27   8  28   8  29   8  30   8  31   8  32  14
M  ISO  8  33  14  34  13  35  13  36  13  37  13  38  13  39  13  40  13
M  ISO  4  41  13  42  13  43  13  44  13
M  END
>  <minimizedAffinity>  (1) 
-4.89063692

>  <minimizedRMSD>  (1) 
1.56441879

$$$$
