
     RDKit          3D

 38 40  0  0  0  0  0  0  0  0999 V2000
   46.3880   33.4780   46.2210 O   0  0  0  0  0  0  0  0  0  0  0  0
   45.8960   32.2780   46.7650 C   0  0  0  0  0  0  0  0  0  0  0  0
   45.4180   32.3610   48.0680 C   0  0  0  0  0  0  0  0  0  0  0  0
   44.9330   31.1740   48.6040 C   0  0  0  0  0  0  0  0  0  0  0  0
   44.9040   29.9800   47.9440 N   0  0  0  0  0  0  0  0  0  0  0  0
   45.3950   29.9920   46.6640 C   0  0  0  0  0  0  0  0  0  0  0  0
   45.8690   31.1000   46.1090 N   0  0  0  0  0  0  0  0  0  0  0  0
   45.3770   28.4420   45.7580 S   0  0  0  0  0  0  0  0  0  0  0  0
   43.7390   27.7420   45.8880 C   0  0  0  0  0  0  0  0  0  0  0  0
   43.3780   26.5780   46.5370 C   0  0  0  0  0  0  0  0  0  0  0  0
   42.0600   26.1710   46.5460 C   0  0  0  0  0  0  0  0  0  0  0  0
   41.0670   26.9070   45.9120 C   0  0  0  0  0  0  0  0  0  0  0  0
   41.4420   28.0700   45.2660 C   0  0  0  0  0  0  0  0  0  0  0  0
   42.7700   28.5120   45.2370 C   0  0  0  0  0  0  0  0  0  0  0  0
   45.4930   34.2370   45.4830 C   0  0  0  0  0  0  0  0  0  0  0  0
   44.5880   34.8550   46.0470 O   0  0  0  0  0  0  0  0  0  0  0  0
   44.8060   34.3880   41.8710 C   0  0  0  0  0  0  0  0  0  0  0  0
   46.0940   34.4020   41.3420 C   0  0  0  0  0  0  0  0  0  0  0  0
   47.1680   34.3600   42.2190 C   0  0  0  0  0  0  0  0  0  0  0  0
   46.9230   34.3070   43.5730 N   0  0  0  0  0  0  0  0  0  0  0  0
   45.6380   34.2960   44.0350 C   0  0  0  0  0  0  0  0  0  0  0  0
   44.5890   34.3350   43.2090 N   0  0  0  0  0  0  0  0  0  0  0  0
   48.5980   34.3710   41.7550 C   0  0  0  0  0  0  0  0  0  0  0  0
   49.0120   35.8510   41.4990 C   0  0  0  0  0  0  0  0  0  0  0  0
   45.4233   33.3028   48.6364 H   0  0  0  0  0  0  0  0  0  0  0  0
   44.5451   31.1987   49.6330 H   0  0  0  0  0  0  0  0  0  0  0  0
   44.1426   25.9742   47.0477 H   0  0  0  0  0  0  0  0  0  0  0  0
   41.7888   25.2413   47.0677 H   0  0  0  0  0  0  0  0  0  0  0  0
   40.0182   26.5756   45.9237 H   0  0  0  0  0  0  0  0  0  0  0  0
   40.6713   28.6681   44.7578 H   0  0  0  0  0  0  0  0  0  0  0  0
   43.0442   29.4410   44.7156 H   0  0  0  0  0  0  0  0  0  0  0  0
   43.9444   34.4207   41.1880 H   0  0  0  0  0  0  0  0  0  0  0  0
   46.2559   34.4453   40.2548 H   0  0  0  0  0  0  0  0  0  0  0  0
   49.2445   33.9314   42.5288 H   0  0  0  0  0  0  0  0  0  0  0  0
   48.7042   33.7805   40.8330 H   0  0  0  0  0  0  0  0  0  0  0  0
   49.1553   36.3634   42.4617 H   0  0  0  0  0  0  0  0  0  0  0  0
   49.9514   35.8753   40.9273 H   0  0  0  0  0  0  0  0  0  0  0  0
   48.2215   36.3592   40.9273 H   0  0  0  0  0  0  0  0  0  0  0  0
  1  2  1  0
  2  3  2  0
  3  4  1  0
  5  4  2  0
  6  5  1  0
  7  6  2  0
  7  2  1  0
  8  9  1  0
  8  6  1  0
  9 10  2  0
 10 11  1  0
 12 11  2  0
 13 12  1  0
 14 13  2  0
 14  9  1  0
 15 16  2  0
 15  1  1  0
 17 22  2  0
 18 17  1  0
 18 19  2  0
 19 20  1  0
 20 21  2  0
 21 15  1  0
 22 21  1  0
 23 19  1  0
 24 23  1  0
  3 25  1  0
  4 26  1  0
 10 27  1  0
 11 28  1  0
 12 29  1  0
 13 30  1  0
 14 31  1  0
 17 32  1  0
 18 33  1  0
 23 34  1  0
 23 35  1  0
 24 36  1  0
 24 37  1  0
 24 38  1  0
M  ISO  8  25  14  26  14  27  14  28  14  29  14  30  14  31  14  32  14
M  ISO  6  33  14  34   8  35   8  36   8  37   8  38   8
M  END
>  <minimizedAffinity>  (1) 
-5.95679665

>  <minimizedRMSD>  (1) 
2.85487866

$$$$
