
     RDKit          3D

 40 42  0  0  1  0  0  0  0  0999 V2000
   45.7110   34.2360   44.7640 C   0  0  0  0  0  0  0  0  0  0  0  0
   44.8200   34.8080   45.4190 O   0  0  0  0  0  0  0  0  0  0  0  0
   44.5050   33.9020   41.2950 C   0  0  0  0  0  0  0  0  0  0  0  0
   45.6700   34.1700   40.5880 C   0  0  0  0  0  0  0  0  0  0  0  0
   46.8250   34.4540   41.2710 C   0  0  0  0  0  0  0  0  0  0  0  0
   46.8000   34.4670   42.6590 N   0  0  0  0  0  0  0  0  0  0  0  0
   45.6320   34.1980   43.3070 C   0  0  0  0  0  0  0  0  0  0  0  0
   44.5040   33.9200   42.6500 N   0  0  0  0  0  0  0  0  0  0  0  0
   48.1330   34.7570   40.5980 C   0  0  0  0  0  0  0  0  0  0  0  0
   48.9280   35.7400   41.5080 C   0  0  0  0  0  0  0  0  0  0  0  0
   46.8030   33.6200   45.3970 O   0  0  0  0  0  0  0  0  0  0  0  0
   46.7100   32.2480   45.5910 C   0  0  0  0  0  0  0  0  0  0  0  0
   47.3990   31.4760   44.6540 C   0  0  0  0  0  0  0  0  0  0  0  0
   47.3140   30.0990   44.8370 C   0  0  0  0  0  0  0  0  0  0  0  0
   46.6150   29.4960   45.8520 N   0  0  0  0  0  0  0  0  0  0  0  0
   45.9790   30.3230   46.7130 C   0  0  0  0  0  0  0  0  0  0  0  0
   46.0260   31.6490   46.5880 N   0  0  0  0  0  0  0  0  0  0  0  0
   45.0580   29.5610   48.0520 S   0  0  0  0  0  0  0  0  0  0  0  0
   44.7430   27.0590   49.0280 N   0  0  0  0  0  0  0  0  0  0  0  0
   44.2220   25.7740   48.6410 C   0  0  0  0  0  0  0  0  0  0  0  0
   43.8680   25.8580   47.1660 C   0  0  0  0  0  0  0  0  0  0  0  0
   43.9420   27.3650   46.8950 C   0  0  0  0  0  0  0  0  0  0  0  0
   45.0660   27.7640   47.8280 C   0  0  1  0  0  0  0  0  0  0  0  0
   43.5765   33.6735   40.7512 H   0  0  0  0  0  0  0  0  0  0  0  0
   45.6664   34.1546   39.4881 H   0  0  0  0  0  0  0  0  0  0  0  0
   48.7064   33.8282   40.4618 H   0  0  0  0  0  0  0  0  0  0  0  0
   47.9582   35.2083   39.6102 H   0  0  0  0  0  0  0  0  0  0  0  0
   48.7341   35.5003   42.5639 H   0  0  0  0  0  0  0  0  0  0  0  0
   50.0040   35.6421   41.3013 H   0  0  0  0  0  0  0  0  0  0  0  0
   48.6073   36.7717   41.3013 H   0  0  0  0  0  0  0  0  0  0  0  0
   47.9698   31.9251   43.8279 H   0  0  0  0  0  0  0  0  0  0  0  0
   47.8417   29.4518   44.1211 H   0  0  0  0  0  0  0  0  0  0  0  0
   44.0341   27.5803   49.5634 H   0  0  0  0  0  0  0  0  0  0  0  0
   44.9819   24.9952   48.8024 H   0  0  0  0  0  0  0  0  0  0  0  0
   43.3369   25.5150   49.2407 H   0  0  0  0  0  0  0  0  0  0  0  0
   44.5942   25.3068   46.5505 H   0  0  0  0  0  0  0  0  0  0  0  0
   42.8909   25.4151   46.9226 H   0  0  0  0  0  0  0  0  0  0  0  0
   44.1928   27.5760   45.8450 H   0  0  0  0  0  0  0  0  0  0  0  0
   42.9982   27.9052   47.0605 H   0  0  0  0  0  0  0  0  0  0  0  0
   46.0760   27.5196   47.4672 H   0  0  0  0  0  0  0  0  0  0  0  0
  1 11  1  0
  1  2  2  0
  3  8  2  0
  4  5  2  0
  4  3  1  0
  5  6  1  0
  6  7  2  0
  7  1  1  0
  8  7  1  0
  9  5  1  0
  9 10  1  0
 11 12  1  0
 12 17  2  0
 13 14  2  0
 13 12  1  0
 14 15  1  0
 15 16  2  0
 16 18  1  0
 17 16  1  0
 20 19  1  0
 21 20  1  0
 22 21  1  0
 22 23  1  0
 23 18  1  0
 23 19  1  0
  3 24  1  0
  4 25  1  0
  9 26  1  0
  9 27  1  0
 10 28  1  0
 10 29  1  0
 10 30  1  0
 13 31  1  0
 14 32  1  0
 19 33  1  0
 20 34  1  0
 20 35  1  0
 21 36  1  0
 21 37  1  0
 22 38  1  0
 22 39  1  0
 23 40  1  6
M  ISO  8  24  14  25  14  26   8  27   8  28   8  29   8  30   8  31  14
M  ISO  8  32  14  33   5  34  13  35  13  36  13  37  13  38  13  39  13
M  ISO  1  40  13
M  END
>  <minimizedAffinity>  (1) 
-5.04190397

>  <minimizedRMSD>  (1) 
1.81185091

$$$$
