
     RDKit          3D

 41 43  0  0  0  0  0  0  0  0999 V2000
   45.8750   34.0010   44.9780 C   0  0  0  0  0  0  0  0  0  0  0  0
   45.0260   34.5310   45.7130 O   0  0  0  0  0  0  0  0  0  0  0  0
   44.5510   33.9890   41.5390 C   0  0  0  0  0  0  0  0  0  0  0  0
   45.7070   34.2820   40.8070 C   0  0  0  0  0  0  0  0  0  0  0  0
   46.8980   34.4740   41.4930 C   0  0  0  0  0  0  0  0  0  0  0  0
   46.8970   34.3690   42.8730 N   0  0  0  0  0  0  0  0  0  0  0  0
   45.7490   34.0850   43.5330 C   0  0  0  0  0  0  0  0  0  0  0  0
   44.5960   33.8960   42.8970 N   0  0  0  0  0  0  0  0  0  0  0  0
   48.1860   34.7920   40.7960 C   0  0  0  0  0  0  0  0  0  0  0  0
   48.9560   35.8240   41.6480 C   0  0  0  0  0  0  0  0  0  0  0  0
   46.9570   33.3230   45.5330 O   0  0  0  0  0  0  0  0  0  0  0  0
   46.8280   31.9290   45.6420 C   0  0  0  0  0  0  0  0  0  0  0  0
   47.4990   31.1760   44.6650 C   0  0  0  0  0  0  0  0  0  0  0  0
   47.3480   29.8090   44.8040 C   0  0  0  0  0  0  0  0  0  0  0  0
   46.6290   29.1880   45.7780 N   0  0  0  0  0  0  0  0  0  0  0  0
   46.0060   29.9990   46.6920 C   0  0  0  0  0  0  0  0  0  0  0  0
   46.1080   31.3200   46.6180 N   0  0  0  0  0  0  0  0  0  0  0  0
   45.0630   29.1930   47.9710 S   0  0  0  0  0  0  0  0  0  0  0  0
   44.8310   27.4890   47.5400 C   0  0  0  0  0  0  0  0  0  0  0  0
   43.7470   27.1880   46.5600 C   0  0  0  0  0  0  0  0  0  0  0  0
   43.7180   25.6740   46.5840 C   0  0  0  0  0  0  0  0  0  0  0  0
   44.3750   25.2590   47.9100 C   0  0  0  0  0  0  0  0  0  0  0  0
   44.4710   26.5840   48.6850 C   0  0  0  0  0  0  0  0  0  0  0  0
   43.5977   33.8324   41.0131 H   0  0  0  0  0  0  0  0  0  0  0  0
   45.6724   34.3586   39.7102 H   0  0  0  0  0  0  0  0  0  0  0  0
   48.7864   33.8766   40.6880 H   0  0  0  0  0  0  0  0  0  0  0  0
   47.9844   35.2015   39.7952 H   0  0  0  0  0  0  0  0  0  0  0  0
   48.7966   35.6104   42.7152 H   0  0  0  0  0  0  0  0  0  0  0  0
   50.0298   35.7613   41.4179 H   0  0  0  0  0  0  0  0  0  0  0  0
   48.5901   36.8355   41.4179 H   0  0  0  0  0  0  0  0  0  0  0  0
   48.0926   31.6337   43.8599 H   0  0  0  0  0  0  0  0  0  0  0  0
   47.8518   29.1691   44.0646 H   0  0  0  0  0  0  0  0  0  0  0  0
   45.8314   27.3005   47.1232 H   0  0  0  0  0  0  0  0  0  0  0  0
   43.9962   27.5678   45.5582 H   0  0  0  0  0  0  0  0  0  0  0  0
   42.7822   27.6556   46.8059 H   0  0  0  0  0  0  0  0  0  0  0  0
   42.6806   25.3108   46.5413 H   0  0  0  0  0  0  0  0  0  0  0  0
   44.2487   25.2470   45.7203 H   0  0  0  0  0  0  0  0  0  0  0  0
   43.7504   24.5313   48.4488 H   0  0  0  0  0  0  0  0  0  0  0  0
   45.3497   24.7679   47.7731 H   0  0  0  0  0  0  0  0  0  0  0  0
   45.2564   26.5576   49.4547 H   0  0  0  0  0  0  0  0  0  0  0  0
   43.5742   26.8693   49.2545 H   0  0  0  0  0  0  0  0  0  0  0  0
  1 11  1  0
  1  2  2  0
  3  8  2  0
  4  5  2  0
  4  3  1  0
  5  6  1  0
  6  7  2  0
  7  1  1  0
  8  7  1  0
  9  5  1  0
  9 10  1  0
 11 12  1  0
 12 17  2  0
 13 14  2  0
 13 12  1  0
 14 15  1  0
 15 16  2  0
 16 18  1  0
 17 16  1  0
 19 18  1  0
 19 23  1  0
 20 21  1  0
 20 19  1  0
 21 22  1  0
 22 23  1  0
  3 24  1  0
  4 25  1  0
  9 26  1  0
  9 27  1  0
 10 28  1  0
 10 29  1  0
 10 30  1  0
 13 31  1  0
 14 32  1  0
 19 33  1  0
 20 34  1  0
 20 35  1  0
 21 36  1  0
 21 37  1  0
 22 38  1  0
 22 39  1  0
 23 40  1  0
 23 41  1  0
M  ISO  8  24  14  25  14  26   8  27   8  28   8  29   8  30   8  31  14
M  ISO  8  32  14  33  13  34  13  35  13  36  13  37  13  38  13  39  13
M  ISO  2  40  13  41  13
M  END
>  <minimizedAffinity>  (1) 
-4.91960621

>  <minimizedRMSD>  (1) 
2.03303766

$$$$
