
     RDKit          3D

 34 36  0  0  0  0  0  0  0  0999 V2000
   46.5720   34.8210   41.7240 C   0  0  0  0  0  0  0  0  0  0  0  0
   45.9500   34.3140   40.7700 O   0  0  0  0  0  0  0  0  0  0  0  0
   44.5150   36.0570   44.5170 C   0  0  0  0  0  0  0  0  0  0  0  0
   44.7850   35.1110   45.4950 C   0  0  0  0  0  0  0  0  0  0  0  0
   45.6540   34.0790   45.1920 C   0  0  0  0  0  0  0  0  0  0  0  0
   46.2160   34.0290   43.9350 N   0  0  0  0  0  0  0  0  0  0  0  0
   45.9250   34.9710   43.0110 C   0  0  0  0  0  0  0  0  0  0  0  0
   45.0830   35.9880   43.2750 N   0  0  0  0  0  0  0  0  0  0  0  0
   46.0180   33.0020   46.1720 C   0  0  0  0  0  0  0  0  0  0  0  0
   46.9570   31.9900   45.4700 C   0  0  0  0  0  0  0  0  0  0  0  0
   47.8840   35.2470   41.5770 O   0  0  0  0  0  0  0  0  0  0  0  0
   48.8630   34.2540   41.5500 C   0  0  0  0  0  0  0  0  0  0  0  0
   49.9080   34.4300   42.4670 C   0  0  0  0  0  0  0  0  0  0  0  0
   50.8840   33.4470   42.4470 C   0  0  0  0  0  0  0  0  0  0  0  0
   50.8760   32.3690   41.6170 N   0  0  0  0  0  0  0  0  0  0  0  0
   49.8330   32.2710   40.7600 C   0  0  0  0  0  0  0  0  0  0  0  0
   48.8640   33.1760   40.7280 N   0  0  0  0  0  0  0  0  0  0  0  0
   49.7790   30.8620   39.6420 S   0  0  0  0  0  0  0  0  0  0  0  0
   51.2660   30.8890   38.6070 C   0  0  0  0  0  0  0  0  0  0  0  0
   51.2280   29.9820   37.5950 C   0  0  0  0  0  0  0  0  0  0  0  0
   52.8200   30.2090   36.7140 S   0  0  0  0  0  0  0  0  0  0  0  0
   53.2920   31.5810   37.9500 C   0  0  0  0  0  0  0  0  0  0  0  0
   52.3790   31.5940   38.6190 N   0  0  0  0  0  0  0  0  0  0  0  0
   43.8265   36.8837   44.7464 H   0  0  0  0  0  0  0  0  0  0  0  0
   44.3185   35.1802   46.4888 H   0  0  0  0  0  0  0  0  0  0  0  0
   46.5327   33.4466   47.0366 H   0  0  0  0  0  0  0  0  0  0  0  0
   45.1093   32.4903   46.5219 H   0  0  0  0  0  0  0  0  0  0  0  0
   47.4990   31.4058   46.2282 H   0  0  0  0  0  0  0  0  0  0  0  0
   46.3611   31.3118   44.8416 H   0  0  0  0  0  0  0  0  0  0  0  0
   47.6778   32.5336   44.8416 H   0  0  0  0  0  0  0  0  0  0  0  0
   49.9503   35.2880   43.1541 H   0  0  0  0  0  0  0  0  0  0  0  0
   51.7236   33.5448   43.1509 H   0  0  0  0  0  0  0  0  0  0  0  0
   50.4227   29.2712   37.3578 H   0  0  0  0  0  0  0  0  0  0  0  0
   54.2041   32.1939   37.9997 H   0  0  0  0  0  0  0  0  0  0  0  0
  1  7  1  0
  2  1  2  0
  3  4  2  0
  5  4  1  0
  5  9  1  0
  6  5  2  0
  7  8  2  0
  7  6  1  0
  8  3  1  0
 10  9  1  0
 11  1  1  0
 12 11  1  0
 12 13  2  0
 14 13  1  0
 15 14  2  0
 16 15  1  0
 17 16  2  0
 17 12  1  0
 18 16  1  0
 19 23  1  0
 19 18  1  0
 20 19  2  0
 21 20  1  0
 21 22  1  0
 22 23  2  0
  3 24  1  0
  4 25  1  0
  9 26  1  0
  9 27  1  0
 10 28  1  0
 10 29  1  0
 10 30  1  0
 13 31  1  0
 14 32  1  0
 20 33  1  0
 22 34  1  0
M  ISO  8  24  14  25  14  26   8  27   8  28   8  29   8  30   8  31  14
M  ISO  3  32  14  33  14  34  14
M  END
>  <minimizedAffinity>  (1) 
-5.26047564

>  <minimizedRMSD>  (1) 
8.52869701

$$$$
