
     RDKit          3D

 35 37  0  0  0  0  0  0  0  0999 V2000
   46.2280   32.4610   47.2670 C   0  0  0  0  0  0  0  0  0  0  0  0
   45.3560   32.2680   48.1310 O   0  0  0  0  0  0  0  0  0  0  0  0
   45.4440   31.5630   43.7720 C   0  0  0  0  0  0  0  0  0  0  0  0
   45.1380   32.8000   43.2360 C   0  0  0  0  0  0  0  0  0  0  0  0
   45.2000   33.9150   44.0610 C   0  0  0  0  0  0  0  0  0  0  0  0
   45.5630   33.7500   45.3730 N   0  0  0  0  0  0  0  0  0  0  0  0
   45.8570   32.5210   45.8640 C   0  0  0  0  0  0  0  0  0  0  0  0
   45.8010   31.4380   45.0820 N   0  0  0  0  0  0  0  0  0  0  0  0
   44.8850   35.3060   43.5690 C   0  0  0  0  0  0  0  0  0  0  0  0
   44.5230   36.1760   44.8110 C   0  0  0  0  0  0  0  0  0  0  0  0
   47.5650   32.6230   47.6110 O   0  0  0  0  0  0  0  0  0  0  0  0
   48.2020   31.5180   48.1560 C   0  0  0  0  0  0  0  0  0  0  0  0
   48.0020   30.3110   47.4620 C   0  0  0  0  0  0  0  0  0  0  0  0
   48.6400   29.2090   48.0120 C   0  0  0  0  0  0  0  0  0  0  0  0
   49.4190   29.2300   49.1360 N   0  0  0  0  0  0  0  0  0  0  0  0
   49.5620   30.4480   49.7500 C   0  0  0  0  0  0  0  0  0  0  0  0
   48.9720   31.5330   49.2650 N   0  0  0  0  0  0  0  0  0  0  0  0
   50.5720   30.4980   51.2180 S   0  0  0  0  0  0  0  0  0  0  0  0
   52.1270   31.3480   50.9380 C   0  0  0  0  0  0  0  0  0  0  0  0
   53.2960   31.6260   51.6150 C   0  0  0  0  0  0  0  0  0  0  0  0
   54.0880   32.3350   50.7950 N   0  0  0  0  0  0  0  0  0  0  0  0
   53.4420   32.5080   49.6140 C   0  0  0  0  0  0  0  0  0  0  0  0
   52.2300   31.9010   49.6970 N   0  0  0  0  0  0  0  0  0  0  0  0
   45.3989   30.6683   43.1336 H   0  0  0  0  0  0  0  0  0  0  0  0
   44.8515   32.8988   42.1786 H   0  0  0  0  0  0  0  0  0  0  0  0
   45.7614   35.7299   43.0569 H   0  0  0  0  0  0  0  0  0  0  0  0
   44.0470   35.2828   42.8568 H   0  0  0  0  0  0  0  0  0  0  0  0
   44.7553   35.6178   45.7300 H   0  0  0  0  0  0  0  0  0  0  0  0
   45.1084   37.1071   44.7897 H   0  0  0  0  0  0  0  0  0  0  0  0
   43.4499   36.4170   44.7897 H   0  0  0  0  0  0  0  0  0  0  0  0
   47.3866   30.2460   46.5526 H   0  0  0  0  0  0  0  0  0  0  0  0
   48.5091   28.2420   47.5042 H   0  0  0  0  0  0  0  0  0  0  0  0
   53.5367   31.3210   52.6441 H   0  0  0  0  0  0  0  0  0  0  0  0
   53.8333   33.0477   48.7390 H   0  0  0  0  0  0  0  0  0  0  0  0
   51.5166   31.8651   48.9549 H   0  0  0  0  0  0  0  0  0  0  0  0
  1 11  1  0
  1  2  2  0
  3  8  2  0
  4  3  1  0
  4  5  2  0
  5  6  1  0
  6  7  2  0
  7  1  1  0
  8  7  1  0
  9  5  1  0
  9 10  1  0
 11 12  1  0
 12 17  2  0
 13 14  2  0
 13 12  1  0
 14 15  1  0
 15 16  2  0
 16 18  1  0
 17 16  1  0
 19 18  1  0
 19 20  2  0
 21 20  1  0
 22 23  1  0
 22 21  2  0
 23 19  1  0
  3 24  1  0
  4 25  1  0
  9 26  1  0
  9 27  1  0
 10 28  1  0
 10 29  1  0
 10 30  1  0
 13 31  1  0
 14 32  1  0
 20 33  1  0
 22 34  1  0
 23 35  1  0
M  ISO  8  24  14  25  14  26   8  27   8  28   8  29   8  30   8  31  14
M  ISO  4  32  14  33  14  34  14  35   9
M  END
>  <minimizedAffinity>  (1) 
-4.37259054

>  <minimizedRMSD>  (1) 
4.43610573

$$$$
