
     RDKit          3D

 40 41  0  0  0  0  0  0  0  0999 V2000
   45.8020   34.0680   44.9540 C   0  0  0  0  0  0  0  0  0  0  0  0
   44.9440   34.6100   45.6690 O   0  0  0  0  0  0  0  0  0  0  0  0
   44.5310   33.9870   41.4960 C   0  0  0  0  0  0  0  0  0  0  0  0
   45.6760   34.2690   40.7750 C   0  0  0  0  0  0  0  0  0  0  0  0
   46.8530   34.4810   41.4720 C   0  0  0  0  0  0  0  0  0  0  0  0
   46.8430   34.4050   42.8390 N   0  0  0  0  0  0  0  0  0  0  0  0
   45.6880   34.1230   43.5040 C   0  0  0  0  0  0  0  0  0  0  0  0
   44.5440   33.9160   42.8580 N   0  0  0  0  0  0  0  0  0  0  0  0
   48.1590   34.7980   40.7740 C   0  0  0  0  0  0  0  0  0  0  0  0
   48.9400   35.8150   41.6580 C   0  0  0  0  0  0  0  0  0  0  0  0
   46.8950   33.3930   45.5220 O   0  0  0  0  0  0  0  0  0  0  0  0
   46.7790   32.0020   45.6090 C   0  0  0  0  0  0  0  0  0  0  0  0
   47.3990   31.2760   44.5920 C   0  0  0  0  0  0  0  0  0  0  0  0
   47.2830   29.8940   44.6790 C   0  0  0  0  0  0  0  0  0  0  0  0
   46.6140   29.2340   45.6790 N   0  0  0  0  0  0  0  0  0  0  0  0
   46.0360   30.0270   46.6330 C   0  0  0  0  0  0  0  0  0  0  0  0
   46.1180   31.3500   46.5970 N   0  0  0  0  0  0  0  0  0  0  0  0
   45.1590   29.1960   47.9530 S   0  0  0  0  0  0  0  0  0  0  0  0
   44.9620   27.4390   47.6360 C   0  0  0  0  0  0  0  0  0  0  0  0
   44.3500   26.7130   48.8370 C   0  0  0  0  0  0  0  0  0  0  0  0
   46.3460   26.8480   47.4450 C   0  0  0  0  0  0  0  0  0  0  0  0
   44.1810   27.1410   46.3690 C   0  0  0  0  0  0  0  0  0  0  0  0
   43.5867   33.8157   40.9585 H   0  0  0  0  0  0  0  0  0  0  0  0
   45.6526   34.3235   39.6766 H   0  0  0  0  0  0  0  0  0  0  0  0
   48.7500   33.8784   40.6514 H   0  0  0  0  0  0  0  0  0  0  0  0
   47.9675   35.2241   39.7781 H   0  0  0  0  0  0  0  0  0  0  0  0
   48.7653   35.5876   42.7200 H   0  0  0  0  0  0  0  0  0  0  0  0
   50.0155   35.7408   41.4392 H   0  0  0  0  0  0  0  0  0  0  0  0
   48.5908   36.8349   41.4392 H   0  0  0  0  0  0  0  0  0  0  0  0
   47.9453   31.7665   43.7729 H   0  0  0  0  0  0  0  0  0  0  0  0
   47.7593   29.2886   43.8938 H   0  0  0  0  0  0  0  0  0  0  0  0
   44.7278   27.1612   49.7678 H   0  0  0  0  0  0  0  0  0  0  0  0
   43.2545   26.8070   48.8030 H   0  0  0  0  0  0  0  0  0  0  0  0
   44.6280   25.6492   48.8030 H   0  0  0  0  0  0  0  0  0  0  0  0
   46.8006   26.6539   48.4277 H   0  0  0  0  0  0  0  0  0  0  0  0
   46.2678   25.9048   46.8844 H   0  0  0  0  0  0  0  0  0  0  0  0
   46.9732   27.5568   46.8844 H   0  0  0  0  0  0  0  0  0  0  0  0
   43.1836   26.7604   46.6341 H   0  0  0  0  0  0  0  0  0  0  0  0
   44.0766   28.0625   45.7774 H   0  0  0  0  0  0  0  0  0  0  0  0
   44.7169   26.3842   45.7774 H   0  0  0  0  0  0  0  0  0  0  0  0
  1 11  1  0
  1  2  2  0
  3  8  2  0
  4  5  2  0
  4  3  1  0
  5  6  1  0
  6  7  2  0
  7  1  1  0
  8  7  1  0
  9  5  1  0
  9 10  1  0
 11 12  1  0
 12 17  2  0
 13 14  2  0
 13 12  1  0
 14 15  1  0
 15 16  2  0
 16 18  1  0
 17 16  1  0
 19 18  1  0
 19 20  1  0
 21 19  1  0
 22 19  1  0
  3 23  1  0
  4 24  1  0
  9 25  1  0
  9 26  1  0
 10 27  1  0
 10 28  1  0
 10 29  1  0
 13 30  1  0
 14 31  1  0
 20 32  1  0
 20 33  1  0
 20 34  1  0
 21 35  1  0
 21 36  1  0
 21 37  1  0
 22 38  1  0
 22 39  1  0
 22 40  1  0
M  ISO  8  23  14  24  14  25   8  26   8  27   8  28   8  29   8  30  14
M  ISO  8  31  14  32   8  33   8  34   8  35   8  36   8  37   8  38   8
M  ISO  2  39   8  40   8
M  END
>  <minimizedAffinity>  (1) 
-4.66240168

>  <minimizedRMSD>  (1) 
1.80471849

$$$$
