
     RDKit          3D

 35 37  0  0  0  0  0  0  0  0999 V2000
   45.7740   34.1320   44.7870 C   0  0  0  0  0  0  0  0  0  0  0  0
   44.8880   34.6610   45.4710 O   0  0  0  0  0  0  0  0  0  0  0  0
   44.5110   33.9020   41.3360 C   0  0  0  0  0  0  0  0  0  0  0  0
   45.6720   34.1890   40.6100 C   0  0  0  0  0  0  0  0  0  0  0  0
   46.8410   34.4510   41.2950 C   0  0  0  0  0  0  0  0  0  0  0  0
   46.8290   34.4220   42.6720 N   0  0  0  0  0  0  0  0  0  0  0  0
   45.6660   34.1350   43.3380 C   0  0  0  0  0  0  0  0  0  0  0  0
   44.5210   33.8770   42.6960 N   0  0  0  0  0  0  0  0  0  0  0  0
   48.1410   34.7700   40.6100 C   0  0  0  0  0  0  0  0  0  0  0  0
   48.9330   35.7510   41.4980 C   0  0  0  0  0  0  0  0  0  0  0  0
   46.8680   33.5400   45.3950 O   0  0  0  0  0  0  0  0  0  0  0  0
   46.7980   32.1530   45.5920 C   0  0  0  0  0  0  0  0  0  0  0  0
   47.4780   31.3650   44.6540 C   0  0  0  0  0  0  0  0  0  0  0  0
   47.3930   30.0040   44.8710 C   0  0  0  0  0  0  0  0  0  0  0  0
   46.7180   29.4120   45.8930 N   0  0  0  0  0  0  0  0  0  0  0  0
   46.0870   30.2460   46.7570 C   0  0  0  0  0  0  0  0  0  0  0  0
   46.1240   31.5630   46.6130 N   0  0  0  0  0  0  0  0  0  0  0  0
   45.1750   29.5240   48.1340 S   0  0  0  0  0  0  0  0  0  0  0  0
   44.5670   27.8840   47.5860 C   0  0  0  0  0  0  0  0  0  0  0  0
   44.6590   26.7250   48.2150 C   0  0  0  0  0  0  0  0  0  0  0  0
   44.1550   25.5880   47.6770 C   0  0  0  0  0  0  0  0  0  0  0  0
   43.5300   25.7530   46.4010 C   0  0  0  0  0  0  0  0  0  0  0  0
   43.7210   27.6090   46.0520 S   0  0  0  0  0  0  0  0  0  0  0  0
   43.5745   33.6931   40.7981 H   0  0  0  0  0  0  0  0  0  0  0  0
   45.6533   34.2056   39.5103 H   0  0  0  0  0  0  0  0  0  0  0  0
   48.7217   33.8468   40.4673 H   0  0  0  0  0  0  0  0  0  0  0  0
   47.9480   35.2231   39.6264 H   0  0  0  0  0  0  0  0  0  0  0  0
   48.7462   35.5196   42.5570 H   0  0  0  0  0  0  0  0  0  0  0  0
   50.0077   35.6524   41.2852 H   0  0  0  0  0  0  0  0  0  0  0  0
   48.6101   36.7808   41.2852 H   0  0  0  0  0  0  0  0  0  0  0  0
   48.0362   31.7970   43.8103 H   0  0  0  0  0  0  0  0  0  0  0  0
   47.9131   29.3452   44.1600 H   0  0  0  0  0  0  0  0  0  0  0  0
   45.1552   26.6826   49.1958 H   0  0  0  0  0  0  0  0  0  0  0  0
   44.2214   24.6133   48.1825 H   0  0  0  0  0  0  0  0  0  0  0  0
   43.0526   24.9871   45.7721 H   0  0  0  0  0  0  0  0  0  0  0  0
  1 11  1  0
  1  2  2  0
  3  8  2  0
  4  5  2  0
  4  3  1  0
  5  6  1  0
  6  7  2  0
  7  1  1  0
  8  7  1  0
  9  5  1  0
  9 10  1  0
 11 12  1  0
 12 17  2  0
 13 14  2  0
 13 12  1  0
 14 15  1  0
 15 16  2  0
 16 18  1  0
 17 16  1  0
 19 18  1  0
 19 20  2  0
 21 20  1  0
 22 21  2  0
 23 22  1  0
 23 19  1  0
  3 24  1  0
  4 25  1  0
  9 26  1  0
  9 27  1  0
 10 28  1  0
 10 29  1  0
 10 30  1  0
 13 31  1  0
 14 32  1  0
 20 33  1  0
 21 34  1  0
 22 35  1  0
M  ISO  8  24  14  25  14  26   8  27   8  28   8  29   8  30   8  31  14
M  ISO  4  32  14  33  14  34  14  35  14
M  END
>  <minimizedAffinity>  (1) 
-4.68234301

>  <minimizedRMSD>  (1) 
1.81685555

$$$$
