
     RDKit          3D

 51 54  0  0  1  0  0  0  0  0999 V2000
   46.7250   32.2040   45.6500 C   0  0  0  0  0  0  0  0  0  0  0  0
   47.3970   31.5320   44.6190 C   0  0  0  0  0  0  0  0  0  0  0  0
   47.3560   30.1450   44.6960 C   0  0  0  0  0  0  0  0  0  0  0  0
   46.7210   29.4430   45.6840 N   0  0  0  0  0  0  0  0  0  0  0  0
   46.0960   30.1700   46.6430 C   0  0  0  0  0  0  0  0  0  0  0  0
   46.1080   31.4930   46.6110 N   0  0  0  0  0  0  0  0  0  0  0  0
   46.7610   33.5970   45.5820 O   0  0  0  0  0  0  0  0  0  0  0  0
   45.6770   34.2220   44.9690 C   0  0  0  0  0  0  0  0  0  0  0  0
   44.8030   34.7690   45.6570 O   0  0  0  0  0  0  0  0  0  0  0  0
   44.4360   33.9890   41.5170 C   0  0  0  0  0  0  0  0  0  0  0  0
   45.6120   34.2590   40.7900 C   0  0  0  0  0  0  0  0  0  0  0  0
   46.7690   34.5080   41.4770 C   0  0  0  0  0  0  0  0  0  0  0  0
   46.7680   34.4900   42.8670 N   0  0  0  0  0  0  0  0  0  0  0  0
   45.5900   34.2200   43.5270 C   0  0  0  0  0  0  0  0  0  0  0  0
   44.4560   33.9760   42.8760 N   0  0  0  0  0  0  0  0  0  0  0  0
   48.0760   34.8070   40.7900 C   0  0  0  0  0  0  0  0  0  0  0  0
   48.8970   35.7800   41.6970 C   0  0  0  0  0  0  0  0  0  0  0  0
   45.2670   29.2710   47.9330 S   0  0  0  0  0  0  0  0  0  0  0  0
   44.9840   27.5560   47.3460 C   0  0  1  0  0  0  0  0  0  0  0  0
   44.6740   26.6200   48.5130 C   0  0  0  0  0  0  0  0  0  0  0  0
   43.6520   26.9440   47.4690 C   0  0  2  0  0  0  0  0  0  0  0  0
   43.3070   25.9130   46.4120 C   0  0  0  0  0  0  0  0  0  0  0  0
   41.9200   25.3480   46.6150 C   0  0  0  0  0  0  0  0  0  0  0  0
   40.8440   26.3470   46.2650 C   0  0  0  0  0  0  0  0  0  0  0  0
   41.0140   26.7990   44.8500 C   0  0  0  0  0  0  0  0  0  0  0  0
   42.3440   27.4990   44.7280 C   0  0  0  0  0  0  0  0  0  0  0  0
   43.4720   26.5600   45.0650 C   0  0  0  0  0  0  0  0  0  0  0  0
   47.9181   32.0634   43.8091 H   0  0  0  0  0  0  0  0  0  0  0  0
   47.8690   29.5726   43.9091 H   0  0  0  0  0  0  0  0  0  0  0  0
   43.4963   33.7876   40.9819 H   0  0  0  0  0  0  0  0  0  0  0  0
   45.6005   34.2695   39.6901 H   0  0  0  0  0  0  0  0  0  0  0  0
   48.6392   33.8741   40.6402 H   0  0  0  0  0  0  0  0  0  0  0  0
   47.8911   35.2692   39.8091 H   0  0  0  0  0  0  0  0  0  0  0  0
   48.7015   35.5483   42.7544 H   0  0  0  0  0  0  0  0  0  0  0  0
   49.9701   35.6590   41.4874 H   0  0  0  0  0  0  0  0  0  0  0  0
   48.5972   36.8174   41.4874 H   0  0  0  0  0  0  0  0  0  0  0  0
   45.6788   27.6244   46.4959 H   0  0  0  0  0  0  0  0  0  0  0  0
   45.1254   25.6178   48.5555 H   0  0  0  0  0  0  0  0  0  0  0  0
   44.7277   26.6832   49.6099 H   0  0  0  0  0  0  0  0  0  0  0  0
   42.6164   27.3096   47.5322 H   0  0  0  0  0  0  0  0  0  0  0  0
   43.9863   25.0511   46.4876 H   0  0  0  0  0  0  0  0  0  0  0  0
   41.8014   24.4604   45.9762 H   0  0  0  0  0  0  0  0  0  0  0  0
   41.8109   25.0910   47.6790 H   0  0  0  0  0  0  0  0  0  0  0  0
   39.8567   25.8764   46.3820 H   0  0  0  0  0  0  0  0  0  0  0  0
   40.9223   27.2153   46.9357 H   0  0  0  0  0  0  0  0  0  0  0  0
   40.9894   25.9292   44.1771 H   0  0  0  0  0  0  0  0  0  0  0  0
   40.2001   27.4852   44.5731 H   0  0  0  0  0  0  0  0  0  0  0  0
   42.4695   27.8587   43.6961 H   0  0  0  0  0  0  0  0  0  0  0  0
   42.3649   28.3442   45.4317 H   0  0  0  0  0  0  0  0  0  0  0  0
   43.5142   25.7717   44.2990 H   0  0  0  0  0  0  0  0  0  0  0  0
   44.3991   27.1514   45.0924 H   0  0  0  0  0  0  0  0  0  0  0  0
  1  6  2  0
  2  3  2  0
  2  1  1  0
  3  4  1  0
  4  5  2  0
  5 18  1  0
  6  5  1  0
  7  1  1  0
  8  7  1  0
  8  9  2  0
 10 15  2  0
 11 12  2  0
 11 10  1  0
 12 13  1  0
 13 14  2  0
 14  8  1  0
 15 14  1  0
 16 12  1  0
 16 17  1  0
 19 21  1  0
 19 18  1  0
 19 20  1  0
 21 20  1  0
 22 23  1  0
 22 21  1  0
 24 23  1  0
 25 24  1  0
 26 25  1  0
 26 27  1  0
 27 22  1  0
  2 28  1  0
  3 29  1  0
 10 30  1  0
 11 31  1  0
 16 32  1  0
 16 33  1  0
 17 34  1  0
 17 35  1  0
 17 36  1  0
 19 37  1  6
 20 38  1  0
 20 39  1  0
 21 40  1  1
 22 41  1  0
 23 42  1  0
 23 43  1  0
 24 44  1  0
 24 45  1  0
 25 46  1  0
 25 47  1  0
 26 48  1  0
 26 49  1  0
 27 50  1  0
 27 51  1  0
M  ISO  8  28  14  29  14  30  14  31  14  32   8  33   8  34   8  35   8
M  ISO  8  36   8  37  13  38  13  39  13  40  13  41  13  42  13  43  13
M  ISO  8  44  13  45  13  46  13  47  13  48  13  49  13  50  13  51  13
M  END
>  <minimizedAffinity>  (1) 
-5.3082757

>  <minimizedRMSD>  (1) 
0.841911674

$$$$
