
     RDKit          3D

 45 48  0  0  1  0  0  0  0  0999 V2000
   46.8090   31.8980   45.6290 C   0  0  0  0  0  0  0  0  0  0  0  0
   47.5280   31.2160   44.6310 C   0  0  0  0  0  0  0  0  0  0  0  0
   47.4060   29.8260   44.6350 C   0  0  0  0  0  0  0  0  0  0  0  0
   46.6550   29.1150   45.5210 N   0  0  0  0  0  0  0  0  0  0  0  0
   45.9800   29.8530   46.4650 C   0  0  0  0  0  0  0  0  0  0  0  0
   46.0770   31.1770   46.4870 N   0  0  0  0  0  0  0  0  0  0  0  0
   46.9360   33.2750   45.6170 O   0  0  0  0  0  0  0  0  0  0  0  0
   45.8610   33.9820   45.0600 C   0  0  0  0  0  0  0  0  0  0  0  0
   45.0150   34.5210   45.7980 O   0  0  0  0  0  0  0  0  0  0  0  0
   44.5330   34.0370   41.6340 C   0  0  0  0  0  0  0  0  0  0  0  0
   45.6990   34.3130   40.9030 C   0  0  0  0  0  0  0  0  0  0  0  0
   46.8940   34.4720   41.5780 C   0  0  0  0  0  0  0  0  0  0  0  0
   46.9010   34.3540   42.9520 N   0  0  0  0  0  0  0  0  0  0  0  0
   45.7380   34.0840   43.6260 C   0  0  0  0  0  0  0  0  0  0  0  0
   44.5930   33.9310   42.9840 N   0  0  0  0  0  0  0  0  0  0  0  0
   48.1900   34.7670   40.8850 C   0  0  0  0  0  0  0  0  0  0  0  0
   48.9510   35.8490   41.7060 C   0  0  0  0  0  0  0  0  0  0  0  0
   44.9810   28.9720   47.6500 S   0  0  0  0  0  0  0  0  0  0  0  0
   44.4450   27.4030   46.8590 C   0  0  1  0  0  0  0  0  0  0  0  0
   45.1640   26.1920   47.4360 C   0  0  0  0  0  0  0  0  0  0  0  0
   43.6910   26.4040   47.6320 C   0  0  2  0  0  0  0  0  0  0  0  0
   42.7270   25.5890   46.8450 C   0  0  0  0  0  0  0  0  0  0  0  0
   43.1410   24.4390   46.1680 C   0  0  0  0  0  0  0  0  0  0  0  0
   42.2680   23.6580   45.4270 C   0  0  0  0  0  0  0  0  0  0  0  0
   40.9480   24.0500   45.3700 C   0  0  0  0  0  0  0  0  0  0  0  0
   40.4620   25.1840   46.0190 C   0  0  0  0  0  0  0  0  0  0  0  0
   41.3790   25.9220   46.7420 C   0  0  0  0  0  0  0  0  0  0  0  0
   48.1482   31.7457   43.8929 H   0  0  0  0  0  0  0  0  0  0  0  0
   47.9565   29.2636   43.8665 H   0  0  0  0  0  0  0  0  0  0  0  0
   43.5731   33.9071   41.1127 H   0  0  0  0  0  0  0  0  0  0  0  0
   45.6619   34.4015   39.8072 H   0  0  0  0  0  0  0  0  0  0  0  0
   48.7963   33.8511   40.8255 H   0  0  0  0  0  0  0  0  0  0  0  0
   47.9987   35.1316   39.8650 H   0  0  0  0  0  0  0  0  0  0  0  0
   48.8156   35.6565   42.7805 H   0  0  0  0  0  0  0  0  0  0  0  0
   50.0222   35.8108   41.4588 H   0  0  0  0  0  0  0  0  0  0  0  0
   48.5529   36.8442   41.4588 H   0  0  0  0  0  0  0  0  0  0  0  0
   44.2597   27.8601   45.8758 H   0  0  0  0  0  0  0  0  0  0  0  0
   45.5261   25.3933   46.7720 H   0  0  0  0  0  0  0  0  0  0  0  0
   46.0311   26.0295   48.0931 H   0  0  0  0  0  0  0  0  0  0  0  0
   43.0520   26.4116   48.5273 H   0  0  0  0  0  0  0  0  0  0  0  0
   44.1987   24.1425   46.2252 H   0  0  0  0  0  0  0  0  0  0  0  0
   42.6168   22.7562   44.9024 H   0  0  0  0  0  0  0  0  0  0  0  0
   40.2447   23.4393   44.7848 H   0  0  0  0  0  0  0  0  0  0  0  0
   39.4032   25.4760   45.9585 H   0  0  0  0  0  0  0  0  0  0  0  0
   41.0247   26.8224   47.2652 H   0  0  0  0  0  0  0  0  0  0  0  0
  1  6  2  0
  2  3  2  0
  2  1  1  0
  3  4  1  0
  4  5  2  0
  5  6  1  0
  5 18  1  0
  7  1  1  0
  8  7  1  0
  8  9  2  0
 10 15  2  0
 11 12  2  0
 11 10  1  0
 12 13  1  0
 13 14  2  0
 14  8  1  0
 15 14  1  0
 16 12  1  0
 16 17  1  0
 19 20  1  0
 19 21  1  0
 19 18  1  0
 20 21  1  0
 22 21  1  0
 23 22  2  0
 24 23  1  0
 25 24  2  0
 25 26  1  0
 26 27  2  0
 27 22  1  0
  2 28  1  0
  3 29  1  0
 10 30  1  0
 11 31  1  0
 16 32  1  0
 16 33  1  0
 17 34  1  0
 17 35  1  0
 17 36  1  0
 19 37  1  6
 20 38  1  0
 20 39  1  0
 21 40  1  1
 23 41  1  0
 24 42  1  0
 25 43  1  0
 26 44  1  0
 27 45  1  0
M  ISO  8  28  14  29  14  30  14  31  14  32   8  33   8  34   8  35   8
M  ISO  8  36   8  37  13  38  13  39  13  40  13  41  14  42  14  43  14
M  ISO  2  44  14  45  14
M  END
>  <minimizedAffinity>  (1) 
-5.52742147

>  <minimizedRMSD>  (1) 
1.4974637

$$$$
