
     RDKit          3D

 45 48  0  0  1  0  0  0  0  0999 V2000
   46.8100   31.8880   45.6220 C   0  0  0  0  0  0  0  0  0  0  0  0
   47.5360   31.2200   44.6280 C   0  0  0  0  0  0  0  0  0  0  0  0
   47.4160   29.8380   44.6280 C   0  0  0  0  0  0  0  0  0  0  0  0
   46.6580   29.1130   45.5110 N   0  0  0  0  0  0  0  0  0  0  0  0
   45.9860   29.8410   46.4440 C   0  0  0  0  0  0  0  0  0  0  0  0
   46.0730   31.1580   46.4790 N   0  0  0  0  0  0  0  0  0  0  0  0
   46.9310   33.2670   45.6190 O   0  0  0  0  0  0  0  0  0  0  0  0
   45.8540   33.9830   45.0650 C   0  0  0  0  0  0  0  0  0  0  0  0
   45.0140   34.5230   45.7960 O   0  0  0  0  0  0  0  0  0  0  0  0
   44.5430   34.0320   41.6270 C   0  0  0  0  0  0  0  0  0  0  0  0
   45.7090   34.3080   40.8950 C   0  0  0  0  0  0  0  0  0  0  0  0
   46.8890   34.4660   41.5830 C   0  0  0  0  0  0  0  0  0  0  0  0
   46.9100   34.3540   42.9610 N   0  0  0  0  0  0  0  0  0  0  0  0
   45.7360   34.0830   43.6230 C   0  0  0  0  0  0  0  0  0  0  0  0
   44.5870   33.9260   42.9810 N   0  0  0  0  0  0  0  0  0  0  0  0
   48.1840   34.7620   40.8880 C   0  0  0  0  0  0  0  0  0  0  0  0
   48.9500   35.8530   41.7200 C   0  0  0  0  0  0  0  0  0  0  0  0
   44.9880   28.9430   47.6140 S   0  0  0  0  0  0  0  0  0  0  0  0
   44.3830   27.4170   46.7890 C   0  0  1  0  0  0  0  0  0  0  0  0
   45.1020   26.1680   47.3080 C   0  0  0  0  0  0  0  0  0  0  0  0
   43.6630   26.3910   47.5960 C   0  0  2  0  0  0  0  0  0  0  0  0
   42.6880   25.5820   46.8210 C   0  0  0  0  0  0  0  0  0  0  0  0
   43.1360   24.4420   46.1650 C   0  0  0  0  0  0  0  0  0  0  0  0
   42.2680   23.6580   45.4330 C   0  0  0  0  0  0  0  0  0  0  0  0
   40.9470   24.0410   45.3720 C   0  0  0  0  0  0  0  0  0  0  0  0
   40.4510   25.1710   46.0110 C   0  0  0  0  0  0  0  0  0  0  0  0
   41.3560   25.9260   46.7330 C   0  0  0  0  0  0  0  0  0  0  0  0
   48.1594   31.7551   43.8966 H   0  0  0  0  0  0  0  0  0  0  0  0
   47.9722   29.2805   43.8600 H   0  0  0  0  0  0  0  0  0  0  0  0
   43.5863   33.9005   41.1002 H   0  0  0  0  0  0  0  0  0  0  0  0
   45.6792   34.3956   39.7989 H   0  0  0  0  0  0  0  0  0  0  0  0
   48.7910   33.8467   40.8262 H   0  0  0  0  0  0  0  0  0  0  0  0
   47.9929   35.1269   39.8681 H   0  0  0  0  0  0  0  0  0  0  0  0
   48.8132   35.6582   42.7939 H   0  0  0  0  0  0  0  0  0  0  0  0
   50.0216   35.8162   41.4742 H   0  0  0  0  0  0  0  0  0  0  0  0
   48.5514   36.8484   41.4742 H   0  0  0  0  0  0  0  0  0  0  0  0
   44.1550   27.9031   45.8289 H   0  0  0  0  0  0  0  0  0  0  0  0
   45.4089   25.3767   46.6082 H   0  0  0  0  0  0  0  0  0  0  0  0
   46.0006   25.9772   47.9131 H   0  0  0  0  0  0  0  0  0  0  0  0
   43.0746   26.3960   48.5254 H   0  0  0  0  0  0  0  0  0  0  0  0
   44.1974   24.1606   46.2301 H   0  0  0  0  0  0  0  0  0  0  0  0
   42.6207   22.7545   44.9140 H   0  0  0  0  0  0  0  0  0  0  0  0
   40.2496   23.4219   44.7886 H   0  0  0  0  0  0  0  0  0  0  0  0
   39.3893   25.4511   45.9453 H   0  0  0  0  0  0  0  0  0  0  0  0
   41.0027   26.8286   47.2531 H   0  0  0  0  0  0  0  0  0  0  0  0
  1  6  2  0
  2  3  2  0
  2  1  1  0
  3  4  1  0
  4  5  2  0
  5  6  1  0
  5 18  1  0
  7  1  1  0
  8  7  1  0
  8  9  2  0
 10 15  2  0
 11 12  2  0
 11 10  1  0
 12 13  1  0
 13 14  2  0
 14  8  1  0
 15 14  1  0
 16 12  1  0
 16 17  1  0
 19 20  1  0
 19 21  1  0
 19 18  1  0
 20 21  1  0
 22 21  1  0
 23 22  2  0
 24 23  1  0
 25 24  2  0
 25 26  1  0
 26 27  2  0
 27 22  1  0
  2 28  1  0
  3 29  1  0
 10 30  1  0
 11 31  1  0
 16 32  1  0
 16 33  1  0
 17 34  1  0
 17 35  1  0
 17 36  1  0
 19 37  1  6
 20 38  1  0
 20 39  1  0
 21 40  1  1
 23 41  1  0
 24 42  1  0
 25 43  1  0
 26 44  1  0
 27 45  1  0
M  ISO  8  28  14  29  14  30  14  31  14  32   8  33   8  34   8  35   8
M  ISO  8  36   8  37  13  38  13  39  13  40  13  41  14  42  14  43  14
M  ISO  2  44  14  45  14
M  END
>  <minimizedAffinity>  (1) 
-5.52076197

>  <minimizedRMSD>  (1) 
1.58270502

$$$$
