
     RDKit          3D

 35 37  0  0  0  0  0  0  0  0999 V2000
   44.5320   33.9870   41.5240 C   0  0  0  0  0  0  0  0  0  0  0  0
   45.6900   34.2770   40.7930 C   0  0  0  0  0  0  0  0  0  0  0  0
   46.8690   34.4820   41.4710 C   0  0  0  0  0  0  0  0  0  0  0  0
   46.8870   34.3970   42.8560 N   0  0  0  0  0  0  0  0  0  0  0  0
   45.7260   34.1110   43.5250 C   0  0  0  0  0  0  0  0  0  0  0  0
   44.5770   33.9110   42.8820 N   0  0  0  0  0  0  0  0  0  0  0  0
   48.1640   34.7940   40.7730 C   0  0  0  0  0  0  0  0  0  0  0  0
   48.9510   35.8190   41.6490 C   0  0  0  0  0  0  0  0  0  0  0  0
   45.8380   34.0420   44.9630 C   0  0  0  0  0  0  0  0  0  0  0  0
   44.9870   34.5850   45.6860 O   0  0  0  0  0  0  0  0  0  0  0  0
   46.9180   33.3560   45.5300 O   0  0  0  0  0  0  0  0  0  0  0  0
   46.7870   31.9770   45.6310 C   0  0  0  0  0  0  0  0  0  0  0  0
   47.4420   31.2400   44.6350 C   0  0  0  0  0  0  0  0  0  0  0  0
   47.3130   29.8610   44.7320 C   0  0  0  0  0  0  0  0  0  0  0  0
   46.6130   29.2050   45.7030 N   0  0  0  0  0  0  0  0  0  0  0  0
   46.0060   29.9960   46.6350 C   0  0  0  0  0  0  0  0  0  0  0  0
   46.1040   31.3190   46.5790 N   0  0  0  0  0  0  0  0  0  0  0  0
   45.0750   29.1890   47.9290 S   0  0  0  0  0  0  0  0  0  0  0  0
   45.2230   27.3800   47.6650 C   0  0  0  0  0  0  0  0  0  0  0  0
   44.4510   26.5960   48.7300 C   0  0  0  0  0  0  0  0  0  0  0  0
   44.0170   26.6020   47.3030 C   0  0  0  0  0  0  0  0  0  0  0  0
   43.5805   33.8196   40.9979 H   0  0  0  0  0  0  0  0  0  0  0  0
   45.6576   34.3399   39.6953 H   0  0  0  0  0  0  0  0  0  0  0  0
   48.7548   33.8738   40.6541 H   0  0  0  0  0  0  0  0  0  0  0  0
   47.9682   35.2153   39.7759 H   0  0  0  0  0  0  0  0  0  0  0  0
   48.7814   35.5982   42.7132 H   0  0  0  0  0  0  0  0  0  0  0  0
   50.0254   35.7435   41.4255 H   0  0  0  0  0  0  0  0  0  0  0  0
   48.6006   36.8375   41.4255 H   0  0  0  0  0  0  0  0  0  0  0  0
   48.0188   31.7212   43.8314 H   0  0  0  0  0  0  0  0  0  0  0  0
   47.8138   29.2496   43.9669 H   0  0  0  0  0  0  0  0  0  0  0  0
   46.2348   27.4171   47.2350 H   0  0  0  0  0  0  0  0  0  0  0  0
   44.8858   25.6878   49.1728 H   0  0  0  0  0  0  0  0  0  0  0  0
   43.9810   26.8352   49.6953 H   0  0  0  0  0  0  0  0  0  0  0  0
   43.0949   27.1291   47.0168 H   0  0  0  0  0  0  0  0  0  0  0  0
   43.8068   25.8154   46.5633 H   0  0  0  0  0  0  0  0  0  0  0  0
  1  6  2  0
  2  3  2  0
  2  1  1  0
  3  4  1  0
  4  5  2  0
  5  9  1  0
  6  5  1  0
  7  3  1  0
  7  8  1  0
  9 11  1  0
  9 10  2  0
 11 12  1  0
 12 17  2  0
 13 14  2  0
 13 12  1  0
 14 15  1  0
 15 16  2  0
 16 18  1  0
 17 16  1  0
 19 18  1  0
 19 20  1  0
 21 19  1  0
 21 20  1  0
  1 22  1  0
  2 23  1  0
  7 24  1  0
  7 25  1  0
  8 26  1  0
  8 27  1  0
  8 28  1  0
 13 29  1  0
 14 30  1  0
 19 31  1  0
 20 32  1  0
 20 33  1  0
 21 34  1  0
 21 35  1  0
M  ISO  8  22  14  23  14  24   8  25   8  26   8  27   8  28   8  29  14
M  ISO  6  30  14  31  13  32  13  33  13  34  13  35  13
M  END
>  <minimizedAffinity>  (1) 
-4.60465288

>  <minimizedRMSD>  (1) 
1.58713424

$$$$
