
     RDKit          3D

 41 44  0  0  1  0  0  0  0  0999 V2000
   46.7300   31.9680   45.5920 C   0  0  0  0  0  0  0  0  0  0  0  0
   47.4580   31.2690   44.6200 C   0  0  0  0  0  0  0  0  0  0  0  0
   47.3330   29.8780   44.6550 C   0  0  0  0  0  0  0  0  0  0  0  0
   46.5650   29.1870   45.5550 N   0  0  0  0  0  0  0  0  0  0  0  0
   45.8930   29.9500   46.4630 C   0  0  0  0  0  0  0  0  0  0  0  0
   45.9840   31.2720   46.4670 N   0  0  0  0  0  0  0  0  0  0  0  0
   46.8620   33.3420   45.5480 O   0  0  0  0  0  0  0  0  0  0  0  0
   45.8020   34.0530   44.9650 C   0  0  0  0  0  0  0  0  0  0  0  0
   44.9620   34.6190   45.6880 O   0  0  0  0  0  0  0  0  0  0  0  0
   44.5260   33.9880   41.5270 C   0  0  0  0  0  0  0  0  0  0  0  0
   45.6960   34.2690   40.7970 C   0  0  0  0  0  0  0  0  0  0  0  0
   46.8620   34.4700   41.4830 C   0  0  0  0  0  0  0  0  0  0  0  0
   46.8560   34.3900   42.8570 N   0  0  0  0  0  0  0  0  0  0  0  0
   45.7040   34.1160   43.5280 C   0  0  0  0  0  0  0  0  0  0  0  0
   44.5610   33.9170   42.8920 N   0  0  0  0  0  0  0  0  0  0  0  0
   48.1640   34.7750   40.7910 C   0  0  0  0  0  0  0  0  0  0  0  0
   48.9350   35.8200   41.6760 C   0  0  0  0  0  0  0  0  0  0  0  0
   44.8810   29.0950   47.6560 S   0  0  0  0  0  0  0  0  0  0  0  0
   45.3510   27.3460   47.6560 C   0  0  1  0  0  0  0  0  0  0  0  0
   44.5160   26.4760   48.5720 C   0  0  0  0  0  0  0  0  0  0  0  0
   44.4430   26.3030   47.1000 C   0  0  1  0  0  0  0  0  0  0  0  0
   43.2030   26.6900   46.3770 C   0  0  0  0  0  0  0  0  0  0  0  0
   43.1290   27.7000   45.1870 C   0  0  0  0  0  0  0  0  0  0  0  0
   41.3390   27.6650   44.8210 S   0  0  0  0  0  0  0  0  0  0  0  0
   40.9870   26.4130   46.1960 C   0  0  0  0  0  0  0  0  0  0  0  0
   42.0150   26.1830   46.6970 N   0  0  0  0  0  0  0  0  0  0  0  0
   48.0870   31.7821   43.8777 H   0  0  0  0  0  0  0  0  0  0  0  0
   47.8909   29.2960   43.9067 H   0  0  0  0  0  0  0  0  0  0  0  0
   43.5768   33.8244   40.9957 H   0  0  0  0  0  0  0  0  0  0  0  0
   45.6732   34.3257   39.6987 H   0  0  0  0  0  0  0  0  0  0  0  0
   48.7600   33.8560   40.6898 H   0  0  0  0  0  0  0  0  0  0  0  0
   47.9826   35.1786   39.7839 H   0  0  0  0  0  0  0  0  0  0  0  0
   48.7681   35.5938   42.7395 H   0  0  0  0  0  0  0  0  0  0  0  0
   50.0110   35.7656   41.4540 H   0  0  0  0  0  0  0  0  0  0  0  0
   48.5655   36.8320   41.4540 H   0  0  0  0  0  0  0  0  0  0  0  0
   46.4125   27.5766   47.4827 H   0  0  0  0  0  0  0  0  0  0  0  0
   44.9990   25.7079   49.1939 H   0  0  0  0  0  0  0  0  0  0  0  0
   43.7853   26.6626   49.3728 H   0  0  0  0  0  0  0  0  0  0  0  0
   44.5810   25.4575   46.4100 H   0  0  0  0  0  0  0  0  0  0  0  0
   43.9329   28.2739   44.7030 H   0  0  0  0  0  0  0  0  0  0  0  0
   40.0097   25.9878   46.4680 H   0  0  0  0  0  0  0  0  0  0  0  0
  1  6  2  0
  2  3  2  0
  2  1  1  0
  3  4  1  0
  4  5  2  0
  5  6  1  0
  5 18  1  0
  7  1  1  0
  8  7  1  0
  8  9  2  0
 10 15  2  0
 11 12  2  0
 11 10  1  0
 12 13  1  0
 13 14  2  0
 14  8  1  0
 15 14  1  0
 16 12  1  0
 16 17  1  0
 19 18  1  0
 19 20  1  0
 21 19  1  0
 21 20  1  0
 22 26  1  0
 22 21  1  0
 23 22  2  0
 24 23  1  0
 24 25  1  0
 25 26  2  0
  2 27  1  0
  3 28  1  0
 10 29  1  0
 11 30  1  0
 16 31  1  0
 16 32  1  0
 17 33  1  0
 17 34  1  0
 17 35  1  0
 19 36  1  1
 20 37  1  0
 20 38  1  0
 21 39  1  1
 23 40  1  0
 25 41  1  0
M  ISO  8  27  14  28  14  29  14  30  14  31   8  32   8  33   8  34   8
M  ISO  7  35   8  36  13  37  13  38  13  39  13  40  14  41  14
M  END
>  <minimizedAffinity>  (1) 
-5.05590487

>  <minimizedRMSD>  (1) 
0.611075103

$$$$
