
     RDKit          3D

 42 45  0  0  1  0  0  0  0  0999 V2000
   46.8590   31.7470   45.5020 C   0  0  0  0  0  0  0  0  0  0  0  0
   47.5700   31.0910   44.4980 C   0  0  0  0  0  0  0  0  0  0  0  0
   47.4300   29.7050   44.4720 C   0  0  0  0  0  0  0  0  0  0  0  0
   46.6640   28.9900   45.3440 N   0  0  0  0  0  0  0  0  0  0  0  0
   46.0040   29.7090   46.2940 C   0  0  0  0  0  0  0  0  0  0  0  0
   46.1200   31.0200   46.3380 N   0  0  0  0  0  0  0  0  0  0  0  0
   47.0010   33.1330   45.5260 O   0  0  0  0  0  0  0  0  0  0  0  0
   45.9220   33.8770   45.0170 C   0  0  0  0  0  0  0  0  0  0  0  0
   45.1050   34.4010   45.7920 O   0  0  0  0  0  0  0  0  0  0  0  0
   44.5630   34.0350   41.6040 C   0  0  0  0  0  0  0  0  0  0  0  0
   45.7060   34.3250   40.8670 C   0  0  0  0  0  0  0  0  0  0  0  0
   46.9070   34.4630   41.5310 C   0  0  0  0  0  0  0  0  0  0  0  0
   46.9330   34.3060   42.9010 N   0  0  0  0  0  0  0  0  0  0  0  0
   45.7850   34.0210   43.5900 C   0  0  0  0  0  0  0  0  0  0  0  0
   44.6250   33.8870   42.9630 N   0  0  0  0  0  0  0  0  0  0  0  0
   48.1990   34.7770   40.8270 C   0  0  0  0  0  0  0  0  0  0  0  0
   48.9640   35.8380   41.6670 C   0  0  0  0  0  0  0  0  0  0  0  0
   44.9930   28.8100   47.4510 S   0  0  0  0  0  0  0  0  0  0  0  0
   44.2400   27.3880   46.5600 C   0  0  1  0  0  0  0  0  0  0  0  0
   44.9620   26.0780   46.8880 C   0  0  0  0  0  0  0  0  0  0  0  0
   43.5710   26.3130   47.3430 C   0  0  2  0  0  0  0  0  0  0  0  0
   42.4880   25.5740   46.6340 C   0  0  0  0  0  0  0  0  0  0  0  0
   41.1460   25.9700   46.5840 C   0  0  0  0  0  0  0  0  0  0  0  0
   40.5400   25.0020   45.8370 C   0  0  0  0  0  0  0  0  0  0  0  0
   41.4340   24.0540   45.4380 N   0  0  0  0  0  0  0  0  0  0  0  0
   42.6020   24.4210   45.9310 N   0  0  0  0  0  0  0  0  0  0  0  0
   48.1990   31.6312   43.7752 H   0  0  0  0  0  0  0  0  0  0  0  0
   47.9750   29.1496   43.6945 H   0  0  0  0  0  0  0  0  0  0  0  0
   43.5977   33.9233   41.0885 H   0  0  0  0  0  0  0  0  0  0  0  0
   45.6533   34.4422   39.7745 H   0  0  0  0  0  0  0  0  0  0  0  0
   48.8061   33.8640   40.7380 H   0  0  0  0  0  0  0  0  0  0  0  0
   47.9974   35.1647   39.8175 H   0  0  0  0  0  0  0  0  0  0  0  0
   48.8167   35.6337   42.7378 H   0  0  0  0  0  0  0  0  0  0  0  0
   50.0368   35.7903   41.4288 H   0  0  0  0  0  0  0  0  0  0  0  0
   48.5798   36.8408   41.4288 H   0  0  0  0  0  0  0  0  0  0  0  0
   43.9292   27.9673   45.6781 H   0  0  0  0  0  0  0  0  0  0  0  0
   45.1667   25.3461   46.0927 H   0  0  0  0  0  0  0  0  0  0  0  0
   45.9100   25.8079   47.3762 H   0  0  0  0  0  0  0  0  0  0  0  0
   43.0754   26.2622   48.3237 H   0  0  0  0  0  0  0  0  0  0  0  0
   40.6856   26.8579   47.0419 H   0  0  0  0  0  0  0  0  0  0  0  0
   39.4684   24.9887   45.5890 H   0  0  0  0  0  0  0  0  0  0  0  0
   41.2378   23.2195   44.8670 H   0  0  0  0  0  0  0  0  0  0  0  0
  1  7  1  0
  1  6  1  0
  2  1  2  0
  3  2  1  0
  3  4  2  0
  4  5  1  0
  5  6  2  0
  5 18  1  0
  8  7  1  0
  8  9  2  0
 10 15  2  0
 11 12  2  0
 11 10  1  0
 12 13  1  0
 13 14  2  0
 14  8  1  0
 15 14  1  0
 16 12  1  0
 16 17  1  0
 19 20  1  0
 19 21  1  0
 19 18  1  0
 20 21  1  0
 22 21  1  0
 23 22  1  0
 24 23  2  0
 25 24  1  0
 25 26  1  0
 26 22  2  0
  2 27  1  0
  3 28  1  0
 10 29  1  0
 11 30  1  0
 16 31  1  0
 16 32  1  0
 17 33  1  0
 17 34  1  0
 17 35  1  0
 19 36  1  6
 20 37  1  0
 20 38  1  0
 21 39  1  1
 23 40  1  0
 24 41  1  0
 25 42  1  0
M  ISO  8  27  14  28  14  29  14  30  14  31   8  32   8  33   8  34   8
M  ISO  8  35   8  36  13  37  13  38  13  39  13  40  14  41  14  42   9
M  END
>  <minimizedAffinity>  (1) 
-5.10357189

>  <minimizedRMSD>  (1) 
1.47309029

$$$$
