
     RDKit          3D

 48 51  0  0  1  0  0  0  0  0999 V2000
   46.7980   32.0040   45.5590 C   0  0  0  0  0  0  0  0  0  0  0  0
   47.4880   31.3400   44.5490 C   0  0  0  0  0  0  0  0  0  0  0  0
   47.4060   29.9570   44.5880 C   0  0  0  0  0  0  0  0  0  0  0  0
   46.7190   29.2330   45.5190 N   0  0  0  0  0  0  0  0  0  0  0  0
   46.0750   29.9590   46.4700 C   0  0  0  0  0  0  0  0  0  0  0  0
   46.1200   31.2850   46.4780 N   0  0  0  0  0  0  0  0  0  0  0  0
   46.8730   33.3940   45.5310 O   0  0  0  0  0  0  0  0  0  0  0  0
   45.8050   34.0640   44.9460 C   0  0  0  0  0  0  0  0  0  0  0  0
   44.9550   34.6120   45.6620 O   0  0  0  0  0  0  0  0  0  0  0  0
   44.5020   33.9560   41.5060 C   0  0  0  0  0  0  0  0  0  0  0  0
   45.6630   34.2580   40.7800 C   0  0  0  0  0  0  0  0  0  0  0  0
   46.8350   34.4870   41.4550 C   0  0  0  0  0  0  0  0  0  0  0  0
   46.8460   34.4140   42.8410 N   0  0  0  0  0  0  0  0  0  0  0  0
   45.6910   34.1160   43.5020 C   0  0  0  0  0  0  0  0  0  0  0  0
   44.5500   33.8930   42.8590 N   0  0  0  0  0  0  0  0  0  0  0  0
   48.1320   34.8190   40.7630 C   0  0  0  0  0  0  0  0  0  0  0  0
   48.9320   35.7910   41.6710 C   0  0  0  0  0  0  0  0  0  0  0  0
   45.1570   29.0720   47.7180 S   0  0  0  0  0  0  0  0  0  0  0  0
   44.8530   27.3820   47.0780 C   0  0  1  0  0  0  0  0  0  0  0  0
   44.3750   26.4250   48.1800 C   0  0  0  0  0  0  0  0  0  0  0  0
   43.4720   26.8360   47.0880 C   0  0  2  0  0  0  0  0  0  0  0  0
   42.9690   25.9740   46.0970 N   0  0  0  0  0  0  0  0  0  0  0  0
   41.7360   26.2780   45.4730 C   0  0  0  0  0  0  0  0  0  0  0  0
   40.6710   25.3580   46.0340 C   0  0  0  0  0  0  0  0  0  0  0  0
   40.9390   24.0920   45.5240 O   0  0  0  0  0  0  0  0  0  0  0  0
   42.2660   23.7590   45.4590 C   0  0  0  0  0  0  0  0  0  0  0  0
   43.1700   24.5700   46.3550 C   0  0  0  0  0  0  0  0  0  0  0  0
   48.0579   31.8748   43.7749 H   0  0  0  0  0  0  0  0  0  0  0  0
   47.9380   29.3972   43.8047 H   0  0  0  0  0  0  0  0  0  0  0  0
   43.5546   33.7707   40.9787 H   0  0  0  0  0  0  0  0  0  0  0  0
   45.6343   34.3107   39.6816 H   0  0  0  0  0  0  0  0  0  0  0  0
   48.7128   33.8992   40.5996 H   0  0  0  0  0  0  0  0  0  0  0  0
   47.9330   35.2875   39.7878 H   0  0  0  0  0  0  0  0  0  0  0  0
   48.7354   35.5522   42.7266 H   0  0  0  0  0  0  0  0  0  0  0  0
   50.0072   35.6841   41.4649 H   0  0  0  0  0  0  0  0  0  0  0  0
   48.6203   36.8256   41.4649 H   0  0  0  0  0  0  0  0  0  0  0  0
   45.6307   27.4316   46.3016 H   0  0  0  0  0  0  0  0  0  0  0  0
   44.7584   25.3948   48.2218 H   0  0  0  0  0  0  0  0  0  0  0  0
   44.3380   26.4520   49.2790 H   0  0  0  0  0  0  0  0  0  0  0  0
   42.4662   27.2808   47.0635 H   0  0  0  0  0  0  0  0  0  0  0  0
   41.8227   26.1258   44.3870 H   0  0  0  0  0  0  0  0  0  0  0  0
   41.4659   27.3269   45.6651 H   0  0  0  0  0  0  0  0  0  0  0  0
   40.7204   25.3440   47.1328 H   0  0  0  0  0  0  0  0  0  0  0  0
   39.6627   25.6964   45.7532 H   0  0  0  0  0  0  0  0  0  0  0  0
   42.3667   22.7004   45.7403 H   0  0  0  0  0  0  0  0  0  0  0  0
   42.5861   23.9682   44.4276 H   0  0  0  0  0  0  0  0  0  0  0  0
   44.2187   24.3066   46.1529 H   0  0  0  0  0  0  0  0  0  0  0  0
   42.9335   24.3532   47.4072 H   0  0  0  0  0  0  0  0  0  0  0  0
  1  6  2  0
  2  3  2  0
  2  1  1  0
  3  4  1  0
  4  5  2  0
  5  6  1  0
  5 18  1  0
  7  1  1  0
  8  7  1  0
  8  9  2  0
 10 15  2  0
 11 12  2  0
 11 10  1  0
 12 13  1  0
 13 14  2  0
 14  8  1  0
 15 14  1  0
 16 12  1  0
 16 17  1  0
 19 21  1  0
 19 18  1  0
 19 20  1  0
 21 20  1  0
 22 27  1  0
 22 21  1  0
 23 24  1  0
 23 22  1  0
 25 24  1  0
 26 25  1  0
 26 27  1  0
  2 28  1  0
  3 29  1  0
 10 30  1  0
 11 31  1  0
 16 32  1  0
 16 33  1  0
 17 34  1  0
 17 35  1  0
 17 36  1  0
 19 37  1  6
 20 38  1  0
 20 39  1  0
 21 40  1  1
 23 41  1  0
 23 42  1  0
 24 43  1  0
 24 44  1  0
 26 45  1  0
 26 46  1  0
 27 47  1  0
 27 48  1  0
M  ISO  8  28  14  29  14  30  14  31  14  32   8  33   8  34   8  35   8
M  ISO  8  36   8  37  13  38  13  39  13  40  13  41  13  42  13  43  13
M  ISO  5  44  13  45  13  46  13  47  13  48  13
M  END
>  <minimizedAffinity>  (1) 
-5.00810051

>  <minimizedRMSD>  (1) 
0.78388226

$$$$
