
     RDKit          3D

 47 49  0  0  1  0  0  0  0  0999 V2000
   46.8000   31.9990   45.5450 C   0  0  0  0  0  0  0  0  0  0  0  0
   47.5530   31.3580   44.5590 C   0  0  0  0  0  0  0  0  0  0  0  0
   47.4860   29.9690   44.5570 C   0  0  0  0  0  0  0  0  0  0  0  0
   46.7480   29.2300   45.4370 N   0  0  0  0  0  0  0  0  0  0  0  0
   46.0400   29.9330   46.3730 C   0  0  0  0  0  0  0  0  0  0  0  0
   46.0830   31.2580   46.4020 N   0  0  0  0  0  0  0  0  0  0  0  0
   46.8720   33.3950   45.5390 O   0  0  0  0  0  0  0  0  0  0  0  0
   45.7910   34.0700   44.9590 C   0  0  0  0  0  0  0  0  0  0  0  0
   44.9410   34.6050   45.6720 O   0  0  0  0  0  0  0  0  0  0  0  0
   44.5230   33.9520   41.5100 C   0  0  0  0  0  0  0  0  0  0  0  0
   45.6790   34.2530   40.7800 C   0  0  0  0  0  0  0  0  0  0  0  0
   46.8470   34.4860   41.4680 C   0  0  0  0  0  0  0  0  0  0  0  0
   46.8540   34.4190   42.8520 N   0  0  0  0  0  0  0  0  0  0  0  0
   45.6990   34.1210   43.5180 C   0  0  0  0  0  0  0  0  0  0  0  0
   44.5530   33.8910   42.8670 N   0  0  0  0  0  0  0  0  0  0  0  0
   48.1480   34.8180   40.7780 C   0  0  0  0  0  0  0  0  0  0  0  0
   48.9330   35.8050   41.6800 C   0  0  0  0  0  0  0  0  0  0  0  0
   45.0700   29.0090   47.5360 S   0  0  0  0  0  0  0  0  0  0  0  0
   44.5870   27.4380   46.7460 C   0  0  1  0  0  0  0  0  0  0  0  0
   44.7250   26.2420   47.6820 C   0  0  0  0  0  0  0  0  0  0  0  0
   43.3920   26.7040   47.2320 C   0  0  2  0  0  0  0  0  0  0  0  0
   42.5370   25.8890   46.3240 C   0  0  0  0  0  0  0  0  0  0  0  0
   42.7220   26.4570   44.9120 C   0  0  0  0  0  0  0  0  0  0  0  0
   43.0770   24.4550   46.2370 C   0  0  0  0  0  0  0  0  0  0  0  0
   41.1040   25.7760   46.6930 C   0  0  0  0  0  0  0  0  0  0  0  0
   48.1600   31.9159   43.8308 H   0  0  0  0  0  0  0  0  0  0  0  0
   48.0669   29.4288   43.7949 H   0  0  0  0  0  0  0  0  0  0  0  0
   43.5788   33.7625   40.9784 H   0  0  0  0  0  0  0  0  0  0  0  0
   45.6538   34.3020   39.6814 H   0  0  0  0  0  0  0  0  0  0  0  0
   48.7360   33.9003   40.6293 H   0  0  0  0  0  0  0  0  0  0  0  0
   47.9533   35.2721   39.7952 H   0  0  0  0  0  0  0  0  0  0  0  0
   48.7431   35.5662   42.7368 H   0  0  0  0  0  0  0  0  0  0  0  0
   50.0093   35.7154   41.4715 H   0  0  0  0  0  0  0  0  0  0  0  0
   48.6035   36.8336   41.4715 H   0  0  0  0  0  0  0  0  0  0  0  0
   44.9157   27.7430   45.7415 H   0  0  0  0  0  0  0  0  0  0  0  0
   45.1357   25.2925   47.3081 H   0  0  0  0  0  0  0  0  0  0  0  0
   45.2031   26.0614   48.6561 H   0  0  0  0  0  0  0  0  0  0  0  0
   42.4679   27.0017   47.7490 H   0  0  0  0  0  0  0  0  0  0  0  0
   43.0620   27.5010   44.9784 H   0  0  0  0  0  0  0  0  0  0  0  0
   43.4723   25.8606   44.3723 H   0  0  0  0  0  0  0  0  0  0  0  0
   41.7644   26.4169   44.3723 H   0  0  0  0  0  0  0  0  0  0  0  0
   43.2267   24.0574   47.2516 H   0  0  0  0  0  0  0  0  0  0  0  0
   42.3551   23.8234   45.6985 H   0  0  0  0  0  0  0  0  0  0  0  0
   44.0362   24.4564   45.6985 H   0  0  0  0  0  0  0  0  0  0  0  0
   41.0070   25.7684   47.7887 H   0  0  0  0  0  0  0  0  0  0  0  0
   40.5508   26.6333   46.2819 H   0  0  0  0  0  0  0  0  0  0  0  0
   40.6920   24.8426   46.2819 H   0  0  0  0  0  0  0  0  0  0  0  0
  1  6  1  0
  2  1  2  0
  3  2  1  0
  3  4  2  0
  4  5  1  0
  5  6  2  0
  5 18  1  0
  7  1  1  0
  8  7  1  0
  8  9  2  0
 10 15  2  0
 11 12  2  0
 11 10  1  0
 12 13  1  0
 13 14  2  0
 14  8  1  0
 15 14  1  0
 16 12  1  0
 16 17  1  0
 19 21  1  0
 19 18  1  0
 19 20  1  0
 21 20  1  0
 22 25  1  0
 22 21  1  0
 23 22  1  0
 24 22  1  0
  2 26  1  0
  3 27  1  0
 10 28  1  0
 11 29  1  0
 16 30  1  0
 16 31  1  0
 17 32  1  0
 17 33  1  0
 17 34  1  0
 19 35  1  6
 20 36  1  0
 20 37  1  0
 21 38  1  1
 23 39  1  0
 23 40  1  0
 23 41  1  0
 24 42  1  0
 24 43  1  0
 24 44  1  0
 25 45  1  0
 25 46  1  0
 25 47  1  0
M  ISO  8  26  14  27  14  28  14  29  14  30   8  31   8  32   8  33   8
M  ISO  8  34   8  35  13  36  13  37  13  38  13  39   8  40   8  41   8
M  ISO  6  42   8  43   8  44   8  45   8  46   8  47   8
M  END
>  <minimizedAffinity>  (1) 
-4.97638321

>  <minimizedRMSD>  (1) 
1.00957143

$$$$
