
     RDKit          3D

 43 46  0  0  1  0  0  0  0  0999 V2000
   46.9120   31.6750   45.5600 C   0  0  0  0  0  0  0  0  0  0  0  0
   47.6060   30.9740   44.5520 C   0  0  0  0  0  0  0  0  0  0  0  0
   47.4460   29.5970   44.5780 C   0  0  0  0  0  0  0  0  0  0  0  0
   46.6930   28.9030   45.4800 N   0  0  0  0  0  0  0  0  0  0  0  0
   46.0570   29.6600   46.4180 C   0  0  0  0  0  0  0  0  0  0  0  0
   46.1830   30.9740   46.4280 N   0  0  0  0  0  0  0  0  0  0  0  0
   47.0750   33.0530   45.5290 O   0  0  0  0  0  0  0  0  0  0  0  0
   45.9890   33.7880   45.0540 C   0  0  0  0  0  0  0  0  0  0  0  0
   45.1630   34.2920   45.8430 O   0  0  0  0  0  0  0  0  0  0  0  0
   44.5520   34.0210   41.6780 C   0  0  0  0  0  0  0  0  0  0  0  0
   45.6950   34.3240   40.9200 C   0  0  0  0  0  0  0  0  0  0  0  0
   46.9110   34.4400   41.5640 C   0  0  0  0  0  0  0  0  0  0  0  0
   46.9640   34.2570   42.9280 N   0  0  0  0  0  0  0  0  0  0  0  0
   45.8260   33.9630   43.6210 C   0  0  0  0  0  0  0  0  0  0  0  0
   44.6500   33.8470   43.0220 N   0  0  0  0  0  0  0  0  0  0  0  0
   48.1870   34.7600   40.8430 C   0  0  0  0  0  0  0  0  0  0  0  0
   48.9620   35.8350   41.6680 C   0  0  0  0  0  0  0  0  0  0  0  0
   45.0470   28.8120   47.6370 S   0  0  0  0  0  0  0  0  0  0  0  0
   44.6260   27.1670   46.9450 C   0  0  1  0  0  0  0  0  0  0  0  0
   45.0510   26.0200   47.8420 C   0  0  0  0  0  0  0  0  0  0  0  0
   43.6170   26.3290   47.6530 C   0  0  2  0  0  0  0  0  0  0  0  0
   42.7150   25.5010   46.8400 C   0  0  0  0  0  0  0  0  0  0  0  0
   41.4080   25.8780   46.7120 C   0  0  0  0  0  0  0  0  0  0  0  0
   40.5470   25.1000   45.9430 C   0  0  0  0  0  0  0  0  0  0  0  0
   41.0280   24.0010   45.3480 N   0  0  0  0  0  0  0  0  0  0  0  0
   42.3170   23.6090   45.4600 C   0  0  0  0  0  0  0  0  0  0  0  0
   43.1570   24.3740   46.2140 N   0  0  0  0  0  0  0  0  0  0  0  0
   48.2283   31.4822   43.8007 H   0  0  0  0  0  0  0  0  0  0  0  0
   47.9705   29.0146   43.8062 H   0  0  0  0  0  0  0  0  0  0  0  0
   43.5748   33.9243   41.1822 H   0  0  0  0  0  0  0  0  0  0  0  0
   45.6227   34.4665   39.8317 H   0  0  0  0  0  0  0  0  0  0  0  0
   48.7991   33.8508   40.7495 H   0  0  0  0  0  0  0  0  0  0  0  0
   47.9665   35.1428   39.8356 H   0  0  0  0  0  0  0  0  0  0  0  0
   48.8235   35.6429   42.7422 H   0  0  0  0  0  0  0  0  0  0  0  0
   50.0329   35.7846   41.4216 H   0  0  0  0  0  0  0  0  0  0  0  0
   48.5757   36.8350   41.4216 H   0  0  0  0  0  0  0  0  0  0  0  0
   44.7475   27.4732   45.8955 H   0  0  0  0  0  0  0  0  0  0  0  0
   45.4804   25.1073   47.4032 H   0  0  0  0  0  0  0  0  0  0  0  0
   45.7183   25.9149   48.7102 H   0  0  0  0  0  0  0  0  0  0  0  0
   42.7974   26.4957   48.3675 H   0  0  0  0  0  0  0  0  0  0  0  0
   41.0400   26.7865   47.2112 H   0  0  0  0  0  0  0  0  0  0  0  0
   39.4905   25.3830   45.8262 H   0  0  0  0  0  0  0  0  0  0  0  0
   42.6777   22.6994   44.9575 H   0  0  0  0  0  0  0  0  0  0  0  0
  1  6  2  0
  2  3  2  0
  2  1  1  0
  3  4  1  0
  4  5  2  0
  5  6  1  0
  5 18  1  0
  7  1  1  0
  8  7  1  0
  8  9  2  0
 10 15  2  0
 11 12  2  0
 11 10  1  0
 12 13  1  0
 13 14  2  0
 14  8  1  0
 15 14  1  0
 16 12  1  0
 16 17  1  0
 19 18  1  0
 19 21  1  0
 19 20  1  0
 21 20  1  0
 22 21  1  0
 23 22  2  0
 24 23  1  0
 25 26  1  0
 25 24  2  0
 26 27  2  0
 27 22  1  0
  2 28  1  0
  3 29  1  0
 10 30  1  0
 11 31  1  0
 16 32  1  0
 16 33  1  0
 17 34  1  0
 17 35  1  0
 17 36  1  0
 19 37  1  6
 20 38  1  0
 20 39  1  0
 21 40  1  1
 23 41  1  0
 24 42  1  0
 26 43  1  0
M  ISO  8  28  14  29  14  30  14  31  14  32   8  33   8  34   8  35   8
M  ISO  8  36   8  37  13  38  13  39  13  40  13  41  14  42  14  43  14
M  END
>  <minimizedAffinity>  (1) 
-5.23556614

>  <minimizedRMSD>  (1) 
1.3509798

$$$$
