
     RDKit          3D

 36 39  0  0  0  0  0  0  0  0999 V2000
   44.6940   35.8270   45.0400 C   0  0  0  0  0  0  0  0  0  0  0  0
   44.1890   35.7810   43.7360 C   0  0  0  0  0  0  0  0  0  0  0  0
   44.3680   34.6320   42.9990 C   0  0  0  0  0  0  0  0  0  0  0  0
   45.0300   33.6000   43.5680 N   0  0  0  0  0  0  0  0  0  0  0  0
   45.5220   33.6470   44.8360 C   0  0  0  0  0  0  0  0  0  0  0  0
   45.3410   34.7620   45.5450 N   0  0  0  0  0  0  0  0  0  0  0  0
   44.0000   34.3840   41.6230 C   0  0  0  0  0  0  0  0  0  0  0  0
   44.8960   33.6530   40.8340 C   0  0  0  0  0  0  0  0  0  0  0  0
   44.7050   33.3140   39.5130 C   0  0  0  0  0  0  0  0  0  0  0  0
   43.5480   33.7070   38.8810 C   0  0  0  0  0  0  0  0  0  0  0  0
   42.6200   34.4260   39.6000 C   0  0  0  0  0  0  0  0  0  0  0  0
   41.4370   34.8020   39.0040 C   0  0  0  0  0  0  0  0  0  0  0  0
   40.4400   35.4970   39.6860 C   0  0  0  0  0  0  0  0  0  0  0  0
   40.7140   35.7930   41.0270 C   0  0  0  0  0  0  0  0  0  0  0  0
   41.9100   35.3980   41.5770 C   0  0  0  0  0  0  0  0  0  0  0  0
   42.8840   34.7220   40.9050 C   0  0  0  0  0  0  0  0  0  0  0  0
   46.2250   32.5080   45.4040 C   0  0  0  0  0  0  0  0  0  0  0  0
   47.1490   31.6950   44.7630 C   0  0  0  0  0  0  0  0  0  0  0  0
   47.5810   30.7400   45.6370 N   0  0  0  0  0  0  0  0  0  0  0  0
   46.9250   30.9740   46.7980 C   0  0  0  0  0  0  0  0  0  0  0  0
   46.1010   32.0470   46.6590 N   0  0  0  0  0  0  0  0  0  0  0  0
   45.2290   32.6150   47.6720 C   0  0  0  0  0  0  0  0  0  0  0  0
   44.2610   31.6820   48.0970 F   0  0  0  0  0  0  0  0  0  0  0  0
   44.5890   33.7780   47.2280 F   0  0  0  0  0  0  0  0  0  0  0  0
   45.9550   32.9200   48.8150 F   0  0  0  0  0  0  0  0  0  0  0  0
   44.5620   36.7324   45.6507 H   0  0  0  0  0  0  0  0  0  0  0  0
   43.6597   36.6453   43.3083 H   0  0  0  0  0  0  0  0  0  0  0  0
   45.8311   33.3216   41.3091 H   0  0  0  0  0  0  0  0  0  0  0  0
   45.4677   32.7364   38.9702 H   0  0  0  0  0  0  0  0  0  0  0  0
   43.3686   33.4527   37.8259 H   0  0  0  0  0  0  0  0  0  0  0  0
   41.2724   34.5435   37.9476 H   0  0  0  0  0  0  0  0  0  0  0  0
   39.4980   35.7941   39.2019 H   0  0  0  0  0  0  0  0  0  0  0  0
   39.9773   36.3377   41.6358 H   0  0  0  0  0  0  0  0  0  0  0  0
   42.0938   35.6447   42.6331 H   0  0  0  0  0  0  0  0  0  0  0  0
   47.4797   31.8028   43.7194 H   0  0  0  0  0  0  0  0  0  0  0  0
   47.0414   30.3831   47.7185 H   0  0  0  0  0  0  0  0  0  0  0  0
  1  6  2  0
  2  1  1  0
  3  4  1  0
  3  2  2  0
  4  5  2  0
  5 17  1  0
  5  6  1  0
  7  3  1  0
  8  7  2  0
  9  8  1  0
 10  9  2  0
 10 11  1  0
 11 16  2  0
 12 11  1  0
 12 13  2  0
 13 14  1  0
 14 15  2  0
 16 15  1  0
 16  7  1  0
 17 21  1  0
 18 17  2  0
 18 19  1  0
 19 20  2  0
 21 20  1  0
 21 22  1  0
 22 23  1  0
 22 25  1  0
 24 22  1  0
  1 26  1  0
  2 27  1  0
  8 28  1  0
  9 29  1  0
 10 30  1  0
 12 31  1  0
 13 32  1  0
 14 33  1  0
 15 34  1  0
 18 35  1  0
 20 36  1  0
M  ISO  8  26  14  27  14  28  14  29  14  30  14  31  14  32  14  33  14
M  ISO  3  34  14  35  14  36  14
M  END
>  <minimizedAffinity>  (1) 
-6.7966876

>  <minimizedRMSD>  (1) 
1.33373475

$$$$
