
     RDKit          3D

 38 40  0  0  1  0  0  0  0  0999 V2000
   46.9410   31.5040   45.7910 C   0  0  0  0  0  0  0  0  0  0  0  0
   47.5960   30.9710   44.6620 C   0  0  0  0  0  0  0  0  0  0  0  0
   47.5050   29.5920   44.5050 C   0  0  0  0  0  0  0  0  0  0  0  0
   46.8400   28.7610   45.3550 N   0  0  0  0  0  0  0  0  0  0  0  0
   46.2350   29.3480   46.4190 C   0  0  0  0  0  0  0  0  0  0  0  0
   46.3010   30.6550   46.6000 N   0  0  0  0  0  0  0  0  0  0  0  0
   47.0420   32.8790   45.9310 O   0  0  0  0  0  0  0  0  0  0  0  0
   45.9880   33.6310   45.4130 C   0  0  0  0  0  0  0  0  0  0  0  0
   45.0900   34.0570   46.1520 O   0  0  0  0  0  0  0  0  0  0  0  0
   44.9180   33.9550   41.9070 C   0  0  0  0  0  0  0  0  0  0  0  0
   46.0690   34.4910   41.3250 C   0  0  0  0  0  0  0  0  0  0  0  0
   47.1770   34.7320   42.1160 C   0  0  0  0  0  0  0  0  0  0  0  0
   47.1130   34.4340   43.4630 N   0  0  0  0  0  0  0  0  0  0  0  0
   45.9550   33.9070   43.9930 C   0  0  0  0  0  0  0  0  0  0  0  0
   44.8890   33.6740   43.2440 N   0  0  0  0  0  0  0  0  0  0  0  0
   48.4570   35.3040   41.5830 C   0  0  0  0  0  0  0  0  0  0  0  0
   49.6040   34.9090   42.5450 C   0  0  0  0  0  0  0  0  0  0  0  0
   45.3550   28.2870   47.5540 S   0  0  0  0  0  0  0  0  0  0  0  0
   45.8020   26.5510   47.1600 C   0  0  1  0  0  0  0  0  0  0  0  0
   46.7040   25.9440   48.2250 C   0  0  0  0  0  0  0  0  0  0  0  0
   45.3030   25.4540   48.0040 C   0  0  1  0  0  0  0  0  0  0  0  0
   44.3670   25.7780   49.1220 C   0  0  0  0  0  0  0  0  0  0  0  0
   43.1280   25.8220   48.8310 O   0  0  0  0  0  0  0  0  0  0  0  0
   44.8180   26.0170   50.4080 O   0  0  0  0  0  0  0  0  0  0  0  0
   48.1444   31.6056   43.9503 H   0  0  0  0  0  0  0  0  0  0  0  0
   48.0044   29.1415   43.6346 H   0  0  0  0  0  0  0  0  0  0  0  0
   44.0312   33.7583   41.2866 H   0  0  0  0  0  0  0  0  0  0  0  0
   46.0936   34.7189   40.2491 H   0  0  0  0  0  0  0  0  0  0  0  0
   48.6564   34.8984   40.5801 H   0  0  0  0  0  0  0  0  0  0  0  0
   48.3821   36.3992   41.5122 H   0  0  0  0  0  0  0  0  0  0  0  0
   49.2664   35.0253   43.5854 H   0  0  0  0  0  0  0  0  0  0  0  0
   49.8878   33.8613   42.3665 H   0  0  0  0  0  0  0  0  0  0  0  0
   50.4727   35.5597   42.3665 H   0  0  0  0  0  0  0  0  0  0  0  0
   45.7947   26.6965   46.0697 H   0  0  0  0  0  0  0  0  0  0  0  0
   47.5622   25.3199   47.9352 H   0  0  0  0  0  0  0  0  0  0  0  0
   47.2793   26.3258   49.0813 H   0  0  0  0  0  0  0  0  0  0  0  0
   44.8219   24.4943   47.7642 H   0  0  0  0  0  0  0  0  0  0  0  0
   44.1721   26.2293   51.1276 H   0  0  0  0  0  0  0  0  0  0  0  0
  1  7  1  0
  1  6  1  0
  2  1  2  0
  3  2  1  0
  3  4  2  0
  4  5  1  0
  5  6  2  0
  5 18  1  0
  8  7  1  0
  8  9  2  0
 10 15  2  0
 11 10  1  0
 11 12  2  0
 12 13  1  0
 13 14  2  0
 14  8  1  0
 15 14  1  0
 16 12  1  0
 16 17  1  0
 19 18  1  0
 19 21  1  0
 19 20  1  0
 21 20  1  0
 21 22  1  0
 22 24  1  0
 23 22  2  0
  2 25  1  0
  3 26  1  0
 10 27  1  0
 11 28  1  0
 16 29  1  0
 16 30  1  0
 17 31  1  0
 17 32  1  0
 17 33  1  0
 19 34  1  6
 20 35  1  0
 20 36  1  0
 21 37  1  6
 24 38  1  0
M  ISO  8  25  14  26  14  27  14  28  14  29   8  30   8  31   8  32   8
M  ISO  6  33   8  34  13  35  13  36  13  37  13  38   3
M  END
>  <minimizedAffinity>  (1) 
-4.85770559

>  <minimizedRMSD>  (1) 
1.57720244

$$$$
