
     RDKit          3D

 34 37  0  0  0  0  0  0  0  0999 V2000
   44.7360   35.6600   44.7110 C   0  0  0  0  0  0  0  0  0  0  0  0
   44.2940   35.4570   43.3900 C   0  0  0  0  0  0  0  0  0  0  0  0
   44.5370   34.2270   42.7950 C   0  0  0  0  0  0  0  0  0  0  0  0
   45.1790   33.3110   43.5200 N   0  0  0  0  0  0  0  0  0  0  0  0
   45.6070   33.4950   44.7880 C   0  0  0  0  0  0  0  0  0  0  0  0
   45.3830   34.6710   45.3790 N   0  0  0  0  0  0  0  0  0  0  0  0
   44.0350   34.1420   41.4400 C   0  0  0  0  0  0  0  0  0  0  0  0
   44.7220   33.5370   40.4600 N   0  0  0  0  0  0  0  0  0  0  0  0
   44.3170   33.4240   39.1910 C   0  0  0  0  0  0  0  0  0  0  0  0
   43.1500   33.9190   38.7730 N   0  0  0  0  0  0  0  0  0  0  0  0
   42.3750   34.5490   39.6750 C   0  0  0  0  0  0  0  0  0  0  0  0
   41.1670   35.0710   39.2750 C   0  0  0  0  0  0  0  0  0  0  0  0
   40.3450   35.7230   40.1680 C   0  0  0  0  0  0  0  0  0  0  0  0
   40.7870   35.8300   41.4860 C   0  0  0  0  0  0  0  0  0  0  0  0
   42.0040   35.2910   41.8340 C   0  0  0  0  0  0  0  0  0  0  0  0
   42.8410   34.6380   40.9680 C   0  0  0  0  0  0  0  0  0  0  0  0
   46.2830   32.4310   45.4960 C   0  0  0  0  0  0  0  0  0  0  0  0
   47.2570   31.5620   45.0200 C   0  0  0  0  0  0  0  0  0  0  0  0
   47.6390   30.7050   45.9910 N   0  0  0  0  0  0  0  0  0  0  0  0
   46.9040   31.0370   47.0750 C   0  0  0  0  0  0  0  0  0  0  0  0
   46.0800   32.0800   46.7900 N   0  0  0  0  0  0  0  0  0  0  0  0
   45.1310   32.7300   47.6960 C   0  0  0  0  0  0  0  0  0  0  0  0
   44.1100   31.8610   48.0630 F   0  0  0  0  0  0  0  0  0  0  0  0
   44.6100   33.8990   47.1430 F   0  0  0  0  0  0  0  0  0  0  0  0
   45.7780   33.0640   48.8910 F   0  0  0  0  0  0  0  0  0  0  0  0
   44.5560   36.6261   45.2051 H   0  0  0  0  0  0  0  0  0  0  0  0
   43.7689   36.2538   42.8428 H   0  0  0  0  0  0  0  0  0  0  0  0
   44.9658   32.9069   38.4687 H   0  0  0  0  0  0  0  0  0  0  0  0
   40.8524   34.9663   38.2262 H   0  0  0  0  0  0  0  0  0  0  0  0
   39.3780   36.1426   39.8535 H   0  0  0  0  0  0  0  0  0  0  0  0
   40.1691   36.3400   42.2397 H   0  0  0  0  0  0  0  0  0  0  0  0
   42.3276   35.3913   42.8805 H   0  0  0  0  0  0  0  0  0  0  0  0
   47.6601   31.5709   43.9965 H   0  0  0  0  0  0  0  0  0  0  0  0
   46.9640   30.5338   48.0513 H   0  0  0  0  0  0  0  0  0  0  0  0
  1  6  2  0
  2  1  1  0
  3  2  2  0
  3  4  1  0
  4  5  2  0
  5  6  1  0
  5 17  1  0
  7  3  1  0
  8  7  2  0
  9  8  1  0
 10  9  2  0
 10 11  1  0
 11 16  2  0
 12 11  1  0
 12 13  2  0
 13 14  1  0
 14 15  2  0
 16  7  1  0
 16 15  1  0
 17 21  1  0
 18 17  2  0
 18 19  1  0
 19 20  2  0
 21 20  1  0
 21 22  1  0
 22 23  1  0
 22 25  1  0
 24 22  1  0
  1 26  1  0
  2 27  1  0
  9 28  1  0
 12 29  1  0
 13 30  1  0
 14 31  1  0
 15 32  1  0
 18 33  1  0
 20 34  1  0
M  ISO  8  26  14  27  14  28  14  29  14  30  14  31  14  32  14  33  14
M  ISO  1  34  14
M  END
>  <minimizedAffinity>  (1) 
-6.60800028

>  <minimizedRMSD>  (1) 
0.419916123

$$$$
