
     RDKit          3D

 41 44  0  0  1  0  0  0  0  0999 V2000
   46.7540   32.0030   45.5790 C   0  0  0  0  0  0  0  0  0  0  0  0
   47.4830   31.3210   44.6040 C   0  0  0  0  0  0  0  0  0  0  0  0
   47.3860   29.9370   44.6210 C   0  0  0  0  0  0  0  0  0  0  0  0
   46.6360   29.2190   45.5170 N   0  0  0  0  0  0  0  0  0  0  0  0
   45.9540   29.9560   46.4360 C   0  0  0  0  0  0  0  0  0  0  0  0
   46.0260   31.2810   46.4460 N   0  0  0  0  0  0  0  0  0  0  0  0
   46.8620   33.3770   45.5460 O   0  0  0  0  0  0  0  0  0  0  0  0
   45.7930   34.0680   44.9630 C   0  0  0  0  0  0  0  0  0  0  0  0
   44.9420   34.6370   45.6740 O   0  0  0  0  0  0  0  0  0  0  0  0
   44.5140   33.9650   41.5260 C   0  0  0  0  0  0  0  0  0  0  0  0
   45.6690   34.2580   40.7980 C   0  0  0  0  0  0  0  0  0  0  0  0
   46.8330   34.4790   41.4800 C   0  0  0  0  0  0  0  0  0  0  0  0
   46.8500   34.4110   42.8650 N   0  0  0  0  0  0  0  0  0  0  0  0
   45.6830   34.1190   43.5290 C   0  0  0  0  0  0  0  0  0  0  0  0
   44.5500   33.9030   42.8830 N   0  0  0  0  0  0  0  0  0  0  0  0
   48.1410   34.8030   40.7940 C   0  0  0  0  0  0  0  0  0  0  0  0
   48.9340   35.8000   41.6720 C   0  0  0  0  0  0  0  0  0  0  0  0
   44.9580   29.0810   47.6280 S   0  0  0  0  0  0  0  0  0  0  0  0
   45.2590   27.2980   47.4010 C   0  0  1  0  0  0  0  0  0  0  0  0
   44.2940   26.4410   48.2240 C   0  0  0  0  0  0  0  0  0  0  0  0
   44.2790   26.4320   46.7320 C   0  0  1  0  0  0  0  0  0  0  0  0
   43.2190   27.0550   46.0010 N   0  0  0  0  0  0  0  0  0  0  0  0
   43.2170   27.9480   44.9920 C   0  0  0  0  0  0  0  0  0  0  0  0
   41.9350   28.2410   44.6290 N   0  0  0  0  0  0  0  0  0  0  0  0
   41.1570   27.4880   45.4580 C   0  0  0  0  0  0  0  0  0  0  0  0
   41.9420   26.7890   46.2690 N   0  0  0  0  0  0  0  0  0  0  0  0
   48.1000   31.8509   43.8634 H   0  0  0  0  0  0  0  0  0  0  0  0
   47.9507   29.3758   43.8619 H   0  0  0  0  0  0  0  0  0  0  0  0
   43.5671   33.7829   40.9966 H   0  0  0  0  0  0  0  0  0  0  0  0
   45.6428   34.3099   39.6995 H   0  0  0  0  0  0  0  0  0  0  0  0
   48.7265   33.8813   40.6612 H   0  0  0  0  0  0  0  0  0  0  0  0
   47.9441   35.2495   39.8081 H   0  0  0  0  0  0  0  0  0  0  0  0
   48.7556   35.5757   42.7340 H   0  0  0  0  0  0  0  0  0  0  0  0
   50.0080   35.7075   41.4531 H   0  0  0  0  0  0  0  0  0  0  0  0
   48.6022   36.8257   41.4531 H   0  0  0  0  0  0  0  0  0  0  0  0
   46.3409   27.4245   47.2480 H   0  0  0  0  0  0  0  0  0  0  0  0
   44.6641   25.5674   48.7807 H   0  0  0  0  0  0  0  0  0  0  0  0
   43.5566   26.6262   49.0190 H   0  0  0  0  0  0  0  0  0  0  0  0
   44.3292   25.6216   45.9898 H   0  0  0  0  0  0  0  0  0  0  0  0
   44.1173   28.3779   44.5287 H   0  0  0  0  0  0  0  0  0  0  0  0
   40.0573   27.4637   45.4552 H   0  0  0  0  0  0  0  0  0  0  0  0
  1  6  2  0
  2  3  2  0
  2  1  1  0
  3  4  1  0
  4  5  2  0
  5  6  1  0
  5 18  1  0
  7  1  1  0
  8  7  1  0
  8  9  2  0
 10 15  2  0
 11 12  2  0
 11 10  1  0
 12 13  1  0
 13 14  2  0
 14  8  1  0
 15 14  1  0
 16 12  1  0
 16 17  1  0
 19 18  1  0
 19 20  1  0
 21 19  1  0
 21 20  1  0
 22 26  1  0
 22 21  1  0
 23 22  1  0
 24 23  2  0
 24 25  1  0
 25 26  2  0
  2 27  1  0
  3 28  1  0
 10 29  1  0
 11 30  1  0
 16 31  1  0
 16 32  1  0
 17 33  1  0
 17 34  1  0
 17 35  1  0
 19 36  1  6
 20 37  1  0
 20 38  1  0
 21 39  1  6
 23 40  1  0
 25 41  1  0
M  ISO  8  27  14  28  14  29  14  30  14  31   8  32   8  33   8  34   8
M  ISO  7  35   8  36  13  37  13  38  13  39  13  40  14  41  14
M  END
>  <minimizedAffinity>  (1) 
-4.88926077

>  <minimizedRMSD>  (1) 
0.536908984

$$$$
