
     RDKit          3D

 36 38  0  0  1  0  0  0  0  0999 V2000
   46.8910   33.3790   45.5150 O   0  0  0  0  0  0  0  0  0  0  0  0
   46.7770   32.0030   45.5900 C   0  0  0  0  0  0  0  0  0  0  0  0
   47.4740   31.2850   44.6020 C   0  0  0  0  0  0  0  0  0  0  0  0
   47.3680   29.9050   44.6670 C   0  0  0  0  0  0  0  0  0  0  0  0
   46.6460   29.2260   45.6100 N   0  0  0  0  0  0  0  0  0  0  0  0
   46.0000   29.9930   46.5350 C   0  0  0  0  0  0  0  0  0  0  0  0
   46.0800   31.3150   46.5020 N   0  0  0  0  0  0  0  0  0  0  0  0
   45.0460   29.1430   47.7860 S   0  0  0  0  0  0  0  0  0  0  0  0
   45.4270   27.3480   47.6510 C   0  0  1  0  0  0  0  0  0  0  0  0
   44.3300   26.4800   48.2420 C   0  0  0  0  0  0  0  0  0  0  0  0
   44.5710   26.5100   46.7760 C   0  0  1  0  0  0  0  0  0  0  0  0
   43.2250   27.3250   45.8380 S   0  0  0  0  0  0  0  0  0  0  0  0
   45.8170   34.0660   44.9480 C   0  0  0  0  0  0  0  0  0  0  0  0
   44.9760   34.6180   45.6650 O   0  0  0  0  0  0  0  0  0  0  0  0
   44.5260   33.9730   41.5040 C   0  0  0  0  0  0  0  0  0  0  0  0
   45.6860   34.2660   40.7690 C   0  0  0  0  0  0  0  0  0  0  0  0
   46.8570   34.4850   41.4480 C   0  0  0  0  0  0  0  0  0  0  0  0
   46.8770   34.4130   42.8290 N   0  0  0  0  0  0  0  0  0  0  0  0
   45.7070   34.1210   43.5010 C   0  0  0  0  0  0  0  0  0  0  0  0
   44.5700   33.9080   42.8610 N   0  0  0  0  0  0  0  0  0  0  0  0
   48.1410   34.8040   40.7470 C   0  0  0  0  0  0  0  0  0  0  0  0
   48.9460   35.8100   41.6330 C   0  0  0  0  0  0  0  0  0  0  0  0
   48.0675   31.7884   43.8246 H   0  0  0  0  0  0  0  0  0  0  0  0
   47.9014   29.3144   43.9076 H   0  0  0  0  0  0  0  0  0  0  0  0
   46.5169   27.4644   47.7431 H   0  0  0  0  0  0  0  0  0  0  0  0
   44.5887   25.5845   48.8260 H   0  0  0  0  0  0  0  0  0  0  0  0
   43.4627   26.6522   48.8963 H   0  0  0  0  0  0  0  0  0  0  0  0
   44.8075   25.7785   45.9892 H   0  0  0  0  0  0  0  0  0  0  0  0
   42.3237   27.8707   46.7136 H   0  0  0  0  0  0  0  0  0  0  0  0
   43.5761   33.7950   40.9786 H   0  0  0  0  0  0  0  0  0  0  0  0
   45.6559   34.3188   39.6707 H   0  0  0  0  0  0  0  0  0  0  0  0
   48.7258   33.8833   40.6043 H   0  0  0  0  0  0  0  0  0  0  0  0
   47.9353   35.2469   39.7613 H   0  0  0  0  0  0  0  0  0  0  0  0
   48.7676   35.5871   42.6953 H   0  0  0  0  0  0  0  0  0  0  0  0
   50.0196   35.7142   41.4135 H   0  0  0  0  0  0  0  0  0  0  0  0
   48.6171   36.8365   41.4135 H   0  0  0  0  0  0  0  0  0  0  0  0
  1  2  1  0
  2  7  2  0
  3  4  2  0
  3  2  1  0
  4  5  1  0
  5  6  2  0
  6  8  1  0
  7  6  1  0
  9  8  1  0
  9 10  1  0
 11  9  1  0
 11 10  1  0
 12 11  1  0
 13  1  1  0
 13 14  2  0
 15 20  2  0
 16 17  2  0
 16 15  1  0
 17 18  1  0
 18 19  2  0
 19 13  1  0
 20 19  1  0
 21 17  1  0
 21 22  1  0
  3 23  1  0
  4 24  1  0
  9 25  1  1
 10 26  1  0
 10 27  1  0
 11 28  1  6
 12 29  1  0
 15 30  1  0
 16 31  1  0
 21 32  1  0
 21 33  1  0
 22 34  1  0
 22 35  1  0
 22 36  1  0
M  ISO  8  23  14  24  14  25  13  26  13  27  13  28  13  29  11  30  14
M  ISO  6  31  14  32   8  33   8  34   8  35   8  36   8
M  END
>  <minimizedAffinity>  (1) 
-4.5931673

>  <minimizedRMSD>  (1) 
0.386355728

$$$$
