
     RDKit          3D

 42 45  0  0  1  0  0  0  0  0999 V2000
   46.7950   31.9870   45.6230 C   0  0  0  0  0  0  0  0  0  0  0  0
   47.4420   31.2330   44.6220 C   0  0  0  0  0  0  0  0  0  0  0  0
   47.3150   29.8580   44.7240 C   0  0  0  0  0  0  0  0  0  0  0  0
   46.6230   29.2040   45.7020 N   0  0  0  0  0  0  0  0  0  0  0  0
   46.0270   30.0000   46.6300 C   0  0  0  0  0  0  0  0  0  0  0  0
   46.1170   31.3280   46.5800 N   0  0  0  0  0  0  0  0  0  0  0  0
   46.9250   33.3640   45.5190 O   0  0  0  0  0  0  0  0  0  0  0  0
   45.8380   34.0450   44.9520 C   0  0  0  0  0  0  0  0  0  0  0  0
   44.9870   34.5850   45.6790 O   0  0  0  0  0  0  0  0  0  0  0  0
   44.5230   33.9840   41.5090 C   0  0  0  0  0  0  0  0  0  0  0  0
   45.6850   34.2730   40.7780 C   0  0  0  0  0  0  0  0  0  0  0  0
   46.8730   34.4810   41.4550 C   0  0  0  0  0  0  0  0  0  0  0  0
   46.8780   34.3950   42.8380 N   0  0  0  0  0  0  0  0  0  0  0  0
   45.7210   34.1110   43.5100 C   0  0  0  0  0  0  0  0  0  0  0  0
   44.5750   33.9110   42.8680 N   0  0  0  0  0  0  0  0  0  0  0  0
   48.1630   34.7930   40.7650 C   0  0  0  0  0  0  0  0  0  0  0  0
   48.9470   35.8160   41.6430 C   0  0  0  0  0  0  0  0  0  0  0  0
   45.1070   29.1950   47.9350 S   0  0  0  0  0  0  0  0  0  0  0  0
   45.1770   27.3870   47.6190 C   0  0  1  0  0  0  0  0  0  0  0  0
   44.4750   26.5910   48.7140 C   0  0  0  0  0  0  0  0  0  0  0  0
   43.9250   26.6660   47.3370 C   0  0  2  0  0  0  0  0  0  0  0  0
   44.0390   25.5680   46.3980 N   0  0  0  0  0  0  0  0  0  0  0  0
   44.9580   25.2610   45.4890 C   0  0  0  0  0  0  0  0  0  0  0  0
   44.5680   24.0810   44.8570 C   0  0  0  0  0  0  0  0  0  0  0  0
   43.3960   23.7040   45.4200 N   0  0  0  0  0  0  0  0  0  0  0  0
   43.0650   24.6100   46.3680 C   0  0  0  0  0  0  0  0  0  0  0  0
   48.0124   31.7080   43.8102 H   0  0  0  0  0  0  0  0  0  0  0  0
   47.8105   29.2448   43.9569 H   0  0  0  0  0  0  0  0  0  0  0  0
   43.5705   33.8165   40.9849 H   0  0  0  0  0  0  0  0  0  0  0  0
   45.6517   34.3334   39.6802 H   0  0  0  0  0  0  0  0  0  0  0  0
   48.7544   33.8731   40.6464 H   0  0  0  0  0  0  0  0  0  0  0  0
   47.9694   35.2159   39.7682 H   0  0  0  0  0  0  0  0  0  0  0  0
   48.7762   35.5931   42.7065 H   0  0  0  0  0  0  0  0  0  0  0  0
   50.0218   35.7419   41.4209 H   0  0  0  0  0  0  0  0  0  0  0  0
   48.5960   36.8346   41.4209 H   0  0  0  0  0  0  0  0  0  0  0  0
   46.1536   27.4069   47.1133 H   0  0  0  0  0  0  0  0  0  0  0  0
   44.9138   25.6530   49.0849 H   0  0  0  0  0  0  0  0  0  0  0  0
   44.0975   26.8074   49.7243 H   0  0  0  0  0  0  0  0  0  0  0  0
   42.9172   26.9129   46.9717 H   0  0  0  0  0  0  0  0  0  0  0  0
   45.8691   25.8380   45.2724 H   0  0  0  0  0  0  0  0  0  0  0  0
   45.1087   23.5571   44.0550 H   0  0  0  0  0  0  0  0  0  0  0  0
   42.1680   24.5808   47.0041 H   0  0  0  0  0  0  0  0  0  0  0  0
  1  6  2  0
  2  3  2  0
  2  1  1  0
  3  4  1  0
  4  5  2  0
  5 18  1  0
  6  5  1  0
  7  1  1  0
  8  7  1  0
  8  9  2  0
 10 15  2  0
 11 12  2  0
 11 10  1  0
 12 13  1  0
 13 14  2  0
 14  8  1  0
 15 14  1  0
 16 12  1  0
 16 17  1  0
 19 18  1  0
 19 20  1  0
 21 19  1  0
 21 20  1  0
 22 21  1  0
 23 22  1  0
 24 25  1  0
 24 23  2  0
 25 26  2  0
 26 22  1  0
  2 27  1  0
  3 28  1  0
 10 29  1  0
 11 30  1  0
 16 31  1  0
 16 32  1  0
 17 33  1  0
 17 34  1  0
 17 35  1  0
 19 36  1  6
 20 37  1  0
 20 38  1  0
 21 39  1  1
 23 40  1  0
 24 41  1  0
 26 42  1  0
M  ISO  8  27  14  28  14  29  14  30  14  31   8  32   8  33   8  34   8
M  ISO  8  35   8  36  13  37  13  38  13  39  13  40  14  41  14  42  14
M  END
>  <minimizedAffinity>  (1) 
-4.72322845

>  <minimizedRMSD>  (1) 
0.175011545

$$$$
