
     RDKit          3D

 37 39  0  0  1  0  0  0  0  0999 V2000
   46.7810   31.9730   45.6270 C   0  0  0  0  0  0  0  0  0  0  0  0
   47.4450   31.2360   44.6300 C   0  0  0  0  0  0  0  0  0  0  0  0
   47.3170   29.8680   44.7400 C   0  0  0  0  0  0  0  0  0  0  0  0
   46.6240   29.2060   45.7040 N   0  0  0  0  0  0  0  0  0  0  0  0
   46.0050   29.9980   46.6400 C   0  0  0  0  0  0  0  0  0  0  0  0
   46.1030   31.3160   46.5700 N   0  0  0  0  0  0  0  0  0  0  0  0
   46.9090   33.3610   45.5180 O   0  0  0  0  0  0  0  0  0  0  0  0
   45.8370   34.0430   44.9550 C   0  0  0  0  0  0  0  0  0  0  0  0
   44.9860   34.5900   45.6740 O   0  0  0  0  0  0  0  0  0  0  0  0
   44.5360   33.9870   41.5130 C   0  0  0  0  0  0  0  0  0  0  0  0
   45.6840   34.2750   40.7830 C   0  0  0  0  0  0  0  0  0  0  0  0
   46.8650   34.4810   41.4650 C   0  0  0  0  0  0  0  0  0  0  0  0
   46.8830   34.3970   42.8520 N   0  0  0  0  0  0  0  0  0  0  0  0
   45.7230   34.1100   43.5240 C   0  0  0  0  0  0  0  0  0  0  0  0
   44.5740   33.9090   42.8750 N   0  0  0  0  0  0  0  0  0  0  0  0
   48.1590   34.7980   40.7680 C   0  0  0  0  0  0  0  0  0  0  0  0
   48.9520   35.8160   41.6390 C   0  0  0  0  0  0  0  0  0  0  0  0
   45.0780   29.1950   47.9330 S   0  0  0  0  0  0  0  0  0  0  0  0
   45.2280   27.3780   47.6670 C   0  0  1  0  0  0  0  0  0  0  0  0
   44.4540   26.5900   48.7230 C   0  0  0  0  0  0  0  0  0  0  0  0
   44.0350   26.6020   47.2970 C   0  0  2  0  0  0  0  0  0  0  0  0
   44.2010   25.4450   46.4410 N   0  0  0  0  0  0  0  0  0  0  0  0
   48.0219   31.7143   43.8247 H   0  0  0  0  0  0  0  0  0  0  0  0
   47.8218   29.2560   43.9780 H   0  0  0  0  0  0  0  0  0  0  0  0
   43.5851   33.8199   40.9859 H   0  0  0  0  0  0  0  0  0  0  0  0
   45.6509   34.3372   39.6853 H   0  0  0  0  0  0  0  0  0  0  0  0
   48.7486   33.8777   40.6433 H   0  0  0  0  0  0  0  0  0  0  0  0
   47.9575   35.2274   39.7755 H   0  0  0  0  0  0  0  0  0  0  0  0
   48.7822   35.5980   42.7037 H   0  0  0  0  0  0  0  0  0  0  0  0
   50.0256   35.7327   41.4143 H   0  0  0  0  0  0  0  0  0  0  0  0
   48.6085   36.8366   41.4143 H   0  0  0  0  0  0  0  0  0  0  0  0
   46.2425   27.4195   47.2437 H   0  0  0  0  0  0  0  0  0  0  0  0
   44.8883   25.6815   49.1657 H   0  0  0  0  0  0  0  0  0  0  0  0
   43.9761   26.8232   49.6859 H   0  0  0  0  0  0  0  0  0  0  0  0
   43.0765   26.8234   46.8048 H   0  0  0  0  0  0  0  0  0  0  0  0
   44.3218   24.6029   47.0216 H   0  0  0  0  0  0  0  0  0  0  0  0
   43.3671   25.3353   45.8464 H   0  0  0  0  0  0  0  0  0  0  0  0
  1  6  2  0
  2  3  2  0
  2  1  1  0
  3  4  1  0
  4  5  2  0
  5 18  1  0
  6  5  1  0
  7  1  1  0
  8  7  1  0
  8  9  2  0
 10 15  2  0
 11 12  2  0
 11 10  1  0
 12 13  1  0
 13 14  2  0
 14  8  1  0
 15 14  1  0
 16 12  1  0
 16 17  1  0
 19 18  1  0
 19 20  1  0
 21 19  1  0
 21 20  1  0
 22 21  1  0
  2 23  1  0
  3 24  1  0
 10 25  1  0
 11 26  1  0
 16 27  1  0
 16 28  1  0
 17 29  1  0
 17 30  1  0
 17 31  1  0
 19 32  1  6
 20 33  1  0
 20 34  1  0
 21 35  1  1
 22 36  1  0
 22 37  1  0
M  ISO  8  23  14  24  14  25  14  26  14  27   8  28   8  29   8  30   8
M  ISO  7  31   8  32  13  33  13  34  13  35  13  36   5  37   5
M  END
>  <minimizedAffinity>  (1) 
-4.62395382

>  <minimizedRMSD>  (1) 
0.0206254777

$$$$
