
     RDKit          3D

 33 33  0  0  1  0  0  0  0  0999 V2000
   47.8850   30.7800   48.5550 C   0  0  1  0  0  0  0  0  0  0  0  0
   45.3400   33.0520   47.1860 C   0  0  0  0  0  0  0  0  0  0  0  0
   45.6820   33.1960   45.8100 C   0  0  0  0  0  0  0  0  0  0  0  0
   46.8100   32.4820   45.4000 C   0  0  0  0  0  0  0  0  0  0  0  0
   47.5050   31.7120   46.2890 N   0  0  0  0  0  0  0  0  0  0  0  0
   47.1380   31.6120   47.5760 C   0  0  0  0  0  0  0  0  0  0  0  0
   46.0630   32.2820   48.0080 N   0  0  0  0  0  0  0  0  0  0  0  0
   44.9440   33.9980   44.9090 N   0  0  0  0  0  0  0  0  0  0  0  0
   44.6170   35.3690   45.1460 C   0  0  0  0  0  0  0  0  0  0  0  0
   44.3580   35.7150   46.3860 N   0  0  0  0  0  0  0  0  0  0  0  0
   44.6250   36.1750   43.9400 N   0  0  0  0  0  0  0  0  0  0  0  0
   44.1130   36.6780   46.6240 H   0  0  0  0  0  0  0  0  0  0  0  0
   48.4490   29.5420   47.9310 C   0  0  0  0  0  0  0  0  0  0  0  0
   49.0080   31.6110   49.1700 C   0  0  0  0  0  0  0  0  0  0  0  0
   49.4740   30.9080   50.3550 N   0  0  0  0  0  0  0  0  0  0  0  0
   50.7170   31.3170   50.9220 C   0  0  0  0  0  0  0  0  0  0  0  0
   51.5770   31.8380   50.1010 N   0  0  0  0  0  0  0  0  0  0  0  0
   51.0260   31.1740   52.3050 N   0  0  0  0  0  0  0  0  0  0  0  0
   52.5030   32.1590   50.4420 H   0  0  0  0  0  0  0  0  0  0  0  0
   47.1783   30.4590   49.3345 H   0  0  0  0  0  0  0  0  0  0  0  0
   44.4628   33.5853   47.5811 H   0  0  0  0  0  0  0  0  0  0  0  0
   47.1416   32.5401   44.3528 H   0  0  0  0  0  0  0  0  0  0  0  0
   44.6230   33.5686   44.0295 H   0  0  0  0  0  0  0  0  0  0  0  0
   44.4037   37.1797   43.9905 H   0  0  0  0  0  0  0  0  0  0  0  0
   44.8520   35.7426   43.0331 H   0  0  0  0  0  0  0  0  0  0  0  0
   48.7664   28.8452   48.7208 H   0  0  0  0  0  0  0  0  0  0  0  0
   47.6802   29.0631   47.3068 H   0  0  0  0  0  0  0  0  0  0  0  0
   49.3149   29.8078   47.3068 H   0  0  0  0  0  0  0  0  0  0  0  0
   49.8322   31.7200   48.4497 H   0  0  0  0  0  0  0  0  0  0  0  0
   48.6466   32.6161   49.4330 H   0  0  0  0  0  0  0  0  0  0  0  0
   48.9254   30.1415   50.7702 H   0  0  0  0  0  0  0  0  0  0  0  0
   51.9398   31.4862   52.6635 H   0  0  0  0  0  0  0  0  0  0  0  0
   50.3357   30.7584   52.9466 H   0  0  0  0  0  0  0  0  0  0  0  0
  1 14  1  0
  2  7  2  0
  3  2  1  0
  4  3  2  0
  4  5  1  0
  5  6  2  0
  6  7  1  0
  6  1  1  0
  8  9  1  0
  8  3  1  0
  9 10  2  0
 10 12  1  0
 11  9  1  0
 13  1  1  0
 14 15  1  0
 15 16  1  0
 16 18  1  0
 17 19  1  0
 17 16  2  0
  1 20  1  1
  2 21  1  0
  4 22  1  0
  8 23  1  0
 11 24  1  0
 11 25  1  0
 13 26  1  0
 13 27  1  0
 13 28  1  0
 14 29  1  0
 14 30  1  0
 15 31  1  0
 18 32  1  0
 18 33  1  0
M  ISO  8  20   8  21  14  22  14  26   8  27   8  28   8  29   8  30   8
M  END
>  <minimizedAffinity>  (1) 
-5.40573502

>  <minimizedRMSD>  (1) 
0.391723335

$$$$
