
     RDKit          3D

 36 36  0  0  1  0  0  0  0  0999 V2000
   45.4330   32.9010   47.1050 C   0  0  0  0  0  0  0  0  0  0  0  0
   45.6930   33.0550   45.7230 C   0  0  0  0  0  0  0  0  0  0  0  0
   46.6920   32.2290   45.1940 C   0  0  0  0  0  0  0  0  0  0  0  0
   47.3450   31.3480   45.9990 N   0  0  0  0  0  0  0  0  0  0  0  0
   47.0480   31.2480   47.3260 C   0  0  0  0  0  0  0  0  0  0  0  0
   46.1030   32.0180   47.8620 N   0  0  0  0  0  0  0  0  0  0  0  0
   44.9700   33.9930   44.9430 N   0  0  0  0  0  0  0  0  0  0  0  0
   44.6560   35.3120   45.3330 C   0  0  0  0  0  0  0  0  0  0  0  0
   44.3140   35.4590   46.5790 N   0  0  0  0  0  0  0  0  0  0  0  0
   44.7520   36.3160   44.3170 N   0  0  0  0  0  0  0  0  0  0  0  0
   43.9600   36.3370   46.9750 H   0  0  0  0  0  0  0  0  0  0  0  0
   47.7770   30.2670   48.1890 C   0  0  1  0  0  0  0  0  0  0  0  0
   47.9400   28.9410   47.5470 C   0  0  0  0  0  0  0  0  0  0  0  0
   49.1270   30.8500   48.5780 C   0  0  0  0  0  0  0  0  0  0  0  0
   49.6010   30.5740   50.2500 S   0  0  0  0  0  0  0  0  0  0  0  0
   50.7910   29.2900   50.5680 C   0  0  0  0  0  0  0  0  0  0  0  0
   50.7800   29.0570   52.0880 C   0  0  0  0  0  0  0  0  0  0  0  0
   50.4010   27.9430   49.9760 C   0  0  0  0  0  0  0  0  0  0  0  0
   44.6575   33.5244   47.5739 H   0  0  0  0  0  0  0  0  0  0  0  0
   46.9491   32.2925   44.1264 H   0  0  0  0  0  0  0  0  0  0  0  0
   44.6472   33.6858   44.0144 H   0  0  0  0  0  0  0  0  0  0  0  0
   44.5352   37.2977   44.5410 H   0  0  0  0  0  0  0  0  0  0  0  0
   45.0379   36.0566   43.3621 H   0  0  0  0  0  0  0  0  0  0  0  0
   47.1682   30.0948   49.0888 H   0  0  0  0  0  0  0  0  0  0  0  0
   48.0351   28.1671   48.3229 H   0  0  0  0  0  0  0  0  0  0  0  0
   47.0615   28.7263   46.9208 H   0  0  0  0  0  0  0  0  0  0  0  0
   48.8444   28.9455   46.9208 H   0  0  0  0  0  0  0  0  0  0  0  0
   49.8926   30.4019   47.9276 H   0  0  0  0  0  0  0  0  0  0  0  0
   49.0374   31.9399   48.4593 H   0  0  0  0  0  0  0  0  0  0  0  0
   51.7492   29.6136   50.1355 H   0  0  0  0  0  0  0  0  0  0  0  0
   50.8257   30.0254   52.6077 H   0  0  0  0  0  0  0  0  0  0  0  0
   49.8561   28.5318   52.3718 H   0  0  0  0  0  0  0  0  0  0  0  0
   51.6504   28.4471   52.3718 H   0  0  0  0  0  0  0  0  0  0  0  0
   50.1949   27.2311   50.7888 H   0  0  0  0  0  0  0  0  0  0  0  0
   49.5004   28.0620   49.3557 H   0  0  0  0  0  0  0  0  0  0  0  0
   51.2259   27.5625   49.3557 H   0  0  0  0  0  0  0  0  0  0  0  0
  1  6  2  0
  2  1  1  0
  3  2  2  0
  3  4  1  0
  4  5  2  0
  5  6  1  0
  5 12  1  0
  7  8  1  0
  7  2  1  0
  8  9  2  0
  9 11  1  0
 10  8  1  0
 12 14  1  0
 13 12  1  0
 14 15  1  0
 15 16  1  0
 16 17  1  0
 18 16  1  0
  1 19  1  0
  3 20  1  0
  7 21  1  0
 10 22  1  0
 10 23  1  0
 12 24  1  1
 13 25  1  0
 13 26  1  0
 13 27  1  0
 14 28  1  0
 14 29  1  0
 16 30  1  0
 17 31  1  0
 17 32  1  0
 17 33  1  0
 18 34  1  0
 18 35  1  0
 18 36  1  0
M  ISO  8  19  14  20  14  24   8  25   8  26   8  27   8  28   8  29   8
M  ISO  7  30   8  31   8  32   8  33   8  34   8  35   8  36   8
M  END
>  <minimizedAffinity>  (1) 
-4.67251015

>  <minimizedRMSD>  (1) 
0.970713019

$$$$
