
     RDKit          3D

 40 41  0  0  1  0  0  0  0  0999 V2000
   46.8840   32.2220   44.9390 C   0  0  0  0  0  0  0  0  0  0  0  0
   46.1800   32.3950   46.1530 C   0  0  0  0  0  0  0  0  0  0  0  0
   45.4170   33.5610   46.2500 C   0  0  0  0  0  0  0  0  0  0  0  0
   45.3840   34.4420   45.2190 N   0  0  0  0  0  0  0  0  0  0  0  0
   46.0820   34.2280   44.0710 C   0  0  0  0  0  0  0  0  0  0  0  0
   46.8150   33.1290   43.9520 N   0  0  0  0  0  0  0  0  0  0  0  0
   46.2580   31.4280   47.1840 N   0  0  0  0  0  0  0  0  0  0  0  0
   46.9080   31.5920   48.4260 C   0  0  0  0  0  0  0  0  0  0  0  0
   48.0200   32.2650   48.3880 N   0  0  0  0  0  0  0  0  0  0  0  0
   46.2620   31.0020   49.5560 N   0  0  0  0  0  0  0  0  0  0  0  0
   48.6450   32.3780   49.1980 H   0  0  0  0  0  0  0  0  0  0  0  0
   46.0200   35.2150   42.9600 C   0  0  1  0  0  0  0  0  0  0  0  0
   46.8000   34.7950   41.7700 C   0  0  0  0  0  0  0  0  0  0  0  0
   44.5590   35.4830   42.6110 C   0  0  0  0  0  0  0  0  0  0  0  0
   44.0260   34.6390   41.1500 S   0  0  0  0  0  0  0  0  0  0  0  0
   42.4580   35.1780   40.4740 C   0  0  0  0  0  0  0  0  0  0  0  0
   41.8310   34.0150   39.7520 C   0  0  0  0  0  0  0  0  0  0  0  0
   40.8270   33.3760   40.6520 C   0  0  0  0  0  0  0  0  0  0  0  0
   40.3020   34.5860   41.4080 C   0  0  0  0  0  0  0  0  0  0  0  0
   41.5120   35.4840   41.5830 C   0  0  0  0  0  0  0  0  0  0  0  0
   47.5027   31.3231   44.8002 H   0  0  0  0  0  0  0  0  0  0  0  0
   44.8414   33.7654   47.1648 H   0  0  0  0  0  0  0  0  0  0  0  0
   45.7986   30.5223   47.0121 H   0  0  0  0  0  0  0  0  0  0  0  0
   46.6840   31.0851   50.4919 H   0  0  0  0  0  0  0  0  0  0  0  0
   45.3744   30.4937   49.4345 H   0  0  0  0  0  0  0  0  0  0  0  0
   46.4917   36.1475   43.3034 H   0  0  0  0  0  0  0  0  0  0  0  0
   47.7252   34.2968   42.0952 H   0  0  0  0  0  0  0  0  0  0  0  0
   46.2007   34.0976   41.1662 H   0  0  0  0  0  0  0  0  0  0  0  0
   47.0524   35.6792   41.1662 H   0  0  0  0  0  0  0  0  0  0  0  0
   43.9323   35.1543   43.4531 H   0  0  0  0  0  0  0  0  0  0  0  0
   44.4609   36.5618   42.4198 H   0  0  0  0  0  0  0  0  0  0  0  0
   42.6348   36.0506   39.8280 H   0  0  0  0  0  0  0  0  0  0  0  0
   41.3341   34.3717   38.8378 H   0  0  0  0  0  0  0  0  0  0  0  0
   42.6055   33.2840   39.4769 H   0  0  0  0  0  0  0  0  0  0  0  0
   40.0292   32.8802   40.0795 H   0  0  0  0  0  0  0  0  0  0  0  0
   41.2352   32.5822   41.2949 H   0  0  0  0  0  0  0  0  0  0  0  0
   39.5200   35.0972   40.8273 H   0  0  0  0  0  0  0  0  0  0  0  0
   39.8452   34.3103   42.3699 H   0  0  0  0  0  0  0  0  0  0  0  0
   41.9917   35.2838   42.5524 H   0  0  0  0  0  0  0  0  0  0  0  0
   41.2161   36.5432   41.5599 H   0  0  0  0  0  0  0  0  0  0  0  0
  1  2  2  0
  2  3  1  0
  2  7  1  0
  4  3  2  0
  5  4  1  0
  6  5  2  0
  6  1  1  0
  7  8  1  0
  8 10  1  0
  9  8  2  0
  9 11  1  0
 12  5  1  0
 13 12  1  0
 14 12  1  0
 15 14  1  0
 16 15  1  0
 16 20  1  0
 17 16  1  0
 17 18  1  0
 18 19  1  0
 19 20  1  0
  1 21  1  0
  3 22  1  0
  7 23  1  0
 10 24  1  0
 10 25  1  0
 12 26  1  1
 13 27  1  0
 13 28  1  0
 13 29  1  0
 14 30  1  0
 14 31  1  0
 16 32  1  0
 17 33  1  0
 17 34  1  0
 18 35  1  0
 18 36  1  0
 19 37  1  0
 19 38  1  0
 20 39  1  0
 20 40  1  0
M  ISO  8  21  14  22  14  26   8  27   8  28   8  29   8  30   8  31   8
M  ISO  8  32  13  33  13  34  13  35  13  36  13  37  13  38  13  39  13
M  ISO  1  40  13
M  END
>  <minimizedAffinity>  (1) 
-5.01948786

>  <minimizedRMSD>  (1) 
7.73802042

$$$$
