
     RDKit          3D

 39 40  0  0  1  0  0  0  0  0999 V2000
   45.4160   33.0390   47.0640 C   0  0  0  0  0  0  0  0  0  0  0  0
   45.7170   33.2020   45.6920 C   0  0  0  0  0  0  0  0  0  0  0  0
   46.8350   32.4980   45.2280 C   0  0  0  0  0  0  0  0  0  0  0  0
   47.5590   31.7200   46.0770 N   0  0  0  0  0  0  0  0  0  0  0  0
   47.2180   31.6040   47.3920 C   0  0  0  0  0  0  0  0  0  0  0  0
   46.1600   32.2590   47.8660 N   0  0  0  0  0  0  0  0  0  0  0  0
   44.9160   34.0300   44.8650 N   0  0  0  0  0  0  0  0  0  0  0  0
   44.6120   35.3870   45.1160 C   0  0  0  0  0  0  0  0  0  0  0  0
   44.3670   35.6820   46.3590 N   0  0  0  0  0  0  0  0  0  0  0  0
   44.6120   36.2650   43.9770 N   0  0  0  0  0  0  0  0  0  0  0  0
   44.0160   36.5930   46.6690 H   0  0  0  0  0  0  0  0  0  0  0  0
   48.0260   30.7390   48.2950 C   0  0  1  0  0  0  0  0  0  0  0  0
   48.7720   29.6780   47.5740 C   0  0  0  0  0  0  0  0  0  0  0  0
   48.9590   31.6190   49.1300 C   0  0  0  0  0  0  0  0  0  0  0  0
   49.9450   30.6520   50.2630 S   0  0  0  0  0  0  0  0  0  0  0  0
   52.2070   31.0790   51.7420 N   0  0  0  0  0  0  0  0  0  0  0  0
   52.8500   32.1820   52.4300 C   0  0  0  0  0  0  0  0  0  0  0  0
   52.1420   33.4540   52.0250 C   0  0  0  0  0  0  0  0  0  0  0  0
   51.3310   32.9730   50.8120 C   0  0  0  0  0  0  0  0  0  0  0  0
   50.9270   31.6100   51.3900 C   0  0  1  0  0  0  0  0  0  0  0  0
   44.5479   33.5659   47.4868 H   0  0  0  0  0  0  0  0  0  0  0  0
   47.1294   32.5746   44.1709 H   0  0  0  0  0  0  0  0  0  0  0  0
   44.5237   33.6077   44.0114 H   0  0  0  0  0  0  0  0  0  0  0  0
   44.3976   37.2652   44.0977 H   0  0  0  0  0  0  0  0  0  0  0  0
   44.8264   35.8936   43.0405 H   0  0  0  0  0  0  0  0  0  0  0  0
   47.3332   30.2026   48.9600 H   0  0  0  0  0  0  0  0  0  0  0  0
   49.2461   29.0036   48.3023 H   0  0  0  0  0  0  0  0  0  0  0  0
   48.0767   29.1054   46.9426 H   0  0  0  0  0  0  0  0  0  0  0  0
   49.5461   30.1385   46.9426 H   0  0  0  0  0  0  0  0  0  0  0  0
   49.6301   32.1685   48.4536 H   0  0  0  0  0  0  0  0  0  0  0  0
   48.3396   32.3105   49.7201 H   0  0  0  0  0  0  0  0  0  0  0  0
   52.7379   30.8089   50.9017 H   0  0  0  0  0  0  0  0  0  0  0  0
   52.7724   32.0406   53.5181 H   0  0  0  0  0  0  0  0  0  0  0  0
   53.9157   32.2332   52.1623 H   0  0  0  0  0  0  0  0  0  0  0  0
   51.4862   33.8230   52.8274 H   0  0  0  0  0  0  0  0  0  0  0  0
   52.8160   34.2966   51.8112 H   0  0  0  0  0  0  0  0  0  0  0  0
   51.9454   32.8804   49.9043 H   0  0  0  0  0  0  0  0  0  0  0  0
   50.5141   33.6273   50.4736 H   0  0  0  0  0  0  0  0  0  0  0  0
   50.2447   31.6357   52.2524 H   0  0  0  0  0  0  0  0  0  0  0  0
  1  6  2  0
  2  1  1  0
  3  2  2  0
  3  4  1  0
  4  5  2  0
  5  6  1  0
  5 12  1  0
  7  8  1  0
  7  2  1  0
  8  9  2  0
  9 11  1  0
 10  8  1  0
 12 14  1  0
 13 12  1  0
 14 15  1  0
 16 17  1  0
 18 17  1  0
 19 20  1  0
 19 18  1  0
 20 15  1  0
 20 16  1  0
  1 21  1  0
  3 22  1  0
  7 23  1  0
 10 24  1  0
 10 25  1  0
 12 26  1  1
 13 27  1  0
 13 28  1  0
 13 29  1  0
 14 30  1  0
 14 31  1  0
 16 32  1  0
 17 33  1  0
 17 34  1  0
 18 35  1  0
 18 36  1  0
 19 37  1  0
 19 38  1  0
 20 39  1  1
M  ISO  8  21  14  22  14  26   8  27   8  28   8  29   8  30   8  31   8
M  ISO  8  32   5  33  13  34  13  35  13  36  13  37  13  38  13  39  13
M  END
>  <minimizedAffinity>  (1) 
-5.32199001

>  <minimizedRMSD>  (1) 
1.32858789

$$$$
