
     RDKit          3D

 43 44  0  0  1  0  0  0  0  0999 V2000
   48.0570   30.4170   48.1360 C   0  0  1  0  0  0  0  0  0  0  0  0
   45.5550   32.9050   47.0410 C   0  0  0  0  0  0  0  0  0  0  0  0
   45.8030   33.0740   45.6700 C   0  0  0  0  0  0  0  0  0  0  0  0
   46.8530   32.3100   45.1350 C   0  0  0  0  0  0  0  0  0  0  0  0
   47.5620   31.4670   45.9370 N   0  0  0  0  0  0  0  0  0  0  0  0
   47.2680   31.3490   47.2730 C   0  0  0  0  0  0  0  0  0  0  0  0
   46.2720   32.0640   47.8170 N   0  0  0  0  0  0  0  0  0  0  0  0
   45.0140   33.9720   44.9130 N   0  0  0  0  0  0  0  0  0  0  0  0
   44.6600   35.2770   45.2750 C   0  0  0  0  0  0  0  0  0  0  0  0
   44.3670   35.4570   46.5190 N   0  0  0  0  0  0  0  0  0  0  0  0
   44.6650   36.2450   44.2300 N   0  0  0  0  0  0  0  0  0  0  0  0
   43.9490   36.3010   46.9180 H   0  0  0  0  0  0  0  0  0  0  0  0
   49.0350   29.6220   47.3800 C   0  0  0  0  0  0  0  0  0  0  0  0
   48.7360   31.2340   49.2420 C   0  0  0  0  0  0  0  0  0  0  0  0
   49.7810   30.3090   50.3110 S   0  0  0  0  0  0  0  0  0  0  0  0
   51.2010   31.1030   51.0100 C   0  0  1  0  0  0  0  0  0  0  0  0
   51.4210   30.5020   52.4030 C   0  0  0  0  0  0  0  0  0  0  0  0
   52.4820   30.8750   50.2490 C   0  0  0  0  0  0  0  0  0  0  0  0
   52.3730   31.3520   48.8140 C   0  0  0  0  0  0  0  0  0  0  0  0
   52.8150   30.3140   47.8120 C   0  0  0  0  0  0  0  0  0  0  0  0
   53.5850   31.5870   48.0060 C   0  0  0  0  0  0  0  0  0  0  0  0
   47.3654   29.6842   48.5772 H   0  0  0  0  0  0  0  0  0  0  0  0
   44.7412   33.4827   47.5036 H   0  0  0  0  0  0  0  0  0  0  0  0
   47.1034   32.3923   44.0670 H   0  0  0  0  0  0  0  0  0  0  0  0
   44.6655   33.6317   44.0055 H   0  0  0  0  0  0  0  0  0  0  0  0
   44.4136   37.2231   44.4328 H   0  0  0  0  0  0  0  0  0  0  0  0
   44.9200   35.9669   43.2716 H   0  0  0  0  0  0  0  0  0  0  0  0
   49.6929   29.0872   48.0808 H   0  0  0  0  0  0  0  0  0  0  0  0
   48.5055   28.8950   46.7467 H   0  0  0  0  0  0  0  0  0  0  0  0
   49.6385   30.2888   46.7467 H   0  0  0  0  0  0  0  0  0  0  0  0
   49.3431   32.0171   48.7644 H   0  0  0  0  0  0  0  0  0  0  0  0
   47.9269   31.6330   49.8714 H   0  0  0  0  0  0  0  0  0  0  0  0
   50.9925   32.1830   51.0001 H   0  0  0  0  0  0  0  0  0  0  0  0
   51.1497   31.2432   53.1692 H   0  0  0  0  0  0  0  0  0  0  0  0
   50.7922   29.6070   52.5197 H   0  0  0  0  0  0  0  0  0  0  0  0
   52.4790   30.2245   52.5197 H   0  0  0  0  0  0  0  0  0  0  0  0
   53.2950   31.4240   50.7466 H   0  0  0  0  0  0  0  0  0  0  0  0
   52.6865   29.7943   50.2370 H   0  0  0  0  0  0  0  0  0  0  0  0
   51.4910   31.9790   49.0112 H   0  0  0  0  0  0  0  0  0  0  0  0
   52.2361   30.1522   46.8907 H   0  0  0  0  0  0  0  0  0  0  0  0
   53.0515   29.2403   47.8461 H   0  0  0  0  0  0  0  0  0  0  0  0
   54.5753   31.5603   48.4841 H   0  0  0  0  0  0  0  0  0  0  0  0
   53.9244   32.3935   47.3394 H   0  0  0  0  0  0  0  0  0  0  0  0
  1 14  1  0
  2  7  2  0
  3  2  1  0
  4  3  2  0
  4  5  1  0
  5  6  2  0
  6  7  1  0
  6  1  1  0
  8  9  1  0
  8  3  1  0
  9 10  2  0
 10 12  1  0
 11  9  1  0
 13  1  1  0
 14 15  1  0
 15 16  1  0
 16 17  1  0
 18 16  1  0
 19 18  1  0
 20 21  1  0
 20 19  1  0
 21 19  1  0
  1 22  1  1
  2 23  1  0
  4 24  1  0
  8 25  1  0
 11 26  1  0
 11 27  1  0
 13 28  1  0
 13 29  1  0
 13 30  1  0
 14 31  1  0
 14 32  1  0
 16 33  1  1
 17 34  1  0
 17 35  1  0
 17 36  1  0
 18 37  1  0
 18 38  1  0
 19 39  1  0
 20 40  1  0
 20 41  1  0
 21 42  1  0
 21 43  1  0
M  ISO  8  22   8  23  14  24  14  28   8  29   8  30   8  31   8  32   8
M  ISO  8  33   8  34   8  35   8  36   8  37   8  38   8  39  13  40  13
M  ISO  3  41  13  42  13  43  13
M  END
>  <minimizedAffinity>  (1) 
-4.81134844

>  <minimizedRMSD>  (1) 
2.34712887

$$$$
