
     RDKit          3D

 38 38  0  0  1  0  0  0  0  0999 V2000
   47.8430   30.3070   48.0050 C   0  0  1  0  0  0  0  0  0  0  0  0
   45.4850   32.9480   46.9400 C   0  0  0  0  0  0  0  0  0  0  0  0
   45.7330   33.1100   45.5680 C   0  0  0  0  0  0  0  0  0  0  0  0
   46.7310   32.2860   45.0260 C   0  0  0  0  0  0  0  0  0  0  0  0
   47.3950   31.3980   45.8170 N   0  0  0  0  0  0  0  0  0  0  0  0
   47.1040   31.2890   47.1550 C   0  0  0  0  0  0  0  0  0  0  0  0
   46.1570   32.0590   47.7050 N   0  0  0  0  0  0  0  0  0  0  0  0
   44.9900   34.0570   44.8270 N   0  0  0  0  0  0  0  0  0  0  0  0
   44.6570   35.3580   45.2300 C   0  0  0  0  0  0  0  0  0  0  0  0
   44.3490   35.5040   46.4730 N   0  0  0  0  0  0  0  0  0  0  0  0
   44.7030   36.3550   44.2150 N   0  0  0  0  0  0  0  0  0  0  0  0
   43.9320   36.3410   46.8890 H   0  0  0  0  0  0  0  0  0  0  0  0
   48.1750   29.0650   47.2940 C   0  0  0  0  0  0  0  0  0  0  0  0
   49.1070   30.9840   48.5490 C   0  0  0  0  0  0  0  0  0  0  0  0
   49.5110   30.5270   50.2030 S   0  0  0  0  0  0  0  0  0  0  0  0
   50.9680   29.5560   50.4820 C   0  0  1  0  0  0  0  0  0  0  0  0
   50.7970   28.8850   51.8470 C   0  0  0  0  0  0  0  0  0  0  0  0
   51.0920   28.3950   49.5070 C   0  0  0  0  0  0  0  0  0  0  0  0
   50.0180   27.4690   49.8650 N   0  0  0  0  0  0  0  0  0  0  0  0
   47.1840   30.0067   48.8330 H   0  0  0  0  0  0  0  0  0  0  0  0
   44.7112   33.5707   47.4126 H   0  0  0  0  0  0  0  0  0  0  0  0
   46.9785   32.3576   43.9566 H   0  0  0  0  0  0  0  0  0  0  0  0
   44.6599   33.7615   43.8971 H   0  0  0  0  0  0  0  0  0  0  0  0
   44.4701   37.3323   44.4421 H   0  0  0  0  0  0  0  0  0  0  0  0
   44.9692   36.0991   43.2535 H   0  0  0  0  0  0  0  0  0  0  0  0
   48.3875   28.2701   48.0241 H   0  0  0  0  0  0  0  0  0  0  0  0
   47.3254   28.7655   46.6628 H   0  0  0  0  0  0  0  0  0  0  0  0
   49.0607   29.2294   46.6628 H   0  0  0  0  0  0  0  0  0  0  0  0
   49.9518   30.7122   47.8990 H   0  0  0  0  0  0  0  0  0  0  0  0
   48.9095   32.0661   48.5574 H   0  0  0  0  0  0  0  0  0  0  0  0
   51.8373   30.2233   50.3866 H   0  0  0  0  0  0  0  0  0  0  0  0
   50.9844   29.6205   52.6432 H   0  0  0  0  0  0  0  0  0  0  0  0
   49.7715   28.4979   51.9394 H   0  0  0  0  0  0  0  0  0  0  0  0
   51.5122   28.0543   51.9394 H   0  0  0  0  0  0  0  0  0  0  0  0
   52.0720   27.9068   49.6129 H   0  0  0  0  0  0  0  0  0  0  0  0
   51.0121   28.7289   48.4619 H   0  0  0  0  0  0  0  0  0  0  0  0
   49.9459   27.4068   50.8906 H   0  0  0  0  0  0  0  0  0  0  0  0
   49.1267   27.8109   49.4783 H   0  0  0  0  0  0  0  0  0  0  0  0
  1 14  1  0
  2  7  2  0
  3  2  1  0
  4  3  2  0
  4  5  1  0
  5  6  2  0
  6  7  1  0
  6  1  1  0
  8  9  1  0
  8  3  1  0
  9 10  2  0
 10 12  1  0
 11  9  1  0
 13  1  1  0
 14 15  1  0
 15 16  1  0
 16 17  1  0
 18 19  1  0
 18 16  1  0
  1 20  1  1
  2 21  1  0
  4 22  1  0
  8 23  1  0
 11 24  1  0
 11 25  1  0
 13 26  1  0
 13 27  1  0
 13 28  1  0
 14 29  1  0
 14 30  1  0
 16 31  1  1
 17 32  1  0
 17 33  1  0
 17 34  1  0
 18 35  1  0
 18 36  1  0
 19 37  1  0
 19 38  1  0
M  ISO  8  20   8  21  14  22  14  26   8  27   8  28   8  29   8  30   8
M  ISO  8  31   8  32   8  33   8  34   8  35   8  36   8  37   5  38   5
M  END
>  <minimizedAffinity>  (1) 
-4.58677149

>  <minimizedRMSD>  (1) 
0.420306802

$$$$
