
     RDKit          3D

 51 52  0  0  1  0  0  0  0  0999 V2000
   47.9010   30.7000   48.5280 C   0  0  1  0  0  0  0  0  0  0  0  0
   45.3710   33.0160   47.1680 C   0  0  0  0  0  0  0  0  0  0  0  0
   45.7190   33.1870   45.8200 C   0  0  0  0  0  0  0  0  0  0  0  0
   46.8590   32.4770   45.3930 C   0  0  0  0  0  0  0  0  0  0  0  0
   47.5340   31.6940   46.2790 N   0  0  0  0  0  0  0  0  0  0  0  0
   47.1420   31.5720   47.5770 C   0  0  0  0  0  0  0  0  0  0  0  0
   46.0620   32.2330   48.0230 N   0  0  0  0  0  0  0  0  0  0  0  0
   44.9500   34.0180   44.9780 N   0  0  0  0  0  0  0  0  0  0  0  0
   44.6260   35.3630   45.2140 C   0  0  0  0  0  0  0  0  0  0  0  0
   44.3540   35.6710   46.4360 N   0  0  0  0  0  0  0  0  0  0  0  0
   44.6300   36.2420   44.1030 N   0  0  0  0  0  0  0  0  0  0  0  0
   43.9040   36.5260   46.7640 H   0  0  0  0  0  0  0  0  0  0  0  0
   48.2790   29.4060   47.9420 C   0  0  0  0  0  0  0  0  0  0  0  0
   49.1520   31.4550   48.9910 C   0  0  0  0  0  0  0  0  0  0  0  0
   49.9450   30.7710   50.4010 S   0  0  0  0  0  0  0  0  0  0  0  0
   51.1250   29.4700   50.1310 C   0  0  1  0  0  0  0  0  0  0  0  0
   52.2460   29.7010   51.1610 C   0  0  0  0  0  0  0  0  0  0  0  0
   50.5750   28.0950   50.5180 C   0  0  0  0  0  0  0  0  0  0  0  0
   51.6020   27.0950   50.2870 N   0  0  0  0  0  0  0  0  0  0  0  0
   51.2670   25.9300   51.0830 C   0  0  0  0  0  0  0  0  0  0  0  0
   50.5480   24.8430   50.3790 C   0  0  0  0  0  0  0  0  0  0  0  0
   49.4880   25.3600   49.4240 C   0  0  0  0  0  0  0  0  0  0  0  0
   50.1860   26.2350   48.4360 C   0  0  0  0  0  0  0  0  0  0  0  0
   51.5390   26.7310   48.8690 C   0  0  0  0  0  0  0  0  0  0  0  0
   47.2423   30.4734   49.3793 H   0  0  0  0  0  0  0  0  0  0  0  0
   44.4872   33.5488   47.5488 H   0  0  0  0  0  0  0  0  0  0  0  0
   47.2013   32.5549   44.3505 H   0  0  0  0  0  0  0  0  0  0  0  0
   44.5927   33.5979   44.1081 H   0  0  0  0  0  0  0  0  0  0  0  0
   44.3979   37.2371   44.2328 H   0  0  0  0  0  0  0  0  0  0  0  0
   44.8650   35.8860   43.1655 H   0  0  0  0  0  0  0  0  0  0  0  0
   48.4892   28.6864   48.7469 H   0  0  0  0  0  0  0  0  0  0  0  0
   47.4532   29.0298   47.3203 H   0  0  0  0  0  0  0  0  0  0  0  0
   49.1774   29.5335   47.3203 H   0  0  0  0  0  0  0  0  0  0  0  0
   49.8744   31.4615   48.1615 H   0  0  0  0  0  0  0  0  0  0  0  0
   48.8165   32.4614   49.2820 H   0  0  0  0  0  0  0  0  0  0  0  0
   51.4167   29.4860   49.0705 H   0  0  0  0  0  0  0  0  0  0  0  0
   51.8335   29.6160   52.1772 H   0  0  0  0  0  0  0  0  0  0  0  0
   53.0339   28.9464   51.0208 H   0  0  0  0  0  0  0  0  0  0  0  0
   52.6714   30.7057   51.0208 H   0  0  0  0  0  0  0  0  0  0  0  0
   50.2933   28.0960   51.5813 H   0  0  0  0  0  0  0  0  0  0  0  0
   49.6874   27.8645   49.9106 H   0  0  0  0  0  0  0  0  0  0  0  0
   52.2048   25.5118   51.4775 H   0  0  0  0  0  0  0  0  0  0  0  0
   50.5724   26.2908   51.8559 H   0  0  0  0  0  0  0  0  0  0  0  0
   51.2782   24.2520   49.8067 H   0  0  0  0  0  0  0  0  0  0  0  0
   50.0384   24.2356   51.1414 H   0  0  0  0  0  0  0  0  0  0  0  0
   49.0013   24.5194   48.9077 H   0  0  0  0  0  0  0  0  0  0  0  0
   48.7092   25.9184   49.9641 H   0  0  0  0  0  0  0  0  0  0  0  0
   49.5474   27.1098   48.2442 H   0  0  0  0  0  0  0  0  0  0  0  0
   50.3574   25.6148   47.5438 H   0  0  0  0  0  0  0  0  0  0  0  0
   52.2774   25.9379   48.6800 H   0  0  0  0  0  0  0  0  0  0  0  0
   51.7492   27.6431   48.2913 H   0  0  0  0  0  0  0  0  0  0  0  0
  1 14  1  0
  2  7  2  0
  3  2  1  0
  4  3  2  0
  4  5  1  0
  5  6  2  0
  6  7  1  0
  6  1  1  0
  8  9  1  0
  8  3  1  0
  9 10  2  0
 10 12  1  0
 11  9  1  0
 13  1  1  0
 14 15  1  0
 16 15  1  0
 16 18  1  0
 16 17  1  0
 19 18  1  0
 19 20  1  0
 21 20  1  0
 22 21  1  0
 23 24  1  0
 23 22  1  0
 24 19  1  0
  1 25  1  1
  2 26  1  0
  4 27  1  0
  8 28  1  0
 11 29  1  0
 11 30  1  0
 13 31  1  0
 13 32  1  0
 13 33  1  0
 14 34  1  0
 14 35  1  0
 16 36  1  6
 17 37  1  0
 17 38  1  0
 17 39  1  0
 18 40  1  0
 18 41  1  0
 20 42  1  0
 20 43  1  0
 21 44  1  0
 21 45  1  0
 22 46  1  0
 22 47  1  0
 23 48  1  0
 23 49  1  0
 24 50  1  0
 24 51  1  0
M  ISO  8  25   8  26  14  27  14  31   8  32   8  33   8  34   8  35   8
M  ISO  8  36   8  37   8  38   8  39   8  40   8  41   8  42  13  43  13
M  ISO  8  44  13  45  13  46  13  47  13  48  13  49  13  50  13  51  13
M  END
>  <minimizedAffinity>  (1) 
-4.89104128

>  <minimizedRMSD>  (1) 
0.631290555

$$$$
