
     RDKit          3D

 17 17  0  0  0  0  0  0  0  0999 V2000
   45.3720   35.3820   43.4270 C   0  0  0  0  0  0  0  0  0  0  0  0
   46.4300   35.2010   42.5010 C   0  0  0  0  0  0  0  0  0  0  0  0
   47.4050   34.2460   42.8070 C   0  0  0  0  0  0  0  0  0  0  0  0
   47.2840   33.5490   43.9660 N   0  0  0  0  0  0  0  0  0  0  0  0
   46.2700   33.7350   44.8320 C   0  0  0  0  0  0  0  0  0  0  0  0
   45.3210   34.6470   44.5610 N   0  0  0  0  0  0  0  0  0  0  0  0
   48.5180   33.9770   41.9500 N   0  0  0  0  0  0  0  0  0  0  0  0
   49.8540   34.1700   42.3720 C   0  0  0  0  0  0  0  0  0  0  0  0
   50.0710   35.1470   43.1870 N   0  0  0  0  0  0  0  0  0  0  0  0
   50.8460   33.2640   41.8600 N   0  0  0  0  0  0  0  0  0  0  0  0
   51.0610   35.2820   43.4940 H   0  0  0  0  0  0  0  0  0  0  0  0
   44.5874   36.1252   43.2218 H   0  0  0  0  0  0  0  0  0  0  0  0
   46.4823   35.7910   41.5741 H   0  0  0  0  0  0  0  0  0  0  0  0
   46.2186   33.1428   45.7576 H   0  0  0  0  0  0  0  0  0  0  0  0
   48.3410   33.6320   40.9958 H   0  0  0  0  0  0  0  0  0  0  0  0
   51.8316   33.3674   42.1406 H   0  0  0  0  0  0  0  0  0  0  0  0
   50.5710   32.5116   41.2126 H   0  0  0  0  0  0  0  0  0  0  0  0
  1  6  2  0
  2  3  2  0
  2  1  1  0
  3  4  1  0
  4  5  2  0
  6  5  1  0
  7  8  1  0
  7  3  1  0
  8  9  2  0
  9 11  1  0
 10  8  1  0
  1 12  1  0
  2 13  1  0
  5 14  1  0
  7 15  1  0
 10 16  1  0
 10 17  1  0
M  ISO  3  12  14  13  14  14  14
M  END
>  <minimizedAffinity>  (1) 
-4.06946707

>  <minimizedRMSD>  (1) 
2.1157999

$$$$
