
     RDKit          3D

 30 32  0  0  0  0  0  0  0  0999 V2000
   44.8010   35.6560   44.9530 C   0  0  0  0  0  0  0  0  0  0  0  0
   44.2540   35.4900   43.6720 C   0  0  0  0  0  0  0  0  0  0  0  0
   44.4070   34.2520   43.0440 C   0  0  0  0  0  0  0  0  0  0  0  0
   45.0760   33.2520   43.6850 N   0  0  0  0  0  0  0  0  0  0  0  0
   45.5940   33.4470   44.9270 C   0  0  0  0  0  0  0  0  0  0  0  0
   45.4560   34.6390   45.5520 N   0  0  0  0  0  0  0  0  0  0  0  0
   43.8490   34.0900   41.7450 N   0  0  0  0  0  0  0  0  0  0  0  0
   42.5080   33.8680   41.6430 C   0  0  0  0  0  0  0  0  0  0  0  0
   41.9810   33.7140   40.3840 C   0  0  0  0  0  0  0  0  0  0  0  0
   42.8000   33.7850   39.2800 C   0  0  0  0  0  0  0  0  0  0  0  0
   42.2810   33.6390   38.1430 O   0  0  0  0  0  0  0  0  0  0  0  0
   44.1440   34.0080   39.3690 N   0  0  0  0  0  0  0  0  0  0  0  0
   44.5930   34.1490   40.6300 C   0  0  0  0  0  0  0  0  0  0  0  0
   45.8460   34.3560   40.7190 O   0  0  0  0  0  0  0  0  0  0  0  0
   46.3030   32.3690   45.5930 C   0  0  0  0  0  0  0  0  0  0  0  0
   47.2770   31.5450   45.0680 C   0  0  0  0  0  0  0  0  0  0  0  0
   47.6970   30.6610   46.0000 N   0  0  0  0  0  0  0  0  0  0  0  0
   46.9750   30.9370   47.1130 C   0  0  0  0  0  0  0  0  0  0  0  0
   46.1290   31.9730   46.8700 N   0  0  0  0  0  0  0  0  0  0  0  0
   45.1910   32.5650   47.8110 C   0  0  0  0  0  0  0  0  0  0  0  0
   44.1880   31.6770   48.1940 F   0  0  0  0  0  0  0  0  0  0  0  0
   44.6140   33.7290   47.3050 F   0  0  0  0  0  0  0  0  0  0  0  0
   45.8490   32.8910   49.0000 F   0  0  0  0  0  0  0  0  0  0  0  0
   44.6956   36.6200   45.4722 H   0  0  0  0  0  0  0  0  0  0  0  0
   43.7189   36.3129   43.1754 H   0  0  0  0  0  0  0  0  0  0  0  0
   41.8702   33.8141   42.5376 H   0  0  0  0  0  0  0  0  0  0  0  0
   40.9032   33.5337   40.2578 H   0  0  0  0  0  0  0  0  0  0  0  0
   44.7593   34.0634   38.5449 H   0  0  0  0  0  0  0  0  0  0  0  0
   47.6576   31.5997   44.0374 H   0  0  0  0  0  0  0  0  0  0  0  0
   47.0607   30.4024   48.0705 H   0  0  0  0  0  0  0  0  0  0  0  0
  1  6  2  0
  2  1  1  0
  3  2  2  0
  3  4  1  0
  4  5  2  0
  5  6  1  0
  5 15  1  0
  7  3  1  0
  8  7  1  0
  9  8  2  0
 10 12  1  0
 10  9  1  0
 11 10  2  0
 12 13  1  0
 13 14  2  0
 13  7  1  0
 15 19  1  0
 16 15  2  0
 16 17  1  0
 17 18  2  0
 19 18  1  0
 19 20  1  0
 20 21  1  0
 20 23  1  0
 22 20  1  0
  1 24  1  0
  2 25  1  0
  8 26  1  0
  9 27  1  0
 12 28  1  0
 16 29  1  0
 18 30  1  0
M  ISO  7  24  14  25  14  26  14  27  14  28   9  29  14  30  14
M  END
>  <minimizedAffinity>  (1) 
-5.60139799

>  <minimizedRMSD>  (1) 
0.254836559

$$$$
