
     RDKit          3D

 33 35  0  0  0  0  0  0  0  0999 V2000
   45.7460   34.8710   43.5510 C   0  0  0  0  0  0  0  0  0  0  0  0
   46.9170   34.8420   42.7650 C   0  0  0  0  0  0  0  0  0  0  0  0
   47.7120   33.7130   42.8210 C   0  0  0  0  0  0  0  0  0  0  0  0
   47.2870   32.7350   43.6340 N   0  0  0  0  0  0  0  0  0  0  0  0
   46.1890   32.7250   44.3920 C   0  0  0  0  0  0  0  0  0  0  0  0
   45.4430   33.8200   44.3190 N   0  0  0  0  0  0  0  0  0  0  0  0
   46.0310   31.4940   45.1520 C   0  0  0  0  0  0  0  0  0  0  0  0
   46.0550   30.2670   44.5430 C   0  0  0  0  0  0  0  0  0  0  0  0
   45.9130   29.0690   45.2090 C   0  0  0  0  0  0  0  0  0  0  0  0
   45.7330   29.0530   46.5750 C   0  0  0  0  0  0  0  0  0  0  0  0
   45.7020   30.2570   47.2430 C   0  0  0  0  0  0  0  0  0  0  0  0
   45.5240   30.2420   48.6000 C   0  0  0  0  0  0  0  0  0  0  0  0
   45.4850   31.4150   49.3270 C   0  0  0  0  0  0  0  0  0  0  0  0
   45.6350   32.6070   48.6100 C   0  0  0  0  0  0  0  0  0  0  0  0
   45.8090   32.5570   47.2470 C   0  0  0  0  0  0  0  0  0  0  0  0
   45.8500   31.4120   46.5110 C   0  0  0  0  0  0  0  0  0  0  0  0
   48.9350   33.5390   42.0790 N   0  0  0  0  0  0  0  0  0  0  0  0
   50.1610   34.0880   42.5220 C   0  0  0  0  0  0  0  0  0  0  0  0
   50.1010   35.2230   43.1550 N   0  0  0  0  0  0  0  0  0  0  0  0
   51.3600   33.3500   42.2360 N   0  0  0  0  0  0  0  0  0  0  0  0
   51.0120   35.6190   43.4790 H   0  0  0  0  0  0  0  0  0  0  0  0
   45.0874   35.7518   43.5320 H   0  0  0  0  0  0  0  0  0  0  0  0
   47.1897   35.6943   42.1253 H   0  0  0  0  0  0  0  0  0  0  0  0
   46.1967   30.2362   43.4526 H   0  0  0  0  0  0  0  0  0  0  0  0
   45.9434   28.1229   44.6486 H   0  0  0  0  0  0  0  0  0  0  0  0
   45.6171   28.1033   47.1178 H   0  0  0  0  0  0  0  0  0  0  0  0
   45.4101   29.2794   49.1200 H   0  0  0  0  0  0  0  0  0  0  0  0
   45.3428   31.4125   50.4178 H   0  0  0  0  0  0  0  0  0  0  0  0
   45.6139   33.5751   49.1318 H   0  0  0  0  0  0  0  0  0  0  0  0
   45.9234   33.5114   46.7122 H   0  0  0  0  0  0  0  0  0  0  0  0
   48.9159   32.9998   41.2016 H   0  0  0  0  0  0  0  0  0  0  0  0
   52.2740   33.7142   42.5408 H   0  0  0  0  0  0  0  0  0  0  0  0
   51.3056   32.4567   41.7261 H   0  0  0  0  0  0  0  0  0  0  0  0
  1  6  2  0
  2  3  2  0
  2  1  1  0
  3  4  1  0
  4  5  2  0
  5  7  1  0
  6  5  1  0
  7 16  1  0
  8  7  2  0
  8  9  1  0
  9 10  2  0
 10 11  1  0
 11 12  1  0
 12 13  2  0
 14 13  1  0
 15 14  2  0
 16 11  2  0
 16 15  1  0
 17 18  1  0
 17  3  1  0
 18 19  2  0
 19 21  1  0
 20 18  1  0
  1 22  1  0
  2 23  1  0
  8 24  1  0
  9 25  1  0
 10 26  1  0
 12 27  1  0
 13 28  1  0
 14 29  1  0
 15 30  1  0
 17 31  1  0
 20 32  1  0
 20 33  1  0
M  ISO  8  22  14  23  14  24  14  25  14  26  14  27  14  28  14  29  14
M  ISO  1  30  14
M  END
>  <minimizedAffinity>  (1) 
-6.42090464

>  <minimizedRMSD>  (1) 
1.66472578

$$$$
