
     RDKit          3D

 24 25  0  0  0  0  0  0  0  0999 V2000
   45.5610   35.3640   43.0230 C   0  0  0  0  0  0  0  0  0  0  0  0
   46.6820   35.0910   42.2150 C   0  0  0  0  0  0  0  0  0  0  0  0
   47.6190   34.1780   42.6930 C   0  0  0  0  0  0  0  0  0  0  0  0
   47.4000   33.6080   43.9010 N   0  0  0  0  0  0  0  0  0  0  0  0
   46.3240   33.8830   44.6550 C   0  0  0  0  0  0  0  0  0  0  0  0
   45.4080   34.7520   44.2300 N   0  0  0  0  0  0  0  0  0  0  0  0
   48.8070   33.8040   41.9760 N   0  0  0  0  0  0  0  0  0  0  0  0
   50.0980   34.1330   42.4270 C   0  0  0  0  0  0  0  0  0  0  0  0
   50.2280   35.2480   43.0620 N   0  0  0  0  0  0  0  0  0  0  0  0
   51.1510   33.1940   42.1360 N   0  0  0  0  0  0  0  0  0  0  0  0
   51.1870   35.4750   43.4020 H   0  0  0  0  0  0  0  0  0  0  0  0
   46.1710   33.2210   45.9430 C   0  0  0  0  0  0  0  0  0  0  0  0
   46.9700   32.2310   46.4770 C   0  0  0  0  0  0  0  0  0  0  0  0
   46.5520   31.8340   47.6920 N   0  0  0  0  0  0  0  0  0  0  0  0
   45.4520   32.5900   47.9490 C   0  0  0  0  0  0  0  0  0  0  0  0
   45.2330   33.4190   46.8920 N   0  0  0  0  0  0  0  0  0  0  0  0
   44.8010   36.0792   42.6754 H   0  0  0  0  0  0  0  0  0  0  0  0
   46.8130   35.5822   41.2395 H   0  0  0  0  0  0  0  0  0  0  0  0
   48.7093   33.2746   41.0979 H   0  0  0  0  0  0  0  0  0  0  0  0
   52.1142   33.3884   42.4447 H   0  0  0  0  0  0  0  0  0  0  0  0
   50.9407   32.3282   41.6193 H   0  0  0  0  0  0  0  0  0  0  0  0
   47.8501   31.8133   45.9662 H   0  0  0  0  0  0  0  0  0  0  0  0
   44.8395   32.5400   48.8613 H   0  0  0  0  0  0  0  0  0  0  0  0
   44.4624   34.0993   46.8262 H   0  0  0  0  0  0  0  0  0  0  0  0
  1  6  2  0
  2  3  2  0
  2  1  1  0
  3  4  1  0
  4  5  2  0
  5 12  1  0
  6  5  1  0
  7  8  1  0
  7  3  1  0
  8  9  2  0
  9 11  1  0
 10  8  1  0
 12 13  2  0
 12 16  1  0
 13 14  1  0
 14 15  2  0
 16 15  1  0
  1 17  1  0
  2 18  1  0
  7 19  1  0
 10 20  1  0
 10 21  1  0
 13 22  1  0
 15 23  1  0
 16 24  1  0
M  ISO  5  17  14  18  14  22  14  23  14  24   9
M  END
>  <minimizedAffinity>  (1) 
-5.80910015

>  <minimizedRMSD>  (1) 
0.572220206

$$$$
