
     RDKit          3D

 24 25  0  0  0  0  0  0  0  0999 V2000
   45.5750   35.4110   42.6650 C   0  0  0  0  0  0  0  0  0  0  0  0
   46.7620   35.0490   41.9980 C   0  0  0  0  0  0  0  0  0  0  0  0
   47.6360   34.1720   42.6410 C   0  0  0  0  0  0  0  0  0  0  0  0
   47.2880   33.7210   43.8670 N   0  0  0  0  0  0  0  0  0  0  0  0
   46.1430   34.0780   44.4950 C   0  0  0  0  0  0  0  0  0  0  0  0
   45.2980   34.9170   43.8920 N   0  0  0  0  0  0  0  0  0  0  0  0
   48.8790   33.7100   42.0950 N   0  0  0  0  0  0  0  0  0  0  0  0
   50.1220   34.1360   42.5940 C   0  0  0  0  0  0  0  0  0  0  0  0
   50.1950   35.3240   43.0630 N   0  0  0  0  0  0  0  0  0  0  0  0
   51.2050   33.1900   42.5310 N   0  0  0  0  0  0  0  0  0  0  0  0
   51.1170   35.6210   43.4560 H   0  0  0  0  0  0  0  0  0  0  0  0
   45.9410   33.4880   45.8140 C   0  0  0  0  0  0  0  0  0  0  0  0
   46.4700   32.4880   46.5750 C   0  0  0  0  0  0  0  0  0  0  0  0
   45.7500   32.5120   47.7560 C   0  0  0  0  0  0  0  0  0  0  0  0
   44.8220   33.4960   47.7000 N   0  0  0  0  0  0  0  0  0  0  0  0
   44.9530   34.0820   46.5070 N   0  0  0  0  0  0  0  0  0  0  0  0
   44.8676   36.1017   42.1829 H   0  0  0  0  0  0  0  0  0  0  0  0
   46.9931   35.4465   40.9987 H   0  0  0  0  0  0  0  0  0  0  0  0
   48.8602   33.0431   41.3103 H   0  0  0  0  0  0  0  0  0  0  0  0
   52.1373   33.4503   42.8829 H   0  0  0  0  0  0  0  0  0  0  0  0
   51.0476   32.2527   42.1340 H   0  0  0  0  0  0  0  0  0  0  0  0
   47.2924   31.8083   46.3074 H   0  0  0  0  0  0  0  0  0  0  0  0
   45.9073   31.8357   48.6092 H   0  0  0  0  0  0  0  0  0  0  0  0
   44.1453   33.7448   48.4356 H   0  0  0  0  0  0  0  0  0  0  0  0
  1  6  2  0
  2  3  2  0
  2  1  1  0
  3  4  1  0
  4  5  2  0
  5 12  1  0
  6  5  1  0
  7  8  1  0
  7  3  1  0
  8  9  2  0
  9 11  1  0
 10  8  1  0
 12 16  2  0
 12 13  1  0
 13 14  2  0
 15 14  1  0
 16 15  1  0
  1 17  1  0
  2 18  1  0
  7 19  1  0
 10 20  1  0
 10 21  1  0
 13 22  1  0
 14 23  1  0
 15 24  1  0
M  ISO  5  17  14  18  14  22  14  23  14  24   9
M  END
>  <minimizedAffinity>  (1) 
-6.05723381

>  <minimizedRMSD>  (1) 
0.938854516

$$$$
