
     RDKit          3D

 24 25  0  0  0  0  0  0  0  0999 V2000
   45.5730   35.3100   43.0460 C   0  0  0  0  0  0  0  0  0  0  0  0
   46.7160   35.0690   42.2480 C   0  0  0  0  0  0  0  0  0  0  0  0
   47.6280   34.1050   42.6660 C   0  0  0  0  0  0  0  0  0  0  0  0
   47.3770   33.4440   43.8200 N   0  0  0  0  0  0  0  0  0  0  0  0
   46.2780   33.6840   44.5730 C   0  0  0  0  0  0  0  0  0  0  0  0
   45.3870   34.6090   44.1890 N   0  0  0  0  0  0  0  0  0  0  0  0
   46.1760   32.8960   45.7520 N   0  0  0  0  0  0  0  0  0  0  0  0
   46.6170   31.7150   46.1410 N   0  0  0  0  0  0  0  0  0  0  0  0
   46.2160   31.4460   47.3910 C   0  0  0  0  0  0  0  0  0  0  0  0
   45.4630   32.5400   47.8250 C   0  0  0  0  0  0  0  0  0  0  0  0
   45.4570   33.4440   46.7590 C   0  0  0  0  0  0  0  0  0  0  0  0
   48.8190   33.7710   41.9500 N   0  0  0  0  0  0  0  0  0  0  0  0
   50.1050   34.1110   42.4180 C   0  0  0  0  0  0  0  0  0  0  0  0
   50.2120   35.2070   43.0900 N   0  0  0  0  0  0  0  0  0  0  0  0
   51.1810   33.2250   42.1140 N   0  0  0  0  0  0  0  0  0  0  0  0
   51.1600   35.4510   43.4520 H   0  0  0  0  0  0  0  0  0  0  0  0
   44.8361   36.0663   42.7380 H   0  0  0  0  0  0  0  0  0  0  0  0
   46.8802   35.6316   41.3171 H   0  0  0  0  0  0  0  0  0  0  0  0
   46.4379   30.5354   47.9669 H   0  0  0  0  0  0  0  0  0  0  0  0
   44.9757   32.6642   48.8033 H   0  0  0  0  0  0  0  0  0  0  0  0
   44.9579   34.4241   46.7417 H   0  0  0  0  0  0  0  0  0  0  0  0
   48.7348   33.2626   41.0582 H   0  0  0  0  0  0  0  0  0  0  0  0
   52.1339   33.4413   42.4396 H   0  0  0  0  0  0  0  0  0  0  0  0
   51.0049   32.3690   41.5689 H   0  0  0  0  0  0  0  0  0  0  0  0
  1  6  2  0
  2  3  2  0
  2  1  1  0
  3  4  1  0
  4  5  2  0
  5  7  1  0
  6  5  1  0
  7  8  1  0
  7 11  1  0
  8  9  2  0
  9 10  1  0
 11 10  2  0
 12 13  1  0
 12  3  1  0
 13 14  2  0
 14 16  1  0
 15 13  1  0
  1 17  1  0
  2 18  1  0
  9 19  1  0
 10 20  1  0
 11 21  1  0
 12 22  1  0
 15 23  1  0
 15 24  1  0
M  ISO  5  17  14  18  14  19  14  20  14  21  14
M  END
>  <minimizedAffinity>  (1) 
-5.58143997

>  <minimizedRMSD>  (1) 
0.34077549

$$$$
