
     RDKit          3D

 27 28  0  0  0  0  0  0  0  0999 V2000
   45.5920   35.1610   43.2220 C   0  0  0  0  0  0  0  0  0  0  0  0
   46.6980   34.9780   42.3530 C   0  0  0  0  0  0  0  0  0  0  0  0
   47.6620   34.0450   42.7470 C   0  0  0  0  0  0  0  0  0  0  0  0
   47.4830   33.3850   43.9140 N   0  0  0  0  0  0  0  0  0  0  0  0
   46.4300   33.5750   44.7180 C   0  0  0  0  0  0  0  0  0  0  0  0
   45.4880   34.4620   44.3700 N   0  0  0  0  0  0  0  0  0  0  0  0
   46.3020   32.8250   45.9670 C   0  0  0  0  0  0  0  0  0  0  0  0
   45.4020   33.2470   46.9290 C   0  0  0  0  0  0  0  0  0  0  0  0
   45.2920   32.5300   48.1020 C   0  0  0  0  0  0  0  0  0  0  0  0
   46.0810   31.4130   48.2810 C   0  0  0  0  0  0  0  0  0  0  0  0
   46.9960   30.9590   47.3360 C   0  0  0  0  0  0  0  0  0  0  0  0
   47.0900   31.6900   46.1700 C   0  0  0  0  0  0  0  0  0  0  0  0
   48.8390   33.7480   41.9760 N   0  0  0  0  0  0  0  0  0  0  0  0
   50.1310   34.1210   42.3990 C   0  0  0  0  0  0  0  0  0  0  0  0
   50.2360   35.2020   43.0820 N   0  0  0  0  0  0  0  0  0  0  0  0
   51.1950   33.2370   42.0120 N   0  0  0  0  0  0  0  0  0  0  0  0
   51.2040   35.4460   43.4020 H   0  0  0  0  0  0  0  0  0  0  0  0
   44.8073   35.8842   42.9552 H   0  0  0  0  0  0  0  0  0  0  0  0
   46.7928   35.5431   41.4140 H   0  0  0  0  0  0  0  0  0  0  0  0
   44.7834   34.1409   46.7610 H   0  0  0  0  0  0  0  0  0  0  0  0
   44.5850   32.8446   48.8838 H   0  0  0  0  0  0  0  0  0  0  0  0
   45.9816   30.8508   49.2213 H   0  0  0  0  0  0  0  0  0  0  0  0
   47.6119   30.0643   47.5097 H   0  0  0  0  0  0  0  0  0  0  0  0
   47.7964   31.3741   45.3882 H   0  0  0  0  0  0  0  0  0  0  0  0
   48.7344   33.2450   41.0833 H   0  0  0  0  0  0  0  0  0  0  0  0
   52.1651   33.4476   42.2867 H   0  0  0  0  0  0  0  0  0  0  0  0
   50.9878   32.3926   41.4598 H   0  0  0  0  0  0  0  0  0  0  0  0
  1  6  2  0
  2  3  2  0
  2  1  1  0
  3  4  1  0
  4  5  2  0
  5  7  1  0
  6  5  1  0
  7 12  1  0
  7  8  2  0
  8  9  1  0
  9 10  2  0
 11 10  1  0
 12 11  2  0
 13 14  1  0
 13  3  1  0
 14 15  2  0
 15 17  1  0
 16 14  1  0
  1 18  1  0
  2 19  1  0
  8 20  1  0
  9 21  1  0
 10 22  1  0
 11 23  1  0
 12 24  1  0
 13 25  1  0
 16 26  1  0
 16 27  1  0
M  ISO  7  18  14  19  14  20  14  21  14  22  14  23  14  24  14
M  END
>  <minimizedAffinity>  (1) 
-5.73081827

>  <minimizedRMSD>  (1) 
0.554505467

$$$$
