
     RDKit          3D

 23 24  0  0  0  0  0  0  0  0999 V2000
   45.5840   35.3270   43.0480 C   0  0  0  0  0  0  0  0  0  0  0  0
   46.7190   35.0880   42.2480 C   0  0  0  0  0  0  0  0  0  0  0  0
   47.6400   34.1070   42.6420 C   0  0  0  0  0  0  0  0  0  0  0  0
   47.3760   33.4320   43.7970 N   0  0  0  0  0  0  0  0  0  0  0  0
   46.2940   33.6710   44.5440 C   0  0  0  0  0  0  0  0  0  0  0  0
   45.3960   34.6160   44.1770 N   0  0  0  0  0  0  0  0  0  0  0  0
   46.2020   32.8590   45.7120 N   0  0  0  0  0  0  0  0  0  0  0  0
   46.6140   31.6720   46.1960 C   0  0  0  0  0  0  0  0  0  0  0  0
   46.1380   31.5180   47.4440 N   0  0  0  0  0  0  0  0  0  0  0  0
   45.4250   32.6110   47.7450 C   0  0  0  0  0  0  0  0  0  0  0  0
   45.4700   33.4280   46.6750 N   0  0  0  0  0  0  0  0  0  0  0  0
   48.8200   33.7920   41.9050 N   0  0  0  0  0  0  0  0  0  0  0  0
   50.1100   34.1300   42.4110 C   0  0  0  0  0  0  0  0  0  0  0  0
   50.2100   35.2250   43.0970 N   0  0  0  0  0  0  0  0  0  0  0  0
   51.1850   33.2120   42.1070 N   0  0  0  0  0  0  0  0  0  0  0  0
   51.1580   35.4470   43.4550 H   0  0  0  0  0  0  0  0  0  0  0  0
   44.8524   36.0930   42.7513 H   0  0  0  0  0  0  0  0  0  0  0  0
   46.8806   35.6643   41.3251 H   0  0  0  0  0  0  0  0  0  0  0  0
   47.2395   30.9451   45.6570 H   0  0  0  0  0  0  0  0  0  0  0  0
   44.8995   32.8057   48.6915 H   0  0  0  0  0  0  0  0  0  0  0  0
   48.7395   33.3144   40.9960 H   0  0  0  0  0  0  0  0  0  0  0  0
   52.1382   33.4047   42.4464 H   0  0  0  0  0  0  0  0  0  0  0  0
   50.9976   32.3654   41.5511 H   0  0  0  0  0  0  0  0  0  0  0  0
  1  6  2  0
  2  3  2  0
  2  1  1  0
  3  4  1  0
  4  5  2  0
  5  7  1  0
  6  5  1  0
  7  8  1  0
  7 11  1  0
  8  9  2  0
  9 10  1  0
 11 10  2  0
 12 13  1  0
 12  3  1  0
 13 14  2  0
 14 16  1  0
 15 13  1  0
  1 17  1  0
  2 18  1  0
  8 19  1  0
 10 20  1  0
 12 21  1  0
 15 22  1  0
 15 23  1  0
M  ISO  4  17  14  18  14  19  14  20  14
M  END
>  <minimizedAffinity>  (1) 
-5.61215782

>  <minimizedRMSD>  (1) 
0.358384401

$$$$
