
     RDKit          3D

 31 32  0  0  0  0  0  0  0  0999 V2000
   45.4130   35.2550   43.5820 C   0  0  0  0  0  0  0  0  0  0  0  0
   46.4610   35.1150   42.6550 C   0  0  0  0  0  0  0  0  0  0  0  0
   47.4070   34.1190   42.8540 C   0  0  0  0  0  0  0  0  0  0  0  0
   47.2580   33.3370   43.9400 N   0  0  0  0  0  0  0  0  0  0  0  0
   46.2640   33.4550   44.8380 C   0  0  0  0  0  0  0  0  0  0  0  0
   45.3450   34.4280   44.6370 N   0  0  0  0  0  0  0  0  0  0  0  0
   46.1850   32.5690   45.9740 N   0  0  0  0  0  0  0  0  0  0  0  0
   45.5740   33.1490   47.1550 C   0  0  0  0  0  0  0  0  0  0  0  0
   45.1560   32.0580   48.0830 C   0  0  0  0  0  0  0  0  0  0  0  0
   44.8640   30.8130   47.4020 N   0  0  0  0  0  0  0  0  0  0  0  0
   45.9970   30.2780   46.7060 C   0  0  0  0  0  0  0  0  0  0  0  0
   46.7130   31.2290   45.8120 C   0  0  0  0  0  0  0  0  0  0  0  0
   48.5080   33.8970   41.9710 N   0  0  0  0  0  0  0  0  0  0  0  0
   49.8490   34.1170   42.3780 C   0  0  0  0  0  0  0  0  0  0  0  0
   50.0570   35.0840   43.2100 N   0  0  0  0  0  0  0  0  0  0  0  0
   50.8590   33.2490   41.8320 N   0  0  0  0  0  0  0  0  0  0  0  0
   51.0470   35.2290   43.5000 H   0  0  0  0  0  0  0  0  0  0  0  0
   44.6530   36.0380   43.4433 H   0  0  0  0  0  0  0  0  0  0  0  0
   46.5301   35.7848   41.7852 H   0  0  0  0  0  0  0  0  0  0  0  0
   46.3001   33.8027   47.6605 H   0  0  0  0  0  0  0  0  0  0  0  0
   44.6934   33.7390   46.8611 H   0  0  0  0  0  0  0  0  0  0  0  0
   45.9682   31.8808   48.8033 H   0  0  0  0  0  0  0  0  0  0  0  0
   44.2302   32.3857   48.5784 H   0  0  0  0  0  0  0  0  0  0  0  0
   44.5509   30.1227   48.0994 H   0  0  0  0  0  0  0  0  0  0  0  0
   46.7142   29.9146   47.4567 H   0  0  0  0  0  0  0  0  0  0  0  0
   45.6008   29.4894   46.0494 H   0  0  0  0  0  0  0  0  0  0  0  0
   46.5828   30.9119   44.7668 H   0  0  0  0  0  0  0  0  0  0  0  0
   47.7809   31.2318   46.0757 H   0  0  0  0  0  0  0  0  0  0  0  0
   48.3230   33.5682   41.0126 H   0  0  0  0  0  0  0  0  0  0  0  0
   51.8454   33.3738   42.1008 H   0  0  0  0  0  0  0  0  0  0  0  0
   50.5953   32.5031   41.1725 H   0  0  0  0  0  0  0  0  0  0  0  0
  1  6  2  0
  2  3  2  0
  2  1  1  0
  3  4  1  0
  4  5  2  0
  5  7  1  0
  6  5  1  0
  7  8  1  0
  8  9  1  0
 10  9  1  0
 11 10  1  0
 12  7  1  0
 12 11  1  0
 13 14  1  0
 13  3  1  0
 14 15  2  0
 15 17  1  0
 16 14  1  0
  1 18  1  0
  2 19  1  0
  8 20  1  0
  8 21  1  0
  9 22  1  0
  9 23  1  0
 10 24  1  0
 11 25  1  0
 11 26  1  0
 12 27  1  0
 12 28  1  0
 13 29  1  0
 16 30  1  0
 16 31  1  0
M  ISO  8  18  14  19  14  20  13  21  13  22  13  23  13  24   5  25  13
M  ISO  3  26  13  27  13  28  13
M  END
>  <minimizedAffinity>  (1) 
-5.7446847

>  <minimizedRMSD>  (1) 
0.335009456

$$$$
