
     RDKit          3D

 25 26  0  0  0  0  0  0  0  0999 V2000
   45.5820   35.1950   43.1990 C   0  0  0  0  0  0  0  0  0  0  0  0
   46.6890   34.9920   42.3480 C   0  0  0  0  0  0  0  0  0  0  0  0
   47.6620   34.0530   42.7310 C   0  0  0  0  0  0  0  0  0  0  0  0
   47.4670   33.3980   43.9080 N   0  0  0  0  0  0  0  0  0  0  0  0
   46.4090   33.6050   44.7000 C   0  0  0  0  0  0  0  0  0  0  0  0
   45.4760   34.4940   44.3510 N   0  0  0  0  0  0  0  0  0  0  0  0
   48.8180   33.7680   41.9520 N   0  0  0  0  0  0  0  0  0  0  0  0
   50.1100   34.1190   42.3900 C   0  0  0  0  0  0  0  0  0  0  0  0
   50.2290   35.2100   43.0890 N   0  0  0  0  0  0  0  0  0  0  0  0
   51.1890   33.2450   42.0310 N   0  0  0  0  0  0  0  0  0  0  0  0
   51.1970   35.4310   43.4360 H   0  0  0  0  0  0  0  0  0  0  0  0
   46.2840   32.8540   45.9460 C   0  0  0  0  0  0  0  0  0  0  0  0
   47.0590   31.7370   46.1830 C   0  0  0  0  0  0  0  0  0  0  0  0
   46.9710   31.0080   47.3370 C   0  0  0  0  0  0  0  0  0  0  0  0
   46.0860   31.4190   48.2570 N   0  0  0  0  0  0  0  0  0  0  0  0
   45.3220   32.5200   48.0220 C   0  0  0  0  0  0  0  0  0  0  0  0
   45.3900   33.2660   46.8790 N   0  0  0  0  0  0  0  0  0  0  0  0
   44.8047   35.9237   42.9255 H   0  0  0  0  0  0  0  0  0  0  0  0
   46.7880   35.5548   41.4081 H   0  0  0  0  0  0  0  0  0  0  0  0
   48.7073   33.2930   41.0448 H   0  0  0  0  0  0  0  0  0  0  0  0
   52.1500   33.4634   42.3303 H   0  0  0  0  0  0  0  0  0  0  0  0
   51.0028   32.3989   41.4739 H   0  0  0  0  0  0  0  0  0  0  0  0
   47.7769   31.4199   45.4123 H   0  0  0  0  0  0  0  0  0  0  0  0
   47.6002   30.1212   47.5036 H   0  0  0  0  0  0  0  0  0  0  0  0
   44.6066   32.8282   48.7987 H   0  0  0  0  0  0  0  0  0  0  0  0
  1  6  2  0
  2  3  2  0
  2  1  1  0
  3  4  1  0
  4  5  2  0
  5 12  1  0
  6  5  1  0
  7  8  1  0
  7  3  1  0
  8  9  2  0
  9 11  1  0
 10  8  1  0
 12 13  2  0
 12 17  1  0
 13 14  1  0
 14 15  2  0
 16 15  1  0
 17 16  2  0
  1 18  1  0
  2 19  1  0
  7 20  1  0
 10 21  1  0
 10 22  1  0
 13 23  1  0
 14 24  1  0
 16 25  1  0
M  ISO  5  18  14  19  14  23  14  24  14  25  14
M  END
>  <minimizedAffinity>  (1) 
-5.5856452

>  <minimizedRMSD>  (1) 
0.541065156

$$$$
