
     RDKit          3D

 30 31  0  0  0  0  0  0  0  0999 V2000
   45.5770   35.2240   43.0790 C   0  0  0  0  0  0  0  0  0  0  0  0
   46.7240   35.0320   42.2540 C   0  0  0  0  0  0  0  0  0  0  0  0
   47.6560   34.0740   42.6590 C   0  0  0  0  0  0  0  0  0  0  0  0
   47.4170   33.3820   43.8130 N   0  0  0  0  0  0  0  0  0  0  0  0
   46.3190   33.5860   44.5770 C   0  0  0  0  0  0  0  0  0  0  0  0
   45.4160   34.4940   44.2100 N   0  0  0  0  0  0  0  0  0  0  0  0
   46.2010   32.7930   45.7530 N   0  0  0  0  0  0  0  0  0  0  0  0
   46.7850   31.4660   45.7580 C   0  0  0  0  0  0  0  0  0  0  0  0
   45.9950   30.6640   46.7770 C   0  0  0  0  0  0  0  0  0  0  0  0
   46.1200   31.3120   47.9790 O   0  0  0  0  0  0  0  0  0  0  0  0
   45.3340   32.4600   48.0340 C   0  0  0  0  0  0  0  0  0  0  0  0
   45.4950   33.3810   46.8740 C   0  0  0  0  0  0  0  0  0  0  0  0
   48.8410   33.7810   41.9340 N   0  0  0  0  0  0  0  0  0  0  0  0
   50.1250   34.1240   42.4000 C   0  0  0  0  0  0  0  0  0  0  0  0
   50.2140   35.2020   43.1040 N   0  0  0  0  0  0  0  0  0  0  0  0
   51.2070   33.2500   42.0550 N   0  0  0  0  0  0  0  0  0  0  0  0
   51.1690   35.4570   43.4370 H   0  0  0  0  0  0  0  0  0  0  0  0
   44.8184   35.9687   42.7962 H   0  0  0  0  0  0  0  0  0  0  0  0
   46.8693   35.6163   41.3334 H   0  0  0  0  0  0  0  0  0  0  0  0
   46.6999   31.0074   44.7618 H   0  0  0  0  0  0  0  0  0  0  0  0
   47.8547   31.4979   46.0125 H   0  0  0  0  0  0  0  0  0  0  0  0
   44.9365   30.6158   46.4818 H   0  0  0  0  0  0  0  0  0  0  0  0
   46.3730   29.6332   46.8448 H   0  0  0  0  0  0  0  0  0  0  0  0
   44.2794   32.1512   48.0825 H   0  0  0  0  0  0  0  0  0  0  0  0
   45.6625   33.0191   48.9225 H   0  0  0  0  0  0  0  0  0  0  0  0
   46.0541   34.2669   47.2097 H   0  0  0  0  0  0  0  0  0  0  0  0
   44.4836   33.6301   46.5203 H   0  0  0  0  0  0  0  0  0  0  0  0
   48.7581   33.2969   41.0286 H   0  0  0  0  0  0  0  0  0  0  0  0
   52.1628   33.4626   42.3748 H   0  0  0  0  0  0  0  0  0  0  0  0
   51.0289   32.4092   41.4873 H   0  0  0  0  0  0  0  0  0  0  0  0
  1  6  2  0
  2  3  2  0
  2  1  1  0
  3  4  1  0
  4  5  2  0
  5  7  1  0
  6  5  1  0
  7  8  1  0
  7 12  1  0
  8  9  1  0
  9 10  1  0
 10 11  1  0
 12 11  1  0
 13 14  1  0
 13  3  1  0
 14 15  2  0
 15 17  1  0
 16 14  1  0
  1 18  1  0
  2 19  1  0
  8 20  1  0
  8 21  1  0
  9 22  1  0
  9 23  1  0
 11 24  1  0
 11 25  1  0
 12 26  1  0
 12 27  1  0
 13 28  1  0
 16 29  1  0
 16 30  1  0
M  ISO  8  18  14  19  14  20  13  21  13  22  13  23  13  24  13  25  13
M  ISO  2  26  13  27  13
M  END
>  <minimizedAffinity>  (1) 
-5.69948816

>  <minimizedRMSD>  (1) 
0.352569073

$$$$
