
     RDKit          3D

 30 32  0  0  0  0  0  0  0  0999 V2000
   44.6950   35.7350   45.0780 C   0  0  0  0  0  0  0  0  0  0  0  0
   44.2280   35.6660   43.7480 C   0  0  0  0  0  0  0  0  0  0  0  0
   44.4600   34.5070   43.0370 C   0  0  0  0  0  0  0  0  0  0  0  0
   45.1200   33.4860   43.6290 N   0  0  0  0  0  0  0  0  0  0  0  0
   45.5600   33.5730   44.9080 C   0  0  0  0  0  0  0  0  0  0  0  0
   45.3520   34.6900   45.6360 N   0  0  0  0  0  0  0  0  0  0  0  0
   44.0100   34.3560   41.6600 C   0  0  0  0  0  0  0  0  0  0  0  0
   44.5210   33.4630   40.7560 C   0  0  0  0  0  0  0  0  0  0  0  0
   44.0740   33.3440   39.4560 C   0  0  0  0  0  0  0  0  0  0  0  0
   43.0500   34.1760   39.0540 C   0  0  0  0  0  0  0  0  0  0  0  0
   42.4790   35.0980   39.8910 C   0  0  0  0  0  0  0  0  0  0  0  0
   42.9910   35.1450   41.1690 C   0  0  0  0  0  0  0  0  0  0  0  0
   46.2650   32.4460   45.5050 C   0  0  0  0  0  0  0  0  0  0  0  0
   47.2120   31.6250   44.9140 C   0  0  0  0  0  0  0  0  0  0  0  0
   47.6360   30.6850   45.8010 N   0  0  0  0  0  0  0  0  0  0  0  0
   46.9440   30.9330   46.9420 C   0  0  0  0  0  0  0  0  0  0  0  0
   46.1150   31.9940   46.7720 N   0  0  0  0  0  0  0  0  0  0  0  0
   45.2120   32.5650   47.7620 C   0  0  0  0  0  0  0  0  0  0  0  0
   44.2420   31.6480   48.1660 F   0  0  0  0  0  0  0  0  0  0  0  0
   44.6050   33.7350   47.2940 F   0  0  0  0  0  0  0  0  0  0  0  0
   45.9170   32.8730   48.9250 F   0  0  0  0  0  0  0  0  0  0  0  0
   44.5236   36.6474   45.6680 H   0  0  0  0  0  0  0  0  0  0  0  0
   43.6942   36.5124   43.2913 H   0  0  0  0  0  0  0  0  0  0  0  0
   45.3358   32.8017   41.0857 H   0  0  0  0  0  0  0  0  0  0  0  0
   44.5182   32.6121   38.7653 H   0  0  0  0  0  0  0  0  0  0  0  0
   42.6777   34.0962   38.0220 H   0  0  0  0  0  0  0  0  0  0  0  0
   41.6632   35.7591   39.5633 H   0  0  0  0  0  0  0  0  0  0  0  0
   42.5474   35.8773   41.8596 H   0  0  0  0  0  0  0  0  0  0  0  0
   47.5691   31.7197   43.8779 H   0  0  0  0  0  0  0  0  0  0  0  0
   47.0414   30.3555   47.8731 H   0  0  0  0  0  0  0  0  0  0  0  0
  1  6  2  0
  2  1  1  0
  3  4  1  0
  3  2  2  0
  4  5  2  0
  5 13  1  0
  5  6  1  0
  7  3  1  0
  8  7  2  0
  9  8  1  0
 10  9  2  0
 10 11  1  0
 11 12  2  0
 12  7  1  0
 13 17  1  0
 14 13  2  0
 14 15  1  0
 15 16  2  0
 17 16  1  0
 17 18  1  0
 18 19  1  0
 18 21  1  0
 20 18  1  0
  1 22  1  0
  2 23  1  0
  8 24  1  0
  9 25  1  0
 10 26  1  0
 11 27  1  0
 12 28  1  0
 14 29  1  0
 16 30  1  0
M  ISO  8  22  14  23  14  24  14  25  14  26  14  27  14  28  14  29  14
M  ISO  1  30  14
M  END
>  <minimizedAffinity>  (1) 
-5.4979372

>  <minimizedRMSD>  (1) 
0.64592737

$$$$
