
     RDKit          3D

 30 32  0  0  0  0  0  0  0  0999 V2000
   44.6980   35.7280   45.0850 C   0  0  0  0  0  0  0  0  0  0  0  0
   44.2280   35.6760   43.7650 C   0  0  0  0  0  0  0  0  0  0  0  0
   44.4640   34.5150   43.0580 C   0  0  0  0  0  0  0  0  0  0  0  0
   45.1240   33.4810   43.6300 N   0  0  0  0  0  0  0  0  0  0  0  0
   45.5680   33.5660   44.9170 C   0  0  0  0  0  0  0  0  0  0  0  0
   45.3570   34.6800   45.6400 N   0  0  0  0  0  0  0  0  0  0  0  0
   44.0150   34.3640   41.6800 C   0  0  0  0  0  0  0  0  0  0  0  0
   44.5370   33.4600   40.7810 C   0  0  0  0  0  0  0  0  0  0  0  0
   44.0910   33.3390   39.4810 C   0  0  0  0  0  0  0  0  0  0  0  0
   43.0700   34.1520   39.0300 C   0  0  0  0  0  0  0  0  0  0  0  0
   42.5040   35.0800   39.8800 C   0  0  0  0  0  0  0  0  0  0  0  0
   42.9990   35.1470   41.1680 C   0  0  0  0  0  0  0  0  0  0  0  0
   46.2750   32.4360   45.5090 C   0  0  0  0  0  0  0  0  0  0  0  0
   47.2130   31.6140   44.9220 C   0  0  0  0  0  0  0  0  0  0  0  0
   47.6340   30.6770   45.8090 N   0  0  0  0  0  0  0  0  0  0  0  0
   46.9530   30.9240   46.9410 C   0  0  0  0  0  0  0  0  0  0  0  0
   46.1210   31.9940   46.7730 N   0  0  0  0  0  0  0  0  0  0  0  0
   45.2200   32.5700   47.7660 C   0  0  0  0  0  0  0  0  0  0  0  0
   44.2470   31.6440   48.1770 F   0  0  0  0  0  0  0  0  0  0  0  0
   44.6050   33.7150   47.2970 F   0  0  0  0  0  0  0  0  0  0  0  0
   45.9150   32.8720   48.9240 F   0  0  0  0  0  0  0  0  0  0  0  0
   44.5291   36.6362   45.6822 H   0  0  0  0  0  0  0  0  0  0  0  0
   43.6940   36.5246   43.3125 H   0  0  0  0  0  0  0  0  0  0  0  0
   45.3511   32.8009   41.1169 H   0  0  0  0  0  0  0  0  0  0  0  0
   44.5465   32.5985   38.8071 H   0  0  0  0  0  0  0  0  0  0  0  0
   42.7086   34.0600   37.9951 H   0  0  0  0  0  0  0  0  0  0  0  0
   41.6906   35.7405   39.5452 H   0  0  0  0  0  0  0  0  0  0  0  0
   42.5452   35.8872   41.8435 H   0  0  0  0  0  0  0  0  0  0  0  0
   47.5687   31.7044   43.8850 H   0  0  0  0  0  0  0  0  0  0  0  0
   47.0518   30.3459   47.8716 H   0  0  0  0  0  0  0  0  0  0  0  0
  1  6  2  0
  2  1  1  0
  3  4  1  0
  3  2  2  0
  4  5  2  0
  5 13  1  0
  5  6  1  0
  7  3  1  0
  8  7  2  0
  9  8  1  0
 10  9  2  0
 10 11  1  0
 11 12  2  0
 12  7  1  0
 13 17  1  0
 14 13  2  0
 14 15  1  0
 15 16  2  0
 17 16  1  0
 17 18  1  0
 18 19  1  0
 18 21  1  0
 20 18  1  0
  1 22  1  0
  2 23  1  0
  8 24  1  0
  9 25  1  0
 10 26  1  0
 11 27  1  0
 12 28  1  0
 14 29  1  0
 16 30  1  0
M  ISO  8  22  14  23  14  24  14  25  14  26  14  27  14  28  14  29  14
M  ISO  1  30  14
M  END
>  <minimizedAffinity>  (1) 
-5.49666309

>  <minimizedRMSD>  (1) 
0.584525883

$$$$
