
     RDKit          3D

 24 25  0  0  0  0  0  0  0  0999 V2000
   45.5910   35.2660   43.0750 C   0  0  0  0  0  0  0  0  0  0  0  0
   46.7170   35.0630   42.2550 C   0  0  0  0  0  0  0  0  0  0  0  0
   47.6440   34.0940   42.6520 C   0  0  0  0  0  0  0  0  0  0  0  0
   47.3940   33.4240   43.7900 N   0  0  0  0  0  0  0  0  0  0  0  0
   46.3170   33.6170   44.5770 C   0  0  0  0  0  0  0  0  0  0  0  0
   45.4210   34.5500   44.1980 N   0  0  0  0  0  0  0  0  0  0  0  0
   46.1010   32.8800   45.7730 N   0  0  0  0  0  0  0  0  0  0  0  0
   45.4530   33.4510   46.8190 C   0  0  0  0  0  0  0  0  0  0  0  0
   45.4000   32.5020   47.8140 C   0  0  0  0  0  0  0  0  0  0  0  0
   46.0160   31.3780   47.3470 N   0  0  0  0  0  0  0  0  0  0  0  0
   46.4370   31.6330   46.0930 C   0  0  0  0  0  0  0  0  0  0  0  0
   48.8300   33.7890   41.9080 N   0  0  0  0  0  0  0  0  0  0  0  0
   50.1230   34.1280   42.4010 C   0  0  0  0  0  0  0  0  0  0  0  0
   50.2210   35.2150   43.0930 N   0  0  0  0  0  0  0  0  0  0  0  0
   51.1940   33.2290   42.0820 N   0  0  0  0  0  0  0  0  0  0  0  0
   51.1770   35.4540   43.4340 H   0  0  0  0  0  0  0  0  0  0  0  0
   44.8416   36.0200   42.7924 H   0  0  0  0  0  0  0  0  0  0  0  0
   46.8627   35.6463   41.3339 H   0  0  0  0  0  0  0  0  0  0  0  0
   45.0488   34.4731   46.8632 H   0  0  0  0  0  0  0  0  0  0  0  0
   44.9433   32.6271   48.8069 H   0  0  0  0  0  0  0  0  0  0  0  0
   46.9709   30.9263   45.4407 H   0  0  0  0  0  0  0  0  0  0  0  0
   48.7460   33.3147   40.9976 H   0  0  0  0  0  0  0  0  0  0  0  0
   52.1488   33.4271   42.4138 H   0  0  0  0  0  0  0  0  0  0  0  0
   51.0084   32.3853   41.5211 H   0  0  0  0  0  0  0  0  0  0  0  0
  1  6  2  0
  2  3  2  0
  2  1  1  0
  3  4  1  0
  4  5  2  0
  5  7  1  0
  6  5  1  0
  7 11  1  0
  7  8  1  0
  8  9  2  0
 10  9  1  0
 11 10  2  0
 12 13  1  0
 12  3  1  0
 13 14  2  0
 14 16  1  0
 15 13  1  0
  1 17  1  0
  2 18  1  0
  8 19  1  0
  9 20  1  0
 11 21  1  0
 12 22  1  0
 15 23  1  0
 15 24  1  0
M  ISO  5  17  14  18  14  19  14  20  14  21  14
M  END
>  <minimizedAffinity>  (1) 
-5.51003838

>  <minimizedRMSD>  (1) 
0.351574749

$$$$
