
     RDKit          3D

 30 31  0  0  0  0  0  0  0  0999 V2000
   45.5710   34.9330   43.8820 C   0  0  0  0  0  0  0  0  0  0  0  0
   46.6740   34.7030   43.0210 C   0  0  0  0  0  0  0  0  0  0  0  0
   47.5740   33.6960   43.3490 C   0  0  0  0  0  0  0  0  0  0  0  0
   47.3410   32.9830   44.4850 N   0  0  0  0  0  0  0  0  0  0  0  0
   46.2940   33.2140   45.2870 C   0  0  0  0  0  0  0  0  0  0  0  0
   45.4180   34.1760   44.9920 N   0  0  0  0  0  0  0  0  0  0  0  0
   48.7200   33.3790   42.5530 N   0  0  0  0  0  0  0  0  0  0  0  0
   49.9510   34.0440   42.7300 C   0  0  0  0  0  0  0  0  0  0  0  0
   49.9090   35.2940   43.0850 N   0  0  0  0  0  0  0  0  0  0  0  0
   51.1640   33.2930   42.5070 N   0  0  0  0  0  0  0  0  0  0  0  0
   50.8290   35.7730   43.1950 H   0  0  0  0  0  0  0  0  0  0  0  0
   46.1290   32.3800   46.5080 C   0  0  0  0  0  0  0  0  0  0  0  0
   47.4420   32.3810   47.2980 C   0  0  0  0  0  0  0  0  0  0  0  0
   46.9800   31.6690   48.5490 C   0  0  0  0  0  0  0  0  0  0  0  0
   45.5800   32.2110   48.7890 C   0  0  0  0  0  0  0  0  0  0  0  0
   45.1770   32.9390   47.5100 C   0  0  0  0  0  0  0  0  0  0  0  0
   44.8430   35.7237   43.6480 H   0  0  0  0  0  0  0  0  0  0  0  0
   46.8142   35.3084   42.1133 H   0  0  0  0  0  0  0  0  0  0  0  0
   48.6440   32.6467   41.8326 H   0  0  0  0  0  0  0  0  0  0  0  0
   52.0805   33.7474   42.6273 H   0  0  0  0  0  0  0  0  0  0  0  0
   51.1127   32.3029   42.2277 H   0  0  0  0  0  0  0  0  0  0  0  0
   45.7867   31.4067   46.1265 H   0  0  0  0  0  0  0  0  0  0  0  0
   48.2347   31.8236   46.7775 H   0  0  0  0  0  0  0  0  0  0  0  0
   47.8897   33.3724   47.4614 H   0  0  0  0  0  0  0  0  0  0  0  0
   46.9557   30.5805   48.3923 H   0  0  0  0  0  0  0  0  0  0  0  0
   47.6509   31.8396   49.4039 H   0  0  0  0  0  0  0  0  0  0  0  0
   44.8820   31.3857   48.9935 H   0  0  0  0  0  0  0  0  0  0  0  0
   45.5562   32.8858   49.6574 H   0  0  0  0  0  0  0  0  0  0  0  0
   45.3033   34.0267   47.6149 H   0  0  0  0  0  0  0  0  0  0  0  0
   44.1205   32.7970   47.2385 H   0  0  0  0  0  0  0  0  0  0  0  0
  1  6  2  0
  2  3  2  0
  2  1  1  0
  3  4  1  0
  4  5  2  0
  5 12  1  0
  6  5  1  0
  7  8  1  0
  7  3  1  0
  8  9  2  0
  9 11  1  0
 10  8  1  0
 12 13  1  0
 12 16  1  0
 13 14  1  0
 14 15  1  0
 16 15  1  0
  1 17  1  0
  2 18  1  0
  7 19  1  0
 10 20  1  0
 10 21  1  0
 12 22  1  0
 13 23  1  0
 13 24  1  0
 14 25  1  0
 14 26  1  0
 15 27  1  0
 15 28  1  0
 16 29  1  0
 16 30  1  0
M  ISO  8  17  14  18  14  22  13  23  13  24  13  25  13  26  13  27  13
M  ISO  3  28  13  29  13  30  13
M  END
>  <minimizedAffinity>  (1) 
-5.5452652

>  <minimizedRMSD>  (1) 
0.808507979

$$$$
