
     RDKit          3D

 20 20  0  0  0  0  0  0  0  0999 V2000
   45.3740   35.2290   43.5460 C   0  0  0  0  0  0  0  0  0  0  0  0
   46.3940   35.0670   42.5810 C   0  0  0  0  0  0  0  0  0  0  0  0
   47.4250   34.1580   42.8890 C   0  0  0  0  0  0  0  0  0  0  0  0
   47.3810   33.5000   44.0760 N   0  0  0  0  0  0  0  0  0  0  0  0
   46.4000   33.6800   44.9630 C   0  0  0  0  0  0  0  0  0  0  0  0
   45.4080   34.5340   44.7020 N   0  0  0  0  0  0  0  0  0  0  0  0
   48.5220   33.8960   41.9990 N   0  0  0  0  0  0  0  0  0  0  0  0
   49.8660   34.1240   42.3770 C   0  0  0  0  0  0  0  0  0  0  0  0
   50.0820   35.1060   43.1700 N   0  0  0  0  0  0  0  0  0  0  0  0
   50.8490   33.2310   41.8310 N   0  0  0  0  0  0  0  0  0  0  0  0
   51.0760   35.2520   43.4650 H   0  0  0  0  0  0  0  0  0  0  0  0
   46.4710   32.9120   46.2020 C   0  0  0  0  0  0  0  0  0  0  0  0
   45.8510   31.8180   46.2670 O   0  0  0  0  0  0  0  0  0  0  0  0
   47.1820   33.3080   47.3270 O   0  0  0  0  0  0  0  0  0  0  0  0
   44.5461   35.9271   43.3531 H   0  0  0  0  0  0  0  0  0  0  0  0
   46.3832   35.6251   41.6331 H   0  0  0  0  0  0  0  0  0  0  0  0
   48.3237   33.5308   41.0565 H   0  0  0  0  0  0  0  0  0  0  0  0
   51.8433   33.3500   42.0721 H   0  0  0  0  0  0  0  0  0  0  0  0
   50.5598   32.4714   41.1983 H   0  0  0  0  0  0  0  0  0  0  0  0
   47.1871   32.7370   48.1357 H   0  0  0  0  0  0  0  0  0  0  0  0
  1  6  2  0
  2  3  2  0
  2  1  1  0
  3  4  1  0
  4  5  2  0
  5 12  1  0
  6  5  1  0
  7  8  1  0
  7  3  1  0
  8  9  2  0
  9 11  1  0
 10  8  1  0
 12 13  2  0
 12 14  1  0
  1 15  1  0
  2 16  1  0
  7 17  1  0
 10 18  1  0
 10 19  1  0
 14 20  1  0
M  ISO  3  15  14  16  14  20   3
M  END
>  <minimizedAffinity>  (1) 
-5.12581539

>  <minimizedRMSD>  (1) 
0.197263524

$$$$
