
     RDKit          3D

 25 26  0  0  0  0  0  0  0  0999 V2000
   45.5850   35.1680   43.2180 C   0  0  0  0  0  0  0  0  0  0  0  0
   46.6950   34.9750   42.3660 C   0  0  0  0  0  0  0  0  0  0  0  0
   47.6690   34.0410   42.7430 C   0  0  0  0  0  0  0  0  0  0  0  0
   47.4850   33.3690   43.9140 N   0  0  0  0  0  0  0  0  0  0  0  0
   46.4230   33.5720   44.7030 C   0  0  0  0  0  0  0  0  0  0  0  0
   45.4840   34.4570   44.3640 N   0  0  0  0  0  0  0  0  0  0  0  0
   48.8250   33.7710   41.9560 N   0  0  0  0  0  0  0  0  0  0  0  0
   50.1170   34.1220   42.3830 C   0  0  0  0  0  0  0  0  0  0  0  0
   50.2370   35.1990   43.0860 N   0  0  0  0  0  0  0  0  0  0  0  0
   51.2030   33.2510   41.9990 N   0  0  0  0  0  0  0  0  0  0  0  0
   51.1980   35.4370   43.4060 H   0  0  0  0  0  0  0  0  0  0  0  0
   46.2870   32.8190   45.9470 C   0  0  0  0  0  0  0  0  0  0  0  0
   47.0570   31.6950   46.1760 C   0  0  0  0  0  0  0  0  0  0  0  0
   46.9000   31.0050   47.3700 C   0  0  0  0  0  0  0  0  0  0  0  0
   46.0040   31.4340   48.2910 N   0  0  0  0  0  0  0  0  0  0  0  0
   45.2670   32.5220   48.0560 C   0  0  0  0  0  0  0  0  0  0  0  0
   45.4150   33.1940   46.9010 N   0  0  0  0  0  0  0  0  0  0  0  0
   44.8043   35.8951   42.9499 H   0  0  0  0  0  0  0  0  0  0  0  0
   46.7923   35.5439   41.4296 H   0  0  0  0  0  0  0  0  0  0  0  0
   48.7104   33.3038   41.0452 H   0  0  0  0  0  0  0  0  0  0  0  0
   52.1664   33.4700   42.2902 H   0  0  0  0  0  0  0  0  0  0  0  0
   51.0142   32.4108   41.4339 H   0  0  0  0  0  0  0  0  0  0  0  0
   47.7830   31.3524   45.4240 H   0  0  0  0  0  0  0  0  0  0  0  0
   47.5045   30.1078   47.5689 H   0  0  0  0  0  0  0  0  0  0  0  0
   44.5402   32.8679   48.8057 H   0  0  0  0  0  0  0  0  0  0  0  0
  1  6  2  0
  2  3  2  0
  2  1  1  0
  3  4  1  0
  4  5  2  0
  5 12  1  0
  6  5  1  0
  7  8  1  0
  7  3  1  0
  8  9  2  0
  9 11  1  0
 10  8  1  0
 12 13  2  0
 12 17  1  0
 13 14  1  0
 14 15  2  0
 16 15  1  0
 17 16  2  0
  1 18  1  0
  2 19  1  0
  7 20  1  0
 10 21  1  0
 10 22  1  0
 13 23  1  0
 14 24  1  0
 16 25  1  0
M  ISO  5  18  14  19  14  23  14  24  14  25  14
M  END
>  <minimizedAffinity>  (1) 
-5.56358957

>  <minimizedRMSD>  (1) 
0.542579174

$$$$
