
     RDKit          3D

 20 20  0  0  0  0  0  0  0  0999 V2000
   45.5570   35.3620   42.9700 C   0  0  0  0  0  0  0  0  0  0  0  0
   46.7200   35.0500   42.2320 C   0  0  0  0  0  0  0  0  0  0  0  0
   47.6080   34.1140   42.7920 C   0  0  0  0  0  0  0  0  0  0  0  0
   47.2910   33.5830   43.9880 N   0  0  0  0  0  0  0  0  0  0  0  0
   46.1850   33.8910   44.6710 C   0  0  0  0  0  0  0  0  0  0  0  0
   45.3300   34.7770   44.1570 N   0  0  0  0  0  0  0  0  0  0  0  0
   48.8210   33.7270   42.1200 N   0  0  0  0  0  0  0  0  0  0  0  0
   50.0840   34.1580   42.5990 C   0  0  0  0  0  0  0  0  0  0  0  0
   50.1550   35.3410   43.1150 N   0  0  0  0  0  0  0  0  0  0  0  0
   51.1880   33.2410   42.4720 N   0  0  0  0  0  0  0  0  0  0  0  0
   51.0830   35.6530   43.4490 H   0  0  0  0  0  0  0  0  0  0  0  0
   46.0380   33.1780   45.9800 C   0  0  0  0  0  0  0  0  0  0  0  0
   47.2200   33.1570   46.6770 F   0  0  0  0  0  0  0  0  0  0  0  0
   45.6890   31.8440   45.7610 F   0  0  0  0  0  0  0  0  0  0  0  0
   45.0030   33.7850   46.6260 F   0  0  0  0  0  0  0  0  0  0  0  0
   44.8336   36.0879   42.5704 H   0  0  0  0  0  0  0  0  0  0  0  0
   46.9232   35.5201   41.2585 H   0  0  0  0  0  0  0  0  0  0  0  0
   48.7708   33.1304   41.2819 H   0  0  0  0  0  0  0  0  0  0  0  0
   52.1237   33.5120   42.8065 H   0  0  0  0  0  0  0  0  0  0  0  0
   51.0415   32.3144   42.0467 H   0  0  0  0  0  0  0  0  0  0  0  0
  1  6  2  0
  2  3  2  0
  2  1  1  0
  3  4  1  0
  4  5  2  0
  5 12  1  0
  6  5  1  0
  7  8  1  0
  7  3  1  0
  8  9  2  0
  9 11  1  0
 10  8  1  0
 12 15  1  0
 12 13  1  0
 14 12  1  0
  1 16  1  0
  2 17  1  0
  7 18  1  0
 10 19  1  0
 10 20  1  0
M  ISO  2  16  14  17  14
M  END
>  <minimizedAffinity>  (1) 
-5.24588346

>  <minimizedRMSD>  (1) 
0.549386859

$$$$
