
     RDKit          3D

 23 23  0  0  0  0  0  0  0  0999 V2000
   45.5670   35.3990   42.7720 C   0  0  0  0  0  0  0  0  0  0  0  0
   46.7490   35.0410   42.0850 C   0  0  0  0  0  0  0  0  0  0  0  0
   47.6370   34.1480   42.6940 C   0  0  0  0  0  0  0  0  0  0  0  0
   47.3070   33.6750   43.9190 N   0  0  0  0  0  0  0  0  0  0  0  0
   46.1820   34.0230   44.5590 C   0  0  0  0  0  0  0  0  0  0  0  0
   45.3170   34.8720   44.0020 N   0  0  0  0  0  0  0  0  0  0  0  0
   48.8550   33.7330   42.0720 N   0  0  0  0  0  0  0  0  0  0  0  0
   50.1130   34.1470   42.5710 C   0  0  0  0  0  0  0  0  0  0  0  0
   50.1850   35.3390   43.0850 N   0  0  0  0  0  0  0  0  0  0  0  0
   51.2090   33.2110   42.4650 N   0  0  0  0  0  0  0  0  0  0  0  0
   51.1200   35.6410   43.4260 H   0  0  0  0  0  0  0  0  0  0  0  0
   45.8700   33.4710   45.9060 C   0  0  0  0  0  0  0  0  0  0  0  0
   46.8880   32.4420   46.3320 C   0  0  0  0  0  0  0  0  0  0  0  0
   44.8527   36.0998   42.3152 H   0  0  0  0  0  0  0  0  0  0  0  0
   46.9666   35.4567   41.0901 H   0  0  0  0  0  0  0  0  0  0  0  0
   48.8165   33.1208   41.2446 H   0  0  0  0  0  0  0  0  0  0  0  0
   52.1426   33.4694   42.8150 H   0  0  0  0  0  0  0  0  0  0  0  0
   51.0565   32.2855   42.0395 H   0  0  0  0  0  0  0  0  0  0  0  0
   45.8656   34.2931   46.6368 H   0  0  0  0  0  0  0  0  0  0  0  0
   44.8853   32.9830   45.8591 H   0  0  0  0  0  0  0  0  0  0  0  0
   46.9295   32.4001   47.4304 H   0  0  0  0  0  0  0  0  0  0  0  0
   46.5999   31.4562   45.9381 H   0  0  0  0  0  0  0  0  0  0  0  0
   47.8768   32.7195   45.9381 H   0  0  0  0  0  0  0  0  0  0  0  0
  1  6  2  0
  2  3  2  0
  2  1  1  0
  3  4  1  0
  4  5  2  0
  5 12  1  0
  6  5  1  0
  7  8  1  0
  7  3  1  0
  8  9  2  0
  9 11  1  0
 10  8  1  0
 12 13  1  0
  1 14  1  0
  2 15  1  0
  7 16  1  0
 10 17  1  0
 10 18  1  0
 12 19  1  0
 12 20  1  0
 13 21  1  0
 13 22  1  0
 13 23  1  0
M  ISO  7  14  14  15  14  19   8  20   8  21   8  22   8  23   8
M  END
>  <minimizedAffinity>  (1) 
-4.69711304

>  <minimizedRMSD>  (1) 
0.535251796

$$$$
