
     RDKit          3D

 35 37  0  0  1  0  0  0  0  0999 V2000
   46.1540   34.3660   41.9930 N   0  0  0  0  0  0  0  0  0  0  0  0
   47.3620   35.0230   41.5460 C   0  0  0  0  0  0  0  0  0  0  0  0
   48.0050   34.2260   40.4500 C   0  0  0  0  0  0  0  0  0  0  0  0
   46.9880   34.0480   39.4200 N   0  0  0  0  0  0  0  0  0  0  0  0
   46.0960   33.0390   39.9270 C   0  0  0  0  0  0  0  0  0  0  0  0
   45.4120   33.4210   41.2050 C   0  0  2  0  0  0  0  0  0  0  0  0
   44.0290   33.7750   41.0010 N   0  0  0  0  0  0  0  0  0  0  0  0
   43.6420   34.8830   40.3090 C   0  0  0  0  0  0  0  0  0  0  0  0
   42.3070   35.1760   40.1420 C   0  0  0  0  0  0  0  0  0  0  0  0
   41.4090   34.3140   40.7000 C   0  0  0  0  0  0  0  0  0  0  0  0
   40.0280   34.6110   40.5320 N   0  0  0  0  0  0  0  0  0  0  0  0
   41.7560   33.2090   41.3900 N   0  0  0  0  0  0  0  0  0  0  0  0
   43.0860   32.9510   41.5340 C   0  0  0  0  0  0  0  0  0  0  0  0
   43.3200   31.9060   42.1890 O   0  0  0  0  0  0  0  0  0  0  0  0
   44.4930   35.9880   44.9340 C   0  0  0  0  0  0  0  0  0  0  0  0
   44.9490   35.8160   43.6250 C   0  0  0  0  0  0  0  0  0  0  0  0
   45.6450   34.6500   43.2890 C   0  0  0  0  0  0  0  0  0  0  0  0
   45.8330   33.7360   44.3070 N   0  0  0  0  0  0  0  0  0  0  0  0
   45.3850   33.9270   45.5570 C   0  0  0  0  0  0  0  0  0  0  0  0
   44.7150   35.0560   45.8630 N   0  0  0  0  0  0  0  0  0  0  0  0
   47.1129   36.0259   41.1689 H   0  0  0  0  0  0  0  0  0  0  0  0
   48.0618   35.1048   42.3907 H   0  0  0  0  0  0  0  0  0  0  0  0
   48.8696   34.7695   40.0412 H   0  0  0  0  0  0  0  0  0  0  0  0
   48.3696   33.2573   40.8223 H   0  0  0  0  0  0  0  0  0  0  0  0
   47.4198   33.7360   38.5385 H   0  0  0  0  0  0  0  0  0  0  0  0
   45.3256   32.8438   39.1665 H   0  0  0  0  0  0  0  0  0  0  0  0
   46.7081   32.1514   40.1449 H   0  0  0  0  0  0  0  0  0  0  0  0
   45.3929   32.5146   41.8280 H   0  0  0  0  0  0  0  0  0  0  0  0
   44.4037   35.5502   39.8794 H   0  0  0  0  0  0  0  0  0  0  0  0
   41.9793   36.0653   39.5837 H   0  0  0  0  0  0  0  0  0  0  0  0
   39.3143   33.9880   40.9362 H   0  0  0  0  0  0  0  0  0  0  0  0
   39.7417   35.4491   40.0061 H   0  0  0  0  0  0  0  0  0  0  0  0
   43.9442   36.9028   45.2024 H   0  0  0  0  0  0  0  0  0  0  0  0
   44.7626   36.5898   42.8658 H   0  0  0  0  0  0  0  0  0  0  0  0
   45.5638   33.1648   46.3297 H   0  0  0  0  0  0  0  0  0  0  0  0
  1 17  1  0
  2  1  1  0
  3  2  1  0
  4  5  1  0
  4  3  1  0
  5  6  1  0
  6  1  1  0
  7  6  1  0
  7 13  1  0
  8  7  1  0
  9  8  2  0
  9 10  1  0
 10 12  2  0
 11 10  1  0
 12 13  1  0
 13 14  2  0
 15 20  2  0
 16 15  1  0
 17 16  2  0
 17 18  1  0
 18 19  2  0
 19 20  1  0
  2 21  1  0
  2 22  1  0
  3 23  1  0
  3 24  1  0
  4 25  1  0
  5 26  1  0
  5 27  1  0
  6 28  1  1
  8 29  1  0
  9 30  1  0
 11 31  1  0
 11 32  1  0
 15 33  1  0
 16 34  1  0
 19 35  1  0
M  ISO  8  21  13  22  13  23  13  24  13  25   5  26  13  27  13  28  13
M  ISO  5  29  14  30  14  33  14  34  14  35  14
M  END
>  <minimizedAffinity>  (1) 
-5.38266659

>  <minimizedRMSD>  (1) 
1.7197783

$$$$
