
     RDKit          3D

 34 36  0  0  1  0  0  0  0  0999 V2000
   46.8870   34.5180   42.3170 N   0  0  0  0  0  0  0  0  0  0  0  0
   48.2980   34.3500   42.4870 C   0  0  0  0  0  0  0  0  0  0  0  0
   48.8920   33.6490   41.3230 C   0  0  0  0  0  0  0  0  0  0  0  0
   48.4420   34.2710   40.1030 N   0  0  0  0  0  0  0  0  0  0  0  0
   47.0540   33.9410   39.9330 C   0  0  0  0  0  0  0  0  0  0  0  0
   46.1770   34.3960   41.0520 C   0  0  1  0  0  0  0  0  0  0  0  0
   44.5160   36.1540   44.7230 C   0  0  0  0  0  0  0  0  0  0  0  0
   45.2560   35.9780   43.5480 C   0  0  0  0  0  0  0  0  0  0  0  0
   46.0710   34.8340   43.4590 C   0  0  0  0  0  0  0  0  0  0  0  0
   46.0870   33.9600   44.5340 N   0  0  0  0  0  0  0  0  0  0  0  0
   45.3550   34.1830   45.6360 C   0  0  0  0  0  0  0  0  0  0  0  0
   44.5820   35.2580   45.7350 N   0  0  0  0  0  0  0  0  0  0  0  0
   45.0040   33.5540   41.2410 N   0  0  0  0  0  0  0  0  0  0  0  0
   45.1010   32.2610   41.6700 C   0  0  0  0  0  0  0  0  0  0  0  0
   43.9880   31.4580   41.8520 C   0  0  0  0  0  0  0  0  0  0  0  0
   42.7640   32.0060   41.5840 C   0  0  0  0  0  0  0  0  0  0  0  0
   41.6900   31.3320   41.7260 O   0  0  0  0  0  0  0  0  0  0  0  0
   42.6480   33.2820   41.1590 N   0  0  0  0  0  0  0  0  0  0  0  0
   43.7650   34.0320   40.9960 C   0  0  0  0  0  0  0  0  0  0  0  0
   43.5660   35.1880   40.6040 O   0  0  0  0  0  0  0  0  0  0  0  0
   48.7685   35.3389   42.5902 H   0  0  0  0  0  0  0  0  0  0  0  0
   48.4735   33.7447   43.3886 H   0  0  0  0  0  0  0  0  0  0  0  0
   49.9889   33.7077   41.3809 H   0  0  0  0  0  0  0  0  0  0  0  0
   48.5788   32.5946   41.3327 H   0  0  0  0  0  0  0  0  0  0  0  0
   48.5547   35.2928   40.1675 H   0  0  0  0  0  0  0  0  0  0  0  0
   46.6989   34.4099   39.0035 H   0  0  0  0  0  0  0  0  0  0  0  0
   46.9903   32.8432   39.9068 H   0  0  0  0  0  0  0  0  0  0  0  0
   45.8397   35.3956   40.7404 H   0  0  0  0  0  0  0  0  0  0  0  0
   43.8686   37.0373   44.8257 H   0  0  0  0  0  0  0  0  0  0  0  0
   45.2026   36.7062   42.7253 H   0  0  0  0  0  0  0  0  0  0  0  0
   45.3958   33.4655   46.4688 H   0  0  0  0  0  0  0  0  0  0  0  0
   46.0972   31.8435   41.8780 H   0  0  0  0  0  0  0  0  0  0  0  0
   44.0845   30.4186   42.1990 H   0  0  0  0  0  0  0  0  0  0  0  0
   41.7197   33.6817   40.9605 H   0  0  0  0  0  0  0  0  0  0  0  0
  1  2  1  0
  1  9  1  0
  3  2  1  0
  4  3  1  0
  5  4  1  0
  5  6  1  0
  6 13  1  0
  6  1  1  0
  7 12  2  0
  8  7  1  0
  9  8  2  0
  9 10  1  0
 10 11  2  0
 11 12  1  0
 13 14  1  0
 14 15  2  0
 16 17  2  0
 16 15  1  0
 18 16  1  0
 19 18  1  0
 19 13  1  0
 20 19  2  0
  2 21  1  0
  2 22  1  0
  3 23  1  0
  3 24  1  0
  4 25  1  0
  5 26  1  0
  5 27  1  0
  6 28  1  6
  7 29  1  0
  8 30  1  0
 11 31  1  0
 14 32  1  0
 15 33  1  0
 18 34  1  0
M  ISO  8  21  13  22  13  23  13  24  13  25   5  26  13  27  13  28  13
M  ISO  6  29  14  30  14  31  14  32  14  33  14  34   9
M  END
>  <minimizedAffinity>  (1) 
-5.19121599

>  <minimizedRMSD>  (1) 
0.72615695

$$$$
