
     RDKit          3D

 34 36  0  0  1  0  0  0  0  0999 V2000
   47.0510   34.4050   42.4400 N   0  0  0  0  0  0  0  0  0  0  0  0
   48.3870   33.9630   42.6820 C   0  0  0  0  0  0  0  0  0  0  0  0
   48.9120   33.2420   41.4790 C   0  0  0  0  0  0  0  0  0  0  0  0
   48.7260   34.1210   40.3240 N   0  0  0  0  0  0  0  0  0  0  0  0
   47.3200   34.0620   40.0230 C   0  0  0  0  0  0  0  0  0  0  0  0
   46.4580   34.6000   41.1220 C   0  0  1  0  0  0  0  0  0  0  0  0
   44.5520   36.0120   44.7380 C   0  0  0  0  0  0  0  0  0  0  0  0
   45.3490   35.8240   43.6020 C   0  0  0  0  0  0  0  0  0  0  0  0
   46.1950   34.6890   43.5560 C   0  0  0  0  0  0  0  0  0  0  0  0
   46.1720   33.8490   44.6310 N   0  0  0  0  0  0  0  0  0  0  0  0
   45.3890   34.0670   45.7040 C   0  0  0  0  0  0  0  0  0  0  0  0
   44.5840   35.1430   45.7540 N   0  0  0  0  0  0  0  0  0  0  0  0
   45.1430   33.8790   41.0350 C   0  0  0  0  0  0  0  0  0  0  0  0
   45.0010   32.5410   41.3450 C   0  0  0  0  0  0  0  0  0  0  0  0
   43.7910   31.8830   41.2620 C   0  0  0  0  0  0  0  0  0  0  0  0
   42.6770   32.5900   40.8520 C   0  0  0  0  0  0  0  0  0  0  0  0
   42.7940   33.9160   40.5410 C   0  0  0  0  0  0  0  0  0  0  0  0
   43.9980   34.5460   40.6290 C   0  0  0  0  0  0  0  0  0  0  0  0
   49.0262   34.8329   42.8934 H   0  0  0  0  0  0  0  0  0  0  0  0
   48.3914   33.2796   43.5439 H   0  0  0  0  0  0  0  0  0  0  0  0
   49.9806   33.0177   41.6121 H   0  0  0  0  0  0  0  0  0  0  0  0
   48.3777   32.2917   41.3329 H   0  0  0  0  0  0  0  0  0  0  0  0
   49.0050   35.0850   40.5559 H   0  0  0  0  0  0  0  0  0  0  0  0
   47.1326   34.6498   39.1123 H   0  0  0  0  0  0  0  0  0  0  0  0
   47.0583   33.0017   39.8920 H   0  0  0  0  0  0  0  0  0  0  0  0
   46.3384   35.6864   40.9974 H   0  0  0  0  0  0  0  0  0  0  0  0
   43.8893   36.8881   44.7955 H   0  0  0  0  0  0  0  0  0  0  0  0
   45.3188   36.5394   42.7669 H   0  0  0  0  0  0  0  0  0  0  0  0
   45.4078   33.3597   46.5462 H   0  0  0  0  0  0  0  0  0  0  0  0
   45.8876   31.9773   41.6710 H   0  0  0  0  0  0  0  0  0  0  0  0
   43.7148   30.8158   41.5174 H   0  0  0  0  0  0  0  0  0  0  0  0
   41.7009   32.0884   40.7762 H   0  0  0  0  0  0  0  0  0  0  0  0
   41.9069   34.4796   40.2165 H   0  0  0  0  0  0  0  0  0  0  0  0
   44.0636   35.6133   40.3708 H   0  0  0  0  0  0  0  0  0  0  0  0
  1  2  1  0
  1  9  1  0
  3  2  1  0
  4  3  1  0
  5  4  1  0
  5  6  1  0
  6  1  1  0
  7 12  2  0
  8  7  1  0
  9  8  2  0
  9 10  1  0
 10 11  2  0
 11 12  1  0
 13  6  1  0
 13 14  2  0
 15 14  1  0
 16 15  2  0
 17 18  2  0
 17 16  1  0
 18 13  1  0
  2 19  1  0
  2 20  1  0
  3 21  1  0
  3 22  1  0
  4 23  1  0
  5 24  1  0
  5 25  1  0
  6 26  1  6
  7 27  1  0
  8 28  1  0
 11 29  1  0
 14 30  1  0
 15 31  1  0
 16 32  1  0
 17 33  1  0
 18 34  1  0
M  ISO  8  19  13  20  13  21  13  22  13  23   5  24  13  25  13  26  13
M  ISO  8  27  14  28  14  29  14  30  14  31  14  32  14  33  14  34  14
M  END
>  <minimizedAffinity>  (1) 
-4.89688158

>  <minimizedRMSD>  (1) 
1.25769556

$$$$
