
     RDKit          3D

 31 33  0  0  1  0  0  0  0  0999 V2000
   46.2530   34.2970   42.2500 N   0  0  0  0  0  0  0  0  0  0  0  0
   47.3980   35.0760   41.8330 C   0  0  0  0  0  0  0  0  0  0  0  0
   48.0500   34.4230   40.6530 C   0  0  0  0  0  0  0  0  0  0  0  0
   47.0210   34.2080   39.6510 N   0  0  0  0  0  0  0  0  0  0  0  0
   46.2770   33.0590   40.1280 C   0  0  0  0  0  0  0  0  0  0  0  0
   45.5570   33.3570   41.4220 C   0  0  2  0  0  0  0  0  0  0  0  0
   44.5250   35.6040   45.3140 C   0  0  0  0  0  0  0  0  0  0  0  0
   44.9830   35.5030   44.0080 C   0  0  0  0  0  0  0  0  0  0  0  0
   45.7760   34.4450   43.5780 C   0  0  0  0  0  0  0  0  0  0  0  0
   46.0640   33.5170   44.5410 N   0  0  0  0  0  0  0  0  0  0  0  0
   45.6180   33.6230   45.7960 C   0  0  0  0  0  0  0  0  0  0  0  0
   44.8620   34.6400   46.1950 N   0  0  0  0  0  0  0  0  0  0  0  0
   44.1380   33.7650   41.1120 C   0  0  0  0  0  0  0  0  0  0  0  0
   43.7180   34.9750   40.5470 C   0  0  0  0  0  0  0  0  0  0  0  0
   42.3620   35.0290   40.4320 C   0  0  0  0  0  0  0  0  0  0  0  0
   41.9750   33.8420   40.9340 N   0  0  0  0  0  0  0  0  0  0  0  0
   42.9780   33.0830   41.3380 N   0  0  0  0  0  0  0  0  0  0  0  0
   47.0699   36.0886   41.5556 H   0  0  0  0  0  0  0  0  0  0  0  0
   48.1194   35.1355   42.6613 H   0  0  0  0  0  0  0  0  0  0  0  0
   48.8371   35.0767   40.2491 H   0  0  0  0  0  0  0  0  0  0  0  0
   48.5132   33.4688   40.9444 H   0  0  0  0  0  0  0  0  0  0  0  0
   47.4438   34.0112   38.7326 H   0  0  0  0  0  0  0  0  0  0  0  0
   45.5370   32.7723   39.3663 H   0  0  0  0  0  0  0  0  0  0  0  0
   46.9898   32.2418   40.3128 H   0  0  0  0  0  0  0  0  0  0  0  0
   45.5296   32.4410   42.0305 H   0  0  0  0  0  0  0  0  0  0  0  0
   43.8993   36.4537   45.6247 H   0  0  0  0  0  0  0  0  0  0  0  0
   44.7090   36.2877   43.2875 H   0  0  0  0  0  0  0  0  0  0  0  0
   45.8857   32.8422   46.5231 H   0  0  0  0  0  0  0  0  0  0  0  0
   44.3981   35.7813   40.2350 H   0  0  0  0  0  0  0  0  0  0  0  0
   41.7385   35.8407   40.0291 H   0  0  0  0  0  0  0  0  0  0  0  0
   40.9886   33.5522   40.9974 H   0  0  0  0  0  0  0  0  0  0  0  0
  1  9  1  0
  2  1  1  0
  3  2  1  0
  4  5  1  0
  4  3  1  0
  5  6  1  0
  6  1  1  0
  7 12  2  0
  8  7  1  0
  9  8  2  0
  9 10  1  0
 10 11  2  0
 11 12  1  0
 13 17  2  0
 13  6  1  0
 14 13  1  0
 15 14  2  0
 15 16  1  0
 16 17  1  0
  2 18  1  0
  2 19  1  0
  3 20  1  0
  3 21  1  0
  4 22  1  0
  5 23  1  0
  5 24  1  0
  6 25  1  1
  7 26  1  0
  8 27  1  0
 11 28  1  0
 14 29  1  0
 15 30  1  0
 16 31  1  0
M  ISO  8  18  13  19  13  20  13  21  13  22   5  23  13  24  13  25  13
M  ISO  6  26  14  27  14  28  14  29  14  30  14  31   9
M  END
>  <minimizedAffinity>  (1) 
-4.65777063

>  <minimizedRMSD>  (1) 
1.64204216

$$$$
