
     RDKit          3D

 28 30  0  0  0  0  0  0  0  0999 V2000
   44.7070   35.7190   45.0730 C   0  0  0  0  0  0  0  0  0  0  0  0
   44.2410   35.6430   43.7410 C   0  0  0  0  0  0  0  0  0  0  0  0
   44.4800   34.4670   43.0560 C   0  0  0  0  0  0  0  0  0  0  0  0
   45.1340   33.4340   43.6410 N   0  0  0  0  0  0  0  0  0  0  0  0
   45.5730   33.5400   44.9360 C   0  0  0  0  0  0  0  0  0  0  0  0
   45.3550   34.6720   45.6270 N   0  0  0  0  0  0  0  0  0  0  0  0
   46.2730   32.4270   45.5560 C   0  0  0  0  0  0  0  0  0  0  0  0
   47.2330   31.6060   44.9740 C   0  0  0  0  0  0  0  0  0  0  0  0
   47.6490   30.6860   45.8700 N   0  0  0  0  0  0  0  0  0  0  0  0
   46.9500   30.9320   47.0040 C   0  0  0  0  0  0  0  0  0  0  0  0
   46.1130   31.9930   46.8130 N   0  0  0  0  0  0  0  0  0  0  0  0
   45.2010   32.5650   47.7870 C   0  0  0  0  0  0  0  0  0  0  0  0
   44.2240   31.6540   48.1820 F   0  0  0  0  0  0  0  0  0  0  0  0
   44.6050   33.7380   47.3120 F   0  0  0  0  0  0  0  0  0  0  0  0
   45.8930   32.8740   48.9620 F   0  0  0  0  0  0  0  0  0  0  0  0
   44.0190   34.3390   41.6780 C   0  0  0  0  0  0  0  0  0  0  0  0
   43.0680   35.2060   41.1790 C   0  0  0  0  0  0  0  0  0  0  0  0
   42.7060   34.9880   39.8520 C   0  0  0  0  0  0  0  0  0  0  0  0
   43.2390   34.0060   39.1010 N   0  0  0  0  0  0  0  0  0  0  0  0
   44.1650   33.1800   39.6270 C   0  0  0  0  0  0  0  0  0  0  0  0
   44.5350   33.3660   40.9040 N   0  0  0  0  0  0  0  0  0  0  0  0
   44.5413   36.6342   45.6604 H   0  0  0  0  0  0  0  0  0  0  0  0
   43.7109   36.4838   43.2698 H   0  0  0  0  0  0  0  0  0  0  0  0
   47.5981   31.6932   43.9400 H   0  0  0  0  0  0  0  0  0  0  0  0
   47.0432   30.3614   47.9398 H   0  0  0  0  0  0  0  0  0  0  0  0
   42.6278   36.0111   41.7857 H   0  0  0  0  0  0  0  0  0  0  0  0
   41.9515   35.6470   39.3976 H   0  0  0  0  0  0  0  0  0  0  0  0
   44.6070   32.3728   39.0244 H   0  0  0  0  0  0  0  0  0  0  0  0
  1  6  2  0
  2  1  1  0
  3  4  1  0
  3  2  2  0
  4  5  2  0
  5  7  1  0
  5  6  1  0
  7 11  1  0
  8  7  2  0
  8  9  1  0
  9 10  2  0
 11 10  1  0
 11 12  1  0
 12 13  1  0
 12 15  1  0
 14 12  1  0
 16  3  1  0
 17 16  2  0
 18 17  1  0
 19 20  1  0
 19 18  2  0
 20 21  2  0
 21 16  1  0
  1 22  1  0
  2 23  1  0
  8 24  1  0
 10 25  1  0
 17 26  1  0
 18 27  1  0
 20 28  1  0
M  ISO  7  22  14  23  14  24  14  25  14  26  14  27  14  28  14
M  END
>  <minimizedAffinity>  (1) 
-5.36936712

>  <minimizedRMSD>  (1) 
0.576723635

$$$$
