
     RDKit          3D

 31 33  0  0  1  0  0  0  0  0999 V2000
   47.0480   34.5430   42.3250 N   0  0  0  0  0  0  0  0  0  0  0  0
   48.4570   34.3450   42.5530 C   0  0  0  0  0  0  0  0  0  0  0  0
   49.0810   33.6180   41.4030 C   0  0  0  0  0  0  0  0  0  0  0  0
   48.7050   34.3070   40.1890 N   0  0  0  0  0  0  0  0  0  0  0  0
   47.3290   33.9530   39.9640 C   0  0  0  0  0  0  0  0  0  0  0  0
   46.4270   34.5060   41.0280 C   0  0  1  0  0  0  0  0  0  0  0  0
   44.5420   36.0510   44.6610 C   0  0  0  0  0  0  0  0  0  0  0  0
   45.3380   35.9120   43.5090 C   0  0  0  0  0  0  0  0  0  0  0  0
   46.1960   34.7900   43.4410 C   0  0  0  0  0  0  0  0  0  0  0  0
   46.1790   33.9350   44.5040 N   0  0  0  0  0  0  0  0  0  0  0  0
   45.4020   34.1100   45.5800 C   0  0  0  0  0  0  0  0  0  0  0  0
   44.5900   35.1600   45.6600 N   0  0  0  0  0  0  0  0  0  0  0  0
   45.1720   33.7840   41.0090 N   0  0  0  0  0  0  0  0  0  0  0  0
   43.9740   34.2760   40.6050 C   0  0  0  0  0  0  0  0  0  0  0  0
   42.9760   33.3290   40.7110 C   0  0  0  0  0  0  0  0  0  0  0  0
   43.5880   32.2370   41.1900 N   0  0  0  0  0  0  0  0  0  0  0  0
   44.8920   32.5160   41.3630 C   0  0  0  0  0  0  0  0  0  0  0  0
   48.9452   35.3238   42.6693 H   0  0  0  0  0  0  0  0  0  0  0  0
   48.5871   33.7434   43.4647 H   0  0  0  0  0  0  0  0  0  0  0  0
   50.1758   33.6182   41.5098 H   0  0  0  0  0  0  0  0  0  0  0  0
   48.7357   32.5740   41.3752 H   0  0  0  0  0  0  0  0  0  0  0  0
   48.8010   35.3256   40.3075 H   0  0  0  0  0  0  0  0  0  0  0  0
   47.0142   34.3520   38.9885 H   0  0  0  0  0  0  0  0  0  0  0  0
   47.2513   32.8560   39.9880 H   0  0  0  0  0  0  0  0  0  0  0  0
   46.2185   35.5623   40.8028 H   0  0  0  0  0  0  0  0  0  0  0  0
   43.8634   36.9128   44.7432 H   0  0  0  0  0  0  0  0  0  0  0  0
   45.2945   36.6479   42.6926 H   0  0  0  0  0  0  0  0  0  0  0  0
   45.4355   33.3808   46.4029 H   0  0  0  0  0  0  0  0  0  0  0  0
   43.8178   35.3014   40.2388 H   0  0  0  0  0  0  0  0  0  0  0  0
   41.9118   33.4448   40.4579 H   0  0  0  0  0  0  0  0  0  0  0  0
   45.6345   31.7999   41.7448 H   0  0  0  0  0  0  0  0  0  0  0  0
  1  2  1  0
  1  9  1  0
  3  2  1  0
  4  3  1  0
  5  4  1  0
  5  6  1  0
  6  1  1  0
  7 12  2  0
  8  7  1  0
  9  8  2  0
  9 10  1  0
 10 11  2  0
 11 12  1  0
 13  6  1  0
 13 17  1  0
 14 15  2  0
 14 13  1  0
 15 16  1  0
 16 17  2  0
  2 18  1  0
  2 19  1  0
  3 20  1  0
  3 21  1  0
  4 22  1  0
  5 23  1  0
  5 24  1  0
  6 25  1  6
  7 26  1  0
  8 27  1  0
 11 28  1  0
 14 29  1  0
 15 30  1  0
 17 31  1  0
M  ISO  8  18  13  19  13  20  13  21  13  22   5  23  13  24  13  25  13
M  ISO  6  26  14  27  14  28  14  29  14  30  14  31  14
M  END
>  <minimizedAffinity>  (1) 
-4.69628668

>  <minimizedRMSD>  (1) 
0.765737236

$$$$
