
     RDKit          3D

 33 34  0  0  1  0  0  0  0  0999 V2000
   46.9700   34.6290   42.2740 N   0  0  0  0  0  0  0  0  0  0  0  0
   48.3870   34.6590   42.3820 C   0  0  0  0  0  0  0  0  0  0  0  0
   49.0240   33.9210   41.2450 C   0  0  0  0  0  0  0  0  0  0  0  0
   48.4570   34.4220   40.0040 N   0  0  0  0  0  0  0  0  0  0  0  0
   47.1220   33.9080   39.9150 C   0  0  0  0  0  0  0  0  0  0  0  0
   46.2500   34.4090   41.0230 C   0  0  1  0  0  0  0  0  0  0  0  0
   44.4920   35.9990   44.7280 C   0  0  0  0  0  0  0  0  0  0  0  0
   45.2610   35.8800   43.5740 C   0  0  0  0  0  0  0  0  0  0  0  0
   46.1590   34.8190   43.4230 C   0  0  0  0  0  0  0  0  0  0  0  0
   46.2080   33.9440   44.4700 N   0  0  0  0  0  0  0  0  0  0  0  0
   45.4690   34.0560   45.5820 C   0  0  0  0  0  0  0  0  0  0  0  0
   44.6130   35.0920   45.6970 N   0  0  0  0  0  0  0  0  0  0  0  0
   45.0080   33.5780   41.2160 C   0  0  0  0  0  0  0  0  0  0  0  0
   43.9040   34.2970   40.4440 C   0  0  0  0  0  0  0  0  0  0  0  0
   45.1270   32.1760   40.7260 C   0  0  0  0  0  0  0  0  0  0  0  0
   48.7274   35.7049   42.3686 H   0  0  0  0  0  0  0  0  0  0  0  0
   48.6786   34.1729   43.3247 H   0  0  0  0  0  0  0  0  0  0  0  0
   50.1108   34.0908   41.2531 H   0  0  0  0  0  0  0  0  0  0  0  0
   48.8361   32.8413   41.3400 H   0  0  0  0  0  0  0  0  0  0  0  0
   48.4395   35.4518   40.0135 H   0  0  0  0  0  0  0  0  0  0  0  0
   46.6864   34.2174   38.9535 H   0  0  0  0  0  0  0  0  0  0  0  0
   47.1753   32.8122   39.9954 H   0  0  0  0  0  0  0  0  0  0  0  0
   45.9104   35.4019   40.6931 H   0  0  0  0  0  0  0  0  0  0  0  0
   43.7883   36.8370   44.8396 H   0  0  0  0  0  0  0  0  0  0  0  0
   45.1613   36.6276   42.7733 H   0  0  0  0  0  0  0  0  0  0  0  0
   45.5591   33.3141   46.3891 H   0  0  0  0  0  0  0  0  0  0  0  0
   44.8052   33.4869   42.2933 H   0  0  0  0  0  0  0  0  0  0  0  0
   43.1996   34.7558   41.1534 H   0  0  0  0  0  0  0  0  0  0  0  0
   44.3487   35.0792   39.8112 H   0  0  0  0  0  0  0  0  0  0  0  0
   43.3684   33.5740   39.8112 H   0  0  0  0  0  0  0  0  0  0  0  0
   45.1851   31.4911   41.5848 H   0  0  0  0  0  0  0  0  0  0  0  0
   44.2469   31.9249   40.1157 H   0  0  0  0  0  0  0  0  0  0  0  0
   46.0368   32.0769   40.1157 H   0  0  0  0  0  0  0  0  0  0  0  0
  1  2  1  0
  1  9  1  0
  3  2  1  0
  4  3  1  0
  5  4  1  0
  5  6  1  0
  6 13  1  0
  6  1  1  0
  7 12  2  0
  8  7  1  0
  9  8  2  0
  9 10  1  0
 10 11  2  0
 11 12  1  0
 14 13  1  0
 15 13  1  0
  2 16  1  0
  2 17  1  0
  3 18  1  0
  3 19  1  0
  4 20  1  0
  5 21  1  0
  5 22  1  0
  6 23  1  6
  7 24  1  0
  8 25  1  0
 11 26  1  0
 13 27  1  0
 14 28  1  0
 14 29  1  0
 14 30  1  0
 15 31  1  0
 15 32  1  0
 15 33  1  0
M  ISO  8  16  13  17  13  18  13  19  13  20   5  21  13  22  13  23  13
M  ISO  8  24  14  25  14  26  14  27   8  28   8  29   8  30   8  31   8
M  ISO  2  32   8  33   8
M  END
>  <minimizedAffinity>  (1) 
-4.47225332

>  <minimizedRMSD>  (1) 
0.963363945

$$$$
