
     RDKit          3D

 32 34  0  0  0  0  0  0  0  0999 V2000
   44.6580   35.6930   45.2250 C   0  0  0  0  0  0  0  0  0  0  0  0
   44.2410   35.6600   43.8700 C   0  0  0  0  0  0  0  0  0  0  0  0
   44.5230   34.5270   43.1290 C   0  0  0  0  0  0  0  0  0  0  0  0
   45.1780   33.4870   43.6900 N   0  0  0  0  0  0  0  0  0  0  0  0
   45.5730   33.5360   44.9970 C   0  0  0  0  0  0  0  0  0  0  0  0
   45.3090   34.6280   45.7370 N   0  0  0  0  0  0  0  0  0  0  0  0
   46.2790   32.4080   45.5880 C   0  0  0  0  0  0  0  0  0  0  0  0
   47.2290   31.5950   44.9790 C   0  0  0  0  0  0  0  0  0  0  0  0
   47.6520   30.6510   45.8590 N   0  0  0  0  0  0  0  0  0  0  0  0
   46.9690   30.8800   47.0030 C   0  0  0  0  0  0  0  0  0  0  0  0
   46.1330   31.9450   46.8450 N   0  0  0  0  0  0  0  0  0  0  0  0
   45.2270   32.5110   47.8400 C   0  0  0  0  0  0  0  0  0  0  0  0
   44.2590   31.5790   48.2380 F   0  0  0  0  0  0  0  0  0  0  0  0
   44.6010   33.6630   47.3780 F   0  0  0  0  0  0  0  0  0  0  0  0
   45.9340   32.8040   48.9980 F   0  0  0  0  0  0  0  0  0  0  0  0
   44.1120   34.4770   41.7700 N   0  0  0  0  0  0  0  0  0  0  0  0
   44.8980   33.9160   40.6880 C   0  0  0  0  0  0  0  0  0  0  0  0
   43.8900   33.5760   39.6200 C   0  0  0  0  0  0  0  0  0  0  0  0
   42.8210   34.6290   39.8070 C   0  0  0  0  0  0  0  0  0  0  0  0
   42.8320   34.9870   41.2640 C   0  0  0  0  0  0  0  0  0  0  0  0
   44.4535   36.5748   45.8500 H   0  0  0  0  0  0  0  0  0  0  0  0
   43.7084   36.5114   43.4212 H   0  0  0  0  0  0  0  0  0  0  0  0
   47.5835   31.7005   43.9430 H   0  0  0  0  0  0  0  0  0  0  0  0
   47.0728   30.2923   47.9270 H   0  0  0  0  0  0  0  0  0  0  0  0
   45.6254   34.6519   40.3148 H   0  0  0  0  0  0  0  0  0  0  0  0
   45.4789   33.0381   41.0070 H   0  0  0  0  0  0  0  0  0  0  0  0
   43.4802   32.5665   39.7713 H   0  0  0  0  0  0  0  0  0  0  0  0
   44.3191   33.5716   38.6072 H   0  0  0  0  0  0  0  0  0  0  0  0
   43.0479   35.5148   39.1955 H   0  0  0  0  0  0  0  0  0  0  0  0
   41.8343   34.2565   39.4945 H   0  0  0  0  0  0  0  0  0  0  0  0
   42.7713   36.0775   41.3948 H   0  0  0  0  0  0  0  0  0  0  0  0
   41.9740   34.5574   41.8019 H   0  0  0  0  0  0  0  0  0  0  0  0
  1  6  2  0
  2  1  1  0
  3  4  1  0
  3  2  2  0
  4  5  2  0
  5  7  1  0
  5  6  1  0
  7 11  1  0
  8  7  2  0
  8  9  1  0
  9 10  2  0
 11 10  1  0
 11 12  1  0
 12 13  1  0
 12 15  1  0
 14 12  1  0
 16  3  1  0
 17 16  1  0
 18 19  1  0
 18 17  1  0
 19 20  1  0
 20 16  1  0
  1 21  1  0
  2 22  1  0
  8 23  1  0
 10 24  1  0
 17 25  1  0
 17 26  1  0
 18 27  1  0
 18 28  1  0
 19 29  1  0
 19 30  1  0
 20 31  1  0
 20 32  1  0
M  ISO  8  21  14  22  14  23  14  24  14  25  13  26  13  27  13  28  13
M  ISO  4  29  13  30  13  31  13  32  13
M  END
>  <minimizedAffinity>  (1) 
-5.303092

>  <minimizedRMSD>  (1) 
0.564402759

$$$$
