
     RDKit          3D

 35 38  0  0  1  0  0  0  0  0999 V2000
   46.9380   34.6360   42.2520 N   0  0  0  0  0  0  0  0  0  0  0  0
   48.3730   34.6800   42.3880 C   0  0  0  0  0  0  0  0  0  0  0  0
   49.0270   33.9330   41.2790 C   0  0  0  0  0  0  0  0  0  0  0  0
   48.4900   34.4640   40.0220 N   0  0  0  0  0  0  0  0  0  0  0  0
   47.1670   33.9020   39.9180 C   0  0  0  0  0  0  0  0  0  0  0  0
   46.2530   34.3940   41.0110 C   0  0  1  0  0  0  0  0  0  0  0  0
   45.1010   33.5410   41.1220 N   0  0  0  0  0  0  0  0  0  0  0  0
   45.0150   32.2510   41.4500 C   0  0  0  0  0  0  0  0  0  0  0  0
   43.7370   31.7950   41.4450 N   0  0  0  0  0  0  0  0  0  0  0  0
   42.9480   32.8360   41.0970 C   0  0  0  0  0  0  0  0  0  0  0  0
   41.5970   33.0410   40.9130 C   0  0  0  0  0  0  0  0  0  0  0  0
   41.1280   34.2630   40.5490 N   0  0  0  0  0  0  0  0  0  0  0  0
   41.9990   35.2790   40.3680 C   0  0  0  0  0  0  0  0  0  0  0  0
   43.3210   35.1130   40.5400 N   0  0  0  0  0  0  0  0  0  0  0  0
   43.8050   33.8970   40.9040 C   0  0  0  0  0  0  0  0  0  0  0  0
   44.5080   36.0520   44.7170 C   0  0  0  0  0  0  0  0  0  0  0  0
   45.2630   35.9280   43.5490 C   0  0  0  0  0  0  0  0  0  0  0  0
   46.1320   34.8420   43.4030 C   0  0  0  0  0  0  0  0  0  0  0  0
   46.1620   33.9700   44.4520 N   0  0  0  0  0  0  0  0  0  0  0  0
   45.4340   34.0970   45.5670 C   0  0  0  0  0  0  0  0  0  0  0  0
   44.6110   35.1320   45.7000 N   0  0  0  0  0  0  0  0  0  0  0  0
   48.7065   35.7279   42.3641 H   0  0  0  0  0  0  0  0  0  0  0  0
   48.6533   34.2134   43.3439 H   0  0  0  0  0  0  0  0  0  0  0  0
   50.1163   34.0813   41.3158 H   0  0  0  0  0  0  0  0  0  0  0  0
   48.8275   32.8546   41.3639 H   0  0  0  0  0  0  0  0  0  0  0  0
   48.4455   35.4926   40.0526 H   0  0  0  0  0  0  0  0  0  0  0  0
   46.7383   34.1823   38.9445 H   0  0  0  0  0  0  0  0  0  0  0  0
   47.2548   32.8100   40.0166 H   0  0  0  0  0  0  0  0  0  0  0  0
   45.8803   35.3890   40.7262 H   0  0  0  0  0  0  0  0  0  0  0  0
   45.8851   31.6251   41.6975 H   0  0  0  0  0  0  0  0  0  0  0  0
   40.8934   32.2087   41.0621 H   0  0  0  0  0  0  0  0  0  0  0  0
   41.6165   36.2671   40.0724 H   0  0  0  0  0  0  0  0  0  0  0  0
   43.8244   36.9053   44.8372 H   0  0  0  0  0  0  0  0  0  0  0  0
   45.1750   36.6787   42.7498 H   0  0  0  0  0  0  0  0  0  0  0  0
   45.5161   33.3490   46.3693 H   0  0  0  0  0  0  0  0  0  0  0  0
  1  2  1  0
  1 18  1  0
  3  2  1  0
  4  3  1  0
  5  4  1  0
  5  6  1  0
  6  7  1  0
  6  1  1  0
  7  8  1  0
  9  8  2  0
 10  9  1  0
 11 10  2  0
 12 11  1  0
 13 14  1  0
 13 12  2  0
 14 15  2  0
 15 10  1  0
 15  7  1  0
 16 21  2  0
 17 16  1  0
 18 17  2  0
 18 19  1  0
 19 20  2  0
 20 21  1  0
  2 22  1  0
  2 23  1  0
  3 24  1  0
  3 25  1  0
  4 26  1  0
  5 27  1  0
  5 28  1  0
  6 29  1  6
  8 30  1  0
 11 31  1  0
 13 32  1  0
 16 33  1  0
 17 34  1  0
 20 35  1  0
M  ISO  8  22  13  23  13  24  13  25  13  26   5  27  13  28  13  29  13
M  ISO  6  30  14  31  14  32  14  33  14  34  14  35  14
M  END
>  <minimizedAffinity>  (1) 
-5.62721348

>  <minimizedRMSD>  (1) 
0.61417979

$$$$
