
     RDKit          3D

 41 45  0  0  1  0  0  0  0  0999 V2000
   46.9450   34.6170   42.2690 N   0  0  0  0  0  0  0  0  0  0  0  0
   48.3800   34.6670   42.3810 C   0  0  0  0  0  0  0  0  0  0  0  0
   49.0240   33.9260   41.2670 C   0  0  0  0  0  0  0  0  0  0  0  0
   48.4750   34.4850   40.0180 N   0  0  0  0  0  0  0  0  0  0  0  0
   47.1550   33.9160   39.9210 C   0  0  0  0  0  0  0  0  0  0  0  0
   46.2440   34.3900   41.0290 C   0  0  1  0  0  0  0  0  0  0  0  0
   44.4820   35.9440   44.7420 C   0  0  0  0  0  0  0  0  0  0  0  0
   45.2210   35.8360   43.5690 C   0  0  0  0  0  0  0  0  0  0  0  0
   46.1520   34.7980   43.4310 C   0  0  0  0  0  0  0  0  0  0  0  0
   46.2580   33.9520   44.4950 N   0  0  0  0  0  0  0  0  0  0  0  0
   45.5330   34.0740   45.6220 C   0  0  0  0  0  0  0  0  0  0  0  0
   44.6550   35.0550   45.7510 N   0  0  0  0  0  0  0  0  0  0  0  0
   45.7060   33.1460   46.6860 N   0  0  0  0  0  0  0  0  0  0  0  0
   46.8070   32.3450   46.6390 C   0  0  0  0  0  0  0  0  0  0  0  0
   46.7860   31.5370   47.7390 N   0  0  0  0  0  0  0  0  0  0  0  0
   45.6680   31.8540   48.4520 C   0  0  0  0  0  0  0  0  0  0  0  0
   45.0220   32.8460   47.7800 N   0  0  0  0  0  0  0  0  0  0  0  0
   45.0970   33.5330   41.1360 N   0  0  0  0  0  0  0  0  0  0  0  0
   45.0140   32.2500   41.4680 C   0  0  0  0  0  0  0  0  0  0  0  0
   43.7320   31.7920   41.4540 N   0  0  0  0  0  0  0  0  0  0  0  0
   42.9500   32.8250   41.0980 C   0  0  0  0  0  0  0  0  0  0  0  0
   41.6000   33.0150   40.9060 C   0  0  0  0  0  0  0  0  0  0  0  0
   41.1280   34.2430   40.5310 N   0  0  0  0  0  0  0  0  0  0  0  0
   41.9880   35.2570   40.3530 C   0  0  0  0  0  0  0  0  0  0  0  0
   43.3060   35.0940   40.5350 N   0  0  0  0  0  0  0  0  0  0  0  0
   43.7990   33.8850   40.9060 C   0  0  0  0  0  0  0  0  0  0  0  0
   48.7072   35.7168   42.3521 H   0  0  0  0  0  0  0  0  0  0  0  0
   48.6751   34.1989   43.3317 H   0  0  0  0  0  0  0  0  0  0  0  0
   50.1146   34.0657   41.2984 H   0  0  0  0  0  0  0  0  0  0  0  0
   48.8249   32.8467   41.3404 H   0  0  0  0  0  0  0  0  0  0  0  0
   48.4262   35.5126   40.0690 H   0  0  0  0  0  0  0  0  0  0  0  0
   46.7158   34.2037   38.9544 H   0  0  0  0  0  0  0  0  0  0  0  0
   47.2519   32.8238   40.0088 H   0  0  0  0  0  0  0  0  0  0  0  0
   45.8603   35.3861   40.7635 H   0  0  0  0  0  0  0  0  0  0  0  0
   43.7504   36.7580   44.8523 H   0  0  0  0  0  0  0  0  0  0  0  0
   45.0756   36.5609   42.7545 H   0  0  0  0  0  0  0  0  0  0  0  0
   47.5769   32.3487   45.8534 H   0  0  0  0  0  0  0  0  0  0  0  0
   45.3467   31.3925   49.3974 H   0  0  0  0  0  0  0  0  0  0  0  0
   45.8834   31.6272   41.7254 H   0  0  0  0  0  0  0  0  0  0  0  0
   40.9006   32.1790   41.0542 H   0  0  0  0  0  0  0  0  0  0  0  0
   41.6037   36.2426   40.0515 H   0  0  0  0  0  0  0  0  0  0  0  0
  1  2  1  0
  1  9  1  0
  3  2  1  0
  4  3  1  0
  5  4  1  0
  5  6  1  0
  6 18  1  0
  6  1  1  0
  7 12  2  0
  8  7  1  0
  9  8  2  0
  9 10  1  0
 10 11  2  0
 11 12  1  0
 11 13  1  0
 13 17  1  0
 14 13  1  0
 14 15  2  0
 15 16  1  0
 17 16  2  0
 18 19  1  0
 20 19  2  0
 21 20  1  0
 22 21  2  0
 23 22  1  0
 24 23  2  0
 24 25  1  0
 25 26  2  0
 26 21  1  0
 26 18  1  0
  2 27  1  0
  2 28  1  0
  3 29  1  0
  3 30  1  0
  4 31  1  0
  5 32  1  0
  5 33  1  0
  6 34  1  6
  7 35  1  0
  8 36  1  0
 14 37  1  0
 16 38  1  0
 19 39  1  0
 22 40  1  0
 24 41  1  0
M  ISO  8  27  13  28  13  29  13  30  13  31   5  32  13  33  13  34  13
M  ISO  7  35  14  36  14  37  14  38  14  39  14  40  14  41  14
M  END
>  <minimizedAffinity>  (1) 
-7.07298183

>  <minimizedRMSD>  (1) 
0.136617348

$$$$
