
     RDKit          3D

 35 37  0  0  0  0  0  0  0  0999 V2000
   44.8080   35.6340   44.9010 C   0  0  0  0  0  0  0  0  0  0  0  0
   44.2270   35.4560   43.6370 C   0  0  0  0  0  0  0  0  0  0  0  0
   44.3650   34.2080   43.0530 C   0  0  0  0  0  0  0  0  0  0  0  0
   45.0430   33.2080   43.7010 N   0  0  0  0  0  0  0  0  0  0  0  0
   45.5870   33.4300   44.9230 C   0  0  0  0  0  0  0  0  0  0  0  0
   45.4700   34.6350   45.5180 N   0  0  0  0  0  0  0  0  0  0  0  0
   46.3040   32.3590   45.6010 C   0  0  0  0  0  0  0  0  0  0  0  0
   47.2930   31.5350   45.0620 C   0  0  0  0  0  0  0  0  0  0  0  0
   47.7160   30.6590   46.0100 N   0  0  0  0  0  0  0  0  0  0  0  0
   46.9990   30.9380   47.1200 C   0  0  0  0  0  0  0  0  0  0  0  0
   46.1430   31.9660   46.8770 N   0  0  0  0  0  0  0  0  0  0  0  0
   45.1980   32.5640   47.8140 C   0  0  0  0  0  0  0  0  0  0  0  0
   44.1990   31.6610   48.1830 F   0  0  0  0  0  0  0  0  0  0  0  0
   44.6240   33.7280   47.3040 F   0  0  0  0  0  0  0  0  0  0  0  0
   45.8600   32.8860   48.9970 F   0  0  0  0  0  0  0  0  0  0  0  0
   43.8370   33.8420   41.7610 N   0  0  0  0  0  0  0  0  0  0  0  0
   44.0080   34.6610   40.5610 C   0  0  0  0  0  0  0  0  0  0  0  0
   42.6830   35.0090   39.9300 C   0  0  0  0  0  0  0  0  0  0  0  0
   41.6110   34.0020   40.3050 C   0  0  0  0  0  0  0  0  0  0  0  0
   42.2220   32.6410   40.4480 C   0  0  0  0  0  0  0  0  0  0  0  0
   43.0980   32.5890   41.6750 C   0  0  0  0  0  0  0  0  0  0  0  0
   44.7215   36.6105   45.3999 H   0  0  0  0  0  0  0  0  0  0  0  0
   43.6864   36.2705   43.1326 H   0  0  0  0  0  0  0  0  0  0  0  0
   47.6710   31.5868   44.0303 H   0  0  0  0  0  0  0  0  0  0  0  0
   47.0938   30.4105   48.0806 H   0  0  0  0  0  0  0  0  0  0  0  0
   44.5276   35.5910   40.8351 H   0  0  0  0  0  0  0  0  0  0  0  0
   44.5939   34.0826   39.8315 H   0  0  0  0  0  0  0  0  0  0  0  0
   42.7987   35.0183   38.8361 H   0  0  0  0  0  0  0  0  0  0  0  0
   42.3731   35.9984   40.2975 H   0  0  0  0  0  0  0  0  0  0  0  0
   41.1498   34.2975   41.2589 H   0  0  0  0  0  0  0  0  0  0  0  0
   40.8450   33.9756   39.5160 H   0  0  0  0  0  0  0  0  0  0  0  0
   41.4221   31.8916   40.5407 H   0  0  0  0  0  0  0  0  0  0  0  0
   42.8354   32.4280   39.5601 H   0  0  0  0  0  0  0  0  0  0  0  0
   42.4746   32.4622   42.5724 H   0  0  0  0  0  0  0  0  0  0  0  0
   43.7952   31.7408   41.6081 H   0  0  0  0  0  0  0  0  0  0  0  0
  1  6  2  0
  2  1  1  0
  3  2  2  0
  3  4  1  0
  4  5  2  0
  5  6  1  0
  5  7  1  0
  7 11  1  0
  8  7  2  0
  8  9  1  0
  9 10  2  0
 11 10  1  0
 11 12  1  0
 12 13  1  0
 12 15  1  0
 14 12  1  0
 16  3  1  0
 17 16  1  0
 18 19  1  0
 18 17  1  0
 19 20  1  0
 20 21  1  0
 21 16  1  0
  1 22  1  0
  2 23  1  0
  8 24  1  0
 10 25  1  0
 17 26  1  0
 17 27  1  0
 18 28  1  0
 18 29  1  0
 19 30  1  0
 19 31  1  0
 20 32  1  0
 20 33  1  0
 21 34  1  0
 21 35  1  0
M  ISO  8  22  14  23  14  24  14  25  14  26  13  27  13  28  13  29  13
M  ISO  6  30  13  31  13  32  13  33  13  34  13  35  13
M  END
>  <minimizedAffinity>  (1) 
-5.20461226

>  <minimizedRMSD>  (1) 
0.343476415

$$$$
