
     RDKit          3D

 45 49  0  0  1  0  0  0  0  0999 V2000
   46.8920   34.4590   42.4760 N   0  0  0  0  0  0  0  0  0  0  0  0
   48.3290   34.4410   42.5320 C   0  0  0  0  0  0  0  0  0  0  0  0
   48.9000   33.7820   41.3360 C   0  0  0  0  0  0  0  0  0  0  0  0
   48.3200   34.4490   40.1580 N   0  0  0  0  0  0  0  0  0  0  0  0
   46.9830   33.9220   40.0810 C   0  0  0  0  0  0  0  0  0  0  0  0
   46.1380   34.3500   41.2480 C   0  0  1  0  0  0  0  0  0  0  0  0
   44.9590   33.5330   41.3360 N   0  0  0  0  0  0  0  0  0  0  0  0
   44.8430   32.2390   41.6200 C   0  0  0  0  0  0  0  0  0  0  0  0
   43.5540   31.8170   41.6120 N   0  0  0  0  0  0  0  0  0  0  0  0
   42.7970   32.8840   41.3080 C   0  0  0  0  0  0  0  0  0  0  0  0
   41.4480   33.1430   41.1390 C   0  0  0  0  0  0  0  0  0  0  0  0
   41.0130   34.3930   40.8200 N   0  0  0  0  0  0  0  0  0  0  0  0
   41.9110   35.3860   40.6680 C   0  0  0  0  0  0  0  0  0  0  0  0
   43.2240   35.1700   40.8250 N   0  0  0  0  0  0  0  0  0  0  0  0
   43.6760   33.9390   41.1400 C   0  0  0  0  0  0  0  0  0  0  0  0
   44.4920   35.6220   45.0900 C   0  0  0  0  0  0  0  0  0  0  0  0
   45.1810   35.5690   43.8760 C   0  0  0  0  0  0  0  0  0  0  0  0
   46.1470   34.5890   43.6720 C   0  0  0  0  0  0  0  0  0  0  0  0
   46.3390   33.7390   44.7150 N   0  0  0  0  0  0  0  0  0  0  0  0
   45.6810   33.7890   45.8790 C   0  0  0  0  0  0  0  0  0  0  0  0
   44.7610   34.7240   46.0670 N   0  0  0  0  0  0  0  0  0  0  0  0
   45.9680   32.8220   46.9360 C   0  0  0  0  0  0  0  0  0  0  0  0
   45.0530   32.5620   47.9350 C   0  0  0  0  0  0  0  0  0  0  0  0
   45.2350   31.6730   48.9670 C   0  0  0  0  0  0  0  0  0  0  0  0
   46.4580   30.9940   48.9770 C   0  0  0  0  0  0  0  0  0  0  0  0
   47.3780   31.2500   47.9820 C   0  0  0  0  0  0  0  0  0  0  0  0
   47.1830   32.1450   46.9510 C   0  0  0  0  0  0  0  0  0  0  0  0
   48.6996   35.4754   42.5837 H   0  0  0  0  0  0  0  0  0  0  0  0
   48.6371   33.8752   43.4236 H   0  0  0  0  0  0  0  0  0  0  0  0
   49.9946   33.8912   41.3310 H   0  0  0  0  0  0  0  0  0  0  0  0
   48.6677   32.7068   41.3320 H   0  0  0  0  0  0  0  0  0  0  0  0
   48.3037   35.4707   40.2871 H   0  0  0  0  0  0  0  0  0  0  0  0
   46.5135   34.2803   39.1530 H   0  0  0  0  0  0  0  0  0  0  0  0
   47.0504   32.8242   40.0964 H   0  0  0  0  0  0  0  0  0  0  0  0
   45.7896   35.3781   41.0701 H   0  0  0  0  0  0  0  0  0  0  0  0
   45.6986   31.5828   41.8376 H   0  0  0  0  0  0  0  0  0  0  0  0
   40.7186   32.3292   41.2639 H   0  0  0  0  0  0  0  0  0  0  0  0
   41.5587   36.3955   40.4095 H   0  0  0  0  0  0  0  0  0  0  0  0
   43.7279   36.3963   45.2529 H   0  0  0  0  0  0  0  0  0  0  0  0
   44.9604   36.2998   43.0840 H   0  0  0  0  0  0  0  0  0  0  0  0
   44.1003   33.1109   47.9030 H   0  0  0  0  0  0  0  0  0  0  0  0
   44.4673   31.5058   49.7368 H   0  0  0  0  0  0  0  0  0  0  0  0
   46.6832   30.2646   49.7690 H   0  0  0  0  0  0  0  0  0  0  0  0
   48.3320   30.7033   48.0128 H   0  0  0  0  0  0  0  0  0  0  0  0
   47.9490   32.3148   46.1801 H   0  0  0  0  0  0  0  0  0  0  0  0
  1  2  1  0
  1 18  1  0
  3  2  1  0
  4  3  1  0
  5  4  1  0
  5  6  1  0
  6  7  1  0
  6  1  1  0
  7  8  1  0
  9  8  2  0
 10  9  1  0
 11 10  2  0
 12 11  1  0
 13 12  2  0
 13 14  1  0
 14 15  2  0
 15 10  1  0
 15  7  1  0
 16 21  2  0
 17 16  1  0
 18 17  2  0
 18 19  1  0
 19 20  2  0
 20 21  1  0
 20 22  1  0
 22 27  1  0
 22 23  2  0
 23 24  1  0
 24 25  2  0
 26 25  1  0
 27 26  2  0
  2 28  1  0
  2 29  1  0
  3 30  1  0
  3 31  1  0
  4 32  1  0
  5 33  1  0
  5 34  1  0
  6 35  1  6
  8 36  1  0
 11 37  1  0
 13 38  1  0
 16 39  1  0
 17 40  1  0
 23 41  1  0
 24 42  1  0
 25 43  1  0
 26 44  1  0
 27 45  1  0
M  ISO  8  28  13  29  13  30  13  31  13  32   5  33  13  34  13  35  13
M  ISO  8  36  14  37  14  38  14  39  14  40  14  41  14  42  14  43  14
M  ISO  2  44  14  45  14
M  END
>  <minimizedAffinity>  (1) 
-7.2928443

>  <minimizedRMSD>  (1) 
0.498189032

$$$$
