
     RDKit          3D

 42 46  0  0  1  0  0  0  0  0999 V2000
   46.9600   34.6110   42.2670 N   0  0  0  0  0  0  0  0  0  0  0  0
   48.3980   34.6530   42.3840 C   0  0  0  0  0  0  0  0  0  0  0  0
   49.0310   33.9340   41.2420 C   0  0  0  0  0  0  0  0  0  0  0  0
   48.4780   34.4980   40.0030 N   0  0  0  0  0  0  0  0  0  0  0  0
   47.1520   33.9400   39.9080 C   0  0  0  0  0  0  0  0  0  0  0  0
   46.2510   34.3950   41.0230 C   0  0  1  0  0  0  0  0  0  0  0  0
   45.1120   33.5310   41.1330 N   0  0  0  0  0  0  0  0  0  0  0  0
   45.0250   32.2510   41.4630 C   0  0  0  0  0  0  0  0  0  0  0  0
   43.7550   31.7750   41.4560 N   0  0  0  0  0  0  0  0  0  0  0  0
   42.9580   32.8120   41.0990 C   0  0  0  0  0  0  0  0  0  0  0  0
   41.6090   33.0000   40.9090 C   0  0  0  0  0  0  0  0  0  0  0  0
   41.1370   34.2270   40.5350 N   0  0  0  0  0  0  0  0  0  0  0  0
   41.9980   35.2430   40.3560 C   0  0  0  0  0  0  0  0  0  0  0  0
   43.3210   35.0880   40.5350 N   0  0  0  0  0  0  0  0  0  0  0  0
   43.8120   33.8730   40.9070 C   0  0  0  0  0  0  0  0  0  0  0  0
   44.4910   35.9200   44.7520 C   0  0  0  0  0  0  0  0  0  0  0  0
   45.2320   35.8190   43.5710 C   0  0  0  0  0  0  0  0  0  0  0  0
   46.1700   34.7870   43.4230 C   0  0  0  0  0  0  0  0  0  0  0  0
   46.2730   33.9420   44.4940 N   0  0  0  0  0  0  0  0  0  0  0  0
   45.5610   34.0490   45.6140 C   0  0  0  0  0  0  0  0  0  0  0  0
   44.6760   35.0220   45.7540 N   0  0  0  0  0  0  0  0  0  0  0  0
   45.7840   33.0650   46.6750 C   0  0  0  0  0  0  0  0  0  0  0  0
   46.8570   32.1910   46.6630 C   0  0  0  0  0  0  0  0  0  0  0  0
   46.7810   31.3920   47.8080 C   0  0  0  0  0  0  0  0  0  0  0  0
   45.6650   31.8110   48.4720 N   0  0  0  0  0  0  0  0  0  0  0  0
   45.0690   32.8040   47.8050 N   0  0  0  0  0  0  0  0  0  0  0  0
   48.7317   35.7011   42.3828 H   0  0  0  0  0  0  0  0  0  0  0  0
   48.6951   34.1641   43.3236 H   0  0  0  0  0  0  0  0  0  0  0  0
   50.1213   34.0776   41.2659 H   0  0  0  0  0  0  0  0  0  0  0  0
   48.8251   32.8551   41.3019 H   0  0  0  0  0  0  0  0  0  0  0  0
   48.4367   35.5257   40.0583 H   0  0  0  0  0  0  0  0  0  0  0  0
   46.7086   34.2471   38.9493 H   0  0  0  0  0  0  0  0  0  0  0  0
   47.2451   32.8464   39.9806 H   0  0  0  0  0  0  0  0  0  0  0  0
   45.8629   35.3918   40.7666 H   0  0  0  0  0  0  0  0  0  0  0  0
   45.8988   31.6335   41.7182 H   0  0  0  0  0  0  0  0  0  0  0  0
   40.9103   32.1635   41.0579 H   0  0  0  0  0  0  0  0  0  0  0  0
   41.6099   36.2273   40.0551 H   0  0  0  0  0  0  0  0  0  0  0  0
   43.7556   36.7295   44.8702 H   0  0  0  0  0  0  0  0  0  0  0  0
   45.0798   36.5467   42.7603 H   0  0  0  0  0  0  0  0  0  0  0  0
   47.6348   32.1347   45.8872 H   0  0  0  0  0  0  0  0  0  0  0  0
   47.4749   30.5936   48.1099 H   0  0  0  0  0  0  0  0  0  0  0  0
   45.3290   31.4172   49.3625 H   0  0  0  0  0  0  0  0  0  0  0  0
  1  2  1  0
  1 18  1  0
  3  2  1  0
  4  3  1  0
  5  4  1  0
  5  6  1  0
  6  7  1  0
  6  1  1  0
  7  8  1  0
  9  8  2  0
 10  9  1  0
 11 10  2  0
 12 11  1  0
 13 14  1  0
 13 12  2  0
 14 15  2  0
 15 10  1  0
 15  7  1  0
 16 21  2  0
 17 16  1  0
 18 17  2  0
 18 19  1  0
 19 20  2  0
 20 21  1  0
 20 22  1  0
 22 26  2  0
 23 22  1  0
 23 24  2  0
 24 25  1  0
 26 25  1  0
  2 27  1  0
  2 28  1  0
  3 29  1  0
  3 30  1  0
  4 31  1  0
  5 32  1  0
  5 33  1  0
  6 34  1  6
  8 35  1  0
 11 36  1  0
 13 37  1  0
 16 38  1  0
 17 39  1  0
 23 40  1  0
 24 41  1  0
 25 42  1  0
M  ISO  8  27  13  28  13  29  13  30  13  31   5  32  13  33  13  34  13
M  ISO  8  35  14  36  14  37  14  38  14  39  14  40  14  41  14  42   9
M  END
>  <minimizedAffinity>  (1) 
-6.71067333

>  <minimizedRMSD>  (1) 
0.314506918

$$$$
