
     RDKit          3D

 42 46  0  0  1  0  0  0  0  0999 V2000
   46.9370   34.6080   42.2790 N   0  0  0  0  0  0  0  0  0  0  0  0
   48.3720   34.6580   42.4030 C   0  0  0  0  0  0  0  0  0  0  0  0
   49.0130   33.9170   41.2730 C   0  0  0  0  0  0  0  0  0  0  0  0
   48.4620   34.4640   40.0300 N   0  0  0  0  0  0  0  0  0  0  0  0
   47.1420   33.8850   39.9410 C   0  0  0  0  0  0  0  0  0  0  0  0
   46.2360   34.3800   41.0400 C   0  0  1  0  0  0  0  0  0  0  0  0
   44.4760   35.9460   44.7680 C   0  0  0  0  0  0  0  0  0  0  0  0
   45.2120   35.8450   43.5820 C   0  0  0  0  0  0  0  0  0  0  0  0
   46.1380   34.7980   43.4480 C   0  0  0  0  0  0  0  0  0  0  0  0
   46.2360   33.9590   44.5080 N   0  0  0  0  0  0  0  0  0  0  0  0
   45.5240   34.0680   45.6400 C   0  0  0  0  0  0  0  0  0  0  0  0
   44.6450   35.0630   45.7650 N   0  0  0  0  0  0  0  0  0  0  0  0
   45.7930   33.0710   46.6240 N   0  0  0  0  0  0  0  0  0  0  0  0
   46.9070   32.3130   46.4040 C   0  0  0  0  0  0  0  0  0  0  0  0
   46.9890   31.4190   47.4550 C   0  0  0  0  0  0  0  0  0  0  0  0
   45.9450   31.6400   48.2870 N   0  0  0  0  0  0  0  0  0  0  0  0
   45.2250   32.6490   47.7680 C   0  0  0  0  0  0  0  0  0  0  0  0
   45.0830   33.5330   41.1520 N   0  0  0  0  0  0  0  0  0  0  0  0
   44.9940   32.2550   41.4910 C   0  0  0  0  0  0  0  0  0  0  0  0
   43.7140   31.7910   41.4840 N   0  0  0  0  0  0  0  0  0  0  0  0
   42.9260   32.8240   41.1200 C   0  0  0  0  0  0  0  0  0  0  0  0
   41.5750   33.0380   40.9190 C   0  0  0  0  0  0  0  0  0  0  0  0
   41.1140   34.2560   40.5390 N   0  0  0  0  0  0  0  0  0  0  0  0
   41.9870   35.2730   40.3520 C   0  0  0  0  0  0  0  0  0  0  0  0
   43.3020   35.0960   40.5380 N   0  0  0  0  0  0  0  0  0  0  0  0
   43.7840   33.8930   40.9170 C   0  0  0  0  0  0  0  0  0  0  0  0
   48.7023   35.7071   42.3836 H   0  0  0  0  0  0  0  0  0  0  0  0
   48.6672   34.1895   43.3534 H   0  0  0  0  0  0  0  0  0  0  0  0
   50.1032   34.0611   41.2978 H   0  0  0  0  0  0  0  0  0  0  0  0
   48.8117   32.8382   41.3486 H   0  0  0  0  0  0  0  0  0  0  0  0
   48.4076   35.4915   40.0759 H   0  0  0  0  0  0  0  0  0  0  0  0
   46.7012   34.1522   38.9692 H   0  0  0  0  0  0  0  0  0  0  0  0
   47.2402   32.7944   40.0453 H   0  0  0  0  0  0  0  0  0  0  0  0
   45.8637   35.3782   40.7661 H   0  0  0  0  0  0  0  0  0  0  0  0
   43.7475   36.7618   44.8852 H   0  0  0  0  0  0  0  0  0  0  0  0
   45.0677   36.5725   42.7696 H   0  0  0  0  0  0  0  0  0  0  0  0
   47.6030   32.3972   45.5564 H   0  0  0  0  0  0  0  0  0  0  0  0
   47.7705   30.6570   47.5919 H   0  0  0  0  0  0  0  0  0  0  0  0
   44.3093   33.0668   48.2117 H   0  0  0  0  0  0  0  0  0  0  0  0
   45.8637   31.6337   41.7510 H   0  0  0  0  0  0  0  0  0  0  0  0
   40.8655   32.2109   41.0690 H   0  0  0  0  0  0  0  0  0  0  0  0
   41.6114   36.2596   40.0427 H   0  0  0  0  0  0  0  0  0  0  0  0
  1  2  1  0
  1  9  1  0
  3  2  1  0
  4  3  1  0
  5  4  1  0
  5  6  1  0
  6 18  1  0
  6  1  1  0
  7 12  2  0
  8  7  1  0
  9  8  2  0
  9 10  1  0
 10 11  2  0
 11 12  1  0
 11 13  1  0
 13 17  1  0
 14 13  1  0
 14 15  2  0
 15 16  1  0
 17 16  2  0
 18 19  1  0
 20 19  2  0
 21 20  1  0
 22 21  2  0
 23 22  1  0
 24 25  1  0
 24 23  2  0
 25 26  2  0
 26 21  1  0
 26 18  1  0
  2 27  1  0
  2 28  1  0
  3 29  1  0
  3 30  1  0
  4 31  1  0
  5 32  1  0
  5 33  1  0
  6 34  1  6
  7 35  1  0
  8 36  1  0
 14 37  1  0
 15 38  1  0
 17 39  1  0
 19 40  1  0
 22 41  1  0
 24 42  1  0
M  ISO  8  27  13  28  13  29  13  30  13  31   5  32  13  33  13  34  13
M  ISO  8  35  14  36  14  37  14  38  14  39  14  40  14  41  14  42  14
M  END
>  <minimizedAffinity>  (1) 
-7.02194643

>  <minimizedRMSD>  (1) 
0.121273667

$$$$
