
     RDKit          3D

 38 41  0  0  1  0  0  0  0  0999 V2000
   46.9210   34.6460   42.2390 N   0  0  0  0  0  0  0  0  0  0  0  0
   48.3570   34.6860   42.3780 C   0  0  0  0  0  0  0  0  0  0  0  0
   49.0170   33.9150   41.2930 C   0  0  0  0  0  0  0  0  0  0  0  0
   48.4880   34.4160   40.0190 N   0  0  0  0  0  0  0  0  0  0  0  0
   47.1680   33.8470   39.9290 C   0  0  0  0  0  0  0  0  0  0  0  0
   46.2510   34.3800   41.0010 C   0  0  1  0  0  0  0  0  0  0  0  0
   45.0870   33.5350   41.1260 N   0  0  0  0  0  0  0  0  0  0  0  0
   45.0040   32.2560   41.4730 C   0  0  0  0  0  0  0  0  0  0  0  0
   43.7190   31.7920   41.4810 N   0  0  0  0  0  0  0  0  0  0  0  0
   42.9370   32.8390   41.1160 C   0  0  0  0  0  0  0  0  0  0  0  0
   41.5860   33.0500   40.9310 C   0  0  0  0  0  0  0  0  0  0  0  0
   41.1180   34.2640   40.5490 N   0  0  0  0  0  0  0  0  0  0  0  0
   41.9960   35.2750   40.3510 C   0  0  0  0  0  0  0  0  0  0  0  0
   43.3170   35.1040   40.5240 N   0  0  0  0  0  0  0  0  0  0  0  0
   43.7990   33.8830   40.9080 C   0  0  0  0  0  0  0  0  0  0  0  0
   44.4900   36.1300   44.6620 C   0  0  0  0  0  0  0  0  0  0  0  0
   45.2540   35.9750   43.4940 C   0  0  0  0  0  0  0  0  0  0  0  0
   46.1140   34.8820   43.3830 C   0  0  0  0  0  0  0  0  0  0  0  0
   46.1350   34.0420   44.4540 N   0  0  0  0  0  0  0  0  0  0  0  0
   45.4090   34.2000   45.5550 C   0  0  0  0  0  0  0  0  0  0  0  0
   44.5910   35.2270   45.6730 N   0  0  0  0  0  0  0  0  0  0  0  0
   45.5310   33.2180   46.6280 C   0  0  0  0  0  0  0  0  0  0  0  0
   46.3110   32.2550   46.6240 O   0  0  0  0  0  0  0  0  0  0  0  0
   44.7750   33.2650   47.7820 O   0  0  0  0  0  0  0  0  0  0  0  0
   48.6941   35.7321   42.3327 H   0  0  0  0  0  0  0  0  0  0  0  0
   48.6290   34.2359   43.3441 H   0  0  0  0  0  0  0  0  0  0  0  0
   50.1060   34.0646   41.3335 H   0  0  0  0  0  0  0  0  0  0  0  0
   48.8168   32.8389   41.4021 H   0  0  0  0  0  0  0  0  0  0  0  0
   48.4416   35.4449   40.0233 H   0  0  0  0  0  0  0  0  0  0  0  0
   46.7425   34.0899   38.9441 H   0  0  0  0  0  0  0  0  0  0  0  0
   47.2559   32.7591   40.0659 H   0  0  0  0  0  0  0  0  0  0  0  0
   45.8959   35.3720   40.6850 H   0  0  0  0  0  0  0  0  0  0  0  0
   45.8766   31.6363   41.7269 H   0  0  0  0  0  0  0  0  0  0  0  0
   40.8797   32.2229   41.0955 H   0  0  0  0  0  0  0  0  0  0  0  0
   41.6185   36.2606   40.0409 H   0  0  0  0  0  0  0  0  0  0  0  0
   43.8065   36.9863   44.7593 H   0  0  0  0  0  0  0  0  0  0  0  0
   45.1754   36.7066   42.6763 H   0  0  0  0  0  0  0  0  0  0  0  0
   44.8953   32.5744   48.4811 H   0  0  0  0  0  0  0  0  0  0  0  0
  1  2  1  0
  1 18  1  0
  3  2  1  0
  4  3  1  0
  5  4  1  0
  5  6  1  0
  6  7  1  0
  6  1  1  0
  7  8  1  0
  8  9  2  0
 10  9  1  0
 11 10  2  0
 12 11  1  0
 13 14  1  0
 13 12  2  0
 14 15  2  0
 15 10  1  0
 15  7  1  0
 16 21  2  0
 17 16  1  0
 18 17  2  0
 18 19  1  0
 19 20  2  0
 20 21  1  0
 20 22  1  0
 22 24  1  0
 23 22  2  0
  2 25  1  0
  2 26  1  0
  3 27  1  0
  3 28  1  0
  4 29  1  0
  5 30  1  0
  5 31  1  0
  6 32  1  6
  8 33  1  0
 11 34  1  0
 13 35  1  0
 16 36  1  0
 17 37  1  0
 24 38  1  0
M  ISO  8  25  13  26  13  27  13  28  13  29   5  30  13  31  13  32  13
M  ISO  6  33  14  34  14  35  14  36  14  37  14  38   3
M  END
>  <minimizedAffinity>  (1) 
-6.53986073

>  <minimizedRMSD>  (1) 
0.0694899932

$$$$
