
     RDKit          3D

 48 52  0  0  1  0  0  0  0  0999 V2000
   45.6480   34.2110   40.6450 N   0  0  0  0  0  0  0  0  0  0  0  0
   47.0170   33.9700   40.2610 C   0  0  0  0  0  0  0  0  0  0  0  0
   47.0950   32.9500   39.1880 C   0  0  0  0  0  0  0  0  0  0  0  0
   46.1910   33.3660   38.1110 N   0  0  0  0  0  0  0  0  0  0  0  0
   44.8710   33.0720   38.6020 C   0  0  0  0  0  0  0  0  0  0  0  0
   44.5170   33.9250   39.7900 C   0  0  1  0  0  0  0  0  0  0  0  0
   43.3810   33.3620   40.4790 N   0  0  0  0  0  0  0  0  0  0  0  0
   43.2600   32.2100   41.1360 C   0  0  0  0  0  0  0  0  0  0  0  0
   42.0210   32.0250   41.6580 N   0  0  0  0  0  0  0  0  0  0  0  0
   41.2950   33.1180   41.3230 C   0  0  0  0  0  0  0  0  0  0  0  0
   40.0000   33.5520   41.5340 C   0  0  0  0  0  0  0  0  0  0  0  0
   39.5850   34.7500   41.0360 N   0  0  0  0  0  0  0  0  0  0  0  0
   40.4480   35.5040   40.3380 C   0  0  0  0  0  0  0  0  0  0  0  0
   41.7160   35.1190   40.1110 N   0  0  0  0  0  0  0  0  0  0  0  0
   42.1450   33.9270   40.6000 C   0  0  0  0  0  0  0  0  0  0  0  0
   44.5760   36.4950   43.4030 C   0  0  0  0  0  0  0  0  0  0  0  0
   44.8200   36.0270   42.1050 C   0  0  0  0  0  0  0  0  0  0  0  0
   45.3720   34.7550   41.9210 C   0  0  0  0  0  0  0  0  0  0  0  0
   45.6290   34.0640   43.0690 N   0  0  0  0  0  0  0  0  0  0  0  0
   45.3910   34.5200   44.2940 C   0  0  0  0  0  0  0  0  0  0  0  0
   44.8700   35.7210   44.4610 N   0  0  0  0  0  0  0  0  0  0  0  0
   46.2170   32.1780   47.7870 C   0  0  0  0  0  0  0  0  0  0  0  0
   45.1990   33.1100   47.7850 C   0  0  0  0  0  0  0  0  0  0  0  0
   44.9820   33.8320   46.6320 C   0  0  0  0  0  0  0  0  0  0  0  0
   45.7010   33.7050   45.4650 C   0  0  0  0  0  0  0  0  0  0  0  0
   46.7140   32.7670   45.4920 C   0  0  0  0  0  0  0  0  0  0  0  0
   46.9530   32.0230   46.6490 C   0  0  0  0  0  0  0  0  0  0  0  0
   46.4680   31.2790   49.2620 S   0  0  0  0  0  0  0  0  0  0  0  0
   47.8170   30.6210   49.2700 O   0  0  0  0  0  0  0  0  0  0  0  0
   45.3980   30.2160   49.4030 O   0  0  0  0  0  0  0  0  0  0  0  0
   47.4596   34.9092   39.8976 H   0  0  0  0  0  0  0  0  0  0  0  0
   47.5675   33.5993   41.1382 H   0  0  0  0  0  0  0  0  0  0  0  0
   48.1252   32.8840   38.8079 H   0  0  0  0  0  0  0  0  0  0  0  0
   46.8051   31.9616   39.5741 H   0  0  0  0  0  0  0  0  0  0  0  0
   46.3842   32.8346   37.2501 H   0  0  0  0  0  0  0  0  0  0  0  0
   44.1423   33.2584   37.7994 H   0  0  0  0  0  0  0  0  0  0  0  0
   44.8489   32.0184   38.9172 H   0  0  0  0  0  0  0  0  0  0  0  0
   44.2162   34.9181   39.4249 H   0  0  0  0  0  0  0  0  0  0  0  0
   44.0791   31.4839   41.2443 H   0  0  0  0  0  0  0  0  0  0  0  0
   39.3003   32.9263   42.1075 H   0  0  0  0  0  0  0  0  0  0  0  0
   40.1064   36.4700   39.9379 H   0  0  0  0  0  0  0  0  0  0  0  0
   44.1442   37.4951   43.5556 H   0  0  0  0  0  0  0  0  0  0  0  0
   44.5788   36.6563   41.2357 H   0  0  0  0  0  0  0  0  0  0  0  0
   44.5785   33.2717   48.6788 H   0  0  0  0  0  0  0  0  0  0  0  0
   44.1671   34.5708   46.6449 H   0  0  0  0  0  0  0  0  0  0  0  0
   47.3350   32.6053   44.5986 H   0  0  0  0  0  0  0  0  0  0  0  0
   47.7667   31.2828   46.6426 H   0  0  0  0  0  0  0  0  0  0  0  0
   46.3997   32.1574   50.3111 H   0  0  0  0  0  0  0  0  0  0  0  0
  1 18  1  0
  2  1  1  0
  3  2  1  0
  4  5  1  0
  4  3  1  0
  5  6  1  0
  6  7  1  0
  6  1  1  0
  7 15  1  0
  7  8  1  0
  8  9  2  0
 10 11  2  0
 10  9  1  0
 12 11  1  0
 13 12  2  0
 14 13  1  0
 14 15  2  0
 15 10  1  0
 16 21  2  0
 17 16  1  0
 18 17  2  0
 18 19  1  0
 19 20  2  0
 20 21  1  0
 20 25  1  0
 22 28  1  0
 23 22  2  0
 24 23  1  0
 25 26  1  0
 25 24  2  0
 26 27  2  0
 27 22  1  0
 28 29  2  0
 28 30  2  0
  2 31  1  0
  2 32  1  0
  3 33  1  0
  3 34  1  0
  4 35  1  0
  5 36  1  0
  5 37  1  0
  6 38  1  6
  8 39  1  0
 11 40  1  0
 13 41  1  0
 16 42  1  0
 17 43  1  0
 23 44  1  0
 24 45  1  0
 26 46  1  0
 27 47  1  0
 28 48  1  0
M  ISO  8  31  13  32  13  33  13  34  13  35   5  36  13  37  13  38  13
M  ISO  8  39  14  40  14  41  14  42  14  43  14  44  14  45  14  46  14
M  ISO  2  47  14  48  11
M  END
>  <minimizedAffinity>  (1) 
-6.26483393

>  <minimizedRMSD>  (1) 
1.85782552

$$$$
