
     RDKit          3D

 36 39  0  0  1  0  0  0  0  0999 V2000
   46.9310   34.6430   42.2470 N   0  0  0  0  0  0  0  0  0  0  0  0
   48.3600   34.6890   42.4010 C   0  0  0  0  0  0  0  0  0  0  0  0
   49.0260   33.9220   41.3190 C   0  0  0  0  0  0  0  0  0  0  0  0
   48.5050   34.4420   40.0430 N   0  0  0  0  0  0  0  0  0  0  0  0
   47.1810   33.8710   39.9380 C   0  0  0  0  0  0  0  0  0  0  0  0
   46.2560   34.3830   41.0020 C   0  0  1  0  0  0  0  0  0  0  0  0
   45.1040   33.5390   41.1170 N   0  0  0  0  0  0  0  0  0  0  0  0
   45.0070   32.2540   41.4390 C   0  0  0  0  0  0  0  0  0  0  0  0
   43.7250   31.8050   41.4400 N   0  0  0  0  0  0  0  0  0  0  0  0
   42.9430   32.8500   41.1000 C   0  0  0  0  0  0  0  0  0  0  0  0
   41.5870   33.0600   40.9230 C   0  0  0  0  0  0  0  0  0  0  0  0
   41.1340   34.2840   40.5650 N   0  0  0  0  0  0  0  0  0  0  0  0
   42.0010   35.3000   40.3810 C   0  0  0  0  0  0  0  0  0  0  0  0
   43.3220   35.1200   40.5470 N   0  0  0  0  0  0  0  0  0  0  0  0
   43.7990   33.9030   40.9050 C   0  0  0  0  0  0  0  0  0  0  0  0
   44.5210   36.1360   44.6840 C   0  0  0  0  0  0  0  0  0  0  0  0
   45.2940   35.9870   43.5330 C   0  0  0  0  0  0  0  0  0  0  0  0
   46.1150   34.8680   43.3870 C   0  0  0  0  0  0  0  0  0  0  0  0
   46.0800   33.9900   44.4320 N   0  0  0  0  0  0  0  0  0  0  0  0
   45.3400   34.1340   45.5340 C   0  0  0  0  0  0  0  0  0  0  0  0
   44.5660   35.1990   45.6610 N   0  0  0  0  0  0  0  0  0  0  0  0
   45.3990   33.1630   46.5240 O   0  0  0  0  0  0  0  0  0  0  0  0
   48.6946   35.7361   42.3608 H   0  0  0  0  0  0  0  0  0  0  0  0
   48.6273   34.2416   43.3697 H   0  0  0  0  0  0  0  0  0  0  0  0
   50.1155   34.0652   41.3692 H   0  0  0  0  0  0  0  0  0  0  0  0
   48.8236   32.8453   41.4175 H   0  0  0  0  0  0  0  0  0  0  0  0
   48.4583   35.4708   40.0602 H   0  0  0  0  0  0  0  0  0  0  0  0
   46.7628   34.1254   38.9529 H   0  0  0  0  0  0  0  0  0  0  0  0
   47.2722   32.7823   40.0658 H   0  0  0  0  0  0  0  0  0  0  0  0
   45.8852   35.3710   40.6916 H   0  0  0  0  0  0  0  0  0  0  0  0
   45.8734   31.6203   41.6795 H   0  0  0  0  0  0  0  0  0  0  0  0
   40.8777   32.2328   41.0731 H   0  0  0  0  0  0  0  0  0  0  0  0
   41.6212   36.2907   40.0907 H   0  0  0  0  0  0  0  0  0  0  0  0
   43.8727   37.0172   44.7988 H   0  0  0  0  0  0  0  0  0  0  0  0
   45.2567   36.7501   42.7416 H   0  0  0  0  0  0  0  0  0  0  0  0
   44.8546   33.2596   47.3452 H   0  0  0  0  0  0  0  0  0  0  0  0
  1  2  1  0
  1 18  1  0
  3  2  1  0
  4  3  1  0
  5  4  1  0
  5  6  1  0
  6  7  1  0
  6  1  1  0
  7  8  1  0
  8  9  2  0
 10  9  1  0
 11 10  2  0
 12 11  1  0
 13 14  1  0
 13 12  2  0
 14 15  2  0
 15 10  1  0
 15  7  1  0
 16 21  2  0
 17 16  1  0
 18 17  2  0
 18 19  1  0
 19 20  2  0
 20 21  1  0
 20 22  1  0
  2 23  1  0
  2 24  1  0
  3 25  1  0
  3 26  1  0
  4 27  1  0
  5 28  1  0
  5 29  1  0
  6 30  1  6
  8 31  1  0
 11 32  1  0
 13 33  1  0
 16 34  1  0
 17 35  1  0
 22 36  1  0
M  ISO  8  23  13  24  13  25  13  26  13  27   5  28  13  29  13  30  13
M  ISO  6  31  14  32  14  33  14  34  14  35  14  36   3
M  END
>  <minimizedAffinity>  (1) 
-6.03791714

>  <minimizedRMSD>  (1) 
0.0585445203

$$$$
