
     RDKit          3D

 29 30  0  0  0  0  0  0  0  0999 V2000
   46.3000   32.3400   45.6960 C   0  0  0  0  0  0  0  0  0  0  0  0
   47.2580   31.5170   45.1110 C   0  0  0  0  0  0  0  0  0  0  0  0
   47.6650   30.5830   46.0110 N   0  0  0  0  0  0  0  0  0  0  0  0
   46.9570   30.8320   47.1490 C   0  0  0  0  0  0  0  0  0  0  0  0
   46.1280   31.9040   46.9490 N   0  0  0  0  0  0  0  0  0  0  0  0
   44.6590   35.5980   45.2650 C   0  0  0  0  0  0  0  0  0  0  0  0
   44.3070   35.5810   43.8900 C   0  0  0  0  0  0  0  0  0  0  0  0
   44.6390   34.4610   43.1500 C   0  0  0  0  0  0  0  0  0  0  0  0
   45.2830   33.4240   43.7520 N   0  0  0  0  0  0  0  0  0  0  0  0
   45.6080   33.4670   45.0740 C   0  0  0  0  0  0  0  0  0  0  0  0
   45.2950   34.5480   45.8130 N   0  0  0  0  0  0  0  0  0  0  0  0
   44.3100   34.3540   41.7020 C   0  0  0  0  0  0  0  0  0  0  0  0
   43.4930   35.5020   41.1880 C   0  0  0  0  0  0  0  0  0  0  0  0
   45.5660   34.1880   40.8650 C   0  0  0  0  0  0  0  0  0  0  0  0
   45.2140   32.4820   47.9130 C   0  0  0  0  0  0  0  0  0  0  0  0
   44.2490   31.5490   48.3370 F   0  0  0  0  0  0  0  0  0  0  0  0
   44.5780   33.6050   47.4150 F   0  0  0  0  0  0  0  0  0  0  0  0
   45.8890   32.8180   49.0730 F   0  0  0  0  0  0  0  0  0  0  0  0
   47.6287   31.6083   44.0794 H   0  0  0  0  0  0  0  0  0  0  0  0
   47.0389   30.2596   48.0848 H   0  0  0  0  0  0  0  0  0  0  0  0
   44.4107   36.4728   45.8839 H   0  0  0  0  0  0  0  0  0  0  0  0
   43.7863   36.4324   43.4274 H   0  0  0  0  0  0  0  0  0  0  0  0
   43.6868   33.4528   41.6046 H   0  0  0  0  0  0  0  0  0  0  0  0
   43.0872   36.0722   42.0366 H   0  0  0  0  0  0  0  0  0  0  0  0
   44.1281   36.1586   40.5752 H   0  0  0  0  0  0  0  0  0  0  0  0
   42.6646   35.1171   40.5752 H   0  0  0  0  0  0  0  0  0  0  0  0
   46.4360   34.0730   41.5282 H   0  0  0  0  0  0  0  0  0  0  0  0
   45.4682   33.2950   40.2302 H   0  0  0  0  0  0  0  0  0  0  0  0
   45.7036   35.0758   40.2302 H   0  0  0  0  0  0  0  0  0  0  0  0
  1  5  1  0
  2  1  2  0
  2  3  1  0
  3  4  2  0
  5  4  1  0
  5 15  1  0
  6 11  2  0
  7  6  1  0
  8  9  1  0
  8  7  2  0
  9 10  2  0
 10  1  1  0
 10 11  1  0
 12  8  1  0
 13 12  1  0
 14 12  1  0
 15 16  1  0
 15 18  1  0
 17 15  1  0
  2 19  1  0
  4 20  1  0
  6 21  1  0
  7 22  1  0
 12 23  1  0
 13 24  1  0
 13 25  1  0
 13 26  1  0
 14 27  1  0
 14 28  1  0
 14 29  1  0
M  ISO  8  19  14  20  14  21  14  22  14  23   8  24   8  25   8  26   8
M  ISO  3  27   8  28   8  29   8
M  END
>  <minimizedAffinity>  (1) 
-5.17945194

>  <minimizedRMSD>  (1) 
0.641533077

$$$$
