
     RDKit          3D

 37 40  0  0  0  0  0  0  0  0999 V2000
   46.7180   34.6890   41.7650 C   0  0  0  0  0  0  0  0  0  0  0  0
   48.5520   31.6400   43.0790 C   0  0  0  0  0  0  0  0  0  0  0  0
   48.1980   32.6970   42.1970 C   0  0  0  0  0  0  0  0  0  0  0  0
   47.1590   33.5550   42.6170 C   0  0  0  0  0  0  0  0  0  0  0  0
   46.5640   33.3240   43.8240 N   0  0  0  0  0  0  0  0  0  0  0  0
   46.9420   32.2970   44.6290 C   0  0  0  0  0  0  0  0  0  0  0  0
   47.9350   31.4670   44.2390 N   0  0  0  0  0  0  0  0  0  0  0  0
   46.3150   32.0640   45.8880 N   0  0  0  0  0  0  0  0  0  0  0  0
   46.3870   30.8640   46.4730 C   0  0  0  0  0  0  0  0  0  0  0  0
   45.7800   30.6390   47.6920 C   0  0  0  0  0  0  0  0  0  0  0  0
   45.1260   31.7390   48.2070 C   0  0  0  0  0  0  0  0  0  0  0  0
   44.5470   31.5870   49.3320 O   0  0  0  0  0  0  0  0  0  0  0  0
   45.0230   32.9660   47.6620 N   0  0  0  0  0  0  0  0  0  0  0  0
   45.6480   33.0980   46.4670 C   0  0  0  0  0  0  0  0  0  0  0  0
   45.6050   34.2090   45.8840 O   0  0  0  0  0  0  0  0  0  0  0  0
   45.7000   34.2290   40.8300 N   0  0  0  0  0  0  0  0  0  0  0  0
   45.9320   33.5150   39.6970 C   0  0  0  0  0  0  0  0  0  0  0  0
   44.7440   33.2820   39.1050 N   0  0  0  0  0  0  0  0  0  0  0  0
   43.7570   33.8280   39.8300 C   0  0  0  0  0  0  0  0  0  0  0  0
   42.3730   33.8690   39.6560 C   0  0  0  0  0  0  0  0  0  0  0  0
   41.8800   33.3100   38.6500 O   0  0  0  0  0  0  0  0  0  0  0  0
   41.6860   34.5170   40.5990 N   0  0  0  0  0  0  0  0  0  0  0  0
   42.2540   35.1030   41.6630 C   0  0  0  0  0  0  0  0  0  0  0  0
   41.4270   35.7650   42.6070 N   0  0  0  0  0  0  0  0  0  0  0  0
   43.5880   35.0780   41.8570 N   0  0  0  0  0  0  0  0  0  0  0  0
   44.3630   34.4400   40.9420 C   0  0  0  0  0  0  0  0  0  0  0  0
   46.2996   35.4835   42.4004 H   0  0  0  0  0  0  0  0  0  0  0  0
   47.5790   35.0819   41.2043 H   0  0  0  0  0  0  0  0  0  0  0  0
   49.3579   30.9486   42.7916 H   0  0  0  0  0  0  0  0  0  0  0  0
   48.7092   32.8394   41.2335 H   0  0  0  0  0  0  0  0  0  0  0  0
   46.9350   30.0485   45.9783 H   0  0  0  0  0  0  0  0  0  0  0  0
   45.8147   29.6679   48.2075 H   0  0  0  0  0  0  0  0  0  0  0  0
   44.5129   33.7379   48.1146 H   0  0  0  0  0  0  0  0  0  0  0  0
   46.9148   33.1858   39.3287 H   0  0  0  0  0  0  0  0  0  0  0  0
   40.6617   34.5700   40.5042 H   0  0  0  0  0  0  0  0  0  0  0  0
   41.8471   36.2203   43.4299 H   0  0  0  0  0  0  0  0  0  0  0  0
   40.4065   35.7903   42.4694 H   0  0  0  0  0  0  0  0  0  0  0  0
  1  4  1  0
  2  7  2  0
  3  4  2  0
  3  2  1  0
  4  5  1  0
  5  6  2  0
  6  8  1  0
  7  6  1  0
  8 14  1  0
  8  9  1  0
  9 10  2  0
 10 11  1  0
 11 12  2  0
 13 11  1  0
 14 13  1  0
 15 14  2  0
 16 26  1  0
 16  1  1  0
 17 16  1  0
 18 17  2  0
 18 19  1  0
 19 26  2  0
 20 19  1  0
 20 22  1  0
 21 20  2  0
 22 23  1  0
 23 25  2  0
 23 24  1  0
 26 25  1  0
  1 27  1  0
  1 28  1  0
  2 29  1  0
  3 30  1  0
  9 31  1  0
 10 32  1  0
 13 33  1  0
 17 34  1  0
 22 35  1  0
 24 36  1  0
 24 37  1  0
M  ISO  8  27   8  28   8  29  14  30  14  31  14  32  14  33   9  34  14
M  ISO  1  35   9
M  END
>  <minimizedAffinity>  (1) 
-6.63900852

>  <minimizedRMSD>  (1) 
2.4065907

$$$$
