
     RDKit          3D

 30 32  0  0  0  0  0  0  0  0999 V2000
   45.9670   34.3870   41.1850 N   0  0  0  0  0  0  0  0  0  0  0  0
   46.3620   33.6560   40.1060 C   0  0  0  0  0  0  0  0  0  0  0  0
   45.2700   33.3560   39.3840 N   0  0  0  0  0  0  0  0  0  0  0  0
   44.1910   33.8730   39.9690 C   0  0  0  0  0  0  0  0  0  0  0  0
   42.8340   33.8490   39.6260 C   0  0  0  0  0  0  0  0  0  0  0  0
   42.4860   33.2410   38.5780 O   0  0  0  0  0  0  0  0  0  0  0  0
   42.0040   34.4820   40.4520 N   0  0  0  0  0  0  0  0  0  0  0  0
   42.4100   35.1250   41.5680 C   0  0  0  0  0  0  0  0  0  0  0  0
   41.4390   35.7670   42.3770 N   0  0  0  0  0  0  0  0  0  0  0  0
   43.6980   35.1640   41.9180 N   0  0  0  0  0  0  0  0  0  0  0  0
   44.6110   34.5400   41.1250 C   0  0  0  0  0  0  0  0  0  0  0  0
   46.8290   34.9280   42.2390 C   0  0  0  0  0  0  0  0  0  0  0  0
   47.4190   32.0880   44.6750 C   0  0  0  0  0  0  0  0  0  0  0  0
   47.5480   32.8570   43.4960 C   0  0  0  0  0  0  0  0  0  0  0  0
   46.7770   34.0440   43.4210 C   0  0  0  0  0  0  0  0  0  0  0  0
   45.9720   34.3590   44.4810 N   0  0  0  0  0  0  0  0  0  0  0  0
   45.8900   33.5760   45.5910 C   0  0  0  0  0  0  0  0  0  0  0  0
   46.6120   32.4560   45.6720 N   0  0  0  0  0  0  0  0  0  0  0  0
   45.0150   33.9590   46.6940 C   0  0  0  0  0  0  0  0  0  0  0  0
   44.8920   33.2160   47.7020 O   0  0  0  0  0  0  0  0  0  0  0  0
   44.3030   35.1580   46.6450 O   0  0  0  0  0  0  0  0  0  0  0  0
   47.3950   33.3625   39.8675 H   0  0  0  0  0  0  0  0  0  0  0  0
   40.9986   34.4814   40.2281 H   0  0  0  0  0  0  0  0  0  0  0  0
   41.7277   36.2629   43.2323 H   0  0  0  0  0  0  0  0  0  0  0  0
   40.4448   35.7375   42.1095 H   0  0  0  0  0  0  0  0  0  0  0  0
   47.8640   34.9878   41.8713 H   0  0  0  0  0  0  0  0  0  0  0  0
   46.4798   35.9332   42.5178 H   0  0  0  0  0  0  0  0  0  0  0  0
   48.0006   31.1595   44.7735 H   0  0  0  0  0  0  0  0  0  0  0  0
   48.2143   32.5492   42.6766 H   0  0  0  0  0  0  0  0  0  0  0  0
   43.7107   35.4130   47.3962 H   0  0  0  0  0  0  0  0  0  0  0  0
  1 12  1  0
  2  1  1  0
  3  4  1  0
  3  2  2  0
  4 11  2  0
  5  4  1  0
  5  7  1  0
  6  5  2  0
  7  8  1  0
  8 10  2  0
  8  9  1  0
 11  1  1  0
 11 10  1  0
 12 15  1  0
 13 18  2  0
 14 13  1  0
 15 14  2  0
 15 16  1  0
 16 17  2  0
 17 18  1  0
 17 19  1  0
 19 20  2  0
 21 19  1  0
  2 22  1  0
  7 23  1  0
  9 24  1  0
  9 25  1  0
 12 26  1  0
 12 27  1  0
 13 28  1  0
 14 29  1  0
 21 30  1  0
M  ISO  7  22  14  23   9  26   8  27   8  28  14  29  14  30   3
M  END
>  <minimizedAffinity>  (1) 
-5.76216173

>  <minimizedRMSD>  (1) 
0.565126479

$$$$
