
     RDKit          3D

 30 32  0  0  0  0  0  0  0  0999 V2000
   46.4830   34.1060   42.2080 N   0  0  0  0  0  0  0  0  0  0  0  0
   47.0620   33.5330   41.1170 C   0  0  0  0  0  0  0  0  0  0  0  0
   46.1360   33.4460   40.1450 N   0  0  0  0  0  0  0  0  0  0  0  0
   44.9800   33.9520   40.5930 C   0  0  0  0  0  0  0  0  0  0  0  0
   43.7260   34.0920   39.9760 C   0  0  0  0  0  0  0  0  0  0  0  0
   43.5770   33.7030   38.8050 O   0  0  0  0  0  0  0  0  0  0  0  0
   42.7690   34.6500   40.7270 N   0  0  0  0  0  0  0  0  0  0  0  0
   42.9620   35.0630   41.9990 C   0  0  0  0  0  0  0  0  0  0  0  0
   41.8800   35.6400   42.7010 N   0  0  0  0  0  0  0  0  0  0  0  0
   44.1530   34.9370   42.6060 N   0  0  0  0  0  0  0  0  0  0  0  0
   45.1820   34.3770   41.9080 C   0  0  0  0  0  0  0  0  0  0  0  0
   47.1370   34.3820   43.4780 C   0  0  0  0  0  0  0  0  0  0  0  0
   47.1690   30.9260   45.0560 C   0  0  0  0  0  0  0  0  0  0  0  0
   47.4130   31.9500   44.1250 C   0  0  0  0  0  0  0  0  0  0  0  0
   46.9280   33.2380   44.4010 C   0  0  0  0  0  0  0  0  0  0  0  0
   46.2390   33.4140   45.5820 N   0  0  0  0  0  0  0  0  0  0  0  0
   46.0310   32.3980   46.4440 C   0  0  0  0  0  0  0  0  0  0  0  0
   46.4950   31.1710   46.1760 N   0  0  0  0  0  0  0  0  0  0  0  0
   45.2760   32.6620   47.7020 C   0  0  0  0  0  0  0  0  0  0  0  0
   44.4650   31.5790   48.0290 F   0  0  0  0  0  0  0  0  0  0  0  0
   46.1310   32.8130   48.7820 F   0  0  0  0  0  0  0  0  0  0  0  0
   44.5040   33.7860   47.6350 F   0  0  0  0  0  0  0  0  0  0  0  0
   48.1073   33.1987   41.0431 H   0  0  0  0  0  0  0  0  0  0  0  0
   41.8339   34.7713   40.3125 H   0  0  0  0  0  0  0  0  0  0  0  0
   42.0081   35.9607   43.6714 H   0  0  0  0  0  0  0  0  0  0  0  0
   40.9632   35.7399   42.2423 H   0  0  0  0  0  0  0  0  0  0  0  0
   48.2147   34.5268   43.3117 H   0  0  0  0  0  0  0  0  0  0  0  0
   46.7087   35.2934   43.9207 H   0  0  0  0  0  0  0  0  0  0  0  0
   47.5398   29.9099   44.8560 H   0  0  0  0  0  0  0  0  0  0  0  0
   47.9721   31.7466   43.1998 H   0  0  0  0  0  0  0  0  0  0  0  0
  1 12  1  0
  2  1  1  0
  3  4  1  0
  3  2  2  0
  4 11  2  0
  5  4  1  0
  5  7  1  0
  6  5  2  0
  7  8  1  0
  8 10  2  0
  8  9  1  0
 11  1  1  0
 11 10  1  0
 12 15  1  0
 13 18  2  0
 14 15  2  0
 14 13  1  0
 15 16  1  0
 16 17  2  0
 17 19  1  0
 18 17  1  0
 19 20  1  0
 19 21  1  0
 22 19  1  0
  2 23  1  0
  7 24  1  0
  9 25  1  0
  9 26  1  0
 12 27  1  0
 12 28  1  0
 13 29  1  0
 14 30  1  0
M  ISO  6  23  14  24   9  27   8  28   8  29  14  30  14
M  END
>  <minimizedAffinity>  (1) 
-5.64428091

>  <minimizedRMSD>  (1) 
1.55431473

$$$$
