
     RDKit          3D

 33 36  0  0  0  0  0  0  0  0999 V2000
   48.4800   34.2860   42.2470 C   0  0  0  0  0  0  0  0  0  0  0  0
   48.4000   33.1120   41.3990 N   0  0  0  0  0  0  0  0  0  0  0  0
   48.5100   31.8190   41.8320 C   0  0  0  0  0  0  0  0  0  0  0  0
   48.3860   30.9990   40.7750 N   0  0  0  0  0  0  0  0  0  0  0  0
   48.1990   31.7350   39.6710 C   0  0  0  0  0  0  0  0  0  0  0  0
   48.0160   31.3960   38.3280 C   0  0  0  0  0  0  0  0  0  0  0  0
   48.0150   30.1800   38.0120 O   0  0  0  0  0  0  0  0  0  0  0  0
   47.8550   32.4030   37.4730 N   0  0  0  0  0  0  0  0  0  0  0  0
   47.8620   33.7020   37.8460 C   0  0  0  0  0  0  0  0  0  0  0  0
   47.6820   34.7070   36.8600 N   0  0  0  0  0  0  0  0  0  0  0  0
   48.0350   34.0610   39.1230 N   0  0  0  0  0  0  0  0  0  0  0  0
   48.2060   33.0810   40.0580 C   0  0  0  0  0  0  0  0  0  0  0  0
   44.9780   35.2110   43.3740 C   0  0  0  0  0  0  0  0  0  0  0  0
   46.1290   35.1430   42.5610 C   0  0  0  0  0  0  0  0  0  0  0  0
   47.2260   34.4070   43.0450 C   0  0  0  0  0  0  0  0  0  0  0  0
   47.1060   33.8100   44.2610 N   0  0  0  0  0  0  0  0  0  0  0  0
   45.9800   33.9020   45.0110 C   0  0  0  0  0  0  0  0  0  0  0  0
   44.9270   34.6050   44.5530 N   0  0  0  0  0  0  0  0  0  0  0  0
   45.8640   33.2740   46.2820 N   0  0  0  0  0  0  0  0  0  0  0  0
   46.8600   32.3850   46.5490 C   0  0  0  0  0  0  0  0  0  0  0  0
   46.6480   31.8490   47.7850 N   0  0  0  0  0  0  0  0  0  0  0  0
   45.5250   32.4360   48.2250 C   0  0  0  0  0  0  0  0  0  0  0  0
   45.0550   33.2980   47.3100 N   0  0  0  0  0  0  0  0  0  0  0  0
   48.6051   35.1824   41.6219 H   0  0  0  0  0  0  0  0  0  0  0  0
   49.3400   34.1907   42.9262 H   0  0  0  0  0  0  0  0  0  0  0  0
   48.6730   31.5031   42.8730 H   0  0  0  0  0  0  0  0  0  0  0  0
   47.7181   32.1812   36.4765 H   0  0  0  0  0  0  0  0  0  0  0  0
   47.6853   35.7007   37.1309 H   0  0  0  0  0  0  0  0  0  0  0  0
   47.5481   34.4426   35.8736 H   0  0  0  0  0  0  0  0  0  0  0  0
   44.1039   35.7788   43.0226 H   0  0  0  0  0  0  0  0  0  0  0  0
   46.1673   35.6472   41.5841 H   0  0  0  0  0  0  0  0  0  0  0  0
   47.6971   32.1397   45.8788 H   0  0  0  0  0  0  0  0  0  0  0  0
   45.0549   32.2384   49.1997 H   0  0  0  0  0  0  0  0  0  0  0  0
  1 15  1  0
  2  3  1  0
  2  1  1  0
  4  3  2  0
  5 12  2  0
  5  4  1  0
  6  5  1  0
  7  6  2  0
  8  9  1  0
  8  6  1  0
  9 11  2  0
 10  9  1  0
 11 12  1  0
 12  2  1  0
 13 18  2  0
 14 15  2  0
 14 13  1  0
 15 16  1  0
 16 17  2  0
 17 19  1  0
 18 17  1  0
 19 20  1  0
 19 23  1  0
 20 21  2  0
 21 22  1  0
 23 22  2  0
  1 24  1  0
  1 25  1  0
  3 26  1  0
  8 27  1  0
 10 28  1  0
 10 29  1  0
 13 30  1  0
 14 31  1  0
 20 32  1  0
 22 33  1  0
M  ISO  8  24   8  25   8  26  14  27   9  30  14  31  14  32  14  33  14
M  END
>  <minimizedAffinity>  (1) 
-5.74072123

>  <minimizedRMSD>  (1) 
4.38972092

$$$$
