
     RDKit          3D

 39 42  0  0  0  0  0  0  0  0999 V2000
   47.0490   34.4700   43.0260 C   0  0  0  0  0  0  0  0  0  0  0  0
   46.2970   34.2450   41.7940 N   0  0  0  0  0  0  0  0  0  0  0  0
   46.8170   33.7380   40.6390 C   0  0  0  0  0  0  0  0  0  0  0  0
   45.8150   33.6800   39.7270 N   0  0  0  0  0  0  0  0  0  0  0  0
   44.6930   34.1370   40.2830 C   0  0  0  0  0  0  0  0  0  0  0  0
   43.3960   34.2860   39.7810 C   0  0  0  0  0  0  0  0  0  0  0  0
   43.1580   33.9530   38.5970 O   0  0  0  0  0  0  0  0  0  0  0  0
   42.4900   34.7850   40.6240 N   0  0  0  0  0  0  0  0  0  0  0  0
   42.7680   35.1380   41.8990 C   0  0  0  0  0  0  0  0  0  0  0  0
   41.7270   35.6590   42.7110 N   0  0  0  0  0  0  0  0  0  0  0  0
   44.0010   35.0060   42.4070 N   0  0  0  0  0  0  0  0  0  0  0  0
   44.9760   34.5030   41.6010 C   0  0  0  0  0  0  0  0  0  0  0  0
   47.8930   30.8600   43.8200 C   0  0  0  0  0  0  0  0  0  0  0  0
   47.7460   32.0470   43.0760 C   0  0  0  0  0  0  0  0  0  0  0  0
   47.2340   33.1880   43.7320 C   0  0  0  0  0  0  0  0  0  0  0  0
   46.9150   33.0520   45.0550 N   0  0  0  0  0  0  0  0  0  0  0  0
   47.0700   31.8910   45.7310 C   0  0  0  0  0  0  0  0  0  0  0  0
   47.5560   30.8140   45.1100 N   0  0  0  0  0  0  0  0  0  0  0  0
   46.7050   31.8650   47.1050 N   0  0  0  0  0  0  0  0  0  0  0  0
   47.5550   32.1630   48.2310 C   0  0  0  0  0  0  0  0  0  0  0  0
   46.9410   31.2300   49.2840 C   0  0  0  0  0  0  0  0  0  0  0  0
   45.4630   31.5950   49.0950 C   0  0  0  0  0  0  0  0  0  0  0  0
   45.3600   31.5170   47.5860 C   0  0  0  0  0  0  0  0  0  0  0  0
   46.4946   35.1671   43.6715 H   0  0  0  0  0  0  0  0  0  0  0  0
   48.0322   34.8985   42.7816 H   0  0  0  0  0  0  0  0  0  0  0  0
   47.8609   33.4315   40.4768 H   0  0  0  0  0  0  0  0  0  0  0  0
   41.5254   34.9080   40.2845 H   0  0  0  0  0  0  0  0  0  0  0  0
   41.9214   35.9329   43.6847 H   0  0  0  0  0  0  0  0  0  0  0  0
   40.7771   35.7632   42.3266 H   0  0  0  0  0  0  0  0  0  0  0  0
   48.2910   29.9588   43.3307 H   0  0  0  0  0  0  0  0  0  0  0  0
   48.0227   32.0842   42.0120 H   0  0  0  0  0  0  0  0  0  0  0  0
   48.6062   31.9118   48.0265 H   0  0  0  0  0  0  0  0  0  0  0  0
   47.5894   33.2246   48.5169 H   0  0  0  0  0  0  0  0  0  0  0  0
   47.1361   30.1708   49.0606 H   0  0  0  0  0  0  0  0  0  0  0  0
   47.3307   31.3483   50.3058 H   0  0  0  0  0  0  0  0  0  0  0  0
   44.7979   30.8700   49.5870 H   0  0  0  0  0  0  0  0  0  0  0  0
   45.1667   32.5614   49.5289 H   0  0  0  0  0  0  0  0  0  0  0  0
   44.6153   32.2339   47.2098 H   0  0  0  0  0  0  0  0  0  0  0  0
   45.0369   30.5240   47.2403 H   0  0  0  0  0  0  0  0  0  0  0  0
  1 15  1  0
  2  1  1  0
  3  2  1  0
  4  5  1  0
  4  3  2  0
  5 12  2  0
  6  5  1  0
  6  8  1  0
  7  6  2  0
  8  9  1  0
  9 11  2  0
  9 10  1  0
 12  2  1  0
 12 11  1  0
 13 18  2  0
 14 15  2  0
 14 13  1  0
 15 16  1  0
 16 17  2  0
 17 19  1  0
 18 17  1  0
 19 23  1  0
 19 20  1  0
 20 21  1  0
 22 21  1  0
 23 22  1  0
  1 24  1  0
  1 25  1  0
  3 26  1  0
  8 27  1  0
 10 28  1  0
 10 29  1  0
 13 30  1  0
 14 31  1  0
 20 32  1  0
 20 33  1  0
 21 34  1  0
 21 35  1  0
 22 36  1  0
 22 37  1  0
 23 38  1  0
 23 39  1  0
M  ISO  8  24   8  25   8  26  14  27   9  30  14  31  14  32  13  33  13
M  ISO  6  34  13  35  13  36  13  37  13  38  13  39  13
M  END
>  <minimizedAffinity>  (1) 
-5.84926224

>  <minimizedRMSD>  (1) 
2.34072638

$$$$
