
     RDKit          3D

 34 37  0  0  0  0  0  0  0  0999 V2000
   48.5910   34.8310   42.2510 C   0  0  0  0  0  0  0  0  0  0  0  0
   48.9370   33.6580   41.4640 N   0  0  0  0  0  0  0  0  0  0  0  0
   49.5530   32.5390   41.9540 C   0  0  0  0  0  0  0  0  0  0  0  0
   49.7100   31.6720   40.9370 N   0  0  0  0  0  0  0  0  0  0  0  0
   49.2080   32.2140   39.8150 C   0  0  0  0  0  0  0  0  0  0  0  0
   49.1240   31.7300   38.5060 C   0  0  0  0  0  0  0  0  0  0  0  0
   49.5760   30.5940   38.2480 O   0  0  0  0  0  0  0  0  0  0  0  0
   48.5510   32.5470   37.6120 N   0  0  0  0  0  0  0  0  0  0  0  0
   48.0730   33.7690   37.9200 C   0  0  0  0  0  0  0  0  0  0  0  0
   47.4850   34.5580   36.9070 N   0  0  0  0  0  0  0  0  0  0  0  0
   48.1440   34.2520   39.1730 N   0  0  0  0  0  0  0  0  0  0  0  0
   48.7110   33.4840   40.1380 C   0  0  0  0  0  0  0  0  0  0  0  0
   44.8540   34.8200   42.9380 C   0  0  0  0  0  0  0  0  0  0  0  0
   46.0800   35.0580   42.2620 C   0  0  0  0  0  0  0  0  0  0  0  0
   47.2610   34.6270   42.8800 C   0  0  0  0  0  0  0  0  0  0  0  0
   47.1470   33.9990   44.1030 N   0  0  0  0  0  0  0  0  0  0  0  0
   45.9550   33.7970   44.7020 C   0  0  0  0  0  0  0  0  0  0  0  0
   44.8280   34.2060   44.1170 N   0  0  0  0  0  0  0  0  0  0  0  0
   46.0360   33.1210   45.9840 C   0  0  0  0  0  0  0  0  0  0  0  0
   46.9870   32.1990   46.3850 C   0  0  0  0  0  0  0  0  0  0  0  0
   46.6340   31.8530   47.6770 C   0  0  0  0  0  0  0  0  0  0  0  0
   45.4900   32.5740   48.0090 C   0  0  0  0  0  0  0  0  0  0  0  0
   45.1790   33.3130   46.9620 O   0  0  0  0  0  0  0  0  0  0  0  0
   48.5562   35.7148   41.5970 H   0  0  0  0  0  0  0  0  0  0  0  0
   49.3483   34.9854   43.0337 H   0  0  0  0  0  0  0  0  0  0  0  0
   49.8651   32.3766   42.9962 H   0  0  0  0  0  0  0  0  0  0  0  0
   48.4715   32.2240   36.6372 H   0  0  0  0  0  0  0  0  0  0  0  0
   47.1165   35.4933   37.1314 H   0  0  0  0  0  0  0  0  0  0  0  0
   47.4246   34.1981   35.9438 H   0  0  0  0  0  0  0  0  0  0  0  0
   43.9103   35.1491   42.4786 H   0  0  0  0  0  0  0  0  0  0  0  0
   46.1016   35.5640   41.2855 H   0  0  0  0  0  0  0  0  0  0  0  0
   47.8402   31.8223   45.8017 H   0  0  0  0  0  0  0  0  0  0  0  0
   47.1616   31.1376   48.3249 H   0  0  0  0  0  0  0  0  0  0  0  0
   44.9475   32.5346   48.9651 H   0  0  0  0  0  0  0  0  0  0  0  0
  1 15  1  0
  2  3  1  0
  2  1  1  0
  4  3  2  0
  5 12  2  0
  5  4  1  0
  6  5  1  0
  7  6  2  0
  8  9  1  0
  8  6  1  0
  9 11  2  0
 10  9  1  0
 11 12  1  0
 12  2  1  0
 13 18  2  0
 14 15  2  0
 14 13  1  0
 15 16  1  0
 16 17  2  0
 17 19  1  0
 18 17  1  0
 19 20  2  0
 19 23  1  0
 20 21  1  0
 21 22  2  0
 23 22  1  0
  1 24  1  0
  1 25  1  0
  3 26  1  0
  8 27  1  0
 10 28  1  0
 10 29  1  0
 13 30  1  0
 14 31  1  0
 20 32  1  0
 21 33  1  0
 22 34  1  0
M  ISO  8  24   8  25   8  26  14  27   9  30  14  31  14  32  14  33  14
M  ISO  1  34  14
M  END
>  <minimizedAffinity>  (1) 
-5.63332033

>  <minimizedRMSD>  (1) 
4.69471979

$$$$
