
     RDKit          3D

 28 30  0  0  0  0  0  0  0  0999 V2000
   45.8510   34.4930   41.3680 N   0  0  0  0  0  0  0  0  0  0  0  0
   46.3520   33.7540   40.3460 C   0  0  0  0  0  0  0  0  0  0  0  0
   45.3170   33.3760   39.5570 N   0  0  0  0  0  0  0  0  0  0  0  0
   44.1840   33.8610   40.0630 C   0  0  0  0  0  0  0  0  0  0  0  0
   42.8540   33.7620   39.6390 C   0  0  0  0  0  0  0  0  0  0  0  0
   42.5940   33.1110   38.5950 O   0  0  0  0  0  0  0  0  0  0  0  0
   41.9500   34.3810   40.3960 N   0  0  0  0  0  0  0  0  0  0  0  0
   42.2470   35.0690   41.5050 C   0  0  0  0  0  0  0  0  0  0  0  0
   41.2040   35.6920   42.2390 N   0  0  0  0  0  0  0  0  0  0  0  0
   43.5190   35.1800   41.9340 N   0  0  0  0  0  0  0  0  0  0  0  0
   44.4960   34.5800   41.2210 C   0  0  0  0  0  0  0  0  0  0  0  0
   46.6330   35.0970   42.4480 C   0  0  0  0  0  0  0  0  0  0  0  0
   47.0670   32.3940   45.0710 C   0  0  0  0  0  0  0  0  0  0  0  0
   47.2620   33.1130   43.8570 C   0  0  0  0  0  0  0  0  0  0  0  0
   46.5020   34.2780   43.6790 C   0  0  0  0  0  0  0  0  0  0  0  0
   45.6310   34.6550   44.6540 N   0  0  0  0  0  0  0  0  0  0  0  0
   45.4830   33.9260   45.8010 C   0  0  0  0  0  0  0  0  0  0  0  0
   46.2050   32.8110   45.9840 N   0  0  0  0  0  0  0  0  0  0  0  0
   44.5970   34.3020   46.8020 O   0  0  0  0  0  0  0  0  0  0  0  0
   47.4116   33.5055   40.1862 H   0  0  0  0  0  0  0  0  0  0  0  0
   40.9618   34.3270   40.1106 H   0  0  0  0  0  0  0  0  0  0  0  0
   41.4222   36.2237   43.0937 H   0  0  0  0  0  0  0  0  0  0  0  0
   40.2289   35.6124   41.9169 H   0  0  0  0  0  0  0  0  0  0  0  0
   47.6911   35.1441   42.1511 H   0  0  0  0  0  0  0  0  0  0  0  0
   46.2589   36.1126   42.6446 H   0  0  0  0  0  0  0  0  0  0  0  0
   47.6437   31.4751   45.2528 H   0  0  0  0  0  0  0  0  0  0  0  0
   47.9762   32.7701   43.0939 H   0  0  0  0  0  0  0  0  0  0  0  0
   44.5132   33.7522   47.6210 H   0  0  0  0  0  0  0  0  0  0  0  0
  1 12  1  0
  2  1  1  0
  3  4  1  0
  3  2  2  0
  4 11  2  0
  5  4  1  0
  5  7  1  0
  6  5  2  0
  7  8  1  0
  8 10  2  0
  8  9  1  0
 11  1  1  0
 11 10  1  0
 12 15  1  0
 13 18  2  0
 14 13  1  0
 15 14  2  0
 15 16  1  0
 16 17  2  0
 17 18  1  0
 17 19  1  0
  2 20  1  0
  7 21  1  0
  9 22  1  0
  9 23  1  0
 12 24  1  0
 12 25  1  0
 13 26  1  0
 14 27  1  0
 19 28  1  0
M  ISO  7  20  14  21   9  24   8  25   8  26  14  27  14  28   3
M  END
>  <minimizedAffinity>  (1) 
-5.43474913

>  <minimizedRMSD>  (1) 
0.087235786

$$$$
