
     RDKit          3D

 32 35  0  0  0  0  0  0  0  0999 V2000
   47.2510   34.3540   43.1940 C   0  0  0  0  0  0  0  0  0  0  0  0
   46.5180   34.1280   41.9580 N   0  0  0  0  0  0  0  0  0  0  0  0
   47.0660   33.5890   40.8230 C   0  0  0  0  0  0  0  0  0  0  0  0
   46.0880   33.5290   39.8770 N   0  0  0  0  0  0  0  0  0  0  0  0
   44.9480   34.0160   40.3950 C   0  0  0  0  0  0  0  0  0  0  0  0
   43.6710   34.1750   39.8500 C   0  0  0  0  0  0  0  0  0  0  0  0
   43.4790   33.8230   38.6740 O   0  0  0  0  0  0  0  0  0  0  0  0
   42.7470   34.7060   40.6700 N   0  0  0  0  0  0  0  0  0  0  0  0
   43.0050   35.0750   41.9470 C   0  0  0  0  0  0  0  0  0  0  0  0
   41.9520   35.6280   42.7210 N   0  0  0  0  0  0  0  0  0  0  0  0
   44.2200   34.9310   42.4820 N   0  0  0  0  0  0  0  0  0  0  0  0
   45.2130   34.3990   41.7180 C   0  0  0  0  0  0  0  0  0  0  0  0
   47.9260   30.7720   44.2260 C   0  0  0  0  0  0  0  0  0  0  0  0
   47.9080   31.9370   43.4350 C   0  0  0  0  0  0  0  0  0  0  0  0
   47.3090   33.0870   43.9710 C   0  0  0  0  0  0  0  0  0  0  0  0
   46.7840   32.9980   45.2220 N   0  0  0  0  0  0  0  0  0  0  0  0
   46.8200   31.8530   45.9580 C   0  0  0  0  0  0  0  0  0  0  0  0
   47.3930   30.7530   45.4470 N   0  0  0  0  0  0  0  0  0  0  0  0
   46.2480   31.7920   47.2970 C   0  0  0  0  0  0  0  0  0  0  0  0
   46.4100   32.4940   48.4440 N   0  0  0  0  0  0  0  0  0  0  0  0
   45.6340   32.0090   49.3660 O   0  0  0  0  0  0  0  0  0  0  0  0
   44.9450   30.9890   48.8700 C   0  0  0  0  0  0  0  0  0  0  0  0
   45.3170   30.8390   47.5720 N   0  0  0  0  0  0  0  0  0  0  0  0
   46.7401   35.1261   43.7880 H   0  0  0  0  0  0  0  0  0  0  0  0
   48.2722   34.6895   42.9602 H   0  0  0  0  0  0  0  0  0  0  0  0
   48.1092   33.2632   40.6985 H   0  0  0  0  0  0  0  0  0  0  0  0
   41.7922   34.8391   40.3074 H   0  0  0  0  0  0  0  0  0  0  0  0
   42.1249   35.9159   43.6947 H   0  0  0  0  0  0  0  0  0  0  0  0
   41.0148   35.7415   42.3091 H   0  0  0  0  0  0  0  0  0  0  0  0
   48.3901   29.8579   43.8272 H   0  0  0  0  0  0  0  0  0  0  0  0
   48.3500   31.9451   42.4278 H   0  0  0  0  0  0  0  0  0  0  0  0
   44.2079   30.3772   49.4107 H   0  0  0  0  0  0  0  0  0  0  0  0
  1 15  1  0
  2  1  1  0
  3  2  1  0
  4  5  1  0
  4  3  2  0
  5 12  2  0
  6  5  1  0
  6  8  1  0
  7  6  2  0
  8  9  1  0
  9 11  2  0
  9 10  1  0
 12  2  1  0
 12 11  1  0
 13 18  2  0
 14 15  2  0
 14 13  1  0
 15 16  1  0
 16 17  2  0
 17 19  1  0
 18 17  1  0
 19 23  1  0
 19 20  2  0
 20 21  1  0
 22 21  1  0
 23 22  2  0
  1 24  1  0
  1 25  1  0
  3 26  1  0
  8 27  1  0
 10 28  1  0
 10 29  1  0
 13 30  1  0
 14 31  1  0
 22 32  1  0
M  ISO  7  24   8  25   8  26  14  27   9  30  14  31  14  32  14
M  END
>  <minimizedAffinity>  (1) 
-5.56212664

>  <minimizedRMSD>  (1) 
2.22008562

$$$$
