
     RDKit          3D

 27 29  0  0  0  0  0  0  0  0999 V2000
   44.7290   35.6910   45.0610 C   0  0  0  0  0  0  0  0  0  0  0  0
   44.2500   35.5840   43.7280 C   0  0  0  0  0  0  0  0  0  0  0  0
   44.4750   34.3900   43.0430 C   0  0  0  0  0  0  0  0  0  0  0  0
   45.1350   33.3880   43.6630 N   0  0  0  0  0  0  0  0  0  0  0  0
   45.5810   33.5180   44.9350 C   0  0  0  0  0  0  0  0  0  0  0  0
   45.3760   34.6530   45.6100 N   0  0  0  0  0  0  0  0  0  0  0  0
   46.2910   32.4100   45.5710 C   0  0  0  0  0  0  0  0  0  0  0  0
   47.2530   31.5900   45.0110 C   0  0  0  0  0  0  0  0  0  0  0  0
   47.6710   30.6770   45.9290 N   0  0  0  0  0  0  0  0  0  0  0  0
   46.9700   30.9320   47.0480 C   0  0  0  0  0  0  0  0  0  0  0  0
   46.1230   31.9870   46.8450 N   0  0  0  0  0  0  0  0  0  0  0  0
   45.1950   32.5720   47.8100 C   0  0  0  0  0  0  0  0  0  0  0  0
   44.2160   31.6610   48.2010 F   0  0  0  0  0  0  0  0  0  0  0  0
   44.6020   33.7280   47.3120 F   0  0  0  0  0  0  0  0  0  0  0  0
   45.8740   32.8800   48.9800 F   0  0  0  0  0  0  0  0  0  0  0  0
   44.0390   34.1590   41.6900 C   0  0  0  0  0  0  0  0  0  0  0  0
   42.8150   34.3860   41.1780 C   0  0  0  0  0  0  0  0  0  0  0  0
   42.5040   34.1350   39.8860 C   0  0  0  0  0  0  0  0  0  0  0  0
   43.6320   33.5910   39.0990 C   0  0  0  0  0  0  0  0  0  0  0  0
   45.0330   33.5130   40.3730 S   0  0  0  0  0  0  0  0  0  0  0  0
   44.5709   36.6151   45.6363 H   0  0  0  0  0  0  0  0  0  0  0  0
   43.7169   36.4189   43.2497 H   0  0  0  0  0  0  0  0  0  0  0  0
   47.6246   31.6646   43.9784 H   0  0  0  0  0  0  0  0  0  0  0  0
   47.0641   30.3729   47.9906 H   0  0  0  0  0  0  0  0  0  0  0  0
   42.0349   34.7928   41.8382 H   0  0  0  0  0  0  0  0  0  0  0  0
   41.5063   34.3181   39.4606 H   0  0  0  0  0  0  0  0  0  0  0  0
   43.6526   33.3031   38.0375 H   0  0  0  0  0  0  0  0  0  0  0  0
  1  6  2  0
  2  1  1  0
  3  4  1  0
  3  2  2  0
  4  5  2  0
  5  7  1  0
  5  6  1  0
  7 11  1  0
  8  7  2  0
  8  9  1  0
  9 10  2  0
 11 10  1  0
 11 12  1  0
 12 13  1  0
 12 15  1  0
 14 12  1  0
 16  3  1  0
 17 16  2  0
 18 17  1  0
 19 18  2  0
 19 20  1  0
 20 16  1  0
  1 21  1  0
  2 22  1  0
  8 23  1  0
 10 24  1  0
 17 25  1  0
 18 26  1  0
 19 27  1  0
M  ISO  7  21  14  22  14  23  14  24  14  25  14  26  14  27  14
M  END
>  <minimizedAffinity>  (1) 
-5.11911154

>  <minimizedRMSD>  (1) 
0.584924817

$$$$
