
     RDKit          3D

 38 41  0  0  0  0  0  0  0  0999 V2000
   46.0160   35.2410   42.5800 C   0  0  0  0  0  0  0  0  0  0  0  0
   48.4800   33.6920   40.1370 C   0  0  0  0  0  0  0  0  0  0  0  0
   47.5060   34.5710   40.6470 C   0  0  0  0  0  0  0  0  0  0  0  0
   47.0420   34.3620   41.9620 C   0  0  0  0  0  0  0  0  0  0  0  0
   47.5620   33.3200   42.6680 N   0  0  0  0  0  0  0  0  0  0  0  0
   48.5070   32.4920   42.1300 C   0  0  0  0  0  0  0  0  0  0  0  0
   48.9480   32.6930   40.8760 N   0  0  0  0  0  0  0  0  0  0  0  0
   49.0540   31.4010   42.8610 N   0  0  0  0  0  0  0  0  0  0  0  0
   50.3470   31.1250   42.6130 C   0  0  0  0  0  0  0  0  0  0  0  0
   50.9380   30.0750   43.2920 C   0  0  0  0  0  0  0  0  0  0  0  0
   50.1480   29.3800   44.1850 C   0  0  0  0  0  0  0  0  0  0  0  0
   50.6560   28.2830   44.9370 N   0  0  0  0  0  0  0  0  0  0  0  0
   48.8580   29.7070   44.3900 N   0  0  0  0  0  0  0  0  0  0  0  0
   48.2700   30.7360   43.7260 C   0  0  0  0  0  0  0  0  0  0  0  0
   47.0820   31.1080   43.8530 O   0  0  0  0  0  0  0  0  0  0  0  0
   44.6970   34.9190   42.0330 N   0  0  0  0  0  0  0  0  0  0  0  0
   43.9080   35.7620   41.3240 C   0  0  0  0  0  0  0  0  0  0  0  0
   42.7700   35.0930   40.9970 N   0  0  0  0  0  0  0  0  0  0  0  0
   42.8470   33.8410   41.4970 C   0  0  0  0  0  0  0  0  0  0  0  0
   41.9470   32.7740   41.4370 C   0  0  0  0  0  0  0  0  0  0  0  0
   40.8610   32.9300   40.8310 O   0  0  0  0  0  0  0  0  0  0  0  0
   42.3390   31.6550   42.0460 N   0  0  0  0  0  0  0  0  0  0  0  0
   43.5180   31.5300   42.6870 C   0  0  0  0  0  0  0  0  0  0  0  0
   43.8370   30.2850   43.3060 N   0  0  0  0  0  0  0  0  0  0  0  0
   44.3890   32.5450   42.7520 N   0  0  0  0  0  0  0  0  0  0  0  0
   44.0640   33.7190   42.1570 C   0  0  0  0  0  0  0  0  0  0  0  0
   46.0085   35.0848   43.6688 H   0  0  0  0  0  0  0  0  0  0  0  0
   46.2555   36.2917   42.3594 H   0  0  0  0  0  0  0  0  0  0  0  0
   48.8580   33.8344   39.1139 H   0  0  0  0  0  0  0  0  0  0  0  0
   47.1172   35.3989   40.0359 H   0  0  0  0  0  0  0  0  0  0  0  0
   50.9207   31.7203   41.8874 H   0  0  0  0  0  0  0  0  0  0  0  0
   51.9917   29.8056   43.1274 H   0  0  0  0  0  0  0  0  0  0  0  0
   50.0429   27.7828   45.5964 H   0  0  0  0  0  0  0  0  0  0  0  0
   51.6366   27.9896   44.8216 H   0  0  0  0  0  0  0  0  0  0  0  0
   44.1458   36.8030   41.0597 H   0  0  0  0  0  0  0  0  0  0  0  0
   41.7069   30.8421   42.0256 H   0  0  0  0  0  0  0  0  0  0  0  0
   44.7332   30.1704   43.8005 H   0  0  0  0  0  0  0  0  0  0  0  0
   43.1711   29.5007   43.2585 H   0  0  0  0  0  0  0  0  0  0  0  0
  2  3  2  0
  2  7  1  0
  3  4  1  0
  4  1  1  0
  4  5  2  0
  6  5  1  0
  6  8  1  0
  7  6  2  0
  8 14  1  0
  9  8  1  0
  9 10  2  0
 10 11  1  0
 11 13  2  0
 11 12  1  0
 14 15  2  0
 14 13  1  0
 16 26  1  0
 16  1  1  0
 17 16  1  0
 18 17  2  0
 18 19  1  0
 19 26  2  0
 20 19  1  0
 20 22  1  0
 21 20  2  0
 22 23  1  0
 23 25  2  0
 23 24  1  0
 26 25  1  0
  1 27  1  0
  1 28  1  0
  2 29  1  0
  3 30  1  0
  9 31  1  0
 10 32  1  0
 12 33  1  0
 12 34  1  0
 17 35  1  0
 22 36  1  0
 24 37  1  0
 24 38  1  0
M  ISO  8  27   8  28   8  29  14  30  14  31  14  32  14  35  14  36   9
M  END
>  <minimizedAffinity>  (1) 
-4.8805232

>  <minimizedRMSD>  (1) 
5.77374887

$$$$
