
     RDKit          3D

 33 35  0  0  0  0  0  0  0  0999 V2000
   46.4810   34.1390   42.0400 N   0  0  0  0  0  0  0  0  0  0  0  0
   47.0330   33.5620   40.9450 C   0  0  0  0  0  0  0  0  0  0  0  0
   46.0700   33.4530   40.0000 N   0  0  0  0  0  0  0  0  0  0  0  0
   44.9230   33.9520   40.4820 C   0  0  0  0  0  0  0  0  0  0  0  0
   43.6460   34.0780   39.9220 C   0  0  0  0  0  0  0  0  0  0  0  0
   43.4530   33.6740   38.7550 O   0  0  0  0  0  0  0  0  0  0  0  0
   42.7110   34.6370   40.7060 N   0  0  0  0  0  0  0  0  0  0  0  0
   42.9450   35.0620   41.9550 C   0  0  0  0  0  0  0  0  0  0  0  0
   41.8930   35.6430   42.7120 N   0  0  0  0  0  0  0  0  0  0  0  0
   44.1600   34.9510   42.5130 N   0  0  0  0  0  0  0  0  0  0  0  0
   45.1710   34.3940   41.7830 C   0  0  0  0  0  0  0  0  0  0  0  0
   47.1870   34.4360   43.2900 C   0  0  0  0  0  0  0  0  0  0  0  0
   47.1420   31.0740   45.0440 C   0  0  0  0  0  0  0  0  0  0  0  0
   47.4190   32.0540   44.0550 C   0  0  0  0  0  0  0  0  0  0  0  0
   46.9420   33.3490   44.2710 C   0  0  0  0  0  0  0  0  0  0  0  0
   46.2350   33.5970   45.4240 N   0  0  0  0  0  0  0  0  0  0  0  0
   45.9970   32.6270   46.3370 C   0  0  0  0  0  0  0  0  0  0  0  0
   46.4530   31.3870   46.1310 N   0  0  0  0  0  0  0  0  0  0  0  0
   45.2320   32.9000   47.5820 C   0  0  0  0  0  0  0  0  0  0  0  0
   44.9760   31.6230   48.3870 C   0  0  0  0  0  0  0  0  0  0  0  0
   48.0795   33.2391   40.8422 H   0  0  0  0  0  0  0  0  0  0  0  0
   41.7598   34.7454   40.3261 H   0  0  0  0  0  0  0  0  0  0  0  0
   42.0697   35.9707   43.6724 H   0  0  0  0  0  0  0  0  0  0  0  0
   40.9534   35.7367   42.3006 H   0  0  0  0  0  0  0  0  0  0  0  0
   48.2661   34.5134   43.0914 H   0  0  0  0  0  0  0  0  0  0  0  0
   46.8187   35.3879   43.7001 H   0  0  0  0  0  0  0  0  0  0  0  0
   47.5033   30.0442   44.9062 H   0  0  0  0  0  0  0  0  0  0  0  0
   47.9900   31.8021   43.1492 H   0  0  0  0  0  0  0  0  0  0  0  0
   45.8046   33.6036   48.2041 H   0  0  0  0  0  0  0  0  0  0  0  0
   44.2579   33.3242   47.2972 H   0  0  0  0  0  0  0  0  0  0  0  0
   45.0219   31.8518   49.4620 H   0  0  0  0  0  0  0  0  0  0  0  0
   43.9805   31.2264   48.1387 H   0  0  0  0  0  0  0  0  0  0  0  0
   45.7417   30.8733   48.1387 H   0  0  0  0  0  0  0  0  0  0  0  0
  1 12  1  0
  2  1  1  0
  3  4  1  0
  3  2  2  0
  4 11  2  0
  5  4  1  0
  5  7  1  0
  6  5  2  0
  7  8  1  0
  8 10  2  0
  8  9  1  0
 11  1  1  0
 11 10  1  0
 12 15  1  0
 13 18  2  0
 14 15  2  0
 14 13  1  0
 15 16  1  0
 16 17  2  0
 17 19  1  0
 18 17  1  0
 19 20  1  0
  2 21  1  0
  7 22  1  0
  9 23  1  0
  9 24  1  0
 12 25  1  0
 12 26  1  0
 13 27  1  0
 14 28  1  0
 19 29  1  0
 19 30  1  0
 20 31  1  0
 20 32  1  0
 20 33  1  0
M  ISO  8  21  14  22   9  25   8  26   8  27  14  28  14  29   8  30   8
M  ISO  3  31   8  32   8  33   8
M  END
>  <minimizedAffinity>  (1) 
-5.02117682

>  <minimizedRMSD>  (1) 
1.40226781

$$$$
