
     RDKit          3D

 52 55  0  0  1  0  0  0  0  0999 V2000
   49.5920   30.5110   42.0150 C   0  0  0  0  0  0  0  0  0  0  0  0
   49.4700   31.9130   41.9460 C   0  0  0  0  0  0  0  0  0  0  0  0
   48.6400   32.5570   42.8910 C   0  0  0  0  0  0  0  0  0  0  0  0
   47.9980   31.8010   43.8190 N   0  0  0  0  0  0  0  0  0  0  0  0
   48.1460   30.4360   43.8470 C   0  0  0  0  0  0  0  0  0  0  0  0
   48.9410   29.8190   42.9440 N   0  0  0  0  0  0  0  0  0  0  0  0
   48.4390   34.0370   42.8930 C   0  0  0  0  0  0  0  0  0  0  0  0
   47.1160   34.3420   42.3640 N   0  0  0  0  0  0  0  0  0  0  0  0
   46.7500   34.2720   41.0520 C   0  0  0  0  0  0  0  0  0  0  0  0
   45.4510   34.6330   40.9540 N   0  0  0  0  0  0  0  0  0  0  0  0
   44.9880   34.9290   42.1760 C   0  0  0  0  0  0  0  0  0  0  0  0
   43.7290   35.3500   42.6260 C   0  0  0  0  0  0  0  0  0  0  0  0
   42.8090   35.5040   41.7880 O   0  0  0  0  0  0  0  0  0  0  0  0
   43.6030   35.5610   43.9380 N   0  0  0  0  0  0  0  0  0  0  0  0
   44.6310   35.3830   44.8140 C   0  0  0  0  0  0  0  0  0  0  0  0
   44.3970   35.6360   46.1800 N   0  0  0  0  0  0  0  0  0  0  0  0
   45.8460   34.9770   44.3940 N   0  0  0  0  0  0  0  0  0  0  0  0
   46.0350   34.7480   43.0820 C   0  0  0  0  0  0  0  0  0  0  0  0
   47.4090   29.6140   44.8860 C   0  0  1  0  0  0  0  0  0  0  0  0
   47.4590   28.1530   44.5340 C   0  0  0  0  0  0  0  0  0  0  0  0
   48.0080   29.8490   46.2300 C   0  0  0  0  0  0  0  0  0  0  0  0
   47.0020   30.1540   47.2770 C   0  0  0  0  0  0  0  0  0  0  0  0
   47.3830   30.8480   48.5100 C   0  0  0  0  0  0  0  0  0  0  0  0
   46.0370   31.1810   49.2290 C   0  0  0  0  0  0  0  0  0  0  0  0
   45.4350   32.4040   48.5890 C   0  0  0  0  0  0  0  0  0  0  0  0
   45.8060   32.3740   47.1170 C   0  0  0  0  0  0  0  0  0  0  0  0
   45.8070   30.9110   46.6930 C   0  0  0  0  0  0  0  0  0  0  0  0
   50.2326   29.9840   41.2926 H   0  0  0  0  0  0  0  0  0  0  0  0
   50.0059   32.4901   41.1780 H   0  0  0  0  0  0  0  0  0  0  0  0
   48.5206   34.4179   43.9217 H   0  0  0  0  0  0  0  0  0  0  0  0
   49.2065   34.5148   42.2664 H   0  0  0  0  0  0  0  0  0  0  0  0
   47.4004   33.9730   40.2168 H   0  0  0  0  0  0  0  0  0  0  0  0
   42.6911   35.8711   44.3030 H   0  0  0  0  0  0  0  0  0  0  0  0
   45.1561   35.5097   46.8646 H   0  0  0  0  0  0  0  0  0  0  0  0
   43.4668   35.9473   46.4941 H   0  0  0  0  0  0  0  0  0  0  0  0
   46.3541   29.9251   44.9060 H   0  0  0  0  0  0  0  0  0  0  0  0
   47.4795   27.5541   45.4564 H   0  0  0  0  0  0  0  0  0  0  0  0
   46.5694   27.8873   43.9440 H   0  0  0  0  0  0  0  0  0  0  0  0
   48.3647   27.9488   43.9440 H   0  0  0  0  0  0  0  0  0  0  0  0
   48.5597   28.9455   46.5289 H   0  0  0  0  0  0  0  0  0  0  0  0
   48.6648   30.7272   46.1443 H   0  0  0  0  0  0  0  0  0  0  0  0
   46.7902   29.1266   47.6081 H   0  0  0  0  0  0  0  0  0  0  0  0
   48.0063   30.1976   49.1413 H   0  0  0  0  0  0  0  0  0  0  0  0
   47.9732   31.7534   48.3051 H   0  0  0  0  0  0  0  0  0  0  0  0
   45.3444   30.3323   49.1288 H   0  0  0  0  0  0  0  0  0  0  0  0
   46.2204   31.3698   50.2971 H   0  0  0  0  0  0  0  0  0  0  0  0
   44.3409   32.3876   48.7016 H   0  0  0  0  0  0  0  0  0  0  0  0
   45.8139   33.3194   49.0669 H   0  0  0  0  0  0  0  0  0  0  0  0
   45.0673   32.9382   46.5288 H   0  0  0  0  0  0  0  0  0  0  0  0
   46.7908   32.8343   46.9488 H   0  0  0  0  0  0  0  0  0  0  0  0
   44.8785   30.4373   47.0443 H   0  0  0  0  0  0  0  0  0  0  0  0
   45.8786   30.8716   45.5960 H   0  0  0  0  0  0  0  0  0  0  0  0
  1  6  2  0
  2  1  1  0
  2  3  2  0
  3  7  1  0
  3  4  1  0
  4  5  2  0
  5 19  1  0
  6  5  1  0
  8  7  1  0
  8 18  1  0
  9  8  1  0
 10  9  2  0
 10 11  1  0
 11 12  1  0
 11 18  2  0
 12 14  1  0
 13 12  2  0
 14 15  1  0
 15 16  1  0
 17 15  2  0
 18 17  1  0
 19 21  1  0
 20 19  1  0
 21 22  1  0
 22 23  1  0
 23 24  1  0
 25 24  1  0
 26 25  1  0
 27 26  1  0
 27 22  1  0
  1 28  1  0
  2 29  1  0
  7 30  1  0
  7 31  1  0
  9 32  1  0
 14 33  1  0
 16 34  1  0
 16 35  1  0
 19 36  1  1
 20 37  1  0
 20 38  1  0
 20 39  1  0
 21 40  1  0
 21 41  1  0
 22 42  1  0
 23 43  1  0
 23 44  1  0
 24 45  1  0
 24 46  1  0
 25 47  1  0
 25 48  1  0
 26 49  1  0
 26 50  1  0
 27 51  1  0
 27 52  1  0
M  ISO  8  28  14  29  14  30   8  31   8  32  14  33   9  36   8  37   8
M  ISO  8  38   8  39   8  40   8  41   8  42  13  43  13  44  13  45  13
M  ISO  7  46  13  47  13  48  13  49  13  50  13  51  13  52  13
M  END
>  <minimizedAffinity>  (1) 
-6.29514647

>  <minimizedRMSD>  (1) 
1.74596226

$$$$
