
     RDKit          3D

 50 53  0  0  1  0  0  0  0  0999 V2000
   49.0230   30.2280   42.8040 C   0  0  0  0  0  0  0  0  0  0  0  0
   49.0450   31.5810   42.3750 C   0  0  0  0  0  0  0  0  0  0  0  0
   48.3260   32.5220   43.1350 C   0  0  0  0  0  0  0  0  0  0  0  0
   47.6500   32.0890   44.2380 N   0  0  0  0  0  0  0  0  0  0  0  0
   47.6610   30.7680   44.6100 C   0  0  0  0  0  0  0  0  0  0  0  0
   48.3400   29.8650   43.8980 N   0  0  0  0  0  0  0  0  0  0  0  0
   48.2780   33.9680   42.7600 C   0  0  0  0  0  0  0  0  0  0  0  0
   46.9500   34.2900   42.2570 N   0  0  0  0  0  0  0  0  0  0  0  0
   46.5420   34.1840   40.9710 C   0  0  0  0  0  0  0  0  0  0  0  0
   45.2410   34.5740   40.8930 N   0  0  0  0  0  0  0  0  0  0  0  0
   44.8300   34.9220   42.1120 C   0  0  0  0  0  0  0  0  0  0  0  0
   43.5960   35.3930   42.5930 C   0  0  0  0  0  0  0  0  0  0  0  0
   42.6630   35.5350   41.7800 O   0  0  0  0  0  0  0  0  0  0  0  0
   43.5130   35.6540   43.8930 N   0  0  0  0  0  0  0  0  0  0  0  0
   44.5520   35.4860   44.7420 C   0  0  0  0  0  0  0  0  0  0  0  0
   44.3720   35.7920   46.1140 N   0  0  0  0  0  0  0  0  0  0  0  0
   45.7510   35.0350   44.3090 N   0  0  0  0  0  0  0  0  0  0  0  0
   45.8950   34.7510   42.9970 C   0  0  0  0  0  0  0  0  0  0  0  0
   46.9110   30.3250   45.8410 C   0  0  1  0  0  0  0  0  0  0  0  0
   46.5130   28.8640   45.7590 C   0  0  0  0  0  0  0  0  0  0  0  0
   47.7820   30.4650   47.0640 C   0  0  0  0  0  0  0  0  0  0  0  0
   47.2350   31.2820   48.0870 N   0  0  0  0  0  0  0  0  0  0  0  0
   46.8440   32.5950   47.7050 C   0  0  0  0  0  0  0  0  0  0  0  0
   45.3780   32.7950   47.5620 C   0  0  0  0  0  0  0  0  0  0  0  0
   44.6060   31.7400   48.1750 N   0  0  0  0  0  0  0  0  0  0  0  0
   45.2570   31.4860   49.4700 C   0  0  0  0  0  0  0  0  0  0  0  0
   46.5050   30.6590   49.1220 C   0  0  0  0  0  0  0  0  0  0  0  0
   49.5739   29.4677   42.2308 H   0  0  0  0  0  0  0  0  0  0  0  0
   49.6055   31.8838   41.4782 H   0  0  0  0  0  0  0  0  0  0  0  0
   48.4955   34.5846   43.6446 H   0  0  0  0  0  0  0  0  0  0  0  0
   49.0271   34.1720   41.9807 H   0  0  0  0  0  0  0  0  0  0  0  0
   47.1598   33.8396   40.1286 H   0  0  0  0  0  0  0  0  0  0  0  0
   42.6189   35.9991   44.2704 H   0  0  0  0  0  0  0  0  0  0  0  0
   45.1521   35.6702   46.7755 H   0  0  0  0  0  0  0  0  0  0  0  0
   43.4611   36.1362   46.4497 H   0  0  0  0  0  0  0  0  0  0  0  0
   46.0156   30.9607   45.9064 H   0  0  0  0  0  0  0  0  0  0  0  0
   46.4020   28.4566   46.7747 H   0  0  0  0  0  0  0  0  0  0  0  0
   45.5576   28.7739   45.2214 H   0  0  0  0  0  0  0  0  0  0  0  0
   47.2907   28.3017   45.2214 H   0  0  0  0  0  0  0  0  0  0  0  0
   47.9527   29.4614   47.4806 H   0  0  0  0  0  0  0  0  0  0  0  0
   48.7083   30.9573   46.7330 H   0  0  0  0  0  0  0  0  0  0  0  0
   47.2117   33.2966   48.4682 H   0  0  0  0  0  0  0  0  0  0  0  0
   47.2775   32.7684   46.7090 H   0  0  0  0  0  0  0  0  0  0  0  0
   45.1059   33.7499   48.0354 H   0  0  0  0  0  0  0  0  0  0  0  0
   45.1471   32.7917   46.4865 H   0  0  0  0  0  0  0  0  0  0  0  0
   43.6307   32.0405   48.3141 H   0  0  0  0  0  0  0  0  0  0  0  0
   45.5408   32.4322   49.9540 H   0  0  0  0  0  0  0  0  0  0  0  0
   44.5936   30.9630   50.1745 H   0  0  0  0  0  0  0  0  0  0  0  0
   46.1952   29.6558   48.7940 H   0  0  0  0  0  0  0  0  0  0  0  0
   47.1439   30.5843   50.0143 H   0  0  0  0  0  0  0  0  0  0  0  0
  1  6  2  0
  2  1  1  0
  2  3  2  0
  3  4  1  0
  4  5  2  0
  5 19  1  0
  6  5  1  0
  7  3  1  0
  8  7  1  0
  8 18  1  0
  9  8  1  0
 10  9  2  0
 10 11  1  0
 11 12  1  0
 11 18  2  0
 12 14  1  0
 13 12  2  0
 14 15  1  0
 15 16  1  0
 17 15  2  0
 18 17  1  0
 19 21  1  0
 20 19  1  0
 21 22  1  0
 22 27  1  0
 23 22  1  0
 24 23  1  0
 24 25  1  0
 25 26  1  0
 27 26  1  0
  1 28  1  0
  2 29  1  0
  7 30  1  0
  7 31  1  0
  9 32  1  0
 14 33  1  0
 16 34  1  0
 16 35  1  0
 19 36  1  1
 20 37  1  0
 20 38  1  0
 20 39  1  0
 21 40  1  0
 21 41  1  0
 23 42  1  0
 23 43  1  0
 24 44  1  0
 24 45  1  0
 25 46  1  0
 26 47  1  0
 26 48  1  0
 27 49  1  0
 27 50  1  0
M  ISO  8  28  14  29  14  30   8  31   8  32  14  33   9  36   8  37   8
M  ISO  8  38   8  39   8  40   8  41   8  42  13  43  13  44  13  45  13
M  ISO  5  46   5  47  13  48  13  49  13  50  13
M  END
>  <minimizedAffinity>  (1) 
-6.48180342

>  <minimizedRMSD>  (1) 
1.15674782

$$$$
