
     RDKit          3D

 47 51  0  0  1  0  0  0  0  0999 V2000
   48.4650   29.3060   43.5550 C   0  0  0  0  0  0  0  0  0  0  0  0
   48.8190   30.6290   43.2360 C   0  0  0  0  0  0  0  0  0  0  0  0
   47.9190   31.6540   43.5710 C   0  0  0  0  0  0  0  0  0  0  0  0
   46.7580   31.3070   44.1820 N   0  0  0  0  0  0  0  0  0  0  0  0
   46.4470   30.0150   44.4780 C   0  0  0  0  0  0  0  0  0  0  0  0
   47.3010   29.0370   44.1600 N   0  0  0  0  0  0  0  0  0  0  0  0
   48.2190   33.0790   43.2720 C   0  0  0  0  0  0  0  0  0  0  0  0
   47.0700   33.6980   42.6280 N   0  0  0  0  0  0  0  0  0  0  0  0
   46.8370   33.7180   41.2870 C   0  0  0  0  0  0  0  0  0  0  0  0
   45.6740   34.3800   41.0770 N   0  0  0  0  0  0  0  0  0  0  0  0
   45.1770   34.7740   42.2720 C   0  0  0  0  0  0  0  0  0  0  0  0
   44.0220   35.4780   42.5980 C   0  0  0  0  0  0  0  0  0  0  0  0
   43.2550   35.8470   41.6810 O   0  0  0  0  0  0  0  0  0  0  0  0
   43.8200   35.7080   43.8910 N   0  0  0  0  0  0  0  0  0  0  0  0
   44.6760   35.2930   44.8680 C   0  0  0  0  0  0  0  0  0  0  0  0
   44.3800   35.5830   46.2130 N   0  0  0  0  0  0  0  0  0  0  0  0
   45.7930   34.6110   44.5460 N   0  0  0  0  0  0  0  0  0  0  0  0
   46.0570   34.3450   43.2540 C   0  0  0  0  0  0  0  0  0  0  0  0
   45.1610   29.7150   45.1660 C   0  0  1  0  0  0  0  0  0  0  0  0
   44.4180   28.5770   44.5120 C   0  0  0  0  0  0  0  0  0  0  0  0
   45.3310   29.4350   46.6200 C   0  0  0  0  0  0  0  0  0  0  0  0
   45.9110   30.4170   47.4520 N   0  0  0  0  0  0  0  0  0  0  0  0
   45.5530   31.5690   48.0440 C   0  0  0  0  0  0  0  0  0  0  0  0
   46.5550   32.1010   48.7900 N   0  0  0  0  0  0  0  0  0  0  0  0
   47.6360   31.2740   48.7020 C   0  0  0  0  0  0  0  0  0  0  0  0
   48.8640   31.4250   49.3010 C   0  0  0  0  0  0  0  0  0  0  0  0
   49.7440   30.4370   49.0320 N   0  0  0  0  0  0  0  0  0  0  0  0
   49.3930   29.4110   48.2340 C   0  0  0  0  0  0  0  0  0  0  0  0
   48.1730   29.3220   47.6790 N   0  0  0  0  0  0  0  0  0  0  0  0
   47.2030   30.2590   47.8780 C   0  0  0  0  0  0  0  0  0  0  0  0
   49.1513   28.4835   43.3050 H   0  0  0  0  0  0  0  0  0  0  0  0
   49.7736   30.8548   42.7383 H   0  0  0  0  0  0  0  0  0  0  0  0
   48.4428   33.6099   44.2091 H   0  0  0  0  0  0  0  0  0  0  0  0
   49.0874   33.1348   42.5991 H   0  0  0  0  0  0  0  0  0  0  0  0
   47.4792   33.2751   40.5115 H   0  0  0  0  0  0  0  0  0  0  0  0
   42.9743   36.2258   44.1693 H   0  0  0  0  0  0  0  0  0  0  0  0
   45.0195   35.2744   46.9592 H   0  0  0  0  0  0  0  0  0  0  0  0
   43.5239   36.1038   46.4512 H   0  0  0  0  0  0  0  0  0  0  0  0
   44.5609   30.6316   45.0672 H   0  0  0  0  0  0  0  0  0  0  0  0
   43.9915   27.9238   45.2875 H   0  0  0  0  0  0  0  0  0  0  0  0
   43.6082   28.9796   43.8857 H   0  0  0  0  0  0  0  0  0  0  0  0
   45.1123   27.9976   43.8857 H   0  0  0  0  0  0  0  0  0  0  0  0
   44.3303   29.2228   47.0245 H   0  0  0  0  0  0  0  0  0  0  0  0
   46.0611   28.6125   46.6420 H   0  0  0  0  0  0  0  0  0  0  0  0
   44.5598   32.0293   47.9363 H   0  0  0  0  0  0  0  0  0  0  0  0
   49.1097   32.2809   49.9468 H   0  0  0  0  0  0  0  0  0  0  0  0
   50.1294   28.6197   48.0298 H   0  0  0  0  0  0  0  0  0  0  0  0
  1  6  2  0
  2  1  1  0
  2  3  2  0
  3  4  1  0
  4  5  2  0
  5 19  1  0
  6  5  1  0
  7  3  1  0
  8 18  1  0
  8  7  1  0
  9  8  1  0
 10  9  2  0
 10 11  1  0
 11 12  1  0
 11 18  2  0
 12 14  1  0
 13 12  2  0
 14 15  1  0
 15 16  1  0
 17 15  2  0
 18 17  1  0
 19 21  1  0
 20 19  1  0
 21 22  1  0
 22 30  1  0
 22 23  1  0
 23 24  2  0
 25 24  1  0
 25 26  2  0
 27 26  1  0
 28 27  2  0
 29 30  2  0
 29 28  1  0
 30 25  1  0
  1 31  1  0
  2 32  1  0
  7 33  1  0
  7 34  1  0
  9 35  1  0
 14 36  1  0
 16 37  1  0
 16 38  1  0
 19 39  1  1
 20 40  1  0
 20 41  1  0
 20 42  1  0
 21 43  1  0
 21 44  1  0
 23 45  1  0
 26 46  1  0
 28 47  1  0
M  ISO  8  31  14  32  14  33   8  34   8  35  14  36   9  39   8  40   8
M  ISO  7  41   8  42   8  43   8  44   8  45  14  46  14  47  14
M  END
>  <minimizedAffinity>  (1) 
-6.44017601

>  <minimizedRMSD>  (1) 
2.06896305

$$$$
