
     RDKit          3D

 48 51  0  0  1  0  0  0  0  0999 V2000
   49.1600   30.1620   42.3920 C   0  0  0  0  0  0  0  0  0  0  0  0
   49.1660   31.5530   42.1350 C   0  0  0  0  0  0  0  0  0  0  0  0
   48.4600   32.3860   43.0130 C   0  0  0  0  0  0  0  0  0  0  0  0
   47.8100   31.8200   44.0620 N   0  0  0  0  0  0  0  0  0  0  0  0
   47.8270   30.4630   44.2790 C   0  0  0  0  0  0  0  0  0  0  0  0
   48.5040   29.6600   43.4360 N   0  0  0  0  0  0  0  0  0  0  0  0
   48.3980   33.8700   42.8190 C   0  0  0  0  0  0  0  0  0  0  0  0
   47.0840   34.2310   42.2890 N   0  0  0  0  0  0  0  0  0  0  0  0
   46.7100   34.1860   40.9790 C   0  0  0  0  0  0  0  0  0  0  0  0
   45.4270   34.5910   40.8860 N   0  0  0  0  0  0  0  0  0  0  0  0
   44.9750   34.8940   42.1120 C   0  0  0  0  0  0  0  0  0  0  0  0
   43.7350   35.3540   42.5670 C   0  0  0  0  0  0  0  0  0  0  0  0
   42.8250   35.5450   41.7400 O   0  0  0  0  0  0  0  0  0  0  0  0
   43.6230   35.5580   43.8730 N   0  0  0  0  0  0  0  0  0  0  0  0
   44.6370   35.3410   44.7570 C   0  0  0  0  0  0  0  0  0  0  0  0
   44.4280   35.5870   46.1340 N   0  0  0  0  0  0  0  0  0  0  0  0
   45.8500   34.8940   44.3310 N   0  0  0  0  0  0  0  0  0  0  0  0
   46.0250   34.6690   43.0210 C   0  0  0  0  0  0  0  0  0  0  0  0
   47.0790   29.8790   45.4580 C   0  0  1  0  0  0  0  0  0  0  0  0
   47.0810   28.3790   45.3920 C   0  0  0  0  0  0  0  0  0  0  0  0
   47.7240   30.3350   46.7400 C   0  0  0  0  0  0  0  0  0  0  0  0
   47.0140   31.1750   47.5850 N   0  0  0  0  0  0  0  0  0  0  0  0
   46.9270   31.0360   48.9680 C   0  0  0  0  0  0  0  0  0  0  0  0
   45.4670   31.4030   49.3440 C   0  0  0  0  0  0  0  0  0  0  0  0
   45.2500   32.4870   48.2770 C   0  0  0  0  0  0  0  0  0  0  0  0
   45.8410   31.8010   47.0690 C   0  0  0  0  0  0  0  0  0  0  0  0
   49.7058   29.4846   41.7188 H   0  0  0  0  0  0  0  0  0  0  0  0
   49.7082   31.9679   41.2725 H   0  0  0  0  0  0  0  0  0  0  0  0
   48.5568   34.3741   43.7837 H   0  0  0  0  0  0  0  0  0  0  0  0
   49.1804   34.1834   42.1122 H   0  0  0  0  0  0  0  0  0  0  0  0
   47.3473   33.8722   40.1391 H   0  0  0  0  0  0  0  0  0  0  0  0
   42.7220   35.8984   44.2381 H   0  0  0  0  0  0  0  0  0  0  0  0
   45.1902   35.4251   46.8076 H   0  0  0  0  0  0  0  0  0  0  0  0
   43.5136   35.9281   46.4632 H   0  0  0  0  0  0  0  0  0  0  0  0
   46.0367   30.2291   45.4260 H   0  0  0  0  0  0  0  0  0  0  0  0
   47.0815   27.9671   46.4120 H   0  0  0  0  0  0  0  0  0  0  0  0
   46.1833   28.0343   44.8578 H   0  0  0  0  0  0  0  0  0  0  0  0
   47.9796   28.0367   44.8578 H   0  0  0  0  0  0  0  0  0  0  0  0
   47.9715   29.4313   47.3162 H   0  0  0  0  0  0  0  0  0  0  0  0
   48.5724   30.9503   46.4058 H   0  0  0  0  0  0  0  0  0  0  0  0
   47.1485   29.9996   49.2626 H   0  0  0  0  0  0  0  0  0  0  0  0
   47.6509   31.6837   49.4843 H   0  0  0  0  0  0  0  0  0  0  0  0
   44.7779   30.5540   49.2242 H   0  0  0  0  0  0  0  0  0  0  0  0
   45.2941   31.7052   50.3874 H   0  0  0  0  0  0  0  0  0  0  0  0
   44.1823   32.7108   48.1358 H   0  0  0  0  0  0  0  0  0  0  0  0
   45.6970   33.4633   48.5159 H   0  0  0  0  0  0  0  0  0  0  0  0
   46.0962   32.5315   46.2872 H   0  0  0  0  0  0  0  0  0  0  0  0
   45.1472   31.0899   46.5968 H   0  0  0  0  0  0  0  0  0  0  0  0
  1  6  2  0
  2  1  1  0
  2  3  2  0
  3  4  1  0
  4  5  2  0
  5 19  1  0
  6  5  1  0
  7  3  1  0
  8  7  1  0
  8 18  1  0
  9  8  1  0
 10  9  2  0
 10 11  1  0
 11 12  1  0
 11 18  2  0
 12 14  1  0
 13 12  2  0
 14 15  1  0
 15 16  1  0
 17 15  2  0
 18 17  1  0
 19 21  1  0
 20 19  1  0
 21 22  1  0
 22 23  1  0
 23 24  1  0
 25 24  1  0
 26 22  1  0
 26 25  1  0
  1 27  1  0
  2 28  1  0
  7 29  1  0
  7 30  1  0
  9 31  1  0
 14 32  1  0
 16 33  1  0
 16 34  1  0
 19 35  1  1
 20 36  1  0
 20 37  1  0
 20 38  1  0
 21 39  1  0
 21 40  1  0
 23 41  1  0
 23 42  1  0
 24 43  1  0
 24 44  1  0
 25 45  1  0
 25 46  1  0
 26 47  1  0
 26 48  1  0
M  ISO  8  27  14  28  14  29   8  30   8  31  14  32   9  35   8  36   8
M  ISO  8  37   8  38   8  39   8  40   8  41  13  42  13  43  13  44  13
M  ISO  4  45  13  46  13  47  13  48  13
M  END
>  <minimizedAffinity>  (1) 
-6.19708633

>  <minimizedRMSD>  (1) 
1.12022531

$$$$
