
     RDKit          3D

 42 45  0  0  1  0  0  0  0  0999 V2000
   49.4030   30.3230   42.1700 C   0  0  0  0  0  0  0  0  0  0  0  0
   49.3420   31.7230   42.0210 C   0  0  0  0  0  0  0  0  0  0  0  0
   48.5710   32.4590   42.9500 C   0  0  0  0  0  0  0  0  0  0  0  0
   47.9310   31.7750   43.9340 N   0  0  0  0  0  0  0  0  0  0  0  0
   48.0170   30.4070   44.0410 C   0  0  0  0  0  0  0  0  0  0  0  0
   48.7410   29.7080   43.1710 N   0  0  0  0  0  0  0  0  0  0  0  0
   48.4390   33.9440   42.8710 C   0  0  0  0  0  0  0  0  0  0  0  0
   47.1220   34.2790   42.3310 N   0  0  0  0  0  0  0  0  0  0  0  0
   46.7620   34.2210   41.0180 C   0  0  0  0  0  0  0  0  0  0  0  0
   45.4700   34.6040   40.9140 N   0  0  0  0  0  0  0  0  0  0  0  0
   45.0060   34.9040   42.1400 C   0  0  0  0  0  0  0  0  0  0  0  0
   43.7540   35.3430   42.5680 C   0  0  0  0  0  0  0  0  0  0  0  0
   42.8510   35.5130   41.7310 O   0  0  0  0  0  0  0  0  0  0  0  0
   43.6280   35.5520   43.8780 N   0  0  0  0  0  0  0  0  0  0  0  0
   44.6360   35.3560   44.7700 C   0  0  0  0  0  0  0  0  0  0  0  0
   44.4130   35.6020   46.1420 N   0  0  0  0  0  0  0  0  0  0  0  0
   45.8570   34.9300   44.3660 N   0  0  0  0  0  0  0  0  0  0  0  0
   46.0480   34.7020   43.0540 C   0  0  0  0  0  0  0  0  0  0  0  0
   47.3030   29.7010   45.1380 C   0  0  1  0  0  0  0  0  0  0  0  0
   47.2410   28.2060   44.9300 C   0  0  0  0  0  0  0  0  0  0  0  0
   47.9870   29.9270   46.4710 C   0  0  0  0  0  0  0  0  0  0  0  0
   46.9970   30.5250   47.4310 C   0  0  0  0  0  0  0  0  0  0  0  0
   47.1610   31.8560   47.6920 C   0  0  0  0  0  0  0  0  0  0  0  0
   45.8340   32.2350   48.8560 S   0  0  0  0  0  0  0  0  0  0  0  0
   45.2310   30.4260   48.8030 C   0  0  0  0  0  0  0  0  0  0  0  0
   46.0000   29.9520   48.0530 N   0  0  0  0  0  0  0  0  0  0  0  0
   49.9968   29.7257   41.4624 H   0  0  0  0  0  0  0  0  0  0  0  0
   49.8790   32.2289   41.2051 H   0  0  0  0  0  0  0  0  0  0  0  0
   48.5461   34.3774   43.8764 H   0  0  0  0  0  0  0  0  0  0  0  0
   49.2229   34.3515   42.2157 H   0  0  0  0  0  0  0  0  0  0  0  0
   47.4119   33.9148   40.1850 H   0  0  0  0  0  0  0  0  0  0  0  0
   42.7187   35.8795   44.2342 H   0  0  0  0  0  0  0  0  0  0  0  0
   45.1728   35.4552   46.8217 H   0  0  0  0  0  0  0  0  0  0  0  0
   43.4904   35.9283   46.4634 H   0  0  0  0  0  0  0  0  0  0  0  0
   46.2855   30.1189   45.1330 H   0  0  0  0  0  0  0  0  0  0  0  0
   47.2200   27.7005   45.9067 H   0  0  0  0  0  0  0  0  0  0  0  0
   46.3315   27.9517   44.3659 H   0  0  0  0  0  0  0  0  0  0  0  0
   48.1263   27.8773   44.3659 H   0  0  0  0  0  0  0  0  0  0  0  0
   48.3514   28.9674   46.8664 H   0  0  0  0  0  0  0  0  0  0  0  0
   48.8396   30.6098   46.3414 H   0  0  0  0  0  0  0  0  0  0  0  0
   47.9236   32.5377   47.2874 H   0  0  0  0  0  0  0  0  0  0  0  0
   44.3899   29.9543   49.3322 H   0  0  0  0  0  0  0  0  0  0  0  0
  1  6  2  0
  2  1  1  0
  2  3  2  0
  3  4  1  0
  4  5  2  0
  5 19  1  0
  6  5  1  0
  7  3  1  0
  8  7  1  0
  8 18  1  0
  9  8  1  0
 10  9  2  0
 10 11  1  0
 11 12  1  0
 11 18  2  0
 12 14  1  0
 13 12  2  0
 14 15  1  0
 15 16  1  0
 17 15  2  0
 18 17  1  0
 19 21  1  0
 20 19  1  0
 21 22  1  0
 22 23  2  0
 22 26  1  0
 23 24  1  0
 25 24  1  0
 26 25  2  0
  1 27  1  0
  2 28  1  0
  7 29  1  0
  7 30  1  0
  9 31  1  0
 14 32  1  0
 16 33  1  0
 16 34  1  0
 19 35  1  1
 20 36  1  0
 20 37  1  0
 20 38  1  0
 21 39  1  0
 21 40  1  0
 23 41  1  0
 25 42  1  0
M  ISO  8  27  14  28  14  29   8  30   8  31  14  32   9  35   8  36   8
M  ISO  6  37   8  38   8  39   8  40   8  41  14  42  14
M  END
>  <minimizedAffinity>  (1) 
-5.88223124

>  <minimizedRMSD>  (1) 
1.56503808

$$$$
