
     RDKit          3D

 27 29  0  0  0  0  0  0  0  0999 V2000
   46.6300   32.7980   46.0380 O   0  0  0  0  0  0  0  0  0  0  0  0
   46.1340   32.1120   47.1030 C   0  0  0  0  0  0  0  0  0  0  0  0
   45.8850   32.4810   48.3980 C   0  0  0  0  0  0  0  0  0  0  0  0
   45.3750   31.6460   49.3520 C   0  0  0  0  0  0  0  0  0  0  0  0
   45.0800   30.3460   49.0270 C   0  0  0  0  0  0  0  0  0  0  0  0
   45.3110   29.9160   47.7280 C   0  0  0  0  0  0  0  0  0  0  0  0
   44.9870   28.6030   47.4940 C   0  0  0  0  0  0  0  0  0  0  0  0
   45.1900   28.1030   46.2250 C   0  0  0  0  0  0  0  0  0  0  0  0
   45.7030   28.9220   45.2460 C   0  0  0  0  0  0  0  0  0  0  0  0
   46.0150   30.2270   45.5130 C   0  0  0  0  0  0  0  0  0  0  0  0
   45.8320   30.7850   46.7710 C   0  0  0  0  0  0  0  0  0  0  0  0
   45.9980   34.9000   43.2580 C   0  0  0  0  0  0  0  0  0  0  0  0
   44.9800   35.7540   43.6890 C   0  0  0  0  0  0  0  0  0  0  0  0
   44.5180   35.5750   44.9840 C   0  0  0  0  0  0  0  0  0  0  0  0
   45.0630   34.6050   45.7450 N   0  0  0  0  0  0  0  0  0  0  0  0
   46.0380   33.7990   45.3110 C   0  0  0  0  0  0  0  0  0  0  0  0
   46.4870   33.9650   44.0700 N   0  0  0  0  0  0  0  0  0  0  0  0
   46.1103   33.5175   48.6894 H   0  0  0  0  0  0  0  0  0  0  0  0
   45.2020   32.0138   50.3742 H   0  0  0  0  0  0  0  0  0  0  0  0
   44.6687   29.6586   49.7809 H   0  0  0  0  0  0  0  0  0  0  0  0
   44.5779   27.9689   48.2943 H   0  0  0  0  0  0  0  0  0  0  0  0
   44.9432   27.0556   45.9969 H   0  0  0  0  0  0  0  0  0  0  0  0
   45.8646   28.5220   44.2342 H   0  0  0  0  0  0  0  0  0  0  0  0
   46.4234   30.8534   44.7062 H   0  0  0  0  0  0  0  0  0  0  0  0
   46.3992   35.0009   42.2387 H   0  0  0  0  0  0  0  0  0  0  0  0
   44.5644   36.5320   43.0318 H   0  0  0  0  0  0  0  0  0  0  0  0
   43.7183   36.2153   45.3846 H   0  0  0  0  0  0  0  0  0  0  0  0
  1  2  1  0
  2  3  2  0
  3  4  1  0
  5  4  2  0
  6  5  1  0
  7  6  2  0
  8  7  1  0
  9 10  1  0
  9  8  2  0
 10 11  2  0
 11  2  1  0
 11  6  1  0
 12 13  2  0
 12 17  1  0
 13 14  1  0
 14 15  2  0
 16 15  1  0
 16  1  1  0
 17 16  2  0
  3 18  1  0
  4 19  1  0
  5 20  1  0
  7 21  1  0
  8 22  1  0
  9 23  1  0
 10 24  1  0
 12 25  1  0
 13 26  1  0
 14 27  1  0
M  ISO  8  18  14  19  14  20  14  21  14  22  14  23  14  24  14  25  14
M  ISO  2  26  14  27  14
M  END
>  <minimizedAffinity>  (1) 
-5.39156342

>  <minimizedRMSD>  (1) 
2.11406398

$$$$
