
     RDKit          3D

 19 20  0  0  0  0  0  0  0  0999 V2000
   44.7340   35.9910   44.3040 C   0  0  0  0  0  0  0  0  0  0  0  0
   45.5620   35.4680   43.3020 C   0  0  0  0  0  0  0  0  0  0  0  0
   46.2120   34.2730   43.5700 C   0  0  0  0  0  0  0  0  0  0  0  0
   46.0130   33.6820   44.7770 N   0  0  0  0  0  0  0  0  0  0  0  0
   45.2100   34.2160   45.7140 C   0  0  0  0  0  0  0  0  0  0  0  0
   44.5720   35.3720   45.4740 N   0  0  0  0  0  0  0  0  0  0  0  0
   44.9900   33.6370   46.9490 O   0  0  0  0  0  0  0  0  0  0  0  0
   45.8100   32.7670   47.6080 C   0  0  0  0  0  0  0  0  0  0  0  0
   45.0990   31.8440   48.3700 C   0  0  0  0  0  0  0  0  0  0  0  0
   45.7460   30.8650   49.1220 C   0  0  0  0  0  0  0  0  0  0  0  0
   47.1100   30.8400   49.0880 N   0  0  0  0  0  0  0  0  0  0  0  0
   47.7830   31.7410   48.3440 C   0  0  0  0  0  0  0  0  0  0  0  0
   47.1590   32.6910   47.6140 N   0  0  0  0  0  0  0  0  0  0  0  0
   44.2036   36.9371   44.1207 H   0  0  0  0  0  0  0  0  0  0  0  0
   45.6914   35.9854   42.3400 H   0  0  0  0  0  0  0  0  0  0  0  0
   46.8744   33.8134   42.8216 H   0  0  0  0  0  0  0  0  0  0  0  0
   43.9999   31.8884   48.3788 H   0  0  0  0  0  0  0  0  0  0  0  0
   45.1776   30.1386   49.7214 H   0  0  0  0  0  0  0  0  0  0  0  0
   48.8822   31.7009   48.3310 H   0  0  0  0  0  0  0  0  0  0  0  0
  1  6  2  0
  2  3  2  0
  2  1  1  0
  3  4  1  0
  4  5  2  0
  5  7  1  0
  6  5  1  0
  7  8  1  0
  8 13  1  0
  8  9  2  0
  9 10  1  0
 11 10  2  0
 12 11  1  0
 13 12  2  0
  1 14  1  0
  2 15  1  0
  3 16  1  0
  9 17  1  0
 10 18  1  0
 12 19  1  0
M  ISO  6  14  14  15  14  16  14  17  14  18  14  19  14
M  END
>  <minimizedAffinity>  (1) 
-4.49952698

>  <minimizedRMSD>  (1) 
0.694440365

$$$$
