
     RDKit          3D

 18 19  0  0  0  0  0  0  0  0999 V2000
   45.1090   35.0440   44.7620 C   0  0  0  0  0  0  0  0  0  0  0  0
   45.9310   34.3610   43.8440 C   0  0  0  0  0  0  0  0  0  0  0  0
   46.5020   33.1730   44.2780 C   0  0  0  0  0  0  0  0  0  0  0  0
   46.2470   32.7400   45.5330 N   0  0  0  0  0  0  0  0  0  0  0  0
   45.4500   33.4270   46.3870 C   0  0  0  0  0  0  0  0  0  0  0  0
   44.8890   34.5670   45.9970 N   0  0  0  0  0  0  0  0  0  0  0  0
   45.1870   32.9820   47.6760 O   0  0  0  0  0  0  0  0  0  0  0  0
   47.3040   30.7340   49.4400 N   0  0  0  0  0  0  0  0  0  0  0  0
   46.0570   31.1110   49.1160 N   0  0  0  0  0  0  0  0  0  0  0  0
   46.1490   32.1980   48.2990 C   0  0  0  0  0  0  0  0  0  0  0  0
   47.4880   32.5070   48.1070 C   0  0  0  0  0  0  0  0  0  0  0  0
   48.1900   31.5560   48.8480 C   0  0  0  0  0  0  0  0  0  0  0  0
   44.6366   35.9902   44.4595 H   0  0  0  0  0  0  0  0  0  0  0  0
   46.1116   34.7509   42.8314 H   0  0  0  0  0  0  0  0  0  0  0  0
   47.1536   32.5912   43.6095 H   0  0  0  0  0  0  0  0  0  0  0  0
   47.5454   29.9384   50.0479 H   0  0  0  0  0  0  0  0  0  0  0  0
   47.9057   33.3249   47.5015 H   0  0  0  0  0  0  0  0  0  0  0  0
   49.2846   31.4892   48.9340 H   0  0  0  0  0  0  0  0  0  0  0  0
  1  6  2  0
  2  3  2  0
  2  1  1  0
  3  4  1  0
  4  5  2  0
  5  7  1  0
  6  5  1  0
  7 10  1  0
  9  8  1  0
 10  9  2  0
 11 10  1  0
 11 12  2  0
 12  8  1  0
  1 13  1  0
  2 14  1  0
  3 15  1  0
  8 16  1  0
 11 17  1  0
 12 18  1  0
M  ISO  6  13  14  14  14  15  14  16   9  17  14  18  14
M  END
>  <minimizedAffinity>  (1) 
-4.12339592

>  <minimizedRMSD>  (1) 
1.52040052

$$$$
