
     RDKit          3D

 21 22  0  0  0  0  0  0  0  0999 V2000
   44.7080   35.9380   44.4390 C   0  0  0  0  0  0  0  0  0  0  0  0
   45.4380   35.2680   43.4340 C   0  0  0  0  0  0  0  0  0  0  0  0
   45.9710   34.0270   43.7830 C   0  0  0  0  0  0  0  0  0  0  0  0
   45.7560   33.5630   45.0350 N   0  0  0  0  0  0  0  0  0  0  0  0
   45.0580   34.2240   45.9680 C   0  0  0  0  0  0  0  0  0  0  0  0
   44.5360   35.4080   45.6680 N   0  0  0  0  0  0  0  0  0  0  0  0
   44.8370   33.7510   47.2450 O   0  0  0  0  0  0  0  0  0  0  0  0
   45.6100   32.6940   47.7500 C   0  0  0  0  0  0  0  0  0  0  0  0
   46.9850   32.7470   47.6790 C   0  0  0  0  0  0  0  0  0  0  0  0
   47.7430   31.7060   48.1770 C   0  0  0  0  0  0  0  0  0  0  0  0
   47.0970   30.6130   48.7460 C   0  0  0  0  0  0  0  0  0  0  0  0
   45.6990   30.5870   48.8040 C   0  0  0  0  0  0  0  0  0  0  0  0
   44.9300   31.6240   48.3090 C   0  0  0  0  0  0  0  0  0  0  0  0
   44.2667   36.9202   44.2141 H   0  0  0  0  0  0  0  0  0  0  0  0
   45.5787   35.6999   42.4322 H   0  0  0  0  0  0  0  0  0  0  0  0
   46.5524   33.4397   43.0570 H   0  0  0  0  0  0  0  0  0  0  0  0
   47.4790   33.6189   47.2254 H   0  0  0  0  0  0  0  0  0  0  0  0
   48.8412   31.7403   48.1247 H   0  0  0  0  0  0  0  0  0  0  0  0
   47.6824   29.7732   49.1484 H   0  0  0  0  0  0  0  0  0  0  0  0
   45.1983   29.7179   49.2557 H   0  0  0  0  0  0  0  0  0  0  0  0
   43.8313   31.6007   48.3567 H   0  0  0  0  0  0  0  0  0  0  0  0
  1  6  2  0
  2  3  2  0
  2  1  1  0
  3  4  1  0
  4  5  2  0
  5  7  1  0
  6  5  1  0
  7  8  1  0
  8 13  1  0
  9  8  2  0
  9 10  1  0
 10 11  2  0
 11 12  1  0
 13 12  2  0
  1 14  1  0
  2 15  1  0
  3 16  1  0
  9 17  1  0
 10 18  1  0
 11 19  1  0
 12 20  1  0
 13 21  1  0
M  ISO  8  14  14  15  14  16  14  17  14  18  14  19  14  20  14  21  14
M  END
>  <minimizedAffinity>  (1) 
-4.47052717

>  <minimizedRMSD>  (1) 
0.650803626

$$$$
