
     RDKit          3D

 21 22  0  0  0  0  0  0  0  0999 V2000
   44.8230   33.7450   47.2310 O   0  0  0  0  0  0  0  0  0  0  0  0
   44.7150   35.9420   44.4460 C   0  0  0  0  0  0  0  0  0  0  0  0
   45.4610   35.2690   43.4530 C   0  0  0  0  0  0  0  0  0  0  0  0
   46.0010   34.0270   43.7900 C   0  0  0  0  0  0  0  0  0  0  0  0
   45.7750   33.5530   45.0350 N   0  0  0  0  0  0  0  0  0  0  0  0
   45.0630   34.2150   45.9550 C   0  0  0  0  0  0  0  0  0  0  0  0
   44.5320   35.4100   45.6620 N   0  0  0  0  0  0  0  0  0  0  0  0
   45.6440   32.7450   47.7200 C   0  0  0  0  0  0  0  0  0  0  0  0
   47.0310   32.7230   47.6670 C   0  0  0  0  0  0  0  0  0  0  0  0
   47.7500   31.6670   48.1900 C   0  0  0  0  0  0  0  0  0  0  0  0
   47.1290   30.5960   48.7850 C   0  0  0  0  0  0  0  0  0  0  0  0
   45.7480   30.6530   48.8190 C   0  0  0  0  0  0  0  0  0  0  0  0
   44.9700   31.6770   48.3150 C   0  0  0  0  0  0  0  0  0  0  0  0
   44.2750   36.9236   44.2160 H   0  0  0  0  0  0  0  0  0  0  0  0
   45.6102   35.7061   42.4547 H   0  0  0  0  0  0  0  0  0  0  0  0
   46.5931   33.4510   43.0636 H   0  0  0  0  0  0  0  0  0  0  0  0
   47.5669   33.5623   47.1997 H   0  0  0  0  0  0  0  0  0  0  0  0
   48.8482   31.6836   48.1287 H   0  0  0  0  0  0  0  0  0  0  0  0
   47.6923   29.7502   49.2060 H   0  0  0  0  0  0  0  0  0  0  0  0
   45.2226   29.8085   49.2888 H   0  0  0  0  0  0  0  0  0  0  0  0
   43.8722   31.6522   48.3794 H   0  0  0  0  0  0  0  0  0  0  0  0
  1  8  1  0
  2  7  2  0
  3  4  2  0
  3  2  1  0
  4  5  1  0
  5  6  2  0
  6  1  1  0
  7  6  1  0
  8 13  1  0
  9  8  2  0
  9 10  1  0
 10 11  2  0
 11 12  1  0
 13 12  2  0
  2 14  1  0
  3 15  1  0
  4 16  1  0
  9 17  1  0
 10 18  1  0
 11 19  1  0
 12 20  1  0
 13 21  1  0
M  ISO  8  14  14  15  14  16  14  17  14  18  14  19  14  20  14  21  14
M  END
>  <minimizedAffinity>  (1) 
-4.4456439

>  <minimizedRMSD>  (1) 
0.73467344

$$$$
