
     RDKit          3D

 24 25  0  0  0  0  0  0  0  0999 V2000
   44.5180   35.7340   42.5290 C   0  0  0  0  0  0  0  0  0  0  0  0
   45.6890   35.0590   42.1660 C   0  0  0  0  0  0  0  0  0  0  0  0
   45.6130   34.1740   41.1020 C   0  0  0  0  0  0  0  0  0  0  0  0
   44.4090   34.0080   40.4740 N   0  0  0  0  0  0  0  0  0  0  0  0
   43.3140   34.6780   40.8580 C   0  0  0  0  0  0  0  0  0  0  0  0
   43.3560   35.5370   41.8760 N   0  0  0  0  0  0  0  0  0  0  0  0
   42.0860   34.5220   40.2300 O   0  0  0  0  0  0  0  0  0  0  0  0
   41.3670   35.5640   39.6350 C   0  0  0  0  0  0  0  0  0  0  0  0
   40.0520   35.6640   40.3880 C   0  0  0  0  0  0  0  0  0  0  0  0
   39.1750   34.6640   39.6920 C   0  0  0  0  0  0  0  0  0  0  0  0
   39.6230   34.6230   38.2550 C   0  0  0  0  0  0  0  0  0  0  0  0
   40.9810   35.2820   38.1940 C   0  0  0  0  0  0  0  0  0  0  0  0
   44.5470   36.4436   43.3690 H   0  0  0  0  0  0  0  0  0  0  0  0
   46.6337   35.2245   42.7046 H   0  0  0  0  0  0  0  0  0  0  0  0
   46.5016   33.6172   40.7697 H   0  0  0  0  0  0  0  0  0  0  0  0
   41.9981   36.4644   39.6641 H   0  0  0  0  0  0  0  0  0  0  0  0
   40.1844   35.4010   41.4478 H   0  0  0  0  0  0  0  0  0  0  0  0
   39.6312   36.6803   40.3838 H   0  0  0  0  0  0  0  0  0  0  0  0
   39.2903   33.6722   40.1536 H   0  0  0  0  0  0  0  0  0  0  0  0
   38.1146   34.9463   39.7683 H   0  0  0  0  0  0  0  0  0  0  0  0
   39.6938   33.5804   37.9115 H   0  0  0  0  0  0  0  0  0  0  0  0
   38.9048   35.1455   37.6060 H   0  0  0  0  0  0  0  0  0  0  0  0
   41.7135   34.6080   37.7258 H   0  0  0  0  0  0  0  0  0  0  0  0
   40.9584   36.2027   37.5925 H   0  0  0  0  0  0  0  0  0  0  0  0
  2  1  2  0
  3  2  1  0
  4  5  1  0
  4  3  2  0
  5  6  2  0
  6  1  1  0
  7  5  1  0
  8  7  1  0
  8  9  1  0
 10  9  1  0
 11 10  1  0
 12 11  1  0
 12  8  1  0
  1 13  1  0
  2 14  1  0
  3 15  1  0
  8 16  1  0
  9 17  1  0
  9 18  1  0
 10 19  1  0
 10 20  1  0
 11 21  1  0
 11 22  1  0
 12 23  1  0
 12 24  1  0
M  ISO  8  13  14  14  14  15  14  16  13  17  13  18  13  19  13  20  13
M  ISO  4  21  13  22  13  23  13  24  13
M  END
>  <minimizedAffinity>  (1) 
-4.10981226

>  <minimizedRMSD>  (1) 
7.44290257

$$$$
