
     RDKit          3D

 16 17  0  0  0  0  0  0  0  0999 V2000
   44.6990   36.0540   44.3650 C   0  0  0  0  0  0  0  0  0  0  0  0
   45.5080   35.5740   43.3070 C   0  0  0  0  0  0  0  0  0  0  0  0
   46.1670   34.3600   43.5250 C   0  0  0  0  0  0  0  0  0  0  0  0
   45.9930   33.7330   44.7110 N   0  0  0  0  0  0  0  0  0  0  0  0
   45.2170   34.2240   45.6890 C   0  0  0  0  0  0  0  0  0  0  0  0
   44.5640   35.3890   45.5190 N   0  0  0  0  0  0  0  0  0  0  0  0
   45.0350   33.5880   46.9040 O   0  0  0  0  0  0  0  0  0  0  0  0
   46.0020   32.7420   47.4440 C   0  0  0  0  0  0  0  0  0  0  0  0
   47.0430   32.1980   46.7880 N   0  0  0  0  0  0  0  0  0  0  0  0
   47.7430   31.4600   47.6020 O   0  0  0  0  0  0  0  0  0  0  0  0
   47.1980   31.4870   48.8120 C   0  0  0  0  0  0  0  0  0  0  0  0
   46.1100   32.2860   48.7250 N   0  0  0  0  0  0  0  0  0  0  0  0
   44.1631   37.0057   44.2344 H   0  0  0  0  0  0  0  0  0  0  0  0
   45.6128   36.1274   42.3622 H   0  0  0  0  0  0  0  0  0  0  0  0
   46.8131   33.9242   42.7487 H   0  0  0  0  0  0  0  0  0  0  0  0
   47.5598   30.9629   49.7089 H   0  0  0  0  0  0  0  0  0  0  0  0
  1  6  2  0
  2  3  2  0
  2  1  1  0
  3  4  1  0
  4  5  2  0
  5  7  1  0
  6  5  1  0
  7  8  1  0
  8 12  1  0
  9  8  2  0
  9 10  1  0
 10 11  1  0
 12 11  2  0
  1 13  1  0
  2 14  1  0
  3 15  1  0
 11 16  1  0
M  ISO  4  13  14  14  14  15  14  16  14
M  END
>  <minimizedAffinity>  (1) 
-3.94297194

>  <minimizedRMSD>  (1) 
0.565253139

$$$$
