
     RDKit          3D

 18 19  0  0  0  0  0  0  0  0999 V2000
   44.7830   35.8100   44.3760 C   0  0  0  0  0  0  0  0  0  0  0  0
   45.5910   35.0800   43.4710 C   0  0  0  0  0  0  0  0  0  0  0  0
   46.1310   33.8820   43.9500 C   0  0  0  0  0  0  0  0  0  0  0  0
   45.8500   33.5100   45.2170 N   0  0  0  0  0  0  0  0  0  0  0  0
   45.0780   34.2310   46.0420 C   0  0  0  0  0  0  0  0  0  0  0  0
   44.5480   35.3750   45.6210 N   0  0  0  0  0  0  0  0  0  0  0  0
   44.7820   33.8610   47.3420 O   0  0  0  0  0  0  0  0  0  0  0  0
   45.4480   32.6590   47.7770 C   0  0  0  0  0  0  0  0  0  0  0  0
   44.8670   31.5410   48.1610 C   0  0  0  0  0  0  0  0  0  0  0  0
   45.6450   30.4790   48.5480 C   0  0  0  0  0  0  0  0  0  0  0  0
   47.0190   30.6490   48.5120 C   0  0  0  0  0  0  0  0  0  0  0  0
   47.1570   32.4360   47.8840 S   0  0  0  0  0  0  0  0  0  0  0  0
   44.3361   36.7601   44.0479 H   0  0  0  0  0  0  0  0  0  0  0  0
   45.7834   35.4354   42.4479 H   0  0  0  0  0  0  0  0  0  0  0  0
   46.7701   33.2571   43.3089 H   0  0  0  0  0  0  0  0  0  0  0  0
   43.7701   31.4596   48.1713 H   0  0  0  0  0  0  0  0  0  0  0  0
   45.1950   29.5297   48.8741 H   0  0  0  0  0  0  0  0  0  0  0  0
   47.8167   29.9392   48.7763 H   0  0  0  0  0  0  0  0  0  0  0  0
  1  6  2  0
  2  3  2  0
  2  1  1  0
  3  4  1  0
  4  5  2  0
  5  7  1  0
  6  5  1  0
  7  8  1  0
  8 12  1  0
  8  9  2  0
  9 10  1  0
 11 10  2  0
 12 11  1  0
  1 13  1  0
  2 14  1  0
  3 15  1  0
  9 16  1  0
 10 17  1  0
 11 18  1  0
M  ISO  6  13  14  14  14  15  14  16  14  17  14  18  14
M  END
>  <minimizedAffinity>  (1) 
-4.07331991

>  <minimizedRMSD>  (1) 
0.865099072

$$$$
