
     RDKit          3D

 14 14  0  0  0  0  0  0  0  0999 V2000
   44.4420   35.8290   44.4820 C   0  0  0  0  0  0  0  0  0  0  0  0
   44.9880   35.8660   43.1800 C   0  0  0  0  0  0  0  0  0  0  0  0
   46.0350   34.9930   42.9210 C   0  0  0  0  0  0  0  0  0  0  0  0
   46.4710   34.1650   43.9110 N   0  0  0  0  0  0  0  0  0  0  0  0
   45.9180   34.1620   45.1490 C   0  0  0  0  0  0  0  0  0  0  0  0
   44.9090   34.9950   45.4160 N   0  0  0  0  0  0  0  0  0  0  0  0
   46.3410   33.3320   46.1710 O   0  0  0  0  0  0  0  0  0  0  0  0
   45.4990   32.7470   47.1110 C   0  0  0  0  0  0  0  0  0  0  0  0
   45.4850   31.5020   47.3970 O   0  0  0  0  0  0  0  0  0  0  0  0
   44.5990   33.5590   47.8000 O   0  0  0  0  0  0  0  0  0  0  0  0
   43.6109   36.5041   44.7338 H   0  0  0  0  0  0  0  0  0  0  0  0
   44.6030   36.5516   42.4108 H   0  0  0  0  0  0  0  0  0  0  0  0
   46.5074   34.9698   41.9279 H   0  0  0  0  0  0  0  0  0  0  0  0
   43.9906   33.1633   48.4733 H   0  0  0  0  0  0  0  0  0  0  0  0
  1  6  2  0
  2  1  1  0
  3  2  2  0
  3  4  1  0
  4  5  2  0
  5  6  1  0
  5  7  1  0
  7  8  1  0
  8  9  2  0
  8 10  1  0
  1 11  1  0
  2 12  1  0
  3 13  1  0
 10 14  1  0
M  ISO  4  11  14  12  14  13  14  14   3
M  END
>  <minimizedAffinity>  (1) 
-3.92370391

>  <minimizedRMSD>  (1) 
1.13242459

$$$$
