
     RDKit          3D

 28 30  0  0  0  0  0  0  0  0999 V2000
   45.3380   31.8770   48.7290 C   0  0  0  0  0  0  0  0  0  0  0  0
   45.1170   32.7410   47.6650 C   0  0  0  0  0  0  0  0  0  0  0  0
   46.1440   32.9110   46.7370 C   0  0  0  0  0  0  0  0  0  0  0  0
   47.2680   32.1930   46.9900 N   0  0  0  0  0  0  0  0  0  0  0  0
   47.4780   31.3720   47.9990 C   0  0  0  0  0  0  0  0  0  0  0  0
   46.4970   31.2070   48.8880 N   0  0  0  0  0  0  0  0  0  0  0  0
   45.8270   33.8240   45.6710 C   0  0  0  0  0  0  0  0  0  0  0  0
   44.8770   34.7660   45.7970 N   0  0  0  0  0  0  0  0  0  0  0  0
   44.5300   35.6460   44.8520 C   0  0  0  0  0  0  0  0  0  0  0  0
   45.1260   35.6670   43.6480 N   0  0  0  0  0  0  0  0  0  0  0  0
   46.0920   34.7660   43.4190 C   0  0  0  0  0  0  0  0  0  0  0  0
   46.7270   34.7550   42.1960 C   0  0  0  0  0  0  0  0  0  0  0  0
   47.7250   33.8460   41.9160 C   0  0  0  0  0  0  0  0  0  0  0  0
   48.0670   32.9360   42.9240 C   0  0  0  0  0  0  0  0  0  0  0  0
   47.4020   32.9970   44.1140 C   0  0  0  0  0  0  0  0  0  0  0  0
   46.4080   33.8840   44.4270 C   0  0  0  0  0  0  0  0  0  0  0  0
   48.6440   30.6790   48.1820 O   0  0  0  0  0  0  0  0  0  0  0  0
   49.6160   30.9540   49.1600 C   0  0  0  0  0  0  0  0  0  0  0  0
   49.7180   32.3070   49.3990 F   0  0  0  0  0  0  0  0  0  0  0  0
   50.8190   30.3780   48.8450 F   0  0  0  0  0  0  0  0  0  0  0  0
   49.1750   30.4010   50.3640 F   0  0  0  0  0  0  0  0  0  0  0  0
   44.5376   31.7338   49.4699 H   0  0  0  0  0  0  0  0  0  0  0  0
   44.1614   33.2750   47.5573 H   0  0  0  0  0  0  0  0  0  0  0  0
   43.7336   36.3738   45.0665 H   0  0  0  0  0  0  0  0  0  0  0  0
   46.4319   35.4856   41.4284 H   0  0  0  0  0  0  0  0  0  0  0  0
   48.2323   33.8359   40.9400 H   0  0  0  0  0  0  0  0  0  0  0  0
   48.8558   32.1871   42.7598 H   0  0  0  0  0  0  0  0  0  0  0  0
   47.6897   32.2707   44.8884 H   0  0  0  0  0  0  0  0  0  0  0  0
  1  6  2  0
  2  1  1  0
  3  4  1  0
  3  2  2  0
  4  5  2  0
  5 17  1  0
  5  6  1  0
  7  8  2  0
  7  3  1  0
  9  8  1  0
 10  9  2  0
 11 10  1  0
 11 16  2  0
 12 11  1  0
 13 12  2  0
 13 14  1  0
 14 15  2  0
 15 16  1  0
 16  7  1  0
 17 18  1  0
 18 19  1  0
 18 21  1  0
 20 18  1  0
  1 22  1  0
  2 23  1  0
  9 24  1  0
 12 25  1  0
 13 26  1  0
 14 27  1  0
 15 28  1  0
M  ISO  7  22  14  23  14  24  14  25  14  26  14  27  14  28  14
M  END
>  <minimizedAffinity>  (1) 
-6.16475582

>  <minimizedRMSD>  (1) 
4.53655815

$$$$
