
     RDKit          3D

 27 29  0  0  0  0  0  0  0  0999 V2000
   46.2930   32.3810   45.5860 C   0  0  0  0  0  0  0  0  0  0  0  0
   47.2670   31.5590   45.0370 C   0  0  0  0  0  0  0  0  0  0  0  0
   47.6940   30.6740   45.9640 N   0  0  0  0  0  0  0  0  0  0  0  0
   46.9840   30.9470   47.0900 C   0  0  0  0  0  0  0  0  0  0  0  0
   46.1310   31.9870   46.8520 N   0  0  0  0  0  0  0  0  0  0  0  0
   44.7910   35.6700   44.9470 C   0  0  0  0  0  0  0  0  0  0  0  0
   44.2340   35.5140   43.6670 C   0  0  0  0  0  0  0  0  0  0  0  0
   44.3870   34.2840   43.0510 C   0  0  0  0  0  0  0  0  0  0  0  0
   45.0530   33.2800   43.6810 N   0  0  0  0  0  0  0  0  0  0  0  0
   45.5820   33.4590   44.9220 C   0  0  0  0  0  0  0  0  0  0  0  0
   45.4420   34.6530   45.5330 N   0  0  0  0  0  0  0  0  0  0  0  0
   43.8220   34.0300   41.6810 C   0  0  0  0  0  0  0  0  0  0  0  0
   42.4340   34.3870   41.3590 C   0  0  0  0  0  0  0  0  0  0  0  0
   43.6070   35.2170   40.7800 C   0  0  0  0  0  0  0  0  0  0  0  0
   45.2020   32.5780   47.8040 C   0  0  0  0  0  0  0  0  0  0  0  0
   44.2060   31.6650   48.1850 F   0  0  0  0  0  0  0  0  0  0  0  0
   44.6110   33.7320   47.2950 F   0  0  0  0  0  0  0  0  0  0  0  0
   45.8610   32.8970   48.9860 F   0  0  0  0  0  0  0  0  0  0  0  0
   47.6359   31.6190   44.0025 H   0  0  0  0  0  0  0  0  0  0  0  0
   47.0813   30.4125   48.0465 H   0  0  0  0  0  0  0  0  0  0  0  0
   44.6931   36.6315   45.4723 H   0  0  0  0  0  0  0  0  0  0  0  0
   43.6971   36.3374   43.1733 H   0  0  0  0  0  0  0  0  0  0  0  0
   44.3819   33.0860   41.6074 H   0  0  0  0  0  0  0  0  0  0  0  0
   41.8383   33.7402   40.6981 H   0  0  0  0  0  0  0  0  0  0  0  0
   41.5323   34.6164   41.9458 H   0  0  0  0  0  0  0  0  0  0  0  0
   43.8571   35.1569   39.7105 H   0  0  0  0  0  0  0  0  0  0  0  0
   43.9042   36.2761   40.7801 H   0  0  0  0  0  0  0  0  0  0  0  0
  1  5  1  0
  2  1  2  0
  2  3  1  0
  3  4  2  0
  5  4  1  0
  5 15  1  0
  6 11  2  0
  7  6  1  0
  8  7  2  0
  8  9  1  0
  9 10  2  0
 10 11  1  0
 10  1  1  0
 12  8  1  0
 13 12  1  0
 14 13  1  0
 14 12  1  0
 15 16  1  0
 15 18  1  0
 17 15  1  0
  2 19  1  0
  4 20  1  0
  6 21  1  0
  7 22  1  0
 12 23  1  0
 13 24  1  0
 13 25  1  0
 14 26  1  0
 14 27  1  0
M  ISO  8  19  14  20  14  21  14  22  14  23  13  24  13  25  13  26  13
M  ISO  1  27  13
M  END
>  <minimizedAffinity>  (1) 
-4.78401232

>  <minimizedRMSD>  (1) 
0.186261252

$$$$
