
     RDKit          3D

 28 30  0  0  0  0  0  0  0  0999 V2000
   46.2860   33.6340   42.3170 N   0  0  0  0  0  0  0  0  0  0  0  0
   45.5870   33.0990   41.2940 C   0  0  0  0  0  0  0  0  0  0  0  0
   46.4090   32.6050   40.3470 N   0  0  0  0  0  0  0  0  0  0  0  0
   47.6860   32.8150   40.7440 C   0  0  0  0  0  0  0  0  0  0  0  0
   48.9120   32.5250   40.1840 C   0  0  0  0  0  0  0  0  0  0  0  0
   48.9460   31.9430   39.0700 O   0  0  0  0  0  0  0  0  0  0  0  0
   50.0190   32.8950   40.8870 N   0  0  0  0  0  0  0  0  0  0  0  0
   49.9290   33.5160   42.0770 C   0  0  0  0  0  0  0  0  0  0  0  0
   51.1640   33.8440   42.7020 N   0  0  0  0  0  0  0  0  0  0  0  0
   48.7070   33.7890   42.6040 N   0  0  0  0  0  0  0  0  0  0  0  0
   47.5710   33.4520   41.9630 C   0  0  0  0  0  0  0  0  0  0  0  0
   44.6360   36.0730   44.4830 C   0  0  0  0  0  0  0  0  0  0  0  0
   45.1880   35.5100   43.3410 C   0  0  0  0  0  0  0  0  0  0  0  0
   45.7170   34.2330   43.4650 C   0  0  0  0  0  0  0  0  0  0  0  0
   45.6640   33.6200   44.6820 N   0  0  0  0  0  0  0  0  0  0  0  0
   45.1210   34.2010   45.7690 C   0  0  0  0  0  0  0  0  0  0  0  0
   44.6000   35.4400   45.6730 N   0  0  0  0  0  0  0  0  0  0  0  0
   45.0610   33.5940   47.0020 O   0  0  0  0  0  0  0  0  0  0  0  0
   45.9240   32.5980   47.4630 C   0  0  0  0  0  0  0  0  0  0  0  0
   47.2560   32.9180   47.2140 F   0  0  0  0  0  0  0  0  0  0  0  0
   45.5890   31.3750   46.9280 F   0  0  0  0  0  0  0  0  0  0  0  0
   45.8180   32.5280   48.8580 F   0  0  0  0  0  0  0  0  0  0  0  0
   44.4887   33.0699   41.2401 H   0  0  0  0  0  0  0  0  0  0  0  0
   50.9506   32.6937   40.4965 H   0  0  0  0  0  0  0  0  0  0  0  0
   51.1685   34.3206   43.6151 H   0  0  0  0  0  0  0  0  0  0  0  0
   52.0537   33.6049   42.2415 H   0  0  0  0  0  0  0  0  0  0  0  0
   44.2074   37.0837   44.4141 H   0  0  0  0  0  0  0  0  0  0  0  0
   45.2054   36.0503   42.3830 H   0  0  0  0  0  0  0  0  0  0  0  0
  1 14  1  0
  2  1  1  0
  3  4  1  0
  3  2  2  0
  4 11  2  0
  5  4  1  0
  5  7  1  0
  6  5  2  0
  7  8  1  0
  8 10  2  0
  8  9  1  0
 11  1  1  0
 11 10  1  0
 12 17  2  0
 13 14  2  0
 13 12  1  0
 14 15  1  0
 15 16  2  0
 16 18  1  0
 17 16  1  0
 18 19  1  0
 19 22  1  0
 20 19  1  0
 21 19  1  0
  2 23  1  0
  7 24  1  0
  9 25  1  0
  9 26  1  0
 12 27  1  0
 13 28  1  0
M  ISO  4  23  14  24   9  27  14  28  14
M  END
>  <minimizedAffinity>  (1) 
-6.13099194

>  <minimizedRMSD>  (1) 
0.903043985

$$$$
