
     RDKit          3D

 27 29  0  0  0  0  0  0  0  0999 V2000
   44.6600   36.1450   44.0890 C   0  0  0  0  0  0  0  0  0  0  0  0
   45.5640   35.7790   43.1020 C   0  0  0  0  0  0  0  0  0  0  0  0
   46.3490   34.6530   43.3380 C   0  0  0  0  0  0  0  0  0  0  0  0
   46.1680   33.9980   44.5230 N   0  0  0  0  0  0  0  0  0  0  0  0
   45.2860   34.3720   45.4600 C   0  0  0  0  0  0  0  0  0  0  0  0
   44.5320   35.4550   45.2320 N   0  0  0  0  0  0  0  0  0  0  0  0
   47.3380   34.0870   42.4850 N   0  0  0  0  0  0  0  0  0  0  0  0
   48.6010   33.8650   42.9390 C   0  0  0  0  0  0  0  0  0  0  0  0
   49.3740   33.3230   41.9630 N   0  0  0  0  0  0  0  0  0  0  0  0
   48.6080   33.1980   40.8820 C   0  0  0  0  0  0  0  0  0  0  0  0
   48.7240   32.7450   39.5840 C   0  0  0  0  0  0  0  0  0  0  0  0
   47.6880   32.7700   38.7250 N   0  0  0  0  0  0  0  0  0  0  0  0
   46.4770   33.2520   39.1180 C   0  0  0  0  0  0  0  0  0  0  0  0
   46.3030   33.7090   40.3740 N   0  0  0  0  0  0  0  0  0  0  0  0
   47.3500   33.6730   41.2120 C   0  0  0  0  0  0  0  0  0  0  0  0
   50.0110   32.2440   39.2000 N   0  0  0  0  0  0  0  0  0  0  0  0
   45.1060   33.7130   46.6490 O   0  0  0  0  0  0  0  0  0  0  0  0
   45.9030   32.6350   47.0880 C   0  0  0  0  0  0  0  0  0  0  0  0
   47.2370   32.9710   47.1880 F   0  0  0  0  0  0  0  0  0  0  0  0
   45.6890   31.5280   46.3020 F   0  0  0  0  0  0  0  0  0  0  0  0
   45.4920   32.3280   48.3960 F   0  0  0  0  0  0  0  0  0  0  0  0
   44.0273   37.0304   43.9287 H   0  0  0  0  0  0  0  0  0  0  0  0
   45.6570   36.3555   42.1698 H   0  0  0  0  0  0  0  0  0  0  0  0
   48.9485   34.0933   43.9574 H   0  0  0  0  0  0  0  0  0  0  0  0
   45.6372   33.2686   38.4077 H   0  0  0  0  0  0  0  0  0  0  0  0
   50.1621   31.8912   38.2442 H   0  0  0  0  0  0  0  0  0  0  0  0
   50.7847   32.2368   39.8799 H   0  0  0  0  0  0  0  0  0  0  0  0
  1  6  2  0
  2  3  2  0
  2  1  1  0
  3  4  1  0
  4  5  2  0
  5 17  1  0
  6  5  1  0
  7  8  1  0
  7  3  1  0
  9  8  2  0
 10 15  2  0
 10  9  1  0
 11 10  1  0
 12 13  1  0
 12 11  2  0
 13 14  2  0
 14 15  1  0
 15  7  1  0
 16 11  1  0
 17 18  1  0
 18 19  1  0
 18 21  1  0
 20 18  1  0
  1 22  1  0
  2 23  1  0
  8 24  1  0
 13 25  1  0
 16 26  1  0
 16 27  1  0
M  ISO  4  22  14  23  14  24  14  25  14
M  END
>  <minimizedAffinity>  (1) 
-5.64617395

>  <minimizedRMSD>  (1) 
1.60869181

$$$$
