
     RDKit          3D

 24 25  0  0  0  0  0  0  0  0999 V2000
   44.4670   36.0660   44.7380 C   0  0  0  0  0  0  0  0  0  0  0  0
   45.1620   36.0020   43.5320 C   0  0  0  0  0  0  0  0  0  0  0  0
   46.0180   34.9360   43.3700 C   0  0  0  0  0  0  0  0  0  0  0  0
   46.1450   34.0200   44.3610 N   0  0  0  0  0  0  0  0  0  0  0  0
   45.4540   34.1110   45.5240 C   0  0  0  0  0  0  0  0  0  0  0  0
   44.6120   35.1350   45.7140 N   0  0  0  0  0  0  0  0  0  0  0  0
   46.7480   34.8360   42.1490 N   0  0  0  0  0  0  0  0  0  0  0  0
   47.9990   35.2790   41.9170 C   0  0  0  0  0  0  0  0  0  0  0  0
   48.5790   35.1090   40.6740 C   0  0  0  0  0  0  0  0  0  0  0  0
   47.9240   34.4930   39.6280 C   0  0  0  0  0  0  0  0  0  0  0  0
   48.4580   34.3420   38.4970 O   0  0  0  0  0  0  0  0  0  0  0  0
   46.6610   34.0700   39.9300 N   0  0  0  0  0  0  0  0  0  0  0  0
   46.0930   34.2260   41.1170 C   0  0  0  0  0  0  0  0  0  0  0  0
   44.9050   33.7710   41.2300 O   0  0  0  0  0  0  0  0  0  0  0  0
   45.5720   33.1860   46.5440 O   0  0  0  0  0  0  0  0  0  0  0  0
   46.0970   31.8940   46.4060 C   0  0  0  0  0  0  0  0  0  0  0  0
   47.4890   31.8830   46.3540 F   0  0  0  0  0  0  0  0  0  0  0  0
   45.5280   31.2750   45.2990 F   0  0  0  0  0  0  0  0  0  0  0  0
   45.7570   31.1620   47.5430 F   0  0  0  0  0  0  0  0  0  0  0  0
   43.7740   36.9038   44.9051 H   0  0  0  0  0  0  0  0  0  0  0  0
   45.0333   36.7642   42.7494 H   0  0  0  0  0  0  0  0  0  0  0  0
   48.5611   35.7780   42.7201 H   0  0  0  0  0  0  0  0  0  0  0  0
   49.6022   35.4792   40.5127 H   0  0  0  0  0  0  0  0  0  0  0  0
   46.1175   33.6017   39.1909 H   0  0  0  0  0  0  0  0  0  0  0  0
  1  6  2  0
  2  1  1  0
  3  2  2  0
  3  4  1  0
  4  5  2  0
  5  6  1  0
  5 15  1  0
  7  3  1  0
  8  7  1  0
  9  8  2  0
 10 12  1  0
 10  9  1  0
 11 10  2  0
 12 13  1  0
 13 14  2  0
 13  7  1  0
 16 15  1  0
 16 19  1  0
 17 16  1  0
 18 16  1  0
  1 20  1  0
  2 21  1  0
  8 22  1  0
  9 23  1  0
 12 24  1  0
M  ISO  5  20  14  21  14  22  14  23  14  24   9
M  END
>  <minimizedAffinity>  (1) 
-5.69494867

>  <minimizedRMSD>  (1) 
1.51240134

$$$$
