
     RDKit          3D

 27 28  0  0  0  0  0  0  0  0999 V2000
   44.6510   36.0540   44.3780 C   0  0  0  0  0  0  0  0  0  0  0  0
   45.4840   35.6070   43.3510 C   0  0  0  0  0  0  0  0  0  0  0  0
   46.1860   34.4480   43.5820 C   0  0  0  0  0  0  0  0  0  0  0  0
   46.0430   33.7980   44.7760 N   0  0  0  0  0  0  0  0  0  0  0  0
   45.2310   34.2540   45.7450 C   0  0  0  0  0  0  0  0  0  0  0  0
   44.5330   35.3900   45.5410 N   0  0  0  0  0  0  0  0  0  0  0  0
   47.0440   33.9700   42.5520 N   0  0  0  0  0  0  0  0  0  0  0  0
   47.1610   34.4520   41.3020 C   0  0  0  0  0  0  0  0  0  0  0  0
   48.0330   33.8840   40.4170 C   0  0  0  0  0  0  0  0  0  0  0  0
   48.1690   34.4070   39.0370 C   0  0  0  0  0  0  0  0  0  0  0  0
   48.8150   32.7970   40.8000 C   0  0  0  0  0  0  0  0  0  0  0  0
   49.6380   32.2470   39.9940 O   0  0  0  0  0  0  0  0  0  0  0  0
   48.6710   32.3370   42.0660 N   0  0  0  0  0  0  0  0  0  0  0  0
   47.8040   32.9180   42.9140 C   0  0  0  0  0  0  0  0  0  0  0  0
   47.7770   32.3850   44.0560 O   0  0  0  0  0  0  0  0  0  0  0  0
   45.0580   33.6310   46.9570 O   0  0  0  0  0  0  0  0  0  0  0  0
   45.8650   32.5860   47.4470 C   0  0  0  0  0  0  0  0  0  0  0  0
   47.2100   32.8900   47.4000 F   0  0  0  0  0  0  0  0  0  0  0  0
   45.5580   31.4120   46.7710 F   0  0  0  0  0  0  0  0  0  0  0  0
   45.5580   32.4050   48.8030 F   0  0  0  0  0  0  0  0  0  0  0  0
   44.0731   36.9784   44.2312 H   0  0  0  0  0  0  0  0  0  0  0  0
   45.5744   36.1560   42.4021 H   0  0  0  0  0  0  0  0  0  0  0  0
   46.5492   35.3111   40.9894 H   0  0  0  0  0  0  0  0  0  0  0  0
   48.4457   35.4710   39.0737 H   0  0  0  0  0  0  0  0  0  0  0  0
   48.9504   33.8431   38.5065 H   0  0  0  0  0  0  0  0  0  0  0  0
   47.2119   34.2951   38.5065 H   0  0  0  0  0  0  0  0  0  0  0  0
   49.2319   31.5332   42.3826 H   0  0  0  0  0  0  0  0  0  0  0  0
  1  6  2  0
  2  3  2  0
  2  1  1  0
  3  4  1  0
  4  5  2  0
  5 16  1  0
  6  5  1  0
  7 14  1  0
  7  3  1  0
  8  7  1  0
  9 11  1  0
  9  8  2  0
 10  9  1  0
 11 13  1  0
 12 11  2  0
 13 14  1  0
 14 15  2  0
 16 17  1  0
 17 20  1  0
 18 17  1  0
 19 17  1  0
  1 21  1  0
  2 22  1  0
  8 23  1  0
 10 24  1  0
 10 25  1  0
 10 26  1  0
 13 27  1  0
M  ISO  7  21  14  22  14  23  14  24   8  25   8  26   8  27   9
M  END
>  <minimizedAffinity>  (1) 
-5.636343

>  <minimizedRMSD>  (1) 
0.221525356

$$$$
