
     RDKit          3D

 24 25  0  0  0  0  0  0  0  0999 V2000
   44.5790   36.0590   44.4680 C   0  0  0  0  0  0  0  0  0  0  0  0
   45.4520   35.6810   43.4340 C   0  0  0  0  0  0  0  0  0  0  0  0
   46.2160   34.5550   43.6300 C   0  0  0  0  0  0  0  0  0  0  0  0
   46.0720   33.8890   44.8070 N   0  0  0  0  0  0  0  0  0  0  0  0
   45.2370   34.2630   45.7790 C   0  0  0  0  0  0  0  0  0  0  0  0
   44.4810   35.3530   45.6190 N   0  0  0  0  0  0  0  0  0  0  0  0
   47.1590   34.0570   42.6400 C   0  0  0  0  0  0  0  0  0  0  0  0
   48.1160   33.1010   42.9000 C   0  0  0  0  0  0  0  0  0  0  0  0
   49.0110   32.6250   41.9660 C   0  0  0  0  0  0  0  0  0  0  0  0
   48.9640   33.1310   40.6670 C   0  0  0  0  0  0  0  0  0  0  0  0
   48.0140   34.0870   40.3910 C   0  0  0  0  0  0  0  0  0  0  0  0
   47.1310   34.5430   41.3510 C   0  0  0  0  0  0  0  0  0  0  0  0
   45.1040   33.5740   46.9680 O   0  0  0  0  0  0  0  0  0  0  0  0
   45.9430   32.5410   47.4050 C   0  0  0  0  0  0  0  0  0  0  0  0
   47.2750   32.8960   47.3810 F   0  0  0  0  0  0  0  0  0  0  0  0
   45.6920   31.3870   46.6950 F   0  0  0  0  0  0  0  0  0  0  0  0
   45.6560   32.2920   48.7500 F   0  0  0  0  0  0  0  0  0  0  0  0
   43.9560   36.9562   44.3383 H   0  0  0  0  0  0  0  0  0  0  0  0
   45.5215   36.2636   42.5035 H   0  0  0  0  0  0  0  0  0  0  0  0
   48.1695   32.6908   43.9192 H   0  0  0  0  0  0  0  0  0  0  0  0
   49.7505   31.8584   42.2406 H   0  0  0  0  0  0  0  0  0  0  0  0
   49.6607   32.7787   39.8921 H   0  0  0  0  0  0  0  0  0  0  0  0
   47.9555   34.5015   39.3738 H   0  0  0  0  0  0  0  0  0  0  0  0
   46.3903   35.3100   41.0806 H   0  0  0  0  0  0  0  0  0  0  0  0
  1  6  2  0
  2  3  2  0
  2  1  1  0
  3  4  1  0
  4  5  2  0
  5 13  1  0
  6  5  1  0
  7  8  2  0
  7  3  1  0
  9  8  1  0
 10  9  2  0
 11 10  1  0
 11 12  2  0
 12  7  1  0
 13 14  1  0
 14 17  1  0
 15 14  1  0
 16 14  1  0
  1 18  1  0
  2 19  1  0
  8 20  1  0
  9 21  1  0
 10 22  1  0
 11 23  1  0
 12 24  1  0
M  ISO  7  18  14  19  14  20  14  21  14  22  14  23  14  24  14
M  END
>  <minimizedAffinity>  (1) 
-5.18225908

>  <minimizedRMSD>  (1) 
0.368065238

$$$$
