
     RDKit          3D

 23 24  0  0  0  0  0  0  0  0999 V2000
   44.5450   35.9910   44.6770 C   0  0  0  0  0  0  0  0  0  0  0  0
   45.3260   35.6870   43.5490 C   0  0  0  0  0  0  0  0  0  0  0  0
   46.0880   34.5440   43.6350 C   0  0  0  0  0  0  0  0  0  0  0  0
   46.0620   33.7820   44.7560 N   0  0  0  0  0  0  0  0  0  0  0  0
   45.2990   34.1020   45.8270 C   0  0  0  0  0  0  0  0  0  0  0  0
   44.5340   35.2160   45.7850 N   0  0  0  0  0  0  0  0  0  0  0  0
   46.9250   34.1670   42.5010 C   0  0  0  0  0  0  0  0  0  0  0  0
   47.5240   35.0790   41.6780 C   0  0  0  0  0  0  0  0  0  0  0  0
   48.3270   34.7320   40.5900 C   0  0  0  0  0  0  0  0  0  0  0  0
   48.4910   33.3590   40.3780 C   0  0  0  0  0  0  0  0  0  0  0  0
   47.8850   32.4410   41.2110 C   0  0  0  0  0  0  0  0  0  0  0  0
   47.1120   32.8570   42.2580 N   0  0  0  0  0  0  0  0  0  0  0  0
   45.2310   33.3710   46.9870 O   0  0  0  0  0  0  0  0  0  0  0  0
   46.1940   32.4100   47.3600 C   0  0  0  0  0  0  0  0  0  0  0  0
   47.4770   32.9180   47.3560 F   0  0  0  0  0  0  0  0  0  0  0  0
   46.0720   31.2640   46.5880 F   0  0  0  0  0  0  0  0  0  0  0  0
   45.9460   32.0690   48.6970 F   0  0  0  0  0  0  0  0  0  0  0  0
   43.9181   36.8947   44.6579 H   0  0  0  0  0  0  0  0  0  0  0  0
   45.3282   36.3237   42.6520 H   0  0  0  0  0  0  0  0  0  0  0  0
   47.3643   36.1475   41.8847 H   0  0  0  0  0  0  0  0  0  0  0  0
   48.7986   35.4867   39.9435 H   0  0  0  0  0  0  0  0  0  0  0  0
   49.1093   33.0077   39.5388 H   0  0  0  0  0  0  0  0  0  0  0  0
   48.0254   31.3650   41.0306 H   0  0  0  0  0  0  0  0  0  0  0  0
  1  6  2  0
  2  3  2  0
  2  1  1  0
  3  4  1  0
  4  5  2  0
  5 13  1  0
  6  5  1  0
  7  3  1  0
  8  7  2  0
  9  8  1  0
 10  9  2  0
 10 11  1  0
 11 12  2  0
 12  7  1  0
 13 14  1  0
 14 17  1  0
 15 14  1  0
 16 14  1  0
  1 18  1  0
  2 19  1  0
  8 20  1  0
  9 21  1  0
 10 22  1  0
 11 23  1  0
M  ISO  6  18  14  19  14  20  14  21  14  22  14  23  14
M  END
>  <minimizedAffinity>  (1) 
-5.09986305

>  <minimizedRMSD>  (1) 
0.448331118

$$$$
