
     RDKit          3D

 22 23  0  0  0  0  0  0  0  0999 V2000
   44.6300   36.0680   44.3670 C   0  0  0  0  0  0  0  0  0  0  0  0
   45.4830   35.6790   43.3430 C   0  0  0  0  0  0  0  0  0  0  0  0
   46.2240   34.5400   43.5600 C   0  0  0  0  0  0  0  0  0  0  0  0
   46.0980   33.8640   44.7270 N   0  0  0  0  0  0  0  0  0  0  0  0
   45.2560   34.2700   45.7080 C   0  0  0  0  0  0  0  0  0  0  0  0
   44.5150   35.3780   45.5330 N   0  0  0  0  0  0  0  0  0  0  0  0
   47.1320   34.0990   42.5070 C   0  0  0  0  0  0  0  0  0  0  0  0
   48.2140   33.2730   42.8060 C   0  0  0  0  0  0  0  0  0  0  0  0
   48.9980   32.9250   41.7240 C   0  0  0  0  0  0  0  0  0  0  0  0
   48.7640   33.3370   40.4560 N   0  0  0  0  0  0  0  0  0  0  0  0
   47.6930   34.1450   40.2180 C   0  0  0  0  0  0  0  0  0  0  0  0
   46.8950   34.5100   41.2590 N   0  0  0  0  0  0  0  0  0  0  0  0
   45.0980   33.6120   46.9090 O   0  0  0  0  0  0  0  0  0  0  0  0
   45.9350   32.5760   47.3590 C   0  0  0  0  0  0  0  0  0  0  0  0
   47.2760   32.9270   47.3200 F   0  0  0  0  0  0  0  0  0  0  0  0
   45.6620   31.4060   46.6720 F   0  0  0  0  0  0  0  0  0  0  0  0
   45.6480   32.3540   48.7080 F   0  0  0  0  0  0  0  0  0  0  0  0
   44.0209   36.9735   44.2291 H   0  0  0  0  0  0  0  0  0  0  0  0
   45.5623   36.2514   42.4070 H   0  0  0  0  0  0  0  0  0  0  0  0
   48.4274   32.9245   43.8273 H   0  0  0  0  0  0  0  0  0  0  0  0
   49.8657   32.2732   41.9034 H   0  0  0  0  0  0  0  0  0  0  0  0
   47.4761   34.4976   39.1989 H   0  0  0  0  0  0  0  0  0  0  0  0
  1  6  2  0
  2  3  2  0
  2  1  1  0
  3  4  1  0
  4  5  2  0
  5 13  1  0
  6  5  1  0
  7  8  2  0
  7  3  1  0
  9  8  1  0
 10  9  2  0
 11 10  1  0
 11 12  2  0
 12  7  1  0
 13 14  1  0
 14 17  1  0
 15 14  1  0
 16 14  1  0
  1 18  1  0
  2 19  1  0
  8 20  1  0
  9 21  1  0
 11 22  1  0
M  ISO  5  18  14  19  14  20  14  21  14  22  14
M  END
>  <minimizedAffinity>  (1) 
-5.01493406

>  <minimizedRMSD>  (1) 
0.337143123

$$$$
