
     RDKit          3D

 24 25  0  0  0  0  0  0  0  0999 V2000
   44.5850   36.0520   44.4650 C   0  0  0  0  0  0  0  0  0  0  0  0
   45.4440   35.6840   43.4300 C   0  0  0  0  0  0  0  0  0  0  0  0
   46.2050   34.5560   43.6260 C   0  0  0  0  0  0  0  0  0  0  0  0
   46.0910   33.8680   44.7860 N   0  0  0  0  0  0  0  0  0  0  0  0
   45.2460   34.2510   45.7760 C   0  0  0  0  0  0  0  0  0  0  0  0
   44.4830   35.3570   45.6150 N   0  0  0  0  0  0  0  0  0  0  0  0
   47.1480   34.0360   42.6470 C   0  0  0  0  0  0  0  0  0  0  0  0
   47.1770   34.5930   41.3880 C   0  0  0  0  0  0  0  0  0  0  0  0
   48.0440   34.1620   40.3870 C   0  0  0  0  0  0  0  0  0  0  0  0
   48.9280   33.1310   40.6380 C   0  0  0  0  0  0  0  0  0  0  0  0
   48.8880   32.5830   41.9050 C   0  0  0  0  0  0  0  0  0  0  0  0
   48.0320   33.0070   42.8950 C   0  0  0  0  0  0  0  0  0  0  0  0
   45.1010   33.5830   46.9670 O   0  0  0  0  0  0  0  0  0  0  0  0
   45.9300   32.5510   47.4060 C   0  0  0  0  0  0  0  0  0  0  0  0
   47.2610   32.8970   47.3730 F   0  0  0  0  0  0  0  0  0  0  0  0
   45.6810   31.3850   46.6970 F   0  0  0  0  0  0  0  0  0  0  0  0
   45.6380   32.2940   48.7470 F   0  0  0  0  0  0  0  0  0  0  0  0
   43.9627   36.9500   44.3370 H   0  0  0  0  0  0  0  0  0  0  0  0
   45.5096   36.2687   42.5006 H   0  0  0  0  0  0  0  0  0  0  0  0
   46.4833   35.4164   41.1625 H   0  0  0  0  0  0  0  0  0  0  0  0
   48.0248   34.6422   39.3975 H   0  0  0  0  0  0  0  0  0  0  0  0
   49.6262   32.7661   39.8703 H   0  0  0  0  0  0  0  0  0  0  0  0
   49.5805   31.7601   42.1359 H   0  0  0  0  0  0  0  0  0  0  0  0
   48.0527   32.5255   43.8838 H   0  0  0  0  0  0  0  0  0  0  0  0
  1  6  2  0
  2  3  2  0
  2  1  1  0
  3  4  1  0
  4  5  2  0
  5 13  1  0
  6  5  1  0
  7 12  1  0
  7  3  1  0
  8  7  2  0
  9 10  2  0
  9  8  1  0
 10 11  1  0
 11 12  2  0
 13 14  1  0
 14 17  1  0
 15 14  1  0
 16 14  1  0
  1 18  1  0
  2 19  1  0
  8 20  1  0
  9 21  1  0
 10 22  1  0
 11 23  1  0
 12 24  1  0
M  ISO  7  18  14  19  14  20  14  21  14  22  14  23  14  24  14
M  END
>  <minimizedAffinity>  (1) 
-5.18588448

>  <minimizedRMSD>  (1) 
0.602851391

$$$$
