
     RDKit          3D

 21 22  0  0  0  0  0  0  0  0999 V2000
   44.5340   36.1320   44.5080 C   0  0  0  0  0  0  0  0  0  0  0  0
   45.3280   35.8780   43.3960 C   0  0  0  0  0  0  0  0  0  0  0  0
   46.1230   34.7520   43.4390 C   0  0  0  0  0  0  0  0  0  0  0  0
   46.0900   33.9630   44.5470 N   0  0  0  0  0  0  0  0  0  0  0  0
   45.3080   34.2330   45.6160 C   0  0  0  0  0  0  0  0  0  0  0  0
   44.5310   35.3240   45.5850 N   0  0  0  0  0  0  0  0  0  0  0  0
   47.0150   34.3380   42.3620 C   0  0  0  0  0  0  0  0  0  0  0  0
   47.8790   35.2250   41.7410 C   0  0  0  0  0  0  0  0  0  0  0  0
   48.5660   34.5040   40.7800 C   0  0  0  0  0  0  0  0  0  0  0  0
   48.0860   33.2270   40.8670 C   0  0  0  0  0  0  0  0  0  0  0  0
   47.1560   33.1310   41.8160 O   0  0  0  0  0  0  0  0  0  0  0  0
   45.2520   33.4580   46.7470 O   0  0  0  0  0  0  0  0  0  0  0  0
   46.1680   32.4390   47.0580 C   0  0  0  0  0  0  0  0  0  0  0  0
   47.4530   32.9370   47.1830 F   0  0  0  0  0  0  0  0  0  0  0  0
   46.0980   31.3970   46.1630 F   0  0  0  0  0  0  0  0  0  0  0  0
   45.8330   31.9530   48.3290 F   0  0  0  0  0  0  0  0  0  0  0  0
   43.8872   37.0218   44.5082 H   0  0  0  0  0  0  0  0  0  0  0  0
   45.3226   36.5449   42.5212 H   0  0  0  0  0  0  0  0  0  0  0  0
   47.9963   36.2950   41.9677 H   0  0  0  0  0  0  0  0  0  0  0  0
   49.3366   34.8797   40.0908 H   0  0  0  0  0  0  0  0  0  0  0  0
   48.4228   32.3903   40.2374 H   0  0  0  0  0  0  0  0  0  0  0  0
  1  6  2  0
  2  3  2  0
  2  1  1  0
  3  4  1  0
  4  5  2  0
  5 12  1  0
  6  5  1  0
  7  3  1  0
  8  7  2  0
  9 10  2  0
  9  8  1  0
 10 11  1  0
 11  7  1  0
 12 13  1  0
 13 14  1  0
 13 16  1  0
 15 13  1  0
  1 17  1  0
  2 18  1  0
  8 19  1  0
  9 20  1  0
 10 21  1  0
M  ISO  5  17  14  18  14  19  14  20  14  21  14
M  END
>  <minimizedAffinity>  (1) 
-4.81983185

>  <minimizedRMSD>  (1) 
0.615340531

$$$$
