
     RDKit          3D

 20 21  0  0  0  0  0  0  0  0999 V2000
   44.6320   36.1300   44.2530 C   0  0  0  0  0  0  0  0  0  0  0  0
   45.4950   35.7640   43.2070 C   0  0  0  0  0  0  0  0  0  0  0  0
   46.2660   34.6220   43.3910 C   0  0  0  0  0  0  0  0  0  0  0  0
   46.1190   33.9510   44.5760 N   0  0  0  0  0  0  0  0  0  0  0  0
   45.2910   34.3200   45.5520 C   0  0  0  0  0  0  0  0  0  0  0  0
   44.5400   35.4130   45.4000 N   0  0  0  0  0  0  0  0  0  0  0  0
   47.1970   34.1480   42.3720 C   0  0  0  0  0  0  0  0  0  0  0  0
   48.1640   33.1560   42.6510 C   0  0  0  0  0  0  0  0  0  0  0  0
   49.0520   32.9320   41.0690 S   0  0  0  0  0  0  0  0  0  0  0  0
   47.9450   34.2490   40.2650 C   0  0  0  0  0  0  0  0  0  0  0  0
   47.2790   34.5400   41.1240 N   0  0  0  0  0  0  0  0  0  0  0  0
   45.1540   33.6370   46.7310 O   0  0  0  0  0  0  0  0  0  0  0  0
   45.9770   32.5820   47.1550 C   0  0  0  0  0  0  0  0  0  0  0  0
   47.3170   32.9520   47.1400 F   0  0  0  0  0  0  0  0  0  0  0  0
   45.7600   31.4350   46.4270 F   0  0  0  0  0  0  0  0  0  0  0  0
   45.7010   32.3270   48.5010 F   0  0  0  0  0  0  0  0  0  0  0  0
   44.0093   37.0294   44.1376 H   0  0  0  0  0  0  0  0  0  0  0  0
   45.5581   36.3557   42.2818 H   0  0  0  0  0  0  0  0  0  0  0  0
   48.3420   32.6364   43.6041 H   0  0  0  0  0  0  0  0  0  0  0  0
   47.9528   34.6275   39.2322 H   0  0  0  0  0  0  0  0  0  0  0  0
  1  6  2  0
  2  3  2  0
  2  1  1  0
  3  4  1  0
  4  5  2  0
  5 12  1  0
  6  5  1  0
  7  8  2  0
  7  3  1  0
  9  8  1  0
 10  9  1  0
 10 11  2  0
 11  7  1  0
 12 13  1  0
 13 16  1  0
 14 13  1  0
 15 13  1  0
  1 17  1  0
  2 18  1  0
  8 19  1  0
 10 20  1  0
M  ISO  4  17  14  18  14  19  14  20  14
M  END
>  <minimizedAffinity>  (1) 
-4.73839188

>  <minimizedRMSD>  (1) 
0.43852061

$$$$
