
     RDKit          3D

 21 22  0  0  0  0  0  0  0  0999 V2000
   44.6910   36.0480   44.2020 C   0  0  0  0  0  0  0  0  0  0  0  0
   45.5770   35.6320   43.2120 C   0  0  0  0  0  0  0  0  0  0  0  0
   46.3190   34.5070   43.4760 C   0  0  0  0  0  0  0  0  0  0  0  0
   46.1670   33.8580   44.6570 N   0  0  0  0  0  0  0  0  0  0  0  0
   45.2970   34.2850   45.6030 C   0  0  0  0  0  0  0  0  0  0  0  0
   44.5500   35.3920   45.3740 N   0  0  0  0  0  0  0  0  0  0  0  0
   47.2760   34.0250   42.4530 C   0  0  0  0  0  0  0  0  0  0  0  0
   48.7310   34.5420   42.6450 C   0  0  0  0  0  0  0  0  0  0  0  0
   47.8890   34.9260   41.4750 C   0  0  0  0  0  0  0  0  0  0  0  0
   45.1080   33.6610   46.8150 O   0  0  0  0  0  0  0  0  0  0  0  0
   45.9220   32.6140   47.3020 C   0  0  0  0  0  0  0  0  0  0  0  0
   47.2660   32.9480   47.2840 F   0  0  0  0  0  0  0  0  0  0  0  0
   45.6460   31.4470   46.6280 F   0  0  0  0  0  0  0  0  0  0  0  0
   45.6040   32.4360   48.6580 F   0  0  0  0  0  0  0  0  0  0  0  0
   44.0819   36.9462   44.0226 H   0  0  0  0  0  0  0  0  0  0  0  0
   45.6780   36.1788   42.2629 H   0  0  0  0  0  0  0  0  0  0  0  0
   46.7441   33.0684   42.3433 H   0  0  0  0  0  0  0  0  0  0  0  0
   48.9621   35.2769   43.4302 H   0  0  0  0  0  0  0  0  0  0  0  0
   49.7211   34.0865   42.7939 H   0  0  0  0  0  0  0  0  0  0  0  0
   48.1463   34.5442   40.4760 H   0  0  0  0  0  0  0  0  0  0  0  0
   47.5882   35.8923   41.0440 H   0  0  0  0  0  0  0  0  0  0  0  0
  1  6  2  0
  2  3  2  0
  2  1  1  0
  3  4  1  0
  4  5  2  0
  5 10  1  0
  6  5  1  0
  7  8  1  0
  7  3  1  0
  9  7  1  0
  9  8  1  0
 10 11  1  0
 11 14  1  0
 12 11  1  0
 13 11  1  0
  1 15  1  0
  2 16  1  0
  7 17  1  0
  8 18  1  0
  8 19  1  0
  9 20  1  0
  9 21  1  0
M  ISO  7  15  14  16  14  17  13  18  13  19  13  20  13  21  13
M  END
>  <minimizedAffinity>  (1) 
-4.70944929

>  <minimizedRMSD>  (1) 
0.253047198

$$$$
