
     RDKit          3D

 21 22  0  0  0  0  0  0  0  0999 V2000
   46.3330   32.3190   45.6370 C   0  0  0  0  0  0  0  0  0  0  0  0
   47.3230   31.4850   45.1340 C   0  0  0  0  0  0  0  0  0  0  0  0
   47.7400   30.6350   46.1010 N   0  0  0  0  0  0  0  0  0  0  0  0
   47.0170   30.9370   47.1950 C   0  0  0  0  0  0  0  0  0  0  0  0
   46.1570   31.9660   46.9170 N   0  0  0  0  0  0  0  0  0  0  0  0
   44.8770   35.5940   44.8400 C   0  0  0  0  0  0  0  0  0  0  0  0
   44.2870   35.3630   43.5730 C   0  0  0  0  0  0  0  0  0  0  0  0
   44.4070   34.0960   43.0320 C   0  0  0  0  0  0  0  0  0  0  0  0
   45.0710   33.1200   43.7080 N   0  0  0  0  0  0  0  0  0  0  0  0
   45.6240   33.3710   44.9210 C   0  0  0  0  0  0  0  0  0  0  0  0
   45.5280   34.6000   45.4820 N   0  0  0  0  0  0  0  0  0  0  0  0
   43.6850   33.7290   41.4280 S   0  0  0  0  0  0  0  0  0  0  0  0
   45.2050   32.5850   47.8330 C   0  0  0  0  0  0  0  0  0  0  0  0
   44.1860   31.6800   48.1980 F   0  0  0  0  0  0  0  0  0  0  0  0
   44.6220   33.7200   47.2790 F   0  0  0  0  0  0  0  0  0  0  0  0
   45.8240   32.9040   49.0240 F   0  0  0  0  0  0  0  0  0  0  0  0
   47.7099   31.5113   44.1046 H   0  0  0  0  0  0  0  0  0  0  0  0
   47.1039   30.4322   48.1684 H   0  0  0  0  0  0  0  0  0  0  0  0
   44.8045   36.5889   45.3037 H   0  0  0  0  0  0  0  0  0  0  0  0
   43.7527   36.1625   43.0388 H   0  0  0  0  0  0  0  0  0  0  0  0
   42.4737   33.1133   41.6026 H   0  0  0  0  0  0  0  0  0  0  0  0
  1  5  1  0
  2  1  2  0
  2  3  1  0
  3  4  2  0
  5  4  1  0
  5 13  1  0
  6 11  2  0
  7  6  1  0
  8  7  2  0
  8  9  1  0
  9 10  2  0
 10 11  1  0
 10  1  1  0
 12  8  1  0
 13 14  1  0
 13 16  1  0
 15 13  1  0
  2 17  1  0
  4 18  1  0
  6 19  1  0
  7 20  1  0
 12 21  1  0
M  ISO  5  17  14  18  14  19  14  20  14  21  11
M  END
>  <minimizedAffinity>  (1) 
-4.3104229

>  <minimizedRMSD>  (1) 
0.0289711803

$$$$
