
     RDKit          3D

 16 16  0  0  0  0  0  0  0  0999 V2000
   44.6430   36.0560   44.3890 C   0  0  0  0  0  0  0  0  0  0  0  0
   45.4650   35.6250   43.3480 C   0  0  0  0  0  0  0  0  0  0  0  0
   46.1750   34.4650   43.5620 C   0  0  0  0  0  0  0  0  0  0  0  0
   46.0420   33.8140   44.7430 N   0  0  0  0  0  0  0  0  0  0  0  0
   45.2410   34.2510   45.7310 C   0  0  0  0  0  0  0  0  0  0  0  0
   44.5380   35.3750   45.5570 N   0  0  0  0  0  0  0  0  0  0  0  0
   47.0460   33.9570   42.5350 C   0  0  0  0  0  0  0  0  0  0  0  0
   47.4070   34.6770   41.5700 O   0  0  0  0  0  0  0  0  0  0  0  0
   45.0860   33.6080   46.9460 O   0  0  0  0  0  0  0  0  0  0  0  0
   45.9140   32.5540   47.3920 C   0  0  0  0  0  0  0  0  0  0  0  0
   47.2430   32.9130   47.3620 F   0  0  0  0  0  0  0  0  0  0  0  0
   45.6440   31.3910   46.6950 F   0  0  0  0  0  0  0  0  0  0  0  0
   45.6150   32.3550   48.7440 F   0  0  0  0  0  0  0  0  0  0  0  0
   44.0601   36.9796   44.2582 H   0  0  0  0  0  0  0  0  0  0  0  0
   45.5422   36.1837   42.4036 H   0  0  0  0  0  0  0  0  0  0  0  0
   47.4028   32.9182   42.5958 H   0  0  0  0  0  0  0  0  0  0  0  0
  1  6  2  0
  2  3  2  0
  2  1  1  0
  3  4  1  0
  4  5  2  0
  5  9  1  0
  6  5  1  0
  7  3  1  0
  8  7  2  0
  9 10  1  0
 10 13  1  0
 11 10  1  0
 12 10  1  0
  1 14  1  0
  2 15  1  0
  7 16  1  0
M  ISO  3  14  14  15  14  16   6
M  END
>  <minimizedAffinity>  (1) 
-4.10570145

>  <minimizedRMSD>  (1) 
0.105411746

$$$$
