
     RDKit          3D

 17 17  0  0  0  0  0  0  0  0999 V2000
   44.6560   36.0790   44.2210 C   0  0  0  0  0  0  0  0  0  0  0  0
   45.5470   35.6980   43.2260 C   0  0  0  0  0  0  0  0  0  0  0  0
   46.3240   34.5720   43.4590 C   0  0  0  0  0  0  0  0  0  0  0  0
   46.1660   33.9150   44.6420 N   0  0  0  0  0  0  0  0  0  0  0  0
   45.2990   34.3040   45.5830 C   0  0  0  0  0  0  0  0  0  0  0  0
   44.5280   35.3980   45.3850 N   0  0  0  0  0  0  0  0  0  0  0  0
   47.3010   34.1030   42.4390 C   0  0  0  0  0  0  0  0  0  0  0  0
   46.8510   32.9850   41.7670 F   0  0  0  0  0  0  0  0  0  0  0  0
   48.5150   33.9080   43.0540 F   0  0  0  0  0  0  0  0  0  0  0  0
   47.4890   35.0870   41.4640 F   0  0  0  0  0  0  0  0  0  0  0  0
   45.1150   33.6620   46.7920 O   0  0  0  0  0  0  0  0  0  0  0  0
   45.9170   32.5990   47.2520 C   0  0  0  0  0  0  0  0  0  0  0  0
   47.2520   32.9350   47.2710 F   0  0  0  0  0  0  0  0  0  0  0  0
   45.6710   31.4540   46.5310 F   0  0  0  0  0  0  0  0  0  0  0  0
   45.5690   32.3540   48.5820 F   0  0  0  0  0  0  0  0  0  0  0  0
   44.0298   36.9685   44.0574 H   0  0  0  0  0  0  0  0  0  0  0  0
   45.6335   36.2672   42.2887 H   0  0  0  0  0  0  0  0  0  0  0  0
  1  6  2  0
  2  3  2  0
  2  1  1  0
  3  4  1  0
  4  5  2  0
  5 11  1  0
  6  5  1  0
  7  9  1  0
  7  3  1  0
  8  7  1  0
 10  7  1  0
 11 12  1  0
 12 13  1  0
 12 15  1  0
 14 12  1  0
  1 16  1  0
  2 17  1  0
M  ISO  2  16  14  17  14
M  END
>  <minimizedAffinity>  (1) 
-4.59692001

>  <minimizedRMSD>  (1) 
0.586106241

$$$$
