
     RDKit          3D

 19 20  0  0  0  0  0  0  0  0999 V2000
   44.6570   36.1080   44.1470 C   0  0  0  0  0  0  0  0  0  0  0  0
   45.5530   35.7470   43.1440 C   0  0  0  0  0  0  0  0  0  0  0  0
   46.3250   34.6330   43.3830 C   0  0  0  0  0  0  0  0  0  0  0  0
   46.1900   33.9510   44.5500 N   0  0  0  0  0  0  0  0  0  0  0  0
   45.3080   34.3300   45.5050 C   0  0  0  0  0  0  0  0  0  0  0  0
   44.5300   35.4180   45.3090 N   0  0  0  0  0  0  0  0  0  0  0  0
   47.2990   34.1620   42.4030 C   0  0  0  0  0  0  0  0  0  0  0  0
   47.4840   34.5830   41.1370 N   0  0  0  0  0  0  0  0  0  0  0  0
   48.4540   33.9220   40.5650 O   0  0  0  0  0  0  0  0  0  0  0  0
   48.9400   33.0420   41.4370 C   0  0  0  0  0  0  0  0  0  0  0  0
   48.2230   33.1970   42.5670 N   0  0  0  0  0  0  0  0  0  0  0  0
   45.1360   33.6690   46.7020 O   0  0  0  0  0  0  0  0  0  0  0  0
   45.9460   32.6250   47.1570 C   0  0  0  0  0  0  0  0  0  0  0  0
   47.3000   32.9570   47.1550 F   0  0  0  0  0  0  0  0  0  0  0  0
   45.7060   31.4720   46.4270 F   0  0  0  0  0  0  0  0  0  0  0  0
   45.6270   32.3680   48.4880 F   0  0  0  0  0  0  0  0  0  0  0  0
   44.0229   36.9931   43.9904 H   0  0  0  0  0  0  0  0  0  0  0  0
   45.6392   36.3218   42.2101 H   0  0  0  0  0  0  0  0  0  0  0  0
   49.7621   32.3308   41.2689 H   0  0  0  0  0  0  0  0  0  0  0  0
  1  6  2  0
  2  3  2  0
  2  1  1  0
  3  4  1  0
  4  5  2  0
  5 12  1  0
  6  5  1  0
  7 11  1  0
  7  3  1  0
  8  7  2  0
  9  8  1  0
  9 10  1  0
 10 11  2  0
 12 13  1  0
 13 16  1  0
 14 13  1  0
 15 13  1  0
  1 17  1  0
  2 18  1  0
 10 19  1  0
M  ISO  3  17  14  18  14  19  14
M  END
>  <minimizedAffinity>  (1) 
-4.64438248

>  <minimizedRMSD>  (1) 
0.485342354

$$$$
