
     RDKit          3D

 37 39  0  0  1  0  0  0  0  0999 V2000
   47.2260   34.4350   42.3460 N   0  0  0  0  0  0  0  0  0  0  0  0
   46.9000   34.0560   40.9820 C   0  0  0  0  0  0  0  0  0  0  0  0
   48.1000   34.5370   40.1600 C   0  0  0  0  0  0  0  0  0  0  0  0
   48.6740   35.6730   40.6950 O   0  0  0  0  0  0  0  0  0  0  0  0
   49.3050   35.4990   41.8950 C   0  0  0  0  0  0  0  0  0  0  0  0
   48.6430   34.3750   42.6470 C   0  0  2  0  0  0  0  0  0  0  0  0
   44.5240   36.1470   44.2320 C   0  0  0  0  0  0  0  0  0  0  0  0
   45.3970   35.9050   43.1910 C   0  0  0  0  0  0  0  0  0  0  0  0
   46.2520   34.8390   43.3170 C   0  0  0  0  0  0  0  0  0  0  0  0
   46.1780   34.1080   44.4440 N   0  0  0  0  0  0  0  0  0  0  0  0
   45.3310   34.3480   45.4470 C   0  0  0  0  0  0  0  0  0  0  0  0
   44.4960   35.3730   45.3430 N   0  0  0  0  0  0  0  0  0  0  0  0
   45.2510   33.6020   46.6030 O   0  0  0  0  0  0  0  0  0  0  0  0
   46.0170   32.4500   46.8550 C   0  0  0  0  0  0  0  0  0  0  0  0
   47.3640   32.7370   46.9500 F   0  0  0  0  0  0  0  0  0  0  0  0
   45.7750   31.4580   45.9270 F   0  0  0  0  0  0  0  0  0  0  0  0
   45.6650   31.9740   48.1260 F   0  0  0  0  0  0  0  0  0  0  0  0
   49.2560   33.0680   42.5350 C   0  0  0  0  0  0  0  0  0  0  0  0
   50.5860   33.0910   42.0950 C   0  0  0  0  0  0  0  0  0  0  0  0
   51.3070   31.9270   41.9250 C   0  0  0  0  0  0  0  0  0  0  0  0
   50.7500   30.6710   42.1820 C   0  0  0  0  0  0  0  0  0  0  0  0
   49.4450   30.6080   42.6150 C   0  0  0  0  0  0  0  0  0  0  0  0
   48.7760   31.7980   42.7660 C   0  0  0  0  0  0  0  0  0  0  0  0
   46.7817   32.9656   40.8980 H   0  0  0  0  0  0  0  0  0  0  0  0
   45.9516   34.4947   40.6385 H   0  0  0  0  0  0  0  0  0  0  0  0
   47.7631   34.7581   39.1365 H   0  0  0  0  0  0  0  0  0  0  0  0
   48.8573   33.7392   40.1672 H   0  0  0  0  0  0  0  0  0  0  0  0
   50.3628   35.2521   41.7215 H   0  0  0  0  0  0  0  0  0  0  0  0
   49.2387   36.4257   42.4840 H   0  0  0  0  0  0  0  0  0  0  0  0
   48.8000   34.5326   43.7243 H   0  0  0  0  0  0  0  0  0  0  0  0
   43.8285   36.9959   44.1570 H   0  0  0  0  0  0  0  0  0  0  0  0
   45.4072   36.5422   42.2944 H   0  0  0  0  0  0  0  0  0  0  0  0
   51.0655   34.0575   41.8806 H   0  0  0  0  0  0  0  0  0  0  0  0
   52.3489   31.9891   41.5776 H   0  0  0  0  0  0  0  0  0  0  0  0
   51.3410   29.7540   42.0414 H   0  0  0  0  0  0  0  0  0  0  0  0
   48.9585   29.6454   42.8310 H   0  0  0  0  0  0  0  0  0  0  0  0
   47.7342   31.7285   43.1122 H   0  0  0  0  0  0  0  0  0  0  0  0
  1  6  1  0
  1  9  1  0
  2  1  1  0
  3  4  1  0
  3  2  1  0
  4  5  1  0
  5  6  1  0
  7 12  2  0
  8  9  2  0
  8  7  1  0
  9 10  1  0
 10 11  2  0
 11 13  1  0
 12 11  1  0
 13 14  1  0
 14 15  1  0
 14 17  1  0
 16 14  1  0
 18  6  1  0
 18 23  1  0
 19 18  2  0
 20 19  1  0
 20 21  2  0
 21 22  1  0
 22 23  2  0
  2 24  1  0
  2 25  1  0
  3 26  1  0
  3 27  1  0
  5 28  1  0
  5 29  1  0
  6 30  1  1
  7 31  1  0
  8 32  1  0
 19 33  1  0
 20 34  1  0
 21 35  1  0
 22 36  1  0
 23 37  1  0
M  ISO  8  24  13  25  13  26  13  27  13  28  13  29  13  30  13  31  14
M  ISO  6  32  14  33  14  34  14  35  14  36  14  37  14
M  END
>  <minimizedAffinity>  (1) 
-6.18117332

>  <minimizedRMSD>  (1) 
0.395173728

$$$$
