
     RDKit          3D

 21 22  0  0  0  0  0  0  0  0999 V2000
   46.3390   32.3180   45.6520 C   0  0  0  0  0  0  0  0  0  0  0  0
   47.3380   31.4890   45.1600 C   0  0  0  0  0  0  0  0  0  0  0  0
   47.7480   30.6390   46.1370 N   0  0  0  0  0  0  0  0  0  0  0  0
   47.0050   30.9440   47.2230 C   0  0  0  0  0  0  0  0  0  0  0  0
   46.1500   31.9610   46.9340 N   0  0  0  0  0  0  0  0  0  0  0  0
   44.8750   35.5860   44.8300 C   0  0  0  0  0  0  0  0  0  0  0  0
   44.2830   35.3430   43.5680 C   0  0  0  0  0  0  0  0  0  0  0  0
   44.4020   34.0720   43.0410 C   0  0  0  0  0  0  0  0  0  0  0  0
   45.0660   33.1030   43.7190 N   0  0  0  0  0  0  0  0  0  0  0  0
   45.6310   33.3640   44.9380 C   0  0  0  0  0  0  0  0  0  0  0  0
   45.5240   34.5890   45.4610 N   0  0  0  0  0  0  0  0  0  0  0  0
   43.8880   33.6490   41.8230 O   0  0  0  0  0  0  0  0  0  0  0  0
   45.1930   32.5700   47.8360 C   0  0  0  0  0  0  0  0  0  0  0  0
   44.1710   31.6910   48.1880 F   0  0  0  0  0  0  0  0  0  0  0  0
   44.6440   33.7340   47.2930 F   0  0  0  0  0  0  0  0  0  0  0  0
   45.8180   32.9050   49.0390 F   0  0  0  0  0  0  0  0  0  0  0  0
   47.7368   31.5163   44.1352 H   0  0  0  0  0  0  0  0  0  0  0  0
   47.0806   30.4426   48.1992 H   0  0  0  0  0  0  0  0  0  0  0  0
   44.8056   36.5818   45.2921 H   0  0  0  0  0  0  0  0  0  0  0  0
   43.7478   36.1371   43.0267 H   0  0  0  0  0  0  0  0  0  0  0  0
   44.0237   32.7143   41.5262 H   0  0  0  0  0  0  0  0  0  0  0  0
  1  5  1  0
  2  1  2  0
  2  3  1  0
  3  4  2  0
  5  4  1  0
  5 13  1  0
  6 11  2  0
  7  6  1  0
  8  7  2  0
  8  9  1  0
  9 10  2  0
 10 11  1  0
 10  1  1  0
 12  8  1  0
 13 14  1  0
 13 16  1  0
 15 13  1  0
  2 17  1  0
  4 18  1  0
  6 19  1  0
  7 20  1  0
 12 21  1  0
M  ISO  5  17  14  18  14  19  14  20  14  21   3
M  END
>  <minimizedAffinity>  (1) 
-4.27036762

>  <minimizedRMSD>  (1) 
0.0152127538

$$$$
