
     RDKit          3D

 34 36  0  0  1  0  0  0  0  0999 V2000
   47.3620   34.5010   42.3000 N   0  0  0  0  0  0  0  0  0  0  0  0
   47.0850   34.0180   40.9560 C   0  0  0  0  0  0  0  0  0  0  0  0
   48.2420   34.5820   40.1190 C   0  0  0  0  0  0  0  0  0  0  0  0
   48.7040   35.7920   40.6110 O   0  0  0  0  0  0  0  0  0  0  0  0
   49.3710   35.6700   41.8030 C   0  0  0  0  0  0  0  0  0  0  0  0
   48.7630   34.5820   42.6140 C   0  0  2  0  0  0  0  0  0  0  0  0
   44.5280   36.0830   44.1230 C   0  0  0  0  0  0  0  0  0  0  0  0
   45.4400   35.8900   43.0960 C   0  0  0  0  0  0  0  0  0  0  0  0
   46.3420   34.8670   43.2350 C   0  0  0  0  0  0  0  0  0  0  0  0
   46.2790   34.1190   44.3630 N   0  0  0  0  0  0  0  0  0  0  0  0
   45.3960   34.3130   45.3480 C   0  0  0  0  0  0  0  0  0  0  0  0
   44.5130   35.3110   45.2180 N   0  0  0  0  0  0  0  0  0  0  0  0
   45.3210   33.5610   46.5020 O   0  0  0  0  0  0  0  0  0  0  0  0
   46.0450   32.3810   46.7240 C   0  0  0  0  0  0  0  0  0  0  0  0
   47.3880   32.5970   46.8980 F   0  0  0  0  0  0  0  0  0  0  0  0
   45.7980   31.4660   45.7120 F   0  0  0  0  0  0  0  0  0  0  0  0
   45.6010   31.8290   47.9330 F   0  0  0  0  0  0  0  0  0  0  0  0
   49.4840   33.2970   42.5420 C   0  0  0  0  0  0  0  0  0  0  0  0
   49.2360   31.9230   42.6380 C   0  0  0  0  0  0  0  0  0  0  0  0
   50.4210   31.2370   42.4640 C   0  0  0  0  0  0  0  0  0  0  0  0
   51.3390   32.2010   42.2720 N   0  0  0  0  0  0  0  0  0  0  0  0
   50.8160   33.3950   42.3130 N   0  0  0  0  0  0  0  0  0  0  0  0
   47.0805   32.9184   40.9278 H   0  0  0  0  0  0  0  0  0  0  0  0
   46.0985   34.3332   40.5854 H   0  0  0  0  0  0  0  0  0  0  0  0
   47.8928   34.7298   39.0864 H   0  0  0  0  0  0  0  0  0  0  0  0
   49.0720   33.8614   40.1622 H   0  0  0  0  0  0  0  0  0  0  0  0
   50.4271   35.4325   41.6074 H   0  0  0  0  0  0  0  0  0  0  0  0
   49.2994   36.6178   42.3567 H   0  0  0  0  0  0  0  0  0  0  0  0
   48.8634   34.8385   43.6790 H   0  0  0  0  0  0  0  0  0  0  0  0
   43.7929   36.8966   44.0357 H   0  0  0  0  0  0  0  0  0  0  0  0
   45.4396   36.5334   42.2038 H   0  0  0  0  0  0  0  0  0  0  0  0
   48.2539   31.4633   42.8226 H   0  0  0  0  0  0  0  0  0  0  0  0
   50.5788   30.1485   42.4790 H   0  0  0  0  0  0  0  0  0  0  0  0
   52.3397   32.0174   42.1111 H   0  0  0  0  0  0  0  0  0  0  0  0
  1  6  1  0
  1  9  1  0
  2  1  1  0
  3  4  1  0
  3  2  1  0
  4  5  1  0
  5  6  1  0
  7 12  2  0
  8  9  2  0
  8  7  1  0
  9 10  1  0
 10 11  2  0
 11 13  1  0
 12 11  1  0
 13 14  1  0
 14 15  1  0
 14 17  1  0
 16 14  1  0
 18  6  1  0
 18 19  1  0
 20 19  2  0
 21 22  1  0
 21 20  1  0
 22 18  2  0
  2 23  1  0
  2 24  1  0
  3 25  1  0
  3 26  1  0
  5 27  1  0
  5 28  1  0
  6 29  1  1
  7 30  1  0
  8 31  1  0
 19 32  1  0
 20 33  1  0
 21 34  1  0
M  ISO  8  23  13  24  13  25  13  26  13  27  13  28  13  29  13  30  14
M  ISO  4  31  14  32  14  33  14  34   9
M  END
>  <minimizedAffinity>  (1) 
-6.08089733

>  <minimizedRMSD>  (1) 
0.605340958

$$$$
