
     RDKit          3D

 34 36  0  0  1  0  0  0  0  0999 V2000
   47.3340   34.4950   42.3210 N   0  0  0  0  0  0  0  0  0  0  0  0
   47.0470   34.0340   40.9710 C   0  0  0  0  0  0  0  0  0  0  0  0
   48.2150   34.5630   40.1430 C   0  0  0  0  0  0  0  0  0  0  0  0
   48.7250   35.7440   40.6370 O   0  0  0  0  0  0  0  0  0  0  0  0
   49.3630   35.6400   41.8460 C   0  0  0  0  0  0  0  0  0  0  0  0
   48.7340   34.5440   42.6450 C   0  0  2  0  0  0  0  0  0  0  0  0
   44.5110   36.1060   44.1430 C   0  0  0  0  0  0  0  0  0  0  0  0
   45.4220   35.8950   43.1180 C   0  0  0  0  0  0  0  0  0  0  0  0
   46.3140   34.8730   43.2540 C   0  0  0  0  0  0  0  0  0  0  0  0
   46.2550   34.1230   44.3900 N   0  0  0  0  0  0  0  0  0  0  0  0
   45.3700   34.3350   45.3730 C   0  0  0  0  0  0  0  0  0  0  0  0
   44.4990   35.3320   45.2420 N   0  0  0  0  0  0  0  0  0  0  0  0
   45.2910   33.5910   46.5270 O   0  0  0  0  0  0  0  0  0  0  0  0
   46.0320   32.4150   46.7640 C   0  0  0  0  0  0  0  0  0  0  0  0
   47.3700   32.6700   46.9670 F   0  0  0  0  0  0  0  0  0  0  0  0
   45.8220   31.4970   45.7560 F   0  0  0  0  0  0  0  0  0  0  0  0
   45.5900   31.8670   47.9760 F   0  0  0  0  0  0  0  0  0  0  0  0
   49.4370   33.2520   42.5110 C   0  0  0  0  0  0  0  0  0  0  0  0
   50.6730   32.9390   42.1020 C   0  0  0  0  0  0  0  0  0  0  0  0
   51.0310   31.6170   42.0790 C   0  0  0  0  0  0  0  0  0  0  0  0
   50.1690   30.6420   42.4570 C   0  0  0  0  0  0  0  0  0  0  0  0
   48.6560   31.6480   42.9080 S   0  0  0  0  0  0  0  0  0  0  0  0
   47.0072   32.9354   40.9334 H   0  0  0  0  0  0  0  0  0  0  0  0
   46.0727   34.3867   40.6017 H   0  0  0  0  0  0  0  0  0  0  0  0
   47.8679   34.7330   39.1132 H   0  0  0  0  0  0  0  0  0  0  0  0
   49.0177   33.8119   40.1828 H   0  0  0  0  0  0  0  0  0  0  0  0
   50.4263   35.4110   41.6817 H   0  0  0  0  0  0  0  0  0  0  0  0
   49.2745   36.5909   42.3919 H   0  0  0  0  0  0  0  0  0  0  0  0
   48.8311   34.7658   43.7180 H   0  0  0  0  0  0  0  0  0  0  0  0
   43.7822   36.9251   44.0543 H   0  0  0  0  0  0  0  0  0  0  0  0
   45.4245   36.5334   42.2222 H   0  0  0  0  0  0  0  0  0  0  0  0
   51.3813   33.7218   41.7930 H   0  0  0  0  0  0  0  0  0  0  0  0
   52.0421   31.3402   41.7458 H   0  0  0  0  0  0  0  0  0  0  0  0
   50.3182   29.5527   42.4899 H   0  0  0  0  0  0  0  0  0  0  0  0
  1  6  1  0
  1  9  1  0
  2  1  1  0
  3  4  1  0
  3  2  1  0
  4  5  1  0
  5  6  1  0
  7 12  2  0
  8  9  2  0
  8  7  1  0
  9 10  1  0
 10 11  2  0
 11 13  1  0
 12 11  1  0
 13 14  1  0
 14 15  1  0
 14 17  1  0
 16 14  1  0
 18  6  1  0
 18 22  1  0
 19 18  2  0
 20 19  1  0
 20 21  2  0
 21 22  1  0
  2 23  1  0
  2 24  1  0
  3 25  1  0
  3 26  1  0
  5 27  1  0
  5 28  1  0
  6 29  1  1
  7 30  1  0
  8 31  1  0
 19 32  1  0
 20 33  1  0
 21 34  1  0
M  ISO  8  23  13  24  13  25  13  26  13  27  13  28  13  29  13  30  14
M  ISO  4  31  14  32  14  33  14  34  14
M  END
>  <minimizedAffinity>  (1) 
-5.94000912

>  <minimizedRMSD>  (1) 
0.645379424

$$$$
