
     RDKit          3D

 35 37  0  0  1  0  0  0  0  0999 V2000
   47.2670   34.4290   42.3920 N   0  0  0  0  0  0  0  0  0  0  0  0
   46.9450   34.0600   41.0080 C   0  0  0  0  0  0  0  0  0  0  0  0
   48.1340   34.5900   40.2140 C   0  0  0  0  0  0  0  0  0  0  0  0
   48.7450   35.6810   40.7800 O   0  0  0  0  0  0  0  0  0  0  0  0
   49.3830   35.4320   41.9730 C   0  0  0  0  0  0  0  0  0  0  0  0
   48.6670   34.3420   42.6970 C   0  0  2  0  0  0  0  0  0  0  0  0
   44.5210   36.1200   44.2530 C   0  0  0  0  0  0  0  0  0  0  0  0
   45.4130   35.8840   43.2190 C   0  0  0  0  0  0  0  0  0  0  0  0
   46.2780   34.8340   43.3420 C   0  0  0  0  0  0  0  0  0  0  0  0
   46.2080   34.0850   44.4750 N   0  0  0  0  0  0  0  0  0  0  0  0
   45.3460   34.3160   45.4710 C   0  0  0  0  0  0  0  0  0  0  0  0
   44.4970   35.3460   45.3500 N   0  0  0  0  0  0  0  0  0  0  0  0
   45.2670   33.5640   46.6200 O   0  0  0  0  0  0  0  0  0  0  0  0
   46.0410   32.4240   46.8810 C   0  0  0  0  0  0  0  0  0  0  0  0
   47.3820   32.7060   46.9870 F   0  0  0  0  0  0  0  0  0  0  0  0
   45.7940   31.4400   45.9450 F   0  0  0  0  0  0  0  0  0  0  0  0
   45.6790   31.9480   48.1510 F   0  0  0  0  0  0  0  0  0  0  0  0
   49.2620   33.0080   42.5170 C   0  0  0  0  0  0  0  0  0  0  0  0
   50.5520   32.9340   42.0350 C   0  0  0  0  0  0  0  0  0  0  0  0
   51.1940   31.7140   41.8330 C   0  0  0  0  0  0  0  0  0  0  0  0
   50.4800   30.5920   42.1380 N   0  0  0  0  0  0  0  0  0  0  0  0
   49.2070   30.7120   42.6130 C   0  0  0  0  0  0  0  0  0  0  0  0
   48.5700   31.8780   42.8140 N   0  0  0  0  0  0  0  0  0  0  0  0
   46.8563   32.9687   40.9023 H   0  0  0  0  0  0  0  0  0  0  0  0
   45.9836   34.4715   40.6669 H   0  0  0  0  0  0  0  0  0  0  0  0
   47.7811   34.8733   39.2114 H   0  0  0  0  0  0  0  0  0  0  0  0
   48.8829   33.7847   40.1893 H   0  0  0  0  0  0  0  0  0  0  0  0
   50.4205   35.1233   41.7774 H   0  0  0  0  0  0  0  0  0  0  0  0
   49.3837   36.3441   42.5878 H   0  0  0  0  0  0  0  0  0  0  0  0
   48.7871   34.4939   43.7798 H   0  0  0  0  0  0  0  0  0  0  0  0
   43.8163   36.9609   44.1732 H   0  0  0  0  0  0  0  0  0  0  0  0
   45.4241   36.5241   42.3245 H   0  0  0  0  0  0  0  0  0  0  0  0
   51.0897   33.8652   41.8033 H   0  0  0  0  0  0  0  0  0  0  0  0
   52.2228   31.6583   41.4477 H   0  0  0  0  0  0  0  0  0  0  0  0
   48.6618   29.7862   42.8489 H   0  0  0  0  0  0  0  0  0  0  0  0
  1  6  1  0
  1  9  1  0
  2  1  1  0
  3  4  1  0
  3  2  1  0
  4  5  1  0
  5  6  1  0
  7 12  2  0
  8  9  2  0
  8  7  1  0
  9 10  1  0
 10 11  2  0
 11 13  1  0
 12 11  1  0
 13 14  1  0
 14 15  1  0
 14 17  1  0
 16 14  1  0
 18  6  1  0
 18 23  1  0
 19 18  2  0
 20 19  1  0
 20 21  2  0
 21 22  1  0
 22 23  2  0
  2 24  1  0
  2 25  1  0
  3 26  1  0
  3 27  1  0
  5 28  1  0
  5 29  1  0
  6 30  1  1
  7 31  1  0
  8 32  1  0
 19 33  1  0
 20 34  1  0
 22 35  1  0
M  ISO  8  24  13  25  13  26  13  27  13  28  13  29  13  30  13  31  14
M  ISO  4  32  14  33  14  34  14  35  14
M  END
>  <minimizedAffinity>  (1) 
-6.00418997

>  <minimizedRMSD>  (1) 
0.674838126

$$$$
