
     RDKit          3D

 34 36  0  0  1  0  0  0  0  0999 V2000
   47.2900   34.4620   42.3710 N   0  0  0  0  0  0  0  0  0  0  0  0
   46.9730   34.0280   41.0050 C   0  0  0  0  0  0  0  0  0  0  0  0
   48.1580   34.5420   40.1880 C   0  0  0  0  0  0  0  0  0  0  0  0
   48.6910   35.7110   40.6920 O   0  0  0  0  0  0  0  0  0  0  0  0
   49.3530   35.5350   41.8850 C   0  0  0  0  0  0  0  0  0  0  0  0
   48.7060   34.4520   42.6730 C   0  0  2  0  0  0  0  0  0  0  0  0
   44.5120   36.1110   44.2120 C   0  0  0  0  0  0  0  0  0  0  0  0
   45.4100   35.8950   43.1740 C   0  0  0  0  0  0  0  0  0  0  0  0
   46.2870   34.8560   43.3130 C   0  0  0  0  0  0  0  0  0  0  0  0
   46.2270   34.1060   44.4460 N   0  0  0  0  0  0  0  0  0  0  0  0
   45.3530   34.3270   45.4360 C   0  0  0  0  0  0  0  0  0  0  0  0
   44.4930   35.3370   45.3120 N   0  0  0  0  0  0  0  0  0  0  0  0
   45.2800   33.5720   46.5940 O   0  0  0  0  0  0  0  0  0  0  0  0
   46.0360   32.4170   46.8390 C   0  0  0  0  0  0  0  0  0  0  0  0
   47.3710   32.6920   46.9620 F   0  0  0  0  0  0  0  0  0  0  0  0
   45.7820   31.4560   45.8840 F   0  0  0  0  0  0  0  0  0  0  0  0
   45.6600   31.9100   48.0900 F   0  0  0  0  0  0  0  0  0  0  0  0
   49.3130   33.1650   42.5260 N   0  0  0  0  0  0  0  0  0  0  0  0
   50.5870   33.1220   42.1040 N   0  0  0  0  0  0  0  0  0  0  0  0
   50.9720   31.8490   42.0310 C   0  0  0  0  0  0  0  0  0  0  0  0
   49.9230   31.0410   42.4160 C   0  0  0  0  0  0  0  0  0  0  0  0
   48.8970   31.9140   42.7200 C   0  0  0  0  0  0  0  0  0  0  0  0
   46.9002   32.9320   40.9468 H   0  0  0  0  0  0  0  0  0  0  0  0
   46.0055   34.4091   40.6462 H   0  0  0  0  0  0  0  0  0  0  0  0
   47.8204   34.7259   39.1574 H   0  0  0  0  0  0  0  0  0  0  0  0
   48.9454   33.7751   40.2301 H   0  0  0  0  0  0  0  0  0  0  0  0
   50.3997   35.2631   41.6837 H   0  0  0  0  0  0  0  0  0  0  0  0
   49.3139   36.4717   42.4603 H   0  0  0  0  0  0  0  0  0  0  0  0
   48.8569   34.6613   43.7423 H   0  0  0  0  0  0  0  0  0  0  0  0
   43.7943   36.9407   44.1318 H   0  0  0  0  0  0  0  0  0  0  0  0
   45.4149   36.5333   42.2781 H   0  0  0  0  0  0  0  0  0  0  0  0
   51.9657   31.4990   41.7148 H   0  0  0  0  0  0  0  0  0  0  0  0
   49.9069   29.9424   42.4693 H   0  0  0  0  0  0  0  0  0  0  0  0
   47.8948   31.6227   43.0674 H   0  0  0  0  0  0  0  0  0  0  0  0
  1  6  1  0
  1  9  1  0
  2  1  1  0
  3  4  1  0
  3  2  1  0
  4  5  1  0
  5  6  1  0
  7 12  2  0
  8  9  2  0
  8  7  1  0
  9 10  1  0
 10 11  2  0
 11 13  1  0
 12 11  1  0
 13 14  1  0
 14 15  1  0
 14 17  1  0
 16 14  1  0
 18  6  1  0
 18 22  1  0
 19 18  1  0
 20 19  2  0
 20 21  1  0
 21 22  2  0
  2 23  1  0
  2 24  1  0
  3 25  1  0
  3 26  1  0
  5 27  1  0
  5 28  1  0
  6 29  1  1
  7 30  1  0
  8 31  1  0
 20 32  1  0
 21 33  1  0
 22 34  1  0
M  ISO  8  23  13  24  13  25  13  26  13  27  13  28  13  29  13  30  14
M  ISO  4  31  14  32  14  33  14  34  14
M  END
>  <minimizedAffinity>  (1) 
-5.88235044

>  <minimizedRMSD>  (1) 
0.491196752

$$$$
