
     RDKit          3D

 30 31  0  0  1  0  0  0  0  0999 V2000
   47.1730   34.4010   42.4170 N   0  0  0  0  0  0  0  0  0  0  0  0
   46.8550   34.2420   40.9930 C   0  0  0  0  0  0  0  0  0  0  0  0
   48.1440   34.6400   40.2810 C   0  0  0  0  0  0  0  0  0  0  0  0
   48.8160   35.6380   40.9610 O   0  0  0  0  0  0  0  0  0  0  0  0
   49.4010   35.1970   42.1340 C   0  0  0  0  0  0  0  0  0  0  0  0
   48.5620   34.1030   42.7260 C   0  0  2  0  0  0  0  0  0  0  0  0
   44.5340   36.1160   44.3760 C   0  0  0  0  0  0  0  0  0  0  0  0
   45.3920   35.8830   43.3080 C   0  0  0  0  0  0  0  0  0  0  0  0
   46.2300   34.8030   43.3990 C   0  0  0  0  0  0  0  0  0  0  0  0
   46.1760   34.0310   44.5150 N   0  0  0  0  0  0  0  0  0  0  0  0
   45.3430   34.2690   45.5370 C   0  0  0  0  0  0  0  0  0  0  0  0
   44.5190   35.3200   45.4630 N   0  0  0  0  0  0  0  0  0  0  0  0
   45.2680   33.5090   46.6740 O   0  0  0  0  0  0  0  0  0  0  0  0
   46.0960   32.4070   46.9440 C   0  0  0  0  0  0  0  0  0  0  0  0
   47.4130   32.7910   47.1390 F   0  0  0  0  0  0  0  0  0  0  0  0
   45.9930   31.4300   45.9820 F   0  0  0  0  0  0  0  0  0  0  0  0
   45.7150   31.8690   48.1800 F   0  0  0  0  0  0  0  0  0  0  0  0
   48.9860   32.7170   42.3840 C   0  0  0  0  0  0  0  0  0  0  0  0
   46.5887   33.1992   40.7658 H   0  0  0  0  0  0  0  0  0  0  0  0
   45.9934   34.8505   40.6809 H   0  0  0  0  0  0  0  0  0  0  0  0
   47.8970   35.0004   39.2715 H   0  0  0  0  0  0  0  0  0  0  0  0
   48.7974   33.7563   40.2350 H   0  0  0  0  0  0  0  0  0  0  0  0
   50.4089   34.8120   41.9198 H   0  0  0  0  0  0  0  0  0  0  0  0
   49.4734   36.0322   42.8462 H   0  0  0  0  0  0  0  0  0  0  0  0
   48.7073   34.0985   43.8164 H   0  0  0  0  0  0  0  0  0  0  0  0
   43.8477   36.9745   44.3328 H   0  0  0  0  0  0  0  0  0  0  0  0
   45.3981   36.5392   42.4252 H   0  0  0  0  0  0  0  0  0  0  0  0
   49.1601   32.1480   43.3092 H   0  0  0  0  0  0  0  0  0  0  0  0
   48.1967   32.2269   41.7951 H   0  0  0  0  0  0  0  0  0  0  0  0
   49.9144   32.7524   41.7951 H   0  0  0  0  0  0  0  0  0  0  0  0
  1  6  1  0
  1  9  1  0
  2  1  1  0
  3  4  1  0
  3  2  1  0
  4  5  1  0
  5  6  1  0
  7 12  2  0
  8  9  2  0
  8  7  1  0
  9 10  1  0
 10 11  2  0
 11 13  1  0
 12 11  1  0
 13 14  1  0
 14 15  1  0
 14 17  1  0
 16 14  1  0
 18  6  1  0
  2 19  1  0
  2 20  1  0
  3 21  1  0
  3 22  1  0
  5 23  1  0
  5 24  1  0
  6 25  1  1
  7 26  1  0
  8 27  1  0
 18 28  1  0
 18 29  1  0
 18 30  1  0
M  ISO  8  19  13  20  13  21  13  22  13  23  13  24  13  25  13  26  14
M  ISO  4  27  14  28   8  29   8  30   8
M  END
>  <minimizedAffinity>  (1) 
-5.50839806

>  <minimizedRMSD>  (1) 
0.0403721035

$$$$
