
     RDKit          3D

 33 34  0  0  1  0  0  0  0  0999 V2000
   46.5030   33.5650   42.1380 N   0  0  0  0  0  0  0  0  0  0  0  0
   45.8460   32.4300   41.4670 C   0  0  0  0  0  0  0  0  0  0  0  0
   46.4440   32.4300   40.0600 C   0  0  0  0  0  0  0  0  0  0  0  0
   46.6740   33.7240   39.6280 O   0  0  0  0  0  0  0  0  0  0  0  0
   47.7430   34.3250   40.2630 C   0  0  0  0  0  0  0  0  0  0  0  0
   47.8510   33.7800   41.6750 C   0  0  1  0  0  0  0  0  0  0  0  0
   44.7510   36.1990   44.0710 C   0  0  0  0  0  0  0  0  0  0  0  0
   45.3420   35.6070   42.9700 C   0  0  0  0  0  0  0  0  0  0  0  0
   45.8560   34.3510   43.1360 C   0  0  0  0  0  0  0  0  0  0  0  0
   45.7590   33.7660   44.3550 N   0  0  0  0  0  0  0  0  0  0  0  0
   45.1820   34.3530   45.4180 C   0  0  0  0  0  0  0  0  0  0  0  0
   44.6770   35.5810   45.2610 N   0  0  0  0  0  0  0  0  0  0  0  0
   45.0740   33.7790   46.6580 O   0  0  0  0  0  0  0  0  0  0  0  0
   45.9050   32.7530   47.1460 C   0  0  0  0  0  0  0  0  0  0  0  0
   47.2340   33.0490   47.0190 F   0  0  0  0  0  0  0  0  0  0  0  0
   45.5720   31.5490   46.5300 F   0  0  0  0  0  0  0  0  0  0  0  0
   45.6820   32.6400   48.5220 F   0  0  0  0  0  0  0  0  0  0  0  0
   48.6140   34.8320   42.4440 C   0  0  0  0  0  0  0  0  0  0  0  0
   49.1130   35.9680   41.6130 C   0  0  0  0  0  0  0  0  0  0  0  0
   46.0702   31.4866   41.9864 H   0  0  0  0  0  0  0  0  0  0  0  0
   44.7499   32.5218   41.4593 H   0  0  0  0  0  0  0  0  0  0  0  0
   47.3956   31.8784   40.0718 H   0  0  0  0  0  0  0  0  0  0  0  0
   45.7330   31.9481   39.3728 H   0  0  0  0  0  0  0  0  0  0  0  0
   48.6694   34.1063   39.7117 H   0  0  0  0  0  0  0  0  0  0  0  0
   47.5903   35.4138   40.2963 H   0  0  0  0  0  0  0  0  0  0  0  0
   48.3806   32.8217   41.7808 H   0  0  0  0  0  0  0  0  0  0  0  0
   44.3276   37.2091   43.9688 H   0  0  0  0  0  0  0  0  0  0  0  0
   45.3963   36.1249   42.0011 H   0  0  0  0  0  0  0  0  0  0  0  0
   47.9492   35.2400   43.2196 H   0  0  0  0  0  0  0  0  0  0  0  0
   49.5030   34.3333   42.8574 H   0  0  0  0  0  0  0  0  0  0  0  0
   49.4676   36.7753   42.2706 H   0  0  0  0  0  0  0  0  0  0  0  0
   49.9418   35.6215   40.9781 H   0  0  0  0  0  0  0  0  0  0  0  0
   48.2972   36.3439   40.9781 H   0  0  0  0  0  0  0  0  0  0  0  0
  1  9  1  0
  2  1  1  0
  3  2  1  0
  4  3  1  0
  4  5  1  0
  5  6  1  0
  6  1  1  0
  6 18  1  0
  7 12  2  0
  8  9  2  0
  8  7  1  0
  9 10  1  0
 10 11  2  0
 11 13  1  0
 12 11  1  0
 13 14  1  0
 14 17  1  0
 15 14  1  0
 16 14  1  0
 19 18  1  0
  2 20  1  0
  2 21  1  0
  3 22  1  0
  3 23  1  0
  5 24  1  0
  5 25  1  0
  6 26  1  6
  7 27  1  0
  8 28  1  0
 18 29  1  0
 18 30  1  0
 19 31  1  0
 19 32  1  0
 19 33  1  0
M  ISO  8  20  13  21  13  22  13  23  13  24  13  25  13  26  13  27  14
M  ISO  6  28  14  29   8  30   8  31   8  32   8  33   8
M  END
>  <minimizedAffinity>  (1) 
-5.30806923

>  <minimizedRMSD>  (1) 
1.61925507

$$$$
