
     RDKit          3D

 44 47  0  0  1  0  0  0  0  0999 V2000
   47.1770   34.4210   42.4350 N   0  0  0  0  0  0  0  0  0  0  0  0
   46.8720   34.4080   41.0120 C   0  0  0  0  0  0  0  0  0  0  0  0
   48.2090   34.7930   40.3700 C   0  0  0  0  0  0  0  0  0  0  0  0
   48.9510   35.6570   41.1480 O   0  0  0  0  0  0  0  0  0  0  0  0
   49.4660   35.0720   42.2980 C   0  0  0  0  0  0  0  0  0  0  0  0
   48.5610   34.0190   42.7810 C   0  0  2  0  0  0  0  0  0  0  0  0
   44.5190   36.0500   44.4460 C   0  0  0  0  0  0  0  0  0  0  0  0
   45.3660   35.8520   43.3660 C   0  0  0  0  0  0  0  0  0  0  0  0
   46.2160   34.7990   43.4400 C   0  0  0  0  0  0  0  0  0  0  0  0
   46.2050   33.9970   44.5440 N   0  0  0  0  0  0  0  0  0  0  0  0
   45.3680   34.2140   45.5810 C   0  0  0  0  0  0  0  0  0  0  0  0
   44.5260   35.2430   45.5250 N   0  0  0  0  0  0  0  0  0  0  0  0
   45.3170   33.4350   46.7160 O   0  0  0  0  0  0  0  0  0  0  0  0
   46.1160   32.2900   46.9220 C   0  0  0  0  0  0  0  0  0  0  0  0
   47.4500   32.6230   47.0550 F   0  0  0  0  0  0  0  0  0  0  0  0
   45.9290   31.3440   45.9420 F   0  0  0  0  0  0  0  0  0  0  0  0
   45.7640   31.7510   48.1690 F   0  0  0  0  0  0  0  0  0  0  0  0
   48.8590   32.6520   42.3530 C   0  0  0  0  0  0  0  0  0  0  0  0
   48.0680   31.6840   42.4650 O   0  0  0  0  0  0  0  0  0  0  0  0
   50.0710   32.3260   41.7770 O   0  0  0  0  0  0  0  0  0  0  0  0
   50.2200   31.8620   40.4800 C   0  0  0  0  0  0  0  0  0  0  0  0
   49.1220   31.7030   39.6480 C   0  0  0  0  0  0  0  0  0  0  0  0
   49.5590   31.2420   38.4530 N   0  0  0  0  0  0  0  0  0  0  0  0
   50.9020   31.1080   38.5180 C   0  0  0  0  0  0  0  0  0  0  0  0
   51.8660   30.6880   37.6230 C   0  0  0  0  0  0  0  0  0  0  0  0
   53.1840   30.6660   38.0030 C   0  0  0  0  0  0  0  0  0  0  0  0
   53.5890   31.0520   39.2610 C   0  0  0  0  0  0  0  0  0  0  0  0
   52.6590   31.4790   40.1870 C   0  0  0  0  0  0  0  0  0  0  0  0
   51.3460   31.4870   39.7680 C   0  0  0  0  0  0  0  0  0  0  0  0
   46.5500   33.4081   40.6857 H   0  0  0  0  0  0  0  0  0  0  0  0
   46.0489   35.0846   40.7387 H   0  0  0  0  0  0  0  0  0  0  0  0
   48.7958   33.8771   40.2059 H   0  0  0  0  0  0  0  0  0  0  0  0
   47.9839   35.3108   39.4260 H   0  0  0  0  0  0  0  0  0  0  0  0
   50.4485   34.6316   42.0729 H   0  0  0  0  0  0  0  0  0  0  0  0
   49.5691   35.8418   43.0770 H   0  0  0  0  0  0  0  0  0  0  0  0
   48.7068   33.9512   43.8692 H   0  0  0  0  0  0  0  0  0  0  0  0
   43.8164   36.8960   44.4209 H   0  0  0  0  0  0  0  0  0  0  0  0
   45.3488   36.5180   42.4907 H   0  0  0  0  0  0  0  0  0  0  0  0
   48.0758   31.9151   39.9136 H   0  0  0  0  0  0  0  0  0  0  0  0
   48.9697   31.0299   37.6353 H   0  0  0  0  0  0  0  0  0  0  0  0
   51.5783   30.3723   36.6093 H   0  0  0  0  0  0  0  0  0  0  0  0
   53.9412   30.3293   37.2797 H   0  0  0  0  0  0  0  0  0  0  0  0
   54.6555   31.0200   39.5284 H   0  0  0  0  0  0  0  0  0  0  0  0
   52.9487   31.7945   41.2002 H   0  0  0  0  0  0  0  0  0  0  0  0
  1  6  1  0
  1  9  1  0
  2  1  1  0
  3  2  1  0
  3  4  1  0
  4  5  1  0
  5  6  1  0
  7 12  2  0
  8  9  2  0
  8  7  1  0
  9 10  1  0
 10 11  2  0
 11 13  1  0
 12 11  1  0
 13 14  1  0
 14 15  1  0
 14 17  1  0
 16 14  1  0
 18 19  2  0
 18  6  1  0
 20 18  1  0
 21 20  1  0
 22 21  2  0
 23 24  1  0
 23 22  1  0
 24 29  2  0
 25 26  2  0
 25 24  1  0
 26 27  1  0
 27 28  2  0
 29 28  1  0
 29 21  1  0
  2 30  1  0
  2 31  1  0
  3 32  1  0
  3 33  1  0
  5 34  1  0
  5 35  1  0
  6 36  1  1
  7 37  1  0
  8 38  1  0
 22 39  1  0
 23 40  1  0
 25 41  1  0
 26 42  1  0
 27 43  1  0
 28 44  1  0
M  ISO  8  30  13  31  13  32  13  33  13  34  13  35  13  36  13  37  14
M  ISO  7  38  14  39  14  40   9  41  14  42  14  43  14  44  14
M  END
>  <minimizedAffinity>  (1) 
-6.30032969

>  <minimizedRMSD>  (1) 
1.73410642

$$$$
