
     RDKit          3D

 35 37  0  0  1  0  0  0  0  0999 V2000
   47.2250   34.4140   42.4030 N   0  0  0  0  0  0  0  0  0  0  0  0
   46.9080   34.1240   41.0020 C   0  0  0  0  0  0  0  0  0  0  0  0
   48.1670   34.5750   40.2680 C   0  0  0  0  0  0  0  0  0  0  0  0
   48.7870   35.6610   40.8740 O   0  0  0  0  0  0  0  0  0  0  0  0
   49.4010   35.3310   42.0770 C   0  0  0  0  0  0  0  0  0  0  0  0
   48.6570   34.2530   42.7590 C   0  0  2  0  0  0  0  0  0  0  0  0
   44.5350   36.1240   44.3020 C   0  0  0  0  0  0  0  0  0  0  0  0
   45.4070   35.8870   43.2610 C   0  0  0  0  0  0  0  0  0  0  0  0
   46.2470   34.8280   43.3660 C   0  0  0  0  0  0  0  0  0  0  0  0
   46.1880   34.0530   44.4910 N   0  0  0  0  0  0  0  0  0  0  0  0
   45.3320   34.2940   45.4990 C   0  0  0  0  0  0  0  0  0  0  0  0
   44.4990   35.3470   45.3930 N   0  0  0  0  0  0  0  0  0  0  0  0
   45.2300   33.5480   46.6510 O   0  0  0  0  0  0  0  0  0  0  0  0
   46.1130   32.5090   46.9860 C   0  0  0  0  0  0  0  0  0  0  0  0
   47.4120   32.9450   47.1380 F   0  0  0  0  0  0  0  0  0  0  0  0
   46.0530   31.4790   46.0710 F   0  0  0  0  0  0  0  0  0  0  0  0
   45.7520   32.0480   48.2630 F   0  0  0  0  0  0  0  0  0  0  0  0
   49.1350   32.8700   42.5280 C   0  0  0  0  0  0  0  0  0  0  0  0
   48.3990   31.8400   42.6930 O   0  0  0  0  0  0  0  0  0  0  0  0
   50.4190   32.6540   42.1110 O   0  0  0  0  0  0  0  0  0  0  0  0
   50.9530   32.0810   41.0090 C   0  0  0  0  0  0  0  0  0  0  0  0
   52.1740   31.7000   40.6110 N   0  0  0  0  0  0  0  0  0  0  0  0
   52.1290   31.1790   39.3970 O   0  0  0  0  0  0  0  0  0  0  0  0
   50.8720   31.2070   38.9630 C   0  0  0  0  0  0  0  0  0  0  0  0
   50.1480   31.7720   39.9800 N   0  0  0  0  0  0  0  0  0  0  0  0
   46.7255   33.0497   40.8516 H   0  0  0  0  0  0  0  0  0  0  0  0
   45.9956   34.6273   40.6496 H   0  0  0  0  0  0  0  0  0  0  0  0
   47.8925   34.8560   39.2405 H   0  0  0  0  0  0  0  0  0  0  0  0
   48.8783   33.7362   40.2870 H   0  0  0  0  0  0  0  0  0  0  0  0
   50.4283   34.9919   41.8780 H   0  0  0  0  0  0  0  0  0  0  0  0
   49.4138   36.2196   42.7253 H   0  0  0  0  0  0  0  0  0  0  0  0
   48.8310   34.3727   43.8385 H   0  0  0  0  0  0  0  0  0  0  0  0
   43.8462   36.9790   44.2348 H   0  0  0  0  0  0  0  0  0  0  0  0
   45.4209   36.5365   42.3733 H   0  0  0  0  0  0  0  0  0  0  0  0
   50.4937   30.8518   37.9931 H   0  0  0  0  0  0  0  0  0  0  0  0
  1  6  1  0
  1  9  1  0
  2  1  1  0
  3  4  1  0
  3  2  1  0
  4  5  1  0
  5  6  1  0
  7 12  2  0
  8  9  2  0
  8  7  1  0
  9 10  1  0
 10 11  2  0
 11 13  1  0
 12 11  1  0
 13 14  1  0
 14 15  1  0
 14 17  1  0
 16 14  1  0
 18 19  2  0
 18  6  1  0
 20 18  1  0
 21 20  1  0
 22 21  2  0
 23 22  1  0
 24 23  1  0
 24 25  2  0
 25 21  1  0
  2 26  1  0
  2 27  1  0
  3 28  1  0
  3 29  1  0
  5 30  1  0
  5 31  1  0
  6 32  1  1
  7 33  1  0
  8 34  1  0
 24 35  1  0
M  ISO  8  26  13  27  13  28  13  29  13  30  13  31  13  32  13  33  14
M  ISO  2  34  14  35  14
M  END
>  <minimizedAffinity>  (1) 
-5.87910271

>  <minimizedRMSD>  (1) 
0.778160572

$$$$
