
     RDKit          3D

 40 42  0  0  1  0  0  0  0  0999 V2000
   47.2580   34.4750   42.3200 N   0  0  0  0  0  0  0  0  0  0  0  0
   46.9320   34.1080   40.9500 C   0  0  0  0  0  0  0  0  0  0  0  0
   48.1520   34.6080   40.1660 C   0  0  0  0  0  0  0  0  0  0  0  0
   48.7180   35.7430   40.7160 O   0  0  0  0  0  0  0  0  0  0  0  0
   49.3650   35.5120   41.9230 C   0  0  0  0  0  0  0  0  0  0  0  0
   48.7010   34.4260   42.6560 C   0  0  2  0  0  0  0  0  0  0  0  0
   44.5270   36.1060   44.2280 C   0  0  0  0  0  0  0  0  0  0  0  0
   45.4000   35.9040   43.1740 C   0  0  0  0  0  0  0  0  0  0  0  0
   46.2630   34.8610   43.2900 C   0  0  0  0  0  0  0  0  0  0  0  0
   46.2370   34.0740   44.4110 N   0  0  0  0  0  0  0  0  0  0  0  0
   45.3700   34.3030   45.4200 C   0  0  0  0  0  0  0  0  0  0  0  0
   44.5140   35.3240   45.3230 N   0  0  0  0  0  0  0  0  0  0  0  0
   45.3010   33.5420   46.5700 O   0  0  0  0  0  0  0  0  0  0  0  0
   46.0600   32.3840   46.7990 C   0  0  0  0  0  0  0  0  0  0  0  0
   47.4000   32.6590   46.9640 F   0  0  0  0  0  0  0  0  0  0  0  0
   45.8490   31.4510   45.8000 F   0  0  0  0  0  0  0  0  0  0  0  0
   45.6550   31.8520   48.0320 F   0  0  0  0  0  0  0  0  0  0  0  0
   49.2580   33.0820   42.4840 C   0  0  0  0  0  0  0  0  0  0  0  0
   48.6570   32.0200   42.7710 O   0  0  0  0  0  0  0  0  0  0  0  0
   50.5300   32.8760   41.9720 O   0  0  0  0  0  0  0  0  0  0  0  0
   50.7740   32.0270   40.8970 C   0  0  0  0  0  0  0  0  0  0  0  0
   49.7910   31.7810   39.9720 C   0  0  0  0  0  0  0  0  0  0  0  0
   50.1540   30.9120   38.9370 C   0  0  0  0  0  0  0  0  0  0  0  0
   51.4200   30.3370   38.8490 C   0  0  0  0  0  0  0  0  0  0  0  0
   52.3490   30.6370   39.8200 C   0  0  0  0  0  0  0  0  0  0  0  0
   52.0450   31.4960   40.8750 C   0  0  0  0  0  0  0  0  0  0  0  0
   46.8147   33.0190   40.8486 H   0  0  0  0  0  0  0  0  0  0  0  0
   45.9820   34.5367   40.5981 H   0  0  0  0  0  0  0  0  0  0  0  0
   47.8381   34.8361   39.1367 H   0  0  0  0  0  0  0  0  0  0  0  0
   48.9117   33.8130   40.1963 H   0  0  0  0  0  0  0  0  0  0  0  0
   50.4104   35.2316   41.7268 H   0  0  0  0  0  0  0  0  0  0  0  0
   49.3291   36.4286   42.5301 H   0  0  0  0  0  0  0  0  0  0  0  0
   48.8801   34.6100   43.7256 H   0  0  0  0  0  0  0  0  0  0  0  0
   43.8134   36.9410   44.1684 H   0  0  0  0  0  0  0  0  0  0  0  0
   45.3957   36.5547   42.2871 H   0  0  0  0  0  0  0  0  0  0  0  0
   48.7907   32.2337   40.0391 H   0  0  0  0  0  0  0  0  0  0  0  0
   49.4104   30.6734   38.1623 H   0  0  0  0  0  0  0  0  0  0  0  0
   51.6720   29.6577   38.0213 H   0  0  0  0  0  0  0  0  0  0  0  0
   53.3522   30.1894   39.7620 H   0  0  0  0  0  0  0  0  0  0  0  0
   52.7844   31.7382   41.6525 H   0  0  0  0  0  0  0  0  0  0  0  0
  1  6  1  0
  1  9  1  0
  2  1  1  0
  3  4  1  0
  3  2  1  0
  4  5  1  0
  5  6  1  0
  7 12  2  0
  8  9  2  0
  8  7  1  0
  9 10  1  0
 10 11  2  0
 11 13  1  0
 12 11  1  0
 13 14  1  0
 14 15  1  0
 14 17  1  0
 16 14  1  0
 18  6  1  0
 18 19  2  0
 20 18  1  0
 21 20  1  0
 22 21  2  0
 23 22  1  0
 24 23  2  0
 24 25  1  0
 25 26  2  0
 26 21  1  0
  2 27  1  0
  2 28  1  0
  3 29  1  0
  3 30  1  0
  5 31  1  0
  5 32  1  0
  6 33  1  1
  7 34  1  0
  8 35  1  0
 22 36  1  0
 23 37  1  0
 24 38  1  0
 25 39  1  0
 26 40  1  0
M  ISO  8  27  13  28  13  29  13  30  13  31  13  32  13  33  13  34  14
M  ISO  6  35  14  36  14  37  14  38  14  39  14  40  14
M  END
>  <minimizedAffinity>  (1) 
-5.86945581

>  <minimizedRMSD>  (1) 
1.06441665

$$$$
