
     RDKit          3D

 46 48  0  0  1  0  0  0  0  0999 V2000
   47.1860   34.4400   42.3570 N   0  0  0  0  0  0  0  0  0  0  0  0
   46.8450   34.2440   40.9540 C   0  0  0  0  0  0  0  0  0  0  0  0
   48.1300   34.6600   40.2290 C   0  0  0  0  0  0  0  0  0  0  0  0
   48.8140   35.6660   40.8870 O   0  0  0  0  0  0  0  0  0  0  0  0
   49.4090   35.2510   42.0710 C   0  0  0  0  0  0  0  0  0  0  0  0
   48.6060   34.1940   42.6980 C   0  0  2  0  0  0  0  0  0  0  0  0
   44.5300   36.1320   44.3190 C   0  0  0  0  0  0  0  0  0  0  0  0
   45.3850   35.9080   43.2500 C   0  0  0  0  0  0  0  0  0  0  0  0
   46.2200   34.8470   43.3470 C   0  0  0  0  0  0  0  0  0  0  0  0
   46.1900   34.0580   44.4620 N   0  0  0  0  0  0  0  0  0  0  0  0
   45.3460   34.3000   45.4890 C   0  0  0  0  0  0  0  0  0  0  0  0
   44.5140   35.3490   45.4060 N   0  0  0  0  0  0  0  0  0  0  0  0
   45.2750   33.5400   46.6340 O   0  0  0  0  0  0  0  0  0  0  0  0
   46.0470   32.3830   46.8630 C   0  0  0  0  0  0  0  0  0  0  0  0
   47.3920   32.6670   46.9620 F   0  0  0  0  0  0  0  0  0  0  0  0
   45.8070   31.4270   45.9150 F   0  0  0  0  0  0  0  0  0  0  0  0
   45.7000   31.8970   48.1340 F   0  0  0  0  0  0  0  0  0  0  0  0
   49.0010   32.8120   42.4060 C   0  0  0  0  0  0  0  0  0  0  0  0
   48.3940   31.7940   42.8130 O   0  0  0  0  0  0  0  0  0  0  0  0
   50.1100   32.5200   41.6310 O   0  0  0  0  0  0  0  0  0  0  0  0
   50.3430   31.3670   40.9020 C   0  0  0  0  0  0  0  0  0  0  0  0
   50.1160   31.6890   39.4390 C   0  0  0  0  0  0  0  0  0  0  0  0
   51.0290   30.8740   38.5460 C   0  0  0  0  0  0  0  0  0  0  0  0
   52.4590   31.3160   38.7790 C   0  0  0  0  0  0  0  0  0  0  0  0
   52.7680   31.4510   40.2370 C   0  0  0  0  0  0  0  0  0  0  0  0
   51.6880   30.7380   41.0200 C   0  0  0  0  0  0  0  0  0  0  0  0
   46.5982   33.1917   40.7498 H   0  0  0  0  0  0  0  0  0  0  0  0
   45.9617   34.8178   40.6370 H   0  0  0  0  0  0  0  0  0  0  0  0
   47.8663   35.0147   39.2217 H   0  0  0  0  0  0  0  0  0  0  0  0
   48.7893   33.7803   40.1917 H   0  0  0  0  0  0  0  0  0  0  0  0
   50.4156   34.8633   41.8555 H   0  0  0  0  0  0  0  0  0  0  0  0
   49.4758   36.1070   42.7586 H   0  0  0  0  0  0  0  0  0  0  0  0
   48.7862   34.2650   43.7808 H   0  0  0  0  0  0  0  0  0  0  0  0
   43.8381   36.9859   44.2725 H   0  0  0  0  0  0  0  0  0  0  0  0
   45.3845   36.5616   42.3653 H   0  0  0  0  0  0  0  0  0  0  0  0
   49.6493   30.6275   41.3286 H   0  0  0  0  0  0  0  0  0  0  0  0
   49.0703   31.4653   39.1813 H   0  0  0  0  0  0  0  0  0  0  0  0
   50.3375   32.7547   39.2805 H   0  0  0  0  0  0  0  0  0  0  0  0
   50.7583   31.0374   37.4924 H   0  0  0  0  0  0  0  0  0  0  0  0
   50.9248   29.8044   38.7806 H   0  0  0  0  0  0  0  0  0  0  0  0
   53.1382   30.5713   38.3385 H   0  0  0  0  0  0  0  0  0  0  0  0
   52.5936   32.3010   38.3082 H   0  0  0  0  0  0  0  0  0  0  0  0
   53.7459   30.9963   40.4535 H   0  0  0  0  0  0  0  0  0  0  0  0
   52.8023   32.5134   40.5201 H   0  0  0  0  0  0  0  0  0  0  0  0
   51.9760   30.7325   42.0816 H   0  0  0  0  0  0  0  0  0  0  0  0
   51.6049   29.7247   40.6001 H   0  0  0  0  0  0  0  0  0  0  0  0
  1  6  1  0
  1  9  1  0
  2  1  1  0
  3  4  1  0
  3  2  1  0
  4  5  1  0
  5  6  1  0
  7 12  2  0
  8  9  2  0
  8  7  1  0
  9 10  1  0
 10 11  2  0
 11 13  1  0
 12 11  1  0
 13 14  1  0
 14 15  1  0
 14 17  1  0
 16 14  1  0
 18  6  1  0
 18 19  2  0
 20 18  1  0
 21 26  1  0
 21 20  1  0
 22 21  1  0
 23 24  1  0
 23 22  1  0
 24 25  1  0
 25 26  1  0
  2 27  1  0
  2 28  1  0
  3 29  1  0
  3 30  1  0
  5 31  1  0
  5 32  1  0
  6 33  1  1
  7 34  1  0
  8 35  1  0
 21 36  1  0
 22 37  1  0
 22 38  1  0
 23 39  1  0
 23 40  1  0
 24 41  1  0
 24 42  1  0
 25 43  1  0
 25 44  1  0
 26 45  1  0
 26 46  1  0
M  ISO  8  27  13  28  13  29  13  30  13  31  13  32  13  33  13  34  14
M  ISO  8  35  14  36  13  37  13  38  13  39  13  40  13  41  13  42  13
M  ISO  4  43  13  44  13  45  13  46  13
M  END
>  <minimizedAffinity>  (1) 
-5.90705442

>  <minimizedRMSD>  (1) 
0.917197585

$$$$
