
     RDKit          3D

 37 39  0  0  1  0  0  0  0  0999 V2000
   47.2590   34.4620   42.3430 N   0  0  0  0  0  0  0  0  0  0  0  0
   46.9390   34.0490   40.9830 C   0  0  0  0  0  0  0  0  0  0  0  0
   48.1470   34.5440   40.1800 C   0  0  0  0  0  0  0  0  0  0  0  0
   48.6830   35.7080   40.6960 O   0  0  0  0  0  0  0  0  0  0  0  0
   49.3450   35.5280   41.9060 C   0  0  0  0  0  0  0  0  0  0  0  0
   48.7010   34.4540   42.6740 C   0  0  2  0  0  0  0  0  0  0  0  0
   44.5230   36.1130   44.2270 C   0  0  0  0  0  0  0  0  0  0  0  0
   45.4000   35.8950   43.1880 C   0  0  0  0  0  0  0  0  0  0  0  0
   46.2630   34.8550   43.3070 C   0  0  0  0  0  0  0  0  0  0  0  0
   46.2300   34.0750   44.4320 N   0  0  0  0  0  0  0  0  0  0  0  0
   45.3600   34.3110   45.4370 C   0  0  0  0  0  0  0  0  0  0  0  0
   44.5050   35.3320   45.3330 N   0  0  0  0  0  0  0  0  0  0  0  0
   45.2850   33.5570   46.5920 O   0  0  0  0  0  0  0  0  0  0  0  0
   46.0400   32.4030   46.8280 C   0  0  0  0  0  0  0  0  0  0  0  0
   47.3890   32.6680   46.9580 F   0  0  0  0  0  0  0  0  0  0  0  0
   45.8010   31.4480   45.8580 F   0  0  0  0  0  0  0  0  0  0  0  0
   45.6580   31.8910   48.0800 F   0  0  0  0  0  0  0  0  0  0  0  0
   49.2840   33.1150   42.5410 C   0  0  0  0  0  0  0  0  0  0  0  0
   48.6910   32.0440   42.8150 O   0  0  0  0  0  0  0  0  0  0  0  0
   50.5820   32.9190   42.0820 O   0  0  0  0  0  0  0  0  0  0  0  0
   52.0110   30.6460   39.8240 N   0  0  0  0  0  0  0  0  0  0  0  0
   52.0210   31.3880   40.9150 N   0  0  0  0  0  0  0  0  0  0  0  0
   50.8400   32.0600   41.0190 C   0  0  0  0  0  0  0  0  0  0  0  0
   50.0830   31.6960   39.9290 C   0  0  0  0  0  0  0  0  0  0  0  0
   50.8410   30.8040   39.1890 C   0  0  0  0  0  0  0  0  0  0  0  0
   46.8398   32.9556   40.9147 H   0  0  0  0  0  0  0  0  0  0  0  0
   45.9822   34.4531   40.6207 H   0  0  0  0  0  0  0  0  0  0  0  0
   47.8293   34.7308   39.1436 H   0  0  0  0  0  0  0  0  0  0  0  0
   48.9237   33.7667   40.2305 H   0  0  0  0  0  0  0  0  0  0  0  0
   50.3936   35.2588   41.7114 H   0  0  0  0  0  0  0  0  0  0  0  0
   49.3020   36.4626   42.4846 H   0  0  0  0  0  0  0  0  0  0  0  0
   48.8770   34.6781   43.7365 H   0  0  0  0  0  0  0  0  0  0  0  0
   43.8129   36.9501   44.1561 H   0  0  0  0  0  0  0  0  0  0  0  0
   45.4008   36.5390   42.2962 H   0  0  0  0  0  0  0  0  0  0  0  0
   52.7820   30.0398   39.5093 H   0  0  0  0  0  0  0  0  0  0  0  0
   49.0681   32.0470   39.6907 H   0  0  0  0  0  0  0  0  0  0  0  0
   50.5384   30.3146   38.2515 H   0  0  0  0  0  0  0  0  0  0  0  0
  1  6  1  0
  1  9  1  0
  2  1  1  0
  3  4  1  0
  3  2  1  0
  4  5  1  0
  5  6  1  0
  7 12  2  0
  8  9  2  0
  8  7  1  0
  9 10  1  0
 10 11  2  0
 11 13  1  0
 12 11  1  0
 13 14  1  0
 14 15  1  0
 14 17  1  0
 16 14  1  0
 18  6  1  0
 18 19  2  0
 20 18  1  0
 21 22  1  0
 22 23  2  0
 23 20  1  0
 24 23  1  0
 25 21  1  0
 25 24  2  0
  2 26  1  0
  2 27  1  0
  3 28  1  0
  3 29  1  0
  5 30  1  0
  5 31  1  0
  6 32  1  1
  7 33  1  0
  8 34  1  0
 21 35  1  0
 24 36  1  0
 25 37  1  0
M  ISO  8  26  13  27  13  28  13  29  13  30  13  31  13  32  13  33  14
M  ISO  4  34  14  35   9  36  14  37  14
M  END
>  <minimizedAffinity>  (1) 
-5.77359533

>  <minimizedRMSD>  (1) 
0.870224655

$$$$
