
     RDKit          3D

 33 34  0  0  1  0  0  0  0  0999 V2000
   47.2660   34.4640   42.3420 N   0  0  0  0  0  0  0  0  0  0  0  0
   46.9430   34.0320   40.9890 C   0  0  0  0  0  0  0  0  0  0  0  0
   48.1480   34.5200   40.1790 C   0  0  0  0  0  0  0  0  0  0  0  0
   48.6890   35.6910   40.6720 O   0  0  0  0  0  0  0  0  0  0  0  0
   49.3420   35.5350   41.8890 C   0  0  0  0  0  0  0  0  0  0  0  0
   48.7080   34.4700   42.6740 C   0  0  2  0  0  0  0  0  0  0  0  0
   44.5140   36.1240   44.1980 C   0  0  0  0  0  0  0  0  0  0  0  0
   45.4030   35.9030   43.1540 C   0  0  0  0  0  0  0  0  0  0  0  0
   46.2620   34.8650   43.2980 C   0  0  0  0  0  0  0  0  0  0  0  0
   46.2250   34.0970   44.4290 N   0  0  0  0  0  0  0  0  0  0  0  0
   45.3500   34.3350   45.4290 C   0  0  0  0  0  0  0  0  0  0  0  0
   44.4920   35.3590   45.3030 N   0  0  0  0  0  0  0  0  0  0  0  0
   45.2680   33.5980   46.5850 O   0  0  0  0  0  0  0  0  0  0  0  0
   46.0240   32.4400   46.8350 C   0  0  0  0  0  0  0  0  0  0  0  0
   47.3720   32.7040   46.9380 F   0  0  0  0  0  0  0  0  0  0  0  0
   45.7740   31.4710   45.8950 F   0  0  0  0  0  0  0  0  0  0  0  0
   45.6580   31.9570   48.1010 F   0  0  0  0  0  0  0  0  0  0  0  0
   49.3010   33.1310   42.5580 C   0  0  0  0  0  0  0  0  0  0  0  0
   48.7000   32.0620   42.8150 O   0  0  0  0  0  0  0  0  0  0  0  0
   50.6110   32.9400   42.1390 O   0  0  0  0  0  0  0  0  0  0  0  0
   50.9720   31.9110   41.2350 C   0  0  0  0  0  0  0  0  0  0  0  0
   52.2300   32.1460   40.7130 F   0  0  0  0  0  0  0  0  0  0  0  0
   50.8490   30.6610   41.7750 F   0  0  0  0  0  0  0  0  0  0  0  0
   50.1030   32.0270   40.1430 F   0  0  0  0  0  0  0  0  0  0  0  0
   46.8466   32.9376   40.9351 H   0  0  0  0  0  0  0  0  0  0  0  0
   45.9839   34.4276   40.6233 H   0  0  0  0  0  0  0  0  0  0  0  0
   47.8268   34.6916   39.1410 H   0  0  0  0  0  0  0  0  0  0  0  0
   48.9253   33.7444   40.2444 H   0  0  0  0  0  0  0  0  0  0  0  0
   50.3944   35.2729   41.7052 H   0  0  0  0  0  0  0  0  0  0  0  0
   49.2813   36.4785   42.4512 H   0  0  0  0  0  0  0  0  0  0  0  0
   48.8832   34.7096   43.7332 H   0  0  0  0  0  0  0  0  0  0  0  0
   43.8004   36.9572   44.1174 H   0  0  0  0  0  0  0  0  0  0  0  0
   45.4094   36.5383   42.2560 H   0  0  0  0  0  0  0  0  0  0  0  0
  1  6  1  0
  1  9  1  0
  2  1  1  0
  3  4  1  0
  3  2  1  0
  4  5  1  0
  5  6  1  0
  7 12  2  0
  8  9  2  0
  8  7  1  0
  9 10  1  0
 10 11  2  0
 11 13  1  0
 12 11  1  0
 13 14  1  0
 14 15  1  0
 14 17  1  0
 16 14  1  0
 18  6  1  0
 18 19  2  0
 20 18  1  0
 21 23  1  0
 21 20  1  0
 22 21  1  0
 24 21  1  0
  2 25  1  0
  2 26  1  0
  3 27  1  0
  3 28  1  0
  5 29  1  0
  5 30  1  0
  6 31  1  1
  7 32  1  0
  8 33  1  0
M  ISO  8  25  13  26  13  27  13  28  13  29  13  30  13  31  13  32  14
M  ISO  1  33  14
M  END
>  <minimizedAffinity>  (1) 
-5.75331402

>  <minimizedRMSD>  (1) 
0.40514338

$$$$
