
     RDKit          3D

 47 51  0  0  1  0  0  0  0  0999 V2000
   45.8380   29.4940   47.3330 C   0  0  0  0  0  0  0  0  0  0  0  0
   44.7800   28.8400   46.6510 N   0  0  0  0  0  0  0  0  0  0  0  0
   43.8540   29.4360   45.9000 N   0  0  0  0  0  0  0  0  0  0  0  0
   43.0200   28.4860   45.4190 C   0  0  0  0  0  0  0  0  0  0  0  0
   43.4220   27.2440   45.8750 C   0  0  0  0  0  0  0  0  0  0  0  0
   44.5410   27.5000   46.6530 C   0  0  0  0  0  0  0  0  0  0  0  0
   45.2850   26.4700   47.3290 N   0  0  0  0  0  0  0  0  0  0  0  0
   46.3480   25.7380   46.9360 C   0  0  0  0  0  0  0  0  0  0  0  0
   46.6800   24.9020   47.9320 N   0  0  0  0  0  0  0  0  0  0  0  0
   45.8200   25.1030   48.9670 C   0  0  0  0  0  0  0  0  0  0  0  0
   45.7330   24.5000   50.2190 C   0  0  0  0  0  0  0  0  0  0  0  0
   46.5470   23.6060   50.5330 O   0  0  0  0  0  0  0  0  0  0  0  0
   44.7770   24.8750   51.0940 N   0  0  0  0  0  0  0  0  0  0  0  0
   43.9360   25.8410   50.6920 C   0  0  0  0  0  0  0  0  0  0  0  0
   42.9340   26.2120   51.6500 N   0  0  0  0  0  0  0  0  0  0  0  0
   43.9910   26.4420   49.4980 N   0  0  0  0  0  0  0  0  0  0  0  0
   44.9360   26.0980   48.5840 C   0  0  0  0  0  0  0  0  0  0  0  0
   46.0150   30.9250   46.9410 C   0  0  2  0  0  0  0  0  0  0  0  0
   44.7330   34.8740   45.9290 C   0  0  0  0  0  0  0  0  0  0  0  0
   44.5600   35.6090   44.7630 C   0  0  0  0  0  0  0  0  0  0  0  0
   45.1520   35.1320   43.5840 C   0  0  0  0  0  0  0  0  0  0  0  0
   45.8610   33.9830   43.6350 N   0  0  0  0  0  0  0  0  0  0  0  0
   46.0220   33.2700   44.7910 C   0  0  0  0  0  0  0  0  0  0  0  0
   45.4530   33.7320   45.9140 N   0  0  0  0  0  0  0  0  0  0  0  0
   46.7610   32.0740   44.8720 N   0  0  0  0  0  0  0  0  0  0  0  0
   47.6420   31.8620   43.8550 C   0  0  0  0  0  0  0  0  0  0  0  0
   48.2600   30.6290   44.1620 C   0  0  0  0  0  0  0  0  0  0  0  0
   47.7330   30.1610   45.3310 N   0  0  0  0  0  0  0  0  0  0  0  0
   46.8250   31.0600   45.7400 C   0  0  0  0  0  0  0  0  0  0  0  0
   46.8190   31.6160   48.0820 C   0  0  0  0  0  0  0  0  0  0  0  0
   45.6321   29.4532   48.4128 H   0  0  0  0  0  0  0  0  0  0  0  0
   46.7664   28.9703   47.0612 H   0  0  0  0  0  0  0  0  0  0  0  0
   42.1550   28.6727   44.7656 H   0  0  0  0  0  0  0  0  0  0  0  0
   42.9572   26.2690   45.6668 H   0  0  0  0  0  0  0  0  0  0  0  0
   46.8566   25.8136   45.9636 H   0  0  0  0  0  0  0  0  0  0  0  0
   44.6964   24.4414   52.0248 H   0  0  0  0  0  0  0  0  0  0  0  0
   42.2487   26.9459   51.4205 H   0  0  0  0  0  0  0  0  0  0  0  0
   42.9001   25.7444   52.5671 H   0  0  0  0  0  0  0  0  0  0  0  0
   45.0217   31.3634   46.7647 H   0  0  0  0  0  0  0  0  0  0  0  0
   44.2813   35.2241   46.8689 H   0  0  0  0  0  0  0  0  0  0  0  0
   43.9744   36.5402   44.7641 H   0  0  0  0  0  0  0  0  0  0  0  0
   45.0413   35.6819   42.6378 H   0  0  0  0  0  0  0  0  0  0  0  0
   47.8309   32.5088   42.9855 H   0  0  0  0  0  0  0  0  0  0  0  0
   49.0347   30.1306   43.5608 H   0  0  0  0  0  0  0  0  0  0  0  0
   46.4321   31.2835   49.0565 H   0  0  0  0  0  0  0  0  0  0  0  0
   47.8818   31.3451   47.9977 H   0  0  0  0  0  0  0  0  0  0  0  0
   46.7110   32.7074   47.9977 H   0  0  0  0  0  0  0  0  0  0  0  0
  2  6  1  0
  2  1  1  0
  3  2  1  0
  4  5  1  0
  4  3  2  0
  5  6  2  0
  6  7  1  0
  7 17  1  0
  8  7  1  0
  8  9  2  0
  9 10  1  0
 10 11  1  0
 11 12  2  0
 11 13  1  0
 14 13  1  0
 14 15  1  0
 16 14  2  0
 17 10  2  0
 17 16  1  0
 18  1  1  0
 18 30  1  0
 20 19  2  0
 21 22  2  0
 21 20  1  0
 22 23  1  0
 23 25  1  0
 23 24  2  0
 24 19  1  0
 25 29  1  0
 26 27  2  0
 26 25  1  0
 27 28  1  0
 28 29  2  0
 29 18  1  0
  1 31  1  0
  1 32  1  0
  4 33  1  0
  5 34  1  0
  8 35  1  0
 13 36  1  0
 15 37  1  0
 15 38  1  0
 18 39  1  6
 19 40  1  0
 20 41  1  0
 21 42  1  0
 26 43  1  0
 27 44  1  0
 30 45  1  0
 30 46  1  0
 30 47  1  0
M  ISO  8  31   8  32   8  33  14  34  14  35  14  36   9  39   8  40  14
M  ISO  7  41  14  42  14  43  14  44  14  45   8  46   8  47   8
M  END
>  <minimizedAffinity>  (1) 
-6.57635689

>  <minimizedRMSD>  (1) 
2.83269167

$$$$
