
     RDKit          3D

 36 37  0  0  1  0  0  0  0  0999 V2000
   47.2390   34.4450   42.3410 N   0  0  0  0  0  0  0  0  0  0  0  0
   46.8990   34.0770   40.9730 C   0  0  0  0  0  0  0  0  0  0  0  0
   48.1230   34.5370   40.1770 C   0  0  0  0  0  0  0  0  0  0  0  0
   48.7030   35.6740   40.7100 O   0  0  0  0  0  0  0  0  0  0  0  0
   49.3540   35.4490   41.9170 C   0  0  0  0  0  0  0  0  0  0  0  0
   48.6820   34.3800   42.6670 C   0  0  2  0  0  0  0  0  0  0  0  0
   44.5280   36.1160   44.2440 C   0  0  0  0  0  0  0  0  0  0  0  0
   45.4000   35.8980   43.1840 C   0  0  0  0  0  0  0  0  0  0  0  0
   46.2520   34.8470   43.3110 C   0  0  0  0  0  0  0  0  0  0  0  0
   46.2180   34.0740   44.4360 N   0  0  0  0  0  0  0  0  0  0  0  0
   45.3570   34.3130   45.4490 C   0  0  0  0  0  0  0  0  0  0  0  0
   44.5110   35.3420   45.3430 N   0  0  0  0  0  0  0  0  0  0  0  0
   45.2800   33.5690   46.6020 O   0  0  0  0  0  0  0  0  0  0  0  0
   46.0330   32.3990   46.8340 C   0  0  0  0  0  0  0  0  0  0  0  0
   47.3760   32.6730   46.9460 F   0  0  0  0  0  0  0  0  0  0  0  0
   45.8010   31.4390   45.8840 F   0  0  0  0  0  0  0  0  0  0  0  0
   45.6660   31.9110   48.0970 F   0  0  0  0  0  0  0  0  0  0  0  0
   49.2200   33.0260   42.5050 C   0  0  0  0  0  0  0  0  0  0  0  0
   48.6530   31.9830   42.9100 O   0  0  0  0  0  0  0  0  0  0  0  0
   50.4260   32.8050   41.8720 O   0  0  0  0  0  0  0  0  0  0  0  0
   50.6460   31.8680   40.8570 C   0  0  0  0  0  0  0  0  0  0  0  0
   52.0850   31.5970   40.5660 C   0  0  0  0  0  0  0  0  0  0  0  0
   46.7531   32.9906   40.8807 H   0  0  0  0  0  0  0  0  0  0  0  0
   45.9597   34.5303   40.6234 H   0  0  0  0  0  0  0  0  0  0  0  0
   47.8123   34.7504   39.1436 H   0  0  0  0  0  0  0  0  0  0  0  0
   48.8700   33.7305   40.2155 H   0  0  0  0  0  0  0  0  0  0  0  0
   50.3949   35.1539   41.7184 H   0  0  0  0  0  0  0  0  0  0  0  0
   49.3316   36.3731   42.5133 H   0  0  0  0  0  0  0  0  0  0  0  0
   48.8720   34.5724   43.7332 H   0  0  0  0  0  0  0  0  0  0  0  0
   43.8221   36.9572   44.1811 H   0  0  0  0  0  0  0  0  0  0  0  0
   45.4005   36.5408   42.2914 H   0  0  0  0  0  0  0  0  0  0  0  0
   50.1714   30.9213   41.1546 H   0  0  0  0  0  0  0  0  0  0  0  0
   50.2161   32.2946   39.9388 H   0  0  0  0  0  0  0  0  0  0  0  0
   52.6371   31.4930   41.5117 H   0  0  0  0  0  0  0  0  0  0  0  0
   52.1729   30.6665   39.9859 H   0  0  0  0  0  0  0  0  0  0  0  0
   52.5053   32.4318   39.9859 H   0  0  0  0  0  0  0  0  0  0  0  0
  1  6  1  0
  1  9  1  0
  2  1  1  0
  3  4  1  0
  3  2  1  0
  4  5  1  0
  5  6  1  0
  7 12  2  0
  8  9  2  0
  8  7  1  0
  9 10  1  0
 10 11  2  0
 11 13  1  0
 12 11  1  0
 13 14  1  0
 14 15  1  0
 14 17  1  0
 16 14  1  0
 18  6  1  0
 18 19  2  0
 20 18  1  0
 21 20  1  0
 22 21  1  0
  2 23  1  0
  2 24  1  0
  3 25  1  0
  3 26  1  0
  5 27  1  0
  5 28  1  0
  6 29  1  1
  7 30  1  0
  8 31  1  0
 21 32  1  0
 21 33  1  0
 22 34  1  0
 22 35  1  0
 22 36  1  0
M  ISO  8  23  13  24  13  25  13  26  13  27  13  28  13  29  13  30  14
M  ISO  6  31  14  32   8  33   8  34   8  35   8  36   8
M  END
>  <minimizedAffinity>  (1) 
-5.47461081

>  <minimizedRMSD>  (1) 
0.396503299

$$$$
