
     RDKit          3D

 23 24  0  0  0  0  0  0  0  0999 V2000
   45.5220   34.9320   43.8040 C   0  0  0  0  0  0  0  0  0  0  0  0
   46.6690   34.5500   43.0840 C   0  0  0  0  0  0  0  0  0  0  0  0
   47.4590   33.5340   43.6430 C   0  0  0  0  0  0  0  0  0  0  0  0
   47.1010   32.9710   44.8240 N   0  0  0  0  0  0  0  0  0  0  0  0
   45.9790   33.3830   45.4740 C   0  0  0  0  0  0  0  0  0  0  0  0
   45.2060   34.3420   44.9770 N   0  0  0  0  0  0  0  0  0  0  0  0
   48.6750   33.0430   42.9990 C   0  0  0  0  0  0  0  0  0  0  0  0
   49.6890   33.9350   42.7750 C   0  0  0  0  0  0  0  0  0  0  0  0
   50.8770   33.5220   42.1630 C   0  0  0  0  0  0  0  0  0  0  0  0
   51.0420   32.1970   41.7730 C   0  0  0  0  0  0  0  0  0  0  0  0
   50.0150   31.2900   41.9990 C   0  0  0  0  0  0  0  0  0  0  0  0
   48.8410   31.7220   42.6090 C   0  0  0  0  0  0  0  0  0  0  0  0
   44.6750   36.0100   43.2200 C   0  0  0  0  0  0  0  0  0  0  0  0
   43.4790   36.0250   43.9430 F   0  0  0  0  0  0  0  0  0  0  0  0
   45.2210   37.2630   43.3810 F   0  0  0  0  0  0  0  0  0  0  0  0
   44.3670   35.7350   41.9090 F   0  0  0  0  0  0  0  0  0  0  0  0
   46.9338   35.0254   42.1281 H   0  0  0  0  0  0  0  0  0  0  0  0
   45.7066   32.9125   46.4302 H   0  0  0  0  0  0  0  0  0  0  0  0
   49.5685   34.9853   43.0788 H   0  0  0  0  0  0  0  0  0  0  0  0
   51.6846   34.2484   41.9893 H   0  0  0  0  0  0  0  0  0  0  0  0
   51.9756   31.8713   41.2910 H   0  0  0  0  0  0  0  0  0  0  0  0
   50.1285   30.2380   41.6982 H   0  0  0  0  0  0  0  0  0  0  0  0
   48.0286   31.0017   42.7854 H   0  0  0  0  0  0  0  0  0  0  0  0
  1  6  2  0
  2  3  2  0
  2  1  1  0
  3  4  1  0
  4  5  2  0
  6  5  1  0
  7  3  1  0
  8  7  2  0
  9  8  1  0
 10 11  1  0
 10  9  2  0
 11 12  2  0
 12  7  1  0
 13 15  1  0
 13  1  1  0
 13 14  1  0
 16 13  1  0
  2 17  1  0
  5 18  1  0
  8 19  1  0
  9 20  1  0
 10 21  1  0
 11 22  1  0
 12 23  1  0
M  ISO  7  17  14  18  14  19  14  20  14  21  14  22  14  23  14
M  END
>  <minimizedAffinity>  (1) 
-4.84468317

>  <minimizedRMSD>  (1) 
2.75782299

$$$$
