
     RDKit          3D

 29 30  0  0  0  0  0  0  0  0999 V2000
   45.8410   34.6690   43.2960 C   0  0  0  0  0  0  0  0  0  0  0  0
   45.9100   34.6530   41.9010 C   0  0  0  0  0  0  0  0  0  0  0  0
   46.9410   33.9480   41.2910 C   0  0  0  0  0  0  0  0  0  0  0  0
   47.8250   33.3120   42.0730 N   0  0  0  0  0  0  0  0  0  0  0  0
   47.7550   33.3290   43.4340 C   0  0  0  0  0  0  0  0  0  0  0  0
   46.7550   34.0130   44.0270 N   0  0  0  0  0  0  0  0  0  0  0  0
   47.1100   33.8640   39.8510 C   0  0  0  0  0  0  0  0  0  0  0  0
   48.2200   34.5110   39.3160 C   0  0  0  0  0  0  0  0  0  0  0  0
   48.4430   34.4680   37.9220 C   0  0  0  0  0  0  0  0  0  0  0  0
   47.5620   33.7870   37.0910 C   0  0  0  0  0  0  0  0  0  0  0  0
   46.4600   33.1470   37.6400 C   0  0  0  0  0  0  0  0  0  0  0  0
   46.2580   33.2000   39.0100 C   0  0  0  0  0  0  0  0  0  0  0  0
   44.7580   35.4080   44.0040 C   0  0  0  0  0  0  0  0  0  0  0  0
   44.9320   36.9190   43.7980 C   0  0  0  0  0  0  0  0  0  0  0  0
   44.7400   35.1400   45.4870 C   0  0  0  0  0  0  0  0  0  0  0  0
   45.1627   35.1881   41.2967 H   0  0  0  0  0  0  0  0  0  0  0  0
   48.5017   32.7937   44.0389 H   0  0  0  0  0  0  0  0  0  0  0  0
   48.9175   35.0511   39.9731 H   0  0  0  0  0  0  0  0  0  0  0  0
   49.3187   34.9763   37.4920 H   0  0  0  0  0  0  0  0  0  0  0  0
   47.7369   33.7554   36.0055 H   0  0  0  0  0  0  0  0  0  0  0  0
   45.7543   32.6034   36.9947 H   0  0  0  0  0  0  0  0  0  0  0  0
   45.3817   32.6903   39.4370 H   0  0  0  0  0  0  0  0  0  0  0  0
   43.8096   35.0523   43.5750 H   0  0  0  0  0  0  0  0  0  0  0  0
   44.9895   37.4182   44.7765 H   0  0  0  0  0  0  0  0  0  0  0  0
   45.8579   37.1081   43.2349 H   0  0  0  0  0  0  0  0  0  0  0  0
   44.0734   37.3136   43.2349 H   0  0  0  0  0  0  0  0  0  0  0  0
   44.8040   36.0930   46.0326 H   0  0  0  0  0  0  0  0  0  0  0  0
   43.8053   34.6259   45.7554 H   0  0  0  0  0  0  0  0  0  0  0  0
   45.5976   34.5055   45.7554 H   0  0  0  0  0  0  0  0  0  0  0  0
  1 13  1  0
  1  6  2  0
  2  1  1  0
  3  2  2  0
  3  4  1  0
  4  5  2  0
  5  6  1  0
  7  3  1  0
  8  7  2  0
  9  8  1  0
 10 11  1  0
 10  9  2  0
 11 12  2  0
 12  7  1  0
 13 15  1  0
 14 13  1  0
  2 16  1  0
  5 17  1  0
  8 18  1  0
  9 19  1  0
 10 20  1  0
 11 21  1  0
 12 22  1  0
 13 23  1  0
 14 24  1  0
 14 25  1  0
 14 26  1  0
 15 27  1  0
 15 28  1  0
 15 29  1  0
M  ISO  8  16  14  17  14  18  14  19  14  20  14  21  14  22  14  23   8
M  ISO  6  24   8  25   8  26   8  27   8  28   8  29   8
M  END
>  <minimizedAffinity>  (1) 
-4.5382843

>  <minimizedRMSD>  (1) 
2.61492443

$$$$
