
     RDKit          3D

 43 46  0  0  1  0  0  0  0  0999 V2000
   46.1810   34.7480   41.8990 C   0  0  0  0  0  0  0  0  0  0  0  0
   46.2780   34.0880   40.6780 C   0  0  0  0  0  0  0  0  0  0  0  0
   47.4750   34.1030   39.9760 C   0  0  0  0  0  0  0  0  0  0  0  0
   48.5030   34.7580   40.5090 N   0  0  0  0  0  0  0  0  0  0  0  0
   48.4320   35.4110   41.7040 C   0  0  0  0  0  0  0  0  0  0  0  0
   47.2680   35.3950   42.3820 N   0  0  0  0  0  0  0  0  0  0  0  0
   47.6510   33.4410   38.6910 C   0  0  0  0  0  0  0  0  0  0  0  0
   48.3470   34.1730   37.7220 C   0  0  0  0  0  0  0  0  0  0  0  0
   48.5580   33.6050   36.4450 C   0  0  0  0  0  0  0  0  0  0  0  0
   48.0790   32.3470   36.1660 C   0  0  0  0  0  0  0  0  0  0  0  0
   47.3860   31.6270   37.1370 C   0  0  0  0  0  0  0  0  0  0  0  0
   47.1920   32.2020   38.3810 C   0  0  0  0  0  0  0  0  0  0  0  0
   44.9410   34.7370   42.7140 C   0  0  2  0  0  0  0  0  0  0  0  0
   43.8580   35.5720   41.9310 C   0  0  0  0  0  0  0  0  0  0  0  0
   45.0800   35.3930   44.0360 C   0  0  0  0  0  0  0  0  0  0  0  0
   45.1840   34.5690   45.2220 C   0  0  0  0  0  0  0  0  0  0  0  0
   44.4130   35.0010   46.3210 C   0  0  0  0  0  0  0  0  0  0  0  0
   44.5820   34.1750   47.3370 N   0  0  0  0  0  0  0  0  0  0  0  0
   45.4360   33.1680   47.0290 C   0  0  0  0  0  0  0  0  0  0  0  0
   45.9990   32.0450   47.6230 C   0  0  0  0  0  0  0  0  0  0  0  0
   46.8720   31.2580   46.8910 C   0  0  0  0  0  0  0  0  0  0  0  0
   47.2120   31.5500   45.5730 C   0  0  0  0  0  0  0  0  0  0  0  0
   46.6480   32.6670   44.9970 C   0  0  0  0  0  0  0  0  0  0  0  0
   45.7790   33.4530   45.7220 C   0  0  0  0  0  0  0  0  0  0  0  0
   45.4068   33.5549   40.2696 H   0  0  0  0  0  0  0  0  0  0  0  0
   49.3081   35.9405   42.1065 H   0  0  0  0  0  0  0  0  0  0  0  0
   48.7258   35.1798   37.9519 H   0  0  0  0  0  0  0  0  0  0  0  0
   49.1050   34.1691   35.6752 H   0  0  0  0  0  0  0  0  0  0  0  0
   48.2436   31.9067   35.1715 H   0  0  0  0  0  0  0  0  0  0  0  0
   47.0002   30.6202   36.9189 H   0  0  0  0  0  0  0  0  0  0  0  0
   46.6451   31.6332   39.1474 H   0  0  0  0  0  0  0  0  0  0  0  0
   44.6801   33.6814   42.8802 H   0  0  0  0  0  0  0  0  0  0  0  0
   43.1979   36.0809   42.6488 H   0  0  0  0  0  0  0  0  0  0  0  0
   44.3585   36.3202   41.2988 H   0  0  0  0  0  0  0  0  0  0  0  0
   43.2617   34.8977   41.2988 H   0  0  0  0  0  0  0  0  0  0  0  0
   45.9875   36.0132   43.9940 H   0  0  0  0  0  0  0  0  0  0  0  0
   44.1262   35.9249   44.1677 H   0  0  0  0  0  0  0  0  0  0  0  0
   43.7680   35.8920   46.3303 H   0  0  0  0  0  0  0  0  0  0  0  0
   44.1213   34.2825   48.2519 H   0  0  0  0  0  0  0  0  0  0  0  0
   45.7539   31.7841   48.6631 H   0  0  0  0  0  0  0  0  0  0  0  0
   47.3127   30.3702   47.3681 H   0  0  0  0  0  0  0  0  0  0  0  0
   47.9077   30.9102   45.0104 H   0  0  0  0  0  0  0  0  0  0  0  0
   46.8916   32.9317   43.9575 H   0  0  0  0  0  0  0  0  0  0  0  0
  1  6  1  0
  1 13  1  0
  2  1  2  0
  3  4  2  0
  3  2  1  0
  4  5  1  0
  5  6  2  0
  7  3  1  0
  8  7  2  0
  9  8  1  0
 10  9  2  0
 10 11  1  0
 11 12  2  0
 12  7  1  0
 13 15  1  0
 14 13  1  0
 15 16  1  0
 16 24  1  0
 16 17  2  0
 17 18  1  0
 19 18  1  0
 19 20  2  0
 21 20  1  0
 22 21  2  0
 23 22  1  0
 23 24  2  0
 24 19  1  0
  2 25  1  0
  5 26  1  0
  8 27  1  0
  9 28  1  0
 10 29  1  0
 11 30  1  0
 12 31  1  0
 13 32  1  1
 14 33  1  0
 14 34  1  0
 14 35  1  0
 15 36  1  0
 15 37  1  0
 17 38  1  0
 18 39  1  0
 20 40  1  0
 21 41  1  0
 22 42  1  0
 23 43  1  0
M  ISO  8  25  14  26  14  27  14  28  14  29  14  30  14  31  14  32   8
M  ISO  8  33   8  34   8  35   8  36   8  37   8  38  14  39   9  40  14
M  ISO  3  41  14  42  14  43  14
M  END
>  <minimizedAffinity>  (1) 
-6.44145727

>  <minimizedRMSD>  (1) 
1.80494356

$$$$
