
     RDKit          3D

 30 31  0  0  1  0  0  0  0  0999 V2000
   46.1010   34.3300   43.2940 C   0  0  0  0  0  0  0  0  0  0  0  0
   46.0330   34.3140   41.9000 C   0  0  0  0  0  0  0  0  0  0  0  0
   47.1400   33.8330   41.1900 C   0  0  0  0  0  0  0  0  0  0  0  0
   48.2060   33.4120   41.8680 N   0  0  0  0  0  0  0  0  0  0  0  0
   48.2720   33.4290   43.2340 C   0  0  0  0  0  0  0  0  0  0  0  0
   47.2120   33.8910   43.9290 N   0  0  0  0  0  0  0  0  0  0  0  0
   47.1700   33.7830   39.7390 C   0  0  0  0  0  0  0  0  0  0  0  0
   48.2400   34.4440   39.1210 C   0  0  0  0  0  0  0  0  0  0  0  0
   48.3650   34.4590   37.7240 C   0  0  0  0  0  0  0  0  0  0  0  0
   47.4270   33.8170   36.9430 C   0  0  0  0  0  0  0  0  0  0  0  0
   46.3800   33.1700   37.5610 C   0  0  0  0  0  0  0  0  0  0  0  0
   46.2600   33.1590   38.9520 C   0  0  0  0  0  0  0  0  0  0  0  0
   44.9630   34.8080   44.1170 C   0  0  2  0  0  0  0  0  0  0  0  0
   44.8450   36.3510   43.9600 C   0  0  0  0  0  0  0  0  0  0  0  0
   45.1050   34.5080   45.5710 C   0  0  0  0  0  0  0  0  0  0  0  0
   44.4320   35.5490   46.2520 O   0  0  0  0  0  0  0  0  0  0  0  0
   45.1348   34.6694   41.3737 H   0  0  0  0  0  0  0  0  0  0  0  0
   49.1723   33.0727   43.7561 H   0  0  0  0  0  0  0  0  0  0  0  0
   48.9912   34.9575   39.7391 H   0  0  0  0  0  0  0  0  0  0  0  0
   49.2099   34.9820   37.2521 H   0  0  0  0  0  0  0  0  0  0  0  0
   47.5135   33.8216   35.8464 H   0  0  0  0  0  0  0  0  0  0  0  0
   45.6261   32.6535   36.9488 H   0  0  0  0  0  0  0  0  0  0  0  0
   45.4122   32.6348   39.4172 H   0  0  0  0  0  0  0  0  0  0  0  0
   44.0707   34.2763   43.7548 H   0  0  0  0  0  0  0  0  0  0  0  0
   44.8092   36.8191   44.9548 H   0  0  0  0  0  0  0  0  0  0  0  0
   45.7167   36.7310   43.4071 H   0  0  0  0  0  0  0  0  0  0  0  0
   43.9256   36.5941   43.4071 H   0  0  0  0  0  0  0  0  0  0  0  0
   44.6454   33.5370   45.8075 H   0  0  0  0  0  0  0  0  0  0  0  0
   46.1623   34.4498   45.8687 H   0  0  0  0  0  0  0  0  0  0  0  0
   44.5190   35.4145   47.2290 H   0  0  0  0  0  0  0  0  0  0  0  0
  1  6  2  0
  1 13  1  0
  2  1  1  0
  3  4  1  0
  3  2  2  0
  4  5  2  0
  5  6  1  0
  7  3  1  0
  8  7  2  0
  9  8  1  0
 10 11  1  0
 10  9  2  0
 11 12  2  0
 12  7  1  0
 13 15  1  0
 14 13  1  0
 15 16  1  0
  2 17  1  0
  5 18  1  0
  8 19  1  0
  9 20  1  0
 10 21  1  0
 11 22  1  0
 12 23  1  0
 13 24  1  6
 14 25  1  0
 14 26  1  0
 14 27  1  0
 15 28  1  0
 15 29  1  0
 16 30  1  0
M  ISO  8  17  14  18  14  19  14  20  14  21  14  22  14  23  14  24   8
M  ISO  6  25   8  26   8  27   8  28   8  29   8  30   3
M  END
>  <minimizedAffinity>  (1) 
-5.05881166

>  <minimizedRMSD>  (1) 
0.561451674

$$$$
