
     RDKit          3D

 33 35  0  0  0  0  0  0  0  0999 V2000
   44.8430   35.8850   45.0410 C   0  0  0  0  0  0  0  0  0  0  0  0
   44.1260   35.9090   43.8200 C   0  0  0  0  0  0  0  0  0  0  0  0
   44.1110   34.7540   43.0610 C   0  0  0  0  0  0  0  0  0  0  0  0
   44.7600   33.6390   43.4690 N   0  0  0  0  0  0  0  0  0  0  0  0
   45.4500   33.6410   44.6590 C   0  0  0  0  0  0  0  0  0  0  0  0
   45.4800   34.7590   45.4240 N   0  0  0  0  0  0  0  0  0  0  0  0
   43.3840   34.8020   41.8380 N   0  0  0  0  0  0  0  0  0  0  0  0
   42.0630   35.0010   41.6850 C   0  0  0  0  0  0  0  0  0  0  0  0
   41.5170   35.0180   40.4190 C   0  0  0  0  0  0  0  0  0  0  0  0
   40.0730   35.2350   40.2640 C   0  0  0  0  0  0  0  0  0  0  0  0
   42.2860   34.8380   39.2910 C   0  0  0  0  0  0  0  0  0  0  0  0
   41.7870   34.8530   38.1380 O   0  0  0  0  0  0  0  0  0  0  0  0
   43.6000   34.6420   39.4840 N   0  0  0  0  0  0  0  0  0  0  0  0
   44.1340   34.6260   40.7370 C   0  0  0  0  0  0  0  0  0  0  0  0
   45.3940   34.4300   40.7510 O   0  0  0  0  0  0  0  0  0  0  0  0
   46.1440   32.4420   45.0940 C   0  0  0  0  0  0  0  0  0  0  0  0
   46.9540   31.6090   44.3330 C   0  0  0  0  0  0  0  0  0  0  0  0
   47.4220   30.5920   45.1010 N   0  0  0  0  0  0  0  0  0  0  0  0
   46.8970   30.8030   46.3430 C   0  0  0  0  0  0  0  0  0  0  0  0
   46.1260   31.9180   46.3380 N   0  0  0  0  0  0  0  0  0  0  0  0
   45.3970   32.4760   47.4620 C   0  0  0  0  0  0  0  0  0  0  0  0
   44.5090   31.5410   48.0300 F   0  0  0  0  0  0  0  0  0  0  0  0
   44.6720   33.6120   47.1110 F   0  0  0  0  0  0  0  0  0  0  0  0
   46.2730   32.7930   48.4970 F   0  0  0  0  0  0  0  0  0  0  0  0
   44.8805   36.7825   45.6758 H   0  0  0  0  0  0  0  0  0  0  0  0
   43.5992   36.8155   43.4872 H   0  0  0  0  0  0  0  0  0  0  0  0
   41.4209   35.1495   42.5657 H   0  0  0  0  0  0  0  0  0  0  0  0
   39.6042   35.3055   41.2566 H   0  0  0  0  0  0  0  0  0  0  0  0
   39.9000   36.1692   39.7096 H   0  0  0  0  0  0  0  0  0  0  0  0
   39.6331   34.3929   39.7096 H   0  0  0  0  0  0  0  0  0  0  0  0
   44.2153   34.5012   38.6701 H   0  0  0  0  0  0  0  0  0  0  0  0
   47.1824   31.7520   43.2665 H   0  0  0  0  0  0  0  0  0  0  0  0
   47.0736   30.1623   47.2195 H   0  0  0  0  0  0  0  0  0  0  0  0
  1  6  2  0
  2  1  1  0
  3  4  1  0
  3  2  2  0
  4  5  2  0
  5 16  1  0
  5  6  1  0
  7  3  1  0
  8  7  1  0
  9  8  2  0
 10  9  1  0
 11 13  1  0
 11  9  1  0
 12 11  2  0
 13 14  1  0
 14 15  2  0
 14  7  1  0
 16 20  1  0
 17 16  2  0
 17 18  1  0
 18 19  2  0
 20 19  1  0
 20 21  1  0
 21 22  1  0
 21 24  1  0
 23 21  1  0
  1 25  1  0
  2 26  1  0
  8 27  1  0
 10 28  1  0
 10 29  1  0
 10 30  1  0
 13 31  1  0
 17 32  1  0
 19 33  1  0
M  ISO  8  25  14  26  14  27  14  28   8  29   8  30   8  31   9  32  14
M  ISO  1  33  14
M  END
>  <minimizedAffinity>  (1) 
-5.89325285

>  <minimizedRMSD>  (1) 
1.32217741

$$$$
