
     RDKit          3D

 26 27  0  0  0  0  0  0  0  0999 V2000
   45.2920   34.4010   45.5800 C   0  0  0  0  0  0  0  0  0  0  0  0
   45.3320   34.5260   44.1750 C   0  0  0  0  0  0  0  0  0  0  0  0
   45.6970   33.4190   43.4110 C   0  0  0  0  0  0  0  0  0  0  0  0
   46.0000   32.2700   44.0610 N   0  0  0  0  0  0  0  0  0  0  0  0
   45.9590   32.1610   45.3840 C   0  0  0  0  0  0  0  0  0  0  0  0
   45.6090   33.2130   46.1530 N   0  0  0  0  0  0  0  0  0  0  0  0
   46.2990   30.9150   45.9370 N   0  0  0  0  0  0  0  0  0  0  0  0
   47.2810   30.1420   45.3790 C   0  0  0  0  0  0  0  0  0  0  0  0
   47.4060   29.0140   46.1000 N   0  0  0  0  0  0  0  0  0  0  0  0
   46.4830   29.1270   47.0970 C   0  0  0  0  0  0  0  0  0  0  0  0
   45.8200   30.2940   46.9810 N   0  0  0  0  0  0  0  0  0  0  0  0
   46.3050   28.1200   48.0870 N   0  0  0  0  0  0  0  0  0  0  0  0
   45.1750   27.2570   48.0260 C   0  0  0  0  0  0  0  0  0  0  0  0
   44.7200   26.8780   46.8840 N   0  0  0  0  0  0  0  0  0  0  0  0
   44.5310   26.7970   49.2110 N   0  0  0  0  0  0  0  0  0  0  0  0
   45.0710   27.1190   45.9570 H   0  0  0  0  0  0  0  0  0  0  0  0
   44.9750   35.8490   43.6160 C   0  0  0  0  0  0  0  0  0  0  0  0
   45.9960   36.2950   42.7620 F   0  0  0  0  0  0  0  0  0  0  0  0
   44.8060   36.8280   44.5790 F   0  0  0  0  0  0  0  0  0  0  0  0
   43.8510   35.7980   42.8350 F   0  0  0  0  0  0  0  0  0  0  0  0
   45.0062   35.2597   46.2053 H   0  0  0  0  0  0  0  0  0  0  0  0
   45.7378   33.4767   42.3133 H   0  0  0  0  0  0  0  0  0  0  0  0
   47.8709   30.4009   44.4874 H   0  0  0  0  0  0  0  0  0  0  0  0
   46.9930   28.0160   48.8464 H   0  0  0  0  0  0  0  0  0  0  0  0
   43.7144   26.1728   49.1442 H   0  0  0  0  0  0  0  0  0  0  0  0
   44.8821   27.0887   50.1343 H   0  0  0  0  0  0  0  0  0  0  0  0
  1  6  2  0
  2  1  1  0
  3  4  1  0
  3  2  2  0
  4  5  2  0
  5  7  1  0
  5  6  1  0
  7 11  1  0
  8  7  1  0
  8  9  2  0
  9 10  1  0
 10 12  1  0
 11 10  2  0
 13 12  1  0
 13 15  1  0
 14 13  2  0
 16 14  1  0
 17  2  1  0
 17 19  1  0
 18 17  1  0
 20 17  1  0
  1 21  1  0
  3 22  1  0
  8 23  1  0
 12 24  1  0
 15 25  1  0
 15 26  1  0
M  ISO  3  21  14  22  14  23  14
M  END
>  <minimizedAffinity>  (1) 
-5.20239067

>  <minimizedRMSD>  (1) 
2.32535553

$$$$
