
     RDKit          3D

 20 21  0  0  0  0  0  0  0  0999 V2000
   45.0240   34.8760   44.9230 C   0  0  0  0  0  0  0  0  0  0  0  0
   45.9410   34.7160   43.8820 C   0  0  0  0  0  0  0  0  0  0  0  0
   46.9300   33.7440   43.9950 C   0  0  0  0  0  0  0  0  0  0  0  0
   46.9490   32.9960   45.1210 N   0  0  0  0  0  0  0  0  0  0  0  0
   46.0560   33.1610   46.1190 C   0  0  0  0  0  0  0  0  0  0  0  0
   45.1090   34.0840   46.0240 N   0  0  0  0  0  0  0  0  0  0  0  0
   46.2270   32.2930   47.2150 N   0  0  0  0  0  0  0  0  0  0  0  0
   47.4580   31.8920   47.6450 C   0  0  0  0  0  0  0  0  0  0  0  0
   47.3190   31.0710   48.6940 N   0  0  0  0  0  0  0  0  0  0  0  0
   45.9770   30.9910   48.8810 C   0  0  0  0  0  0  0  0  0  0  0  0
   45.2900   31.7440   47.9690 N   0  0  0  0  0  0  0  0  0  0  0  0
   45.7830   35.6230   42.7060 C   0  0  0  0  0  0  0  0  0  0  0  0
   47.0110   35.7860   42.0740 F   0  0  0  0  0  0  0  0  0  0  0  0
   45.3100   36.8700   43.0350 F   0  0  0  0  0  0  0  0  0  0  0  0
   44.9630   35.0570   41.7460 F   0  0  0  0  0  0  0  0  0  0  0  0
   45.2100   30.2840   49.8260 O   0  0  0  0  0  0  0  0  0  0  0  0
   44.2359   35.6402   44.8520 H   0  0  0  0  0  0  0  0  0  0  0  0
   47.6704   33.5895   43.1963 H   0  0  0  0  0  0  0  0  0  0  0  0
   48.4165   32.1960   47.1991 H   0  0  0  0  0  0  0  0  0  0  0  0
   44.2222   30.3473   49.8088 H   0  0  0  0  0  0  0  0  0  0  0  0
  1  6  2  0
  2  3  2  0
  2  1  1  0
  3  4  1  0
  4  5  2  0
  5  7  1  0
  6  5  1  0
  7  8  1  0
  7 11  1  0
  8  9  2  0
  9 10  1  0
 10 16  1  0
 11 10  2  0
 12 14  1  0
 12  2  1  0
 13 12  1  0
 15 12  1  0
  1 17  1  0
  3 18  1  0
  8 19  1  0
 16 20  1  0
M  ISO  4  17  14  18  14  19  14  20   3
M  END
>  <minimizedAffinity>  (1) 
-5.2749753

>  <minimizedRMSD>  (1) 
0.401975363

$$$$
