
     RDKit          3D

 24 25  0  0  0  0  0  0  0  0999 V2000
   44.5490   35.6210   44.4530 C   0  0  0  0  0  0  0  0  0  0  0  0
   44.6000   34.9630   43.2060 C   0  0  0  0  0  0  0  0  0  0  0  0
   45.0030   33.6380   43.1820 C   0  0  0  0  0  0  0  0  0  0  0  0
   45.3250   33.0430   44.3520 N   0  0  0  0  0  0  0  0  0  0  0  0
   45.2730   33.6720   45.5200 C   0  0  0  0  0  0  0  0  0  0  0  0
   44.8900   34.9420   45.5720 N   0  0  0  0  0  0  0  0  0  0  0  0
   45.6350   32.9290   46.6520 N   0  0  0  0  0  0  0  0  0  0  0  0
   46.6090   31.9850   46.6160 C   0  0  0  0  0  0  0  0  0  0  0  0
   46.7470   31.4330   47.8360 N   0  0  0  0  0  0  0  0  0  0  0  0
   45.8340   32.0670   48.6060 C   0  0  0  0  0  0  0  0  0  0  0  0
   45.1550   32.9800   47.8800 N   0  0  0  0  0  0  0  0  0  0  0  0
   45.5590   31.8570   50.0080 N   0  0  0  0  0  0  0  0  0  0  0  0
   44.2160   35.7530   42.0140 C   0  0  0  0  0  0  0  0  0  0  0  0
   44.8220   35.2300   40.8790 F   0  0  0  0  0  0  0  0  0  0  0  0
   44.6010   37.0900   42.1040 F   0  0  0  0  0  0  0  0  0  0  0  0
   42.8690   35.7100   41.7850 F   0  0  0  0  0  0  0  0  0  0  0  0
   47.4860   31.5040   45.5030 C   0  0  0  0  0  0  0  0  0  0  0  0
   44.2357   36.6736   44.5145 H   0  0  0  0  0  0  0  0  0  0  0  0
   45.0596   33.0835   42.2337 H   0  0  0  0  0  0  0  0  0  0  0  0
   44.8303   32.4123   50.4787 H   0  0  0  0  0  0  0  0  0  0  0  0
   46.0915   31.1519   50.5373 H   0  0  0  0  0  0  0  0  0  0  0  0
   48.3772   31.0152   45.9235 H   0  0  0  0  0  0  0  0  0  0  0  0
   46.9308   30.7841   44.8837 H   0  0  0  0  0  0  0  0  0  0  0  0
   47.7946   32.3591   44.8837 H   0  0  0  0  0  0  0  0  0  0  0  0
  1  6  2  0
  2  1  1  0
  3  2  2  0
  3  4  1  0
  4  5  2  0
  5  6  1  0
  5  7  1  0
  7 11  1  0
  8  7  1  0
  8  9  2  0
  9 10  1  0
 10 12  1  0
 11 10  2  0
 13 15  1  0
 13  2  1  0
 14 13  1  0
 16 13  1  0
 17  8  1  0
  1 18  1  0
  3 19  1  0
 12 20  1  0
 12 21  1  0
 17 22  1  0
 17 23  1  0
 17 24  1  0
M  ISO  5  18  14  19  14  22   8  23   8  24   8
M  END
>  <minimizedAffinity>  (1) 
-5.1731782

>  <minimizedRMSD>  (1) 
1.55691004

$$$$
