
     RDKit          3D

 24 25  0  0  0  0  0  0  0  0999 V2000
   44.9920   35.1260   44.4930 C   0  0  0  0  0  0  0  0  0  0  0  0
   44.7030   34.5570   43.2470 C   0  0  0  0  0  0  0  0  0  0  0  0
   44.9340   33.1870   43.0530 C   0  0  0  0  0  0  0  0  0  0  0  0
   45.4300   32.4960   44.1030 N   0  0  0  0  0  0  0  0  0  0  0  0
   45.7040   33.0260   45.2750 C   0  0  0  0  0  0  0  0  0  0  0  0
   45.4870   34.3340   45.4760 N   0  0  0  0  0  0  0  0  0  0  0  0
   46.2240   32.1680   46.2510 N   0  0  0  0  0  0  0  0  0  0  0  0
   47.0850   31.1870   45.9780 C   0  0  0  0  0  0  0  0  0  0  0  0
   47.3960   30.5440   47.1110 N   0  0  0  0  0  0  0  0  0  0  0  0
   46.6990   31.1630   48.0860 C   0  0  0  0  0  0  0  0  0  0  0  0
   45.9760   32.1620   47.5580 N   0  0  0  0  0  0  0  0  0  0  0  0
   46.6910   30.8650   49.4900 N   0  0  0  0  0  0  0  0  0  0  0  0
   44.1750   35.4590   42.2060 C   0  0  0  0  0  0  0  0  0  0  0  0
   44.6330   35.0610   40.9420 F   0  0  0  0  0  0  0  0  0  0  0  0
   44.5690   36.7770   42.3650 F   0  0  0  0  0  0  0  0  0  0  0  0
   42.8130   35.4370   42.1310 F   0  0  0  0  0  0  0  0  0  0  0  0
   47.7380   30.7100   44.7380 C   0  0  0  0  0  0  0  0  0  0  0  0
   47.9120   29.5330   44.4030 O   0  0  0  0  0  0  0  0  0  0  0  0
   48.2640   31.5120   43.7430 O   0  0  0  0  0  0  0  0  0  0  0  0
   44.8204   36.1977   44.6716 H   0  0  0  0  0  0  0  0  0  0  0  0
   44.7213   32.6980   42.0909 H   0  0  0  0  0  0  0  0  0  0  0  0
   46.1077   31.4213   50.1312 H   0  0  0  0  0  0  0  0  0  0  0  0
   47.2686   30.0948   49.8563 H   0  0  0  0  0  0  0  0  0  0  0  0
   48.6835   31.1010   42.9460 H   0  0  0  0  0  0  0  0  0  0  0  0
  1  6  2  0
  2  1  1  0
  3  2  2  0
  3  4  1  0
  4  5  2  0
  5  6  1  0
  5  7  1  0
  7 11  1  0
  8  7  1  0
  8  9  2  0
  9 10  1  0
 10 12  1  0
 11 10  2  0
 13 15  1  0
 13  2  1  0
 14 13  1  0
 16 13  1  0
 17  8  1  0
 18 17  2  0
 19 17  1  0
  1 20  1  0
  3 21  1  0
 12 22  1  0
 12 23  1  0
 19 24  1  0
M  ISO  3  20  14  21  14  24   3
M  END
>  <minimizedAffinity>  (1) 
-4.95421314

>  <minimizedRMSD>  (1) 
2.09015059

$$$$
