
     RDKit          3D

 22 23  0  0  0  0  0  0  0  0999 V2000
   44.9710   35.1330   44.7980 C   0  0  0  0  0  0  0  0  0  0  0  0
   45.9160   34.7770   43.8220 C   0  0  0  0  0  0  0  0  0  0  0  0
   46.7660   33.7080   44.0830 C   0  0  0  0  0  0  0  0  0  0  0  0
   46.6420   33.0580   45.2700 N   0  0  0  0  0  0  0  0  0  0  0  0
   45.7520   33.4000   46.1780 C   0  0  0  0  0  0  0  0  0  0  0  0
   44.9220   34.4280   45.9490 N   0  0  0  0  0  0  0  0  0  0  0  0
   45.7090   32.6590   47.3720 N   0  0  0  0  0  0  0  0  0  0  0  0
   46.8540   32.2000   47.9430 C   0  0  0  0  0  0  0  0  0  0  0  0
   46.5450   31.5240   49.0700 N   0  0  0  0  0  0  0  0  0  0  0  0
   45.1870   31.5960   49.1480 C   0  0  0  0  0  0  0  0  0  0  0  0
   44.6830   32.2920   48.1050 N   0  0  0  0  0  0  0  0  0  0  0  0
   44.3470   31.0310   50.1740 N   0  0  0  0  0  0  0  0  0  0  0  0
   45.9450   35.5650   42.5800 C   0  0  0  0  0  0  0  0  0  0  0  0
   47.2460   35.7160   42.1300 F   0  0  0  0  0  0  0  0  0  0  0  0
   45.4310   36.8490   42.7420 F   0  0  0  0  0  0  0  0  0  0  0  0
   45.2500   34.9740   41.5620 F   0  0  0  0  0  0  0  0  0  0  0  0
   48.2090   32.2920   47.6000 O   0  0  0  0  0  0  0  0  0  0  0  0
   44.2815   35.9730   44.6277 H   0  0  0  0  0  0  0  0  0  0  0  0
   47.5208   33.3959   43.3462 H   0  0  0  0  0  0  0  0  0  0  0  0
   43.3251   31.1511   50.1270 H   0  0  0  0  0  0  0  0  0  0  0  0
   44.7686   30.5072   50.9542 H   0  0  0  0  0  0  0  0  0  0  0  0
   48.8952   31.8710   48.1762 H   0  0  0  0  0  0  0  0  0  0  0  0
  1  6  2  0
  2  3  2  0
  2  1  1  0
  3  4  1  0
  4  5  2  0
  5  7  1  0
  6  5  1  0
  7  8  1  0
  7 11  1  0
  8  9  2  0
  9 10  1  0
 10 12  1  0
 11 10  2  0
 13 15  1  0
 13  2  1  0
 14 13  1  0
 16 13  1  0
 17  8  1  0
  1 18  1  0
  3 19  1  0
 12 20  1  0
 12 21  1  0
 17 22  1  0
M  ISO  3  18  14  19  14  22   3
M  END
>  <minimizedAffinity>  (1) 
-4.60278034

>  <minimizedRMSD>  (1) 
0.597988188

$$$$
