
     RDKit          3D

 30 31  0  0  0  0  0  0  0  0999 V2000
   45.0320   35.1160   44.3750 C   0  0  0  0  0  0  0  0  0  0  0  0
   44.6720   34.5280   43.1540 C   0  0  0  0  0  0  0  0  0  0  0  0
   44.8580   33.1630   43.0110 C   0  0  0  0  0  0  0  0  0  0  0  0
   45.3760   32.4880   44.0610 N   0  0  0  0  0  0  0  0  0  0  0  0
   45.7140   33.0450   45.2070 C   0  0  0  0  0  0  0  0  0  0  0  0
   45.5420   34.3450   45.3570 N   0  0  0  0  0  0  0  0  0  0  0  0
   46.2410   32.2000   46.1930 N   0  0  0  0  0  0  0  0  0  0  0  0
   47.0470   31.1520   45.8830 C   0  0  0  0  0  0  0  0  0  0  0  0
   47.3970   30.5100   47.0150 N   0  0  0  0  0  0  0  0  0  0  0  0
   46.7800   31.2010   48.0030 C   0  0  0  0  0  0  0  0  0  0  0  0
   46.0610   32.2490   47.5110 N   0  0  0  0  0  0  0  0  0  0  0  0
   46.8200   30.9250   49.4040 N   0  0  0  0  0  0  0  0  0  0  0  0
   44.1180   35.4130   42.1090 C   0  0  0  0  0  0  0  0  0  0  0  0
   44.5490   35.0010   40.8550 F   0  0  0  0  0  0  0  0  0  0  0  0
   44.4850   36.7430   42.2630 F   0  0  0  0  0  0  0  0  0  0  0  0
   42.7390   35.3820   42.0940 F   0  0  0  0  0  0  0  0  0  0  0  0
   47.5950   30.6020   44.6160 C   0  0  0  0  0  0  0  0  0  0  0  0
   46.5190   29.8380   43.8440 C   0  0  0  0  0  0  0  0  0  0  0  0
   48.1550   31.7300   43.7710 C   0  0  0  0  0  0  0  0  0  0  0  0
   44.8996   36.1969   44.5306 H   0  0  0  0  0  0  0  0  0  0  0  0
   44.5936   32.6468   42.0763 H   0  0  0  0  0  0  0  0  0  0  0  0
   46.3055   31.5272   50.0624 H   0  0  0  0  0  0  0  0  0  0  0  0
   47.3633   30.1237   49.7557 H   0  0  0  0  0  0  0  0  0  0  0  0
   48.4034   29.8960   44.8568 H   0  0  0  0  0  0  0  0  0  0  0  0
   45.8340   29.3516   44.5540 H   0  0  0  0  0  0  0  0  0  0  0  0
   45.9545   30.5387   43.2113 H   0  0  0  0  0  0  0  0  0  0  0  0
   46.9944   29.0740   43.2113 H   0  0  0  0  0  0  0  0  0  0  0  0
   48.5473   32.5203   44.4279 H   0  0  0  0  0  0  0  0  0  0  0  0
   48.9664   31.3446   43.1361 H   0  0  0  0  0  0  0  0  0  0  0  0
   47.3575   32.1433   43.1361 H   0  0  0  0  0  0  0  0  0  0  0  0
  1  6  2  0
  2  1  1  0
  3  2  2  0
  3  4  1  0
  4  5  2  0
  5  6  1  0
  5  7  1  0
  7 11  1  0
  8  7  1  0
  8  9  2  0
  9 10  1  0
 10 12  1  0
 11 10  2  0
 13 15  1  0
 13  2  1  0
 14 13  1  0
 16 13  1  0
 17  8  1  0
 18 17  1  0
 19 17  1  0
  1 20  1  0
  3 21  1  0
 12 22  1  0
 12 23  1  0
 17 24  1  0
 18 25  1  0
 18 26  1  0
 18 27  1  0
 19 28  1  0
 19 29  1  0
 19 30  1  0
M  ISO  8  20  14  21  14  24   8  25   8  26   8  27   8  28   8  29   8
M  ISO  1  30   8
M  END
>  <minimizedAffinity>  (1) 
-4.88392591

>  <minimizedRMSD>  (1) 
2.05453396

$$$$
