
     RDKit          3D

 47 50  0  0  0  0  0  0  0  0999 V2000
   47.4430   30.4700   44.6780 C   0  0  0  0  0  0  0  0  0  0  0  0
   45.0530   35.0890   44.2980 C   0  0  0  0  0  0  0  0  0  0  0  0
   44.6660   34.4540   43.1110 C   0  0  0  0  0  0  0  0  0  0  0  0
   44.7990   33.0780   43.0320 C   0  0  0  0  0  0  0  0  0  0  0  0
   45.2980   32.4730   44.1260 N   0  0  0  0  0  0  0  0  0  0  0  0
   45.6660   33.0230   45.2370 C   0  0  0  0  0  0  0  0  0  0  0  0
   45.5400   34.3450   45.3190 N   0  0  0  0  0  0  0  0  0  0  0  0
   46.1630   32.1940   46.2400 N   0  0  0  0  0  0  0  0  0  0  0  0
   46.9320   31.1170   45.9470 C   0  0  0  0  0  0  0  0  0  0  0  0
   47.2540   30.5360   47.1250 N   0  0  0  0  0  0  0  0  0  0  0  0
   46.6730   31.2740   48.0920 C   0  0  0  0  0  0  0  0  0  0  0  0
   45.9960   32.3050   47.5410 N   0  0  0  0  0  0  0  0  0  0  0  0
   46.7290   31.0370   49.5040 N   0  0  0  0  0  0  0  0  0  0  0  0
   44.1450   35.3210   42.0350 C   0  0  0  0  0  0  0  0  0  0  0  0
   44.7340   34.9630   40.8120 F   0  0  0  0  0  0  0  0  0  0  0  0
   44.4530   36.6780   42.2160 F   0  0  0  0  0  0  0  0  0  0  0  0
   42.8010   35.1870   41.8710 F   0  0  0  0  0  0  0  0  0  0  0  0
   47.9730   31.5660   43.7180 C   0  0  0  0  0  0  0  0  0  0  0  0
   48.6840   29.6260   44.9750 C   0  0  0  0  0  0  0  0  0  0  0  0
   46.3980   29.7430   43.9290 C   0  0  0  0  0  0  0  0  0  0  0  0
   45.4120   28.9530   44.6990 C   0  0  0  0  0  0  0  0  0  0  0  0
   45.9860   28.2650   45.6750 N   0  0  0  0  0  0  0  0  0  0  0  0
   45.3000   27.4760   46.5200 C   0  0  0  0  0  0  0  0  0  0  0  0
   43.9640   27.3920   46.3480 N   0  0  0  0  0  0  0  0  0  0  0  0
   43.3230   28.0700   45.3680 C   0  0  0  0  0  0  0  0  0  0  0  0
   41.9480   28.0280   45.1650 C   0  0  0  0  0  0  0  0  0  0  0  0
   41.3880   28.7640   44.1590 C   0  0  0  0  0  0  0  0  0  0  0  0
   42.1640   29.5660   43.3180 C   0  0  0  0  0  0  0  0  0  0  0  0
   43.5440   29.6450   43.4720 C   0  0  0  0  0  0  0  0  0  0  0  0
   44.0480   28.8840   44.5010 C   0  0  0  0  0  0  0  0  0  0  0  0
   44.9622   36.1805   44.3996 H   0  0  0  0  0  0  0  0  0  0  0  0
   44.5146   32.5143   42.1312 H   0  0  0  0  0  0  0  0  0  0  0  0
   46.2427   31.6724   50.1525 H   0  0  0  0  0  0  0  0  0  0  0  0
   47.2556   30.2312   49.8705 H   0  0  0  0  0  0  0  0  0  0  0  0
   48.3779   32.4033   44.3053 H   0  0  0  0  0  0  0  0  0  0  0  0
   48.7671   31.1451   43.0838 H   0  0  0  0  0  0  0  0  0  0  0  0
   47.1500   31.9271   43.0838 H   0  0  0  0  0  0  0  0  0  0  0  0
   48.8149   29.5369   46.0635 H   0  0  0  0  0  0  0  0  0  0  0  0
   48.5596   28.6244   44.5375 H   0  0  0  0  0  0  0  0  0  0  0  0
   49.5698   30.1098   44.5375 H   0  0  0  0  0  0  0  0  0  0  0  0
   45.8364   30.4874   43.3456 H   0  0  0  0  0  0  0  0  0  0  0  0
   46.9514   28.9944   43.3430 H   0  0  0  0  0  0  0  0  0  0  0  0
   45.8084   26.9198   47.3214 H   0  0  0  0  0  0  0  0  0  0  0  0
   41.3133   27.4045   45.8119 H   0  0  0  0  0  0  0  0  0  0  0  0
   40.2992   28.7241   44.0074 H   0  0  0  0  0  0  0  0  0  0  0  0
   41.6750   30.1448   42.5205 H   0  0  0  0  0  0  0  0  0  0  0  0
   44.1804   30.2654   42.8238 H   0  0  0  0  0  0  0  0  0  0  0  0
  1 19  1  0
  1  9  1  0
  2  7  2  0
  3  2  1  0
  4  3  2  0
  4  5  1  0
  5  6  2  0
  6  7  1  0
  6  8  1  0
  8 12  1  0
  9  8  1  0
  9 10  2  0
 10 11  1  0
 11 13  1  0
 12 11  2  0
 14 16  1  0
 14  3  1  0
 15 14  1  0
 17 14  1  0
 18  1  1  0
 20  1  1  0
 20 21  1  0
 21 22  2  0
 22 23  1  0
 24 23  2  0
 25 24  1  0
 26 25  2  0
 27 26  1  0
 28 29  1  0
 28 27  2  0
 29 30  2  0
 30 21  1  0
 30 25  1  0
  2 31  1  0
  4 32  1  0
 13 33  1  0
 13 34  1  0
 18 35  1  0
 18 36  1  0
 18 37  1  0
 19 38  1  0
 19 39  1  0
 19 40  1  0
 20 41  1  0
 20 42  1  0
 23 43  1  0
 26 44  1  0
 27 45  1  0
 28 46  1  0
 29 47  1  0
M  ISO  8  31  14  32  14  35   8  36   8  37   8  38   8  39   8  40   8
M  ISO  7  41   8  42   8  43  14  44  14  45  14  46  14  47  14
M  END
>  <minimizedAffinity>  (1) 
-5.72876263

>  <minimizedRMSD>  (1) 
0.830040395

$$$$
