
     RDKit          3D

 46 49  0  0  0  0  0  0  0  0999 V2000
   48.2670   30.4940   43.5460 C   0  0  0  0  0  0  0  0  0  0  0  0
   45.3860   34.2910   45.5960 C   0  0  0  0  0  0  0  0  0  0  0  0
   45.2010   34.4840   44.2240 C   0  0  0  0  0  0  0  0  0  0  0  0
   45.5130   33.4400   43.3760 C   0  0  0  0  0  0  0  0  0  0  0  0
   45.9730   32.3160   43.9700 N   0  0  0  0  0  0  0  0  0  0  0  0
   46.1560   32.1020   45.2270 C   0  0  0  0  0  0  0  0  0  0  0  0
   45.8590   33.1040   46.0580 N   0  0  0  0  0  0  0  0  0  0  0  0
   46.6420   30.8640   45.6110 N   0  0  0  0  0  0  0  0  0  0  0  0
   47.5620   30.1930   44.8590 C   0  0  0  0  0  0  0  0  0  0  0  0
   47.8310   29.0380   45.4960 N   0  0  0  0  0  0  0  0  0  0  0  0
   47.0730   29.0290   46.6160 C   0  0  0  0  0  0  0  0  0  0  0  0
   46.3380   30.1570   46.6870 N   0  0  0  0  0  0  0  0  0  0  0  0
   47.0220   28.0050   47.6200 N   0  0  0  0  0  0  0  0  0  0  0  0
   44.6870   35.8030   43.8030 C   0  0  0  0  0  0  0  0  0  0  0  0
   45.5700   36.3780   42.8820 F   0  0  0  0  0  0  0  0  0  0  0  0
   44.5780   36.7220   44.8590 F   0  0  0  0  0  0  0  0  0  0  0  0
   43.4860   35.7090   43.1710 F   0  0  0  0  0  0  0  0  0  0  0  0
   48.8340   31.9100   43.5590 C   0  0  0  0  0  0  0  0  0  0  0  0
   49.5130   29.6030   43.4270 C   0  0  0  0  0  0  0  0  0  0  0  0
   47.3680   30.3270   42.3780 C   0  0  0  0  0  0  0  0  0  0  0  0
   48.0820   30.7170   41.1340 N   0  0  0  0  0  0  0  0  0  0  0  0
   48.9950   30.0120   40.4470 C   0  0  0  0  0  0  0  0  0  0  0  0
   49.4530   30.6790   39.3850 N   0  0  0  0  0  0  0  0  0  0  0  0
   48.8320   31.8870   39.3430 C   0  0  0  0  0  0  0  0  0  0  0  0
   48.8880   32.9840   38.5140 C   0  0  0  0  0  0  0  0  0  0  0  0
   48.1310   34.0660   38.7500 N   0  0  0  0  0  0  0  0  0  0  0  0
   47.3050   34.0450   39.8370 C   0  0  0  0  0  0  0  0  0  0  0  0
   47.2640   32.9650   40.6350 N   0  0  0  0  0  0  0  0  0  0  0  0
   48.0050   31.8630   40.4310 C   0  0  0  0  0  0  0  0  0  0  0  0
   49.8080   32.8410   37.4210 N   0  0  0  0  0  0  0  0  0  0  0  0
   45.1485   35.1005   46.3020 H   0  0  0  0  0  0  0  0  0  0  0  0
   45.3947   33.5179   42.2852 H   0  0  0  0  0  0  0  0  0  0  0  0
   46.4004   28.1126   48.4342 H   0  0  0  0  0  0  0  0  0  0  0  0
   47.6070   27.1624   47.5264 H   0  0  0  0  0  0  0  0  0  0  0  0
   48.9670   32.2422   44.5992 H   0  0  0  0  0  0  0  0  0  0  0  0
   49.8057   31.9206   43.0436 H   0  0  0  0  0  0  0  0  0  0  0  0
   48.1382   32.5884   43.0436 H   0  0  0  0  0  0  0  0  0  0  0  0
   49.8757   29.3436   44.4326 H   0  0  0  0  0  0  0  0  0  0  0  0
   49.2553   28.6831   42.8816 H   0  0  0  0  0  0  0  0  0  0  0  0
   50.3001   30.1443   42.8816 H   0  0  0  0  0  0  0  0  0  0  0  0
   47.0553   29.2749   42.3052 H   0  0  0  0  0  0  0  0  0  0  0  0
   46.4834   30.9683   42.5056 H   0  0  0  0  0  0  0  0  0  0  0  0
   49.3273   29.0014   40.7268 H   0  0  0  0  0  0  0  0  0  0  0  0
   46.6708   34.9156   40.0602 H   0  0  0  0  0  0  0  0  0  0  0  0
   50.3511   31.9722   37.3153 H   0  0  0  0  0  0  0  0  0  0  0  0
   49.9249   33.6072   36.7426 H   0  0  0  0  0  0  0  0  0  0  0  0
  1 18  1  0
  1  9  1  0
  2  7  2  0
  3  2  1  0
  4  5  1  0
  4  3  2  0
  5  6  2  0
  6  8  1  0
  6  7  1  0
  8 12  1  0
  9 10  2  0
  9  8  1  0
 10 11  1  0
 11 12  2  0
 11 13  1  0
 14  3  1  0
 14 16  1  0
 15 14  1  0
 17 14  1  0
 19  1  1  0
 20  1  1  0
 21 20  1  0
 22 21  1  0
 23 22  2  0
 24 23  1  0
 24 29  2  0
 25 26  2  0
 25 24  1  0
 26 27  1  0
 27 28  2  0
 29 28  1  0
 29 21  1  0
 30 25  1  0
  2 31  1  0
  4 32  1  0
 13 33  1  0
 13 34  1  0
 18 35  1  0
 18 36  1  0
 18 37  1  0
 19 38  1  0
 19 39  1  0
 19 40  1  0
 20 41  1  0
 20 42  1  0
 22 43  1  0
 27 44  1  0
 30 45  1  0
 30 46  1  0
M  ISO  8  31  14  32  14  35   8  36   8  37   8  38   8  39   8  40   8
M  ISO  4  41   8  42   8  43  14  44  14
M  END
>  <minimizedAffinity>  (1) 
-5.44133711

>  <minimizedRMSD>  (1) 
2.5982163

$$$$
