
     RDKit          3D

 41 43  0  0  0  0  0  0  0  0999 V2000
   45.1570   35.0420   44.4320 C   0  0  0  0  0  0  0  0  0  0  0  0
   44.7410   34.4240   43.2520 C   0  0  0  0  0  0  0  0  0  0  0  0
   44.8860   33.0510   43.1360 C   0  0  0  0  0  0  0  0  0  0  0  0
   45.4300   32.4310   44.2030 N   0  0  0  0  0  0  0  0  0  0  0  0
   45.8250   32.9620   45.3070 C   0  0  0  0  0  0  0  0  0  0  0  0
   45.6900   34.2910   45.4320 N   0  0  0  0  0  0  0  0  0  0  0  0
   46.3640   32.1220   46.2690 N   0  0  0  0  0  0  0  0  0  0  0  0
   47.1460   31.0600   45.9410 C   0  0  0  0  0  0  0  0  0  0  0  0
   47.5170   30.4680   47.0790 N   0  0  0  0  0  0  0  0  0  0  0  0
   46.9610   31.1650   48.0810 C   0  0  0  0  0  0  0  0  0  0  0  0
   46.2500   32.1850   47.5820 N   0  0  0  0  0  0  0  0  0  0  0  0
   47.0720   30.9070   49.4950 N   0  0  0  0  0  0  0  0  0  0  0  0
   44.1740   35.3070   42.2090 C   0  0  0  0  0  0  0  0  0  0  0  0
   44.6720   34.9300   40.9490 F   0  0  0  0  0  0  0  0  0  0  0  0
   44.5370   36.6530   42.3630 F   0  0  0  0  0  0  0  0  0  0  0  0
   42.8210   35.2180   42.1360 F   0  0  0  0  0  0  0  0  0  0  0  0
   47.6180   30.4620   44.6390 C   0  0  0  0  0  0  0  0  0  0  0  0
   48.0830   31.5810   43.6660 C   0  0  0  0  0  0  0  0  0  0  0  0
   48.9030   29.6440   44.8550 C   0  0  0  0  0  0  0  0  0  0  0  0
   46.5880   29.6940   43.9180 C   0  0  0  0  0  0  0  0  0  0  0  0
   45.5490   28.9520   44.6150 C   0  0  0  0  0  0  0  0  0  0  0  0
   44.2560   29.1090   44.9320 C   0  0  0  0  0  0  0  0  0  0  0  0
   43.4530   28.2450   45.6380 C   0  0  0  0  0  0  0  0  0  0  0  0
   44.0540   27.1040   46.0580 N   0  0  0  0  0  0  0  0  0  0  0  0
   45.3490   26.8760   45.7790 C   0  0  0  0  0  0  0  0  0  0  0  0
   46.0510   27.7630   45.0910 N   0  0  0  0  0  0  0  0  0  0  0  0
   45.0542   36.1306   44.5523 H   0  0  0  0  0  0  0  0  0  0  0  0
   44.5778   32.5029   42.2334 H   0  0  0  0  0  0  0  0  0  0  0  0
   46.5934   31.5208   50.1696 H   0  0  0  0  0  0  0  0  0  0  0  0
   47.6299   30.1089   49.8306 H   0  0  0  0  0  0  0  0  0  0  0  0
   48.4419   32.4446   44.2451 H   0  0  0  0  0  0  0  0  0  0  0  0
   48.8975   31.2006   43.0321 H   0  0  0  0  0  0  0  0  0  0  0  0
   47.2387   31.8899   43.0321 H   0  0  0  0  0  0  0  0  0  0  0  0
   49.0864   29.5272   45.9333 H   0  0  0  0  0  0  0  0  0  0  0  0
   48.7884   28.6523   44.3931 H   0  0  0  0  0  0  0  0  0  0  0  0
   49.7530   30.1676   44.3931 H   0  0  0  0  0  0  0  0  0  0  0  0
   47.1272   28.9612   43.2997 H   0  0  0  0  0  0  0  0  0  0  0  0
   46.0109   30.4897   43.4242 H   0  0  0  0  0  0  0  0  0  0  0  0
   43.7814   30.0392   44.5863 H   0  0  0  0  0  0  0  0  0  0  0  0
   42.3956   28.4640   45.8479 H   0  0  0  0  0  0  0  0  0  0  0  0
   45.8279   25.9478   46.1240 H   0  0  0  0  0  0  0  0  0  0  0  0
  1  6  2  0
  2  1  1  0
  3  2  2  0
  3  4  1  0
  4  5  2  0
  5  6  1  0
  5  7  1  0
  7 11  1  0
  8  7  1  0
  8  9  2  0
  9 10  1  0
 10 12  1  0
 11 10  2  0
 13 15  1  0
 13  2  1  0
 14 13  1  0
 16 13  1  0
 17 19  1  0
 17  8  1  0
 18 17  1  0
 20 21  1  0
 20 17  1  0
 21 22  2  0
 21 26  1  0
 22 23  1  0
 23 24  2  0
 25 24  1  0
 26 25  2  0
  1 27  1  0
  3 28  1  0
 12 29  1  0
 12 30  1  0
 18 31  1  0
 18 32  1  0
 18 33  1  0
 19 34  1  0
 19 35  1  0
 19 36  1  0
 20 37  1  0
 20 38  1  0
 22 39  1  0
 23 40  1  0
 25 41  1  0
M  ISO  8  27  14  28  14  31   8  32   8  33   8  34   8  35   8  36   8
M  ISO  5  37   8  38   8  39  14  40  14  41  14
M  END
>  <minimizedAffinity>  (1) 
-5.13730288

>  <minimizedRMSD>  (1) 
0.55726707

$$$$
