
     RDKit          3D

 43 45  0  0  0  0  0  0  0  0999 V2000
   47.6700   30.5040   44.6060 C   0  0  0  0  0  0  0  0  0  0  0  0
   45.1300   35.0250   44.4360 C   0  0  0  0  0  0  0  0  0  0  0  0
   44.7420   34.4240   43.2360 C   0  0  0  0  0  0  0  0  0  0  0  0
   44.9220   33.0610   43.1040 C   0  0  0  0  0  0  0  0  0  0  0  0
   45.4640   32.4330   44.1680 N   0  0  0  0  0  0  0  0  0  0  0  0
   45.8350   32.9500   45.2910 C   0  0  0  0  0  0  0  0  0  0  0  0
   45.6680   34.2690   45.4350 N   0  0  0  0  0  0  0  0  0  0  0  0
   46.3740   32.1080   46.2480 N   0  0  0  0  0  0  0  0  0  0  0  0
   47.1650   31.0620   45.9130 C   0  0  0  0  0  0  0  0  0  0  0  0
   47.5310   30.4420   47.0530 N   0  0  0  0  0  0  0  0  0  0  0  0
   46.9470   31.1340   48.0600 C   0  0  0  0  0  0  0  0  0  0  0  0
   46.2340   32.1610   47.5610 N   0  0  0  0  0  0  0  0  0  0  0  0
   47.0460   30.8660   49.4700 N   0  0  0  0  0  0  0  0  0  0  0  0
   44.1700   35.3120   42.2060 C   0  0  0  0  0  0  0  0  0  0  0  0
   44.6480   34.9340   40.9420 F   0  0  0  0  0  0  0  0  0  0  0  0
   44.5350   36.6560   42.3680 F   0  0  0  0  0  0  0  0  0  0  0  0
   42.8130   35.2210   42.1420 F   0  0  0  0  0  0  0  0  0  0  0  0
   48.1310   31.6180   43.6670 C   0  0  0  0  0  0  0  0  0  0  0  0
   48.9580   29.6840   44.8450 C   0  0  0  0  0  0  0  0  0  0  0  0
   46.6560   29.7070   43.8770 C   0  0  0  0  0  0  0  0  0  0  0  0
   45.8080   28.8710   44.7110 N   0  0  0  0  0  0  0  0  0  0  0  0
   44.6230   29.2470   45.2660 C   0  0  0  0  0  0  0  0  0  0  0  0
   43.7930   28.4840   46.0540 C   0  0  0  0  0  0  0  0  0  0  0  0
   44.1930   27.2040   46.3140 C   0  0  0  0  0  0  0  0  0  0  0  0
   43.4610   26.4840   47.0260 O   0  0  0  0  0  0  0  0  0  0  0  0
   45.3390   26.7860   45.7970 N   0  0  0  0  0  0  0  0  0  0  0  0
   46.0940   27.5770   45.0420 C   0  0  0  0  0  0  0  0  0  0  0  0
   47.1510   27.0490   44.6210 O   0  0  0  0  0  0  0  0  0  0  0  0
   45.0014   36.1086   44.5749 H   0  0  0  0  0  0  0  0  0  0  0  0
   44.6408   32.5208   42.1879 H   0  0  0  0  0  0  0  0  0  0  0  0
   46.5523   31.4678   50.1445 H   0  0  0  0  0  0  0  0  0  0  0  0
   47.6106   30.0723   49.8050 H   0  0  0  0  0  0  0  0  0  0  0  0
   48.4853   32.4741   44.2599 H   0  0  0  0  0  0  0  0  0  0  0  0
   48.9497   31.2475   43.0326 H   0  0  0  0  0  0  0  0  0  0  0  0
   47.2899   31.9343   43.0326 H   0  0  0  0  0  0  0  0  0  0  0  0
   49.1283   29.5756   45.9263 H   0  0  0  0  0  0  0  0  0  0  0  0
   48.8489   28.6888   44.3894 H   0  0  0  0  0  0  0  0  0  0  0  0
   49.8136   30.2040   44.3894 H   0  0  0  0  0  0  0  0  0  0  0  0
   46.0087   30.4038   43.3244 H   0  0  0  0  0  0  0  0  0  0  0  0
   47.2178   29.0195   43.2276 H   0  0  0  0  0  0  0  0  0  0  0  0
   44.2924   30.2760   45.0614 H   0  0  0  0  0  0  0  0  0  0  0  0
   42.8512   28.8858   46.4560 H   0  0  0  0  0  0  0  0  0  0  0  0
   45.6528   25.8232   45.9851 H   0  0  0  0  0  0  0  0  0  0  0  0
  1 19  1  0
  1  9  1  0
  2  7  2  0
  3  2  1  0
  4  3  2  0
  4  5  1  0
  5  6  2  0
  6  7  1  0
  6  8  1  0
  8 12  1  0
  9  8  1  0
  9 10  2  0
 10 11  1  0
 11 13  1  0
 12 11  2  0
 14 16  1  0
 14  3  1  0
 15 14  1  0
 17 14  1  0
 18  1  1  0
 20  1  1  0
 20 21  1  0
 21 27  1  0
 21 22  1  0
 22 23  2  0
 23 24  1  0
 24 25  2  0
 26 24  1  0
 27 26  1  0
 28 27  2  0
  2 29  1  0
  4 30  1  0
 13 31  1  0
 13 32  1  0
 18 33  1  0
 18 34  1  0
 18 35  1  0
 19 36  1  0
 19 37  1  0
 19 38  1  0
 20 39  1  0
 20 40  1  0
 22 41  1  0
 23 42  1  0
 26 43  1  0
M  ISO  8  29  14  30  14  33   8  34   8  35   8  36   8  37   8  38   8
M  ISO  5  39   8  40   8  41  14  42  14  43   9
M  END
>  <minimizedAffinity>  (1) 
-5.39986467

>  <minimizedRMSD>  (1) 
0.554552853

$$$$
