
     RDKit          3D

 48 50  0  0  0  0  0  0  0  0999 V2000
   45.0500   35.0910   44.4480 C   0  0  0  0  0  0  0  0  0  0  0  0
   44.6980   34.5300   43.2380 C   0  0  0  0  0  0  0  0  0  0  0  0
   44.8880   33.1720   43.0610 C   0  0  0  0  0  0  0  0  0  0  0  0
   45.4140   32.5180   44.1180 N   0  0  0  0  0  0  0  0  0  0  0  0
   45.7530   33.0050   45.2580 C   0  0  0  0  0  0  0  0  0  0  0  0
   45.5710   34.3130   45.4380 N   0  0  0  0  0  0  0  0  0  0  0  0
   46.2730   32.1400   46.2000 N   0  0  0  0  0  0  0  0  0  0  0  0
   47.0830   31.0950   45.8540 C   0  0  0  0  0  0  0  0  0  0  0  0
   47.4200   30.4530   46.9830 N   0  0  0  0  0  0  0  0  0  0  0  0
   46.8160   31.1130   48.0050 C   0  0  0  0  0  0  0  0  0  0  0  0
   46.1110   32.1500   47.5230 N   0  0  0  0  0  0  0  0  0  0  0  0
   46.8750   30.8120   49.4040 N   0  0  0  0  0  0  0  0  0  0  0  0
   44.1400   35.4420   42.2050 C   0  0  0  0  0  0  0  0  0  0  0  0
   44.5740   35.0420   40.9260 F   0  0  0  0  0  0  0  0  0  0  0  0
   44.5480   36.7740   42.3680 F   0  0  0  0  0  0  0  0  0  0  0  0
   42.7870   35.4170   42.1710 F   0  0  0  0  0  0  0  0  0  0  0  0
   47.6240   30.5720   44.5330 C   0  0  0  0  0  0  0  0  0  0  0  0
   48.2230   31.7230   43.7090 C   0  0  0  0  0  0  0  0  0  0  0  0
   48.8370   29.6710   44.7970 C   0  0  0  0  0  0  0  0  0  0  0  0
   46.5720   29.9250   43.7170 C   0  0  0  0  0  0  0  0  0  0  0  0
   46.9610   29.7400   42.3330 N   0  0  0  0  0  0  0  0  0  0  0  0
   46.0440   30.0750   41.3230 C   0  0  0  0  0  0  0  0  0  0  0  0
   46.6690   31.1240   40.3540 C   0  0  0  0  0  0  0  0  0  0  0  0
   47.7950   30.4720   39.6310 C   0  0  0  0  0  0  0  0  0  0  0  0
   48.6670   29.7180   40.6460 C   0  0  0  0  0  0  0  0  0  0  0  0
   48.2840   30.1780   42.0180 C   0  0  0  0  0  0  0  0  0  0  0  0
   44.9098   36.1693   44.6142 H   0  0  0  0  0  0  0  0  0  0  0  0
   44.6282   32.6596   42.1229 H   0  0  0  0  0  0  0  0  0  0  0  0
   46.3648   31.3992   50.0791 H   0  0  0  0  0  0  0  0  0  0  0  0
   47.4276   30.0083   49.7350 H   0  0  0  0  0  0  0  0  0  0  0  0
   48.6225   32.4907   44.3879 H   0  0  0  0  0  0  0  0  0  0  0  0
   49.0343   31.3364   43.0747 H   0  0  0  0  0  0  0  0  0  0  0  0
   47.4408   32.1656   43.0747 H   0  0  0  0  0  0  0  0  0  0  0  0
   48.9837   29.5621   45.8817 H   0  0  0  0  0  0  0  0  0  0  0  0
   48.6631   28.6814   44.3493 H   0  0  0  0  0  0  0  0  0  0  0  0
   49.7342   30.1234   44.3493 H   0  0  0  0  0  0  0  0  0  0  0  0
   46.3471   28.9402   44.1523 H   0  0  0  0  0  0  0  0  0  0  0  0
   45.6947   30.5885   43.7258 H   0  0  0  0  0  0  0  0  0  0  0  0
   45.7802   29.1695   40.7569 H   0  0  0  0  0  0  0  0  0  0  0  0
   45.1431   30.5053   41.7848 H   0  0  0  0  0  0  0  0  0  0  0  0
   45.9107   31.4645   39.6336 H   0  0  0  0  0  0  0  0  0  0  0  0
   47.0321   31.9955   40.9184 H   0  0  0  0  0  0  0  0  0  0  0  0
   47.3970   29.7646   38.8886 H   0  0  0  0  0  0  0  0  0  0  0  0
   48.3977   31.2338   39.1148 H   0  0  0  0  0  0  0  0  0  0  0  0
   48.4953   28.6354   40.5539 H   0  0  0  0  0  0  0  0  0  0  0  0
   49.7320   29.9202   40.4590 H   0  0  0  0  0  0  0  0  0  0  0  0
   48.9894   29.7605   42.7515 H   0  0  0  0  0  0  0  0  0  0  0  0
   48.3159   31.2771   42.0504 H   0  0  0  0  0  0  0  0  0  0  0  0
  1  6  2  0
  2  1  1  0
  3  2  2  0
  3  4  1  0
  4  5  2  0
  5  6  1  0
  5  7  1  0
  7 11  1  0
  8  7  1  0
  8  9  2  0
  9 10  1  0
 10 12  1  0
 11 10  2  0
 13 15  1  0
 13  2  1  0
 14 13  1  0
 16 13  1  0
 17 19  1  0
 17  8  1  0
 18 17  1  0
 20 17  1  0
 21 20  1  0
 22 21  1  0
 23 22  1  0
 24 23  1  0
 24 25  1  0
 25 26  1  0
 26 21  1  0
  1 27  1  0
  3 28  1  0
 12 29  1  0
 12 30  1  0
 18 31  1  0
 18 32  1  0
 18 33  1  0
 19 34  1  0
 19 35  1  0
 19 36  1  0
 20 37  1  0
 20 38  1  0
 22 39  1  0
 22 40  1  0
 23 41  1  0
 23 42  1  0
 24 43  1  0
 24 44  1  0
 25 45  1  0
 25 46  1  0
 26 47  1  0
 26 48  1  0
M  ISO  8  27  14  28  14  31   8  32   8  33   8  34   8  35   8  36   8
M  ISO  8  37   8  38   8  39  13  40  13  41  13  42  13  43  13  44  13
M  ISO  4  45  13  46  13  47  13  48  13
M  END
>  <minimizedAffinity>  (1) 
-4.82851982

>  <minimizedRMSD>  (1) 
0.4147726

$$$$
