
     RDKit          3D

 38 40  0  0  0  0  0  0  0  0999 V2000
   45.1180   35.0820   44.4260 C   0  0  0  0  0  0  0  0  0  0  0  0
   44.7150   34.4760   43.2330 C   0  0  0  0  0  0  0  0  0  0  0  0
   44.8730   33.1020   43.1060 C   0  0  0  0  0  0  0  0  0  0  0  0
   45.4110   32.4770   44.1700 N   0  0  0  0  0  0  0  0  0  0  0  0
   45.7960   32.9960   45.2870 C   0  0  0  0  0  0  0  0  0  0  0  0
   45.6490   34.3210   45.4230 N   0  0  0  0  0  0  0  0  0  0  0  0
   46.3260   32.1520   46.2460 N   0  0  0  0  0  0  0  0  0  0  0  0
   47.1070   31.0980   45.9130 C   0  0  0  0  0  0  0  0  0  0  0  0
   47.4650   30.4790   47.0560 N   0  0  0  0  0  0  0  0  0  0  0  0
   46.8920   31.1730   48.0590 C   0  0  0  0  0  0  0  0  0  0  0  0
   46.1890   32.2060   47.5600 N   0  0  0  0  0  0  0  0  0  0  0  0
   46.9790   30.9080   49.4750 N   0  0  0  0  0  0  0  0  0  0  0  0
   44.1480   35.3630   42.1960 C   0  0  0  0  0  0  0  0  0  0  0  0
   44.6140   34.9740   40.9330 F   0  0  0  0  0  0  0  0  0  0  0  0
   44.5300   36.7050   42.3500 F   0  0  0  0  0  0  0  0  0  0  0  0
   42.7900   35.2900   42.1400 F   0  0  0  0  0  0  0  0  0  0  0  0
   47.6060   30.5270   44.6090 C   0  0  0  0  0  0  0  0  0  0  0  0
   48.1520   31.6380   43.6960 C   0  0  0  0  0  0  0  0  0  0  0  0
   48.8270   29.6210   44.8620 C   0  0  0  0  0  0  0  0  0  0  0  0
   46.5610   29.8090   43.8380 C   0  0  0  0  0  0  0  0  0  0  0  0
   45.7020   28.9150   44.6650 C   0  0  0  0  0  0  0  0  0  0  0  0
   45.9900   27.7480   45.2030 N   0  0  0  0  0  0  0  0  0  0  0  0
   44.9550   27.2990   45.8520 O   0  0  0  0  0  0  0  0  0  0  0  0
   43.9740   28.1650   45.7480 C   0  0  0  0  0  0  0  0  0  0  0  0
   44.4310   29.2070   44.9930 N   0  0  0  0  0  0  0  0  0  0  0  0
   45.0069   36.1682   44.5592 H   0  0  0  0  0  0  0  0  0  0  0  0
   44.5778   32.5599   42.1955 H   0  0  0  0  0  0  0  0  0  0  0  0
   46.4900   31.5193   50.1443 H   0  0  0  0  0  0  0  0  0  0  0  0
   47.5301   30.1076   49.8162 H   0  0  0  0  0  0  0  0  0  0  0  0
   48.5537   32.4553   44.3130 H   0  0  0  0  0  0  0  0  0  0  0  0
   48.9525   31.2305   43.0610 H   0  0  0  0  0  0  0  0  0  0  0  0
   47.3403   32.0227   43.0610 H   0  0  0  0  0  0  0  0  0  0  0  0
   48.9808   29.5069   45.9452 H   0  0  0  0  0  0  0  0  0  0  0  0
   48.6506   28.6335   44.4107 H   0  0  0  0  0  0  0  0  0  0  0  0
   49.7210   30.0760   44.4107 H   0  0  0  0  0  0  0  0  0  0  0  0
   45.9157   30.5557   43.3522 H   0  0  0  0  0  0  0  0  0  0  0  0
   47.0850   29.1663   43.1153 H   0  0  0  0  0  0  0  0  0  0  0  0
   42.9702   28.0691   46.1875 H   0  0  0  0  0  0  0  0  0  0  0  0
  1  6  2  0
  2  1  1  0
  3  2  2  0
  3  4  1  0
  4  5  2  0
  5  6  1  0
  5  7  1  0
  7 11  1  0
  8  7  1  0
  8  9  2  0
  9 10  1  0
 10 12  1  0
 11 10  2  0
 13 15  1  0
 13  2  1  0
 14 13  1  0
 16 13  1  0
 17 19  1  0
 17  8  1  0
 18 17  1  0
 20 17  1  0
 20 21  1  0
 21 25  1  0
 21 22  2  0
 22 23  1  0
 24 23  1  0
 25 24  2  0
  1 26  1  0
  3 27  1  0
 12 28  1  0
 12 29  1  0
 18 30  1  0
 18 31  1  0
 18 32  1  0
 19 33  1  0
 19 34  1  0
 19 35  1  0
 20 36  1  0
 20 37  1  0
 24 38  1  0
M  ISO  8  26  14  27  14  30   8  31   8  32   8  33   8  34   8  35   8
M  ISO  3  36   8  37   8  38  14
M  END
>  <minimizedAffinity>  (1) 
-5.010921

>  <minimizedRMSD>  (1) 
0.360503137

$$$$
