
     RDKit          3D

 46 48  0  0  0  0  0  0  0  0999 V2000
   45.1150   35.1120   44.4160 C   0  0  0  0  0  0  0  0  0  0  0  0
   44.7080   34.5160   43.2420 C   0  0  0  0  0  0  0  0  0  0  0  0
   44.8520   33.1350   43.1040 C   0  0  0  0  0  0  0  0  0  0  0  0
   45.3900   32.5090   44.1680 N   0  0  0  0  0  0  0  0  0  0  0  0
   45.7840   33.0240   45.2800 C   0  0  0  0  0  0  0  0  0  0  0  0
   45.6470   34.3470   45.4150 N   0  0  0  0  0  0  0  0  0  0  0  0
   46.3160   32.1750   46.2390 N   0  0  0  0  0  0  0  0  0  0  0  0
   47.0840   31.1080   45.9000 C   0  0  0  0  0  0  0  0  0  0  0  0
   47.4500   30.4820   47.0330 N   0  0  0  0  0  0  0  0  0  0  0  0
   46.8870   31.1920   48.0440 C   0  0  0  0  0  0  0  0  0  0  0  0
   46.1880   32.2360   47.5550 N   0  0  0  0  0  0  0  0  0  0  0  0
   46.9760   30.9270   49.4560 N   0  0  0  0  0  0  0  0  0  0  0  0
   44.1400   35.4040   42.1930 C   0  0  0  0  0  0  0  0  0  0  0  0
   44.5780   35.0020   40.9320 F   0  0  0  0  0  0  0  0  0  0  0  0
   44.5320   36.7360   42.3380 F   0  0  0  0  0  0  0  0  0  0  0  0
   42.7690   35.3470   42.1650 F   0  0  0  0  0  0  0  0  0  0  0  0
   47.5690   30.5210   44.5790 C   0  0  0  0  0  0  0  0  0  0  0  0
   48.1820   31.6240   43.6990 C   0  0  0  0  0  0  0  0  0  0  0  0
   48.7590   29.5860   44.8300 C   0  0  0  0  0  0  0  0  0  0  0  0
   46.4770   29.8970   43.8020 C   0  0  0  0  0  0  0  0  0  0  0  0
   45.9170   28.7400   44.5760 N   0  0  0  0  0  0  0  0  0  0  0  0
   45.8430   27.6180   43.6190 C   0  0  0  0  0  0  0  0  0  0  0  0
   45.0490   27.9290   42.3970 C   0  0  0  0  0  0  0  0  0  0  0  0
   43.7710   28.4100   42.6960 O   0  0  0  0  0  0  0  0  0  0  0  0
   43.5880   28.1310   44.0530 C   0  0  0  0  0  0  0  0  0  0  0  0
   44.5200   28.9950   44.9240 C   0  0  0  0  0  0  0  0  0  0  0  0
   45.0119   36.1992   44.5481 H   0  0  0  0  0  0  0  0  0  0  0  0
   44.5485   32.5975   42.1935 H   0  0  0  0  0  0  0  0  0  0  0  0
   46.4994   31.5460   50.1272 H   0  0  0  0  0  0  0  0  0  0  0  0
   47.5163   30.1183   49.7952 H   0  0  0  0  0  0  0  0  0  0  0  0
   48.6163   32.4054   44.3399 H   0  0  0  0  0  0  0  0  0  0  0  0
   48.9691   31.1913   43.0639 H   0  0  0  0  0  0  0  0  0  0  0  0
   47.3990   32.0639   43.0639 H   0  0  0  0  0  0  0  0  0  0  0  0
   48.9100   29.4674   45.9131 H   0  0  0  0  0  0  0  0  0  0  0  0
   48.5553   28.6039   44.3784 H   0  0  0  0  0  0  0  0  0  0  0  0
   49.6650   30.0163   44.3784 H   0  0  0  0  0  0  0  0  0  0  0  0
   46.8693   29.5393   42.8386 H   0  0  0  0  0  0  0  0  0  0  0  0
   45.6841   30.6374   43.6201 H   0  0  0  0  0  0  0  0  0  0  0  0
   46.8659   27.3547   43.3117 H   0  0  0  0  0  0  0  0  0  0  0  0
   45.3344   26.7886   44.1323 H   0  0  0  0  0  0  0  0  0  0  0  0
   44.9493   27.0116   41.7983 H   0  0  0  0  0  0  0  0  0  0  0  0
   45.5815   28.7172   41.8445 H   0  0  0  0  0  0  0  0  0  0  0  0
   42.5433   28.3411   44.3259 H   0  0  0  0  0  0  0  0  0  0  0  0
   43.8261   27.0715   44.2286 H   0  0  0  0  0  0  0  0  0  0  0  0
   44.3588   28.7483   45.9838 H   0  0  0  0  0  0  0  0  0  0  0  0
   44.2942   30.0569   44.7468 H   0  0  0  0  0  0  0  0  0  0  0  0
  1  6  2  0
  2  1  1  0
  3  2  2  0
  3  4  1  0
  4  5  2  0
  5  6  1  0
  5  7  1  0
  7 11  1  0
  8  7  1  0
  8  9  2  0
  9 10  1  0
 10 12  1  0
 11 10  2  0
 13 15  1  0
 13  2  1  0
 14 13  1  0
 16 13  1  0
 17 19  1  0
 17  8  1  0
 18 17  1  0
 20 21  1  0
 20 17  1  0
 21 26  1  0
 22 21  1  0
 23 24  1  0
 23 22  1  0
 24 25  1  0
 25 26  1  0
  1 27  1  0
  3 28  1  0
 12 29  1  0
 12 30  1  0
 18 31  1  0
 18 32  1  0
 18 33  1  0
 19 34  1  0
 19 35  1  0
 19 36  1  0
 20 37  1  0
 20 38  1  0
 22 39  1  0
 22 40  1  0
 23 41  1  0
 23 42  1  0
 25 43  1  0
 25 44  1  0
 26 45  1  0
 26 46  1  0
M  ISO  8  27  14  28  14  31   8  32   8  33   8  34   8  35   8  36   8
M  ISO  8  37   8  38   8  39  13  40  13  41  13  42  13  43  13  44  13
M  ISO  2  45  13  46  13
M  END
>  <minimizedAffinity>  (1) 
-4.86229658

>  <minimizedRMSD>  (1) 
1.60245109

$$$$
