
     RDKit          3D

 40 42  0  0  0  0  0  0  0  0999 V2000
   45.1010   35.0860   44.4190 C   0  0  0  0  0  0  0  0  0  0  0  0
   44.7000   34.4950   43.2160 C   0  0  0  0  0  0  0  0  0  0  0  0
   44.8590   33.1230   43.0720 C   0  0  0  0  0  0  0  0  0  0  0  0
   45.3970   32.4800   44.1290 N   0  0  0  0  0  0  0  0  0  0  0  0
   45.7800   32.9880   45.2520 C   0  0  0  0  0  0  0  0  0  0  0  0
   45.6320   34.3140   45.4090 N   0  0  0  0  0  0  0  0  0  0  0  0
   46.3120   32.1340   46.2020 N   0  0  0  0  0  0  0  0  0  0  0  0
   47.1050   31.0920   45.8550 C   0  0  0  0  0  0  0  0  0  0  0  0
   47.4650   30.4580   46.9900 N   0  0  0  0  0  0  0  0  0  0  0  0
   46.8800   31.1350   48.0060 C   0  0  0  0  0  0  0  0  0  0  0  0
   46.1700   32.1680   47.5150 N   0  0  0  0  0  0  0  0  0  0  0  0
   46.9650   30.8460   49.4120 N   0  0  0  0  0  0  0  0  0  0  0  0
   44.1350   35.3930   42.1900 C   0  0  0  0  0  0  0  0  0  0  0  0
   44.6000   35.0130   40.9190 F   0  0  0  0  0  0  0  0  0  0  0  0
   44.5330   36.7310   42.3470 F   0  0  0  0  0  0  0  0  0  0  0  0
   42.7810   35.3430   42.1450 F   0  0  0  0  0  0  0  0  0  0  0  0
   47.6110   30.5440   44.5490 C   0  0  0  0  0  0  0  0  0  0  0  0
   48.2380   31.6570   43.6880 C   0  0  0  0  0  0  0  0  0  0  0  0
   48.7760   29.5670   44.7960 C   0  0  0  0  0  0  0  0  0  0  0  0
   46.5540   29.9080   43.7220 C   0  0  0  0  0  0  0  0  0  0  0  0
   45.8110   28.7890   44.4310 C   0  0  0  0  0  0  0  0  0  0  0  0
   44.9110   27.8790   43.7120 C   0  0  0  0  0  0  0  0  0  0  0  0
   44.2930   29.0090   44.4240 C   0  0  0  0  0  0  0  0  0  0  0  0
   44.9881   36.1703   44.5655 H   0  0  0  0  0  0  0  0  0  0  0  0
   44.5648   32.5937   42.1537 H   0  0  0  0  0  0  0  0  0  0  0  0
   46.4697   31.4414   50.0910 H   0  0  0  0  0  0  0  0  0  0  0  0
   47.5212   30.0436   49.7401 H   0  0  0  0  0  0  0  0  0  0  0  0
   48.6717   32.4269   44.3431 H   0  0  0  0  0  0  0  0  0  0  0  0
   49.0275   31.2286   43.0531 H   0  0  0  0  0  0  0  0  0  0  0  0
   47.4625   32.1102   43.0531 H   0  0  0  0  0  0  0  0  0  0  0  0
   48.9259   29.4413   45.8785 H   0  0  0  0  0  0  0  0  0  0  0  0
   48.5399   28.5928   44.3430 H   0  0  0  0  0  0  0  0  0  0  0  0
   49.6942   29.9692   44.3430 H   0  0  0  0  0  0  0  0  0  0  0  0
   47.0236   29.4938   42.8176 H   0  0  0  0  0  0  0  0  0  0  0  0
   45.8139   30.6887   43.4924 H   0  0  0  0  0  0  0  0  0  0  0  0
   46.6310   28.5973   45.1388 H   0  0  0  0  0  0  0  0  0  0  0  0
   44.7623   26.8557   44.0871 H   0  0  0  0  0  0  0  0  0  0  0  0
   44.8653   27.5178   42.6740 H   0  0  0  0  0  0  0  0  0  0  0  0
   43.8570   29.8473   43.8608 H   0  0  0  0  0  0  0  0  0  0  0  0
   43.5110   29.1241   45.1890 H   0  0  0  0  0  0  0  0  0  0  0  0
  1  6  2  0
  2  1  1  0
  3  2  2  0
  3  4  1  0
  4  5  2  0
  5  6  1  0
  5  7  1  0
  7 11  1  0
  8  7  1  0
  8  9  2  0
  9 10  1  0
 10 12  1  0
 11 10  2  0
 13 15  1  0
 13  2  1  0
 14 13  1  0
 16 13  1  0
 17 19  1  0
 17  8  1  0
 18 17  1  0
 20 21  1  0
 20 17  1  0
 22 23  1  0
 22 21  1  0
 23 21  1  0
  1 24  1  0
  3 25  1  0
 12 26  1  0
 12 27  1  0
 18 28  1  0
 18 29  1  0
 18 30  1  0
 19 31  1  0
 19 32  1  0
 19 33  1  0
 20 34  1  0
 20 35  1  0
 21 36  1  0
 22 37  1  0
 22 38  1  0
 23 39  1  0
 23 40  1  0
M  ISO  8  24  14  25  14  28   8  29   8  30   8  31   8  32   8  33   8
M  ISO  7  34   8  35   8  36  13  37  13  38  13  39  13  40  13
M  END
>  <minimizedAffinity>  (1) 
-4.7115202

>  <minimizedRMSD>  (1) 
0.551520348

$$$$
