
     RDKit          3D

 40 42  0  0  0  0  0  0  0  0999 V2000
   45.0750   35.0870   44.4390 C   0  0  0  0  0  0  0  0  0  0  0  0
   44.7030   34.5050   43.2240 C   0  0  0  0  0  0  0  0  0  0  0  0
   44.8860   33.1410   43.0660 C   0  0  0  0  0  0  0  0  0  0  0  0
   45.4200   32.4990   44.1300 N   0  0  0  0  0  0  0  0  0  0  0  0
   45.7750   32.9970   45.2630 C   0  0  0  0  0  0  0  0  0  0  0  0
   45.6000   34.3150   45.4240 N   0  0  0  0  0  0  0  0  0  0  0  0
   46.3100   32.1350   46.2190 N   0  0  0  0  0  0  0  0  0  0  0  0
   47.1220   31.1090   45.8610 C   0  0  0  0  0  0  0  0  0  0  0  0
   47.4660   30.4770   47.0010 N   0  0  0  0  0  0  0  0  0  0  0  0
   46.8650   31.1240   48.0090 C   0  0  0  0  0  0  0  0  0  0  0  0
   46.1450   32.1540   47.5270 N   0  0  0  0  0  0  0  0  0  0  0  0
   46.9360   30.8160   49.4140 N   0  0  0  0  0  0  0  0  0  0  0  0
   44.1440   35.4140   42.2000 C   0  0  0  0  0  0  0  0  0  0  0  0
   44.5790   35.0190   40.9300 F   0  0  0  0  0  0  0  0  0  0  0  0
   44.5440   36.7510   42.3620 F   0  0  0  0  0  0  0  0  0  0  0  0
   42.7820   35.3650   42.1630 F   0  0  0  0  0  0  0  0  0  0  0  0
   47.6510   30.5900   44.5420 C   0  0  0  0  0  0  0  0  0  0  0  0
   48.2280   31.7270   43.7040 C   0  0  0  0  0  0  0  0  0  0  0  0
   48.8390   29.6450   44.7840 C   0  0  0  0  0  0  0  0  0  0  0  0
   46.6040   29.8940   43.7400 C   0  0  0  0  0  0  0  0  0  0  0  0
   47.1690   29.7670   42.2800 C   0  0  0  0  0  0  0  0  0  0  0  0
   46.8630   30.5990   41.2880 C   0  0  0  0  0  0  0  0  0  0  0  0
   47.3390   30.5030   40.0240 C   0  0  0  0  0  0  0  0  0  0  0  0
   48.2520   29.3300   39.9140 C   0  0  0  0  0  0  0  0  0  0  0  0
   48.2540   28.5840   41.6530 S   0  0  0  0  0  0  0  0  0  0  0  0
   44.9426   36.1676   44.5964 H   0  0  0  0  0  0  0  0  0  0  0  0
   44.6154   32.6157   42.1382 H   0  0  0  0  0  0  0  0  0  0  0  0
   46.4236   31.3948   50.0947 H   0  0  0  0  0  0  0  0  0  0  0  0
   47.4992   30.0169   49.7382 H   0  0  0  0  0  0  0  0  0  0  0  0
   48.6244   32.5082   44.3693 H   0  0  0  0  0  0  0  0  0  0  0  0
   49.0387   31.3398   43.0693 H   0  0  0  0  0  0  0  0  0  0  0  0
   47.4369   32.1527   43.0693 H   0  0  0  0  0  0  0  0  0  0  0  0
   48.9946   29.5212   45.8659 H   0  0  0  0  0  0  0  0  0  0  0  0
   48.6271   28.6659   44.3296 H   0  0  0  0  0  0  0  0  0  0  0  0
   49.7454   30.0717   44.3296 H   0  0  0  0  0  0  0  0  0  0  0  0
   46.4058   28.8962   44.1586 H   0  0  0  0  0  0  0  0  0  0  0  0
   45.6571   30.4537   43.7520 H   0  0  0  0  0  0  0  0  0  0  0  0
   46.1725   31.4257   41.5110 H   0  0  0  0  0  0  0  0  0  0  0  0
   47.0891   31.1886   39.2009 H   0  0  0  0  0  0  0  0  0  0  0  0
   48.7987   28.9789   39.0264 H   0  0  0  0  0  0  0  0  0  0  0  0
  1  6  2  0
  2  1  1  0
  3  2  2  0
  3  4  1  0
  4  5  2  0
  5  6  1  0
  5  7  1  0
  7 11  1  0
  8  7  1  0
  8  9  2  0
  9 10  1  0
 10 12  1  0
 11 10  2  0
 13 15  1  0
 13  2  1  0
 14 13  1  0
 16 13  1  0
 17 19  1  0
 17  8  1  0
 18 17  1  0
 20 17  1  0
 21 20  1  0
 22 21  2  0
 23 22  1  0
 24 23  2  0
 24 25  1  0
 25 21  1  0
  1 26  1  0
  3 27  1  0
 12 28  1  0
 12 29  1  0
 18 30  1  0
 18 31  1  0
 18 32  1  0
 19 33  1  0
 19 34  1  0
 19 35  1  0
 20 36  1  0
 20 37  1  0
 22 38  1  0
 23 39  1  0
 24 40  1  0
M  ISO  8  26  14  27  14  30   8  31   8  32   8  33   8  34   8  35   8
M  ISO  5  36   8  37   8  38  14  39  14  40  14
M  END
>  <minimizedAffinity>  (1) 
-4.73056841

>  <minimizedRMSD>  (1) 
0.44762364

$$$$
