
     RDKit          3D

 49 53  0  0  0  0  0  0  0  0999 V2000
   44.6340   36.0180   44.6420 C   0  0  0  0  0  0  0  0  0  0  0  0
   44.4390   35.6450   43.2900 C   0  0  0  0  0  0  0  0  0  0  0  0
   44.6760   34.3380   42.9490 C   0  0  0  0  0  0  0  0  0  0  0  0
   45.0800   33.4420   43.8750 N   0  0  0  0  0  0  0  0  0  0  0  0
   45.2640   33.8270   45.1850 C   0  0  0  0  0  0  0  0  0  0  0  0
   45.0400   35.1000   45.5470 N   0  0  0  0  0  0  0  0  0  0  0  0
   44.4710   33.9840   41.5820 N   0  0  0  0  0  0  0  0  0  0  0  0
   43.3160   33.6020   41.0070 C   0  0  0  0  0  0  0  0  0  0  0  0
   43.2890   33.2910   39.6600 C   0  0  0  0  0  0  0  0  0  0  0  0
   44.4170   33.3590   38.8820 C   0  0  0  0  0  0  0  0  0  0  0  0
   44.4070   33.0800   37.6600 O   0  0  0  0  0  0  0  0  0  0  0  0
   45.5590   33.7460   39.4960 N   0  0  0  0  0  0  0  0  0  0  0  0
   45.5710   34.0490   40.8200 C   0  0  0  0  0  0  0  0  0  0  0  0
   46.7220   34.3980   41.2570 O   0  0  0  0  0  0  0  0  0  0  0  0
   42.0330   32.8750   39.0480 C   0  0  0  0  0  0  0  0  0  0  0  0
   45.6900   32.8490   46.1740 C   0  0  0  0  0  0  0  0  0  0  0  0
   45.2620   32.7320   47.4880 C   0  0  0  0  0  0  0  0  0  0  0  0
   45.9040   31.7150   48.0910 N   0  0  0  0  0  0  0  0  0  0  0  0
   46.7520   31.1780   47.1430 C   0  0  0  0  0  0  0  0  0  0  0  0
   46.6110   31.8700   45.9950 N   0  0  0  0  0  0  0  0  0  0  0  0
   47.5990   30.1070   47.6110 C   0  0  0  0  0  0  0  0  0  0  0  0
   47.5530   28.7740   47.2900 C   0  0  0  0  0  0  0  0  0  0  0  0
   48.3890   27.7820   47.6900 C   0  0  0  0  0  0  0  0  0  0  0  0
   49.4280   28.0870   48.5170 C   0  0  0  0  0  0  0  0  0  0  0  0
   49.5830   29.3930   48.9110 C   0  0  0  0  0  0  0  0  0  0  0  0
   50.6590   29.6510   49.7300 C   0  0  0  0  0  0  0  0  0  0  0  0
   50.9020   30.9370   50.1510 C   0  0  0  0  0  0  0  0  0  0  0  0
   50.0470   31.9340   49.7330 C   0  0  0  0  0  0  0  0  0  0  0  0
   48.9920   31.5980   48.9160 C   0  0  0  0  0  0  0  0  0  0  0  0
   48.6920   30.3370   48.4610 C   0  0  0  0  0  0  0  0  0  0  0  0
   47.3260   31.6310   44.7670 C   0  0  0  0  0  0  0  0  0  0  0  0
   48.4090   30.7280   44.9370 F   0  0  0  0  0  0  0  0  0  0  0  0
   47.8720   32.8070   44.2360 F   0  0  0  0  0  0  0  0  0  0  0  0
   46.5190   31.0510   43.8100 F   0  0  0  0  0  0  0  0  0  0  0  0
   44.4547   37.0568   44.9563 H   0  0  0  0  0  0  0  0  0  0  0  0
   44.1089   36.3781   42.5393 H   0  0  0  0  0  0  0  0  0  0  0  0
   42.3961   33.5373   41.6067 H   0  0  0  0  0  0  0  0  0  0  0  0
   46.4311   33.8117   38.9519 H   0  0  0  0  0  0  0  0  0  0  0  0
   41.3038   32.6335   39.8353 H   0  0  0  0  0  0  0  0  0  0  0  0
   41.6413   33.6914   38.4234 H   0  0  0  0  0  0  0  0  0  0  0  0
   42.2061   31.9862   38.4234 H   0  0  0  0  0  0  0  0  0  0  0  0
   44.5090   33.3755   47.9664 H   0  0  0  0  0  0  0  0  0  0  0  0
   46.7332   28.4698   46.6226 H   0  0  0  0  0  0  0  0  0  0  0  0
   48.2300   26.7475   47.3515 H   0  0  0  0  0  0  0  0  0  0  0  0
   50.1242   27.3075   48.8599 H   0  0  0  0  0  0  0  0  0  0  0  0
   51.3215   28.8318   50.0462 H   0  0  0  0  0  0  0  0  0  0  0  0
   51.7569   31.1645   50.8047 H   0  0  0  0  0  0  0  0  0  0  0  0
   50.2048   32.9767   50.0460 H   0  0  0  0  0  0  0  0  0  0  0  0
   48.3274   32.4147   48.5978 H   0  0  0  0  0  0  0  0  0  0  0  0
  1  6  2  0
  2  1  1  0
  3  2  2  0
  3  4  1  0
  4  5  2  0
  5  6  1  0
  5 16  1  0
  7  3  1  0
  8  7  1  0
  9  8  2  0
 10 12  1  0
 10  9  1  0
 11 10  2  0
 12 13  1  0
 13 14  2  0
 13  7  1  0
 15  9  1  0
 16 17  2  0
 17 18  1  0
 19 21  1  0
 19 18  2  0
 20 16  1  0
 20 19  1  0
 21 30  1  0
 22 21  2  0
 22 23  1  0
 23 24  2  0
 24 25  1  0
 25 26  1  0
 26 27  2  0
 28 27  1  0
 29 28  2  0
 30 25  2  0
 30 29  1  0
 31 32  1  0
 31 20  1  0
 33 31  1  0
 34 31  1  0
  1 35  1  0
  2 36  1  0
  8 37  1  0
 12 38  1  0
 15 39  1  0
 15 40  1  0
 15 41  1  0
 17 42  1  0
 22 43  1  0
 23 44  1  0
 24 45  1  0
 26 46  1  0
 27 47  1  0
 28 48  1  0
 29 49  1  0
M  ISO  8  35  14  36  14  37  14  38   9  39   8  40   8  41   8  42  14
M  ISO  7  43  14  44  14  45  14  46  14  47  14  48  14  49  14
M  END
>  <minimizedAffinity>  (1) 
-6.95351219

>  <minimizedRMSD>  (1) 
2.31865358

$$$$
