
     RDKit          3D

 46 48  0  0  0  0  0  0  0  0999 V2000
   47.7240   30.7150   44.4290 C   0  0  0  0  0  0  0  0  0  0  0  0
   44.9780   35.1150   44.4820 C   0  0  0  0  0  0  0  0  0  0  0  0
   44.6670   34.5860   43.2290 C   0  0  0  0  0  0  0  0  0  0  0  0
   44.9170   33.2460   43.0100 C   0  0  0  0  0  0  0  0  0  0  0  0
   45.4470   32.5690   44.0540 N   0  0  0  0  0  0  0  0  0  0  0  0
   45.7470   33.0210   45.2210 C   0  0  0  0  0  0  0  0  0  0  0  0
   45.5110   34.3130   45.4440 N   0  0  0  0  0  0  0  0  0  0  0  0
   46.2830   32.1320   46.1420 N   0  0  0  0  0  0  0  0  0  0  0  0
   47.1360   31.1480   45.7640 C   0  0  0  0  0  0  0  0  0  0  0  0
   47.4770   30.4610   46.8740 N   0  0  0  0  0  0  0  0  0  0  0  0
   46.8190   31.0500   47.9020 C   0  0  0  0  0  0  0  0  0  0  0  0
   46.0830   32.0810   47.4500 N   0  0  0  0  0  0  0  0  0  0  0  0
   46.8700   30.6770   49.2860 N   0  0  0  0  0  0  0  0  0  0  0  0
   44.0950   35.5190   42.2370 C   0  0  0  0  0  0  0  0  0  0  0  0
   44.4830   35.1290   40.9480 F   0  0  0  0  0  0  0  0  0  0  0  0
   44.5430   36.8410   42.3950 F   0  0  0  0  0  0  0  0  0  0  0  0
   42.7350   35.5090   42.2440 F   0  0  0  0  0  0  0  0  0  0  0  0
   48.3310   31.9080   43.7010 C   0  0  0  0  0  0  0  0  0  0  0  0
   48.9090   29.7700   44.6780 C   0  0  0  0  0  0  0  0  0  0  0  0
   46.7160   30.0660   43.5550 C   0  0  0  0  0  0  0  0  0  0  0  0
   48.1450   30.1690   39.4670 C   0  0  0  0  0  0  0  0  0  0  0  0
   47.2450   31.0940   39.9000 C   0  0  0  0  0  0  0  0  0  0  0  0
   46.8310   30.9940   41.1960 C   0  0  0  0  0  0  0  0  0  0  0  0
   47.2470   30.0280   42.1200 C   0  0  0  0  0  0  0  0  0  0  0  0
   48.1570   29.1240   41.6220 C   0  0  0  0  0  0  0  0  0  0  0  0
   48.6010   29.1880   40.3200 C   0  0  0  0  0  0  0  0  0  0  0  0
   48.7450   30.1950   37.8330 S   0  0  0  0  0  0  0  0  0  0  0  0
   47.7710   30.9300   36.9620 O   0  0  0  0  0  0  0  0  0  0  0  0
   48.8250   28.7830   37.3220 O   0  0  0  0  0  0  0  0  0  0  0  0
   44.7927   36.1787   44.6922 H   0  0  0  0  0  0  0  0  0  0  0  0
   44.6990   32.7599   42.0476 H   0  0  0  0  0  0  0  0  0  0  0  0
   46.3222   31.2031   49.9817 H   0  0  0  0  0  0  0  0  0  0  0  0
   47.4544   29.8830   49.5842 H   0  0  0  0  0  0  0  0  0  0  0  0
   48.7018   32.6367   44.4369 H   0  0  0  0  0  0  0  0  0  0  0  0
   49.1652   31.5670   43.0703 H   0  0  0  0  0  0  0  0  0  0  0  0
   47.5642   32.3816   43.0703 H   0  0  0  0  0  0  0  0  0  0  0  0
   49.0604   29.6492   45.7608 H   0  0  0  0  0  0  0  0  0  0  0  0
   48.6976   28.7898   44.2258 H   0  0  0  0  0  0  0  0  0  0  0  0
   49.8176   30.1942   44.2258 H   0  0  0  0  0  0  0  0  0  0  0  0
   46.5299   29.0403   43.9061 H   0  0  0  0  0  0  0  0  0  0  0  0
   45.7759   30.6362   43.5871 H   0  0  0  0  0  0  0  0  0  0  0  0
   46.8689   31.8857   39.2354 H   0  0  0  0  0  0  0  0  0  0  0  0
   46.1037   31.7408   41.5472 H   0  0  0  0  0  0  0  0  0  0  0  0
   48.5395   28.3302   42.2805 H   0  0  0  0  0  0  0  0  0  0  0  0
   49.3284   28.4471   39.9568 H   0  0  0  0  0  0  0  0  0  0  0  0
   49.9738   30.8004   37.8097 H   0  0  0  0  0  0  0  0  0  0  0  0
  1 19  1  0
  1  9  1  0
  2  7  2  0
  3  2  1  0
  4  3  2  0
  4  5  1  0
  5  6  2  0
  6  7  1  0
  6  8  1  0
  8 12  1  0
  9  8  1  0
  9 10  2  0
 10 11  1  0
 11 13  1  0
 12 11  2  0
 14 17  1  0
 14 16  1  0
 14  3  1  0
 15 14  1  0
 18  1  1  0
 20  1  1  0
 21 22  2  0
 21 26  1  0
 22 23  1  0
 23 24  2  0
 24 20  1  0
 25 24  1  0
 26 25  2  0
 27 21  1  0
 28 27  2  0
 29 27  2  0
  2 30  1  0
  4 31  1  0
 13 32  1  0
 13 33  1  0
 18 34  1  0
 18 35  1  0
 18 36  1  0
 19 37  1  0
 19 38  1  0
 19 39  1  0
 20 40  1  0
 20 41  1  0
 22 42  1  0
 23 43  1  0
 25 44  1  0
 26 45  1  0
 27 46  1  0
M  ISO  8  30  14  31  14  34   8  35   8  36   8  37   8  38   8  39   8
M  ISO  7  40   8  41   8  42  14  43  14  44  14  45  14  46  11
M  END
>  <minimizedAffinity>  (1) 
-4.66591072

>  <minimizedRMSD>  (1) 
1.23021972

$$$$
