
     RDKit          3D

 39 41  0  0  0  0  0  0  0  0999 V2000
   45.0310   35.1140   44.4580 C   0  0  0  0  0  0  0  0  0  0  0  0
   44.6880   34.5470   43.2310 C   0  0  0  0  0  0  0  0  0  0  0  0
   44.8850   33.1890   43.0660 C   0  0  0  0  0  0  0  0  0  0  0  0
   45.4000   32.5330   44.1280 N   0  0  0  0  0  0  0  0  0  0  0  0
   45.7280   33.0220   45.2760 C   0  0  0  0  0  0  0  0  0  0  0  0
   45.5430   34.3320   45.4490 N   0  0  0  0  0  0  0  0  0  0  0  0
   46.2460   32.1510   46.2280 N   0  0  0  0  0  0  0  0  0  0  0  0
   47.0630   31.1250   45.8790 C   0  0  0  0  0  0  0  0  0  0  0  0
   47.3920   30.4780   47.0140 N   0  0  0  0  0  0  0  0  0  0  0  0
   46.7660   31.1250   48.0230 C   0  0  0  0  0  0  0  0  0  0  0  0
   46.0590   32.1570   47.5320 N   0  0  0  0  0  0  0  0  0  0  0  0
   46.8070   30.8110   49.4260 N   0  0  0  0  0  0  0  0  0  0  0  0
   44.1420   35.4640   42.2110 C   0  0  0  0  0  0  0  0  0  0  0  0
   44.5900   35.0650   40.9410 F   0  0  0  0  0  0  0  0  0  0  0  0
   44.5620   36.7930   42.3730 F   0  0  0  0  0  0  0  0  0  0  0  0
   42.7850   35.4270   42.1590 F   0  0  0  0  0  0  0  0  0  0  0  0
   47.6170   30.6220   44.5770 C   0  0  0  0  0  0  0  0  0  0  0  0
   48.2200   31.7600   43.7460 C   0  0  0  0  0  0  0  0  0  0  0  0
   48.8010   29.6680   44.8310 C   0  0  0  0  0  0  0  0  0  0  0  0
   46.5970   29.9560   43.7260 C   0  0  0  0  0  0  0  0  0  0  0  0
   47.1970   29.9680   42.3040 C   0  0  0  0  0  0  0  0  0  0  0  0
   47.9070   28.7360   41.8680 C   0  0  0  0  0  0  0  0  0  0  0  0
   48.4470   29.1660   40.1900 S   0  0  0  0  0  0  0  0  0  0  0  0
   47.6780   30.8670   40.3040 C   0  0  0  0  0  0  0  0  0  0  0  0
   47.1960   30.9200   41.3710 N   0  0  0  0  0  0  0  0  0  0  0  0
   44.8883   36.1918   44.6255 H   0  0  0  0  0  0  0  0  0  0  0  0
   44.6372   32.6737   42.1263 H   0  0  0  0  0  0  0  0  0  0  0  0
   46.2809   31.3873   50.0983 H   0  0  0  0  0  0  0  0  0  0  0  0
   47.3625   30.0099   49.7584 H   0  0  0  0  0  0  0  0  0  0  0  0
   48.6275   32.5291   44.4186 H   0  0  0  0  0  0  0  0  0  0  0  0
   49.0262   31.3633   43.1115 H   0  0  0  0  0  0  0  0  0  0  0  0
   47.4390   32.2043   43.1115 H   0  0  0  0  0  0  0  0  0  0  0  0
   48.9496   29.5483   45.9143 H   0  0  0  0  0  0  0  0  0  0  0  0
   48.5856   28.6881   44.3800 H   0  0  0  0  0  0  0  0  0  0  0  0
   49.7127   30.0869   44.3800 H   0  0  0  0  0  0  0  0  0  0  0  0
   46.4247   28.9237   44.0646 H   0  0  0  0  0  0  0  0  0  0  0  0
   45.6239   30.4672   43.7692 H   0  0  0  0  0  0  0  0  0  0  0  0
   48.0650   27.7996   42.4232 H   0  0  0  0  0  0  0  0  0  0  0  0
   47.6781   31.6515   39.5330 H   0  0  0  0  0  0  0  0  0  0  0  0
  1  6  2  0
  2  1  1  0
  3  2  2  0
  3  4  1  0
  4  5  2  0
  5  6  1  0
  5  7  1  0
  7 11  1  0
  8  7  1  0
  8  9  2  0
  9 10  1  0
 10 12  1  0
 11 10  2  0
 13 15  1  0
 13  2  1  0
 14 13  1  0
 16 13  1  0
 17 19  1  0
 17  8  1  0
 18 17  1  0
 20 17  1  0
 21 20  1  0
 22 21  2  0
 23 24  1  0
 23 22  1  0
 24 25  2  0
 25 21  1  0
  1 26  1  0
  3 27  1  0
 12 28  1  0
 12 29  1  0
 18 30  1  0
 18 31  1  0
 18 32  1  0
 19 33  1  0
 19 34  1  0
 19 35  1  0
 20 36  1  0
 20 37  1  0
 22 38  1  0
 24 39  1  0
M  ISO  8  26  14  27  14  30   8  31   8  32   8  33   8  34   8  35   8
M  ISO  4  36   8  37   8  38  14  39  14
M  END
>  <minimizedAffinity>  (1) 
-4.76889324

>  <minimizedRMSD>  (1) 
0.710776985

$$$$
