
     RDKit          3D

 49 51  0  0  0  0  0  0  0  0999 V2000
   45.0950   35.1110   44.4150 C   0  0  0  0  0  0  0  0  0  0  0  0
   44.6960   34.5180   43.2220 C   0  0  0  0  0  0  0  0  0  0  0  0
   44.8470   33.1470   43.0880 C   0  0  0  0  0  0  0  0  0  0  0  0
   45.3810   32.5180   44.1580 N   0  0  0  0  0  0  0  0  0  0  0  0
   45.7610   33.0280   45.2750 C   0  0  0  0  0  0  0  0  0  0  0  0
   45.6200   34.3480   45.4160 N   0  0  0  0  0  0  0  0  0  0  0  0
   46.2870   32.1780   46.2330 N   0  0  0  0  0  0  0  0  0  0  0  0
   47.0780   31.1190   45.8850 C   0  0  0  0  0  0  0  0  0  0  0  0
   47.4260   30.4950   47.0320 N   0  0  0  0  0  0  0  0  0  0  0  0
   46.8500   31.1730   48.0350 C   0  0  0  0  0  0  0  0  0  0  0  0
   46.1480   32.2120   47.5440 N   0  0  0  0  0  0  0  0  0  0  0  0
   46.9370   30.8870   49.4400 N   0  0  0  0  0  0  0  0  0  0  0  0
   44.1400   35.4140   42.1840 C   0  0  0  0  0  0  0  0  0  0  0  0
   44.5850   35.0100   40.9180 F   0  0  0  0  0  0  0  0  0  0  0  0
   44.5390   36.7520   42.3380 F   0  0  0  0  0  0  0  0  0  0  0  0
   42.7800   35.3650   42.1400 F   0  0  0  0  0  0  0  0  0  0  0  0
   47.5850   30.5620   44.5540 C   0  0  0  0  0  0  0  0  0  0  0  0
   48.1850   31.6870   43.7190 C   0  0  0  0  0  0  0  0  0  0  0  0
   48.7650   29.6210   44.8360 C   0  0  0  0  0  0  0  0  0  0  0  0
   46.5070   29.8780   43.8060 C   0  0  0  0  0  0  0  0  0  0  0  0
   46.8690   28.6560   42.9820 C   0  0  0  0  0  0  0  0  0  0  0  0
   45.6950   27.6320   43.1010 C   0  0  0  0  0  0  0  0  0  0  0  0
   44.7350   27.7750   41.9540 C   0  0  0  0  0  0  0  0  0  0  0  0
   45.3770   27.1930   40.6860 C   0  0  0  0  0  0  0  0  0  0  0  0
   46.8650   27.4400   40.8330 C   0  0  0  0  0  0  0  0  0  0  0  0
   47.0030   28.8210   41.5050 C   0  0  0  0  0  0  0  0  0  0  0  0
   44.9870   36.1971   44.5514 H   0  0  0  0  0  0  0  0  0  0  0  0
   44.5529   32.6087   42.1749 H   0  0  0  0  0  0  0  0  0  0  0  0
   46.4458   31.4860   50.1189 H   0  0  0  0  0  0  0  0  0  0  0  0
   47.4906   30.0829   49.7686 H   0  0  0  0  0  0  0  0  0  0  0  0
   48.5967   32.4590   44.3857 H   0  0  0  0  0  0  0  0  0  0  0  0
   48.9881   31.2843   43.0843 H   0  0  0  0  0  0  0  0  0  0  0  0
   47.4032   32.1296   43.0843 H   0  0  0  0  0  0  0  0  0  0  0  0
   48.8979   29.5150   45.9228 H   0  0  0  0  0  0  0  0  0  0  0  0
   48.5613   28.6347   44.3936 H   0  0  0  0  0  0  0  0  0  0  0  0
   49.6812   30.0391   44.3936 H   0  0  0  0  0  0  0  0  0  0  0  0
   45.7498   29.5640   44.5395 H   0  0  0  0  0  0  0  0  0  0  0  0
   46.1781   30.6196   43.0632 H   0  0  0  0  0  0  0  0  0  0  0  0
   47.8516   28.3718   43.3867 H   0  0  0  0  0  0  0  0  0  0  0  0
   46.1065   26.6119   43.1002 H   0  0  0  0  0  0  0  0  0  0  0  0
   45.1527   27.8291   44.0375 H   0  0  0  0  0  0  0  0  0  0  0  0
   43.8068   27.2299   42.1804 H   0  0  0  0  0  0  0  0  0  0  0  0
   44.5013   28.8383   41.7966 H   0  0  0  0  0  0  0  0  0  0  0  0
   44.9897   27.7021   39.7911 H   0  0  0  0  0  0  0  0  0  0  0  0
   45.1514   26.1227   40.5698 H   0  0  0  0  0  0  0  0  0  0  0  0
   47.3212   26.6616   41.4623 H   0  0  0  0  0  0  0  0  0  0  0  0
   47.3757   27.4133   39.8591 H   0  0  0  0  0  0  0  0  0  0  0  0
   47.9883   29.2494   41.2693 H   0  0  0  0  0  0  0  0  0  0  0  0
   46.2184   29.4963   41.1330 H   0  0  0  0  0  0  0  0  0  0  0  0
  1  6  2  0
  2  1  1  0
  3  2  2  0
  3  4  1  0
  4  5  2  0
  5  6  1  0
  5  7  1  0
  7 11  1  0
  8  7  1  0
  8  9  2  0
  9 10  1  0
 10 12  1  0
 11 10  2  0
 13 15  1  0
 13  2  1  0
 14 13  1  0
 16 13  1  0
 17 19  1  0
 17  8  1  0
 18 17  1  0
 20 17  1  0
 21 22  1  0
 21 20  1  0
 23 22  1  0
 24 25  1  0
 24 23  1  0
 25 26  1  0
 26 21  1  0
  1 27  1  0
  3 28  1  0
 12 29  1  0
 12 30  1  0
 18 31  1  0
 18 32  1  0
 18 33  1  0
 19 34  1  0
 19 35  1  0
 19 36  1  0
 20 37  1  0
 20 38  1  0
 21 39  1  0
 22 40  1  0
 22 41  1  0
 23 42  1  0
 23 43  1  0
 24 44  1  0
 24 45  1  0
 25 46  1  0
 25 47  1  0
 26 48  1  0
 26 49  1  0
M  ISO  8  27  14  28  14  31   8  32   8  33   8  34   8  35   8  36   8
M  ISO  8  37   8  38   8  39  13  40  13  41  13  42  13  43  13  44  13
M  ISO  5  45  13  46  13  47  13  48  13  49  13
M  END
>  <minimizedAffinity>  (1) 
-4.63308907

>  <minimizedRMSD>  (1) 
1.5766176

$$$$
