
     RDKit          3D

 47 51  0  0  1  0  0  0  0  0999 V2000
   45.9200   30.7360   47.3650 C   0  0  2  0  0  0  0  0  0  0  0  0
   44.7900   34.6440   46.1290 C   0  0  0  0  0  0  0  0  0  0  0  0
   44.6860   35.3250   44.9160 C   0  0  0  0  0  0  0  0  0  0  0  0
   45.3130   34.7720   43.7830 C   0  0  0  0  0  0  0  0  0  0  0  0
   45.9830   33.6130   43.9200 N   0  0  0  0  0  0  0  0  0  0  0  0
   46.0760   32.9560   45.1160 C   0  0  0  0  0  0  0  0  0  0  0  0
   45.4790   33.4840   46.1950 N   0  0  0  0  0  0  0  0  0  0  0  0
   46.7790   31.7460   45.2750 N   0  0  0  0  0  0  0  0  0  0  0  0
   47.6880   31.4510   44.3040 C   0  0  0  0  0  0  0  0  0  0  0  0
   48.2550   30.2190   44.6940 C   0  0  0  0  0  0  0  0  0  0  0  0
   47.6730   29.8310   45.8620 N   0  0  0  0  0  0  0  0  0  0  0  0
   46.7760   30.7700   46.2030 C   0  0  0  0  0  0  0  0  0  0  0  0
   46.6710   31.5120   48.4860 C   0  0  0  0  0  0  0  0  0  0  0  0
   45.7690   29.3260   47.8750 C   0  0  0  0  0  0  0  0  0  0  0  0
   44.8080   28.5530   47.1490 N   0  0  0  0  0  0  0  0  0  0  0  0
   44.2210   28.9600   45.9990 N   0  0  0  0  0  0  0  0  0  0  0  0
   43.3720   27.9700   45.6040 C   0  0  0  0  0  0  0  0  0  0  0  0
   43.4380   26.9310   46.5290 C   0  0  0  0  0  0  0  0  0  0  0  0
   44.3450   27.3320   47.4780 C   0  0  0  0  0  0  0  0  0  0  0  0
   44.6540   26.4850   48.5930 C   0  0  0  0  0  0  0  0  0  0  0  0
   44.0350   26.5640   49.8130 C   0  0  0  0  0  0  0  0  0  0  0  0
   44.5220   25.6460   50.6830 N   0  0  0  0  0  0  0  0  0  0  0  0
   45.4930   24.9160   50.0600 C   0  0  0  0  0  0  0  0  0  0  0  0
   46.3100   23.8740   50.4510 C   0  0  0  0  0  0  0  0  0  0  0  0
   47.2090   23.3510   49.5490 C   0  0  0  0  0  0  0  0  0  0  0  0
   47.3030   23.8520   48.2670 C   0  0  0  0  0  0  0  0  0  0  0  0
   46.4580   24.8880   47.9490 C   0  0  0  0  0  0  0  0  0  0  0  0
   45.5370   25.4670   48.7830 C   0  0  0  0  0  0  0  0  0  0  0  0
   44.9351   31.1536   47.1088 H   0  0  0  0  0  0  0  0  0  0  0  0
   44.3111   35.0515   47.0315 H   0  0  0  0  0  0  0  0  0  0  0  0
   44.1281   36.2704   44.8463 H   0  0  0  0  0  0  0  0  0  0  0  0
   45.2564   35.2764   42.8071 H   0  0  0  0  0  0  0  0  0  0  0  0
   47.9280   32.0447   43.4096 H   0  0  0  0  0  0  0  0  0  0  0  0
   49.0339   29.6667   44.1478 H   0  0  0  0  0  0  0  0  0  0  0  0
   46.3285   31.1581   49.4696 H   0  0  0  0  0  0  0  0  0  0  0  0
   47.7530   31.3386   48.3903 H   0  0  0  0  0  0  0  0  0  0  0  0
   46.4622   32.5878   48.3903 H   0  0  0  0  0  0  0  0  0  0  0  0
   46.7450   28.8239   47.8028 H   0  0  0  0  0  0  0  0  0  0  0  0
   45.4093   29.3954   48.9122 H   0  0  0  0  0  0  0  0  0  0  0  0
   42.7396   27.9884   44.7041 H   0  0  0  0  0  0  0  0  0  0  0  0
   42.8786   25.9842   46.5042 H   0  0  0  0  0  0  0  0  0  0  0  0
   43.2401   27.2844   50.0564 H   0  0  0  0  0  0  0  0  0  0  0  0
   44.2101   25.5196   51.6565 H   0  0  0  0  0  0  0  0  0  0  0  0
   46.2435   23.4667   51.4706 H   0  0  0  0  0  0  0  0  0  0  0  0
   47.8625   22.5208   49.8552 H   0  0  0  0  0  0  0  0  0  0  0  0
   48.0174   23.4433   47.5372 H   0  0  0  0  0  0  0  0  0  0  0  0
   46.5273   25.2911   46.9279 H   0  0  0  0  0  0  0  0  0  0  0  0
  1 14  1  0
  1 13  1  0
  2  7  2  0
  3  2  1  0
  4  5  1  0
  4  3  2  0
  5  6  2  0
  6  8  1  0
  6  7  1  0
  8 12  1  0
  9 10  2  0
  9  8  1  0
 10 11  1  0
 11 12  2  0
 12  1  1  0
 15 19  1  0
 15 14  1  0
 16 15  1  0
 17 16  2  0
 17 18  1  0
 18 19  2  0
 19 20  1  0
 20 28  1  0
 20 21  2  0
 21 22  1  0
 23 24  2  0
 23 22  1  0
 25 24  1  0
 26 25  2  0
 27 26  1  0
 27 28  2  0
 28 23  1  0
  1 29  1  6
  2 30  1  0
  3 31  1  0
  4 32  1  0
  9 33  1  0
 10 34  1  0
 13 35  1  0
 13 36  1  0
 13 37  1  0
 14 38  1  0
 14 39  1  0
 17 40  1  0
 18 41  1  0
 21 42  1  0
 22 43  1  0
 24 44  1  0
 25 45  1  0
 26 46  1  0
 27 47  1  0
M  ISO  8  29   8  30  14  31  14  32  14  33  14  34  14  35   8  36   8
M  ISO  8  37   8  38   8  39   8  40  14  41  14  42  14  43   9  44  14
M  ISO  3  45  14  46  14  47  14
M  END
>  <minimizedAffinity>  (1) 
-6.03042555

>  <minimizedRMSD>  (1) 
2.04983139

$$$$
