
     RDKit          3D

 55 58  0  0  0  0  0  0  0  0999 V2000
   46.0050   26.9010   46.0710 C   0  0  0  0  0  0  0  0  0  0  0  0
   40.9160   26.7130   45.1010 C   0  0  0  0  0  0  0  0  0  0  0  0
   41.4850   26.3690   43.8730 C   0  0  0  0  0  0  0  0  0  0  0  0
   42.8100   25.9800   43.8530 C   0  0  0  0  0  0  0  0  0  0  0  0
   43.3940   25.9860   45.0770 N   0  0  0  0  0  0  0  0  0  0  0  0
   42.9480   26.2780   46.2090 C   0  0  0  0  0  0  0  0  0  0  0  0
   41.6660   26.6560   46.2310 N   0  0  0  0  0  0  0  0  0  0  0  0
   43.7890   26.1650   47.2970 N   0  0  0  0  0  0  0  0  0  0  0  0
   45.0940   26.4450   47.2060 C   0  0  0  0  0  0  0  0  0  0  0  0
   45.6140   26.2470   48.4300 N   0  0  0  0  0  0  0  0  0  0  0  0
   44.6100   25.8520   49.2340 C   0  0  0  0  0  0  0  0  0  0  0  0
   43.4860   25.8020   48.5290 N   0  0  0  0  0  0  0  0  0  0  0  0
   44.6750   25.5300   50.6340 N   0  0  0  0  0  0  0  0  0  0  0  0
   40.6200   26.4410   42.6790 C   0  0  0  0  0  0  0  0  0  0  0  0
   41.4060   26.3730   41.5150 F   0  0  0  0  0  0  0  0  0  0  0  0
   39.9010   27.6340   42.6020 F   0  0  0  0  0  0  0  0  0  0  0  0
   39.7290   25.4070   42.6090 F   0  0  0  0  0  0  0  0  0  0  0  0
   47.3590   27.3150   46.5940 C   0  0  0  0  0  0  0  0  0  0  0  0
   46.2990   25.6590   45.1910 C   0  0  0  0  0  0  0  0  0  0  0  0
   45.4160   28.0010   45.2690 C   0  0  0  0  0  0  0  0  0  0  0  0
   46.3620   29.1070   44.9310 C   0  0  0  0  0  0  0  0  0  0  0  0
   47.2960   29.3190   43.9000 C   0  0  0  0  0  0  0  0  0  0  0  0
   47.7470   30.5560   44.0640 N   0  0  0  0  0  0  0  0  0  0  0  0
   47.1230   31.0780   45.1540 C   0  0  0  0  0  0  0  0  0  0  0  0
   46.2570   30.2010   45.7270 N   0  0  0  0  0  0  0  0  0  0  0  0
   46.0440   31.8510   49.6790 N   0  0  0  0  0  0  0  0  0  0  0  0
   47.2230   31.4920   48.9160 C   0  0  0  0  0  0  0  0  0  0  0  0
   46.9570   31.7810   47.4570 C   0  0  0  0  0  0  0  0  0  0  0  0
   45.8570   31.0070   46.8660 C   0  0  0  0  0  0  0  0  0  0  0  0
   45.3520   30.1750   48.0950 C   0  0  0  0  0  0  0  0  0  0  0  0
   44.9040   31.1820   49.0840 C   0  0  0  0  0  0  0  0  0  0  0  0
   39.8636   27.0291   45.1524 H   0  0  0  0  0  0  0  0  0  0  0  0
   43.3405   25.6930   42.9331 H   0  0  0  0  0  0  0  0  0  0  0  0
   43.8239   25.2383   51.1354 H   0  0  0  0  0  0  0  0  0  0  0  0
   45.5727   25.5911   51.1354 H   0  0  0  0  0  0  0  0  0  0  0  0
   47.3443   27.3105   47.6939 H   0  0  0  0  0  0  0  0  0  0  0  0
   48.1224   26.6092   46.2346 H   0  0  0  0  0  0  0  0  0  0  0  0
   47.5971   28.3270   46.2346 H   0  0  0  0  0  0  0  0  0  0  0  0
   46.5041   24.7924   45.8367 H   0  0  0  0  0  0  0  0  0  0  0  0
   45.4267   25.4448   44.5560 H   0  0  0  0  0  0  0  0  0  0  0  0
   47.1747   25.8586   44.5560 H   0  0  0  0  0  0  0  0  0  0  0  0
   45.0386   27.5741   44.3281 H   0  0  0  0  0  0  0  0  0  0  0  0
   44.6264   28.4485   45.8905 H   0  0  0  0  0  0  0  0  0  0  0  0
   47.5919   28.6047   43.1175 H   0  0  0  0  0  0  0  0  0  0  0  0
   47.2996   32.0966   45.5300 H   0  0  0  0  0  0  0  0  0  0  0  0
   46.1553   31.5485   50.6573 H   0  0  0  0  0  0  0  0  0  0  0  0
   48.0828   32.0851   49.2609 H   0  0  0  0  0  0  0  0  0  0  0  0
   47.4498   30.4244   49.0532 H   0  0  0  0  0  0  0  0  0  0  0  0
   46.7151   32.8495   47.3584 H   0  0  0  0  0  0  0  0  0  0  0  0
   47.8676   31.4900   46.9128 H   0  0  0  0  0  0  0  0  0  0  0  0
   45.0715   31.6325   46.4168 H   0  0  0  0  0  0  0  0  0  0  0  0
   44.5162   29.5224   47.8025 H   0  0  0  0  0  0  0  0  0  0  0  0
   46.1373   29.5199   48.5002 H   0  0  0  0  0  0  0  0  0  0  0  0
   44.2695   31.9264   48.5807 H   0  0  0  0  0  0  0  0  0  0  0  0
   44.3359   30.6737   49.8770 H   0  0  0  0  0  0  0  0  0  0  0  0
  1 18  1  0
  1  9  1  0
  2  7  2  0
  3  2  1  0
  4  3  2  0
  4  5  1  0
  5  6  2  0
  6  7  1  0
  6  8  1  0
  8 12  1  0
  9  8  1  0
  9 10  2  0
 10 11  1  0
 11 13  1  0
 12 11  2  0
 14  3  1  0
 15 14  1  0
 16 14  1  0
 17 14  1  0
 19  1  1  0
 20  1  1  0
 21 20  1  0
 21 25  1  0
 22 23  1  0
 22 21  2  0
 23 24  2  0
 24 25  1  0
 25 29  1  0
 27 26  1  0
 28 27  1  0
 29 28  1  0
 29 30  1  0
 30 31  1  0
 31 26  1  0
  2 32  1  0
  4 33  1  0
 13 34  1  0
 13 35  1  0
 18 36  1  0
 18 37  1  0
 18 38  1  0
 19 39  1  0
 19 40  1  0
 19 41  1  0
 20 42  1  0
 20 43  1  0
 22 44  1  0
 24 45  1  0
 26 46  1  0
 27 47  1  0
 27 48  1  0
 28 49  1  0
 28 50  1  0
 29 51  1  0
 30 52  1  0
 30 53  1  0
 31 54  1  0
 31 55  1  0
M  ISO  8  32  14  33  14  36   8  37   8  38   8  39   8  40   8  41   8
M  ISO  8  42   8  43   8  44  14  45  14  46   5  47  13  48  13  49  13
M  ISO  6  50  13  51  13  52  13  53  13  54  13  55  13
M  END
>  <minimizedAffinity>  (1) 
-5.03545189

>  <minimizedRMSD>  (1) 
6.37601566

$$$$
