
     RDKit          3D

 52 55  0  0  1  0  0  0  0  0999 V2000
   46.0460   31.6260   47.8120 C   0  0  0  0  0  0  0  0  0  0  0  0
   45.3910   32.9230   42.8400 C   0  0  0  0  0  0  0  0  0  0  0  0
   46.4560   33.7300   43.2380 C   0  0  0  0  0  0  0  0  0  0  0  0
   47.1250   33.4030   44.4050 C   0  0  0  0  0  0  0  0  0  0  0  0
   46.6270   32.2970   45.0190 N   0  0  0  0  0  0  0  0  0  0  0  0
   45.6840   31.5310   44.7170 C   0  0  0  0  0  0  0  0  0  0  0  0
   45.0360   31.8480   43.5920 N   0  0  0  0  0  0  0  0  0  0  0  0
   45.4270   30.4520   45.5370 N   0  0  0  0  0  0  0  0  0  0  0  0
   45.5850   30.5250   46.8650 C   0  0  0  0  0  0  0  0  0  0  0  0
   45.2410   29.3220   47.3600 N   0  0  0  0  0  0  0  0  0  0  0  0
   44.8810   28.5510   46.3160 C   0  0  0  0  0  0  0  0  0  0  0  0
   44.9990   29.2520   45.1930 N   0  0  0  0  0  0  0  0  0  0  0  0
   44.4270   27.1860   46.3480 N   0  0  0  0  0  0  0  0  0  0  0  0
   46.8010   34.8780   42.3750 C   0  0  0  0  0  0  0  0  0  0  0  0
   46.0730   36.0120   42.7790 F   0  0  0  0  0  0  0  0  0  0  0  0
   46.4810   34.6500   41.0300 F   0  0  0  0  0  0  0  0  0  0  0  0
   48.1240   35.2140   42.4470 F   0  0  0  0  0  0  0  0  0  0  0  0
   45.2240   32.8770   47.6380 C   0  0  0  0  0  0  0  0  0  0  0  0
   45.7090   31.1600   49.2560 C   0  0  0  0  0  0  0  0  0  0  0  0
   47.4920   31.9350   47.6660 C   0  0  0  0  0  0  0  0  0  0  0  0
   48.4090   31.0190   48.3880 C   0  0  0  0  0  0  0  0  0  0  0  0
   48.9770   30.9990   49.6730 C   0  0  0  0  0  0  0  0  0  0  0  0
   49.6210   29.8420   49.7740 N   0  0  0  0  0  0  0  0  0  0  0  0
   49.4630   29.1760   48.5940 C   0  0  0  0  0  0  0  0  0  0  0  0
   48.7120   29.9030   47.7110 N   0  0  0  0  0  0  0  0  0  0  0  0
   48.4640   29.5450   45.2930 N   0  0  0  0  0  0  0  0  0  0  0  0
   49.5800   29.6890   44.4720 C   0  0  0  0  0  0  0  0  0  0  0  0
   50.6980   28.9070   45.0540 C   0  0  0  0  0  0  0  0  0  0  0  0
   50.1550   28.4130   46.3450 C   0  0  0  0  0  0  0  0  0  0  0  0
   48.8100   28.9650   46.5930 C   0  0  1  0  0  0  0  0  0  0  0  0
   44.8384   33.1562   41.9179 H   0  0  0  0  0  0  0  0  0  0  0  0
   47.9752   33.9807   44.7967 H   0  0  0  0  0  0  0  0  0  0  0  0
   44.1803   26.7046   45.4715 H   0  0  0  0  0  0  0  0  0  0  0  0
   44.3487   26.6903   47.2474 H   0  0  0  0  0  0  0  0  0  0  0  0
   44.9582   33.2815   48.6258 H   0  0  0  0  0  0  0  0  0  0  0  0
   45.8075   33.6246   47.0806 H   0  0  0  0  0  0  0  0  0  0  0  0
   44.3063   32.6381   47.0806 H   0  0  0  0  0  0  0  0  0  0  0  0
   46.1941   31.8308   49.9804 H   0  0  0  0  0  0  0  0  0  0  0  0
   44.6194   31.1860   49.4048 H   0  0  0  0  0  0  0  0  0  0  0  0
   46.0750   30.1334   49.4048 H   0  0  0  0  0  0  0  0  0  0  0  0
   47.7426   31.8937   46.5957 H   0  0  0  0  0  0  0  0  0  0  0  0
   47.6387   32.9293   48.1131 H   0  0  0  0  0  0  0  0  0  0  0  0
   48.9031   31.7835   50.4405 H   0  0  0  0  0  0  0  0  0  0  0  0
   49.8848   28.1829   48.3800 H   0  0  0  0  0  0  0  0  0  0  0  0
   47.7839   28.9294   44.8247 H   0  0  0  0  0  0  0  0  0  0  0  0
   49.8618   30.7506   44.4121 H   0  0  0  0  0  0  0  0  0  0  0  0
   49.3522   29.3238   43.4597 H   0  0  0  0  0  0  0  0  0  0  0  0
   50.9716   28.0676   44.3978 H   0  0  0  0  0  0  0  0  0  0  0  0
   51.6130   29.5045   45.1797 H   0  0  0  0  0  0  0  0  0  0  0  0
   50.0942   27.3151   46.3142 H   0  0  0  0  0  0  0  0  0  0  0  0
   50.8240   28.7368   47.1559 H   0  0  0  0  0  0  0  0  0  0  0  0
   48.1021   28.1941   46.9316 H   0  0  0  0  0  0  0  0  0  0  0  0
  1 19  1  0
  2  3  2  0
  2  7  1  0
  3  4  1  0
  4  5  2  0
  6  5  1  0
  6  8  1  0
  7  6  2  0
  8  9  1  0
  9 10  2  0
  9  1  1  0
 11 13  1  0
 11 10  1  0
 12  8  1  0
 12 11  2  0
 14 17  1  0
 14 15  1  0
 14  3  1  0
 16 14  1  0
 18  1  1  0
 20  1  1  0
 20 21  1  0
 21 22  2  0
 22 23  1  0
 24 23  2  0
 25 21  1  0
 25 24  1  0
 26 30  1  0
 27 28  1  0
 27 26  1  0
 28 29  1  0
 30 29  1  0
 30 25  1  0
  2 31  1  0
  4 32  1  0
 13 33  1  0
 13 34  1  0
 18 35  1  0
 18 36  1  0
 18 37  1  0
 19 38  1  0
 19 39  1  0
 19 40  1  0
 20 41  1  0
 20 42  1  0
 22 43  1  0
 24 44  1  0
 26 45  1  0
 27 46  1  0
 27 47  1  0
 28 48  1  0
 28 49  1  0
 29 50  1  0
 29 51  1  0
 30 52  1  1
M  ISO  8  31  14  32  14  35   8  36   8  37   8  38   8  39   8  40   8
M  ISO  8  41   8  42   8  43  14  44  14  45   5  46  13  47  13  48  13
M  ISO  4  49  13  50  13  51  13  52  13
M  END
>  <minimizedAffinity>  (1) 
-5.65727091

>  <minimizedRMSD>  (1) 
4.8648324

$$$$
