
     RDKit          3D

 49 51  0  0  0  0  0  0  0  0999 V2000
   47.5610   30.5510   44.5880 C   0  0  0  0  0  0  0  0  0  0  0  0
   45.0680   35.0930   44.4550 C   0  0  0  0  0  0  0  0  0  0  0  0
   44.7100   34.4980   43.2420 C   0  0  0  0  0  0  0  0  0  0  0  0
   44.9090   33.1400   43.0980 C   0  0  0  0  0  0  0  0  0  0  0  0
   45.4460   32.5490   44.1950 N   0  0  0  0  0  0  0  0  0  0  0  0
   45.7860   33.0150   45.3060 C   0  0  0  0  0  0  0  0  0  0  0  0
   45.5950   34.3310   45.4510 N   0  0  0  0  0  0  0  0  0  0  0  0
   46.2890   32.1490   46.2550 N   0  0  0  0  0  0  0  0  0  0  0  0
   47.0540   31.1040   45.9160 C   0  0  0  0  0  0  0  0  0  0  0  0
   47.3880   30.4810   47.0580 N   0  0  0  0  0  0  0  0  0  0  0  0
   46.8140   31.1680   48.0660 C   0  0  0  0  0  0  0  0  0  0  0  0
   46.1370   32.1950   47.5650 N   0  0  0  0  0  0  0  0  0  0  0  0
   46.9060   30.8960   49.4760 N   0  0  0  0  0  0  0  0  0  0  0  0
   44.1350   35.3740   42.2020 C   0  0  0  0  0  0  0  0  0  0  0  0
   44.5750   34.9590   40.9310 F   0  0  0  0  0  0  0  0  0  0  0  0
   44.5240   36.7090   42.3460 F   0  0  0  0  0  0  0  0  0  0  0  0
   42.7680   35.3330   42.1720 F   0  0  0  0  0  0  0  0  0  0  0  0
   48.1690   31.6430   43.7430 C   0  0  0  0  0  0  0  0  0  0  0  0
   48.7600   29.6170   44.9050 C   0  0  0  0  0  0  0  0  0  0  0  0
   46.5130   29.8370   43.8200 C   0  0  0  0  0  0  0  0  0  0  0  0
   46.6000   28.3440   43.8850 C   0  0  0  0  0  0  0  0  0  0  0  0
   47.3150   27.3740   43.1570 C   0  0  0  0  0  0  0  0  0  0  0  0
   47.0750   26.2190   43.7640 N   0  0  0  0  0  0  0  0  0  0  0  0
   46.2440   26.4670   44.8130 C   0  0  0  0  0  0  0  0  0  0  0  0
   45.9210   27.7850   44.9140 N   0  0  0  0  0  0  0  0  0  0  0  0
   45.0130   27.6730   46.0450 C   0  0  0  0  0  0  0  0  0  0  0  0
   44.1970   28.8800   46.3280 C   0  0  0  0  0  0  0  0  0  0  0  0
   45.7390   27.4350   47.4220 C   0  0  0  0  0  0  0  0  0  0  0  0
   44.9241   36.1734   44.6037 H   0  0  0  0  0  0  0  0  0  0  0  0
   44.6561   32.5886   42.1804 H   0  0  0  0  0  0  0  0  0  0  0  0
   46.4163   31.5013   50.1503 H   0  0  0  0  0  0  0  0  0  0  0  0
   47.4616   30.0960   49.8110 H   0  0  0  0  0  0  0  0  0  0  0  0
   48.5993   32.4159   44.3968 H   0  0  0  0  0  0  0  0  0  0  0  0
   48.9602   31.2177   43.1081 H   0  0  0  0  0  0  0  0  0  0  0  0
   47.3908   32.0916   43.1081 H   0  0  0  0  0  0  0  0  0  0  0  0
   48.8761   29.5265   45.9951 H   0  0  0  0  0  0  0  0  0  0  0  0
   48.5748   28.6228   44.4722 H   0  0  0  0  0  0  0  0  0  0  0  0
   49.6786   30.0399   44.4722 H   0  0  0  0  0  0  0  0  0  0  0  0
   46.5943   30.1397   42.7656 H   0  0  0  0  0  0  0  0  0  0  0  0
   45.5506   30.1130   44.2756 H   0  0  0  0  0  0  0  0  0  0  0  0
   47.9426   27.5395   42.2689 H   0  0  0  0  0  0  0  0  0  0  0  0
   45.8758   25.6911   45.5003 H   0  0  0  0  0  0  0  0  0  0  0  0
   44.3975   26.8234   45.7144 H   0  0  0  0  0  0  0  0  0  0  0  0
   44.1062   29.0144   47.4160 H   0  0  0  0  0  0  0  0  0  0  0  0
   44.6841   29.7631   45.8889 H   0  0  0  0  0  0  0  0  0  0  0  0
   43.1960   28.7571   45.8889 H   0  0  0  0  0  0  0  0  0  0  0  0
   45.0463   27.6621   48.2458 H   0  0  0  0  0  0  0  0  0  0  0  0
   46.0591   26.3849   47.4910 H   0  0  0  0  0  0  0  0  0  0  0  0
   46.6187   28.0918   47.4910 H   0  0  0  0  0  0  0  0  0  0  0  0
  1 19  1  0
  1  9  1  0
  2  7  2  0
  3  2  1  0
  4  3  2  0
  4  5  1  0
  5  6  2  0
  6  7  1  0
  6  8  1  0
  8 12  1  0
  9  8  1  0
  9 10  2  0
 10 11  1  0
 11 13  1  0
 12 11  2  0
 14 16  1  0
 14  3  1  0
 15 14  1  0
 17 14  1  0
 18  1  1  0
 20 21  1  0
 20  1  1  0
 21 25  1  0
 22 23  1  0
 22 21  2  0
 23 24  2  0
 24 25  1  0
 25 26  1  0
 26 27  1  0
 26 28  1  0
  2 29  1  0
  4 30  1  0
 13 31  1  0
 13 32  1  0
 18 33  1  0
 18 34  1  0
 18 35  1  0
 19 36  1  0
 19 37  1  0
 19 38  1  0
 20 39  1  0
 20 40  1  0
 22 41  1  0
 24 42  1  0
 26 43  1  0
 27 44  1  0
 27 45  1  0
 27 46  1  0
 28 47  1  0
 28 48  1  0
 28 49  1  0
M  ISO  8  29  14  30  14  33   8  34   8  35   8  36   8  37   8  38   8
M  ISO  8  39   8  40   8  41  14  42  14  43   8  44   8  45   8  46   8
M  ISO  3  47   8  48   8  49   8
M  END
>  <minimizedAffinity>  (1) 
-5.02099657

>  <minimizedRMSD>  (1) 
1.69634783

$$$$
