
     RDKit          3D

 46 49  0  0  0  0  0  0  0  0999 V2000
   44.7600   36.0070   44.9130 C   0  0  0  0  0  0  0  0  0  0  0  0
   44.0210   35.9730   43.7080 C   0  0  0  0  0  0  0  0  0  0  0  0
   44.0360   34.8060   42.9840 C   0  0  0  0  0  0  0  0  0  0  0  0
   44.7330   33.7200   43.4020 N   0  0  0  0  0  0  0  0  0  0  0  0
   45.4430   33.7690   44.5670 C   0  0  0  0  0  0  0  0  0  0  0  0
   45.4520   34.9140   45.3160 N   0  0  0  0  0  0  0  0  0  0  0  0
   46.1950   32.6110   45.0260 C   0  0  0  0  0  0  0  0  0  0  0  0
   47.0480   31.8040   44.2590 C   0  0  0  0  0  0  0  0  0  0  0  0
   47.5710   30.8320   45.0400 N   0  0  0  0  0  0  0  0  0  0  0  0
   47.0350   31.0430   46.2870 C   0  0  0  0  0  0  0  0  0  0  0  0
   46.2120   32.1140   46.2620 N   0  0  0  0  0  0  0  0  0  0  0  0
   47.4050   30.1860   47.3610 N   0  0  0  0  0  0  0  0  0  0  0  0
   47.1390   30.5580   48.7600 C   0  0  0  0  0  0  0  0  0  0  0  0
   48.4770   30.5430   49.4680 C   0  0  0  0  0  0  0  0  0  0  0  0
   49.4870   30.4210   48.5370 O   0  0  0  0  0  0  0  0  0  0  0  0
   49.4730   29.1640   47.9140 C   0  0  0  0  0  0  0  0  0  0  0  0
   48.0900   28.8840   47.3490 C   0  0  0  0  0  0  0  0  0  0  0  0
   45.4720   32.6410   47.3860 C   0  0  0  0  0  0  0  0  0  0  0  0
   44.6300   31.6740   47.9840 F   0  0  0  0  0  0  0  0  0  0  0  0
   44.6840   33.7370   47.0260 F   0  0  0  0  0  0  0  0  0  0  0  0
   46.3310   33.0320   48.4180 F   0  0  0  0  0  0  0  0  0  0  0  0
   43.2870   34.7960   41.7680 N   0  0  0  0  0  0  0  0  0  0  0  0
   41.9590   34.9700   41.6270 C   0  0  0  0  0  0  0  0  0  0  0  0
   41.3870   34.9270   40.3750 C   0  0  0  0  0  0  0  0  0  0  0  0
   42.1360   34.7090   39.2460 C   0  0  0  0  0  0  0  0  0  0  0  0
   41.6180   34.6640   38.0960 O   0  0  0  0  0  0  0  0  0  0  0  0
   43.4580   34.5390   39.4170 N   0  0  0  0  0  0  0  0  0  0  0  0
   44.0100   34.5840   40.6620 C   0  0  0  0  0  0  0  0  0  0  0  0
   45.2710   34.4070   40.6550 O   0  0  0  0  0  0  0  0  0  0  0  0
   39.9380   35.1230   40.2430 C   0  0  0  0  0  0  0  0  0  0  0  0
   44.7731   36.9217   45.5239 H   0  0  0  0  0  0  0  0  0  0  0  0
   43.4541   36.8502   43.3627 H   0  0  0  0  0  0  0  0  0  0  0  0
   47.2588   31.9406   43.1881 H   0  0  0  0  0  0  0  0  0  0  0  0
   46.6942   31.5629   48.8085 H   0  0  0  0  0  0  0  0  0  0  0  0
   46.4310   29.8600   49.2306 H   0  0  0  0  0  0  0  0  0  0  0  0
   48.6060   31.4806   50.0286 H   0  0  0  0  0  0  0  0  0  0  0  0
   48.5146   29.6922   50.1642 H   0  0  0  0  0  0  0  0  0  0  0  0
   50.2100   29.1530   47.0975 H   0  0  0  0  0  0  0  0  0  0  0  0
   49.7266   28.3898   48.6531 H   0  0  0  0  0  0  0  0  0  0  0  0
   47.5541   28.1590   47.9792 H   0  0  0  0  0  0  0  0  0  0  0  0
   48.1355   28.4495   46.3395 H   0  0  0  0  0  0  0  0  0  0  0  0
   41.3308   35.1466   42.5125 H   0  0  0  0  0  0  0  0  0  0  0  0
   44.0605   34.3729   38.5982 H   0  0  0  0  0  0  0  0  0  0  0  0
   39.4837   35.1844   41.2429 H   0  0  0  0  0  0  0  0  0  0  0  0
   39.7427   36.0557   39.6936 H   0  0  0  0  0  0  0  0  0  0  0  0
   39.5019   34.2757   39.6936 H   0  0  0  0  0  0  0  0  0  0  0  0
  1  6  2  0
  2  1  1  0
  3  4  1  0
  3  2  2  0
  4  5  2  0
  5  7  1  0
  5  6  1  0
  7 11  1  0
  8  7  2  0
  8  9  1  0
  9 10  2  0
 10 12  1  0
 11 10  1  0
 11 18  1  0
 12 13  1  0
 13 14  1  0
 15 14  1  0
 16 15  1  0
 17 12  1  0
 17 16  1  0
 18 19  1  0
 18 21  1  0
 20 18  1  0
 22  3  1  0
 23 22  1  0
 24 23  2  0
 25 27  1  0
 25 24  1  0
 26 25  2  0
 27 28  1  0
 28 22  1  0
 29 28  2  0
 30 24  1  0
  1 31  1  0
  2 32  1  0
  8 33  1  0
 13 34  1  0
 13 35  1  0
 14 36  1  0
 14 37  1  0
 16 38  1  0
 16 39  1  0
 17 40  1  0
 17 41  1  0
 23 42  1  0
 27 43  1  0
 30 44  1  0
 30 45  1  0
 30 46  1  0
M  ISO  8  31  14  32  14  33  14  34  13  35  13  36  13  37  13  38  13
M  ISO  8  39  13  40  13  41  13  42  14  43   9  44   8  45   8  46   8
M  END
>  <minimizedAffinity>  (1) 
-6.81633234

>  <minimizedRMSD>  (1) 
0.241806194

$$$$
