
     RDKit          3D

 32 36  0  0  0  0  0  0  0  0999 V2000
   44.4850   36.0590   44.5730 C   0  0  0  0  0  0  0  0  0  0  0  0
   45.1680   36.0290   43.3540 C   0  0  0  0  0  0  0  0  0  0  0  0
   46.0600   34.9890   43.1350 C   0  0  0  0  0  0  0  0  0  0  0  0
   46.2300   34.0510   44.1090 N   0  0  0  0  0  0  0  0  0  0  0  0
   45.5420   34.1220   45.2840 C   0  0  0  0  0  0  0  0  0  0  0  0
   44.6700   35.1220   45.5210 N   0  0  0  0  0  0  0  0  0  0  0  0
   45.7990   33.0770   46.2440 N   0  0  0  0  0  0  0  0  0  0  0  0
   45.3690   32.9370   47.5100 C   0  0  0  0  0  0  0  0  0  0  0  0
   45.8820   31.7900   47.9990 N   0  0  0  0  0  0  0  0  0  0  0  0
   46.6360   31.1900   47.0650 C   0  0  0  0  0  0  0  0  0  0  0  0
   47.3670   30.0100   47.0690 C   0  0  0  0  0  0  0  0  0  0  0  0
   48.0170   29.7080   45.9360 N   0  0  0  0  0  0  0  0  0  0  0  0
   47.9580   30.5060   44.8670 C   0  0  0  0  0  0  0  0  0  0  0  0
   47.2530   31.6650   44.8290 N   0  0  0  0  0  0  0  0  0  0  0  0
   46.5830   32.0060   45.9510 C   0  0  0  0  0  0  0  0  0  0  0  0
   48.6950   30.0770   43.7150 N   0  0  0  0  0  0  0  0  0  0  0  0
   48.9230   28.7810   43.3500 C   0  0  0  0  0  0  0  0  0  0  0  0
   49.6330   28.6680   42.2410 N   0  0  0  0  0  0  0  0  0  0  0  0
   49.8960   29.9130   41.8390 C   0  0  0  0  0  0  0  0  0  0  0  0
   50.5810   30.4610   40.7760 C   0  0  0  0  0  0  0  0  0  0  0  0
   50.6730   31.7970   40.6410 N   0  0  0  0  0  0  0  0  0  0  0  0
   50.0990   32.6390   41.5420 C   0  0  0  0  0  0  0  0  0  0  0  0
   49.4180   32.1180   42.6020 N   0  0  0  0  0  0  0  0  0  0  0  0
   49.3200   30.7820   42.7450 C   0  0  0  0  0  0  0  0  0  0  0  0
   43.7728   36.8753   44.7638 H   0  0  0  0  0  0  0  0  0  0  0  0
   45.0036   36.8054   42.5923 H   0  0  0  0  0  0  0  0  0  0  0  0
   46.6206   34.9227   42.1909 H   0  0  0  0  0  0  0  0  0  0  0  0
   44.7140   33.6353   48.0516 H   0  0  0  0  0  0  0  0  0  0  0  0
   47.4106   29.3580   47.9539 H   0  0  0  0  0  0  0  0  0  0  0  0
   48.5527   27.9174   43.9219 H   0  0  0  0  0  0  0  0  0  0  0  0
   51.0554   29.8025   40.0334 H   0  0  0  0  0  0  0  0  0  0  0  0
   50.1834   33.7286   41.4167 H   0  0  0  0  0  0  0  0  0  0  0  0
  1  6  2  0
  2  1  1  0
  3  2  2  0
  3  4  1  0
  4  5  2  0
  5  6  1  0
  5  7  1  0
  7  8  1  0
  8  9  2  0
 10 11  2  0
 10  9  1  0
 12 11  1  0
 13 12  2  0
 14 13  1  0
 14 15  2  0
 15  7  1  0
 15 10  1  0
 16 13  1  0
 17 16  1  0
 18 17  2  0
 19 18  1  0
 19 24  2  0
 20 19  1  0
 21 20  2  0
 21 22  1  0
 22 23  2  0
 23 24  1  0
 24 16  1  0
  1 25  1  0
  2 26  1  0
  3 27  1  0
  8 28  1  0
 11 29  1  0
 17 30  1  0
 20 31  1  0
 22 32  1  0
M  ISO  8  25  14  26  14  27  14  28  14  29  14  30  14  31  14  32  14
M  END
>  <minimizedAffinity>  (1) 
-5.86100817

>  <minimizedRMSD>  (1) 
0.60751462

$$$$
