
     RDKit          3D

 43 45  0  0  0  0  0  0  0  0999 V2000
   47.5630   30.5600   44.5830 C   0  0  0  0  0  0  0  0  0  0  0  0
   45.1030   35.1170   44.4400 C   0  0  0  0  0  0  0  0  0  0  0  0
   44.7070   34.5090   43.2520 C   0  0  0  0  0  0  0  0  0  0  0  0
   44.8830   33.1380   43.1110 C   0  0  0  0  0  0  0  0  0  0  0  0
   45.4420   32.5660   44.2060 N   0  0  0  0  0  0  0  0  0  0  0  0
   45.8200   33.0450   45.3020 C   0  0  0  0  0  0  0  0  0  0  0  0
   45.6500   34.3650   45.4340 N   0  0  0  0  0  0  0  0  0  0  0  0
   46.3360   32.1850   46.2510 N   0  0  0  0  0  0  0  0  0  0  0  0
   47.0900   31.1300   45.9120 C   0  0  0  0  0  0  0  0  0  0  0  0
   47.4360   30.5230   47.0610 N   0  0  0  0  0  0  0  0  0  0  0  0
   46.8800   31.2260   48.0660 C   0  0  0  0  0  0  0  0  0  0  0  0
   46.2000   32.2510   47.5650 N   0  0  0  0  0  0  0  0  0  0  0  0
   46.9830   30.9640   49.4790 N   0  0  0  0  0  0  0  0  0  0  0  0
   44.1150   35.3790   42.2080 C   0  0  0  0  0  0  0  0  0  0  0  0
   44.5550   34.9630   40.9330 F   0  0  0  0  0  0  0  0  0  0  0  0
   44.5060   36.7170   42.3360 F   0  0  0  0  0  0  0  0  0  0  0  0
   42.7550   35.3330   42.1930 F   0  0  0  0  0  0  0  0  0  0  0  0
   48.1900   31.6230   43.7180 C   0  0  0  0  0  0  0  0  0  0  0  0
   48.7390   29.5940   44.8940 C   0  0  0  0  0  0  0  0  0  0  0  0
   46.4870   29.8720   43.8300 C   0  0  0  0  0  0  0  0  0  0  0  0
   46.1940   28.4790   44.2960 C   0  0  0  0  0  0  0  0  0  0  0  0
   46.6960   27.2080   43.9690 C   0  0  0  0  0  0  0  0  0  0  0  0
   46.1050   26.3540   44.7900 N   0  0  0  0  0  0  0  0  0  0  0  0
   45.2710   27.0750   45.5850 C   0  0  0  0  0  0  0  0  0  0  0  0
   45.2960   28.4020   45.2980 N   0  0  0  0  0  0  0  0  0  0  0  0
   44.2890   28.8900   46.2190 C   0  0  0  0  0  0  0  0  0  0  0  0
   44.9744   36.2011   44.5750 H   0  0  0  0  0  0  0  0  0  0  0  0
   44.5994   32.5770   42.2083 H   0  0  0  0  0  0  0  0  0  0  0  0
   46.5074   31.5806   50.1531 H   0  0  0  0  0  0  0  0  0  0  0  0
   47.5322   30.1601   49.8150 H   0  0  0  0  0  0  0  0  0  0  0  0
   48.6450   32.3943   44.3568 H   0  0  0  0  0  0  0  0  0  0  0  0
   48.9649   31.1690   43.0829 H   0  0  0  0  0  0  0  0  0  0  0  0
   47.4177   32.0816   43.0829 H   0  0  0  0  0  0  0  0  0  0  0  0
   48.8561   29.4978   45.9835 H   0  0  0  0  0  0  0  0  0  0  0  0
   48.5267   28.6061   44.4594 H   0  0  0  0  0  0  0  0  0  0  0  0
   49.6669   29.9941   44.4594 H   0  0  0  0  0  0  0  0  0  0  0  0
   46.7846   29.8247   42.7721 H   0  0  0  0  0  0  0  0  0  0  0  0
   45.5690   30.4556   43.9937 H   0  0  0  0  0  0  0  0  0  0  0  0
   47.4326   26.9702   43.1874 H   0  0  0  0  0  0  0  0  0  0  0  0
   44.6449   26.6324   46.3738 H   0  0  0  0  0  0  0  0  0  0  0  0
   44.6273   28.7260   47.2528 H   0  0  0  0  0  0  0  0  0  0  0  0
   44.1294   29.9654   46.0516 H   0  0  0  0  0  0  0  0  0  0  0  0
   43.3460   28.3489   46.0516 H   0  0  0  0  0  0  0  0  0  0  0  0
  1 19  1  0
  1  9  1  0
  2  7  2  0
  3  2  1  0
  4  3  2  0
  4  5  1  0
  5  6  2  0
  6  7  1  0
  6  8  1  0
  8 12  1  0
  9  8  1  0
  9 10  2  0
 10 11  1  0
 11 13  1  0
 12 11  2  0
 14 16  1  0
 14  3  1  0
 15 14  1  0
 17 14  1  0
 18  1  1  0
 20 21  1  0
 20  1  1  0
 21 25  1  0
 22 21  2  0
 22 23  1  0
 23 24  2  0
 25 24  1  0
 25 26  1  0
  2 27  1  0
  4 28  1  0
 13 29  1  0
 13 30  1  0
 18 31  1  0
 18 32  1  0
 18 33  1  0
 19 34  1  0
 19 35  1  0
 19 36  1  0
 20 37  1  0
 20 38  1  0
 22 39  1  0
 24 40  1  0
 26 41  1  0
 26 42  1  0
 26 43  1  0
M  ISO  8  27  14  28  14  31   8  32   8  33   8  34   8  35   8  36   8
M  ISO  7  37   8  38   8  39  14  40  14  41   8  42   8  43   8
M  END
>  <minimizedAffinity>  (1) 
-5.01387835

>  <minimizedRMSD>  (1) 
0.840791464

$$$$
