
     RDKit          3D

 34 37  0  0  0  0  0  0  0  0999 V2000
   44.5990   35.9430   44.4140 C   0  0  0  0  0  0  0  0  0  0  0  0
   45.4370   35.7510   43.2910 C   0  0  0  0  0  0  0  0  0  0  0  0
   46.3220   34.6760   43.3100 C   0  0  0  0  0  0  0  0  0  0  0  0
   46.3400   33.8660   44.3990 N   0  0  0  0  0  0  0  0  0  0  0  0
   45.5220   34.0790   45.4590 C   0  0  0  0  0  0  0  0  0  0  0  0
   44.6530   35.1090   45.4770 N   0  0  0  0  0  0  0  0  0  0  0  0
   45.6330   33.1540   46.5540 N   0  0  0  0  0  0  0  0  0  0  0  0
   45.0670   33.1690   47.7790 C   0  0  0  0  0  0  0  0  0  0  0  0
   45.4780   32.0770   48.4540 N   0  0  0  0  0  0  0  0  0  0  0  0
   46.3120   31.3480   47.6690 C   0  0  0  0  0  0  0  0  0  0  0  0
   46.9900   30.1570   47.8960 C   0  0  0  0  0  0  0  0  0  0  0  0
   47.7430   29.7090   46.8880 N   0  0  0  0  0  0  0  0  0  0  0  0
   47.8270   30.3870   45.7200 C   0  0  0  0  0  0  0  0  0  0  0  0
   47.1690   31.5480   45.4910 N   0  0  0  0  0  0  0  0  0  0  0  0
   46.3990   32.0340   46.4840 C   0  0  0  0  0  0  0  0  0  0  0  0
   48.6430   29.8810   44.6540 N   0  0  0  0  0  0  0  0  0  0  0  0
   48.5280   30.3750   43.2920 C   0  0  0  0  0  0  0  0  0  0  0  0
   49.8790   30.4820   42.6620 C   0  0  0  0  0  0  0  0  0  0  0  0
   50.7150   29.4230   42.9490 O   0  0  0  0  0  0  0  0  0  0  0  0
   50.9260   29.2550   44.3130 C   0  0  0  0  0  0  0  0  0  0  0  0
   49.6240   28.8300   44.9520 C   0  0  0  0  0  0  0  0  0  0  0  0
   43.8913   36.7851   44.4228 H   0  0  0  0  0  0  0  0  0  0  0  0
   45.3910   36.4311   42.4276 H   0  0  0  0  0  0  0  0  0  0  0  0
   46.9932   34.4870   42.4593 H   0  0  0  0  0  0  0  0  0  0  0  0
   44.3850   33.9423   48.1622 H   0  0  0  0  0  0  0  0  0  0  0  0
   46.9113   29.6148   48.8498 H   0  0  0  0  0  0  0  0  0  0  0  0
   47.9083   29.6807   42.7055 H   0  0  0  0  0  0  0  0  0  0  0  0
   48.0629   31.3716   43.3115 H   0  0  0  0  0  0  0  0  0  0  0  0
   50.3558   31.4065   43.0198 H   0  0  0  0  0  0  0  0  0  0  0  0
   49.7244   30.4807   41.5729 H   0  0  0  0  0  0  0  0  0  0  0  0
   51.6899   28.4808   44.4775 H   0  0  0  0  0  0  0  0  0  0  0  0
   51.2740   30.1984   44.7591 H   0  0  0  0  0  0  0  0  0  0  0  0
   49.7514   28.7282   46.0398 H   0  0  0  0  0  0  0  0  0  0  0  0
   49.2914   27.8570   44.5613 H   0  0  0  0  0  0  0  0  0  0  0  0
  1  6  2  0
  2  3  2  0
  2  1  1  0
  3  4  1  0
  4  5  2  0
  5  6  1  0
  5  7  1  0
  7  8  1  0
  8  9  2  0
 10 11  2  0
 10  9  1  0
 12 11  1  0
 13 12  2  0
 14 13  1  0
 14 15  2  0
 15  7  1  0
 15 10  1  0
 16 21  1  0
 16 13  1  0
 17 16  1  0
 18 19  1  0
 18 17  1  0
 19 20  1  0
 20 21  1  0
  1 22  1  0
  2 23  1  0
  3 24  1  0
  8 25  1  0
 11 26  1  0
 17 27  1  0
 17 28  1  0
 18 29  1  0
 18 30  1  0
 20 31  1  0
 20 32  1  0
 21 33  1  0
 21 34  1  0
M  ISO  8  22  14  23  14  24  14  25  14  26  14  27  13  28  13  29  13
M  ISO  5  30  13  31  13  32  13  33  13  34  13
M  END
>  <minimizedAffinity>  (1) 
-5.41124773

>  <minimizedRMSD>  (1) 
0.310995847

$$$$
