
     RDKit          3D

 36 39  0  0  0  0  0  0  0  0999 V2000
   44.5690   35.9740   44.4660 C   0  0  0  0  0  0  0  0  0  0  0  0
   45.3660   35.8020   43.3310 C   0  0  0  0  0  0  0  0  0  0  0  0
   46.2420   34.7230   43.3220 C   0  0  0  0  0  0  0  0  0  0  0  0
   46.2770   33.8970   44.4080 N   0  0  0  0  0  0  0  0  0  0  0  0
   45.4900   34.1000   45.4830 C   0  0  0  0  0  0  0  0  0  0  0  0
   44.6260   35.1360   45.5300 N   0  0  0  0  0  0  0  0  0  0  0  0
   45.6210   33.1610   46.5610 N   0  0  0  0  0  0  0  0  0  0  0  0
   45.0710   33.1660   47.7860 C   0  0  0  0  0  0  0  0  0  0  0  0
   45.4960   32.0650   48.4430 N   0  0  0  0  0  0  0  0  0  0  0  0
   46.3160   31.3500   47.6520 C   0  0  0  0  0  0  0  0  0  0  0  0
   47.0040   30.1550   47.8620 C   0  0  0  0  0  0  0  0  0  0  0  0
   47.7510   29.7220   46.8190 N   0  0  0  0  0  0  0  0  0  0  0  0
   47.8120   30.4100   45.6790 C   0  0  0  0  0  0  0  0  0  0  0  0
   47.1560   31.5700   45.4500 N   0  0  0  0  0  0  0  0  0  0  0  0
   46.3940   32.0470   46.4600 C   0  0  0  0  0  0  0  0  0  0  0  0
   48.6350   29.8660   44.6300 N   0  0  0  0  0  0  0  0  0  0  0  0
   48.4820   30.3800   43.2820 C   0  0  0  0  0  0  0  0  0  0  0  0
   49.8080   30.5840   42.6220 C   0  0  0  0  0  0  0  0  0  0  0  0
   50.7700   29.4330   42.9120 C   0  0  0  0  0  0  0  0  0  0  0  0
   50.9380   29.2790   44.4290 C   0  0  0  0  0  0  0  0  0  0  0  0
   49.6090   28.8100   44.9350 C   0  0  0  0  0  0  0  0  0  0  0  0
   43.8687   36.8217   44.4972 H   0  0  0  0  0  0  0  0  0  0  0  0
   45.3025   36.4936   42.4780 H   0  0  0  0  0  0  0  0  0  0  0  0
   46.8947   34.5382   42.4561 H   0  0  0  0  0  0  0  0  0  0  0  0
   44.3919   33.9338   48.1853 H   0  0  0  0  0  0  0  0  0  0  0  0
   46.9438   29.6017   48.8108 H   0  0  0  0  0  0  0  0  0  0  0  0
   47.8942   29.6629   42.6901 H   0  0  0  0  0  0  0  0  0  0  0  0
   47.9702   31.3520   43.3382 H   0  0  0  0  0  0  0  0  0  0  0  0
   50.2504   31.5199   42.9939 H   0  0  0  0  0  0  0  0  0  0  0  0
   49.6454   30.6277   41.5350 H   0  0  0  0  0  0  0  0  0  0  0  0
   50.3646   28.5010   42.4912 H   0  0  0  0  0  0  0  0  0  0  0  0
   51.7470   29.6466   42.4540 H   0  0  0  0  0  0  0  0  0  0  0  0
   51.7186   28.5379   44.6557 H   0  0  0  0  0  0  0  0  0  0  0  0
   51.2441   30.2233   44.9029 H   0  0  0  0  0  0  0  0  0  0  0  0
   49.6563   28.6423   46.0211 H   0  0  0  0  0  0  0  0  0  0  0  0
   49.3207   27.8613   44.4586 H   0  0  0  0  0  0  0  0  0  0  0  0
  1  6  2  0
  2  1  1  0
  3  2  2  0
  3  4  1  0
  4  5  2  0
  5  6  1  0
  5  7  1  0
  7  8  1  0
  8  9  2  0
 10 11  2  0
 10  9  1  0
 12 11  1  0
 13 12  2  0
 14 13  1  0
 14 15  2  0
 15  7  1  0
 15 10  1  0
 16 21  1  0
 16 13  1  0
 17 16  1  0
 18 19  1  0
 18 17  1  0
 19 20  1  0
 20 21  1  0
  1 22  1  0
  2 23  1  0
  3 24  1  0
  8 25  1  0
 11 26  1  0
 17 27  1  0
 17 28  1  0
 18 29  1  0
 18 30  1  0
 19 31  1  0
 19 32  1  0
 20 33  1  0
 20 34  1  0
 21 35  1  0
 21 36  1  0
M  ISO  8  22  14  23  14  24  14  25  14  26  14  27  13  28  13  29  13
M  ISO  7  30  13  31  13  32  13  33  13  34  13  35  13  36  13
M  END
>  <minimizedAffinity>  (1) 
-5.52239609

>  <minimizedRMSD>  (1) 
0.250501782

$$$$
