
     RDKit          3D

 35 38  0  0  0  0  0  0  0  0999 V2000
   44.5710   35.9650   44.4500 C   0  0  0  0  0  0  0  0  0  0  0  0
   45.3880   35.7900   43.3280 C   0  0  0  0  0  0  0  0  0  0  0  0
   46.2870   34.7060   43.3190 C   0  0  0  0  0  0  0  0  0  0  0  0
   46.3140   33.8820   44.4080 N   0  0  0  0  0  0  0  0  0  0  0  0
   45.5010   34.0940   45.4740 C   0  0  0  0  0  0  0  0  0  0  0  0
   44.6300   35.1250   45.5080 N   0  0  0  0  0  0  0  0  0  0  0  0
   45.6310   33.1480   46.5570 N   0  0  0  0  0  0  0  0  0  0  0  0
   45.0690   33.1610   47.7830 C   0  0  0  0  0  0  0  0  0  0  0  0
   45.4830   32.0670   48.4540 N   0  0  0  0  0  0  0  0  0  0  0  0
   46.3130   31.3470   47.6630 C   0  0  0  0  0  0  0  0  0  0  0  0
   46.9980   30.1500   47.8830 C   0  0  0  0  0  0  0  0  0  0  0  0
   47.7440   29.7120   46.8650 N   0  0  0  0  0  0  0  0  0  0  0  0
   47.8290   30.3890   45.6970 C   0  0  0  0  0  0  0  0  0  0  0  0
   47.1600   31.5610   45.4760 N   0  0  0  0  0  0  0  0  0  0  0  0
   46.3950   32.0380   46.4770 C   0  0  0  0  0  0  0  0  0  0  0  0
   48.6330   29.8970   44.6270 N   0  0  0  0  0  0  0  0  0  0  0  0
   48.3200   30.1470   43.2370 C   0  0  0  0  0  0  0  0  0  0  0  0
   49.5220   30.5310   42.4100 C   0  0  0  0  0  0  0  0  0  0  0  0
   50.7380   29.9490   42.8130 N   0  0  0  0  0  0  0  0  0  0  0  0
   50.6920   28.9020   43.7550 C   0  0  0  0  0  0  0  0  0  0  0  0
   49.8130   29.1190   44.9370 C   0  0  0  0  0  0  0  0  0  0  0  0
   43.8631   36.8067   44.4721 H   0  0  0  0  0  0  0  0  0  0  0  0
   45.3297   36.4815   42.4745 H   0  0  0  0  0  0  0  0  0  0  0  0
   46.9491   34.5279   42.4588 H   0  0  0  0  0  0  0  0  0  0  0  0
   44.3881   33.9334   48.1701 H   0  0  0  0  0  0  0  0  0  0  0  0
   46.9277   29.6024   48.8344 H   0  0  0  0  0  0  0  0  0  0  0  0
   47.8802   29.2340   42.8093 H   0  0  0  0  0  0  0  0  0  0  0  0
   47.6230   30.9975   43.2098 H   0  0  0  0  0  0  0  0  0  0  0  0
   49.6347   31.6240   42.4608 H   0  0  0  0  0  0  0  0  0  0  0  0
   49.3261   30.1558   41.3947 H   0  0  0  0  0  0  0  0  0  0  0  0
   51.1956   29.5798   41.9673 H   0  0  0  0  0  0  0  0  0  0  0  0
   50.3392   27.9987   43.2358 H   0  0  0  0  0  0  0  0  0  0  0  0
   51.7126   28.8235   44.1577 H   0  0  0  0  0  0  0  0  0  0  0  0
   50.3891   29.6484   45.7102 H   0  0  0  0  0  0  0  0  0  0  0  0
   49.4750   28.1308   45.2824 H   0  0  0  0  0  0  0  0  0  0  0  0
  1  6  2  0
  2  1  1  0
  3  2  2  0
  3  4  1  0
  4  5  2  0
  5  6  1  0
  5  7  1  0
  7  8  1  0
  8  9  2  0
 10 11  2  0
 10  9  1  0
 12 11  1  0
 13 12  2  0
 14 13  1  0
 14 15  2  0
 15  7  1  0
 15 10  1  0
 16 21  1  0
 16 13  1  0
 17 16  1  0
 18 19  1  0
 18 17  1  0
 19 20  1  0
 20 21  1  0
  1 22  1  0
  2 23  1  0
  3 24  1  0
  8 25  1  0
 11 26  1  0
 17 27  1  0
 17 28  1  0
 18 29  1  0
 18 30  1  0
 19 31  1  0
 20 32  1  0
 20 33  1  0
 21 34  1  0
 21 35  1  0
M  ISO  8  22  14  23  14  24  14  25  14  26  14  27  13  28  13  29  13
M  ISO  6  30  13  31   5  32  13  33  13  34  13  35  13
M  END
>  <minimizedAffinity>  (1) 
-5.39072227

>  <minimizedRMSD>  (1) 
0.280687869

$$$$
