
     RDKit          3D

 28 31  0  0  0  0  0  0  0  0999 V2000
   44.5640   36.0010   44.4970 C   0  0  0  0  0  0  0  0  0  0  0  0
   45.3370   35.8180   43.3480 C   0  0  0  0  0  0  0  0  0  0  0  0
   46.1970   34.7240   43.3140 C   0  0  0  0  0  0  0  0  0  0  0  0
   46.2410   33.8970   44.3930 N   0  0  0  0  0  0  0  0  0  0  0  0
   45.4790   34.1110   45.4800 C   0  0  0  0  0  0  0  0  0  0  0  0
   44.6230   35.1600   45.5700 N   0  0  0  0  0  0  0  0  0  0  0  0
   45.6070   33.1670   46.5690 N   0  0  0  0  0  0  0  0  0  0  0  0
   45.0600   33.1540   47.7940 C   0  0  0  0  0  0  0  0  0  0  0  0
   45.4810   32.0630   48.4490 N   0  0  0  0  0  0  0  0  0  0  0  0
   46.3050   31.3540   47.6640 C   0  0  0  0  0  0  0  0  0  0  0  0
   47.0110   30.1560   47.8520 C   0  0  0  0  0  0  0  0  0  0  0  0
   47.7600   29.7350   46.8150 N   0  0  0  0  0  0  0  0  0  0  0  0
   47.8130   30.4360   45.6810 C   0  0  0  0  0  0  0  0  0  0  0  0
   47.1540   31.5960   45.4450 N   0  0  0  0  0  0  0  0  0  0  0  0
   46.3830   32.0590   46.4690 C   0  0  0  0  0  0  0  0  0  0  0  0
   48.6450   29.8860   44.6500 N   0  0  0  0  0  0  0  0  0  0  0  0
   49.6760   29.0580   44.7830 N   0  0  0  0  0  0  0  0  0  0  0  0
   50.1840   28.7840   43.5450 C   0  0  0  0  0  0  0  0  0  0  0  0
   49.4450   29.4640   42.5950 C   0  0  0  0  0  0  0  0  0  0  0  0
   48.4780   30.1530   43.3250 C   0  0  0  0  0  0  0  0  0  0  0  0
   43.8782   36.8600   44.5387 H   0  0  0  0  0  0  0  0  0  0  0  0
   45.2685   36.5144   42.4993 H   0  0  0  0  0  0  0  0  0  0  0  0
   46.8276   34.5324   42.4333 H   0  0  0  0  0  0  0  0  0  0  0  0
   44.3761   33.9160   48.1961 H   0  0  0  0  0  0  0  0  0  0  0  0
   46.9557   29.5917   48.7946 H   0  0  0  0  0  0  0  0  0  0  0  0
   51.0424   28.1282   43.3375 H   0  0  0  0  0  0  0  0  0  0  0  0
   49.5884   29.4618   41.5044 H   0  0  0  0  0  0  0  0  0  0  0  0
   47.7036   30.8078   42.8990 H   0  0  0  0  0  0  0  0  0  0  0  0
  1  6  2  0
  2  1  1  0
  3  2  2  0
  3  4  1  0
  4  5  2  0
  5  6  1  0
  5  7  1  0
  7  8  1  0
  8  9  2  0
 10 11  2  0
 10  9  1  0
 12 11  1  0
 13 12  2  0
 14 13  1  0
 14 15  2  0
 15  7  1  0
 15 10  1  0
 16 17  1  0
 16 13  1  0
 18 17  2  0
 19 20  2  0
 19 18  1  0
 20 16  1  0
  1 21  1  0
  2 22  1  0
  3 23  1  0
  8 24  1  0
 11 25  1  0
 18 26  1  0
 19 27  1  0
 20 28  1  0
M  ISO  8  21  14  22  14  23  14  24  14  25  14  26  14  27  14  28  14
M  END
>  <minimizedAffinity>  (1) 
-5.2613678

>  <minimizedRMSD>  (1) 
0.22984457

$$$$
