
     RDKit          3D

 28 30  0  0  0  0  0  0  0  0999 V2000
   44.4680   35.9250   44.6550 C   0  0  0  0  0  0  0  0  0  0  0  0
   45.0400   36.2890   43.4180 C   0  0  0  0  0  0  0  0  0  0  0  0
   46.0300   35.4790   42.8770 C   0  0  0  0  0  0  0  0  0  0  0  0
   46.3830   34.3760   43.5910 N   0  0  0  0  0  0  0  0  0  0  0  0
   45.8250   34.0470   44.7680 C   0  0  0  0  0  0  0  0  0  0  0  0
   44.8650   34.8090   45.3170 N   0  0  0  0  0  0  0  0  0  0  0  0
   46.3130   32.8430   45.3980 N   0  0  0  0  0  0  0  0  0  0  0  0
   46.0460   32.3300   46.6090 C   0  0  0  0  0  0  0  0  0  0  0  0
   46.7350   31.1870   46.7540 N   0  0  0  0  0  0  0  0  0  0  0  0
   47.4540   30.9460   45.6480 C   0  0  0  0  0  0  0  0  0  0  0  0
   48.3220   29.9240   45.2800 C   0  0  0  0  0  0  0  0  0  0  0  0
   48.8810   30.0000   44.0700 N   0  0  0  0  0  0  0  0  0  0  0  0
   48.6040   31.0360   43.2460 C   0  0  0  0  0  0  0  0  0  0  0  0
   47.7660   32.0540   43.5590 N   0  0  0  0  0  0  0  0  0  0  0  0
   47.1850   31.9940   44.7930 C   0  0  0  0  0  0  0  0  0  0  0  0
   49.2300   31.0610   41.9710 N   0  0  0  0  0  0  0  0  0  0  0  0
   50.0920   32.1130   41.5270 C   0  0  0  0  0  0  0  0  0  0  0  0
   50.3640   33.0400   42.3820 N   0  0  0  0  0  0  0  0  0  0  0  0
   50.6200   32.1190   40.1930 N   0  0  0  0  0  0  0  0  0  0  0  0
   50.9930   33.8070   42.0590 H   0  0  0  0  0  0  0  0  0  0  0  0
   43.6831   36.5596   45.0924 H   0  0  0  0  0  0  0  0  0  0  0  0
   44.7085   37.1965   42.8922 H   0  0  0  0  0  0  0  0  0  0  0  0
   46.5069   35.7183   41.9151 H   0  0  0  0  0  0  0  0  0  0  0  0
   45.3738   32.7728   47.3587 H   0  0  0  0  0  0  0  0  0  0  0  0
   48.5395   29.0862   45.9588 H   0  0  0  0  0  0  0  0  0  0  0  0
   49.0529   30.2757   41.3285 H   0  0  0  0  0  0  0  0  0  0  0  0
   51.2394   32.8832   39.8877 H   0  0  0  0  0  0  0  0  0  0  0  0
   50.3796   31.3591   39.5406 H   0  0  0  0  0  0  0  0  0  0  0  0
  1  6  2  0
  2  1  1  0
  3  2  2  0
  3  4  1  0
  4  5  2  0
  5  6  1  0
  5  7  1  0
  7  8  1  0
  8  9  2  0
 10  9  1  0
 11 10  2  0
 12 11  1  0
 13 14  1  0
 13 12  2  0
 14 15  2  0
 15  7  1  0
 15 10  1  0
 16 13  1  0
 17 16  1  0
 17 18  2  0
 19 17  1  0
 20 18  1  0
  1 21  1  0
  2 22  1  0
  3 23  1  0
  8 24  1  0
 11 25  1  0
 16 26  1  0
 19 27  1  0
 19 28  1  0
M  ISO  5  21  14  22  14  23  14  24  14  25  14
M  END
>  <minimizedAffinity>  (1) 
-5.3680954

>  <minimizedRMSD>  (1) 
1.98184621

$$$$
