
     RDKit          3D

 34 37  0  0  0  0  0  0  0  0999 V2000
   44.5910   35.9990   44.5260 C   0  0  0  0  0  0  0  0  0  0  0  0
   45.3320   35.7990   43.3580 C   0  0  0  0  0  0  0  0  0  0  0  0
   46.1670   34.6820   43.2910 C   0  0  0  0  0  0  0  0  0  0  0  0
   46.2200   33.8390   44.3630 N   0  0  0  0  0  0  0  0  0  0  0  0
   45.4900   34.0660   45.4730 C   0  0  0  0  0  0  0  0  0  0  0  0
   44.6700   35.1430   45.5680 N   0  0  0  0  0  0  0  0  0  0  0  0
   45.6280   33.1070   46.5430 N   0  0  0  0  0  0  0  0  0  0  0  0
   45.1240   33.1210   47.7880 C   0  0  0  0  0  0  0  0  0  0  0  0
   45.5270   32.0070   48.4220 N   0  0  0  0  0  0  0  0  0  0  0  0
   46.2900   31.2680   47.6020 C   0  0  0  0  0  0  0  0  0  0  0  0
   46.9460   30.0400   47.7710 C   0  0  0  0  0  0  0  0  0  0  0  0
   47.6390   29.5900   46.6990 N   0  0  0  0  0  0  0  0  0  0  0  0
   47.6760   30.2940   45.5650 C   0  0  0  0  0  0  0  0  0  0  0  0
   47.0540   31.4860   45.3640 N   0  0  0  0  0  0  0  0  0  0  0  0
   46.3500   31.9740   46.4090 C   0  0  0  0  0  0  0  0  0  0  0  0
   48.4680   29.7240   44.4220 C   0  0  0  0  0  0  0  0  0  0  0  0
   48.8450   30.7740   43.4060 C   0  0  0  0  0  0  0  0  0  0  0  0
   49.9550   30.0750   42.6360 C   0  0  0  0  0  0  0  0  0  0  0  0
   50.5590   29.0880   43.5890 C   0  0  0  0  0  0  0  0  0  0  0  0
   49.8510   29.2840   44.9200 C   0  0  0  0  0  0  0  0  0  0  0  0
   43.9281   36.8738   44.5985 H   0  0  0  0  0  0  0  0  0  0  0  0
   45.2594   36.5020   42.5151 H   0  0  0  0  0  0  0  0  0  0  0  0
   46.7700   34.4854   42.3923 H   0  0  0  0  0  0  0  0  0  0  0  0
   44.4890   33.9106   48.2160 H   0  0  0  0  0  0  0  0  0  0  0  0
   46.9002   29.4779   48.7154 H   0  0  0  0  0  0  0  0  0  0  0  0
   47.8361   28.9259   44.0051 H   0  0  0  0  0  0  0  0  0  0  0  0
   47.9966   31.0206   42.7508 H   0  0  0  0  0  0  0  0  0  0  0  0
   49.1458   31.7352   43.8484 H   0  0  0  0  0  0  0  0  0  0  0  0
   49.5431   29.5560   41.7580 H   0  0  0  0  0  0  0  0  0  0  0  0
   50.7043   30.7917   42.2687 H   0  0  0  0  0  0  0  0  0  0  0  0
   50.4033   28.0624   43.2232 H   0  0  0  0  0  0  0  0  0  0  0  0
   51.6434   29.2437   43.6886 H   0  0  0  0  0  0  0  0  0  0  0  0
   50.3331   30.0634   45.5283 H   0  0  0  0  0  0  0  0  0  0  0  0
   49.8483   28.4027   45.5782 H   0  0  0  0  0  0  0  0  0  0  0  0
  1  6  2  0
  2  1  1  0
  3  2  2  0
  3  4  1  0
  4  5  2  0
  5  6  1  0
  5  7  1  0
  7  8  1  0
  8  9  2  0
 10 11  2  0
 10  9  1  0
 12 11  1  0
 13 12  2  0
 14 13  1  0
 14 15  2  0
 15  7  1  0
 15 10  1  0
 16 20  1  0
 16 13  1  0
 17 16  1  0
 18 17  1  0
 18 19  1  0
 19 20  1  0
  1 21  1  0
  2 22  1  0
  3 23  1  0
  8 24  1  0
 11 25  1  0
 16 26  1  0
 17 27  1  0
 17 28  1  0
 18 29  1  0
 18 30  1  0
 19 31  1  0
 19 32  1  0
 20 33  1  0
 20 34  1  0
M  ISO  8  21  14  22  14  23  14  24  14  25  14  26  13  27  13  28  13
M  ISO  6  29  13  30  13  31  13  32  13  33  13  34  13
M  END
>  <minimizedAffinity>  (1) 
-5.19979668

>  <minimizedRMSD>  (1) 
0.205452517

$$$$
