
     RDKit          3D

 27 30  0  0  0  0  0  0  0  0999 V2000
   44.5380   36.0070   44.4880 C   0  0  0  0  0  0  0  0  0  0  0  0
   45.3120   35.8460   43.3360 C   0  0  0  0  0  0  0  0  0  0  0  0
   46.1980   34.7700   43.2710 C   0  0  0  0  0  0  0  0  0  0  0  0
   46.2630   33.9230   44.3450 N   0  0  0  0  0  0  0  0  0  0  0  0
   45.4920   34.1180   45.4440 C   0  0  0  0  0  0  0  0  0  0  0  0
   44.6330   35.1470   45.5290 N   0  0  0  0  0  0  0  0  0  0  0  0
   45.6710   33.1460   46.4930 N   0  0  0  0  0  0  0  0  0  0  0  0
   45.1510   33.1360   47.7430 C   0  0  0  0  0  0  0  0  0  0  0  0
   45.5940   32.0230   48.3770 N   0  0  0  0  0  0  0  0  0  0  0  0
   46.3910   31.3220   47.5440 C   0  0  0  0  0  0  0  0  0  0  0  0
   47.0830   30.1290   47.7080 C   0  0  0  0  0  0  0  0  0  0  0  0
   47.7960   29.7090   46.6490 N   0  0  0  0  0  0  0  0  0  0  0  0
   47.8260   30.4210   45.5000 C   0  0  0  0  0  0  0  0  0  0  0  0
   47.1550   31.5860   45.3300 N   0  0  0  0  0  0  0  0  0  0  0  0
   46.4260   32.0390   46.3760 C   0  0  0  0  0  0  0  0  0  0  0  0
   48.5940   29.9470   44.3920 N   0  0  0  0  0  0  0  0  0  0  0  0
   48.6000   30.5420   43.1700 C   0  0  0  0  0  0  0  0  0  0  0  0
   49.4290   29.8510   42.3420 N   0  0  0  0  0  0  0  0  0  0  0  0
   49.9290   28.8400   43.0440 C   0  0  0  0  0  0  0  0  0  0  0  0
   49.4150   28.9160   44.2740 N   0  0  0  0  0  0  0  0  0  0  0  0
   43.8358   36.8514   44.5504 H   0  0  0  0  0  0  0  0  0  0  0  0
   45.2247   36.5528   42.4977 H   0  0  0  0  0  0  0  0  0  0  0  0
   46.8260   34.6069   42.3828 H   0  0  0  0  0  0  0  0  0  0  0  0
   44.4841   33.8994   48.1703 H   0  0  0  0  0  0  0  0  0  0  0  0
   47.0495   29.5612   48.6495 H   0  0  0  0  0  0  0  0  0  0  0  0
   48.0261   31.4391   42.8946 H   0  0  0  0  0  0  0  0  0  0  0  0
   50.6360   28.0804   42.6792 H   0  0  0  0  0  0  0  0  0  0  0  0
  1  6  2  0
  2  1  1  0
  3  2  2  0
  3  4  1  0
  4  5  2  0
  5  6  1  0
  5  7  1  0
  7  8  1  0
  8  9  2  0
 10 11  2  0
 10  9  1  0
 12 11  1  0
 13 12  2  0
 14 13  1  0
 14 15  2  0
 15  7  1  0
 15 10  1  0
 16 13  1  0
 17 16  1  0
 18 19  1  0
 18 17  2  0
 19 20  2  0
 20 16  1  0
  1 21  1  0
  2 22  1  0
  3 23  1  0
  8 24  1  0
 11 25  1  0
 17 26  1  0
 19 27  1  0
M  ISO  7  21  14  22  14  23  14  24  14  25  14  26  14  27  14
M  END
>  <minimizedAffinity>  (1) 
-5.22875643

>  <minimizedRMSD>  (1) 
0.114520736

$$$$
