
     RDKit          3D

 29 32  0  0  0  0  0  0  0  0999 V2000
   44.5810   35.9980   44.5140 C   0  0  0  0  0  0  0  0  0  0  0  0
   45.3350   35.8150   43.3520 C   0  0  0  0  0  0  0  0  0  0  0  0
   46.1790   34.7110   43.3070 C   0  0  0  0  0  0  0  0  0  0  0  0
   46.2320   33.8710   44.3790 N   0  0  0  0  0  0  0  0  0  0  0  0
   45.4820   34.0930   45.4790 C   0  0  0  0  0  0  0  0  0  0  0  0
   44.6520   35.1530   45.5610 N   0  0  0  0  0  0  0  0  0  0  0  0
   45.6200   33.1370   46.5560 N   0  0  0  0  0  0  0  0  0  0  0  0
   45.0830   33.1470   47.7950 C   0  0  0  0  0  0  0  0  0  0  0  0
   45.5030   32.0310   48.4430 N   0  0  0  0  0  0  0  0  0  0  0  0
   46.2970   31.3130   47.6350 C   0  0  0  0  0  0  0  0  0  0  0  0
   46.9750   30.1120   47.8090 C   0  0  0  0  0  0  0  0  0  0  0  0
   47.6980   29.6760   46.7580 N   0  0  0  0  0  0  0  0  0  0  0  0
   47.7470   30.3740   45.6210 C   0  0  0  0  0  0  0  0  0  0  0  0
   47.0990   31.5480   45.4210 N   0  0  0  0  0  0  0  0  0  0  0  0
   46.3640   32.0180   46.4500 C   0  0  0  0  0  0  0  0  0  0  0  0
   48.5520   29.8350   44.5260 C   0  0  0  0  0  0  0  0  0  0  0  0
   48.8310   30.6040   43.3930 C   0  0  0  0  0  0  0  0  0  0  0  0
   49.5920   30.1020   42.3550 C   0  0  0  0  0  0  0  0  0  0  0  0
   50.0540   28.8470   42.4750 N   0  0  0  0  0  0  0  0  0  0  0  0
   49.7970   28.0850   43.5600 C   0  0  0  0  0  0  0  0  0  0  0  0
   49.0580   28.6150   44.5360 N   0  0  0  0  0  0  0  0  0  0  0  0
   43.9049   36.8634   44.5763 H   0  0  0  0  0  0  0  0  0  0  0  0
   45.2638   36.5158   42.5072 H   0  0  0  0  0  0  0  0  0  0  0  0
   46.7963   34.5179   42.4172 H   0  0  0  0  0  0  0  0  0  0  0  0
   44.4214   33.9234   48.2067 H   0  0  0  0  0  0  0  0  0  0  0  0
   46.9244   29.5484   48.7523 H   0  0  0  0  0  0  0  0  0  0  0  0
   48.4371   31.6289   43.3264 H   0  0  0  0  0  0  0  0  0  0  0  0
   49.8113   30.7078   41.4634 H   0  0  0  0  0  0  0  0  0  0  0  0
   50.1852   27.0586   43.6366 H   0  0  0  0  0  0  0  0  0  0  0  0
  1  6  2  0
  2  1  1  0
  3  2  2  0
  3  4  1  0
  4  5  2  0
  5  6  1  0
  5  7  1  0
  7  8  1  0
  8  9  2  0
 10 11  2  0
 10  9  1  0
 12 11  1  0
 13 12  2  0
 14 13  1  0
 14 15  2  0
 15  7  1  0
 15 10  1  0
 16 21  1  0
 16 13  1  0
 17 16  2  0
 18 19  2  0
 18 17  1  0
 19 20  1  0
 20 21  2  0
  1 22  1  0
  2 23  1  0
  3 24  1  0
  8 25  1  0
 11 26  1  0
 17 27  1  0
 18 28  1  0
 20 29  1  0
M  ISO  8  22  14  23  14  24  14  25  14  26  14  27  14  28  14  29  14
M  END
>  <minimizedAffinity>  (1) 
-5.05709934

>  <minimizedRMSD>  (1) 
0.195237979

$$$$
