
     RDKit          3D

 30 33  0  0  0  0  0  0  0  0999 V2000
   44.5890   35.9750   44.4650 C   0  0  0  0  0  0  0  0  0  0  0  0
   45.3900   35.7820   43.3190 C   0  0  0  0  0  0  0  0  0  0  0  0
   46.2500   34.6930   43.3080 C   0  0  0  0  0  0  0  0  0  0  0  0
   46.2810   33.8690   44.3940 N   0  0  0  0  0  0  0  0  0  0  0  0
   45.5010   34.0850   45.4730 C   0  0  0  0  0  0  0  0  0  0  0  0
   44.6450   35.1310   45.5340 N   0  0  0  0  0  0  0  0  0  0  0  0
   45.6350   33.1380   46.5480 N   0  0  0  0  0  0  0  0  0  0  0  0
   45.1010   33.1550   47.7880 C   0  0  0  0  0  0  0  0  0  0  0  0
   45.5010   32.0570   48.4530 N   0  0  0  0  0  0  0  0  0  0  0  0
   46.3040   31.3140   47.6440 C   0  0  0  0  0  0  0  0  0  0  0  0
   46.9660   30.1090   47.8460 C   0  0  0  0  0  0  0  0  0  0  0  0
   47.6800   29.6650   46.8070 N   0  0  0  0  0  0  0  0  0  0  0  0
   47.7430   30.3520   45.6490 C   0  0  0  0  0  0  0  0  0  0  0  0
   47.1040   31.5290   45.4330 N   0  0  0  0  0  0  0  0  0  0  0  0
   46.3650   32.0150   46.4670 C   0  0  0  0  0  0  0  0  0  0  0  0
   48.5380   29.8260   44.5370 C   0  0  0  0  0  0  0  0  0  0  0  0
   48.7660   30.6240   43.4130 C   0  0  0  0  0  0  0  0  0  0  0  0
   49.5040   30.1960   42.3290 C   0  0  0  0  0  0  0  0  0  0  0  0
   50.0090   28.9000   42.4450 C   0  0  0  0  0  0  0  0  0  0  0  0
   49.8080   28.0830   43.5340 C   0  0  0  0  0  0  0  0  0  0  0  0
   49.0730   28.5900   44.5420 N   0  0  0  0  0  0  0  0  0  0  0  0
   43.8994   36.8315   44.4964 H   0  0  0  0  0  0  0  0  0  0  0  0
   45.3344   36.4714   42.4636 H   0  0  0  0  0  0  0  0  0  0  0  0
   46.8952   34.4980   42.4387 H   0  0  0  0  0  0  0  0  0  0  0  0
   44.4443   33.9408   48.1896 H   0  0  0  0  0  0  0  0  0  0  0  0
   46.9065   29.5581   48.7962 H   0  0  0  0  0  0  0  0  0  0  0  0
   48.3385   31.6373   43.3916 H   0  0  0  0  0  0  0  0  0  0  0  0
   49.6803   30.8255   41.4443 H   0  0  0  0  0  0  0  0  0  0  0  0
   50.6074   28.5055   41.6106 H   0  0  0  0  0  0  0  0  0  0  0  0
   50.2267   27.0668   43.5788 H   0  0  0  0  0  0  0  0  0  0  0  0
  1  6  2  0
  2  1  1  0
  3  2  2  0
  3  4  1  0
  4  5  2  0
  5  6  1  0
  5  7  1  0
  7  8  1  0
  8  9  2  0
 10 11  2  0
 10  9  1  0
 12 11  1  0
 13 12  2  0
 14 13  1  0
 14 15  2  0
 15  7  1  0
 15 10  1  0
 16 21  1  0
 16 13  1  0
 17 16  2  0
 18 19  2  0
 18 17  1  0
 19 20  1  0
 20 21  2  0
  1 22  1  0
  2 23  1  0
  3 24  1  0
  8 25  1  0
 11 26  1  0
 17 27  1  0
 18 28  1  0
 19 29  1  0
 20 30  1  0
M  ISO  8  22  14  23  14  24  14  25  14  26  14  27  14  28  14  29  14
M  ISO  1  30  14
M  END
>  <minimizedAffinity>  (1) 
-5.07988882

>  <minimizedRMSD>  (1) 
0.228298277

$$$$
