
     RDKit          3D

 28 31  0  0  0  0  0  0  0  0999 V2000
   44.5480   36.0050   44.5200 C   0  0  0  0  0  0  0  0  0  0  0  0
   45.2900   35.8730   43.3440 C   0  0  0  0  0  0  0  0  0  0  0  0
   46.1580   34.7910   43.2590 C   0  0  0  0  0  0  0  0  0  0  0  0
   46.2460   33.9200   44.3120 N   0  0  0  0  0  0  0  0  0  0  0  0
   45.5070   34.0960   45.4220 C   0  0  0  0  0  0  0  0  0  0  0  0
   44.6530   35.1300   45.5480 N   0  0  0  0  0  0  0  0  0  0  0  0
   45.6860   33.1090   46.4670 N   0  0  0  0  0  0  0  0  0  0  0  0
   45.1890   33.0740   47.7160 C   0  0  0  0  0  0  0  0  0  0  0  0
   45.6320   31.9600   48.3180 N   0  0  0  0  0  0  0  0  0  0  0  0
   46.4200   31.2640   47.4670 C   0  0  0  0  0  0  0  0  0  0  0  0
   47.1190   30.0590   47.5900 C   0  0  0  0  0  0  0  0  0  0  0  0
   47.8120   29.6660   46.5130 N   0  0  0  0  0  0  0  0  0  0  0  0
   47.8230   30.3970   45.3910 C   0  0  0  0  0  0  0  0  0  0  0  0
   47.1560   31.5690   45.2410 N   0  0  0  0  0  0  0  0  0  0  0  0
   46.4390   32.0100   46.3060 C   0  0  0  0  0  0  0  0  0  0  0  0
   48.5670   30.0080   44.1870 C   0  0  0  0  0  0  0  0  0  0  0  0
   48.7750   30.8560   43.1300 C   0  0  0  0  0  0  0  0  0  0  0  0
   49.4990   30.2530   42.1280 C   0  0  0  0  0  0  0  0  0  0  0  0
   49.7180   29.0030   42.6260 N   0  0  0  0  0  0  0  0  0  0  0  0
   49.1750   28.8640   43.8230 N   0  0  0  0  0  0  0  0  0  0  0  0
   43.8521   36.8517   44.6146 H   0  0  0  0  0  0  0  0  0  0  0  0
   45.1915   36.5950   42.5200 H   0  0  0  0  0  0  0  0  0  0  0  0
   46.7673   34.6360   42.3563 H   0  0  0  0  0  0  0  0  0  0  0  0
   44.5307   33.8307   48.1676 H   0  0  0  0  0  0  0  0  0  0  0  0
   47.1008   29.4680   48.5176 H   0  0  0  0  0  0  0  0  0  0  0  0
   48.4077   31.8920   43.0884 H   0  0  0  0  0  0  0  0  0  0  0  0
   49.8212   30.6745   41.1644 H   0  0  0  0  0  0  0  0  0  0  0  0
   50.2388   28.2632   42.1336 H   0  0  0  0  0  0  0  0  0  0  0  0
  1  6  2  0
  2  1  1  0
  3  2  2  0
  3  4  1  0
  4  5  2  0
  5  6  1  0
  5  7  1  0
  7  8  1  0
  8  9  2  0
 10 11  2  0
 10  9  1  0
 12 11  1  0
 13 12  2  0
 14 13  1  0
 14 15  2  0
 15  7  1  0
 15 10  1  0
 16 13  1  0
 17 16  1  0
 18 19  1  0
 18 17  2  0
 19 20  1  0
 20 16  2  0
  1 21  1  0
  2 22  1  0
  3 23  1  0
  8 24  1  0
 11 25  1  0
 17 26  1  0
 18 27  1  0
 19 28  1  0
M  ISO  8  21  14  22  14  23  14  24  14  25  14  26  14  27  14  28   9
M  END
>  <minimizedAffinity>  (1) 
-5.02065611

>  <minimizedRMSD>  (1) 
0.0981000811

$$$$
