
     RDKit          3D

 28 31  0  0  0  0  0  0  0  0999 V2000
   44.5810   35.9710   44.4770 C   0  0  0  0  0  0  0  0  0  0  0  0
   45.3710   35.7890   43.3390 C   0  0  0  0  0  0  0  0  0  0  0  0
   46.2410   34.7040   43.3120 C   0  0  0  0  0  0  0  0  0  0  0  0
   46.2820   33.8720   44.3920 N   0  0  0  0  0  0  0  0  0  0  0  0
   45.4990   34.0860   45.4730 C   0  0  0  0  0  0  0  0  0  0  0  0
   44.6540   35.1220   45.5230 N   0  0  0  0  0  0  0  0  0  0  0  0
   45.6250   33.1390   46.5620 N   0  0  0  0  0  0  0  0  0  0  0  0
   45.0940   33.1470   47.7960 C   0  0  0  0  0  0  0  0  0  0  0  0
   45.5030   32.0420   48.4520 N   0  0  0  0  0  0  0  0  0  0  0  0
   46.3080   31.3090   47.6430 C   0  0  0  0  0  0  0  0  0  0  0  0
   46.9770   30.1030   47.8370 C   0  0  0  0  0  0  0  0  0  0  0  0
   47.7040   29.6600   46.7840 N   0  0  0  0  0  0  0  0  0  0  0  0
   47.7510   30.3570   45.6500 C   0  0  0  0  0  0  0  0  0  0  0  0
   47.1160   31.5310   45.4210 N   0  0  0  0  0  0  0  0  0  0  0  0
   46.3730   32.0160   46.4510 C   0  0  0  0  0  0  0  0  0  0  0  0
   48.5530   29.8550   44.5060 C   0  0  0  0  0  0  0  0  0  0  0  0
   48.8810   30.5270   43.3650 C   0  0  0  0  0  0  0  0  0  0  0  0
   49.6240   29.9100   42.4220 C   0  0  0  0  0  0  0  0  0  0  0  0
   50.0400   28.5950   42.6350 C   0  0  0  0  0  0  0  0  0  0  0  0
   49.3360   28.2020   44.2800 S   0  0  0  0  0  0  0  0  0  0  0  0
   43.8863   36.8227   44.5209 H   0  0  0  0  0  0  0  0  0  0  0  0
   45.3068   36.4839   42.4887 H   0  0  0  0  0  0  0  0  0  0  0  0
   46.8827   34.5207   42.4376 H   0  0  0  0  0  0  0  0  0  0  0  0
   44.4341   33.9267   48.2042 H   0  0  0  0  0  0  0  0  0  0  0  0
   46.9186   29.5465   48.7841 H   0  0  0  0  0  0  0  0  0  0  0  0
   48.5428   31.5629   43.2147 H   0  0  0  0  0  0  0  0  0  0  0  0
   49.8984   30.4375   41.4965 H   0  0  0  0  0  0  0  0  0  0  0  0
   50.6428   27.9522   41.9766 H   0  0  0  0  0  0  0  0  0  0  0  0
  1  6  2  0
  2  1  1  0
  3  2  2  0
  3  4  1  0
  4  5  2  0
  5  6  1  0
  5  7  1  0
  7  8  1  0
  8  9  2  0
 10 11  2  0
 10  9  1  0
 12 11  1  0
 13 12  2  0
 14 13  1  0
 14 15  2  0
 15  7  1  0
 15 10  1  0
 16 13  1  0
 17 16  2  0
 18 19  2  0
 18 17  1  0
 19 20  1  0
 20 16  1  0
  1 21  1  0
  2 22  1  0
  3 23  1  0
  8 24  1  0
 11 25  1  0
 17 26  1  0
 18 27  1  0
 19 28  1  0
M  ISO  8  21  14  22  14  23  14  24  14  25  14  26  14  27  14  28  14
M  END
>  <minimizedAffinity>  (1) 
-5.0100832

>  <minimizedRMSD>  (1) 
0.219975159

$$$$
