
     RDKit          3D

 28 31  0  0  0  0  0  0  0  0999 V2000
   44.5500   36.0260   44.5340 C   0  0  0  0  0  0  0  0  0  0  0  0
   45.2840   35.8850   43.3530 C   0  0  0  0  0  0  0  0  0  0  0  0
   46.1500   34.7860   43.2460 C   0  0  0  0  0  0  0  0  0  0  0  0
   46.2250   33.9220   44.2960 N   0  0  0  0  0  0  0  0  0  0  0  0
   45.4910   34.0990   45.4250 C   0  0  0  0  0  0  0  0  0  0  0  0
   44.6580   35.1380   45.5530 N   0  0  0  0  0  0  0  0  0  0  0  0
   45.6670   33.1060   46.4630 N   0  0  0  0  0  0  0  0  0  0  0  0
   45.1650   33.0490   47.7070 C   0  0  0  0  0  0  0  0  0  0  0  0
   45.6150   31.9310   48.2930 N   0  0  0  0  0  0  0  0  0  0  0  0
   46.4120   31.2500   47.4430 C   0  0  0  0  0  0  0  0  0  0  0  0
   47.1210   30.0480   47.5530 C   0  0  0  0  0  0  0  0  0  0  0  0
   47.8260   29.6700   46.4740 N   0  0  0  0  0  0  0  0  0  0  0  0
   47.8380   30.4160   45.3620 C   0  0  0  0  0  0  0  0  0  0  0  0
   47.1630   31.5820   45.2240 N   0  0  0  0  0  0  0  0  0  0  0  0
   46.4330   32.0040   46.2980 C   0  0  0  0  0  0  0  0  0  0  0  0
   48.5820   30.0740   44.1390 C   0  0  0  0  0  0  0  0  0  0  0  0
   48.6990   31.0150   43.1410 C   0  0  0  0  0  0  0  0  0  0  0  0
   49.4490   30.3720   42.1500 C   0  0  0  0  0  0  0  0  0  0  0  0
   49.7350   29.1030   42.6020 C   0  0  0  0  0  0  0  0  0  0  0  0
   49.1950   28.9590   43.8090 O   0  0  0  0  0  0  0  0  0  0  0  0
   43.8659   36.8809   44.6397 H   0  0  0  0  0  0  0  0  0  0  0  0
   45.1860   36.6123   42.5336 H   0  0  0  0  0  0  0  0  0  0  0  0
   46.7517   34.6268   42.3390 H   0  0  0  0  0  0  0  0  0  0  0  0
   44.4980   33.7932   48.1668 H   0  0  0  0  0  0  0  0  0  0  0  0
   47.1018   29.4457   48.4732 H   0  0  0  0  0  0  0  0  0  0  0  0
   48.2953   32.0381   43.1260 H   0  0  0  0  0  0  0  0  0  0  0  0
   49.7547   30.8022   41.1849 H   0  0  0  0  0  0  0  0  0  0  0  0
   50.3110   28.3397   42.0583 H   0  0  0  0  0  0  0  0  0  0  0  0
  1  6  2  0
  2  1  1  0
  3  2  2  0
  3  4  1  0
  4  5  2  0
  5  6  1  0
  5  7  1  0
  7  8  1  0
  8  9  2  0
 10 11  2  0
 10  9  1  0
 12 11  1  0
 13 12  2  0
 14 13  1  0
 14 15  2  0
 15  7  1  0
 15 10  1  0
 16 13  1  0
 17 16  2  0
 18 19  2  0
 18 17  1  0
 19 20  1  0
 20 16  1  0
  1 21  1  0
  2 22  1  0
  3 23  1  0
  8 24  1  0
 11 25  1  0
 17 26  1  0
 18 27  1  0
 19 28  1  0
M  ISO  8  21  14  22  14  23  14  24  14  25  14  26  14  27  14  28  14
M  END
>  <minimizedAffinity>  (1) 
-5.04797554

>  <minimizedRMSD>  (1) 
0.110501349

$$$$
