
     RDKit          3D

 28 31  0  0  0  0  0  0  0  0999 V2000
   44.5550   35.9830   44.4920 C   0  0  0  0  0  0  0  0  0  0  0  0
   45.3310   35.8210   43.3460 C   0  0  0  0  0  0  0  0  0  0  0  0
   46.2030   34.7430   43.3220 C   0  0  0  0  0  0  0  0  0  0  0  0
   46.2500   33.9140   44.4060 N   0  0  0  0  0  0  0  0  0  0  0  0
   45.4820   34.1080   45.4910 C   0  0  0  0  0  0  0  0  0  0  0  0
   44.6310   35.1390   45.5460 N   0  0  0  0  0  0  0  0  0  0  0  0
   45.6320   33.1440   46.5430 N   0  0  0  0  0  0  0  0  0  0  0  0
   45.0950   33.1480   47.7840 C   0  0  0  0  0  0  0  0  0  0  0  0
   45.5090   32.0420   48.4270 N   0  0  0  0  0  0  0  0  0  0  0  0
   46.3060   31.3230   47.6200 C   0  0  0  0  0  0  0  0  0  0  0  0
   46.9830   30.1200   47.8130 C   0  0  0  0  0  0  0  0  0  0  0  0
   47.7110   29.6910   46.7700 N   0  0  0  0  0  0  0  0  0  0  0  0
   47.7770   30.3880   45.6090 C   0  0  0  0  0  0  0  0  0  0  0  0
   47.1300   31.5560   45.3930 N   0  0  0  0  0  0  0  0  0  0  0  0
   46.3820   32.0200   46.4330 C   0  0  0  0  0  0  0  0  0  0  0  0
   48.6630   29.7550   44.6020 C   0  0  0  0  0  0  0  0  0  0  0  0
   49.2240   28.4920   44.5370 C   0  0  0  0  0  0  0  0  0  0  0  0
   49.9460   28.3860   43.4210 N   0  0  0  0  0  0  0  0  0  0  0  0
   49.8710   29.5590   42.7520 C   0  0  0  0  0  0  0  0  0  0  0  0
   49.0840   30.3630   43.5020 N   0  0  0  0  0  0  0  0  0  0  0  0
   43.8541   36.8294   44.5412 H   0  0  0  0  0  0  0  0  0  0  0  0
   45.2552   36.5174   42.4979 H   0  0  0  0  0  0  0  0  0  0  0  0
   46.8440   34.5594   42.4472 H   0  0  0  0  0  0  0  0  0  0  0  0
   44.4328   33.9233   48.1968 H   0  0  0  0  0  0  0  0  0  0  0  0
   46.9246   29.5593   48.7575 H   0  0  0  0  0  0  0  0  0  0  0  0
   49.0946   27.6992   45.2885 H   0  0  0  0  0  0  0  0  0  0  0  0
   50.3516   29.8079   41.7943 H   0  0  0  0  0  0  0  0  0  0  0  0
   48.8409   31.3314   43.2490 H   0  0  0  0  0  0  0  0  0  0  0  0
  1  6  2  0
  2  1  1  0
  3  2  2  0
  3  4  1  0
  4  5  2  0
  5  6  1  0
  5  7  1  0
  7  8  1  0
  8  9  2  0
 10 11  2  0
 10  9  1  0
 12 11  1  0
 13 12  2  0
 14 13  1  0
 14 15  2  0
 15  7  1  0
 15 10  1  0
 16 13  1  0
 17 16  2  0
 18 17  1  0
 19 18  2  0
 19 20  1  0
 20 16  1  0
  1 21  1  0
  2 22  1  0
  3 23  1  0
  8 24  1  0
 11 25  1  0
 17 26  1  0
 19 27  1  0
 20 28  1  0
M  ISO  8  21  14  22  14  23  14  24  14  25  14  26  14  27  14  28   9
M  END
>  <minimizedAffinity>  (1) 
-4.94556141

>  <minimizedRMSD>  (1) 
0.172345623

$$$$
