
     RDKit          3D

 29 32  0  0  0  0  0  0  0  0999 V2000
   44.5380   36.0040   44.5180 C   0  0  0  0  0  0  0  0  0  0  0  0
   45.2920   35.8730   43.3490 C   0  0  0  0  0  0  0  0  0  0  0  0
   46.1680   34.7980   43.2640 C   0  0  0  0  0  0  0  0  0  0  0  0
   46.2540   33.9260   44.3110 N   0  0  0  0  0  0  0  0  0  0  0  0
   45.5050   34.0880   45.4290 C   0  0  0  0  0  0  0  0  0  0  0  0
   44.6580   35.1180   45.5260 N   0  0  0  0  0  0  0  0  0  0  0  0
   45.6900   33.1010   46.4590 N   0  0  0  0  0  0  0  0  0  0  0  0
   45.1840   33.0610   47.7110 C   0  0  0  0  0  0  0  0  0  0  0  0
   45.6350   31.9400   48.3140 N   0  0  0  0  0  0  0  0  0  0  0  0
   46.4300   31.2570   47.4540 C   0  0  0  0  0  0  0  0  0  0  0  0
   47.1340   30.0590   47.5730 C   0  0  0  0  0  0  0  0  0  0  0  0
   47.8340   29.6700   46.5030 N   0  0  0  0  0  0  0  0  0  0  0  0
   47.8480   30.4030   45.3790 C   0  0  0  0  0  0  0  0  0  0  0  0
   47.1720   31.5690   45.2440 N   0  0  0  0  0  0  0  0  0  0  0  0
   46.4520   31.9980   46.3000 C   0  0  0  0  0  0  0  0  0  0  0  0
   48.6180   29.9630   44.2210 C   0  0  0  0  0  0  0  0  0  0  0  0
   49.7670   29.1910   44.3690 C   0  0  0  0  0  0  0  0  0  0  0  0
   50.5090   28.7660   43.2660 C   0  0  0  0  0  0  0  0  0  0  0  0
   50.1150   29.1050   42.0280 N   0  0  0  0  0  0  0  0  0  0  0  0
   49.0030   29.8510   41.8870 C   0  0  0  0  0  0  0  0  0  0  0  0
   48.2740   30.2710   42.9410 N   0  0  0  0  0  0  0  0  0  0  0  0
   43.8349   36.8442   44.6170 H   0  0  0  0  0  0  0  0  0  0  0  0
   45.1954   36.5954   42.5251 H   0  0  0  0  0  0  0  0  0  0  0  0
   46.7843   34.6513   42.3648 H   0  0  0  0  0  0  0  0  0  0  0  0
   44.5190   33.8124   48.1617 H   0  0  0  0  0  0  0  0  0  0  0  0
   47.1142   29.4654   48.4989 H   0  0  0  0  0  0  0  0  0  0  0  0
   50.0980   28.9092   45.3795 H   0  0  0  0  0  0  0  0  0  0  0  0
   51.4128   28.1559   43.4103 H   0  0  0  0  0  0  0  0  0  0  0  0
   48.6768   30.1284   40.8738 H   0  0  0  0  0  0  0  0  0  0  0  0
  1  6  2  0
  2  1  1  0
  3  2  2  0
  3  4  1  0
  4  5  2  0
  5  6  1  0
  5  7  1  0
  7  8  1  0
  8  9  2  0
 10 11  2  0
 10  9  1  0
 12 11  1  0
 13 12  2  0
 14 13  1  0
 14 15  2  0
 15  7  1  0
 15 10  1  0
 16 17  2  0
 16 13  1  0
 18 17  1  0
 19 18  2  0
 20 19  1  0
 20 21  2  0
 21 16  1  0
  1 22  1  0
  2 23  1  0
  3 24  1  0
  8 25  1  0
 11 26  1  0
 17 27  1  0
 18 28  1  0
 20 29  1  0
M  ISO  8  22  14  23  14  24  14  25  14  26  14  27  14  28  14  29  14
M  END
>  <minimizedAffinity>  (1) 
-5.03763485

>  <minimizedRMSD>  (1) 
0.117345333

$$$$
