
     RDKit          3D

 28 31  0  0  0  0  0  0  0  0999 V2000
   44.6020   35.9750   44.4170 C   0  0  0  0  0  0  0  0  0  0  0  0
   45.4040   35.7810   43.2910 C   0  0  0  0  0  0  0  0  0  0  0  0
   46.2780   34.7010   43.2750 C   0  0  0  0  0  0  0  0  0  0  0  0
   46.2990   33.8890   44.3670 N   0  0  0  0  0  0  0  0  0  0  0  0
   45.5060   34.1060   45.4460 C   0  0  0  0  0  0  0  0  0  0  0  0
   44.6480   35.1450   45.4910 N   0  0  0  0  0  0  0  0  0  0  0  0
   45.6320   33.1650   46.5350 N   0  0  0  0  0  0  0  0  0  0  0  0
   45.0880   33.2030   47.7660 C   0  0  0  0  0  0  0  0  0  0  0  0
   45.4910   32.1030   48.4360 N   0  0  0  0  0  0  0  0  0  0  0  0
   46.2910   31.3590   47.6400 C   0  0  0  0  0  0  0  0  0  0  0  0
   46.9540   30.1480   47.8560 C   0  0  0  0  0  0  0  0  0  0  0  0
   47.6760   29.6900   46.8230 N   0  0  0  0  0  0  0  0  0  0  0  0
   47.7430   30.3720   45.6590 C   0  0  0  0  0  0  0  0  0  0  0  0
   47.1080   31.5460   45.4300 N   0  0  0  0  0  0  0  0  0  0  0  0
   46.3670   32.0420   46.4500 C   0  0  0  0  0  0  0  0  0  0  0  0
   48.5930   29.7160   44.6150 C   0  0  0  0  0  0  0  0  0  0  0  0
   47.9640   28.9390   43.5340 C   0  0  0  0  0  0  0  0  0  0  0  0
   48.4140   30.3040   43.2130 C   0  0  0  0  0  0  0  0  0  0  0  0
   43.9092   36.8292   44.4350 H   0  0  0  0  0  0  0  0  0  0  0  0
   45.3453   36.4687   42.4345 H   0  0  0  0  0  0  0  0  0  0  0  0
   46.9300   34.5090   42.4101 H   0  0  0  0  0  0  0  0  0  0  0  0
   44.4299   33.9928   48.1573 H   0  0  0  0  0  0  0  0  0  0  0  0
   46.8880   29.6059   48.8109 H   0  0  0  0  0  0  0  0  0  0  0  0
   49.4118   29.4991   45.3168 H   0  0  0  0  0  0  0  0  0  0  0  0
   48.4961   28.0773   43.1048 H   0  0  0  0  0  0  0  0  0  0  0  0
   47.0048   28.4098   43.4347 H   0  0  0  0  0  0  0  0  0  0  0  0
   49.2872   30.4605   42.5626 H   0  0  0  0  0  0  0  0  0  0  0  0
   47.9464   31.2071   42.7937 H   0  0  0  0  0  0  0  0  0  0  0  0
  1  6  2  0
  2  1  1  0
  3  2  2  0
  3  4  1  0
  4  5  2  0
  5  6  1  0
  5  7  1  0
  7  8  1  0
  8  9  2  0
 10 11  2  0
 10  9  1  0
 12 11  1  0
 13 12  2  0
 14 13  1  0
 14 15  2  0
 15  7  1  0
 15 10  1  0
 16 13  1  0
 17 16  1  0
 18 17  1  0
 18 16  1  0
  1 19  1  0
  2 20  1  0
  3 21  1  0
  8 22  1  0
 11 23  1  0
 16 24  1  0
 17 25  1  0
 17 26  1  0
 18 27  1  0
 18 28  1  0
M  ISO  8  19  14  20  14  21  14  22  14  23  14  24  13  25  13  26  13
M  ISO  2  27  13  28  13
M  END
>  <minimizedAffinity>  (1) 
-4.84747982

>  <minimizedRMSD>  (1) 
0.188287988

$$$$
