
     RDKit          3D

 22 24  0  0  0  0  0  0  0  0999 V2000
   44.5610   36.0230   44.5280 C   0  0  0  0  0  0  0  0  0  0  0  0
   45.2960   35.8440   43.3550 C   0  0  0  0  0  0  0  0  0  0  0  0
   46.1510   34.7410   43.2550 C   0  0  0  0  0  0  0  0  0  0  0  0
   46.2190   33.8960   44.3130 N   0  0  0  0  0  0  0  0  0  0  0  0
   45.4870   34.1010   45.4420 C   0  0  0  0  0  0  0  0  0  0  0  0
   44.6650   35.1550   45.5510 N   0  0  0  0  0  0  0  0  0  0  0  0
   45.6540   33.1240   46.4950 N   0  0  0  0  0  0  0  0  0  0  0  0
   45.1430   33.1050   47.7400 C   0  0  0  0  0  0  0  0  0  0  0  0
   45.5790   31.9880   48.3610 N   0  0  0  0  0  0  0  0  0  0  0  0
   46.3720   31.2860   47.5190 C   0  0  0  0  0  0  0  0  0  0  0  0
   47.0590   30.0880   47.6630 C   0  0  0  0  0  0  0  0  0  0  0  0
   47.7630   29.6750   46.6000 N   0  0  0  0  0  0  0  0  0  0  0  0
   47.7960   30.3830   45.4700 C   0  0  0  0  0  0  0  0  0  0  0  0
   47.1320   31.5570   45.3070 N   0  0  0  0  0  0  0  0  0  0  0  0
   46.4110   32.0070   46.3510 C   0  0  0  0  0  0  0  0  0  0  0  0
   48.5360   29.9420   44.3660 O   0  0  0  0  0  0  0  0  0  0  0  0
   43.8862   36.8871   44.6176 H   0  0  0  0  0  0  0  0  0  0  0  0
   45.2046   36.5580   42.5232 H   0  0  0  0  0  0  0  0  0  0  0  0
   46.7482   34.5653   42.3481 H   0  0  0  0  0  0  0  0  0  0  0  0
   44.4830   33.8688   48.1770 H   0  0  0  0  0  0  0  0  0  0  0  0
   47.0272   29.5097   48.5982 H   0  0  0  0  0  0  0  0  0  0  0  0
   48.5510   30.4783   43.5340 H   0  0  0  0  0  0  0  0  0  0  0  0
  1  6  2  0
  2  1  1  0
  3  2  2  0
  3  4  1  0
  4  5  2  0
  5  6  1  0
  5  7  1  0
  7  8  1  0
  8  9  2  0
 10 11  2  0
 10  9  1  0
 12 11  1  0
 13 12  2  0
 14 13  1  0
 14 15  2  0
 15  7  1  0
 15 10  1  0
 16 13  1  0
  1 17  1  0
  2 18  1  0
  3 19  1  0
  8 20  1  0
 11 21  1  0
 16 22  1  0
M  ISO  6  17  14  18  14  19  14  20  14  21  14  22   3
M  END
>  <minimizedAffinity>  (1) 
-4.90499449

>  <minimizedRMSD>  (1) 
0.0365741998

$$$$
