
     RDKit          3D

 27 29  0  0  0  0  0  0  0  0999 V2000
   44.4610   36.0470   44.4670 C   0  0  0  0  0  0  0  0  0  0  0  0
   45.1290   36.1630   43.2580 C   0  0  0  0  0  0  0  0  0  0  0  0
   46.1080   35.2130   42.9650 C   0  0  0  0  0  0  0  0  0  0  0  0
   46.3780   34.2230   43.8530 N   0  0  0  0  0  0  0  0  0  0  0  0
   45.6840   34.1610   45.0320 C   0  0  0  0  0  0  0  0  0  0  0  0
   44.7290   35.0620   45.3470 N   0  0  0  0  0  0  0  0  0  0  0  0
   46.0440   33.0660   45.9100 N   0  0  0  0  0  0  0  0  0  0  0  0
   45.7130   32.8510   47.1970 C   0  0  0  0  0  0  0  0  0  0  0  0
   46.2840   31.7020   47.5780 N   0  0  0  0  0  0  0  0  0  0  0  0
   46.9810   31.1730   46.5470 C   0  0  0  0  0  0  0  0  0  0  0  0
   47.7410   30.0050   46.4350 C   0  0  0  0  0  0  0  0  0  0  0  0
   48.3090   29.7800   45.2430 N   0  0  0  0  0  0  0  0  0  0  0  0
   48.1450   30.6420   44.2270 C   0  0  0  0  0  0  0  0  0  0  0  0
   47.4080   31.7850   44.3160 N   0  0  0  0  0  0  0  0  0  0  0  0
   46.8250   32.0350   45.5030 C   0  0  0  0  0  0  0  0  0  0  0  0
   48.7890   30.3720   42.9070 C   0  0  0  0  0  0  0  0  0  0  0  0
   48.6380   31.4850   42.0830 F   0  0  0  0  0  0  0  0  0  0  0  0
   48.2330   29.2970   42.2780 F   0  0  0  0  0  0  0  0  0  0  0  0
   50.1620   30.2460   43.0850 F   0  0  0  0  0  0  0  0  0  0  0  0
   47.8940   29.0850   47.5800 C   0  0  0  0  0  0  0  0  0  0  0  0
   46.6350   28.5800   47.8810 F   0  0  0  0  0  0  0  0  0  0  0  0
   48.7350   28.0520   47.2900 F   0  0  0  0  0  0  0  0  0  0  0  0
   48.3420   29.7340   48.7150 F   0  0  0  0  0  0  0  0  0  0  0  0
   43.6846   36.7850   44.7171 H   0  0  0  0  0  0  0  0  0  0  0  0
   44.8955   36.9755   42.5542 H   0  0  0  0  0  0  0  0  0  0  0  0
   46.6604   35.2665   42.0152 H   0  0  0  0  0  0  0  0  0  0  0  0
   45.0858   33.5026   47.8231 H   0  0  0  0  0  0  0  0  0  0  0  0
  1  6  2  0
  2  1  1  0
  3  2  2  0
  3  4  1  0
  4  5  2  0
  5  6  1  0
  5  7  1  0
  7  8  1  0
  8  9  2  0
 10  9  1  0
 11 10  2  0
 11 20  1  0
 12 11  1  0
 13 14  1  0
 13 12  2  0
 14 15  2  0
 15  7  1  0
 15 10  1  0
 16 19  1  0
 16 13  1  0
 17 16  1  0
 18 16  1  0
 20 21  1  0
 20 23  1  0
 22 20  1  0
  1 24  1  0
  2 25  1  0
  3 26  1  0
  8 27  1  0
M  ISO  4  24  14  25  14  26  14  27  14
M  END
>  <minimizedAffinity>  (1) 
-5.07424736

>  <minimizedRMSD>  (1) 
1.45403576

$$$$
