
     RDKit          3D

 46 49  0  0  0  0  0  0  0  0999 V2000
   44.7840   35.9470   45.0890 C   0  0  0  0  0  0  0  0  0  0  0  0
   44.1290   35.9420   43.8330 C   0  0  0  0  0  0  0  0  0  0  0  0
   44.1600   34.7750   43.1000 C   0  0  0  0  0  0  0  0  0  0  0  0
   44.7960   33.6750   43.5650 N   0  0  0  0  0  0  0  0  0  0  0  0
   45.4260   33.6960   44.7840 C   0  0  0  0  0  0  0  0  0  0  0  0
   45.4070   34.8410   45.5260 N   0  0  0  0  0  0  0  0  0  0  0  0
   43.4980   34.7860   41.8420 N   0  0  0  0  0  0  0  0  0  0  0  0
   42.1900   34.9710   41.6170 C   0  0  0  0  0  0  0  0  0  0  0  0
   41.7020   34.9520   40.3220 C   0  0  0  0  0  0  0  0  0  0  0  0
   42.5300   34.7480   39.2450 C   0  0  0  0  0  0  0  0  0  0  0  0
   42.0880   34.7310   38.0720 O   0  0  0  0  0  0  0  0  0  0  0  0
   43.8330   34.5660   39.5010 N   0  0  0  0  0  0  0  0  0  0  0  0
   44.2960   34.5890   40.7930 C   0  0  0  0  0  0  0  0  0  0  0  0
   45.5590   34.4000   40.8660 O   0  0  0  0  0  0  0  0  0  0  0  0
   40.2630   35.1570   40.1060 C   0  0  0  0  0  0  0  0  0  0  0  0
   46.1090   32.5150   45.2860 C   0  0  0  0  0  0  0  0  0  0  0  0
   46.9710   31.6790   44.5820 C   0  0  0  0  0  0  0  0  0  0  0  0
   47.4040   30.6880   45.3950 N   0  0  0  0  0  0  0  0  0  0  0  0
   46.8090   30.9120   46.6020 C   0  0  0  0  0  0  0  0  0  0  0  0
   46.0190   32.0240   46.5360 N   0  0  0  0  0  0  0  0  0  0  0  0
   46.9730   30.0800   47.8350 C   0  0  0  0  0  0  0  0  0  0  0  0
   47.2150   28.6510   47.4780 C   0  0  0  0  0  0  0  0  0  0  0  0
   48.6930   28.3900   47.6390 C   0  0  0  0  0  0  0  0  0  0  0  0
   49.2970   29.5910   48.3280 C   0  0  0  0  0  0  0  0  0  0  0  0
   48.1710   30.5460   48.6310 C   0  0  0  0  0  0  0  0  0  0  0  0
   45.2260   32.5850   47.6090 C   0  0  0  0  0  0  0  0  0  0  0  0
   44.3280   31.6510   48.1510 F   0  0  0  0  0  0  0  0  0  0  0  0
   44.5060   33.7120   47.1910 F   0  0  0  0  0  0  0  0  0  0  0  0
   46.0530   32.9500   48.6790 F   0  0  0  0  0  0  0  0  0  0  0  0
   44.7822   36.8574   45.7065 H   0  0  0  0  0  0  0  0  0  0  0  0
   43.6138   36.8378   43.4559 H   0  0  0  0  0  0  0  0  0  0  0  0
   41.5046   35.1379   42.4610 H   0  0  0  0  0  0  0  0  0  0  0  0
   44.4905   34.4080   38.7240 H   0  0  0  0  0  0  0  0  0  0  0  0
   39.7530   35.2297   41.0779 H   0  0  0  0  0  0  0  0  0  0  0  0
   40.1061   36.0866   39.5392 H   0  0  0  0  0  0  0  0  0  0  0  0
   39.8527   34.3082   39.5392 H   0  0  0  0  0  0  0  0  0  0  0  0
   47.2562   31.8047   43.5271 H   0  0  0  0  0  0  0  0  0  0  0  0
   46.0485   30.1819   48.4222 H   0  0  0  0  0  0  0  0  0  0  0  0
   46.9119   28.4670   46.4367 H   0  0  0  0  0  0  0  0  0  0  0  0
   46.6296   27.9837   48.1276 H   0  0  0  0  0  0  0  0  0  0  0  0
   48.8503   27.4888   48.2498 H   0  0  0  0  0  0  0  0  0  0  0  0
   49.1657   28.2289   46.6589 H   0  0  0  0  0  0  0  0  0  0  0  0
   49.7897   29.2814   49.2615 H   0  0  0  0  0  0  0  0  0  0  0  0
   50.0520   30.0694   47.6869 H   0  0  0  0  0  0  0  0  0  0  0  0
   48.4501   31.5670   48.3315 H   0  0  0  0  0  0  0  0  0  0  0  0
   47.9465   30.5607   49.7077 H   0  0  0  0  0  0  0  0  0  0  0  0
  1  6  2  0
  2  1  1  0
  3  4  1  0
  3  2  2  0
  4  5  2  0
  5 16  1  0
  5  6  1  0
  7  3  1  0
  8  7  1  0
  9  8  2  0
 10 12  1  0
 10  9  1  0
 11 10  2  0
 12 13  1  0
 13 14  2  0
 13  7  1  0
 15  9  1  0
 16 20  1  0
 17 16  2  0
 17 18  1  0
 18 19  2  0
 19 21  1  0
 20 19  1  0
 20 26  1  0
 21 25  1  0
 22 23  1  0
 22 21  1  0
 23 24  1  0
 24 25  1  0
 26 27  1  0
 26 29  1  0
 28 26  1  0
  1 30  1  0
  2 31  1  0
  8 32  1  0
 12 33  1  0
 15 34  1  0
 15 35  1  0
 15 36  1  0
 17 37  1  0
 21 38  1  0
 22 39  1  0
 22 40  1  0
 23 41  1  0
 23 42  1  0
 24 43  1  0
 24 44  1  0
 25 45  1  0
 25 46  1  0
M  ISO  8  30  14  31  14  32  14  33   9  34   8  35   8  36   8  37  14
M  ISO  8  38  13  39  13  40  13  41  13  42  13  43  13  44  13  45  13
M  ISO  1  46  13
M  END
>  <minimizedAffinity>  (1) 
-6.50857592

>  <minimizedRMSD>  (1) 
0.935365021

$$$$
