
     RDKit          3D

 26 28  0  0  0  0  0  0  0  0999 V2000
   44.4730   35.9680   44.4560 C   0  0  0  0  0  0  0  0  0  0  0  0
   45.2300   35.9650   43.2920 C   0  0  0  0  0  0  0  0  0  0  0  0
   46.2070   34.9710   43.1420 C   0  0  0  0  0  0  0  0  0  0  0  0
   46.3770   34.0550   44.1290 N   0  0  0  0  0  0  0  0  0  0  0  0
   45.6050   34.1050   45.2520 C   0  0  0  0  0  0  0  0  0  0  0  0
   44.6530   35.0560   45.4220 N   0  0  0  0  0  0  0  0  0  0  0  0
   45.8790   33.0790   46.2320 N   0  0  0  0  0  0  0  0  0  0  0  0
   45.4710   32.9920   47.5150 C   0  0  0  0  0  0  0  0  0  0  0  0
   45.9780   31.8580   48.0260 N   0  0  0  0  0  0  0  0  0  0  0  0
   46.7030   31.2190   47.0880 C   0  0  0  0  0  0  0  0  0  0  0  0
   47.4220   30.0180   47.1220 C   0  0  0  0  0  0  0  0  0  0  0  0
   48.0440   29.6670   45.9800 N   0  0  0  0  0  0  0  0  0  0  0  0
   47.9620   30.4470   44.8850 C   0  0  0  0  0  0  0  0  0  0  0  0
   47.2700   31.6120   44.8390 N   0  0  0  0  0  0  0  0  0  0  0  0
   46.6370   31.9940   45.9580 C   0  0  0  0  0  0  0  0  0  0  0  0
   48.6610   30.0380   43.6320 C   0  0  0  0  0  0  0  0  0  0  0  0
   48.9390   31.1710   42.8750 F   0  0  0  0  0  0  0  0  0  0  0  0
   47.8990   29.2020   42.8690 F   0  0  0  0  0  0  0  0  0  0  0  0
   49.8940   29.5010   43.9510 F   0  0  0  0  0  0  0  0  0  0  0  0
   47.4620   29.2470   48.3160 N   0  0  0  0  0  0  0  0  0  0  0  0
   43.7026   36.7418   44.5895 H   0  0  0  0  0  0  0  0  0  0  0  0
   45.0677   36.7212   42.5098 H   0  0  0  0  0  0  0  0  0  0  0  0
   46.8285   34.9338   42.2352 H   0  0  0  0  0  0  0  0  0  0  0  0
   44.8380   33.7180   48.0462 H   0  0  0  0  0  0  0  0  0  0  0  0
   47.9909   28.3635   48.3411 H   0  0  0  0  0  0  0  0  0  0  0  0
   46.9621   29.5720   49.1559 H   0  0  0  0  0  0  0  0  0  0  0  0
  1  6  2  0
  2  1  1  0
  3  2  2  0
  3  4  1  0
  4  5  2  0
  5  6  1  0
  5  7  1  0
  7  8  1  0
  8  9  2  0
 10 11  2  0
 10  9  1  0
 11 20  1  0
 12 11  1  0
 13 12  2  0
 14 13  1  0
 14 15  2  0
 15  7  1  0
 15 10  1  0
 16 19  1  0
 16 13  1  0
 17 16  1  0
 18 16  1  0
  1 21  1  0
  2 22  1  0
  3 23  1  0
  8 24  1  0
 20 25  1  0
 20 26  1  0
M  ISO  4  21  14  22  14  23  14  24  14
M  END
>  <minimizedAffinity>  (1) 
-5.12734032

>  <minimizedRMSD>  (1) 
0.681390405

$$$$
