
     RDKit          3D

 25 27  0  0  0  0  0  0  0  0999 V2000
   44.4630   36.0130   44.4930 C   0  0  0  0  0  0  0  0  0  0  0  0
   45.0970   36.1650   43.2640 C   0  0  0  0  0  0  0  0  0  0  0  0
   46.0970   35.2380   42.9000 C   0  0  0  0  0  0  0  0  0  0  0  0
   46.4040   34.2320   43.7620 N   0  0  0  0  0  0  0  0  0  0  0  0
   45.7460   34.1310   44.9610 C   0  0  0  0  0  0  0  0  0  0  0  0
   44.7840   35.0100   45.3260 N   0  0  0  0  0  0  0  0  0  0  0  0
   46.1610   33.0280   45.7790 N   0  0  0  0  0  0  0  0  0  0  0  0
   45.8620   32.7800   47.0800 C   0  0  0  0  0  0  0  0  0  0  0  0
   46.4710   31.6370   47.4160 N   0  0  0  0  0  0  0  0  0  0  0  0
   47.1510   31.1420   46.3740 C   0  0  0  0  0  0  0  0  0  0  0  0
   47.9340   29.9980   46.2170 C   0  0  0  0  0  0  0  0  0  0  0  0
   48.4800   29.8080   45.0100 N   0  0  0  0  0  0  0  0  0  0  0  0
   48.2710   30.6850   44.0100 C   0  0  0  0  0  0  0  0  0  0  0  0
   47.5100   31.8150   44.1320 N   0  0  0  0  0  0  0  0  0  0  0  0
   46.9550   32.0220   45.3390 C   0  0  0  0  0  0  0  0  0  0  0  0
   48.8840   30.4630   42.6660 C   0  0  0  0  0  0  0  0  0  0  0  0
   49.1440   31.6830   42.0620 F   0  0  0  0  0  0  0  0  0  0  0  0
   48.0230   29.7760   41.8310 F   0  0  0  0  0  0  0  0  0  0  0  0
   50.0910   29.8330   42.8090 F   0  0  0  0  0  0  0  0  0  0  0  0
   48.1610   28.8830   47.5950 S   0  0  0  0  0  0  0  0  0  0  0  0
   43.6824   36.7295   44.7885 H   0  0  0  0  0  0  0  0  0  0  0  0
   44.8245   36.9905   42.5900 H   0  0  0  0  0  0  0  0  0  0  0  0
   46.6190   35.3277   41.9359 H   0  0  0  0  0  0  0  0  0  0  0  0
   45.2357   33.4028   47.7357 H   0  0  0  0  0  0  0  0  0  0  0  0
   48.0203   29.5740   48.7696 H   0  0  0  0  0  0  0  0  0  0  0  0
  1  6  2  0
  2  1  1  0
  3  2  2  0
  3  4  1  0
  4  5  2  0
  5  6  1  0
  5  7  1  0
  7  8  1  0
  8  9  2  0
 10  9  1  0
 11 10  2  0
 11 20  1  0
 12 11  1  0
 13 14  1  0
 13 12  2  0
 14 15  2  0
 15  7  1  0
 15 10  1  0
 16 19  1  0
 16 13  1  0
 17 16  1  0
 18 16  1  0
  1 21  1  0
  2 22  1  0
  3 23  1  0
  8 24  1  0
 20 25  1  0
M  ISO  5  21  14  22  14  23  14  24  14  25  11
M  END
>  <minimizedAffinity>  (1) 
-4.85012102

>  <minimizedRMSD>  (1) 
1.49641192

$$$$
