
     RDKit          3D

 38 41  0  0  0  0  0  0  0  0999 V2000
   44.4550   35.9190   44.6470 C   0  0  0  0  0  0  0  0  0  0  0  0
   44.9650   36.3500   43.4260 C   0  0  0  0  0  0  0  0  0  0  0  0
   45.9830   35.5860   42.8190 C   0  0  0  0  0  0  0  0  0  0  0  0
   46.4220   34.4660   43.4460 N   0  0  0  0  0  0  0  0  0  0  0  0
   45.8850   34.0910   44.6420 C   0  0  0  0  0  0  0  0  0  0  0  0
   44.9160   34.7980   45.2430 N   0  0  0  0  0  0  0  0  0  0  0  0
   46.4270   32.8840   45.2160 N   0  0  0  0  0  0  0  0  0  0  0  0
   46.2860   32.3740   46.4500 C   0  0  0  0  0  0  0  0  0  0  0  0
   46.9800   31.2280   46.5110 N   0  0  0  0  0  0  0  0  0  0  0  0
   47.5720   30.9840   45.3320 C   0  0  0  0  0  0  0  0  0  0  0  0
   48.3870   29.9490   44.8820 C   0  0  0  0  0  0  0  0  0  0  0  0
   48.8130   30.0270   43.6120 N   0  0  0  0  0  0  0  0  0  0  0  0
   48.4570   31.0620   42.8320 C   0  0  0  0  0  0  0  0  0  0  0  0
   47.6620   32.0890   43.2420 N   0  0  0  0  0  0  0  0  0  0  0  0
   47.2210   32.0350   44.5120 C   0  0  0  0  0  0  0  0  0  0  0  0
   48.7180   28.8890   45.7710 N   0  0  0  0  0  0  0  0  0  0  0  0
   47.9680   27.6570   45.8750 C   0  0  0  0  0  0  0  0  0  0  0  0
   47.5830   27.2970   47.2770 C   0  0  0  0  0  0  0  0  0  0  0  0
   48.0520   28.2200   48.2650 N   0  0  0  0  0  0  0  0  0  0  0  0
   49.4270   28.6080   48.1170 C   0  0  0  0  0  0  0  0  0  0  0  0
   49.8380   28.8860   46.6900 C   0  0  0  0  0  0  0  0  0  0  0  0
   48.9440   31.1340   41.4210 C   0  0  0  0  0  0  0  0  0  0  0  0
   48.8900   32.4550   40.9780 F   0  0  0  0  0  0  0  0  0  0  0  0
   48.1790   30.3780   40.5800 F   0  0  0  0  0  0  0  0  0  0  0  0
   50.2890   30.7920   41.3810 F   0  0  0  0  0  0  0  0  0  0  0  0
   43.6611   36.5025   45.1362 H   0  0  0  0  0  0  0  0  0  0  0  0
   44.5836   37.2636   42.9465 H   0  0  0  0  0  0  0  0  0  0  0  0
   46.4134   35.8927   41.8543 H   0  0  0  0  0  0  0  0  0  0  0  0
   45.7023   32.8191   47.2692 H   0  0  0  0  0  0  0  0  0  0  0  0
   47.0491   27.7596   45.2791 H   0  0  0  0  0  0  0  0  0  0  0  0
   48.6224   26.8529   45.5073 H   0  0  0  0  0  0  0  0  0  0  0  0
   46.4852   27.2568   47.3347 H   0  0  0  0  0  0  0  0  0  0  0  0
   48.0547   26.3280   47.4976 H   0  0  0  0  0  0  0  0  0  0  0  0
   47.4713   29.0691   48.2126 H   0  0  0  0  0  0  0  0  0  0  0  0
   49.5945   29.5199   48.7089 H   0  0  0  0  0  0  0  0  0  0  0  0
   50.0356   27.7597   48.4635 H   0  0  0  0  0  0  0  0  0  0  0  0
   50.5504   28.1103   46.3725 H   0  0  0  0  0  0  0  0  0  0  0  0
   50.2876   29.8896   46.6656 H   0  0  0  0  0  0  0  0  0  0  0  0
  1  6  2  0
  2  1  1  0
  3  2  2  0
  3  4  1  0
  4  5  2  0
  5  7  1  0
  5  6  1  0
  7  8  1  0
  8  9  2  0
 10  9  1  0
 11 10  2  0
 11 16  1  0
 12 11  1  0
 13 14  1  0
 13 12  2  0
 14 15  2  0
 15  7  1  0
 15 10  1  0
 16 17  1  0
 16 21  1  0
 17 18  1  0
 18 19  1  0
 20 19  1  0
 21 20  1  0
 22 13  1  0
 23 22  1  0
 24 22  1  0
 25 22  1  0
  1 26  1  0
  2 27  1  0
  3 28  1  0
  8 29  1  0
 17 30  1  0
 17 31  1  0
 18 32  1  0
 18 33  1  0
 19 34  1  0
 20 35  1  0
 20 36  1  0
 21 37  1  0
 21 38  1  0
M  ISO  8  26  14  27  14  28  14  29  14  30  13  31  13  32  13  33  13
M  ISO  5  34   5  35  13  36  13  37  13  38  13
M  END
>  <minimizedAffinity>  (1) 
-4.97345591

>  <minimizedRMSD>  (1) 
2.97269034

$$$$
