
     RDKit          3D

 40 43  0  0  0  0  0  0  0  0999 V2000
   44.9070   35.5800   45.0290 C   0  0  0  0  0  0  0  0  0  0  0  0
   44.1310   35.7420   43.8570 C   0  0  0  0  0  0  0  0  0  0  0  0
   44.1480   34.7120   42.9340 C   0  0  0  0  0  0  0  0  0  0  0  0
   44.8860   33.5920   43.1560 N   0  0  0  0  0  0  0  0  0  0  0  0
   45.6270   33.4610   44.2950 C   0  0  0  0  0  0  0  0  0  0  0  0
   45.6300   34.4560   45.2210 N   0  0  0  0  0  0  0  0  0  0  0  0
   46.4140   32.2660   44.5310 C   0  0  0  0  0  0  0  0  0  0  0  0
   47.0420   31.4650   43.5730 C   0  0  0  0  0  0  0  0  0  0  0  0
   47.6810   30.4390   44.1710 N   0  0  0  0  0  0  0  0  0  0  0  0
   47.4490   30.6010   45.5110 C   0  0  0  0  0  0  0  0  0  0  0  0
   46.6850   31.7030   45.7240 N   0  0  0  0  0  0  0  0  0  0  0  0
   47.9530   29.7190   46.5220 N   0  0  0  0  0  0  0  0  0  0  0  0
   47.3490   28.4950   46.4940 C   0  0  0  0  0  0  0  0  0  0  0  0
   47.8970   27.7230   47.4970 C   0  0  0  0  0  0  0  0  0  0  0  0
   48.8220   28.4970   48.1120 N   0  0  0  0  0  0  0  0  0  0  0  0
   48.8510   29.6950   47.5210 C   0  0  0  0  0  0  0  0  0  0  0  0
   46.2210   32.2130   47.0000 C   0  0  0  0  0  0  0  0  0  0  0  0
   46.0270   31.1640   47.9350 F   0  0  0  0  0  0  0  0  0  0  0  0
   45.0330   32.9230   46.8850 F   0  0  0  0  0  0  0  0  0  0  0  0
   47.1920   33.0230   47.5770 F   0  0  0  0  0  0  0  0  0  0  0  0
   43.3630   34.8850   41.7580 N   0  0  0  0  0  0  0  0  0  0  0  0
   42.0700   35.2600   41.7000 C   0  0  0  0  0  0  0  0  0  0  0  0
   41.4610   35.3790   40.4750 C   0  0  0  0  0  0  0  0  0  0  0  0
   42.1160   35.1320   39.2930 C   0  0  0  0  0  0  0  0  0  0  0  0
   41.5570   35.2410   38.1830 O   0  0  0  0  0  0  0  0  0  0  0  0
   43.4110   34.7580   39.3930 N   0  0  0  0  0  0  0  0  0  0  0  0
   44.0130   34.6410   40.6080 C   0  0  0  0  0  0  0  0  0  0  0  0
   45.2310   34.2810   40.5420 O   0  0  0  0  0  0  0  0  0  0  0  0
   40.0460   35.7890   40.4140 C   0  0  0  0  0  0  0  0  0  0  0  0
   44.9213   36.3752   45.7889 H   0  0  0  0  0  0  0  0  0  0  0  0
   43.5371   36.6520   43.6865 H   0  0  0  0  0  0  0  0  0  0  0  0
   47.0184   31.6454   42.4882 H   0  0  0  0  0  0  0  0  0  0  0  0
   46.5620   28.1793   45.7933 H   0  0  0  0  0  0  0  0  0  0  0  0
   47.6346   26.6846   47.7475 H   0  0  0  0  0  0  0  0  0  0  0  0
   49.5070   30.5303   47.8074 H   0  0  0  0  0  0  0  0  0  0  0  0
   41.5090   35.4683   42.6230 H   0  0  0  0  0  0  0  0  0  0  0  0
   43.9496   34.5588   38.5380 H   0  0  0  0  0  0  0  0  0  0  0  0
   39.6529   35.9029   41.4350 H   0  0  0  0  0  0  0  0  0  0  0  0
   39.9647   36.7476   39.8807 H   0  0  0  0  0  0  0  0  0  0  0  0
   39.4648   35.0223   39.8807 H   0  0  0  0  0  0  0  0  0  0  0  0
  1  6  2  0
  2  1  1  0
  3  4  1  0
  3  2  2  0
  4  5  2  0
  5  7  1  0
  5  6  1  0
  7 11  1  0
  8  9  1  0
  8  7  2  0
  9 10  2  0
 10 11  1  0
 10 12  1  0
 11 17  1  0
 12 16  1  0
 13 12  1  0
 13 14  2  0
 14 15  1  0
 16 15  2  0
 17 20  1  0
 17 18  1  0
 19 17  1  0
 21  3  1  0
 22 21  1  0
 23 22  2  0
 24 26  1  0
 24 23  1  0
 25 24  2  0
 26 27  1  0
 27 21  1  0
 28 27  2  0
 29 23  1  0
  1 30  1  0
  2 31  1  0
  8 32  1  0
 13 33  1  0
 14 34  1  0
 16 35  1  0
 22 36  1  0
 26 37  1  0
 29 38  1  0
 29 39  1  0
 29 40  1  0
M  ISO  8  30  14  31  14  32  14  33  14  34  14  35  14  36  14  37   9
M  ISO  3  38   8  39   8  40   8
M  END
>  <minimizedAffinity>  (1) 
-6.50226927

>  <minimizedRMSD>  (1) 
0.862311006

$$$$
