
     RDKit          3D

 40 43  0  0  0  0  0  0  0  0999 V2000
   44.4690   36.0650   44.2610 C   0  0  0  0  0  0  0  0  0  0  0  0
   45.1930   36.0950   43.0610 C   0  0  0  0  0  0  0  0  0  0  0  0
   46.1890   35.1180   42.8510 C   0  0  0  0  0  0  0  0  0  0  0  0
   46.4010   34.1970   43.8140 N   0  0  0  0  0  0  0  0  0  0  0  0
   45.6700   34.1980   44.9790 C   0  0  0  0  0  0  0  0  0  0  0  0
   44.7150   35.1210   45.1990 N   0  0  0  0  0  0  0  0  0  0  0  0
   46.0060   33.1630   45.9140 N   0  0  0  0  0  0  0  0  0  0  0  0
   45.6380   33.0220   47.1890 C   0  0  0  0  0  0  0  0  0  0  0  0
   46.2000   31.9090   47.6590 N   0  0  0  0  0  0  0  0  0  0  0  0
   46.9280   31.3130   46.7180 C   0  0  0  0  0  0  0  0  0  0  0  0
   47.6900   30.1440   46.7230 C   0  0  0  0  0  0  0  0  0  0  0  0
   48.3000   29.8500   45.5580 N   0  0  0  0  0  0  0  0  0  0  0  0
   48.1740   30.6380   44.4710 C   0  0  0  0  0  0  0  0  0  0  0  0
   47.4340   31.7820   44.4540 N   0  0  0  0  0  0  0  0  0  0  0  0
   46.8070   32.1080   45.6090 C   0  0  0  0  0  0  0  0  0  0  0  0
   48.8550   30.2950   43.1790 C   0  0  0  0  0  0  0  0  0  0  0  0
   48.7710   31.3470   42.3040 F   0  0  0  0  0  0  0  0  0  0  0  0
   48.2280   29.1940   42.5980 F   0  0  0  0  0  0  0  0  0  0  0  0
   50.1740   30.0620   43.4030 F   0  0  0  0  0  0  0  0  0  0  0  0
   47.8260   29.2900   47.9190 C   0  0  0  0  0  0  0  0  0  0  0  0
   49.0250   29.6120   48.6610 N   0  0  0  0  0  0  0  0  0  0  0  0
   49.4230   30.8410   49.0300 C   0  0  0  0  0  0  0  0  0  0  0  0
   50.5710   31.1140   49.7410 C   0  0  0  0  0  0  0  0  0  0  0  0
   50.9270   32.5220   50.1040 C   0  0  0  0  0  0  0  0  0  0  0  0
   51.3630   30.0460   50.0970 C   0  0  0  0  0  0  0  0  0  0  0  0
   52.4130   30.3180   50.7500 O   0  0  0  0  0  0  0  0  0  0  0  0
   51.0040   28.7940   49.7480 N   0  0  0  0  0  0  0  0  0  0  0  0
   49.8700   28.6230   49.0560 C   0  0  0  0  0  0  0  0  0  0  0  0
   49.6200   27.4150   48.7770 O   0  0  0  0  0  0  0  0  0  0  0  0
   43.6896   36.8197   44.4429 H   0  0  0  0  0  0  0  0  0  0  0  0
   44.9892   36.8629   42.3002 H   0  0  0  0  0  0  0  0  0  0  0  0
   46.7795   35.1074   41.9230 H   0  0  0  0  0  0  0  0  0  0  0  0
   44.9854   33.7047   47.7529 H   0  0  0  0  0  0  0  0  0  0  0  0
   46.9512   29.4411   48.5685 H   0  0  0  0  0  0  0  0  0  0  0  0
   47.8912   28.2419   47.5916 H   0  0  0  0  0  0  0  0  0  0  0  0
   48.7861   31.6909   48.7437 H   0  0  0  0  0  0  0  0  0  0  0  0
   50.9526   32.6231   51.1990 H   0  0  0  0  0  0  0  0  0  0  0  0
   51.9158   32.7686   49.6898 H   0  0  0  0  0  0  0  0  0  0  0  0
   50.1743   33.2089   49.6898 H   0  0  0  0  0  0  0  0  0  0  0  0
   51.5889   27.9870   50.0078 H   0  0  0  0  0  0  0  0  0  0  0  0
  1  6  2  0
  2  1  1  0
  3  2  2  0
  3  4  1  0
  4  5  2  0
  5  6  1  0
  5  7  1  0
  7  8  1  0
  8  9  2  0
 10 11  2  0
 10  9  1  0
 11 20  1  0
 12 11  1  0
 13 12  2  0
 14 13  1  0
 14 15  2  0
 15  7  1  0
 15 10  1  0
 16 19  1  0
 16 13  1  0
 17 16  1  0
 18 16  1  0
 20 21  1  0
 21 22  1  0
 21 28  1  0
 22 23  2  0
 23 25  1  0
 23 24  1  0
 25 26  2  0
 27 25  1  0
 28 27  1  0
 29 28  2  0
  1 30  1  0
  2 31  1  0
  3 32  1  0
  8 33  1  0
 20 34  1  0
 20 35  1  0
 22 36  1  0
 24 37  1  0
 24 38  1  0
 24 39  1  0
 27 40  1  0
M  ISO  8  30  14  31  14  32  14  33  14  34   8  35   8  36  14  37   8
M  ISO  3  38   8  39   8  40   9
M  END
>  <minimizedAffinity>  (1) 
-6.00734472

>  <minimizedRMSD>  (1) 
0.590664864

$$$$
