
     RDKit          3D

 41 45  0  0  0  0  0  0  0  0999 V2000
   44.4650   35.8220   44.9010 C   0  0  0  0  0  0  0  0  0  0  0  0
   44.9770   35.9280   43.6080 C   0  0  0  0  0  0  0  0  0  0  0  0
   45.9250   34.9810   43.2150 C   0  0  0  0  0  0  0  0  0  0  0  0
   46.3040   34.0210   44.0820 N   0  0  0  0  0  0  0  0  0  0  0  0
   45.7780   33.9530   45.3380 C   0  0  0  0  0  0  0  0  0  0  0  0
   44.8620   34.8460   45.7530 N   0  0  0  0  0  0  0  0  0  0  0  0
   46.2670   32.8810   46.1610 N   0  0  0  0  0  0  0  0  0  0  0  0
   46.0870   32.6610   47.4690 C   0  0  0  0  0  0  0  0  0  0  0  0
   46.7280   31.5420   47.7970 N   0  0  0  0  0  0  0  0  0  0  0  0
   47.3300   31.0160   46.7210 C   0  0  0  0  0  0  0  0  0  0  0  0
   48.1150   29.8680   46.5350 C   0  0  0  0  0  0  0  0  0  0  0  0
   48.5530   29.6620   45.2930 N   0  0  0  0  0  0  0  0  0  0  0  0
   48.2590   30.5040   44.2770 C   0  0  0  0  0  0  0  0  0  0  0  0
   47.4990   31.6250   44.4320 N   0  0  0  0  0  0  0  0  0  0  0  0
   47.0300   31.8770   45.6800 C   0  0  0  0  0  0  0  0  0  0  0  0
   48.7610   30.2520   42.8920 C   0  0  0  0  0  0  0  0  0  0  0  0
   48.6940   31.4020   42.1450 F   0  0  0  0  0  0  0  0  0  0  0  0
   47.9580   29.3030   42.2680 F   0  0  0  0  0  0  0  0  0  0  0  0
   50.0620   29.8600   42.9330 F   0  0  0  0  0  0  0  0  0  0  0  0
   48.4160   28.9700   47.6650 C   0  0  0  0  0  0  0  0  0  0  0  0
   49.8170   29.1170   48.0150 N   0  0  0  0  0  0  0  0  0  0  0  0
   50.7450   29.2090   47.0430 C   0  0  0  0  0  0  0  0  0  0  0  0
   51.9580   29.3380   47.6150 N   0  0  0  0  0  0  0  0  0  0  0  0
   51.7750   29.3260   48.9550 C   0  0  0  0  0  0  0  0  0  0  0  0
   52.5790   29.4140   50.0910 C   0  0  0  0  0  0  0  0  0  0  0  0
   53.8330   29.5430   49.8810 O   0  0  0  0  0  0  0  0  0  0  0  0
   52.0660   29.3670   51.3340 N   0  0  0  0  0  0  0  0  0  0  0  0
   50.7250   29.2280   51.5330 C   0  0  0  0  0  0  0  0  0  0  0  0
   50.3460   29.1960   52.9010 N   0  0  0  0  0  0  0  0  0  0  0  0
   49.9010   29.1370   50.4490 N   0  0  0  0  0  0  0  0  0  0  0  0
   50.4290   29.1870   49.2110 C   0  0  0  0  0  0  0  0  0  0  0  0
   43.7160   36.5531   45.2395 H   0  0  0  0  0  0  0  0  0  0  0  0
   44.6474   36.7252   42.9255 H   0  0  0  0  0  0  0  0  0  0  0  0
   46.3594   35.0182   42.2051 H   0  0  0  0  0  0  0  0  0  0  0  0
   45.5082   33.2965   48.1554 H   0  0  0  0  0  0  0  0  0  0  0  0
   47.7887   29.2378   48.5280 H   0  0  0  0  0  0  0  0  0  0  0  0
   48.2075   27.9278   47.3817 H   0  0  0  0  0  0  0  0  0  0  0  0
   50.5455   29.1831   45.9615 H   0  0  0  0  0  0  0  0  0  0  0  0
   52.6955   29.4370   52.1463 H   0  0  0  0  0  0  0  0  0  0  0  0
   49.3539   29.0938   53.1583 H   0  0  0  0  0  0  0  0  0  0  0  0
   51.0632   29.2750   53.6361 H   0  0  0  0  0  0  0  0  0  0  0  0
  1  6  2  0
  2  1  1  0
  3  2  2  0
  3  4  1  0
  4  5  2  0
  5  6  1  0
  5  7  1  0
  7  8  1  0
  8  9  2  0
 10  9  1  0
 11 10  2  0
 11 20  1  0
 12 11  1  0
 13 14  1  0
 13 12  2  0
 14 15  2  0
 15  7  1  0
 15 10  1  0
 16 19  1  0
 16 13  1  0
 17 16  1  0
 18 16  1  0
 20 21  1  0
 21 31  1  0
 22 23  2  0
 22 21  1  0
 23 24  1  0
 24 31  2  0
 24 25  1  0
 25 27  1  0
 26 25  2  0
 27 28  1  0
 28 29  1  0
 30 28  2  0
 31 30  1  0
  1 32  1  0
  2 33  1  0
  3 34  1  0
  8 35  1  0
 20 36  1  0
 20 37  1  0
 22 38  1  0
 27 39  1  0
 29 40  1  0
 29 41  1  0
M  ISO  8  32  14  33  14  34  14  35  14  36   8  37   8  38  14  39   9
M  END
>  <minimizedAffinity>  (1) 
-6.32730103

>  <minimizedRMSD>  (1) 
2.57213068

$$$$
