
     RDKit          3D

 43 46  0  0  0  0  0  0  0  0999 V2000
   44.4190   36.0580   44.4550 C   0  0  0  0  0  0  0  0  0  0  0  0
   45.0710   36.1200   43.2050 C   0  0  0  0  0  0  0  0  0  0  0  0
   46.0470   35.1500   42.9140 C   0  0  0  0  0  0  0  0  0  0  0  0
   46.3140   34.2050   43.8400 N   0  0  0  0  0  0  0  0  0  0  0  0
   45.6610   34.1720   45.0460 C   0  0  0  0  0  0  0  0  0  0  0  0
   44.7230   35.0970   45.3410 N   0  0  0  0  0  0  0  0  0  0  0  0
   46.0640   33.1240   45.9200 N   0  0  0  0  0  0  0  0  0  0  0  0
   45.7770   32.9620   47.2290 C   0  0  0  0  0  0  0  0  0  0  0  0
   46.3850   31.8420   47.6590 N   0  0  0  0  0  0  0  0  0  0  0  0
   47.0600   31.2830   46.6450 C   0  0  0  0  0  0  0  0  0  0  0  0
   47.8490   30.1330   46.5700 C   0  0  0  0  0  0  0  0  0  0  0  0
   48.3910   29.8610   45.3780 N   0  0  0  0  0  0  0  0  0  0  0  0
   48.1750   30.6710   44.3150 C   0  0  0  0  0  0  0  0  0  0  0  0
   47.4130   31.7900   44.3710 N   0  0  0  0  0  0  0  0  0  0  0  0
   46.8490   32.0950   45.5640 C   0  0  0  0  0  0  0  0  0  0  0  0
   48.7980   30.3590   42.9860 C   0  0  0  0  0  0  0  0  0  0  0  0
   48.6780   31.4520   42.1520 F   0  0  0  0  0  0  0  0  0  0  0  0
   48.1780   29.2810   42.4070 F   0  0  0  0  0  0  0  0  0  0  0  0
   50.1520   30.1480   43.1610 F   0  0  0  0  0  0  0  0  0  0  0  0
   48.1020   29.3050   47.7510 C   0  0  0  0  0  0  0  0  0  0  0  0
   49.2850   29.9390   48.4410 C   0  0  0  0  0  0  0  0  0  0  0  0
   50.4410   29.0010   48.6070 C   0  0  0  0  0  0  0  0  0  0  0  0
   51.6540   29.8610   48.8480 C   0  0  0  0  0  0  0  0  0  0  0  0
   51.4930   30.9210   49.8730 C   0  0  0  0  0  0  0  0  0  0  0  0
   50.1380   31.5040   50.0400 C   0  0  0  0  0  0  0  0  0  0  0  0
   48.9980   30.5250   49.7810 C   0  0  0  0  0  0  0  0  0  0  0  0
   43.6526   36.8061   44.7061 H   0  0  0  0  0  0  0  0  0  0  0  0
   44.8224   36.9065   42.4772 H   0  0  0  0  0  0  0  0  0  0  0  0
   46.5812   35.1613   41.9525 H   0  0  0  0  0  0  0  0  0  0  0  0
   45.1529   33.6312   47.8394 H   0  0  0  0  0  0  0  0  0  0  0  0
   47.2249   29.3037   48.4148 H   0  0  0  0  0  0  0  0  0  0  0  0
   48.3002   28.2574   47.4805 H   0  0  0  0  0  0  0  0  0  0  0  0
   49.5410   30.7557   47.7499 H   0  0  0  0  0  0  0  0  0  0  0  0
   50.2702   28.3347   49.4654 H   0  0  0  0  0  0  0  0  0  0  0  0
   50.5715   28.3670   47.7176 H   0  0  0  0  0  0  0  0  0  0  0  0
   52.4770   29.2042   49.1663 H   0  0  0  0  0  0  0  0  0  0  0  0
   51.8454   30.3849   47.8999 H   0  0  0  0  0  0  0  0  0  0  0  0
   51.7904   30.4925   50.8415 H   0  0  0  0  0  0  0  0  0  0  0  0
   52.1182   31.7542   49.5194 H   0  0  0  0  0  0  0  0  0  0  0  0
   50.0468   31.8739   51.0719 H   0  0  0  0  0  0  0  0  0  0  0  0
   50.0439   32.3030   49.2898 H   0  0  0  0  0  0  0  0  0  0  0  0
   48.0318   31.0508   49.7735 H   0  0  0  0  0  0  0  0  0  0  0  0
   48.9323   29.7535   50.5623 H   0  0  0  0  0  0  0  0  0  0  0  0
  1  6  2  0
  2  1  1  0
  3  2  2  0
  3  4  1  0
  4  5  2  0
  5  6  1  0
  5  7  1  0
  7  8  1  0
  8  9  2  0
 10  9  1  0
 11 10  2  0
 11 20  1  0
 12 11  1  0
 13 14  1  0
 13 12  2  0
 14 15  2  0
 15  7  1  0
 15 10  1  0
 16 19  1  0
 16 13  1  0
 17 16  1  0
 18 16  1  0
 20 21  1  0
 21 22  1  0
 21 26  1  0
 22 23  1  0
 23 24  1  0
 24 25  1  0
 26 25  1  0
  1 27  1  0
  2 28  1  0
  3 29  1  0
  8 30  1  0
 20 31  1  0
 20 32  1  0
 21 33  1  0
 22 34  1  0
 22 35  1  0
 23 36  1  0
 23 37  1  0
 24 38  1  0
 24 39  1  0
 25 40  1  0
 25 41  1  0
 26 42  1  0
 26 43  1  0
M  ISO  8  27  14  28  14  29  14  30  14  31   8  32   8  33  13  34  13
M  ISO  8  35  13  36  13  37  13  38  13  39  13  40  13  41  13  42  13
M  ISO  1  43  13
M  END
>  <minimizedAffinity>  (1) 
-5.84788847

>  <minimizedRMSD>  (1) 
0.29220438

$$$$
