
     RDKit          3D

 34 37  0  0  0  0  0  0  0  0999 V2000
   44.4450   36.0260   44.5030 C   0  0  0  0  0  0  0  0  0  0  0  0
   45.0720   36.0900   43.2580 C   0  0  0  0  0  0  0  0  0  0  0  0
   46.0380   35.1200   42.9620 C   0  0  0  0  0  0  0  0  0  0  0  0
   46.3180   34.1780   43.8800 N   0  0  0  0  0  0  0  0  0  0  0  0
   45.6810   34.1460   45.0970 C   0  0  0  0  0  0  0  0  0  0  0  0
   44.7530   35.0700   45.3930 N   0  0  0  0  0  0  0  0  0  0  0  0
   46.0660   33.0900   45.9750 N   0  0  0  0  0  0  0  0  0  0  0  0
   45.7520   32.8940   47.2640 C   0  0  0  0  0  0  0  0  0  0  0  0
   46.3340   31.7710   47.6720 N   0  0  0  0  0  0  0  0  0  0  0  0
   47.0280   31.2200   46.6730 C   0  0  0  0  0  0  0  0  0  0  0  0
   47.8030   30.0550   46.5860 C   0  0  0  0  0  0  0  0  0  0  0  0
   48.3650   29.8100   45.3970 N   0  0  0  0  0  0  0  0  0  0  0  0
   48.1880   30.6420   44.3540 C   0  0  0  0  0  0  0  0  0  0  0  0
   47.4410   31.7800   44.4070 N   0  0  0  0  0  0  0  0  0  0  0  0
   46.8610   32.0530   45.5970 C   0  0  0  0  0  0  0  0  0  0  0  0
   48.8220   30.3560   43.0180 C   0  0  0  0  0  0  0  0  0  0  0  0
   48.6440   31.4170   42.1680 F   0  0  0  0  0  0  0  0  0  0  0  0
   48.2010   29.2530   42.4370 F   0  0  0  0  0  0  0  0  0  0  0  0
   50.1530   30.1510   43.1810 F   0  0  0  0  0  0  0  0  0  0  0  0
   47.9630   29.1460   47.7340 C   0  0  0  0  0  0  0  0  0  0  0  0
   49.0010   29.5910   48.7000 C   0  0  0  0  0  0  0  0  0  0  0  0
   50.3580   29.3690   48.7910 C   0  0  0  0  0  0  0  0  0  0  0  0
   50.8360   30.0090   49.8740 N   0  0  0  0  0  0  0  0  0  0  0  0
   49.8110   30.6400   50.4780 C   0  0  0  0  0  0  0  0  0  0  0  0
   48.7020   30.3820   49.7610 N   0  0  0  0  0  0  0  0  0  0  0  0
   43.6819   36.7753   44.7604 H   0  0  0  0  0  0  0  0  0  0  0  0
   44.8160   36.8765   42.5328 H   0  0  0  0  0  0  0  0  0  0  0  0
   46.5596   35.1286   41.9936 H   0  0  0  0  0  0  0  0  0  0  0  0
   45.1199   33.5512   47.8792 H   0  0  0  0  0  0  0  0  0  0  0  0
   47.0006   29.0794   48.2626 H   0  0  0  0  0  0  0  0  0  0  0  0
   48.2869   28.1734   47.3350 H   0  0  0  0  0  0  0  0  0  0  0  0
   50.9546   28.7657   48.0909 H   0  0  0  0  0  0  0  0  0  0  0  0
   49.8696   31.2532   51.3894 H   0  0  0  0  0  0  0  0  0  0  0  0
   47.7606   30.7346   49.9855 H   0  0  0  0  0  0  0  0  0  0  0  0
  1  6  2  0
  2  1  1  0
  3  2  2  0
  3  4  1  0
  4  5  2  0
  5  6  1  0
  5  7  1  0
  7  8  1  0
  8  9  2  0
 10  9  1  0
 11 10  2  0
 11 20  1  0
 12 11  1  0
 13 14  1  0
 13 12  2  0
 14 15  2  0
 15  7  1  0
 15 10  1  0
 16 19  1  0
 16 13  1  0
 17 16  1  0
 18 16  1  0
 20 21  1  0
 21 22  2  0
 21 25  1  0
 22 23  1  0
 23 24  2  0
 25 24  1  0
  1 26  1  0
  2 27  1  0
  3 28  1  0
  8 29  1  0
 20 30  1  0
 20 31  1  0
 22 32  1  0
 24 33  1  0
 25 34  1  0
M  ISO  8  26  14  27  14  28  14  29  14  30   8  31   8  32  14  33  14
M  ISO  1  34   9
M  END
>  <minimizedAffinity>  (1) 
-5.69320011

>  <minimizedRMSD>  (1) 
0.298326194

$$$$
