
     RDKit          3D

 34 36  0  0  0  0  0  0  0  0999 V2000
   44.5000   36.0480   44.5150 C   0  0  0  0  0  0  0  0  0  0  0  0
   45.2200   36.1450   43.3060 C   0  0  0  0  0  0  0  0  0  0  0  0
   46.1810   35.1610   43.0140 C   0  0  0  0  0  0  0  0  0  0  0  0
   46.3800   34.1680   43.8940 N   0  0  0  0  0  0  0  0  0  0  0  0
   45.6620   34.1000   45.0650 C   0  0  0  0  0  0  0  0  0  0  0  0
   44.7320   35.0330   45.3710 N   0  0  0  0  0  0  0  0  0  0  0  0
   45.9680   32.9890   45.9180 N   0  0  0  0  0  0  0  0  0  0  0  0
   45.5760   32.7440   47.1840 C   0  0  0  0  0  0  0  0  0  0  0  0
   46.1150   31.5800   47.5550 N   0  0  0  0  0  0  0  0  0  0  0  0
   46.8450   31.0600   46.5750 C   0  0  0  0  0  0  0  0  0  0  0  0
   47.5820   29.8800   46.4830 C   0  0  0  0  0  0  0  0  0  0  0  0
   48.2040   29.6720   45.3020 N   0  0  0  0  0  0  0  0  0  0  0  0
   48.1090   30.5500   44.2910 C   0  0  0  0  0  0  0  0  0  0  0  0
   47.3900   31.7150   44.3570 N   0  0  0  0  0  0  0  0  0  0  0  0
   46.7500   31.9570   45.5340 C   0  0  0  0  0  0  0  0  0  0  0  0
   48.7940   30.3150   42.9800 C   0  0  0  0  0  0  0  0  0  0  0  0
   48.6750   31.4060   42.1650 F   0  0  0  0  0  0  0  0  0  0  0  0
   48.2170   29.2260   42.3350 F   0  0  0  0  0  0  0  0  0  0  0  0
   50.1200   30.1060   43.1880 F   0  0  0  0  0  0  0  0  0  0  0  0
   47.6890   28.9150   47.5900 C   0  0  0  0  0  0  0  0  0  0  0  0
   48.8440   29.0890   48.4070 N   0  0  0  0  0  0  0  0  0  0  0  0
   49.2420   30.2410   49.1290 C   0  0  0  0  0  0  0  0  0  0  0  0
   48.2530   30.7190   49.8470 N   0  0  0  0  0  0  0  0  0  0  0  0
   50.5910   30.7220   49.0110 N   0  0  0  0  0  0  0  0  0  0  0  0
   48.4320   31.5600   50.4130 H   0  0  0  0  0  0  0  0  0  0  0  0
   43.7429   36.8070   44.7613 H   0  0  0  0  0  0  0  0  0  0  0  0
   45.0336   36.9730   42.6063 H   0  0  0  0  0  0  0  0  0  0  0  0
   46.7600   35.2046   42.0797 H   0  0  0  0  0  0  0  0  0  0  0  0
   44.9294   33.3863   47.7999 H   0  0  0  0  0  0  0  0  0  0  0  0
   46.7976   29.0194   48.2260 H   0  0  0  0  0  0  0  0  0  0  0  0
   47.7721   27.9178   47.1332 H   0  0  0  0  0  0  0  0  0  0  0  0
   49.4686   28.2734   48.4819 H   0  0  0  0  0  0  0  0  0  0  0  0
   50.8868   31.5590   49.5332 H   0  0  0  0  0  0  0  0  0  0  0  0
   51.2621   30.2297   48.4042 H   0  0  0  0  0  0  0  0  0  0  0  0
  1  6  2  0
  2  1  1  0
  3  2  2  0
  3  4  1  0
  4  5  2  0
  5  6  1  0
  5  7  1  0
  7  8  1  0
  8  9  2  0
 10  9  1  0
 11 10  2  0
 11 20  1  0
 12 11  1  0
 13 14  1  0
 13 12  2  0
 14 15  2  0
 15  7  1  0
 15 10  1  0
 16 19  1  0
 16 13  1  0
 17 16  1  0
 18 16  1  0
 20 21  1  0
 21 22  1  0
 22 23  2  0
 23 25  1  0
 24 22  1  0
  1 26  1  0
  2 27  1  0
  3 28  1  0
  8 29  1  0
 20 30  1  0
 20 31  1  0
 21 32  1  0
 24 33  1  0
 24 34  1  0
M  ISO  6  26  14  27  14  28  14  29  14  30   8  31   8
M  END
>  <minimizedAffinity>  (1) 
-5.68990564

>  <minimizedRMSD>  (1) 
0.320871085

$$$$
