
     RDKit          3D

 42 45  0  0  0  0  0  0  0  0999 V2000
   44.4580   35.9110   44.5560 C   0  0  0  0  0  0  0  0  0  0  0  0
   45.0940   36.0070   43.2980 C   0  0  0  0  0  0  0  0  0  0  0  0
   46.0940   35.0670   42.9710 C   0  0  0  0  0  0  0  0  0  0  0  0
   46.3920   34.1150   43.8910 N   0  0  0  0  0  0  0  0  0  0  0  0
   45.7590   34.0510   45.0990 C   0  0  0  0  0  0  0  0  0  0  0  0
   44.8010   34.9440   45.4210 N   0  0  0  0  0  0  0  0  0  0  0  0
   46.1860   32.9930   45.9660 N   0  0  0  0  0  0  0  0  0  0  0  0
   45.9020   32.7920   47.2660 C   0  0  0  0  0  0  0  0  0  0  0  0
   46.5260   31.6830   47.6460 N   0  0  0  0  0  0  0  0  0  0  0  0
   47.2100   31.1510   46.6340 C   0  0  0  0  0  0  0  0  0  0  0  0
   47.9960   30.0080   46.5410 C   0  0  0  0  0  0  0  0  0  0  0  0
   48.5310   29.7750   45.3290 N   0  0  0  0  0  0  0  0  0  0  0  0
   48.3160   30.5930   44.2850 C   0  0  0  0  0  0  0  0  0  0  0  0
   47.5430   31.7250   44.3620 N   0  0  0  0  0  0  0  0  0  0  0  0
   46.9900   31.9880   45.5680 C   0  0  0  0  0  0  0  0  0  0  0  0
   48.9110   30.3300   42.9360 C   0  0  0  0  0  0  0  0  0  0  0  0
   48.7090   31.4030   42.1030 F   0  0  0  0  0  0  0  0  0  0  0  0
   48.3260   29.2250   42.3620 F   0  0  0  0  0  0  0  0  0  0  0  0
   50.2720   30.1710   43.0670 F   0  0  0  0  0  0  0  0  0  0  0  0
   48.2590   29.1120   47.6870 C   0  0  0  0  0  0  0  0  0  0  0  0
   49.6350   29.0720   48.1090 N   0  0  0  0  0  0  0  0  0  0  0  0
   49.7450   27.9860   49.0730 C   0  0  0  0  0  0  0  0  0  0  0  0
   50.5260   28.2930   50.2920 C   0  0  0  0  0  0  0  0  0  0  0  0
   50.2150   29.5960   50.9630 C   0  0  0  0  0  0  0  0  0  0  0  0
   49.4050   30.4760   50.0350 C   0  0  0  0  0  0  0  0  0  0  0  0
   50.0430   30.3220   48.6470 C   0  0  0  0  0  0  0  0  0  0  0  0
   43.6756   36.6346   44.8285 H   0  0  0  0  0  0  0  0  0  0  0  0
   44.8150   36.7991   42.5875 H   0  0  0  0  0  0  0  0  0  0  0  0
   46.6147   35.1045   42.0028 H   0  0  0  0  0  0  0  0  0  0  0  0
   45.2681   33.4304   47.8989 H   0  0  0  0  0  0  0  0  0  0  0  0
   47.6487   29.4523   48.5365 H   0  0  0  0  0  0  0  0  0  0  0  0
   48.0036   28.0950   47.3546 H   0  0  0  0  0  0  0  0  0  0  0  0
   48.7281   27.7045   49.3839 H   0  0  0  0  0  0  0  0  0  0  0  0
   50.2905   27.1805   48.5596 H   0  0  0  0  0  0  0  0  0  0  0  0
   50.3437   27.4883   51.0195 H   0  0  0  0  0  0  0  0  0  0  0  0
   51.5718   28.3734   49.9606 H   0  0  0  0  0  0  0  0  0  0  0  0
   49.6379   29.4050   51.8798 H   0  0  0  0  0  0  0  0  0  0  0  0
   51.1564   30.1064   51.2143 H   0  0  0  0  0  0  0  0  0  0  0  0
   48.3560   30.1456   50.0129 H   0  0  0  0  0  0  0  0  0  0  0  0
   49.4082   31.5246   50.3672 H   0  0  0  0  0  0  0  0  0  0  0  0
   51.1391   30.3497   48.7355 H   0  0  0  0  0  0  0  0  0  0  0  0
   49.7234   31.1427   47.9879 H   0  0  0  0  0  0  0  0  0  0  0  0
  1  6  2  0
  2  1  1  0
  3  2  2  0
  3  4  1  0
  4  5  2  0
  5  6  1  0
  5  7  1  0
  7  8  1  0
  8  9  2  0
 10  9  1  0
 11 10  2  0
 11 20  1  0
 12 11  1  0
 13 14  1  0
 13 12  2  0
 14 15  2  0
 15  7  1  0
 15 10  1  0
 16 19  1  0
 16 13  1  0
 17 16  1  0
 18 16  1  0
 20 21  1  0
 21 26  1  0
 21 22  1  0
 22 23  1  0
 23 24  1  0
 25 24  1  0
 26 25  1  0
  1 27  1  0
  2 28  1  0
  3 29  1  0
  8 30  1  0
 20 31  1  0
 20 32  1  0
 22 33  1  0
 22 34  1  0
 23 35  1  0
 23 36  1  0
 24 37  1  0
 24 38  1  0
 25 39  1  0
 25 40  1  0
 26 41  1  0
 26 42  1  0
M  ISO  8  27  14  28  14  29  14  30  14  31   8  32   8  33  13  34  13
M  ISO  8  35  13  36  13  37  13  38  13  39  13  40  13  41  13  42  13
M  END
>  <minimizedAffinity>  (1) 
-5.65849972

>  <minimizedRMSD>  (1) 
1.16210723

$$$$
