
     RDKit          3D

 41 44  0  0  0  0  0  0  0  0999 V2000
   44.4560   36.0260   44.2150 C   0  0  0  0  0  0  0  0  0  0  0  0
   45.1960   36.0790   43.0340 C   0  0  0  0  0  0  0  0  0  0  0  0
   46.2170   35.1300   42.8350 C   0  0  0  0  0  0  0  0  0  0  0  0
   46.4290   34.2120   43.8030 N   0  0  0  0  0  0  0  0  0  0  0  0
   45.6870   34.1870   44.9500 C   0  0  0  0  0  0  0  0  0  0  0  0
   44.7060   35.0890   45.1560 N   0  0  0  0  0  0  0  0  0  0  0  0
   46.0230   33.1560   45.8890 N   0  0  0  0  0  0  0  0  0  0  0  0
   45.6230   32.9940   47.1570 C   0  0  0  0  0  0  0  0  0  0  0  0
   46.1960   31.8900   47.6290 N   0  0  0  0  0  0  0  0  0  0  0  0
   46.9630   31.3240   46.7020 C   0  0  0  0  0  0  0  0  0  0  0  0
   47.7500   30.1670   46.7200 C   0  0  0  0  0  0  0  0  0  0  0  0
   48.3950   29.8950   45.5710 N   0  0  0  0  0  0  0  0  0  0  0  0
   48.2800   30.6940   44.4850 C   0  0  0  0  0  0  0  0  0  0  0  0
   47.5170   31.8270   44.4500 N   0  0  0  0  0  0  0  0  0  0  0  0
   46.8550   32.1280   45.5930 C   0  0  0  0  0  0  0  0  0  0  0  0
   49.0030   30.3810   43.2070 C   0  0  0  0  0  0  0  0  0  0  0  0
   48.8000   31.3800   42.2920 F   0  0  0  0  0  0  0  0  0  0  0  0
   48.5250   29.1900   42.6690 F   0  0  0  0  0  0  0  0  0  0  0  0
   50.3390   30.3210   43.4460 F   0  0  0  0  0  0  0  0  0  0  0  0
   47.8830   29.3040   47.9030 C   0  0  0  0  0  0  0  0  0  0  0  0
   48.8430   29.6980   48.8480 N   0  0  0  0  0  0  0  0  0  0  0  0
   49.1640   31.0480   49.0240 C   0  0  0  0  0  0  0  0  0  0  0  0
   49.9720   31.3680   50.2500 C   0  0  0  0  0  0  0  0  0  0  0  0
   50.2710   30.2100   51.0550 N   0  0  0  0  0  0  0  0  0  0  0  0
   50.8100   29.1840   50.2190 C   0  0  0  0  0  0  0  0  0  0  0  0
   49.7460   28.7010   49.2960 C   0  0  0  0  0  0  0  0  0  0  0  0
   43.6544   36.7602   44.3835 H   0  0  0  0  0  0  0  0  0  0  0  0
   44.9864   36.8461   42.2740 H   0  0  0  0  0  0  0  0  0  0  0  0
   46.8244   35.1360   41.9179 H   0  0  0  0  0  0  0  0  0  0  0  0
   44.9412   33.6566   47.7103 H   0  0  0  0  0  0  0  0  0  0  0  0
   46.9064   29.2730   48.4083 H   0  0  0  0  0  0  0  0  0  0  0  0
   48.2244   28.3301   47.5223 H   0  0  0  0  0  0  0  0  0  0  0  0
   49.7377   31.3770   48.1450 H   0  0  0  0  0  0  0  0  0  0  0  0
   48.2049   31.5717   49.1501 H   0  0  0  0  0  0  0  0  0  0  0  0
   50.9201   31.8270   49.9331 H   0  0  0  0  0  0  0  0  0  0  0  0
   49.3685   32.0479   50.8693 H   0  0  0  0  0  0  0  0  0  0  0  0
   50.9592   30.4618   51.7788 H   0  0  0  0  0  0  0  0  0  0  0  0
   51.6497   29.5880   49.6344 H   0  0  0  0  0  0  0  0  0  0  0  0
   51.1699   28.3501   50.8396 H   0  0  0  0  0  0  0  0  0  0  0  0
   49.1665   27.9261   49.8191 H   0  0  0  0  0  0  0  0  0  0  0  0
   50.2629   28.3292   48.3990 H   0  0  0  0  0  0  0  0  0  0  0  0
  1  6  2  0
  2  1  1  0
  3  2  2  0
  3  4  1  0
  4  5  2  0
  5  6  1  0
  5  7  1  0
  7  8  1  0
  8  9  2  0
 10 11  2  0
 10  9  1  0
 11 20  1  0
 12 11  1  0
 13 12  2  0
 14 13  1  0
 14 15  2  0
 15  7  1  0
 15 10  1  0
 16 19  1  0
 16 13  1  0
 17 16  1  0
 18 16  1  0
 20 21  1  0
 21 22  1  0
 21 26  1  0
 22 23  1  0
 23 24  1  0
 25 24  1  0
 26 25  1  0
  1 27  1  0
  2 28  1  0
  3 29  1  0
  8 30  1  0
 20 31  1  0
 20 32  1  0
 22 33  1  0
 22 34  1  0
 23 35  1  0
 23 36  1  0
 24 37  1  0
 25 38  1  0
 25 39  1  0
 26 40  1  0
 26 41  1  0
M  ISO  8  27  14  28  14  29  14  30  14  31   8  32   8  33  13  34  13
M  ISO  7  35  13  36  13  37   5  38  13  39  13  40  13  41  13
M  END
>  <minimizedAffinity>  (1) 
-5.6108799

>  <minimizedRMSD>  (1) 
0.283835143

$$$$
