
     RDKit          3D

 39 42  0  0  0  0  0  0  0  0999 V2000
   44.4600   35.8920   44.6280 C   0  0  0  0  0  0  0  0  0  0  0  0
   45.0680   35.9900   43.3570 C   0  0  0  0  0  0  0  0  0  0  0  0
   46.0580   35.0540   43.0070 C   0  0  0  0  0  0  0  0  0  0  0  0
   46.3720   34.1010   43.9280 N   0  0  0  0  0  0  0  0  0  0  0  0
   45.7680   34.0330   45.1440 C   0  0  0  0  0  0  0  0  0  0  0  0
   44.8140   34.9270   45.4930 N   0  0  0  0  0  0  0  0  0  0  0  0
   46.2050   32.9770   46.0030 N   0  0  0  0  0  0  0  0  0  0  0  0
   45.9490   32.7730   47.3040 C   0  0  0  0  0  0  0  0  0  0  0  0
   46.5780   31.6500   47.6720 N   0  0  0  0  0  0  0  0  0  0  0  0
   47.2360   31.1230   46.6370 C   0  0  0  0  0  0  0  0  0  0  0  0
   48.0270   29.9750   46.5100 C   0  0  0  0  0  0  0  0  0  0  0  0
   48.5370   29.7530   45.2960 N   0  0  0  0  0  0  0  0  0  0  0  0
   48.3020   30.5790   44.2660 C   0  0  0  0  0  0  0  0  0  0  0  0
   47.5330   31.7070   44.3590 N   0  0  0  0  0  0  0  0  0  0  0  0
   46.9990   31.9620   45.5870 C   0  0  0  0  0  0  0  0  0  0  0  0
   48.8870   30.3130   42.9040 C   0  0  0  0  0  0  0  0  0  0  0  0
   48.6680   31.3930   42.0780 F   0  0  0  0  0  0  0  0  0  0  0  0
   48.2990   29.1960   42.3560 F   0  0  0  0  0  0  0  0  0  0  0  0
   50.2530   30.1820   43.0150 F   0  0  0  0  0  0  0  0  0  0  0  0
   48.2770   29.0710   47.6560 C   0  0  0  0  0  0  0  0  0  0  0  0
   49.6590   28.6320   47.7030 N   0  0  0  0  0  0  0  0  0  0  0  0
   50.4520   29.7280   48.2240 C   0  0  0  0  0  0  0  0  0  0  0  0
   50.1560   29.6650   49.6990 C   0  0  0  0  0  0  0  0  0  0  0  0
   50.2220   28.1860   49.9770 C   0  0  0  0  0  0  0  0  0  0  0  0
   49.7800   27.5690   48.6810 C   0  0  0  0  0  0  0  0  0  0  0  0
   43.6842   36.6174   44.9142 H   0  0  0  0  0  0  0  0  0  0  0  0
   44.7730   36.7831   42.6542 H   0  0  0  0  0  0  0  0  0  0  0  0
   46.5587   35.0903   42.0283 H   0  0  0  0  0  0  0  0  0  0  0  0
   45.3328   33.4135   47.9521 H   0  0  0  0  0  0  0  0  0  0  0  0
   48.0407   29.6043   48.5886 H   0  0  0  0  0  0  0  0  0  0  0  0
   47.6394   28.1826   47.5368 H   0  0  0  0  0  0  0  0  0  0  0  0
   51.5230   29.5743   48.0257 H   0  0  0  0  0  0  0  0  0  0  0  0
   50.2135   30.7001   47.7679 H   0  0  0  0  0  0  0  0  0  0  0  0
   50.9114   30.2137   50.2806 H   0  0  0  0  0  0  0  0  0  0  0  0
   49.1945   30.1225   49.9751 H   0  0  0  0  0  0  0  0  0  0  0  0
   51.2473   27.8783   50.2301 H   0  0  0  0  0  0  0  0  0  0  0  0
   49.6006   27.8813   50.8320 H   0  0  0  0  0  0  0  0  0  0  0  0
   48.8080   27.0718   48.8155 H   0  0  0  0  0  0  0  0  0  0  0  0
   50.5099   26.8181   48.3442 H   0  0  0  0  0  0  0  0  0  0  0  0
  1  6  2  0
  2  1  1  0
  3  2  2  0
  3  4  1  0
  4  5  2  0
  5  6  1  0
  5  7  1  0
  7  8  1  0
  8  9  2  0
 10  9  1  0
 11 10  2  0
 11 20  1  0
 12 11  1  0
 13 14  1  0
 13 12  2  0
 14 15  2  0
 15  7  1  0
 15 10  1  0
 16 19  1  0
 16 13  1  0
 17 16  1  0
 18 16  1  0
 20 21  1  0
 21 22  1  0
 21 25  1  0
 22 23  1  0
 23 24  1  0
 25 24  1  0
  1 26  1  0
  2 27  1  0
  3 28  1  0
  8 29  1  0
 20 30  1  0
 20 31  1  0
 22 32  1  0
 22 33  1  0
 23 34  1  0
 23 35  1  0
 24 36  1  0
 24 37  1  0
 25 38  1  0
 25 39  1  0
M  ISO  8  26  14  27  14  28  14  29  14  30   8  31   8  32  13  33  13
M  ISO  6  34  13  35  13  36  13  37  13  38  13  39  13
M  END
>  <minimizedAffinity>  (1) 
-5.11535215

>  <minimizedRMSD>  (1) 
1.15947139

$$$$
