
     RDKit          3D

 28 30  0  0  0  0  0  0  0  0999 V2000
   44.4680   36.0080   44.5150 C   0  0  0  0  0  0  0  0  0  0  0  0
   45.1260   36.1030   43.2880 C   0  0  0  0  0  0  0  0  0  0  0  0
   46.1020   35.1350   42.9840 C   0  0  0  0  0  0  0  0  0  0  0  0
   46.3630   34.1590   43.8870 N   0  0  0  0  0  0  0  0  0  0  0  0
   45.6920   34.1020   45.0840 C   0  0  0  0  0  0  0  0  0  0  0  0
   44.7540   35.0280   45.3820 N   0  0  0  0  0  0  0  0  0  0  0  0
   46.0590   33.0270   45.9480 N   0  0  0  0  0  0  0  0  0  0  0  0
   45.7260   32.8100   47.2300 C   0  0  0  0  0  0  0  0  0  0  0  0
   46.3040   31.6730   47.6260 N   0  0  0  0  0  0  0  0  0  0  0  0
   47.0070   31.1440   46.6270 C   0  0  0  0  0  0  0  0  0  0  0  0
   47.7880   29.9770   46.5200 C   0  0  0  0  0  0  0  0  0  0  0  0
   48.3640   29.7520   45.3420 N   0  0  0  0  0  0  0  0  0  0  0  0
   48.2020   30.6080   44.3020 C   0  0  0  0  0  0  0  0  0  0  0  0
   47.4500   31.7490   44.3730 N   0  0  0  0  0  0  0  0  0  0  0  0
   46.8530   32.0050   45.5550 C   0  0  0  0  0  0  0  0  0  0  0  0
   48.8560   30.3440   42.9770 C   0  0  0  0  0  0  0  0  0  0  0  0
   48.7050   31.4420   42.1560 F   0  0  0  0  0  0  0  0  0  0  0  0
   48.2420   29.2610   42.3620 F   0  0  0  0  0  0  0  0  0  0  0  0
   50.1920   30.1450   43.1680 F   0  0  0  0  0  0  0  0  0  0  0  0
   47.9380   29.0690   47.6840 C   0  0  0  0  0  0  0  0  0  0  0  0
   49.3730   29.6230   48.6720 S   0  0  0  0  0  0  0  0  0  0  0  0
   43.7003   36.7517   44.7749 H   0  0  0  0  0  0  0  0  0  0  0  0
   44.8891   36.9103   42.5794 H   0  0  0  0  0  0  0  0  0  0  0  0
   46.6446   35.1704   42.0278 H   0  0  0  0  0  0  0  0  0  0  0  0
   45.0868   33.4574   47.8483 H   0  0  0  0  0  0  0  0  0  0  0  0
   47.0278   29.1030   48.3007 H   0  0  0  0  0  0  0  0  0  0  0  0
   48.0948   28.0365   47.3384 H   0  0  0  0  0  0  0  0  0  0  0  0
   49.0803   29.5100   50.0056 H   0  0  0  0  0  0  0  0  0  0  0  0
  1  6  2  0
  2  1  1  0
  3  2  2  0
  3  4  1  0
  4  5  2  0
  5  6  1  0
  5  7  1  0
  7  8  1  0
  8  9  2  0
 10  9  1  0
 11 10  2  0
 11 20  1  0
 12 11  1  0
 13 14  1  0
 13 12  2  0
 14 15  2  0
 15  7  1  0
 15 10  1  0
 16 19  1  0
 16 13  1  0
 17 16  1  0
 18 16  1  0
 20 21  1  0
  1 22  1  0
  2 23  1  0
  3 24  1  0
  8 25  1  0
 20 26  1  0
 20 27  1  0
 21 28  1  0
M  ISO  7  22  14  23  14  24  14  25  14  26   8  27   8  28  11
M  END
>  <minimizedAffinity>  (1) 
-4.85777712

>  <minimizedRMSD>  (1) 
0.53125757

$$$$
