
     RDKit          3D

 33 36  0  0  0  0  0  0  0  0999 V2000
   44.4540   36.1700   44.3140 C   0  0  0  0  0  0  0  0  0  0  0  0
   45.1680   36.2370   43.0990 C   0  0  0  0  0  0  0  0  0  0  0  0
   46.1410   35.2600   42.8530 C   0  0  0  0  0  0  0  0  0  0  0  0
   46.3530   34.3060   43.7770 N   0  0  0  0  0  0  0  0  0  0  0  0
   45.6430   34.2750   44.9420 C   0  0  0  0  0  0  0  0  0  0  0  0
   44.6940   35.2060   45.2100 N   0  0  0  0  0  0  0  0  0  0  0  0
   45.9580   33.2010   45.8450 N   0  0  0  0  0  0  0  0  0  0  0  0
   45.5770   33.0070   47.1200 C   0  0  0  0  0  0  0  0  0  0  0  0
   46.1150   31.8550   47.5420 N   0  0  0  0  0  0  0  0  0  0  0  0
   46.8370   31.2930   46.5690 C   0  0  0  0  0  0  0  0  0  0  0  0
   47.5750   30.1160   46.5040 C   0  0  0  0  0  0  0  0  0  0  0  0
   48.1840   29.8620   45.3350 N   0  0  0  0  0  0  0  0  0  0  0  0
   48.0770   30.7090   44.2890 C   0  0  0  0  0  0  0  0  0  0  0  0
   47.3610   31.8590   44.3380 N   0  0  0  0  0  0  0  0  0  0  0  0
   46.7340   32.1530   45.4910 C   0  0  0  0  0  0  0  0  0  0  0  0
   48.7610   30.4070   42.9890 C   0  0  0  0  0  0  0  0  0  0  0  0
   48.7220   31.5080   42.1700 F   0  0  0  0  0  0  0  0  0  0  0  0
   48.0860   29.3820   42.3330 F   0  0  0  0  0  0  0  0  0  0  0  0
   50.0660   30.0950   43.2150 F   0  0  0  0  0  0  0  0  0  0  0  0
   47.6700   29.1910   47.6610 C   0  0  0  0  0  0  0  0  0  0  0  0
   46.5620   28.2600   47.5620 N   0  0  0  0  0  0  0  0  0  0  0  0
   46.7770   26.9740   47.1590 C   0  0  0  0  0  0  0  0  0  0  0  0
   45.5970   26.3490   47.1570 N   0  0  0  0  0  0  0  0  0  0  0  0
   44.6470   27.2050   47.5490 C   0  0  0  0  0  0  0  0  0  0  0  0
   45.2730   28.3890   47.7950 N   0  0  0  0  0  0  0  0  0  0  0  0
   43.6843   36.9258   44.5290 H   0  0  0  0  0  0  0  0  0  0  0  0
   44.9665   37.0328   42.3668 H   0  0  0  0  0  0  0  0  0  0  0  0
   46.7223   35.2728   41.9192 H   0  0  0  0  0  0  0  0  0  0  0  0
   44.9361   33.6766   47.7124 H   0  0  0  0  0  0  0  0  0  0  0  0
   48.6243   28.6449   47.6288 H   0  0  0  0  0  0  0  0  0  0  0  0
   47.6270   29.7477   48.6088 H   0  0  0  0  0  0  0  0  0  0  0  0
   47.7466   26.5324   46.8854 H   0  0  0  0  0  0  0  0  0  0  0  0
   43.5723   26.9942   47.6523 H   0  0  0  0  0  0  0  0  0  0  0  0
  1  6  2  0
  2  1  1  0
  3  2  2  0
  3  4  1  0
  4  5  2  0
  5  6  1  0
  5  7  1  0
  7  8  1  0
  8  9  2  0
 10  9  1  0
 11 10  2  0
 11 20  1  0
 12 11  1  0
 13 14  1  0
 13 12  2  0
 14 15  2  0
 15  7  1  0
 15 10  1  0
 16 19  1  0
 16 13  1  0
 17 16  1  0
 18 16  1  0
 21 20  1  0
 21 25  1  0
 22 21  1  0
 23 22  2  0
 23 24  1  0
 24 25  2  0
  1 26  1  0
  2 27  1  0
  3 28  1  0
  8 29  1  0
 20 30  1  0
 20 31  1  0
 22 32  1  0
 24 33  1  0
M  ISO  8  26  14  27  14  28  14  29  14  30   8  31   8  32  14  33  14
M  END
>  <minimizedAffinity>  (1) 
-5.11838055

>  <minimizedRMSD>  (1) 
0.601561725

$$$$
