
     RDKit          3D

 28 30  0  0  0  0  0  0  0  0999 V2000
   44.4630   36.0160   44.4890 C   0  0  0  0  0  0  0  0  0  0  0  0
   45.1480   36.1220   43.2750 C   0  0  0  0  0  0  0  0  0  0  0  0
   46.1260   35.1710   42.9970 C   0  0  0  0  0  0  0  0  0  0  0  0
   46.3860   34.1910   43.8860 N   0  0  0  0  0  0  0  0  0  0  0  0
   45.6900   34.1200   45.0730 C   0  0  0  0  0  0  0  0  0  0  0  0
   44.7300   35.0350   45.3680 N   0  0  0  0  0  0  0  0  0  0  0  0
   46.0480   33.0410   45.9390 N   0  0  0  0  0  0  0  0  0  0  0  0
   45.7120   32.8230   47.2160 C   0  0  0  0  0  0  0  0  0  0  0  0
   46.2780   31.6790   47.6060 N   0  0  0  0  0  0  0  0  0  0  0  0
   46.9800   31.1420   46.6030 C   0  0  0  0  0  0  0  0  0  0  0  0
   47.7400   29.9740   46.5060 C   0  0  0  0  0  0  0  0  0  0  0  0
   48.3230   29.7440   45.3220 N   0  0  0  0  0  0  0  0  0  0  0  0
   48.1660   30.6140   44.2910 C   0  0  0  0  0  0  0  0  0  0  0  0
   47.4310   31.7580   44.3570 N   0  0  0  0  0  0  0  0  0  0  0  0
   46.8340   32.0060   45.5510 C   0  0  0  0  0  0  0  0  0  0  0  0
   48.8260   30.3420   42.9670 C   0  0  0  0  0  0  0  0  0  0  0  0
   48.6880   31.4360   42.1410 F   0  0  0  0  0  0  0  0  0  0  0  0
   48.2010   29.2650   42.3460 F   0  0  0  0  0  0  0  0  0  0  0  0
   50.1520   30.1220   43.1430 F   0  0  0  0  0  0  0  0  0  0  0  0
   47.8670   29.0470   47.6430 C   0  0  0  0  0  0  0  0  0  0  0  0
   46.5580   28.6910   48.0430 O   0  0  0  0  0  0  0  0  0  0  0  0
   43.6850   36.7549   44.7312 H   0  0  0  0  0  0  0  0  0  0  0  0
   44.9219   36.9297   42.5633 H   0  0  0  0  0  0  0  0  0  0  0  0
   46.6868   35.2190   42.0519 H   0  0  0  0  0  0  0  0  0  0  0  0
   45.0789   33.4741   47.8367 H   0  0  0  0  0  0  0  0  0  0  0  0
   48.4243   28.1495   47.3366 H   0  0  0  0  0  0  0  0  0  0  0  0
   48.4128   29.5203   48.4725 H   0  0  0  0  0  0  0  0  0  0  0  0
   46.5073   28.6772   49.0316 H   0  0  0  0  0  0  0  0  0  0  0  0
  1  6  2  0
  2  1  1  0
  3  2  2  0
  3  4  1  0
  4  5  2  0
  5  6  1  0
  5  7  1  0
  7  8  1  0
  8  9  2  0
 10  9  1  0
 11 10  2  0
 11 20  1  0
 12 11  1  0
 13 14  1  0
 13 12  2  0
 14 15  2  0
 15  7  1  0
 15 10  1  0
 16 19  1  0
 16 13  1  0
 17 16  1  0
 18 16  1  0
 20 21  1  0
  1 22  1  0
  2 23  1  0
  3 24  1  0
  8 25  1  0
 20 26  1  0
 20 27  1  0
 21 28  1  0
M  ISO  7  22  14  23  14  24  14  25  14  26   8  27   8  28   3
M  END
>  <minimizedAffinity>  (1) 
-5.00655603

>  <minimizedRMSD>  (1) 
0.110381864

$$$$
