
     RDKit          3D

 45 47  0  0  0  0  0  0  0  0999 V2000
   44.8340   35.9260   45.0340 C   0  0  0  0  0  0  0  0  0  0  0  0
   44.1160   35.9750   43.8140 C   0  0  0  0  0  0  0  0  0  0  0  0
   44.0930   34.8440   43.0400 C   0  0  0  0  0  0  0  0  0  0  0  0
   44.7360   33.7150   43.4240 N   0  0  0  0  0  0  0  0  0  0  0  0
   45.4280   33.6860   44.6120 C   0  0  0  0  0  0  0  0  0  0  0  0
   45.4650   34.7910   45.3940 N   0  0  0  0  0  0  0  0  0  0  0  0
   43.3640   34.9170   41.8190 N   0  0  0  0  0  0  0  0  0  0  0  0
   42.0510   35.1790   41.6770 C   0  0  0  0  0  0  0  0  0  0  0  0
   41.4910   35.2150   40.4130 C   0  0  0  0  0  0  0  0  0  0  0  0
   42.2420   34.9870   39.2810 C   0  0  0  0  0  0  0  0  0  0  0  0
   41.7330   35.0190   38.1290 O   0  0  0  0  0  0  0  0  0  0  0  0
   43.5540   34.7280   39.4640 N   0  0  0  0  0  0  0  0  0  0  0  0
   44.0950   34.6960   40.7130 C   0  0  0  0  0  0  0  0  0  0  0  0
   45.3410   34.4390   40.7260 O   0  0  0  0  0  0  0  0  0  0  0  0
   40.0620   35.4990   40.2640 C   0  0  0  0  0  0  0  0  0  0  0  0
   46.1180   32.4740   45.0240 C   0  0  0  0  0  0  0  0  0  0  0  0
   46.9030   31.6560   44.2320 C   0  0  0  0  0  0  0  0  0  0  0  0
   47.3690   30.6260   44.9820 N   0  0  0  0  0  0  0  0  0  0  0  0
   46.8660   30.8150   46.2460 C   0  0  0  0  0  0  0  0  0  0  0  0
   46.1150   31.9270   46.2620 N   0  0  0  0  0  0  0  0  0  0  0  0
   45.4130   32.4700   47.3950 C   0  0  0  0  0  0  0  0  0  0  0  0
   44.5270   31.5520   47.9820 F   0  0  0  0  0  0  0  0  0  0  0  0
   44.6480   33.5980   47.0520 F   0  0  0  0  0  0  0  0  0  0  0  0
   46.2680   32.8480   48.4080 F   0  0  0  0  0  0  0  0  0  0  0  0
   47.1810   29.8570   47.3480 C   0  0  0  0  0  0  0  0  0  0  0  0
   48.1900   28.8300   46.7810 C   0  0  0  0  0  0  0  0  0  0  0  0
   47.9250   30.4960   48.4940 C   0  0  0  0  0  0  0  0  0  0  0  0
   46.0310   29.0110   47.7840 C   0  0  0  0  0  0  0  0  0  0  0  0
   44.8764   36.8114   45.6854 H   0  0  0  0  0  0  0  0  0  0  0  0
   43.5942   36.8904   43.4982 H   0  0  0  0  0  0  0  0  0  0  0  0
   41.4260   35.3637   42.5631 H   0  0  0  0  0  0  0  0  0  0  0  0
   44.1550   34.5519   38.6463 H   0  0  0  0  0  0  0  0  0  0  0  0
   39.6007   35.5907   41.2584 H   0  0  0  0  0  0  0  0  0  0  0  0
   39.9310   36.4407   39.7108 H   0  0  0  0  0  0  0  0  0  0  0  0
   39.5809   34.6789   39.7108 H   0  0  0  0  0  0  0  0  0  0  0  0
   47.1156   31.8151   43.1645 H   0  0  0  0  0  0  0  0  0  0  0  0
   48.6954   28.3156   47.6116 H   0  0  0  0  0  0  0  0  0  0  0  0
   47.6553   28.0927   46.1642 H   0  0  0  0  0  0  0  0  0  0  0  0
   48.9366   29.3516   46.1642 H   0  0  0  0  0  0  0  0  0  0  0  0
   47.5081   30.1380   49.4469 H   0  0  0  0  0  0  0  0  0  0  0  0
   48.9899   30.2267   48.4354 H   0  0  0  0  0  0  0  0  0  0  0  0
   47.8195   31.5894   48.4354 H   0  0  0  0  0  0  0  0  0  0  0  0
   45.9925   28.9827   48.8830 H   0  0  0  0  0  0  0  0  0  0  0  0
   45.0943   29.4369   47.3952 H   0  0  0  0  0  0  0  0  0  0  0  0
   46.1587   27.9900   47.3952 H   0  0  0  0  0  0  0  0  0  0  0  0
  1  6  2  0
  2  1  1  0
  3  4  1  0
  3  2  2  0
  4  5  2  0
  5 16  1  0
  5  6  1  0
  7  3  1  0
  8  7  1  0
  9  8  2  0
 10 12  1  0
 10  9  1  0
 11 10  2  0
 12 13  1  0
 13 14  2  0
 13  7  1  0
 15  9  1  0
 16 20  1  0
 17 18  1  0
 17 16  2  0
 18 19  2  0
 19 20  1  0
 19 25  1  0
 20 21  1  0
 21 22  1  0
 21 24  1  0
 23 21  1  0
 25 28  1  0
 25 27  1  0
 26 25  1  0
  1 29  1  0
  2 30  1  0
  8 31  1  0
 12 32  1  0
 15 33  1  0
 15 34  1  0
 15 35  1  0
 17 36  1  0
 26 37  1  0
 26 38  1  0
 26 39  1  0
 27 40  1  0
 27 41  1  0
 27 42  1  0
 28 43  1  0
 28 44  1  0
 28 45  1  0
M  ISO  8  29  14  30  14  31  14  32   9  33   8  34   8  35   8  36  14
M  ISO  8  37   8  38   8  39   8  40   8  41   8  42   8  43   8  44   8
M  ISO  1  45   8
M  END
>  <minimizedAffinity>  (1) 
-6.3474102

>  <minimizedRMSD>  (1) 
0.243206099

$$$$
