
     RDKit          3D

 40 43  0  0  0  0  0  0  0  0999 V2000
   44.4530   35.8950   44.6850 C   0  0  0  0  0  0  0  0  0  0  0  0
   45.0210   35.9820   43.4130 C   0  0  0  0  0  0  0  0  0  0  0  0
   46.0020   35.0320   43.0400 C   0  0  0  0  0  0  0  0  0  0  0  0
   46.3460   34.0800   43.9350 N   0  0  0  0  0  0  0  0  0  0  0  0
   45.7630   34.0290   45.1780 C   0  0  0  0  0  0  0  0  0  0  0  0
   44.8350   34.9290   45.5270 N   0  0  0  0  0  0  0  0  0  0  0  0
   46.2320   32.9720   46.0220 N   0  0  0  0  0  0  0  0  0  0  0  0
   46.0250   32.7900   47.3440 C   0  0  0  0  0  0  0  0  0  0  0  0
   46.6580   31.6800   47.7020 N   0  0  0  0  0  0  0  0  0  0  0  0
   47.2750   31.1210   46.6630 C   0  0  0  0  0  0  0  0  0  0  0  0
   48.0660   29.9800   46.5440 C   0  0  0  0  0  0  0  0  0  0  0  0
   48.5440   29.7460   45.3040 N   0  0  0  0  0  0  0  0  0  0  0  0
   48.2720   30.5580   44.2700 C   0  0  0  0  0  0  0  0  0  0  0  0
   47.4970   31.6820   44.3690 N   0  0  0  0  0  0  0  0  0  0  0  0
   46.9980   31.9490   45.6030 C   0  0  0  0  0  0  0  0  0  0  0  0
   48.8120   30.2770   42.8960 C   0  0  0  0  0  0  0  0  0  0  0  0
   48.5220   31.3160   42.0500 F   0  0  0  0  0  0  0  0  0  0  0  0
   48.2140   29.1380   42.3790 F   0  0  0  0  0  0  0  0  0  0  0  0
   50.1630   30.1550   42.9440 F   0  0  0  0  0  0  0  0  0  0  0  0
   48.3430   29.0780   47.6690 C   0  0  0  0  0  0  0  0  0  0  0  0
   49.6550   28.4230   47.7510 C   0  0  0  0  0  0  0  0  0  0  0  0
   49.8810   27.6500   49.0090 C   0  0  0  0  0  0  0  0  0  0  0  0
   50.1830   28.6820   50.0600 C   0  0  0  0  0  0  0  0  0  0  0  0
   50.5350   29.9530   49.3130 C   0  0  0  0  0  0  0  0  0  0  0  0
   50.7060   29.5370   47.8660 C   0  0  0  0  0  0  0  0  0  0  0  0
   43.6891   36.6230   44.9956 H   0  0  0  0  0  0  0  0  0  0  0  0
   44.7124   36.7733   42.7140 H   0  0  0  0  0  0  0  0  0  0  0  0
   46.4725   35.0679   42.0463 H   0  0  0  0  0  0  0  0  0  0  0  0
   45.4375   33.4441   48.0050 H   0  0  0  0  0  0  0  0  0  0  0  0
   48.2177   29.6649   48.5909 H   0  0  0  0  0  0  0  0  0  0  0  0
   47.6414   28.2445   47.5173 H   0  0  0  0  0  0  0  0  0  0  0  0
   49.7136   27.7588   46.8761 H   0  0  0  0  0  0  0  0  0  0  0  0
   48.9800   27.0789   49.2774 H   0  0  0  0  0  0  0  0  0  0  0  0
   50.6989   26.9223   48.9018 H   0  0  0  0  0  0  0  0  0  0  0  0
   49.3022   28.8459   50.6982 H   0  0  0  0  0  0  0  0  0  0  0  0
   51.0063   28.3597   50.7145 H   0  0  0  0  0  0  0  0  0  0  0  0
   49.7253   30.6915   49.4077 H   0  0  0  0  0  0  0  0  0  0  0  0
   51.4454   30.4231   49.7131 H   0  0  0  0  0  0  0  0  0  0  0  0
   51.7199   29.1565   47.6729 H   0  0  0  0  0  0  0  0  0  0  0  0
   50.5781   30.3555   47.1423 H   0  0  0  0  0  0  0  0  0  0  0  0
  1  6  2  0
  2  1  1  0
  3  2  2  0
  3  4  1  0
  4  5  2  0
  5  6  1  0
  5  7  1  0
  7  8  1  0
  8  9  2  0
 10  9  1  0
 11 10  2  0
 11 20  1  0
 12 11  1  0
 13 14  1  0
 13 12  2  0
 14 15  2  0
 15  7  1  0
 15 10  1  0
 16 19  1  0
 16 13  1  0
 17 16  1  0
 18 16  1  0
 20 21  1  0
 21 25  1  0
 21 22  1  0
 22 23  1  0
 24 23  1  0
 25 24  1  0
  1 26  1  0
  2 27  1  0
  3 28  1  0
  8 29  1  0
 20 30  1  0
 20 31  1  0
 21 32  1  0
 22 33  1  0
 22 34  1  0
 23 35  1  0
 23 36  1  0
 24 37  1  0
 24 38  1  0
 25 39  1  0
 25 40  1  0
M  ISO  8  26  14  27  14  28  14  29  14  30   8  31   8  32  13  33  13
M  ISO  7  34  13  35  13  36  13  37  13  38  13  39  13  40  13
M  END
>  <minimizedAffinity>  (1) 
-5.11344147

>  <minimizedRMSD>  (1) 
2.20393968

$$$$
