
     RDKit          3D

 36 38  0  0  0  0  0  0  0  0999 V2000
   44.7750   35.9180   45.0670 C   0  0  0  0  0  0  0  0  0  0  0  0
   44.1390   35.8650   43.8030 C   0  0  0  0  0  0  0  0  0  0  0  0
   44.2020   34.6860   43.1010 C   0  0  0  0  0  0  0  0  0  0  0  0
   44.8500   33.5960   43.5910 N   0  0  0  0  0  0  0  0  0  0  0  0
   45.4600   33.6710   44.8210 C   0  0  0  0  0  0  0  0  0  0  0  0
   45.4170   34.8250   45.5420 N   0  0  0  0  0  0  0  0  0  0  0  0
   43.5540   34.6570   41.8310 N   0  0  0  0  0  0  0  0  0  0  0  0
   42.2310   34.7520   41.5970 C   0  0  0  0  0  0  0  0  0  0  0  0
   41.7630   34.7060   40.2940 C   0  0  0  0  0  0  0  0  0  0  0  0
   42.6190   34.5660   39.2170 C   0  0  0  0  0  0  0  0  0  0  0  0
   42.1870   34.5250   38.0410 O   0  0  0  0  0  0  0  0  0  0  0  0
   43.9200   34.4770   39.5070 N   0  0  0  0  0  0  0  0  0  0  0  0
   44.3800   34.5210   40.7840 C   0  0  0  0  0  0  0  0  0  0  0  0
   45.6520   34.4210   40.8840 O   0  0  0  0  0  0  0  0  0  0  0  0
   40.3260   34.8110   40.0540 C   0  0  0  0  0  0  0  0  0  0  0  0
   46.1530   32.5230   45.3570 C   0  0  0  0  0  0  0  0  0  0  0  0
   47.0460   31.6850   44.6960 C   0  0  0  0  0  0  0  0  0  0  0  0
   47.4930   30.7170   45.5260 N   0  0  0  0  0  0  0  0  0  0  0  0
   46.8680   30.9590   46.7190 C   0  0  0  0  0  0  0  0  0  0  0  0
   46.0690   32.0370   46.6200 N   0  0  0  0  0  0  0  0  0  0  0  0
   45.2370   32.6180   47.6580 C   0  0  0  0  0  0  0  0  0  0  0  0
   44.2920   31.6830   48.1520 F   0  0  0  0  0  0  0  0  0  0  0  0
   44.5480   33.7420   47.2230 F   0  0  0  0  0  0  0  0  0  0  0  0
   46.0070   32.9460   48.7620 F   0  0  0  0  0  0  0  0  0  0  0  0
   47.0200   30.1840   47.9460 C   0  0  0  0  0  0  0  0  0  0  0  0
   47.8780   30.4000   48.8420 O   0  0  0  0  0  0  0  0  0  0  0  0
   46.1970   29.1040   48.2390 O   0  0  0  0  0  0  0  0  0  0  0  0
   44.7475   36.8437   45.6606 H   0  0  0  0  0  0  0  0  0  0  0  0
   43.6112   36.7402   43.3962 H   0  0  0  0  0  0  0  0  0  0  0  0
   41.5271   34.8653   42.4347 H   0  0  0  0  0  0  0  0  0  0  0  0
   44.5961   34.3716   38.7371 H   0  0  0  0  0  0  0  0  0  0  0  0
   39.7953   34.8498   41.0168 H   0  0  0  0  0  0  0  0  0  0  0  0
   40.1157   35.7269   39.4823 H   0  0  0  0  0  0  0  0  0  0  0  0
   39.9848   33.9354   39.4823 H   0  0  0  0  0  0  0  0  0  0  0  0
   47.3464   31.7954   43.6436 H   0  0  0  0  0  0  0  0  0  0  0  0
   46.3252   28.5978   49.0801 H   0  0  0  0  0  0  0  0  0  0  0  0
  1  6  2  0
  2  1  1  0
  3  4  1  0
  3  2  2  0
  4  5  2  0
  5 16  1  0
  5  6  1  0
  7  3  1  0
  8  7  1  0
  9  8  2  0
 10 12  1  0
 10  9  1  0
 11 10  2  0
 12 13  1  0
 13 14  2  0
 13  7  1  0
 15  9  1  0
 16 20  1  0
 17 16  2  0
 17 18  1  0
 18 19  2  0
 19 25  1  0
 20 19  1  0
 20 21  1  0
 21 22  1  0
 21 24  1  0
 23 21  1  0
 25 27  1  0
 25 26  2  0
  1 28  1  0
  2 29  1  0
  8 30  1  0
 12 31  1  0
 15 32  1  0
 15 33  1  0
 15 34  1  0
 17 35  1  0
 27 36  1  0
M  ISO  8  28  14  29  14  30  14  31   9  32   8  33   8  34   8  35  14
M  ISO  1  36   3
M  END
>  <minimizedAffinity>  (1) 
-6.3088665

>  <minimizedRMSD>  (1) 
0.542749763

$$$$
