
     RDKit          3D

 42 44  0  0  0  0  0  0  0  0999 V2000
   44.8300   35.9700   45.0100 C   0  0  0  0  0  0  0  0  0  0  0  0
   44.1170   35.9950   43.7880 C   0  0  0  0  0  0  0  0  0  0  0  0
   44.0890   34.8460   43.0370 C   0  0  0  0  0  0  0  0  0  0  0  0
   44.7270   33.7200   43.4530 N   0  0  0  0  0  0  0  0  0  0  0  0
   45.4120   33.7200   44.6420 C   0  0  0  0  0  0  0  0  0  0  0  0
   45.4560   34.8400   45.4040 N   0  0  0  0  0  0  0  0  0  0  0  0
   43.3660   34.8910   41.8100 N   0  0  0  0  0  0  0  0  0  0  0  0
   42.0620   35.1420   41.6580 C   0  0  0  0  0  0  0  0  0  0  0  0
   41.5020   35.1500   40.3920 C   0  0  0  0  0  0  0  0  0  0  0  0
   42.2650   34.9040   39.2700 C   0  0  0  0  0  0  0  0  0  0  0  0
   41.7760   34.9080   38.1170 O   0  0  0  0  0  0  0  0  0  0  0  0
   43.5770   34.6560   39.4660 N   0  0  0  0  0  0  0  0  0  0  0  0
   44.1140   34.6500   40.7190 C   0  0  0  0  0  0  0  0  0  0  0  0
   45.3580   34.4020   40.7420 O   0  0  0  0  0  0  0  0  0  0  0  0
   40.0770   35.4250   40.2330 C   0  0  0  0  0  0  0  0  0  0  0  0
   46.0910   32.5190   45.0830 C   0  0  0  0  0  0  0  0  0  0  0  0
   46.8910   31.6730   44.3350 C   0  0  0  0  0  0  0  0  0  0  0  0
   47.3500   30.6480   45.1110 N   0  0  0  0  0  0  0  0  0  0  0  0
   46.8200   30.8710   46.3570 C   0  0  0  0  0  0  0  0  0  0  0  0
   46.0610   32.0040   46.3330 N   0  0  0  0  0  0  0  0  0  0  0  0
   45.3410   32.5640   47.4510 C   0  0  0  0  0  0  0  0  0  0  0  0
   44.4470   31.6400   48.0360 F   0  0  0  0  0  0  0  0  0  0  0  0
   44.5940   33.6900   47.0900 F   0  0  0  0  0  0  0  0  0  0  0  0
   46.2040   32.8940   48.4910 F   0  0  0  0  0  0  0  0  0  0  0  0
   47.0790   29.9690   47.5140 C   0  0  0  0  0  0  0  0  0  0  0  0
   45.7850   29.3280   48.0020 C   0  0  0  0  0  0  0  0  0  0  0  0
   47.6510   30.7280   48.6940 C   0  0  0  0  0  0  0  0  0  0  0  0
   44.8744   36.8712   45.6392 H   0  0  0  0  0  0  0  0  0  0  0  0
   43.6015   36.9062   43.4504 H   0  0  0  0  0  0  0  0  0  0  0  0
   41.4340   35.3422   42.5386 H   0  0  0  0  0  0  0  0  0  0  0  0
   44.1832   34.4680   38.6548 H   0  0  0  0  0  0  0  0  0  0  0  0
   39.6082   35.5155   41.2240 H   0  0  0  0  0  0  0  0  0  0  0  0
   39.9448   36.3652   39.6776 H   0  0  0  0  0  0  0  0  0  0  0  0
   39.6044   34.6015   39.6776 H   0  0  0  0  0  0  0  0  0  0  0  0
   47.1236   31.8072   43.2683 H   0  0  0  0  0  0  0  0  0  0  0  0
   47.7921   29.2110   47.1578 H   0  0  0  0  0  0  0  0  0  0  0  0
   45.7713   29.3212   49.1019 H   0  0  0  0  0  0  0  0  0  0  0  0
   44.9263   29.9049   47.6281 H   0  0  0  0  0  0  0  0  0  0  0  0
   45.7236   28.2953   47.6281 H   0  0  0  0  0  0  0  0  0  0  0  0
   47.3033   30.2666   49.6301 H   0  0  0  0  0  0  0  0  0  0  0  0
   48.7497   30.6936   48.6543 H   0  0  0  0  0  0  0  0  0  0  0  0
   47.3152   31.7747   48.6543 H   0  0  0  0  0  0  0  0  0  0  0  0
  1  6  2  0
  2  1  1  0
  3  4  1  0
  3  2  2  0
  4  5  2  0
  5 16  1  0
  5  6  1  0
  7  3  1  0
  8  7  1  0
  9  8  2  0
 10 12  1  0
 10  9  1  0
 11 10  2  0
 12 13  1  0
 13 14  2  0
 13  7  1  0
 15  9  1  0
 16 20  1  0
 17 16  2  0
 17 18  1  0
 18 19  2  0
 19 25  1  0
 20 19  1  0
 20 21  1  0
 21 22  1  0
 21 24  1  0
 23 21  1  0
 25 26  1  0
 25 27  1  0
  1 28  1  0
  2 29  1  0
  8 30  1  0
 12 31  1  0
 15 32  1  0
 15 33  1  0
 15 34  1  0
 17 35  1  0
 25 36  1  0
 26 37  1  0
 26 38  1  0
 26 39  1  0
 27 40  1  0
 27 41  1  0
 27 42  1  0
M  ISO  8  28  14  29  14  30  14  31   9  32   8  33   8  34   8  35  14
M  ISO  7  36   8  37   8  38   8  39   8  40   8  41   8  42   8
M  END
>  <minimizedAffinity>  (1) 
-6.27604866

>  <minimizedRMSD>  (1) 
0.399720907

$$$$
