
     RDKit          3D

 39 43  0  0  0  0  0  0  0  0999 V2000
   44.4530   36.0360   44.4180 C   0  0  0  0  0  0  0  0  0  0  0  0
   45.1630   36.1150   43.2030 C   0  0  0  0  0  0  0  0  0  0  0  0
   46.1600   35.1490   42.9490 C   0  0  0  0  0  0  0  0  0  0  0  0
   46.3880   34.2000   43.8760 N   0  0  0  0  0  0  0  0  0  0  0  0
   45.6730   34.1500   45.0560 C   0  0  0  0  0  0  0  0  0  0  0  0
   44.7240   35.0690   45.2990 N   0  0  0  0  0  0  0  0  0  0  0  0
   46.0250   33.0860   45.9430 N   0  0  0  0  0  0  0  0  0  0  0  0
   45.6640   32.9090   47.2340 C   0  0  0  0  0  0  0  0  0  0  0  0
   46.2370   31.7680   47.6510 N   0  0  0  0  0  0  0  0  0  0  0  0
   46.9530   31.2030   46.6790 C   0  0  0  0  0  0  0  0  0  0  0  0
   47.7190   30.0420   46.6040 C   0  0  0  0  0  0  0  0  0  0  0  0
   48.3100   29.7890   45.4340 N   0  0  0  0  0  0  0  0  0  0  0  0
   48.1660   30.6210   44.3880 C   0  0  0  0  0  0  0  0  0  0  0  0
   47.4220   31.7630   44.4320 N   0  0  0  0  0  0  0  0  0  0  0  0
   46.8090   32.0530   45.6020 C   0  0  0  0  0  0  0  0  0  0  0  0
   48.8370   30.3270   43.0690 C   0  0  0  0  0  0  0  0  0  0  0  0
   48.7470   31.4230   42.2400 F   0  0  0  0  0  0  0  0  0  0  0  0
   48.2410   29.2390   42.4690 F   0  0  0  0  0  0  0  0  0  0  0  0
   50.1760   30.1190   43.2830 F   0  0  0  0  0  0  0  0  0  0  0  0
   47.8670   29.1420   47.7650 C   0  0  0  0  0  0  0  0  0  0  0  0
   49.1160   29.5070   48.4770 C   0  0  0  0  0  0  0  0  0  0  0  0
   50.3300   28.8770   48.6000 C   0  0  0  0  0  0  0  0  0  0  0  0
   51.1430   29.6750   49.3880 C   0  0  0  0  0  0  0  0  0  0  0  0
   50.4250   30.7580   49.7260 N   0  0  0  0  0  0  0  0  0  0  0  0
   49.2240   30.6450   49.1800 N   0  0  0  0  0  0  0  0  0  0  0  0
   50.8700   31.8440   50.5340 C   0  0  0  0  0  0  0  0  0  0  0  0
   51.0900   33.1560   50.3070 N   0  0  0  0  0  0  0  0  0  0  0  0
   51.5010   33.7190   51.4190 O   0  0  0  0  0  0  0  0  0  0  0  0
   51.5650   32.8240   52.3860 C   0  0  0  0  0  0  0  0  0  0  0  0
   51.1730   31.6470   51.8450 N   0  0  0  0  0  0  0  0  0  0  0  0
   43.6703   36.7757   44.6424 H   0  0  0  0  0  0  0  0  0  0  0  0
   44.9459   36.9082   42.4725 H   0  0  0  0  0  0  0  0  0  0  0  0
   46.7384   35.1711   42.0136 H   0  0  0  0  0  0  0  0  0  0  0  0
   45.0221   33.5741   47.8303 H   0  0  0  0  0  0  0  0  0  0  0  0
   47.0059   29.2592   48.4394 H   0  0  0  0  0  0  0  0  0  0  0  0
   47.9116   28.0948   47.4312 H   0  0  0  0  0  0  0  0  0  0  0  0
   50.6073   27.9111   48.1526 H   0  0  0  0  0  0  0  0  0  0  0  0
   52.1814   29.4616   49.6816 H   0  0  0  0  0  0  0  0  0  0  0  0
   51.8756   32.9996   53.4265 H   0  0  0  0  0  0  0  0  0  0  0  0
  1  6  2  0
  2  1  1  0
  3  2  2  0
  3  4  1  0
  4  5  2  0
  5  6  1  0
  5  7  1  0
  7  8  1  0
  8  9  2  0
 10  9  1  0
 11 10  2  0
 11 20  1  0
 12 11  1  0
 13 14  1  0
 13 12  2  0
 14 15  2  0
 15  7  1  0
 15 10  1  0
 16 19  1  0
 16 13  1  0
 17 16  1  0
 18 16  1  0
 20 21  1  0
 21 22  1  0
 21 25  2  0
 22 23  2  0
 23 24  1  0
 24 26  1  0
 25 24  1  0
 26 30  1  0
 27 26  2  0
 27 28  1  0
 28 29  1  0
 30 29  2  0
  1 31  1  0
  2 32  1  0
  3 33  1  0
  8 34  1  0
 20 35  1  0
 20 36  1  0
 22 37  1  0
 23 38  1  0
 29 39  1  0
M  ISO  8  31  14  32  14  33  14  34  14  35   8  36   8  37  14  38  14
M  ISO  1  39  14
M  END
>  <minimizedAffinity>  (1) 
-6.57390261

>  <minimizedRMSD>  (1) 
0.897540152

$$$$
