
     RDKit          3D

 50 54  0  0  0  0  0  0  0  0999 V2000
   44.4650   36.0990   44.2990 C   0  0  0  0  0  0  0  0  0  0  0  0
   45.2000   36.1620   43.1000 C   0  0  0  0  0  0  0  0  0  0  0  0
   46.1940   35.1830   42.8770 C   0  0  0  0  0  0  0  0  0  0  0  0
   46.3950   34.2350   43.8200 N   0  0  0  0  0  0  0  0  0  0  0  0
   45.6560   34.2090   44.9770 C   0  0  0  0  0  0  0  0  0  0  0  0
   44.7120   35.1370   45.1910 N   0  0  0  0  0  0  0  0  0  0  0  0
   45.9750   33.1480   45.8890 N   0  0  0  0  0  0  0  0  0  0  0  0
   45.5830   32.9850   47.1730 C   0  0  0  0  0  0  0  0  0  0  0  0
   46.1370   31.8450   47.6090 N   0  0  0  0  0  0  0  0  0  0  0  0
   46.8730   31.2670   46.6480 C   0  0  0  0  0  0  0  0  0  0  0  0
   47.6260   30.0930   46.6160 C   0  0  0  0  0  0  0  0  0  0  0  0
   48.2420   29.8220   45.4640 N   0  0  0  0  0  0  0  0  0  0  0  0
   48.1280   30.6480   44.4050 C   0  0  0  0  0  0  0  0  0  0  0  0
   47.3960   31.7980   44.4190 N   0  0  0  0  0  0  0  0  0  0  0  0
   46.7630   32.1000   45.5650 C   0  0  0  0  0  0  0  0  0  0  0  0
   48.8300   30.3280   43.1060 C   0  0  0  0  0  0  0  0  0  0  0  0
   48.7920   31.4370   42.2740 F   0  0  0  0  0  0  0  0  0  0  0  0
   48.2250   29.2730   42.4820 F   0  0  0  0  0  0  0  0  0  0  0  0
   50.1580   30.0890   43.3570 F   0  0  0  0  0  0  0  0  0  0  0  0
   47.7380   29.2000   47.7910 C   0  0  0  0  0  0  0  0  0  0  0  0
   48.9720   29.5710   48.5310 C   0  0  0  0  0  0  0  0  0  0  0  0
   50.1940   28.9770   48.6640 C   0  0  0  0  0  0  0  0  0  0  0  0
   50.9840   29.7770   49.4900 C   0  0  0  0  0  0  0  0  0  0  0  0
   50.2230   30.8260   49.8310 N   0  0  0  0  0  0  0  0  0  0  0  0
   49.0320   30.7010   49.2620 N   0  0  0  0  0  0  0  0  0  0  0  0
   50.7000   31.8950   50.6960 C   0  0  0  0  0  0  0  0  0  0  0  0
   51.4060   31.2820   51.8920 C   0  0  0  0  0  0  0  0  0  0  0  0
   51.5610   32.4390   52.8860 C   0  0  0  0  0  0  0  0  0  0  0  0
   51.8950   33.7340   52.1860 C   0  0  0  0  0  0  0  0  0  0  0  0
   52.6300   33.4410   50.9050 C   0  0  0  0  0  0  0  0  0  0  0  0
   51.6460   32.8160   49.9440 C   0  0  0  0  0  0  0  0  0  0  0  0
   43.6834   36.8460   44.5018 H   0  0  0  0  0  0  0  0  0  0  0  0
   45.0060   36.9507   42.3581 H   0  0  0  0  0  0  0  0  0  0  0  0
   46.7927   35.1918   41.9542 H   0  0  0  0  0  0  0  0  0  0  0  0
   44.9332   33.6596   47.7498 H   0  0  0  0  0  0  0  0  0  0  0  0
   46.8600   29.3264   48.4414 H   0  0  0  0  0  0  0  0  0  0  0  0
   47.7852   28.1489   47.4702 H   0  0  0  0  0  0  0  0  0  0  0  0
   50.5031   28.0292   48.1991 H   0  0  0  0  0  0  0  0  0  0  0  0
   52.0222   29.5854   49.7990 H   0  0  0  0  0  0  0  0  0  0  0  0
   49.8430   32.4950   51.0359 H   0  0  0  0  0  0  0  0  0  0  0  0
   50.8002   30.4741   52.3282 H   0  0  0  0  0  0  0  0  0  0  0  0
   52.3731   30.8338   51.6203 H   0  0  0  0  0  0  0  0  0  0  0  0
   50.6174   32.5645   53.4372 H   0  0  0  0  0  0  0  0  0  0  0  0
   52.3871   32.1955   53.5702 H   0  0  0  0  0  0  0  0  0  0  0  0
   50.9660   34.2775   51.9589 H   0  0  0  0  0  0  0  0  0  0  0  0
   52.5311   34.3489   52.8396 H   0  0  0  0  0  0  0  0  0  0  0  0
   53.0281   34.3740   50.4796 H   0  0  0  0  0  0  0  0  0  0  0  0
   53.4728   32.7591   51.0915 H   0  0  0  0  0  0  0  0  0  0  0  0
   52.1942   32.2360   49.1870 H   0  0  0  0  0  0  0  0  0  0  0  0
   51.0638   33.6109   49.4549 H   0  0  0  0  0  0  0  0  0  0  0  0
  1  6  2  0
  2  1  1  0
  3  2  2  0
  3  4  1  0
  4  5  2  0
  5  6  1  0
  5  7  1  0
  7  8  1  0
  8  9  2  0
 10  9  1  0
 11 10  2  0
 11 20  1  0
 12 11  1  0
 13 14  1  0
 13 12  2  0
 14 15  2  0
 15  7  1  0
 15 10  1  0
 16 19  1  0
 16 13  1  0
 17 16  1  0
 18 16  1  0
 20 21  1  0
 21 22  1  0
 21 25  2  0
 22 23  2  0
 23 24  1  0
 24 26  1  0
 25 24  1  0
 26 27  1  0
 27 28  1  0
 29 28  1  0
 30 29  1  0
 31 26  1  0
 31 30  1  0
  1 32  1  0
  2 33  1  0
  3 34  1  0
  8 35  1  0
 20 36  1  0
 20 37  1  0
 22 38  1  0
 23 39  1  0
 26 40  1  0
 27 41  1  0
 27 42  1  0
 28 43  1  0
 28 44  1  0
 29 45  1  0
 29 46  1  0
 30 47  1  0
 30 48  1  0
 31 49  1  0
 31 50  1  0
M  ISO  8  32  14  33  14  34  14  35  14  36   8  37   8  38  14  39  14
M  ISO  8  40  13  41  13  42  13  43  13  44  13  45  13  46  13  47  13
M  ISO  3  48  13  49  13  50  13
M  END
>  <minimizedAffinity>  (1) 
-6.56609774

>  <minimizedRMSD>  (1) 
0.875062168

$$$$
