
     RDKit          3D

 40 44  0  0  0  0  0  0  0  0999 V2000
   44.4640   36.0950   44.2410 C   0  0  0  0  0  0  0  0  0  0  0  0
   45.1860   36.1320   43.0490 C   0  0  0  0  0  0  0  0  0  0  0  0
   46.1870   35.1450   42.8430 C   0  0  0  0  0  0  0  0  0  0  0  0
   46.3920   34.2290   43.7940 N   0  0  0  0  0  0  0  0  0  0  0  0
   45.6530   34.2300   44.9580 C   0  0  0  0  0  0  0  0  0  0  0  0
   44.7150   35.1560   45.1500 N   0  0  0  0  0  0  0  0  0  0  0  0
   45.9840   33.1830   45.8910 N   0  0  0  0  0  0  0  0  0  0  0  0
   45.5990   33.0520   47.1790 C   0  0  0  0  0  0  0  0  0  0  0  0
   46.1520   31.9250   47.6470 N   0  0  0  0  0  0  0  0  0  0  0  0
   46.8780   31.3310   46.7060 C   0  0  0  0  0  0  0  0  0  0  0  0
   47.6410   30.1550   46.6850 C   0  0  0  0  0  0  0  0  0  0  0  0
   48.2560   29.8510   45.5360 N   0  0  0  0  0  0  0  0  0  0  0  0
   48.1290   30.6580   44.4640 C   0  0  0  0  0  0  0  0  0  0  0  0
   47.3990   31.8050   44.4460 N   0  0  0  0  0  0  0  0  0  0  0  0
   46.7690   32.1330   45.5920 C   0  0  0  0  0  0  0  0  0  0  0  0
   48.8280   30.3110   43.1630 C   0  0  0  0  0  0  0  0  0  0  0  0
   48.7600   31.3770   42.2920 F   0  0  0  0  0  0  0  0  0  0  0  0
   48.2200   29.2250   42.5780 F   0  0  0  0  0  0  0  0  0  0  0  0
   50.1450   30.0700   43.4060 F   0  0  0  0  0  0  0  0  0  0  0  0
   47.7590   29.2880   47.8890 C   0  0  0  0  0  0  0  0  0  0  0  0
   49.0200   29.6450   48.5740 C   0  0  0  0  0  0  0  0  0  0  0  0
   50.2330   29.0190   48.6800 C   0  0  0  0  0  0  0  0  0  0  0  0
   51.0720   29.8140   49.4530 C   0  0  0  0  0  0  0  0  0  0  0  0
   50.3460   30.9040   49.7990 N   0  0  0  0  0  0  0  0  0  0  0  0
   49.1370   30.7910   49.2730 N   0  0  0  0  0  0  0  0  0  0  0  0
   50.9200   31.9320   50.6050 C   0  0  0  0  0  0  0  0  0  0  0  0
   51.3190   33.2590   50.1660 C   0  0  0  0  0  0  0  0  0  0  0  0
   51.9610   33.9590   51.8090 S   0  0  0  0  0  0  0  0  0  0  0  0
   51.5660   32.3650   52.7050 C   0  0  0  0  0  0  0  0  0  0  0  0
   51.0850   31.6010   51.8700 N   0  0  0  0  0  0  0  0  0  0  0  0
   43.6829   36.8458   44.4311 H   0  0  0  0  0  0  0  0  0  0  0  0
   44.9865   36.9029   42.2901 H   0  0  0  0  0  0  0  0  0  0  0  0
   46.7821   35.1351   41.9179 H   0  0  0  0  0  0  0  0  0  0  0  0
   44.9516   33.7424   47.7396 H   0  0  0  0  0  0  0  0  0  0  0  0
   46.9052   29.4605   48.5608 H   0  0  0  0  0  0  0  0  0  0  0  0
   47.7620   28.2261   47.6021 H   0  0  0  0  0  0  0  0  0  0  0  0
   50.4988   28.0511   48.2299 H   0  0  0  0  0  0  0  0  0  0  0  0
   52.1154   29.6007   49.7282 H   0  0  0  0  0  0  0  0  0  0  0  0
   51.2646   33.7230   49.1701 H   0  0  0  0  0  0  0  0  0  0  0  0
   51.7318   32.1524   53.7715 H   0  0  0  0  0  0  0  0  0  0  0  0
  1  6  2  0
  2  1  1  0
  3  2  2  0
  3  4  1  0
  4  5  2  0
  5  6  1  0
  5  7  1  0
  7  8  1  0
  8  9  2  0
 10  9  1  0
 11 10  2  0
 11 20  1  0
 12 11  1  0
 13 12  2  0
 14 13  1  0
 14 15  2  0
 15  7  1  0
 15 10  1  0
 16 19  1  0
 16 13  1  0
 17 16  1  0
 18 16  1  0
 20 21  1  0
 21 22  1  0
 21 25  2  0
 22 23  2  0
 23 24  1  0
 24 26  1  0
 25 24  1  0
 26 30  1  0
 27 26  2  0
 27 28  1  0
 28 29  1  0
 30 29  2  0
  1 31  1  0
  2 32  1  0
  3 33  1  0
  8 34  1  0
 20 35  1  0
 20 36  1  0
 22 37  1  0
 23 38  1  0
 27 39  1  0
 29 40  1  0
M  ISO  8  31  14  32  14  33  14  34  14  35   8  36   8  37  14  38  14
M  ISO  2  39  14  40  14
M  END
>  <minimizedAffinity>  (1) 
-6.25776291

>  <minimizedRMSD>  (1) 
0.823647857

$$$$
