
     RDKit          3D

 20 21  0  0  0  0  0  0  0  0999 V2000
   46.0910   32.8860   46.6090 C   0  0  0  0  0  0  0  0  0  0  0  0
   45.2840   32.7090   47.7110 C   0  0  0  0  0  0  0  0  0  0  0  0
   45.5590   31.8090   48.7240 C   0  0  0  0  0  0  0  0  0  0  0  0
   46.7160   31.0960   48.5400 C   0  0  0  0  0  0  0  0  0  0  0  0
   47.5580   31.2330   47.4590 C   0  0  0  0  0  0  0  0  0  0  0  0
   47.1970   32.1350   46.5330 N   0  0  0  0  0  0  0  0  0  0  0  0
   44.5280   35.6720   44.8720 C   0  0  0  0  0  0  0  0  0  0  0  0
   45.1330   35.6690   43.6000 C   0  0  0  0  0  0  0  0  0  0  0  0
   46.0870   34.6930   43.3510 C   0  0  0  0  0  0  0  0  0  0  0  0
   46.3810   33.8010   44.3420 N   0  0  0  0  0  0  0  0  0  0  0  0
   45.7640   33.8440   45.5660 C   0  0  0  0  0  0  0  0  0  0  0  0
   44.8350   34.7870   45.8210 N   0  0  0  0  0  0  0  0  0  0  0  0
   44.7270   31.6510   49.8240 O   0  0  0  0  0  0  0  0  0  0  0  0
   44.3706   33.3170   47.7895 H   0  0  0  0  0  0  0  0  0  0  0  0
   46.9912   30.3618   49.3115 H   0  0  0  0  0  0  0  0  0  0  0  0
   48.4764   30.6357   47.3598 H   0  0  0  0  0  0  0  0  0  0  0  0
   43.7694   36.4376   45.0920 H   0  0  0  0  0  0  0  0  0  0  0  0
   44.8600   36.4107   42.8349 H   0  0  0  0  0  0  0  0  0  0  0  0
   46.5952   34.6390   42.3769 H   0  0  0  0  0  0  0  0  0  0  0  0
   44.9580   30.9958   50.5293 H   0  0  0  0  0  0  0  0  0  0  0  0
  1  2  2  0
  2  3  1  0
  3 13  1  0
  4  3  2  0
  5  4  1  0
  6  1  1  0
  6  5  2  0
  7 12  2  0
  8  7  1  0
  9  8  2  0
  9 10  1  0
 10 11  2  0
 11 12  1  0
 11  1  1  0
  2 14  1  0
  4 15  1  0
  5 16  1  0
  7 17  1  0
  8 18  1  0
  9 19  1  0
 13 20  1  0
M  ISO  7  14  14  15  14  16  14  17  14  18  14  19  14  20   3
M  END
>  <minimizedAffinity>  (1) 
-4.91084576

>  <minimizedRMSD>  (1) 
0.362203658

$$$$
