
     RDKit          3D

 41 44  0  0  0  0  0  0  0  0999 V2000
   44.9490   35.4700   45.0590 C   0  0  0  0  0  0  0  0  0  0  0  0
   44.1780   35.6590   43.8880 C   0  0  0  0  0  0  0  0  0  0  0  0
   44.1730   34.6430   42.9480 C   0  0  0  0  0  0  0  0  0  0  0  0
   44.8810   33.5150   43.1480 N   0  0  0  0  0  0  0  0  0  0  0  0
   45.6210   33.3510   44.2870 C   0  0  0  0  0  0  0  0  0  0  0  0
   45.6420   34.3290   45.2210 N   0  0  0  0  0  0  0  0  0  0  0  0
   43.3920   34.8520   41.7770 N   0  0  0  0  0  0  0  0  0  0  0  0
   42.1010   35.2430   41.7260 C   0  0  0  0  0  0  0  0  0  0  0  0
   41.4880   35.4000   40.5040 C   0  0  0  0  0  0  0  0  0  0  0  0
   42.1480   35.1750   39.3190 C   0  0  0  0  0  0  0  0  0  0  0  0
   41.5940   35.3180   38.2010 O   0  0  0  0  0  0  0  0  0  0  0  0
   43.4390   34.7860   39.4160 N   0  0  0  0  0  0  0  0  0  0  0  0
   44.0380   34.6320   40.6210 C   0  0  0  0  0  0  0  0  0  0  0  0
   45.2480   34.2640   40.5450 O   0  0  0  0  0  0  0  0  0  0  0  0
   40.0760   35.8270   40.4560 C   0  0  0  0  0  0  0  0  0  0  0  0
   46.3790   32.1340   44.4940 C   0  0  0  0  0  0  0  0  0  0  0  0
   46.9610   31.3140   43.5220 C   0  0  0  0  0  0  0  0  0  0  0  0
   47.5890   30.2630   44.1160 N   0  0  0  0  0  0  0  0  0  0  0  0
   47.3930   30.4360   45.4570 C   0  0  0  0  0  0  0  0  0  0  0  0
   46.6720   31.5510   45.6820 N   0  0  0  0  0  0  0  0  0  0  0  0
   47.9270   29.4950   46.4330 C   0  0  0  0  0  0  0  0  0  0  0  0
   47.3350   28.2470   46.6390 C   0  0  0  0  0  0  0  0  0  0  0  0
   47.8870   27.4000   47.5760 C   0  0  0  0  0  0  0  0  0  0  0  0
   48.9800   27.7490   48.2930 N   0  0  0  0  0  0  0  0  0  0  0  0
   49.5370   28.9530   48.0810 C   0  0  0  0  0  0  0  0  0  0  0  0
   49.0250   29.8080   47.1740 N   0  0  0  0  0  0  0  0  0  0  0  0
   46.2640   32.0670   46.9690 C   0  0  0  0  0  0  0  0  0  0  0  0
   46.2010   31.0660   47.9590 F   0  0  0  0  0  0  0  0  0  0  0  0
   45.0180   32.6980   46.9210 F   0  0  0  0  0  0  0  0  0  0  0  0
   47.2060   32.9830   47.4550 F   0  0  0  0  0  0  0  0  0  0  0  0
   44.9814   36.2516   45.8323 H   0  0  0  0  0  0  0  0  0  0  0  0
   43.6017   36.5825   43.7298 H   0  0  0  0  0  0  0  0  0  0  0  0
   41.5431   35.4347   42.6544 H   0  0  0  0  0  0  0  0  0  0  0  0
   43.9774   34.6032   38.5572 H   0  0  0  0  0  0  0  0  0  0  0  0
   39.6929   35.9428   41.4806 H   0  0  0  0  0  0  0  0  0  0  0  0
   40.0013   36.7879   39.9258 H   0  0  0  0  0  0  0  0  0  0  0  0
   39.4814   35.0685   39.9258 H   0  0  0  0  0  0  0  0  0  0  0  0
   46.9175   31.4923   42.4374 H   0  0  0  0  0  0  0  0  0  0  0  0
   46.4462   27.9460   46.0651 H   0  0  0  0  0  0  0  0  0  0  0  0
   47.4271   26.4152   47.7451 H   0  0  0  0  0  0  0  0  0  0  0  0
   50.4266   29.2460   48.6579 H   0  0  0  0  0  0  0  0  0  0  0  0
  1  6  2  0
  2  1  1  0
  3  4  1  0
  3  2  2  0
  4  5  2  0
  5 16  1  0
  5  6  1  0
  7  3  1  0
  8  7  1  0
  9  8  2  0
 10 12  1  0
 10  9  1  0
 11 10  2  0
 12 13  1  0
 13  7  1  0
 14 13  2  0
 15  9  1  0
 16 20  1  0
 17 18  1  0
 17 16  2  0
 18 19  2  0
 19 20  1  0
 19 21  1  0
 20 27  1  0
 21 22  2  0
 21 26  1  0
 22 23  1  0
 23 24  2  0
 25 24  1  0
 26 25  2  0
 27 30  1  0
 27 28  1  0
 29 27  1  0
  1 31  1  0
  2 32  1  0
  8 33  1  0
 12 34  1  0
 15 35  1  0
 15 36  1  0
 15 37  1  0
 17 38  1  0
 22 39  1  0
 23 40  1  0
 25 41  1  0
M  ISO  8  31  14  32  14  33  14  34   9  35   8  36   8  37   8  38  14
M  ISO  3  39  14  40  14  41  14
M  END
>  <minimizedAffinity>  (1) 
-6.22559404

>  <minimizedRMSD>  (1) 
1.14897203

$$$$
