
     RDKit          3D

 26 27  0  0  0  0  0  0  0  0999 V2000
   46.3900   32.6110   44.9440 C   0  0  0  0  0  0  0  0  0  0  0  0
   45.8500   32.1330   46.1210 C   0  0  0  0  0  0  0  0  0  0  0  0
   46.2300   30.9340   46.7110 C   0  0  0  0  0  0  0  0  0  0  0  0
   47.1940   30.2540   46.0210 C   0  0  0  0  0  0  0  0  0  0  0  0
   47.7600   30.6840   44.8510 C   0  0  0  0  0  0  0  0  0  0  0  0
   47.3230   31.8560   44.3660 N   0  0  0  0  0  0  0  0  0  0  0  0
   44.6570   35.7830   44.5200 C   0  0  0  0  0  0  0  0  0  0  0  0
   45.1300   36.2670   43.2850 C   0  0  0  0  0  0  0  0  0  0  0  0
   46.0520   35.4770   42.6130 C   0  0  0  0  0  0  0  0  0  0  0  0
   46.4580   34.2860   43.1610 N   0  0  0  0  0  0  0  0  0  0  0  0
   45.9550   33.8740   44.3700 C   0  0  0  0  0  0  0  0  0  0  0  0
   45.0580   34.6230   45.0420 N   0  0  0  0  0  0  0  0  0  0  0  0
   45.6140   30.5510   47.9320 N   0  0  0  0  0  0  0  0  0  0  0  0
   46.0780   31.0470   49.1630 C   0  0  0  0  0  0  0  0  0  0  0  0
   47.3270   31.0690   49.4500 N   0  0  0  0  0  0  0  0  0  0  0  0
   45.1140   31.5350   50.1240 N   0  0  0  0  0  0  0  0  0  0  0  0
   48.0170   30.7140   48.7670 H   0  0  0  0  0  0  0  0  0  0  0  0
   45.0758   32.7348   46.6195 H   0  0  0  0  0  0  0  0  0  0  0  0
   47.5390   29.2948   46.4344 H   0  0  0  0  0  0  0  0  0  0  0  0
   48.5343   30.0979   44.3344 H   0  0  0  0  0  0  0  0  0  0  0  0
   43.9261   36.3870   45.0776 H   0  0  0  0  0  0  0  0  0  0  0  0
   44.7848   37.2264   42.8723 H   0  0  0  0  0  0  0  0  0  0  0  0
   46.4563   35.8044   41.6438 H   0  0  0  0  0  0  0  0  0  0  0  0
   44.8157   29.9004   47.9154 H   0  0  0  0  0  0  0  0  0  0  0  0
   45.4326   31.9026   51.0319 H   0  0  0  0  0  0  0  0  0  0  0  0
   44.1087   31.5150   49.9006 H   0  0  0  0  0  0  0  0  0  0  0  0
  1  2  2  0
  2  3  1  0
  3 13  1  0
  4  3  2  0
  5  4  1  0
  6  5  2  0
  6  1  1  0
  7 12  2  0
  8  7  1  0
  9 10  1  0
  9  8  2  0
 10 11  2  0
 11  1  1  0
 11 12  1  0
 13 14  1  0
 14 15  2  0
 14 16  1  0
 17 15  1  0
  2 18  1  0
  4 19  1  0
  5 20  1  0
  7 21  1  0
  8 22  1  0
  9 23  1  0
 13 24  1  0
 16 25  1  0
 16 26  1  0
M  ISO  6  18  14  19  14  20  14  21  14  22  14  23  14
M  END
>  <minimizedAffinity>  (1) 
-5.05693388

>  <minimizedRMSD>  (1) 
2.21985006

$$$$
