
     RDKit          3D

 24 26  0  0  0  0  0  0  0  0999 V2000
   45.6820   33.9760   45.5150 C   0  0  0  0  0  0  0  0  0  0  0  0
   46.3110   33.9520   44.2860 C   0  0  0  0  0  0  0  0  0  0  0  0
   46.0420   34.8630   43.2880 C   0  0  0  0  0  0  0  0  0  0  0  0
   45.0990   35.8060   43.6030 C   0  0  0  0  0  0  0  0  0  0  0  0
   44.4470   35.8690   44.8150 C   0  0  0  0  0  0  0  0  0  0  0  0
   44.7690   34.9430   45.7270 N   0  0  0  0  0  0  0  0  0  0  0  0
   47.3520   31.2990   47.3310 C   0  0  0  0  0  0  0  0  0  0  0  0
   46.5630   31.1580   48.5050 C   0  0  0  0  0  0  0  0  0  0  0  0
   45.4610   31.9880   48.6610 C   0  0  0  0  0  0  0  0  0  0  0  0
   45.2190   32.8810   47.6680 N   0  0  0  0  0  0  0  0  0  0  0  0
   45.9840   32.9970   46.5590 C   0  0  0  0  0  0  0  0  0  0  0  0
   47.0510   32.2000   46.3960 N   0  0  0  0  0  0  0  0  0  0  0  0
   46.7490   34.7560   42.0410 C   0  0  0  0  0  0  0  0  0  0  0  0
   46.4310   34.2240   40.8450 N   0  0  0  0  0  0  0  0  0  0  0  0
   47.4340   34.3870   40.0300 O   0  0  0  0  0  0  0  0  0  0  0  0
   48.4010   35.0010   40.6250 C   0  0  0  0  0  0  0  0  0  0  0  0
   48.0130   35.2530   41.8960 N   0  0  0  0  0  0  0  0  0  0  0  0
   47.0608   33.1701   44.0951 H   0  0  0  0  0  0  0  0  0  0  0  0
   44.8472   36.5588   42.8415 H   0  0  0  0  0  0  0  0  0  0  0  0
   43.6959   36.6449   45.0240 H   0  0  0  0  0  0  0  0  0  0  0  0
   48.2296   30.6508   47.1912 H   0  0  0  0  0  0  0  0  0  0  0  0
   46.8190   30.4104   49.2703 H   0  0  0  0  0  0  0  0  0  0  0  0
   44.8140   31.9248   49.5483 H   0  0  0  0  0  0  0  0  0  0  0  0
   49.3689   35.2714   40.1777 H   0  0  0  0  0  0  0  0  0  0  0  0
  1  6  1  0
  1 11  1  0
  2  1  2  0
  3  4  2  0
  3  2  1  0
  4  5  1  0
  5  6  2  0
  7  8  2  0
  8  9  1  0
 10  9  2  0
 11 10  1  0
 12 11  2  0
 12  7  1  0
 13  3  1  0
 14 13  2  0
 15 16  1  0
 15 14  1  0
 16 17  2  0
 17 13  1  0
  2 18  1  0
  4 19  1  0
  5 20  1  0
  7 21  1  0
  8 22  1  0
  9 23  1  0
 16 24  1  0
M  ISO  7  18  14  19  14  20  14  21  14  22  14  23  14  24  14
M  END
>  <minimizedAffinity>  (1) 
-5.74993706

>  <minimizedRMSD>  (1) 
7.34073639

$$$$
