
     RDKit          3D

 37 40  0  0  0  0  0  0  0  0999 V2000
   44.4520   36.0170   44.4690 C   0  0  0  0  0  0  0  0  0  0  0  0
   45.1410   36.1010   43.2370 C   0  0  0  0  0  0  0  0  0  0  0  0
   46.1350   35.1330   42.9640 C   0  0  0  0  0  0  0  0  0  0  0  0
   46.3750   34.1830   43.8870 N   0  0  0  0  0  0  0  0  0  0  0  0
   45.6840   34.1370   45.0680 C   0  0  0  0  0  0  0  0  0  0  0  0
   44.7400   35.0520   45.3350 N   0  0  0  0  0  0  0  0  0  0  0  0
   46.0480   33.0660   45.9570 N   0  0  0  0  0  0  0  0  0  0  0  0
   45.7050   32.8810   47.2530 C   0  0  0  0  0  0  0  0  0  0  0  0
   46.2840   31.7440   47.6550 N   0  0  0  0  0  0  0  0  0  0  0  0
   46.9890   31.1890   46.6680 C   0  0  0  0  0  0  0  0  0  0  0  0
   47.7570   30.0200   46.5960 C   0  0  0  0  0  0  0  0  0  0  0  0
   48.3390   29.7700   45.4090 N   0  0  0  0  0  0  0  0  0  0  0  0
   48.1780   30.6060   44.3690 C   0  0  0  0  0  0  0  0  0  0  0  0
   47.4350   31.7450   44.4260 N   0  0  0  0  0  0  0  0  0  0  0  0
   46.8370   32.0270   45.6000 C   0  0  0  0  0  0  0  0  0  0  0  0
   48.8330   30.3170   43.0450 C   0  0  0  0  0  0  0  0  0  0  0  0
   48.7340   31.4160   42.2240 F   0  0  0  0  0  0  0  0  0  0  0  0
   48.2210   29.2460   42.4410 F   0  0  0  0  0  0  0  0  0  0  0  0
   50.1690   30.1100   43.2450 F   0  0  0  0  0  0  0  0  0  0  0  0
   47.9200   29.1160   47.7530 C   0  0  0  0  0  0  0  0  0  0  0  0
   49.1630   29.5030   48.4600 C   0  0  0  0  0  0  0  0  0  0  0  0
   50.4620   29.1070   48.3250 C   0  0  0  0  0  0  0  0  0  0  0  0
   51.2240   29.8000   49.2580 C   0  0  0  0  0  0  0  0  0  0  0  0
   50.3900   30.5970   49.9390 N   0  0  0  0  0  0  0  0  0  0  0  0
   49.1730   30.4120   49.4570 N   0  0  0  0  0  0  0  0  0  0  0  0
   50.6590   31.5370   51.0280 C   0  0  0  0  0  0  0  0  0  0  0  0
   43.6732   36.7550   44.7115 H   0  0  0  0  0  0  0  0  0  0  0  0
   44.9105   36.8959   42.5124 H   0  0  0  0  0  0  0  0  0  0  0  0
   46.6988   35.1558   42.0197 H   0  0  0  0  0  0  0  0  0  0  0  0
   45.0696   33.5414   47.8614 H   0  0  0  0  0  0  0  0  0  0  0  0
   47.0584   29.2155   48.4296 H   0  0  0  0  0  0  0  0  0  0  0  0
   47.9792   28.0701   47.4174 H   0  0  0  0  0  0  0  0  0  0  0  0
   50.8401   28.3679   47.6033 H   0  0  0  0  0  0  0  0  0  0  0  0
   52.3099   29.7107   49.4092 H   0  0  0  0  0  0  0  0  0  0  0  0
   50.5141   31.0306   51.9937 H   0  0  0  0  0  0  0  0  0  0  0  0
   51.6960   31.8964   50.9544 H   0  0  0  0  0  0  0  0  0  0  0  0
   49.9691   32.3906   50.9544 H   0  0  0  0  0  0  0  0  0  0  0  0
  1  6  2  0
  2  1  1  0
  3  2  2  0
  3  4  1  0
  4  5  2  0
  5  6  1  0
  5  7  1  0
  7  8  1  0
  8  9  2  0
 10  9  1  0
 11 10  2  0
 11 20  1  0
 12 11  1  0
 13 14  1  0
 13 12  2  0
 14 15  2  0
 15  7  1  0
 15 10  1  0
 16 19  1  0
 16 13  1  0
 17 16  1  0
 18 16  1  0
 20 21  1  0
 21 25  2  0
 22 21  1  0
 22 23  2  0
 23 24  1  0
 24 26  1  0
 25 24  1  0
  1 27  1  0
  2 28  1  0
  3 29  1  0
  8 30  1  0
 20 31  1  0
 20 32  1  0
 22 33  1  0
 23 34  1  0
 26 35  1  0
 26 36  1  0
 26 37  1  0
M  ISO  8  27  14  28  14  29  14  30  14  31   8  32   8  33  14  34  14
M  ISO  3  35   8  36   8  37   8
M  END
>  <minimizedAffinity>  (1) 
-5.57544804

>  <minimizedRMSD>  (1) 
0.450015992

$$$$
