
     RDKit          3D

 33 36  0  0  0  0  0  0  0  0999 V2000
   45.2630   33.7090   41.7650 C   0  0  0  0  0  0  0  0  0  0  0  0
   44.9700   33.5290   43.1010 C   0  0  0  0  0  0  0  0  0  0  0  0
   45.8700   33.8710   44.0950 C   0  0  0  0  0  0  0  0  0  0  0  0
   47.0730   34.4010   43.6430 C   0  0  0  0  0  0  0  0  0  0  0  0
   47.3930   34.5910   42.3270 C   0  0  0  0  0  0  0  0  0  0  0  0
   46.4560   34.2280   41.4540 N   0  0  0  0  0  0  0  0  0  0  0  0
   45.5570   33.6800   45.5070 C   0  0  0  0  0  0  0  0  0  0  0  0
   44.6500   34.5130   46.1720 C   0  0  0  0  0  0  0  0  0  0  0  0
   44.5790   34.0790   47.4530 N   0  0  0  0  0  0  0  0  0  0  0  0
   45.4030   33.0160   47.6030 C   0  0  0  0  0  0  0  0  0  0  0  0
   45.6890   32.2270   48.6920 C   0  0  0  0  0  0  0  0  0  0  0  0
   46.5880   31.1790   48.5760 C   0  0  0  0  0  0  0  0  0  0  0  0
   47.1840   30.9500   47.3520 C   0  0  0  0  0  0  0  0  0  0  0  0
   46.9220   31.7220   46.2360 C   0  0  0  0  0  0  0  0  0  0  0  0
   46.0230   32.7550   46.3870 C   0  0  0  0  0  0  0  0  0  0  0  0
   42.0810   33.1180   40.0770 C   0  0  0  0  0  0  0  0  0  0  0  0
   42.4670   32.6460   38.8050 C   0  0  0  0  0  0  0  0  0  0  0  0
   43.8450   32.5350   38.5360 C   0  0  0  0  0  0  0  0  0  0  0  0
   44.7420   32.8860   39.5120 N   0  0  0  0  0  0  0  0  0  0  0  0
   44.2960   33.3380   40.7300 C   0  0  0  0  0  0  0  0  0  0  0  0
   42.9850   33.4460   40.9900 N   0  0  0  0  0  0  0  0  0  0  0  0
   43.9961   33.1027   43.3834 H   0  0  0  0  0  0  0  0  0  0  0  0
   47.8205   34.6879   44.3973 H   0  0  0  0  0  0  0  0  0  0  0  0
   48.3580   35.0145   42.0117 H   0  0  0  0  0  0  0  0  0  0  0  0
   44.0991   35.3598   45.7367 H   0  0  0  0  0  0  0  0  0  0  0  0
   43.9929   34.4911   48.1930 H   0  0  0  0  0  0  0  0  0  0  0  0
   45.2028   32.4282   49.6580 H   0  0  0  0  0  0  0  0  0  0  0  0
   46.8221   30.5422   49.4419 H   0  0  0  0  0  0  0  0  0  0  0  0
   47.8976   30.1179   47.2611 H   0  0  0  0  0  0  0  0  0  0  0  0
   47.4093   31.5207   45.2706 H   0  0  0  0  0  0  0  0  0  0  0  0
   41.0117   33.2157   40.3157 H   0  0  0  0  0  0  0  0  0  0  0  0
   41.7166   32.3736   38.0482 H   0  0  0  0  0  0  0  0  0  0  0  0
   44.1961   32.1725   37.5586 H   0  0  0  0  0  0  0  0  0  0  0  0
  1  2  2  0
  2  3  1  0
  3  7  1  0
  4  3  2  0
  5  4  1  0
  6  1  1  0
  6  5  2  0
  7  8  2  0
  7 15  1  0
  8  9  1  0
  9 10  1  0
 10 11  2  0
 12 11  1  0
 13 12  2  0
 14 15  2  0
 14 13  1  0
 15 10  1  0
 16 21  2  0
 17 16  1  0
 18 17  2  0
 18 19  1  0
 19 20  2  0
 20 21  1  0
 20  1  1  0
  2 22  1  0
  4 23  1  0
  5 24  1  0
  8 25  1  0
  9 26  1  0
 11 27  1  0
 12 28  1  0
 13 29  1  0
 14 30  1  0
 16 31  1  0
 17 32  1  0
 18 33  1  0
M  ISO  8  22  14  23  14  24  14  25  14  26   9  27  14  28  14  29  14
M  ISO  4  30  14  31  14  32  14  33  14
M  END
>  <minimizedAffinity>  (1) 
-5.55272865

>  <minimizedRMSD>  (1) 
5.70737123

$$$$
