
     RDKit          3D

 28 30  0  0  0  0  0  0  0  0999 V2000
   46.0010   32.7550   43.2880 C   0  0  0  0  0  0  0  0  0  0  0  0
   45.7040   32.5180   44.6210 C   0  0  0  0  0  0  0  0  0  0  0  0
   46.4610   31.6760   45.4060 C   0  0  0  0  0  0  0  0  0  0  0  0
   47.5320   31.0840   44.7870 C   0  0  0  0  0  0  0  0  0  0  0  0
   47.8560   31.2950   43.4690 C   0  0  0  0  0  0  0  0  0  0  0  0
   47.0650   32.1300   42.7800 N   0  0  0  0  0  0  0  0  0  0  0  0
   44.0020   35.6530   42.3150 C   0  0  0  0  0  0  0  0  0  0  0  0
   43.6380   35.3610   40.9860 C   0  0  0  0  0  0  0  0  0  0  0  0
   44.0890   34.1530   40.4260 C   0  0  0  0  0  0  0  0  0  0  0  0
   44.8580   33.3240   41.2010 N   0  0  0  0  0  0  0  0  0  0  0  0
   45.1830   33.6510   42.4820 C   0  0  0  0  0  0  0  0  0  0  0  0
   44.7490   34.8090   43.0160 N   0  0  0  0  0  0  0  0  0  0  0  0
   46.0750   31.4840   46.7990 C   0  0  0  0  0  0  0  0  0  0  0  0
   46.2450   32.4410   47.7650 C   0  0  0  0  0  0  0  0  0  0  0  0
   45.8500   32.1810   49.0820 C   0  0  0  0  0  0  0  0  0  0  0  0
   45.2890   30.9590   49.3900 C   0  0  0  0  0  0  0  0  0  0  0  0
   45.1330   30.0200   48.3920 C   0  0  0  0  0  0  0  0  0  0  0  0
   45.5290   30.3100   47.1320 N   0  0  0  0  0  0  0  0  0  0  0  0
   44.8332   33.0199   45.0679 H   0  0  0  0  0  0  0  0  0  0  0  0
   48.1647   30.4046   45.3769 H   0  0  0  0  0  0  0  0  0  0  0  0
   48.7219   30.8031   43.0017 H   0  0  0  0  0  0  0  0  0  0  0  0
   43.6631   36.5918   42.7775 H   0  0  0  0  0  0  0  0  0  0  0  0
   43.0185   36.0583   40.4029 H   0  0  0  0  0  0  0  0  0  0  0  0
   43.8313   33.8799   39.3921 H   0  0  0  0  0  0  0  0  0  0  0  0
   46.6914   33.4123   47.5055 H   0  0  0  0  0  0  0  0  0  0  0  0
   45.9854   32.9431   49.8635 H   0  0  0  0  0  0  0  0  0  0  0  0
   44.9700   30.7362   50.4189 H   0  0  0  0  0  0  0  0  0  0  0  0
   44.6886   29.0399   48.6199 H   0  0  0  0  0  0  0  0  0  0  0  0
  1  2  2  0
  2  3  1  0
  3 13  1  0
  4  3  2  0
  5  4  1  0
  6  1  1  0
  6  5  2  0
  7 12  2  0
  8  7  1  0
  9  8  2  0
  9 10  1  0
 10 11  2  0
 11 12  1  0
 11  1  1  0
 13 18  1  0
 13 14  2  0
 14 15  1  0
 15 16  2  0
 17 16  1  0
 18 17  2  0
  2 19  1  0
  4 20  1  0
  5 21  1  0
  7 22  1  0
  8 23  1  0
  9 24  1  0
 14 25  1  0
 15 26  1  0
 16 27  1  0
 17 28  1  0
M  ISO  8  19  14  20  14  21  14  22  14  23  14  24  14  25  14  26  14
M  ISO  2  27  14  28  14
M  END
>  <minimizedAffinity>  (1) 
-4.54134655

>  <minimizedRMSD>  (1) 
3.69055653

$$$$
