
     RDKit          3D

 25 26  0  0  0  0  0  0  0  0999 V2000
   46.5100   32.7500   45.4600 C   0  0  0  0  0  0  0  0  0  0  0  0
   46.4140   32.6370   46.8430 C   0  0  0  0  0  0  0  0  0  0  0  0
   46.9180   31.5230   47.5050 C   0  0  0  0  0  0  0  0  0  0  0  0
   47.5020   30.5620   46.7160 C   0  0  0  0  0  0  0  0  0  0  0  0
   47.6050   30.6530   45.3530 C   0  0  0  0  0  0  0  0  0  0  0  0
   47.0980   31.7600   44.7660 N   0  0  0  0  0  0  0  0  0  0  0  0
   44.5440   35.7480   44.7790 C   0  0  0  0  0  0  0  0  0  0  0  0
   44.9840   36.1430   43.4790 C   0  0  0  0  0  0  0  0  0  0  0  0
   45.9550   35.3610   42.8660 C   0  0  0  0  0  0  0  0  0  0  0  0
   46.4310   34.2690   43.5300 N   0  0  0  0  0  0  0  0  0  0  0  0
   45.9760   33.9300   44.7780 C   0  0  0  0  0  0  0  0  0  0  0  0
   45.0370   34.6690   45.3930 N   0  0  0  0  0  0  0  0  0  0  0  0
   46.7850   31.4640   48.9840 C   0  0  0  0  0  0  0  0  0  0  0  0
   45.3510   31.3660   49.4360 C   0  0  0  0  0  0  0  0  0  0  0  0
   45.9328   33.4398   47.4208 H   0  0  0  0  0  0  0  0  0  0  0  0
   47.9109   29.6669   47.2075 H   0  0  0  0  0  0  0  0  0  0  0  0
   48.0808   29.8577   44.7605 H   0  0  0  0  0  0  0  0  0  0  0  0
   43.7772   36.3495   45.2892 H   0  0  0  0  0  0  0  0  0  0  0  0
   44.5698   37.0326   42.9819 H   0  0  0  0  0  0  0  0  0  0  0  0
   46.3323   35.6175   41.8651 H   0  0  0  0  0  0  0  0  0  0  0  0
   47.3307   30.5824   49.3514 H   0  0  0  0  0  0  0  0  0  0  0  0
   47.1986   32.3980   49.3921 H   0  0  0  0  0  0  0  0  0  0  0  0
   45.3124   31.3634   50.5353 H   0  0  0  0  0  0  0  0  0  0  0  0
   44.7856   32.2276   49.0513 H   0  0  0  0  0  0  0  0  0  0  0  0
   44.9081   30.4355   49.0513 H   0  0  0  0  0  0  0  0  0  0  0  0
  1  2  2  0
  2  3  1  0
  3 13  1  0
  4  3  2  0
  5  4  1  0
  6  5  2  0
  6  1  1  0
  7 12  2  0
  8  7  1  0
  9  8  2  0
  9 10  1  0
 10 11  2  0
 11 12  1  0
 11  1  1  0
 13 14  1  0
  2 15  1  0
  4 16  1  0
  5 17  1  0
  7 18  1  0
  8 19  1  0
  9 20  1  0
 13 21  1  0
 13 22  1  0
 14 23  1  0
 14 24  1  0
 14 25  1  0
M  ISO  8  15  14  16  14  17  14  18  14  19  14  20  14  21   8  22   8
M  ISO  3  23   8  24   8  25   8
M  END
>  <minimizedAffinity>  (1) 
-4.67732143

>  <minimizedRMSD>  (1) 
1.82626331

$$$$
