
     RDKit          3D

 25 27  0  0  0  0  0  0  0  0999 V2000
   47.6980   32.0360   44.0650 C   0  0  0  0  0  0  0  0  0  0  0  0
   47.0110   32.1170   45.2740 C   0  0  0  0  0  0  0  0  0  0  0  0
   46.7760   30.9930   46.0480 C   0  0  0  0  0  0  0  0  0  0  0  0
   47.2600   29.8120   45.5460 C   0  0  0  0  0  0  0  0  0  0  0  0
   47.9390   29.6970   44.3620 C   0  0  0  0  0  0  0  0  0  0  0  0
   48.1220   30.8350   43.6800 N   0  0  0  0  0  0  0  0  0  0  0  0
   47.0870   35.1210   42.2050 C   0  0  0  0  0  0  0  0  0  0  0  0
   48.3790   35.5010   41.7830 C   0  0  0  0  0  0  0  0  0  0  0  0
   49.4600   34.6810   42.1490 C   0  0  0  0  0  0  0  0  0  0  0  0
   49.2030   33.5660   42.8890 N   0  0  0  0  0  0  0  0  0  0  0  0
   47.9310   33.2430   43.2720 C   0  0  0  0  0  0  0  0  0  0  0  0
   46.8930   34.0190   42.9270 N   0  0  0  0  0  0  0  0  0  0  0  0
   46.0670   31.1400   47.2740 N   0  0  0  0  0  0  0  0  0  0  0  0
   45.0470   30.5660   47.9250 C   0  0  0  0  0  0  0  0  0  0  0  0
   44.8730   31.2190   49.1030 N   0  0  0  0  0  0  0  0  0  0  0  0
   45.7930   32.1990   49.1710 C   0  0  0  0  0  0  0  0  0  0  0  0
   46.5340   32.1440   48.0290 N   0  0  0  0  0  0  0  0  0  0  0  0
   46.6472   33.0952   45.6215 H   0  0  0  0  0  0  0  0  0  0  0  0
   47.0918   28.8969   46.1328 H   0  0  0  0  0  0  0  0  0  0  0  0
   48.3111   28.7295   43.9939 H   0  0  0  0  0  0  0  0  0  0  0  0
   46.2243   35.7467   41.9325 H   0  0  0  0  0  0  0  0  0  0  0  0
   48.5351   36.4114   41.1857 H   0  0  0  0  0  0  0  0  0  0  0  0
   50.4870   34.9327   41.8460 H   0  0  0  0  0  0  0  0  0  0  0  0
   44.4525   29.7125   47.5671 H   0  0  0  0  0  0  0  0  0  0  0  0
   45.9229   32.9135   49.9972 H   0  0  0  0  0  0  0  0  0  0  0  0
  1  2  2  0
  2  3  1  0
  3 13  1  0
  4  3  2  0
  5  4  1  0
  6  1  1  0
  6  5  2  0
  7 12  2  0
  8  9  2  0
  8  7  1  0
  9 10  1  0
 10 11  2  0
 11  1  1  0
 12 11  1  0
 13 14  1  0
 13 17  1  0
 14 15  2  0
 15 16  1  0
 17 16  2  0
  2 18  1  0
  4 19  1  0
  5 20  1  0
  7 21  1  0
  8 22  1  0
  9 23  1  0
 14 24  1  0
 16 25  1  0
M  ISO  8  18  14  19  14  20  14  21  14  22  14  23  14  24  14  25  14
M  END
>  <minimizedAffinity>  (1) 
-4.33628416

>  <minimizedRMSD>  (1) 
3.50914264

$$$$
