
     RDKit          3D

 31 33  0  0  0  0  0  0  0  0999 V2000
   46.1870   32.8580   43.9310 C   0  0  0  0  0  0  0  0  0  0  0  0
   45.9130   32.5530   45.2530 C   0  0  0  0  0  0  0  0  0  0  0  0
   46.5960   31.5510   45.9150 C   0  0  0  0  0  0  0  0  0  0  0  0
   47.5550   30.8750   45.2010 C   0  0  0  0  0  0  0  0  0  0  0  0
   47.8510   31.1520   43.8920 C   0  0  0  0  0  0  0  0  0  0  0  0
   47.1420   32.1390   43.3230 N   0  0  0  0  0  0  0  0  0  0  0  0
   44.9360   36.1640   43.0330 C   0  0  0  0  0  0  0  0  0  0  0  0
   44.1000   35.9110   41.9230 C   0  0  0  0  0  0  0  0  0  0  0  0
   43.9780   34.5930   41.4950 C   0  0  0  0  0  0  0  0  0  0  0  0
   44.6660   33.6150   42.1620 N   0  0  0  0  0  0  0  0  0  0  0  0
   45.4650   33.9150   43.2360 C   0  0  0  0  0  0  0  0  0  0  0  0
   45.5890   35.1760   43.6550 N   0  0  0  0  0  0  0  0  0  0  0  0
   46.3120   31.2400   47.2730 N   0  0  0  0  0  0  0  0  0  0  0  0
   45.9430   29.9570   47.8200 C   0  0  0  0  0  0  0  0  0  0  0  0
   45.0890   30.2320   49.0350 C   0  0  0  0  0  0  0  0  0  0  0  0
   45.4440   31.6410   49.4470 C   0  0  0  0  0  0  0  0  0  0  0  0
   46.3460   32.1860   48.3670 C   0  0  0  0  0  0  0  0  0  0  0  0
   45.1361   33.1196   45.7871 H   0  0  0  0  0  0  0  0  0  0  0  0
   48.1128   30.0718   45.7047 H   0  0  0  0  0  0  0  0  0  0  0  0
   48.6244   30.5978   43.3401 H   0  0  0  0  0  0  0  0  0  0  0  0
   45.0527   37.1965   43.3940 H   0  0  0  0  0  0  0  0  0  0  0  0
   43.5646   36.7268   41.4152 H   0  0  0  0  0  0  0  0  0  0  0  0
   43.3397   34.3408   40.6354 H   0  0  0  0  0  0  0  0  0  0  0  0
   45.3721   29.3788   47.0785 H   0  0  0  0  0  0  0  0  0  0  0  0
   46.8341   29.3701   48.0876 H   0  0  0  0  0  0  0  0  0  0  0  0
   44.0209   30.1600   48.7819 H   0  0  0  0  0  0  0  0  0  0  0  0
   45.2695   29.5062   49.8416 H   0  0  0  0  0  0  0  0  0  0  0  0
   44.5344   32.2542   49.5284 H   0  0  0  0  0  0  0  0  0  0  0  0
   45.9418   31.6563   50.4278 H   0  0  0  0  0  0  0  0  0  0  0  0
   47.3731   32.2872   48.7476 H   0  0  0  0  0  0  0  0  0  0  0  0
   46.0094   33.1802   48.0380 H   0  0  0  0  0  0  0  0  0  0  0  0
  1  2  2  0
  2  3  1  0
  3 13  1  0
  4  3  2  0
  5  4  1  0
  6  5  2  0
  6  1  1  0
  7 12  2  0
  8  7  1  0
  9  8  2  0
  9 10  1  0
 10 11  2  0
 11 12  1  0
 11  1  1  0
 13 14  1  0
 13 17  1  0
 14 15  1  0
 15 16  1  0
 17 16  1  0
  2 18  1  0
  4 19  1  0
  5 20  1  0
  7 21  1  0
  8 22  1  0
  9 23  1  0
 14 24  1  0
 14 25  1  0
 15 26  1  0
 15 27  1  0
 16 28  1  0
 16 29  1  0
 17 30  1  0
 17 31  1  0
M  ISO  8  18  14  19  14  20  14  21  14  22  14  23  14  24  13  25  13
M  ISO  6  26  13  27  13  28  13  29  13  30  13  31  13
M  END
>  <minimizedAffinity>  (1) 
-4.27123117

>  <minimizedRMSD>  (1) 
3.23606253

$$$$
