
     RDKit          3D

 26 28  0  0  0  0  0  0  0  0999 V2000
   46.0680   32.9190   43.9850 C   0  0  0  0  0  0  0  0  0  0  0  0
   45.6700   32.6090   45.2800 C   0  0  0  0  0  0  0  0  0  0  0  0
   46.2970   31.6390   46.0360 C   0  0  0  0  0  0  0  0  0  0  0  0
   47.3420   31.0010   45.4210 C   0  0  0  0  0  0  0  0  0  0  0  0
   47.7710   31.2800   44.1300 C   0  0  0  0  0  0  0  0  0  0  0  0
   47.1000   32.2390   43.4720 N   0  0  0  0  0  0  0  0  0  0  0  0
   44.8700   36.1920   42.8940 C   0  0  0  0  0  0  0  0  0  0  0  0
   44.0620   35.8960   41.7800 C   0  0  0  0  0  0  0  0  0  0  0  0
   43.9310   34.5620   41.4070 C   0  0  0  0  0  0  0  0  0  0  0  0
   44.5940   33.6130   42.1390 N   0  0  0  0  0  0  0  0  0  0  0  0
   45.3710   33.9550   43.2200 C   0  0  0  0  0  0  0  0  0  0  0  0
   45.5000   35.2330   43.5820 N   0  0  0  0  0  0  0  0  0  0  0  0
   45.8700   31.3300   47.3820 C   0  0  0  0  0  0  0  0  0  0  0  0
   45.8620   32.2320   48.4310 C   0  0  0  0  0  0  0  0  0  0  0  0
   45.3790   31.4810   49.5080 C   0  0  0  0  0  0  0  0  0  0  0  0
   45.1240   30.1820   49.0500 C   0  0  0  0  0  0  0  0  0  0  0  0
   45.4350   30.1560   47.7790 O   0  0  0  0  0  0  0  0  0  0  0  0
   44.8235   33.1572   45.7191 H   0  0  0  0  0  0  0  0  0  0  0  0
   47.8737   30.2200   45.9843 H   0  0  0  0  0  0  0  0  0  0  0  0
   48.6150   30.7442   43.6712 H   0  0  0  0  0  0  0  0  0  0  0  0
   44.9866   37.2400   43.2073 H   0  0  0  0  0  0  0  0  0  0  0  0
   43.5504   36.6941   41.2220 H   0  0  0  0  0  0  0  0  0  0  0  0
   43.3100   34.2764   40.5451 H   0  0  0  0  0  0  0  0  0  0  0  0
   46.1640   33.2897   48.4207 H   0  0  0  0  0  0  0  0  0  0  0  0
   45.2263   31.8464   50.5342 H   0  0  0  0  0  0  0  0  0  0  0  0
   44.7359   29.3427   49.6458 H   0  0  0  0  0  0  0  0  0  0  0  0
  1  2  2  0
  2  3  1  0
  3 13  1  0
  4  3  2  0
  5  4  1  0
  6  1  1  0
  6  5  2  0
  7 12  2  0
  8  7  1  0
  9  8  2  0
  9 10  1  0
 10 11  2  0
 11 12  1  0
 11  1  1  0
 13 17  1  0
 13 14  2  0
 14 15  1  0
 16 15  2  0
 17 16  1  0
  2 18  1  0
  4 19  1  0
  5 20  1  0
  7 21  1  0
  8 22  1  0
  9 23  1  0
 14 24  1  0
 15 25  1  0
 16 26  1  0
M  ISO  8  18  14  19  14  20  14  21  14  22  14  23  14  24  14  25  14
M  ISO  1  26  14
M  END
>  <minimizedAffinity>  (1) 
-4.25276518

>  <minimizedRMSD>  (1) 
3.06063747

$$$$
