
     RDKit          3D

 32 34  0  0  0  0  0  0  0  0999 V2000
   46.0200   32.6720   43.4430 C   0  0  0  0  0  0  0  0  0  0  0  0
   45.7600   32.4500   44.7780 C   0  0  0  0  0  0  0  0  0  0  0  0
   46.4990   31.5760   45.5430 C   0  0  0  0  0  0  0  0  0  0  0  0
   47.5190   30.9350   44.8870 C   0  0  0  0  0  0  0  0  0  0  0  0
   47.8120   31.1270   43.5600 C   0  0  0  0  0  0  0  0  0  0  0  0
   47.0410   32.0010   42.8760 N   0  0  0  0  0  0  0  0  0  0  0  0
   44.0220   35.5890   42.5320 C   0  0  0  0  0  0  0  0  0  0  0  0
   43.7090   35.3670   41.1790 C   0  0  0  0  0  0  0  0  0  0  0  0
   44.1890   34.2070   40.5810 C   0  0  0  0  0  0  0  0  0  0  0  0
   44.9310   33.3690   41.3560 N   0  0  0  0  0  0  0  0  0  0  0  0
   45.2210   33.6030   42.6580 C   0  0  0  0  0  0  0  0  0  0  0  0
   44.7620   34.7170   43.2370 N   0  0  0  0  0  0  0  0  0  0  0  0
   46.2030   31.3780   46.8980 N   0  0  0  0  0  0  0  0  0  0  0  0
   46.9190   32.0200   47.9820 C   0  0  0  0  0  0  0  0  0  0  0  0
   45.8590   32.3260   49.0480 C   0  0  0  0  0  0  0  0  0  0  0  0
   45.3710   31.1460   49.5960 O   0  0  0  0  0  0  0  0  0  0  0  0
   45.4040   30.0860   48.7150 C   0  0  0  0  0  0  0  0  0  0  0  0
   45.1300   30.4900   47.2860 C   0  0  0  0  0  0  0  0  0  0  0  0
   44.9286   32.9929   45.2513 H   0  0  0  0  0  0  0  0  0  0  0  0
   48.1376   30.2264   45.4573 H   0  0  0  0  0  0  0  0  0  0  0  0
   48.6404   30.5915   43.0732 H   0  0  0  0  0  0  0  0  0  0  0  0
   43.6516   36.4996   43.0255 H   0  0  0  0  0  0  0  0  0  0  0  0
   43.1032   36.0887   40.6114 H   0  0  0  0  0  0  0  0  0  0  0  0
   43.9781   33.9762   39.5264 H   0  0  0  0  0  0  0  0  0  0  0  0
   47.6883   31.3461   48.3870 H   0  0  0  0  0  0  0  0  0  0  0  0
   47.4359   32.9313   47.6467 H   0  0  0  0  0  0  0  0  0  0  0  0
   46.3106   32.9362   49.8441 H   0  0  0  0  0  0  0  0  0  0  0  0
   45.0279   32.8732   48.5792 H   0  0  0  0  0  0  0  0  0  0  0  0
   46.4008   29.6233   48.7623 H   0  0  0  0  0  0  0  0  0  0  0  0
   44.6089   29.3875   49.0149 H   0  0  0  0  0  0  0  0  0  0  0  0
   44.1629   31.0095   47.2166 H   0  0  0  0  0  0  0  0  0  0  0  0
   45.0824   29.6112   46.6261 H   0  0  0  0  0  0  0  0  0  0  0  0
  1  2  2  0
  2  3  1  0
  3 13  1  0
  4  3  2  0
  5  4  1  0
  6  1  1  0
  6  5  2  0
  7 12  2  0
  8  7  1  0
  9  8  2  0
  9 10  1  0
 10 11  2  0
 11 12  1  0
 11  1  1  0
 13 18  1  0
 13 14  1  0
 14 15  1  0
 15 16  1  0
 17 16  1  0
 18 17  1  0
  2 19  1  0
  4 20  1  0
  5 21  1  0
  7 22  1  0
  8 23  1  0
  9 24  1  0
 14 25  1  0
 14 26  1  0
 15 27  1  0
 15 28  1  0
 17 29  1  0
 17 30  1  0
 18 31  1  0
 18 32  1  0
M  ISO  8  19  14  20  14  21  14  22  14  23  14  24  14  25  13  26  13
M  ISO  6  27  13  28  13  29  13  30  13  31  13  32  13
M  END
>  <minimizedAffinity>  (1) 
-4.16648102

>  <minimizedRMSD>  (1) 
3.58496141

$$$$
