
     RDKit          3D

 23 24  0  0  0  0  0  0  0  0999 V2000
   46.5580   32.8210   45.2930 C   0  0  0  0  0  0  0  0  0  0  0  0
   46.5270   32.7180   46.6680 C   0  0  0  0  0  0  0  0  0  0  0  0
   47.0160   31.6280   47.3450 C   0  0  0  0  0  0  0  0  0  0  0  0
   47.5420   30.6460   46.5330 C   0  0  0  0  0  0  0  0  0  0  0  0
   47.6020   30.6940   45.1540 C   0  0  0  0  0  0  0  0  0  0  0  0
   47.0970   31.8020   44.5870 N   0  0  0  0  0  0  0  0  0  0  0  0
   44.5550   35.7880   44.5970 C   0  0  0  0  0  0  0  0  0  0  0  0
   45.0190   36.1840   43.3120 C   0  0  0  0  0  0  0  0  0  0  0  0
   46.0190   35.4220   42.7010 C   0  0  0  0  0  0  0  0  0  0  0  0
   46.5050   34.3430   43.3500 N   0  0  0  0  0  0  0  0  0  0  0  0
   46.0340   33.9900   44.5890 C   0  0  0  0  0  0  0  0  0  0  0  0
   45.0760   34.7110   45.1860 N   0  0  0  0  0  0  0  0  0  0  0  0
   46.9920   31.4930   48.8030 C   0  0  0  0  0  0  0  0  0  0  0  0
   45.2930   31.2710   49.3960 S   0  0  0  0  0  0  0  0  0  0  0  0
   46.0915   33.5452   47.2477 H   0  0  0  0  0  0  0  0  0  0  0  0
   47.9478   29.7494   47.0243 H   0  0  0  0  0  0  0  0  0  0  0  0
   48.0355   29.8772   44.5583 H   0  0  0  0  0  0  0  0  0  0  0  0
   43.7692   36.3681   45.1030 H   0  0  0  0  0  0  0  0  0  0  0  0
   44.6006   37.0693   42.8108 H   0  0  0  0  0  0  0  0  0  0  0  0
   46.4034   35.6972   41.7078 H   0  0  0  0  0  0  0  0  0  0  0  0
   47.5938   30.6197   49.0951 H   0  0  0  0  0  0  0  0  0  0  0  0
   47.4069   32.4082   49.2506 H   0  0  0  0  0  0  0  0  0  0  0  0
   45.2840   31.2698   50.7660 H   0  0  0  0  0  0  0  0  0  0  0  0
  1  2  2  0
  2  3  1  0
  3 13  1  0
  4  3  2  0
  5  4  1  0
  6  5  2  0
  6  1  1  0
  7 12  2  0
  8  7  1  0
  9  8  2  0
  9 10  1  0
 10 11  2  0
 11 12  1  0
 11  1  1  0
 13 14  1  0
  2 15  1  0
  4 16  1  0
  5 17  1  0
  7 18  1  0
  8 19  1  0
  9 20  1  0
 13 21  1  0
 13 22  1  0
 14 23  1  0
M  ISO  8  15  14  16  14  17  14  18  14  19  14  20  14  21   8  22   8
M  ISO  1  23  11
M  END
>  <minimizedAffinity>  (1) 
-4.42552948

>  <minimizedRMSD>  (1) 
1.10214794

$$$$
