
     RDKit          3D

 24 25  0  0  0  0  0  0  0  0999 V2000
   46.2750   32.9470   45.6200 C   0  0  0  0  0  0  0  0  0  0  0  0
   45.9710   32.8920   46.9660 C   0  0  0  0  0  0  0  0  0  0  0  0
   46.3440   31.8550   47.7810 C   0  0  0  0  0  0  0  0  0  0  0  0
   47.0530   30.8610   47.1420 C   0  0  0  0  0  0  0  0  0  0  0  0
   47.3860   30.8620   45.8010 C   0  0  0  0  0  0  0  0  0  0  0  0
   46.9730   31.9230   45.0950 N   0  0  0  0  0  0  0  0  0  0  0  0
   44.5030   35.9370   44.5140 C   0  0  0  0  0  0  0  0  0  0  0  0
   45.0560   36.1810   43.2290 C   0  0  0  0  0  0  0  0  0  0  0  0
   46.0470   35.2980   42.7550 C   0  0  0  0  0  0  0  0  0  0  0  0
   46.4240   34.2640   43.5410 N   0  0  0  0  0  0  0  0  0  0  0  0
   45.8640   34.0690   44.7720 C   0  0  0  0  0  0  0  0  0  0  0  0
   44.9260   34.8870   45.2430 N   0  0  0  0  0  0  0  0  0  0  0  0
   46.0210   31.7960   49.2170 C   0  0  0  0  0  0  0  0  0  0  0  0
   44.5860   31.5230   49.3130 N   0  0  0  0  0  0  0  0  0  0  0  0
   45.4004   33.7228   47.4066 H   0  0  0  0  0  0  0  0  0  0  0  0
   47.3787   30.0010   47.7456 H   0  0  0  0  0  0  0  0  0  0  0  0
   47.9558   30.0412   45.3409 H   0  0  0  0  0  0  0  0  0  0  0  0
   43.7278   36.6069   44.9144 H   0  0  0  0  0  0  0  0  0  0  0  0
   44.7207   37.0343   42.6212 H   0  0  0  0  0  0  0  0  0  0  0  0
   46.5045   35.4468   41.7658 H   0  0  0  0  0  0  0  0  0  0  0  0
   46.5935   30.9915   49.7019 H   0  0  0  0  0  0  0  0  0  0  0  0
   46.2795   32.7393   49.7204 H   0  0  0  0  0  0  0  0  0  0  0  0
   44.3120   31.4709   50.3045 H   0  0  0  0  0  0  0  0  0  0  0  0
   44.0610   32.2792   48.8510 H   0  0  0  0  0  0  0  0  0  0  0  0
  1  2  2  0
  2  3  1  0
  3 13  1  0
  4  3  2  0
  5  4  1  0
  6  1  1  0
  6  5  2  0
  7 12  2  0
  8  7  1  0
  9  8  2  0
  9 10  1  0
 10 11  2  0
 11 12  1  0
 11  1  1  0
 13 14  1  0
  2 15  1  0
  4 16  1  0
  5 17  1  0
  7 18  1  0
  8 19  1  0
  9 20  1  0
 13 21  1  0
 13 22  1  0
 14 23  1  0
 14 24  1  0
M  ISO  8  15  14  16  14  17  14  18  14  19  14  20  14  21   8  22   8
M  ISO  2  23   5  24   5
M  END
>  <minimizedAffinity>  (1) 
-4.66842651

>  <minimizedRMSD>  (1) 
0.570331454

$$$$
