
     RDKit          3D

 43 46  0  0  0  0  0  0  0  0999 V2000
   44.8980   35.4600   45.1940 C   0  0  0  0  0  0  0  0  0  0  0  0
   44.1430   35.6360   44.0100 C   0  0  0  0  0  0  0  0  0  0  0  0
   44.2280   34.6550   43.0400 C   0  0  0  0  0  0  0  0  0  0  0  0
   45.0070   33.5570   43.2120 N   0  0  0  0  0  0  0  0  0  0  0  0
   45.7360   33.4040   44.3770 C   0  0  0  0  0  0  0  0  0  0  0  0
   45.6710   34.3550   45.3490 N   0  0  0  0  0  0  0  0  0  0  0  0
   43.4600   34.8610   41.8650 N   0  0  0  0  0  0  0  0  0  0  0  0
   42.1680   35.1980   41.7860 C   0  0  0  0  0  0  0  0  0  0  0  0
   41.5790   35.3570   40.5490 C   0  0  0  0  0  0  0  0  0  0  0  0
   42.2730   35.1810   39.3780 C   0  0  0  0  0  0  0  0  0  0  0  0
   41.7370   35.3250   38.2560 O   0  0  0  0  0  0  0  0  0  0  0  0
   43.5730   34.8410   39.4950 N   0  0  0  0  0  0  0  0  0  0  0  0
   44.1520   34.6850   40.7190 C   0  0  0  0  0  0  0  0  0  0  0  0
   45.3790   34.3650   40.6540 O   0  0  0  0  0  0  0  0  0  0  0  0
   40.1520   35.7300   40.4750 C   0  0  0  0  0  0  0  0  0  0  0  0
   46.5690   32.2300   44.5610 C   0  0  0  0  0  0  0  0  0  0  0  0
   47.2950   31.5470   43.6010 C   0  0  0  0  0  0  0  0  0  0  0  0
   47.9470   30.5030   44.1560 N   0  0  0  0  0  0  0  0  0  0  0  0
   47.6120   30.5460   45.4860 C   0  0  0  0  0  0  0  0  0  0  0  0
   46.7850   31.5840   45.7240 N   0  0  0  0  0  0  0  0  0  0  0  0
   48.0990   29.5890   46.4800 C   0  0  0  0  0  0  0  0  0  0  0  0
   49.0490   29.7430   47.4690 C   0  0  0  0  0  0  0  0  0  0  0  0
   49.3290   28.6700   48.2860 C   0  0  0  0  0  0  0  0  0  0  0  0
   48.7000   27.4520   48.1540 C   0  0  0  0  0  0  0  0  0  0  0  0
   47.7480   27.2920   47.1640 C   0  0  0  0  0  0  0  0  0  0  0  0
   47.4550   28.3550   46.3370 C   0  0  0  0  0  0  0  0  0  0  0  0
   46.2100   31.9640   47.0060 C   0  0  0  0  0  0  0  0  0  0  0  0
   46.0180   30.8390   47.8420 F   0  0  0  0  0  0  0  0  0  0  0  0
   44.9850   32.6160   46.8570 F   0  0  0  0  0  0  0  0  0  0  0  0
   47.0920   32.7790   47.7120 F   0  0  0  0  0  0  0  0  0  0  0  0
   44.8584   36.2191   45.9891 H   0  0  0  0  0  0  0  0  0  0  0  0
   43.5097   36.5239   43.8665 H   0  0  0  0  0  0  0  0  0  0  0  0
   41.5784   35.3475   42.7026 H   0  0  0  0  0  0  0  0  0  0  0  0
   44.1374   34.6969   38.6455 H   0  0  0  0  0  0  0  0  0  0  0  0
   39.7474   35.8358   41.4924 H   0  0  0  0  0  0  0  0  0  0  0  0
   40.0500   36.6850   39.9387 H   0  0  0  0  0  0  0  0  0  0  0  0
   39.5957   34.9471   39.9387 H   0  0  0  0  0  0  0  0  0  0  0  0
   47.3352   31.8168   42.5354 H   0  0  0  0  0  0  0  0  0  0  0  0
   49.5713   30.7019   47.6020 H   0  0  0  0  0  0  0  0  0  0  0  0
   50.0853   28.7908   49.0755 H   0  0  0  0  0  0  0  0  0  0  0  0
   48.9513   26.6185   48.8264 H   0  0  0  0  0  0  0  0  0  0  0  0
   47.2313   26.3291   47.0381 H   0  0  0  0  0  0  0  0  0  0  0  0
   46.6989   28.2306   45.5478 H   0  0  0  0  0  0  0  0  0  0  0  0
  1  6  2  0
  2  1  1  0
  3  4  1  0
  3  2  2  0
  4  5  2  0
  5 16  1  0
  5  6  1  0
  7  3  1  0
  8  7  1  0
  9  8  2  0
 10 12  1  0
 10  9  1  0
 11 10  2  0
 12 13  1  0
 13  7  1  0
 14 13  2  0
 15  9  1  0
 16 20  1  0
 17 18  1  0
 17 16  2  0
 18 19  2  0
 19 20  1  0
 19 21  1  0
 20 27  1  0
 21 22  2  0
 22 23  1  0
 24 23  2  0
 25 24  1  0
 26 21  1  0
 26 25  2  0
 27 30  1  0
 27 28  1  0
 29 27  1  0
  1 31  1  0
  2 32  1  0
  8 33  1  0
 12 34  1  0
 15 35  1  0
 15 36  1  0
 15 37  1  0
 17 38  1  0
 22 39  1  0
 23 40  1  0
 24 41  1  0
 25 42  1  0
 26 43  1  0
M  ISO  8  31  14  32  14  33  14  34   9  35   8  36   8  37   8  38  14
M  ISO  5  39  14  40  14  41  14  42  14  43  14
M  END
>  <minimizedAffinity>  (1) 
-6.15133524

>  <minimizedRMSD>  (1) 
1.05363309

$$$$
