
     RDKit          3D

 27 28  0  0  0  0  0  0  0  0999 V2000
   46.5980   32.7400   45.3860 C   0  0  0  0  0  0  0  0  0  0  0  0
   46.8250   32.7200   46.7360 C   0  0  0  0  0  0  0  0  0  0  0  0
   47.3220   31.6420   47.4030 C   0  0  0  0  0  0  0  0  0  0  0  0
   47.5830   30.5530   46.5800 C   0  0  0  0  0  0  0  0  0  0  0  0
   47.3780   30.5160   45.2230 C   0  0  0  0  0  0  0  0  0  0  0  0
   46.8860   31.6290   44.6770 N   0  0  0  0  0  0  0  0  0  0  0  0
   44.5540   35.7010   44.7630 C   0  0  0  0  0  0  0  0  0  0  0  0
   44.9770   36.1170   43.4850 C   0  0  0  0  0  0  0  0  0  0  0  0
   45.9710   35.3740   42.8390 C   0  0  0  0  0  0  0  0  0  0  0  0
   46.4780   34.2930   43.4690 N   0  0  0  0  0  0  0  0  0  0  0  0
   46.0420   33.9230   44.7060 C   0  0  0  0  0  0  0  0  0  0  0  0
   45.0940   34.6180   45.3410 N   0  0  0  0  0  0  0  0  0  0  0  0
   47.5420   31.6340   48.8650 C   0  0  0  0  0  0  0  0  0  0  0  0
   46.5520   30.7710   49.4450 N   0  0  0  0  0  0  0  0  0  0  0  0
   45.2220   31.2430   49.5200 C   0  0  0  0  0  0  0  0  0  0  0  0
   46.5927   33.6262   47.3146 H   0  0  0  0  0  0  0  0  0  0  0  0
   47.9869   29.6466   47.0547 H   0  0  0  0  0  0  0  0  0  0  0  0
   47.6056   29.6228   44.6226 H   0  0  0  0  0  0  0  0  0  0  0  0
   43.7742   36.2694   45.2911 H   0  0  0  0  0  0  0  0  0  0  0  0
   44.5365   37.0043   43.0068 H   0  0  0  0  0  0  0  0  0  0  0  0
   46.3311   35.6639   41.8409 H   0  0  0  0  0  0  0  0  0  0  0  0
   48.5496   31.2551   49.0912 H   0  0  0  0  0  0  0  0  0  0  0  0
   47.4580   32.6512   49.2753 H   0  0  0  0  0  0  0  0  0  0  0  0
   46.5383   29.9038   48.8894 H   0  0  0  0  0  0  0  0  0  0  0  0
   44.9288   31.3471   50.5751 H   0  0  0  0  0  0  0  0  0  0  0  0
   45.1514   32.2211   49.0216 H   0  0  0  0  0  0  0  0  0  0  0  0
   44.5506   30.5282   49.0216 H   0  0  0  0  0  0  0  0  0  0  0  0
  1  2  2  0
  2  3  1  0
  3 13  1  0
  4  3  2  0
  5  4  1  0
  6  5  2  0
  6  1  1  0
  7 12  2  0
  8  7  1  0
  9 10  1  0
  9  8  2  0
 10 11  2  0
 11 12  1  0
 11  1  1  0
 13 14  1  0
 14 15  1  0
  2 16  1  0
  4 17  1  0
  5 18  1  0
  7 19  1  0
  8 20  1  0
  9 21  1  0
 13 22  1  0
 13 23  1  0
 14 24  1  0
 15 25  1  0
 15 26  1  0
 15 27  1  0
M  ISO  8  16  14  17  14  18  14  19  14  20  14  21  14  22   8  23   8
M  ISO  4  24   5  25   8  26   8  27   8
M  END
>  <minimizedAffinity>  (1) 
-4.84840536

>  <minimizedRMSD>  (1) 
1.0044874

$$$$
