
     RDKit          3D

 34 36  0  0  0  0  0  0  0  0999 V2000
   45.7090   33.9940   45.4750 C   0  0  0  0  0  0  0  0  0  0  0  0
   46.3760   33.9440   44.2770 C   0  0  0  0  0  0  0  0  0  0  0  0
   46.1340   34.8240   43.2480 C   0  0  0  0  0  0  0  0  0  0  0  0
   45.1680   35.7590   43.5100 C   0  0  0  0  0  0  0  0  0  0  0  0
   44.4730   35.8490   44.6930 C   0  0  0  0  0  0  0  0  0  0  0  0
   44.7760   34.9480   45.6430 N   0  0  0  0  0  0  0  0  0  0  0  0
   47.3840   31.3980   47.4290 C   0  0  0  0  0  0  0  0  0  0  0  0
   46.5430   31.2590   48.5550 C   0  0  0  0  0  0  0  0  0  0  0  0
   45.3980   32.0660   48.6330 C   0  0  0  0  0  0  0  0  0  0  0  0
   45.1450   32.9400   47.6340 N   0  0  0  0  0  0  0  0  0  0  0  0
   45.9860   33.0410   46.5620 C   0  0  0  0  0  0  0  0  0  0  0  0
   47.0810   32.2860   46.4630 N   0  0  0  0  0  0  0  0  0  0  0  0
   46.8650   34.7530   41.9630 C   0  0  0  0  0  0  0  0  0  0  0  0
   47.1900   33.3560   41.7360 N   0  0  0  0  0  0  0  0  0  0  0  0
   48.5560   32.9830   41.6210 C   0  0  0  0  0  0  0  0  0  0  0  0
   48.9650   32.0060   40.7380 C   0  0  0  0  0  0  0  0  0  0  0  0
   50.3030   31.6390   40.6250 C   0  0  0  0  0  0  0  0  0  0  0  0
   51.2700   32.2600   41.4130 C   0  0  0  0  0  0  0  0  0  0  0  0
   50.8830   33.2420   42.3050 C   0  0  0  0  0  0  0  0  0  0  0  0
   49.5410   33.5680   42.3780 C   0  0  0  0  0  0  0  0  0  0  0  0
   47.1389   33.1648   44.1330 H   0  0  0  0  0  0  0  0  0  0  0  0
   44.9321   36.4875   42.7203 H   0  0  0  0  0  0  0  0  0  0  0  0
   43.7062   36.6210   44.8540 H   0  0  0  0  0  0  0  0  0  0  0  0
   48.2891   30.7792   47.3408 H   0  0  0  0  0  0  0  0  0  0  0  0
   46.7795   30.5368   49.3502 H   0  0  0  0  0  0  0  0  0  0  0  0
   44.7172   31.9885   49.4935 H   0  0  0  0  0  0  0  0  0  0  0  0
   46.2318   35.1310   41.1468 H   0  0  0  0  0  0  0  0  0  0  0  0
   47.7766   35.3678   41.9955 H   0  0  0  0  0  0  0  0  0  0  0  0
   46.4446   32.6493   41.6598 H   0  0  0  0  0  0  0  0  0  0  0  0
   48.2158   31.5045   40.1077 H   0  0  0  0  0  0  0  0  0  0  0  0
   50.5980   30.8559   39.9110 H   0  0  0  0  0  0  0  0  0  0  0  0
   52.3281   31.9722   41.3261 H   0  0  0  0  0  0  0  0  0  0  0  0
   51.6229   33.7510   42.9402 H   0  0  0  0  0  0  0  0  0  0  0  0
   49.2420   34.3498   43.0917 H   0  0  0  0  0  0  0  0  0  0  0  0
  1  6  1  0
  1 11  1  0
  2  1  2  0
  3  4  2  0
  3  2  1  0
  4  5  1  0
  5  6  2  0
  7  8  2  0
  8  9  1  0
 10  9  2  0
 11 10  1  0
 12 11  2  0
 12  7  1  0
 13  3  1  0
 14 13  1  0
 15 14  1  0
 15 20  1  0
 16 15  2  0
 17 16  1  0
 17 18  2  0
 18 19  1  0
 19 20  2  0
  2 21  1  0
  4 22  1  0
  5 23  1  0
  7 24  1  0
  8 25  1  0
  9 26  1  0
 13 27  1  0
 13 28  1  0
 14 29  1  0
 16 30  1  0
 17 31  1  0
 18 32  1  0
 19 33  1  0
 20 34  1  0
M  ISO  8  21  14  22  14  23  14  24  14  25  14  26  14  27   8  28   8
M  ISO  5  30  14  31  14  32  14  33  14  34  14
M  END
>  <minimizedAffinity>  (1) 
-5.71170425

>  <minimizedRMSD>  (1) 
8.25606632

$$$$
