
     RDKit          3D

 31 33  0  0  0  0  0  0  0  0999 V2000
   46.9590   32.8770   43.8940 C   0  0  0  0  0  0  0  0  0  0  0  0
   46.9690   31.9150   44.8990 C   0  0  0  0  0  0  0  0  0  0  0  0
   47.7260   30.7860   44.8210 C   0  0  0  0  0  0  0  0  0  0  0  0
   48.4800   30.6760   43.6640 C   0  0  0  0  0  0  0  0  0  0  0  0
   48.5010   31.6050   42.6420 C   0  0  0  0  0  0  0  0  0  0  0  0
   47.7310   32.6790   42.7990 N   0  0  0  0  0  0  0  0  0  0  0  0
   44.6530   35.3500   45.2700 C   0  0  0  0  0  0  0  0  0  0  0  0
   44.5840   36.3230   44.2500 C   0  0  0  0  0  0  0  0  0  0  0  0
   45.3400   36.1210   43.0820 C   0  0  0  0  0  0  0  0  0  0  0  0
   46.0960   35.0060   42.9880 N   0  0  0  0  0  0  0  0  0  0  0  0
   46.1360   34.0890   43.9950 C   0  0  0  0  0  0  0  0  0  0  0  0
   45.4280   34.2660   45.1080 N   0  0  0  0  0  0  0  0  0  0  0  0
   47.7630   29.7530   45.8580 C   0  0  0  0  0  0  0  0  0  0  0  0
   46.4030   29.6030   46.3590 N   0  0  0  0  0  0  0  0  0  0  0  0
   46.5420   31.3940   49.4740 N   0  0  0  0  0  0  0  0  0  0  0  0
   47.1050   30.9450   48.3540 N   0  0  0  0  0  0  0  0  0  0  0  0
   46.2110   30.2500   47.6220 C   0  0  0  0  0  0  0  0  0  0  0  0
   45.0570   30.3070   48.3770 C   0  0  0  0  0  0  0  0  0  0  0  0
   45.2600   31.0180   49.5280 C   0  0  0  0  0  0  0  0  0  0  0  0
   46.3423   32.0723   45.7893 H   0  0  0  0  0  0  0  0  0  0  0  0
   49.1096   29.7811   43.5506 H   0  0  0  0  0  0  0  0  0  0  0  0
   49.1219   31.4644   41.7450 H   0  0  0  0  0  0  0  0  0  0  0  0
   44.0730   35.4796   46.1956 H   0  0  0  0  0  0  0  0  0  0  0  0
   43.9542   37.2174   44.3660 H   0  0  0  0  0  0  0  0  0  0  0  0
   45.3162   36.8549   42.2629 H   0  0  0  0  0  0  0  0  0  0  0  0
   48.1155   28.8022   45.4316 H   0  0  0  0  0  0  0  0  0  0  0  0
   48.4509   30.0352   46.6686 H   0  0  0  0  0  0  0  0  0  0  0  0
   45.6626   29.0891   45.8605 H   0  0  0  0  0  0  0  0  0  0  0  0
   47.0242   31.9503   50.1944 H   0  0  0  0  0  0  0  0  0  0  0  0
   44.1016   29.8427   48.0914 H   0  0  0  0  0  0  0  0  0  0  0  0
   44.5300   31.2329   50.3223 H   0  0  0  0  0  0  0  0  0  0  0  0
  1 11  1  0
  1  2  2  0
  3  2  1  0
  3 13  1  0
  4  3  2  0
  5  6  2  0
  5  4  1  0
  6  1  1  0
  8  7  2  0
  9  8  1  0
 10  9  2  0
 10 11  1  0
 11 12  2  0
 12  7  1  0
 13 14  1  0
 14 17  1  0
 15 19  1  0
 16 15  1  0
 17 16  2  0
 17 18  1  0
 18 19  2  0
  2 20  1  0
  4 21  1  0
  5 22  1  0
  7 23  1  0
  8 24  1  0
  9 25  1  0
 13 26  1  0
 13 27  1  0
 14 28  1  0
 15 29  1  0
 18 30  1  0
 19 31  1  0
M  ISO  8  20  14  21  14  22  14  23  14  24  14  25  14  26   8  27   8
M  ISO  3  29   9  30  14  31  14
M  END
>  <minimizedAffinity>  (1) 
-5.04896212

>  <minimizedRMSD>  (1) 
3.00146317

$$$$
