
     RDKit          3D

 31 33  0  0  0  0  0  0  0  0999 V2000
   46.8830   32.8110   44.0190 C   0  0  0  0  0  0  0  0  0  0  0  0
   46.9150   31.9780   45.1070 C   0  0  0  0  0  0  0  0  0  0  0  0
   47.6350   30.8050   45.1320 C   0  0  0  0  0  0  0  0  0  0  0  0
   48.3210   30.5330   43.9790 C   0  0  0  0  0  0  0  0  0  0  0  0
   48.3240   31.3370   42.8530 C   0  0  0  0  0  0  0  0  0  0  0  0
   47.5960   32.4520   42.9240 N   0  0  0  0  0  0  0  0  0  0  0  0
   44.6310   35.4630   45.1270 C   0  0  0  0  0  0  0  0  0  0  0  0
   44.6520   36.3700   44.0320 C   0  0  0  0  0  0  0  0  0  0  0  0
   45.4460   36.0510   42.9220 C   0  0  0  0  0  0  0  0  0  0  0  0
   46.1570   34.9020   42.9370 N   0  0  0  0  0  0  0  0  0  0  0  0
   46.1100   34.0560   44.0100 C   0  0  0  0  0  0  0  0  0  0  0  0
   45.3660   34.3320   45.0740 N   0  0  0  0  0  0  0  0  0  0  0  0
   47.6600   29.9180   46.3180 C   0  0  0  0  0  0  0  0  0  0  0  0
   46.2620   29.6770   46.6850 N   0  0  0  0  0  0  0  0  0  0  0  0
   46.0000   30.5100   47.8100 C   0  0  0  0  0  0  0  0  0  0  0  0
   46.7820   31.3910   48.5250 C   0  0  0  0  0  0  0  0  0  0  0  0
   45.9460   31.8930   49.5090 C   0  0  0  0  0  0  0  0  0  0  0  0
   44.7110   31.3390   49.3940 N   0  0  0  0  0  0  0  0  0  0  0  0
   44.7800   30.5160   48.3650 N   0  0  0  0  0  0  0  0  0  0  0  0
   46.3391   32.2596   46.0009 H   0  0  0  0  0  0  0  0  0  0  0  0
   48.9136   29.6069   43.9452 H   0  0  0  0  0  0  0  0  0  0  0  0
   48.8944   31.0716   41.9507 H   0  0  0  0  0  0  0  0  0  0  0  0
   44.0182   35.6822   46.0138 H   0  0  0  0  0  0  0  0  0  0  0  0
   44.0608   37.2973   44.0555 H   0  0  0  0  0  0  0  0  0  0  0  0
   45.4896   36.7245   42.0534 H   0  0  0  0  0  0  0  0  0  0  0  0
   48.1578   28.9684   46.0722 H   0  0  0  0  0  0  0  0  0  0  0  0
   48.2162   30.3782   47.1480 H   0  0  0  0  0  0  0  0  0  0  0  0
   45.6023   29.0350   46.2228 H   0  0  0  0  0  0  0  0  0  0  0  0
   47.8392   31.6410   48.3522 H   0  0  0  0  0  0  0  0  0  0  0  0
   46.2388   32.6308   50.2705 H   0  0  0  0  0  0  0  0  0  0  0  0
   43.8898   31.5234   49.9878 H   0  0  0  0  0  0  0  0  0  0  0  0
  1  2  2  0
  2  3  1  0
  3 13  1  0
  4  3  2  0
  5  6  2  0
  5  4  1  0
  6  1  1  0
  8  7  2  0
  9 10  2  0
  9  8  1  0
 10 11  1  0
 11  1  1  0
 11 12  2  0
 12  7  1  0
 13 14  1  0
 14 15  1  0
 15 19  2  0
 15 16  1  0
 16 17  2  0
 18 17  1  0
 19 18  1  0
  2 20  1  0
  4 21  1  0
  5 22  1  0
  7 23  1  0
  8 24  1  0
  9 25  1  0
 13 26  1  0
 13 27  1  0
 14 28  1  0
 16 29  1  0
 17 30  1  0
 18 31  1  0
M  ISO  8  20  14  21  14  22  14  23  14  24  14  25  14  26   8  27   8
M  ISO  3  29  14  30  14  31   9
M  END
>  <minimizedAffinity>  (1) 
-4.78775072

>  <minimizedRMSD>  (1) 
2.72918677

$$$$
