
     RDKit          3D

 29 31  0  0  0  0  0  0  0  0999 V2000
   46.6380   32.5020   45.1710 C   0  0  0  0  0  0  0  0  0  0  0  0
   46.5430   32.0270   46.4730 C   0  0  0  0  0  0  0  0  0  0  0  0
   47.1280   30.8650   46.8740 C   0  0  0  0  0  0  0  0  0  0  0  0
   47.8240   30.1970   45.8800 C   0  0  0  0  0  0  0  0  0  0  0  0
   47.9460   30.6300   44.5710 C   0  0  0  0  0  0  0  0  0  0  0  0
   47.3380   31.7760   44.2820 N   0  0  0  0  0  0  0  0  0  0  0  0
   44.5730   35.5090   45.3070 C   0  0  0  0  0  0  0  0  0  0  0  0
   44.7910   36.1040   44.0360 C   0  0  0  0  0  0  0  0  0  0  0  0
   45.6530   35.4590   43.1370 C   0  0  0  0  0  0  0  0  0  0  0  0
   46.2340   34.3030   43.5240 N   0  0  0  0  0  0  0  0  0  0  0  0
   45.9960   33.7610   44.7660 C   0  0  0  0  0  0  0  0  0  0  0  0
   45.1860   34.3550   45.6300 N   0  0  0  0  0  0  0  0  0  0  0  0
   47.0370   30.3500   48.2430 C   0  0  0  0  0  0  0  0  0  0  0  0
   45.6470   30.0180   48.4860 N   0  0  0  0  0  0  0  0  0  0  0  0
   45.0410   28.9400   47.8110 C   0  0  0  0  0  0  0  0  0  0  0  0
   44.9830   27.6710   48.2000 N   0  0  0  0  0  0  0  0  0  0  0  0
   44.3350   26.9870   47.2960 O   0  0  0  0  0  0  0  0  0  0  0  0
   43.9590   27.7510   46.3220 C   0  0  0  0  0  0  0  0  0  0  0  0
   44.3990   29.0000   46.6330 N   0  0  0  0  0  0  0  0  0  0  0  0
   45.9727   32.6128   47.2089 H   0  0  0  0  0  0  0  0  0  0  0  0
   48.3166   29.2516   46.1512 H   0  0  0  0  0  0  0  0  0  0  0  0
   48.5106   30.0614   43.8174 H   0  0  0  0  0  0  0  0  0  0  0  0
   43.9005   35.9932   46.0304 H   0  0  0  0  0  0  0  0  0  0  0  0
   44.2959   37.0477   43.7633 H   0  0  0  0  0  0  0  0  0  0  0  0
   45.8508   35.8840   42.1419 H   0  0  0  0  0  0  0  0  0  0  0  0
   47.6630   29.4518   48.3499 H   0  0  0  0  0  0  0  0  0  0  0  0
   47.3909   31.0997   48.9659 H   0  0  0  0  0  0  0  0  0  0  0  0
   45.0983   30.5743   49.1571 H   0  0  0  0  0  0  0  0  0  0  0  0
   43.3976   27.4515   45.4247 H   0  0  0  0  0  0  0  0  0  0  0  0
  1  2  2  0
  2  3  1  0
  3 13  1  0
  4  3  2  0
  5  4  1  0
  6  5  2  0
  6  1  1  0
  7 12  2  0
  8  7  1  0
  9 10  1  0
  9  8  2  0
 10 11  2  0
 11  1  1  0
 11 12  1  0
 13 14  1  0
 15 16  2  0
 15 14  1  0
 17 16  1  0
 18 19  2  0
 18 17  1  0
 19 15  1  0
  2 20  1  0
  4 21  1  0
  5 22  1  0
  7 23  1  0
  8 24  1  0
  9 25  1  0
 13 26  1  0
 13 27  1  0
 14 28  1  0
 18 29  1  0
M  ISO  8  20  14  21  14  22  14  23  14  24  14  25  14  26   8  27   8
M  ISO  1  29  14
M  END
>  <minimizedAffinity>  (1) 
-4.76557541

>  <minimizedRMSD>  (1) 
1.43269789

$$$$
