
     RDKit          3D

 31 33  0  0  0  0  0  0  0  0999 V2000
   45.8650   33.6000   44.5280 C   0  0  0  0  0  0  0  0  0  0  0  0
   45.6540   34.2140   43.2950 C   0  0  0  0  0  0  0  0  0  0  0  0
   44.9300   35.3690   43.1900 C   0  0  0  0  0  0  0  0  0  0  0  0
   44.4330   35.8750   44.3640 C   0  0  0  0  0  0  0  0  0  0  0  0
   44.6160   35.3030   45.6040 C   0  0  0  0  0  0  0  0  0  0  0  0
   45.3330   34.1760   45.6340 N   0  0  0  0  0  0  0  0  0  0  0  0
   48.1830   30.9120   43.6910 C   0  0  0  0  0  0  0  0  0  0  0  0
   48.1320   30.0820   44.8420 C   0  0  0  0  0  0  0  0  0  0  0  0
   47.2850   30.4610   45.9090 C   0  0  0  0  0  0  0  0  0  0  0  0
   46.5650   31.5940   45.7840 N   0  0  0  0  0  0  0  0  0  0  0  0
   46.6520   32.3600   44.6490 C   0  0  0  0  0  0  0  0  0  0  0  0
   47.4360   32.0270   43.6400 N   0  0  0  0  0  0  0  0  0  0  0  0
   44.7150   36.0210   41.8750 C   0  0  0  0  0  0  0  0  0  0  0  0
   44.1650   35.0090   40.9900 N   0  0  0  0  0  0  0  0  0  0  0  0
   42.8650   35.2220   40.4420 C   0  0  0  0  0  0  0  0  0  0  0  0
   41.7480   35.5040   41.2310 C   0  0  0  0  0  0  0  0  0  0  0  0
   40.6940   35.6410   40.3310 C   0  0  0  0  0  0  0  0  0  0  0  0
   41.2030   35.4420   39.0610 C   0  0  0  0  0  0  0  0  0  0  0  0
   42.4780   35.2000   39.1980 O   0  0  0  0  0  0  0  0  0  0  0  0
   46.0787   33.7601   42.3875 H   0  0  0  0  0  0  0  0  0  0  0  0
   43.8463   36.8040   44.3118 H   0  0  0  0  0  0  0  0  0  0  0  0
   44.1956   35.7489   46.5175 H   0  0  0  0  0  0  0  0  0  0  0  0
   48.8318   30.6428   42.8445 H   0  0  0  0  0  0  0  0  0  0  0  0
   48.7373   29.1655   44.9022 H   0  0  0  0  0  0  0  0  0  0  0  0
   47.2153   29.8465   46.8187 H   0  0  0  0  0  0  0  0  0  0  0  0
   44.0089   36.8581   41.9783 H   0  0  0  0  0  0  0  0  0  0  0  0
   45.6571   36.4247   41.4758 H   0  0  0  0  0  0  0  0  0  0  0  0
   44.7003   34.1586   40.7636 H   0  0  0  0  0  0  0  0  0  0  0  0
   41.7090   35.5977   42.3263 H   0  0  0  0  0  0  0  0  0  0  0  0
   39.6476   35.8664   40.5843 H   0  0  0  0  0  0  0  0  0  0  0  0
   40.6410   35.4803   38.1162 H   0  0  0  0  0  0  0  0  0  0  0  0
  1 11  1  0
  1  6  1  0
  2  1  2  0
  3  2  1  0
  3  4  2  0
  4  5  1  0
  5  6  2  0
  7  8  2  0
  8  9  1  0
 10  9  2  0
 11 10  1  0
 12  7  1  0
 12 11  2  0
 13  3  1  0
 14 13  1  0
 15 14  1  0
 15 16  2  0
 17 16  1  0
 18 19  1  0
 18 17  2  0
 19 15  1  0
  2 20  1  0
  4 21  1  0
  5 22  1  0
  7 23  1  0
  8 24  1  0
  9 25  1  0
 13 26  1  0
 13 27  1  0
 14 28  1  0
 16 29  1  0
 17 30  1  0
 18 31  1  0
M  ISO  8  20  14  21  14  22  14  23  14  24  14  25  14  26   8  27   8
M  ISO  3  29  14  30  14  31  14
M  END
>  <minimizedAffinity>  (1) 
-4.62007284

>  <minimizedRMSD>  (1) 
8.03339005

$$$$
