
     RDKit          3D

 42 45  0  0  1  0  0  0  0  0999 V2000
   47.4950   29.5990   47.6690 C   0  0  2  0  0  0  0  0  0  0  0  0
   48.3900   30.3310   48.4930 N   0  0  0  0  0  0  0  0  0  0  0  0
   48.5030   31.6560   48.6970 C   0  0  0  0  0  0  0  0  0  0  0  0
   49.4940   31.9300   49.5630 N   0  0  0  0  0  0  0  0  0  0  0  0
   50.0350   30.7450   49.9270 C   0  0  0  0  0  0  0  0  0  0  0  0
   51.0630   30.4780   50.7810 C   0  0  0  0  0  0  0  0  0  0  0  0
   51.6890   31.3960   51.3900 O   0  0  0  0  0  0  0  0  0  0  0  0
   51.4060   29.1760   50.9650 N   0  0  0  0  0  0  0  0  0  0  0  0
   50.7130   28.2500   50.2990 C   0  0  0  0  0  0  0  0  0  0  0  0
   51.0870   26.8810   50.5040 N   0  0  0  0  0  0  0  0  0  0  0  0
   49.6970   28.4970   49.4540 N   0  0  0  0  0  0  0  0  0  0  0  0
   49.3330   29.7690   49.2500 C   0  0  0  0  0  0  0  0  0  0  0  0
   46.8600   32.1950   45.0190 C   0  0  0  0  0  0  0  0  0  0  0  0
   46.8150   31.4620   46.2020 C   0  0  0  0  0  0  0  0  0  0  0  0
   47.5540   30.3130   46.3400 C   0  0  0  0  0  0  0  0  0  0  0  0
   48.3220   29.9270   45.2800 C   0  0  0  0  0  0  0  0  0  0  0  0
   48.3840   30.6350   44.0980 C   0  0  0  0  0  0  0  0  0  0  0  0
   47.6410   31.7430   44.0330 N   0  0  0  0  0  0  0  0  0  0  0  0
   44.6820   34.9920   45.8630 C   0  0  0  0  0  0  0  0  0  0  0  0
   44.6490   35.7440   44.6740 C   0  0  0  0  0  0  0  0  0  0  0  0
   45.3840   35.2690   43.5830 C   0  0  0  0  0  0  0  0  0  0  0  0
   46.0870   34.1270   43.7070 N   0  0  0  0  0  0  0  0  0  0  0  0
   46.0820   33.4340   44.8950 C   0  0  0  0  0  0  0  0  0  0  0  0
   45.3980   33.8640   45.9300 N   0  0  0  0  0  0  0  0  0  0  0  0
   46.2290   29.7560   48.1850 N   0  0  0  0  0  0  0  0  0  0  0  0
   45.2310   28.7930   47.9050 C   0  0  0  0  0  0  0  0  0  0  0  0
   44.9160   27.7460   48.7890 N   0  0  0  0  0  0  0  0  0  0  0  0
   44.4490   28.6250   46.9310 O   0  0  0  0  0  0  0  0  0  0  0  0
   47.7382   28.5287   47.5961 H   0  0  0  0  0  0  0  0  0  0  0  0
   47.8677   32.4156   48.2180 H   0  0  0  0  0  0  0  0  0  0  0  0
   52.1752   28.9126   51.5974 H   0  0  0  0  0  0  0  0  0  0  0  0
   50.5819   26.1300   50.0123 H   0  0  0  0  0  0  0  0  0  0  0  0
   51.8607   26.6486   51.1429 H   0  0  0  0  0  0  0  0  0  0  0  0
   46.1820   31.8064   47.0331 H   0  0  0  0  0  0  0  0  0  0  0  0
   48.9196   29.0081   45.3727 H   0  0  0  0  0  0  0  0  0  0  0  0
   49.0104   30.3056   43.2559 H   0  0  0  0  0  0  0  0  0  0  0  0
   44.1159   35.3336   46.7421 H   0  0  0  0  0  0  0  0  0  0  0  0
   44.0651   36.6737   44.6050 H   0  0  0  0  0  0  0  0  0  0  0  0
   45.3878   35.8229   42.6327 H   0  0  0  0  0  0  0  0  0  0  0  0
   46.0086   30.5722   48.7733 H   0  0  0  0  0  0  0  0  0  0  0  0
   44.1812   27.0676   48.5427 H   0  0  0  0  0  0  0  0  0  0  0  0
   45.4201   27.6574   49.6828 H   0  0  0  0  0  0  0  0  0  0  0  0
  1 25  1  0
  1  2  1  0
  2  3  1  0
  2 12  1  0
  3  4  2  0
  4  5  1  0
  5  6  1  0
  6  8  1  0
  6  7  2  0
  9 10  1  0
  9  8  1  0
 11  9  2  0
 12 11  1  0
 12  5  2  0
 13 14  2  0
 14 15  1  0
 15  1  1  0
 16 15  2  0
 17 16  1  0
 18 17  2  0
 18 13  1  0
 19 24  2  0
 20 19  1  0
 21 22  1  0
 21 20  2  0
 22 23  2  0
 23 13  1  0
 23 24  1  0
 26 25  1  0
 26 27  1  0
 28 26  2  0
  1 29  1  6
  3 30  1  0
  8 31  1  0
 10 32  1  0
 10 33  1  0
 14 34  1  0
 16 35  1  0
 17 36  1  0
 19 37  1  0
 20 38  1  0
 21 39  1  0
 25 40  1  0
 27 41  1  0
 27 42  1  0
M  ISO  8  29   8  30  14  31   9  34  14  35  14  36  14  37  14  38  14
M  ISO  1  39  14
M  END
>  <minimizedAffinity>  (1) 
-6.06813526

>  <minimizedRMSD>  (1) 
2.01224041

$$$$
