
     RDKit          3D

 41 43  0  0  1  0  0  0  0  0999 V2000
   46.5830   32.6370   45.1940 C   0  0  0  0  0  0  0  0  0  0  0  0
   46.5450   32.2980   46.5550 C   0  0  0  0  0  0  0  0  0  0  0  0
   47.1360   31.1430   47.0370 C   0  0  0  0  0  0  0  0  0  0  0  0
   47.7470   30.3660   46.1180 C   0  0  0  0  0  0  0  0  0  0  0  0
   47.8090   30.6620   44.7700 C   0  0  0  0  0  0  0  0  0  0  0  0
   47.2130   31.8020   44.3750 N   0  0  0  0  0  0  0  0  0  0  0  0
   44.5320   35.6520   45.1290 C   0  0  0  0  0  0  0  0  0  0  0  0
   44.8240   36.1920   43.8480 C   0  0  0  0  0  0  0  0  0  0  0  0
   45.7170   35.4950   43.0430 C   0  0  0  0  0  0  0  0  0  0  0  0
   46.2740   34.3580   43.4730 N   0  0  0  0  0  0  0  0  0  0  0  0
   45.9570   33.8760   44.7280 C   0  0  0  0  0  0  0  0  0  0  0  0
   45.1110   34.5080   45.5260 N   0  0  0  0  0  0  0  0  0  0  0  0
   47.0720   30.9320   48.5080 C   0  0  1  0  0  0  0  0  0  0  0  0
   45.8030   30.4190   48.8430 N   0  0  0  0  0  0  0  0  0  0  0  0
   45.2050   29.4030   48.0400 C   0  0  0  0  0  0  0  0  0  0  0  0
   45.3170   28.0680   48.4880 N   0  0  0  0  0  0  0  0  0  0  0  0
   44.5750   29.4080   46.9870 O   0  0  0  0  0  0  0  0  0  0  0  0
   48.2740   30.7260   49.2620 C   0  0  0  0  0  0  0  0  0  0  0  0
   49.3850   31.7090   49.2500 C   0  0  0  0  0  0  0  0  0  0  0  0
   50.6650   30.8770   49.4180 C   0  0  0  0  0  0  0  0  0  0  0  0
   50.1900   29.4270   49.5430 C   0  0  0  0  0  0  0  0  0  0  0  0
   48.9520   29.4750   48.6840 C   0  0  0  0  0  0  0  0  0  0  0  0
   46.0310   32.9691   47.2588 H   0  0  0  0  0  0  0  0  0  0  0  0
   48.2260   29.4383   46.4643 H   0  0  0  0  0  0  0  0  0  0  0  0
   48.3197   29.9994   44.0558 H   0  0  0  0  0  0  0  0  0  0  0  0
   43.8299   36.1725   45.7970 H   0  0  0  0  0  0  0  0  0  0  0  0
   44.3598   37.1286   43.5054 H   0  0  0  0  0  0  0  0  0  0  0  0
   45.9676   35.8817   42.0442 H   0  0  0  0  0  0  0  0  0  0  0  0
   47.1210   31.8677   49.0843 H   0  0  0  0  0  0  0  0  0  0  0  0
   45.3058   30.7788   49.6702 H   0  0  0  0  0  0  0  0  0  0  0  0
   44.8996   27.3035   47.9382 H   0  0  0  0  0  0  0  0  0  0  0  0
   45.8161   27.8590   49.3644 H   0  0  0  0  0  0  0  0  0  0  0  0
   47.8773   30.7353   50.2879 H   0  0  0  0  0  0  0  0  0  0  0  0
   49.4042   32.2570   48.2964 H   0  0  0  0  0  0  0  0  0  0  0  0
   49.2766   32.4597   50.0467 H   0  0  0  0  0  0  0  0  0  0  0  0
   51.3187   30.9942   48.5411 H   0  0  0  0  0  0  0  0  0  0  0  0
   51.2488   31.1946   50.2945 H   0  0  0  0  0  0  0  0  0  0  0  0
   50.9333   28.7195   49.1468 H   0  0  0  0  0  0  0  0  0  0  0  0
   50.0219   29.0845   50.5747 H   0  0  0  0  0  0  0  0  0  0  0  0
   48.3301   28.5770   48.8137 H   0  0  0  0  0  0  0  0  0  0  0  0
   49.1409   29.5093   47.6009 H   0  0  0  0  0  0  0  0  0  0  0  0
  1  2  2  0
  2  3  1  0
  3 13  1  0
  4  3  2  0
  5  4  1  0
  6  5  2  0
  6  1  1  0
  7 12  2  0
  8  7  1  0
  9 10  1  0
  9  8  2  0
 10 11  2  0
 11  1  1  0
 11 12  1  0
 13 14  1  0
 13 18  1  0
 15 16  1  0
 15 14  1  0
 17 15  2  0
 19 18  1  0
 19 20  1  0
 20 21  1  0
 22 18  1  0
 22 21  1  0
  2 23  1  0
  4 24  1  0
  5 25  1  0
  7 26  1  0
  8 27  1  0
  9 28  1  0
 13 29  1  1
 14 30  1  0
 16 31  1  0
 16 32  1  0
 18 33  1  0
 19 34  1  0
 19 35  1  0
 20 36  1  0
 20 37  1  0
 21 38  1  0
 21 39  1  0
 22 40  1  0
 22 41  1  0
M  ISO  8  23  14  24  14  25  14  26  14  27  14  28  14  29   8  33  13
M  ISO  8  34  13  35  13  36  13  37  13  38  13  39  13  40  13  41  13
M  END
>  <minimizedAffinity>  (1) 
-5.79311085

>  <minimizedRMSD>  (1) 
0.424292356

$$$$
