
     RDKit          3D

 40 42  0  0  1  0  0  0  0  0999 V2000
   46.7280   32.4090   45.1020 C   0  0  0  0  0  0  0  0  0  0  0  0
   46.9110   32.0050   46.4180 C   0  0  0  0  0  0  0  0  0  0  0  0
   47.5560   30.8480   46.7700 C   0  0  0  0  0  0  0  0  0  0  0  0
   48.0140   30.1050   45.7400 C   0  0  0  0  0  0  0  0  0  0  0  0
   47.8590   30.4610   44.3980 C   0  0  0  0  0  0  0  0  0  0  0  0
   47.2130   31.6160   44.1550 N   0  0  0  0  0  0  0  0  0  0  0  0
   44.6180   35.3610   45.4780 C   0  0  0  0  0  0  0  0  0  0  0  0
   44.7780   36.0190   44.2260 C   0  0  0  0  0  0  0  0  0  0  0  0
   45.6100   35.4200   43.2870 C   0  0  0  0  0  0  0  0  0  0  0  0
   46.2290   34.2600   43.5810 N   0  0  0  0  0  0  0  0  0  0  0  0
   46.0420   33.6700   44.7990 C   0  0  0  0  0  0  0  0  0  0  0  0
   45.2560   34.2150   45.7150 N   0  0  0  0  0  0  0  0  0  0  0  0
   47.7340   30.5540   48.2090 C   0  0  1  0  0  0  0  0  0  0  0  0
   46.4800   30.5020   48.8300 N   0  0  0  0  0  0  0  0  0  0  0  0
   45.4290   29.7300   48.2220 C   0  0  0  0  0  0  0  0  0  0  0  0
   45.1760   28.4290   48.7030 N   0  0  0  0  0  0  0  0  0  0  0  0
   44.6270   29.9440   47.3070 O   0  0  0  0  0  0  0  0  0  0  0  0
   48.8500   29.8870   48.6450 N   0  0  0  0  0  0  0  0  0  0  0  0
   48.9890   30.0120   50.1070 C   0  0  0  0  0  0  0  0  0  0  0  0
   50.0280   31.0840   50.3470 C   0  0  0  0  0  0  0  0  0  0  0  0
   50.6230   31.3690   48.9920 C   0  0  0  0  0  0  0  0  0  0  0  0
   50.1290   30.1670   48.2060 C   0  0  0  0  0  0  0  0  0  0  0  0
   46.5177   32.6472   47.2199 H   0  0  0  0  0  0  0  0  0  0  0  0
   48.5389   29.1662   45.9705 H   0  0  0  0  0  0  0  0  0  0  0  0
   48.2446   29.8305   43.5833 H   0  0  0  0  0  0  0  0  0  0  0  0
   43.9678   35.7983   46.2500 H   0  0  0  0  0  0  0  0  0  0  0  0
   44.2625   36.9663   44.0095 H   0  0  0  0  0  0  0  0  0  0  0  0
   45.7627   35.8924   42.3054 H   0  0  0  0  0  0  0  0  0  0  0  0
   48.2425   31.3717   48.7407 H   0  0  0  0  0  0  0  0  0  0  0  0
   46.3122   31.0097   49.7104 H   0  0  0  0  0  0  0  0  0  0  0  0
   44.4280   27.8603   48.2811 H   0  0  0  0  0  0  0  0  0  0  0  0
   45.7392   28.0472   49.4763 H   0  0  0  0  0  0  0  0  0  0  0  0
   48.0289   30.3053   50.5567 H   0  0  0  0  0  0  0  0  0  0  0  0
   49.2893   29.0566   50.5621 H   0  0  0  0  0  0  0  0  0  0  0  0
   49.5596   31.9893   50.7606 H   0  0  0  0  0  0  0  0  0  0  0  0
   50.7908   30.7620   51.0712 H   0  0  0  0  0  0  0  0  0  0  0  0
   50.2416   32.3116   48.5725 H   0  0  0  0  0  0  0  0  0  0  0  0
   51.7157   31.4956   48.9918 H   0  0  0  0  0  0  0  0  0  0  0  0
   50.7863   29.3035   48.3860 H   0  0  0  0  0  0  0  0  0  0  0  0
   50.1327   30.3791   47.1266 H   0  0  0  0  0  0  0  0  0  0  0  0
  1  2  2  0
  2  3  1  0
  3 13  1  0
  4  3  2  0
  5  4  1  0
  6  5  2  0
  6  1  1  0
  7 12  2  0
  8  7  1  0
  9 10  1  0
  9  8  2  0
 10 11  2  0
 11  1  1  0
 11 12  1  0
 13 18  1  0
 13 14  1  0
 15 16  1  0
 15 14  1  0
 17 15  2  0
 18 19  1  0
 19 20  1  0
 21 20  1  0
 22 18  1  0
 22 21  1  0
  2 23  1  0
  4 24  1  0
  5 25  1  0
  7 26  1  0
  8 27  1  0
  9 28  1  0
 13 29  1  1
 14 30  1  0
 16 31  1  0
 16 32  1  0
 19 33  1  0
 19 34  1  0
 20 35  1  0
 20 36  1  0
 21 37  1  0
 21 38  1  0
 22 39  1  0
 22 40  1  0
M  ISO  8  23  14  24  14  25  14  26  14  27  14  28  14  29   8  33  13
M  ISO  7  34  13  35  13  36  13  37  13  38  13  39  13  40  13
M  END
>  <minimizedAffinity>  (1) 
-4.90767193

>  <minimizedRMSD>  (1) 
1.12379456

$$$$
