
     RDKit          3D

 35 37  0  0  1  0  0  0  0  0999 V2000
   46.8960   32.2580   43.4050 C   0  0  0  0  0  0  0  0  0  0  0  0
   47.4500   31.8780   44.6320 C   0  0  0  0  0  0  0  0  0  0  0  0
   46.8850   30.8740   45.3660 C   0  0  0  0  0  0  0  0  0  0  0  0
   45.7680   30.2650   44.8570 C   0  0  0  0  0  0  0  0  0  0  0  0
   45.2040   30.6210   43.6550 C   0  0  0  0  0  0  0  0  0  0  0  0
   45.8040   31.6080   42.9860 N   0  0  0  0  0  0  0  0  0  0  0  0
   49.1470   34.9490   42.4270 C   0  0  0  0  0  0  0  0  0  0  0  0
   48.7050   35.2880   41.1390 C   0  0  0  0  0  0  0  0  0  0  0  0
   47.6170   34.5760   40.6130 C   0  0  0  0  0  0  0  0  0  0  0  0
   47.0480   33.6060   41.3550 N   0  0  0  0  0  0  0  0  0  0  0  0
   47.5260   33.3190   42.6100 C   0  0  0  0  0  0  0  0  0  0  0  0
   48.5410   33.9750   43.1160 N   0  0  0  0  0  0  0  0  0  0  0  0
   47.5740   30.4840   46.6530 C   0  0  2  0  0  0  0  0  0  0  0  0
   47.5180   29.1110   46.7660 N   0  0  0  0  0  0  0  0  0  0  0  0
   48.6540   28.3990   47.2150 C   0  0  0  0  0  0  0  0  0  0  0  0
   48.8360   28.0100   48.5540 N   0  0  0  0  0  0  0  0  0  0  0  0
   49.6840   27.9670   46.6220 O   0  0  0  0  0  0  0  0  0  0  0  0
   46.7220   30.9840   47.6780 N   0  0  0  0  0  0  0  0  0  0  0  0
   46.6430   32.2590   48.0910 N   0  0  0  0  0  0  0  0  0  0  0  0
   45.7540   32.4070   49.0630 C   0  0  0  0  0  0  0  0  0  0  0  0
   45.1890   31.1770   49.3370 C   0  0  0  0  0  0  0  0  0  0  0  0
   45.8340   30.3560   48.4450 C   0  0  0  0  0  0  0  0  0  0  0  0
   48.3471   32.3914   45.0085 H   0  0  0  0  0  0  0  0  0  0  0  0
   45.3016   29.4546   45.4364 H   0  0  0  0  0  0  0  0  0  0  0  0
   44.3061   30.1192   43.2652 H   0  0  0  0  0  0  0  0  0  0  0  0
   49.9966   35.4870   42.8728 H   0  0  0  0  0  0  0  0  0  0  0  0
   49.1953   36.0854   40.5613 H   0  0  0  0  0  0  0  0  0  0  0  0
   47.2334   34.8065   39.6081 H   0  0  0  0  0  0  0  0  0  0  0  0
   48.6103   30.8497   46.7001 H   0  0  0  0  0  0  0  0  0  0  0  0
   46.6530   28.6066   46.5246 H   0  0  0  0  0  0  0  0  0  0  0  0
   49.6827   27.4922   48.8293 H   0  0  0  0  0  0  0  0  0  0  0  0
   48.1226   28.2429   49.2595 H   0  0  0  0  0  0  0  0  0  0  0  0
   45.5072   33.3527   49.5677 H   0  0  0  0  0  0  0  0  0  0  0  0
   44.4192   30.9205   50.0798 H   0  0  0  0  0  0  0  0  0  0  0  0
   45.6347   29.2767   48.3711 H   0  0  0  0  0  0  0  0  0  0  0  0
  1  2  2  0
  2  3  1  0
  3 13  1  0
  4  3  2  0
  5  4  1  0
  6  1  1  0
  6  5  2  0
  7 12  2  0
  8  7  1  0
  9  8  2  0
  9 10  1  0
 10 11  2  0
 11 12  1  0
 11  1  1  0
 13 14  1  0
 13 18  1  0
 14 15  1  0
 15 16  1  0
 17 15  2  0
 18 19  1  0
 18 22  1  0
 19 20  2  0
 20 21  1  0
 22 21  2  0
  2 23  1  0
  4 24  1  0
  5 25  1  0
  7 26  1  0
  8 27  1  0
  9 28  1  0
 13 29  1  6
 14 30  1  0
 16 31  1  0
 16 32  1  0
 20 33  1  0
 21 34  1  0
 22 35  1  0
M  ISO  8  23  14  24  14  25  14  26  14  27  14  28  14  29   8  33  14
M  ISO  2  34  14  35  14
M  END
>  <minimizedAffinity>  (1) 
-4.66270924

>  <minimizedRMSD>  (1) 
3.28193951

$$$$
