
     RDKit          3D

 34 36  0  0  1  0  0  0  0  0999 V2000
   46.8860   32.2090   44.8710 C   0  0  0  0  0  0  0  0  0  0  0  0
   46.8740   31.4310   46.0320 C   0  0  0  0  0  0  0  0  0  0  0  0
   47.6240   30.2850   46.1090 C   0  0  0  0  0  0  0  0  0  0  0  0
   48.3690   29.9440   45.0150 C   0  0  0  0  0  0  0  0  0  0  0  0
   48.3960   30.7000   43.8540 C   0  0  0  0  0  0  0  0  0  0  0  0
   47.6420   31.8040   43.8510 N   0  0  0  0  0  0  0  0  0  0  0  0
   44.7080   34.9510   45.8810 C   0  0  0  0  0  0  0  0  0  0  0  0
   44.6560   35.7550   44.7100 C   0  0  0  0  0  0  0  0  0  0  0  0
   45.3680   35.3300   43.5950 C   0  0  0  0  0  0  0  0  0  0  0  0
   46.0700   34.1900   43.6650 N   0  0  0  0  0  0  0  0  0  0  0  0
   46.0950   33.4450   44.8110 C   0  0  0  0  0  0  0  0  0  0  0  0
   45.4270   33.8250   45.8860 N   0  0  0  0  0  0  0  0  0  0  0  0
   47.6090   29.5150   47.4030 C   0  0  2  0  0  0  0  0  0  0  0  0
   46.4200   29.7920   48.0470 N   0  0  0  0  0  0  0  0  0  0  0  0
   45.3060   28.9430   47.8510 C   0  0  0  0  0  0  0  0  0  0  0  0
   44.9740   27.9060   48.7390 N   0  0  0  0  0  0  0  0  0  0  0  0
   44.4180   28.8870   46.9540 O   0  0  0  0  0  0  0  0  0  0  0  0
   48.6220   30.1340   48.1890 N   0  0  0  0  0  0  0  0  0  0  0  0
   49.9350   29.8660   48.2790 C   0  0  0  0  0  0  0  0  0  0  0  0
   50.5220   30.7130   49.1590 N   0  0  0  0  0  0  0  0  0  0  0  0
   49.5490   31.5300   49.6310 C   0  0  0  0  0  0  0  0  0  0  0  0
   48.4270   31.1570   49.0300 N   0  0  0  0  0  0  0  0  0  0  0  0
   46.2588   31.7398   46.8900 H   0  0  0  0  0  0  0  0  0  0  0  0
   48.9751   29.0271   45.0582 H   0  0  0  0  0  0  0  0  0  0  0  0
   49.0032   30.4084   42.9844 H   0  0  0  0  0  0  0  0  0  0  0  0
   44.1565   35.2557   46.7827 H   0  0  0  0  0  0  0  0  0  0  0  0
   44.0698   36.6855   44.6871 H   0  0  0  0  0  0  0  0  0  0  0  0
   45.3558   35.9210   42.6673 H   0  0  0  0  0  0  0  0  0  0  0  0
   47.7410   28.4333   47.2527 H   0  0  0  0  0  0  0  0  0  0  0  0
   46.3445   30.6116   48.6662 H   0  0  0  0  0  0  0  0  0  0  0  0
   44.1523   27.3131   48.5542 H   0  0  0  0  0  0  0  0  0  0  0  0
   45.5523   27.7387   49.5747 H   0  0  0  0  0  0  0  0  0  0  0  0
   50.4571   29.0752   47.7205 H   0  0  0  0  0  0  0  0  0  0  0  0
   49.6664   32.3403   50.3656 H   0  0  0  0  0  0  0  0  0  0  0  0
  1  2  2  0
  2  3  1  0
  3 13  1  0
  4  3  2  0
  5  4  1  0
  6  5  2  0
  6  1  1  0
  7 12  2  0
  8  7  1  0
  9 10  1  0
  9  8  2  0
 10 11  2  0
 11  1  1  0
 11 12  1  0
 13 14  1  0
 13 18  1  0
 15 14  1  0
 15 16  1  0
 17 15  2  0
 18 19  1  0
 18 22  1  0
 19 20  2  0
 20 21  1  0
 22 21  2  0
  2 23  1  0
  4 24  1  0
  5 25  1  0
  7 26  1  0
  8 27  1  0
  9 28  1  0
 13 29  1  6
 14 30  1  0
 16 31  1  0
 16 32  1  0
 19 33  1  0
 21 34  1  0
M  ISO  8  23  14  24  14  25  14  26  14  27  14  28  14  29   8  33  14
M  ISO  1  34  14
M  END
>  <minimizedAffinity>  (1) 
-5.0895834

>  <minimizedRMSD>  (1) 
1.52774978

$$$$
