
     RDKit          3D

 42 45  0  0  1  0  0  0  0  0999 V2000
   45.3230   31.3240   43.4060 C   0  0  2  0  0  0  0  0  0  0  0  0
   44.0980   34.0430   41.1130 C   0  0  0  0  0  0  0  0  0  0  0  0
   44.1640   33.0070   42.0380 C   0  0  0  0  0  0  0  0  0  0  0  0
   45.3480   32.4250   42.3750 C   0  0  0  0  0  0  0  0  0  0  0  0
   46.4740   32.8930   41.7700 C   0  0  0  0  0  0  0  0  0  0  0  0
   46.4560   33.9150   40.8490 C   0  0  0  0  0  0  0  0  0  0  0  0
   45.2640   34.4450   40.5600 N   0  0  0  0  0  0  0  0  0  0  0  0
   40.9160   35.7440   41.4820 C   0  0  0  0  0  0  0  0  0  0  0  0
   40.4660   35.8690   40.1510 C   0  0  0  0  0  0  0  0  0  0  0  0
   41.2780   35.3550   39.1280 C   0  0  0  0  0  0  0  0  0  0  0  0
   42.4400   34.7710   39.4520 N   0  0  0  0  0  0  0  0  0  0  0  0
   42.8320   34.6750   40.7640 C   0  0  0  0  0  0  0  0  0  0  0  0
   42.0870   35.1470   41.7290 N   0  0  0  0  0  0  0  0  0  0  0  0
   44.0820   30.7980   43.4660 N   0  0  0  0  0  0  0  0  0  0  0  0
   43.8120   29.4450   43.6940 C   0  0  0  0  0  0  0  0  0  0  0  0
   43.2730   29.0750   44.9460 N   0  0  0  0  0  0  0  0  0  0  0  0
   43.9410   28.3820   43.0020 O   0  0  0  0  0  0  0  0  0  0  0  0
   45.5680   32.0060   44.6920 C   0  0  2  0  0  0  0  0  0  0  0  0
   46.9440   32.3480   45.1350 C   0  0  0  0  0  0  0  0  0  0  0  0
   46.3000   31.1730   45.7680 C   0  0  1  0  0  0  0  0  0  0  0  0
   45.9160   31.3050   47.1750 C   0  0  0  0  0  0  0  0  0  0  0  0
   45.0830   30.4640   47.8880 C   0  0  0  0  0  0  0  0  0  0  0  0
   45.0430   31.0170   49.1560 C   0  0  0  0  0  0  0  0  0  0  0  0
   45.8200   32.1330   49.1800 C   0  0  0  0  0  0  0  0  0  0  0  0
   46.3190   32.2630   47.9790 O   0  0  0  0  0  0  0  0  0  0  0  0
   46.0511   30.5320   43.1766 H   0  0  0  0  0  0  0  0  0  0  0  0
   43.2369   32.6487   42.5092 H   0  0  0  0  0  0  0  0  0  0  0  0
   47.4398   32.4344   42.0285 H   0  0  0  0  0  0  0  0  0  0  0  0
   47.3789   34.2784   40.3733 H   0  0  0  0  0  0  0  0  0  0  0  0
   40.3079   36.1349   42.3111 H   0  0  0  0  0  0  0  0  0  0  0  0
   39.5064   36.3553   39.9214 H   0  0  0  0  0  0  0  0  0  0  0  0
   40.9653   35.4304   38.0761 H   0  0  0  0  0  0  0  0  0  0  0  0
   43.2822   31.4338   43.3355 H   0  0  0  0  0  0  0  0  0  0  0  0
   43.0632   28.0863   45.1445 H   0  0  0  0  0  0  0  0  0  0  0  0
   43.0897   29.7939   45.6605 H   0  0  0  0  0  0  0  0  0  0  0  0
   44.6384   32.5867   44.5990 H   0  0  0  0  0  0  0  0  0  0  0  0
   47.7884   32.1979   44.4462 H   0  0  0  0  0  0  0  0  0  0  0  0
   47.4121   33.2629   45.5273 H   0  0  0  0  0  0  0  0  0  0  0  0
   46.5266   30.1036   45.8904 H   0  0  0  0  0  0  0  0  0  0  0  0
   44.5686   29.5603   47.5292 H   0  0  0  0  0  0  0  0  0  0  0  0
   44.4737   30.6177   50.0083 H   0  0  0  0  0  0  0  0  0  0  0  0
   45.9941   32.7956   50.0406 H   0  0  0  0  0  0  0  0  0  0  0  0
  1 14  1  0
  1 18  1  0
  2  3  2  0
  3  4  1  0
  4  1  1  0
  5  4  2  0
  6  5  1  0
  7  6  2  0
  7  2  1  0
  8 13  2  0
  9  8  1  0
 10 11  1  0
 10  9  2  0
 11 12  2  0
 12  2  1  0
 12 13  1  0
 14 15  1  0
 15 16  1  0
 17 15  2  0
 18 19  1  0
 18 20  1  0
 19 20  1  0
 20 21  1  0
 21 22  2  0
 21 25  1  0
 22 23  1  0
 23 24  2  0
 25 24  1  0
  1 26  1  6
  3 27  1  0
  5 28  1  0
  6 29  1  0
  8 30  1  0
  9 31  1  0
 10 32  1  0
 14 33  1  0
 16 34  1  0
 16 35  1  0
 18 36  1  1
 19 37  1  0
 19 38  1  0
 20 39  1  6
 22 40  1  0
 23 41  1  0
 24 42  1  0
M  ISO  8  26   8  27  14  28  14  29  14  30  14  31  14  32  14  36  13
M  ISO  6  37  13  38  13  39  13  40  14  41  14  42  14
M  END
>  <minimizedAffinity>  (1) 
-5.32100964

>  <minimizedRMSD>  (1) 
4.52563381

$$$$
