
     RDKit          3D

 42 45  0  0  1  0  0  0  0  0999 V2000
   47.5520   29.9130   46.7980 C   0  0  2  0  0  0  0  0  0  0  0  0
   46.8640   32.6300   44.2870 C   0  0  0  0  0  0  0  0  0  0  0  0
   46.8670   31.8430   45.4370 C   0  0  0  0  0  0  0  0  0  0  0  0
   47.5890   30.6920   45.5030 C   0  0  0  0  0  0  0  0  0  0  0  0
   48.3110   30.3330   44.4040 C   0  0  0  0  0  0  0  0  0  0  0  0
   48.3360   31.0820   43.2460 C   0  0  0  0  0  0  0  0  0  0  0  0
   47.6050   32.2010   43.2480 N   0  0  0  0  0  0  0  0  0  0  0  0
   44.6710   35.3480   45.2670 C   0  0  0  0  0  0  0  0  0  0  0  0
   44.7020   36.2200   44.1720 C   0  0  0  0  0  0  0  0  0  0  0  0
   45.5020   35.8440   43.0680 C   0  0  0  0  0  0  0  0  0  0  0  0
   46.1880   34.6750   43.1250 N   0  0  0  0  0  0  0  0  0  0  0  0
   46.1120   33.8750   44.2210 C   0  0  0  0  0  0  0  0  0  0  0  0
   45.3660   34.2190   45.2590 N   0  0  0  0  0  0  0  0  0  0  0  0
   46.5180   30.3560   47.5460 N   0  0  0  0  0  0  0  0  0  0  0  0
   45.3170   29.6610   47.7180 C   0  0  0  0  0  0  0  0  0  0  0  0
   45.0660   29.0650   48.9750 N   0  0  0  0  0  0  0  0  0  0  0  0
   44.3180   29.4110   46.9710 O   0  0  0  0  0  0  0  0  0  0  0  0
   48.7900   30.2960   47.5010 C   0  0  2  0  0  0  0  0  0  0  0  0
   49.9700   29.3830   47.5120 C   0  0  0  0  0  0  0  0  0  0  0  0
   49.1510   29.4520   48.7420 C   0  0  1  0  0  0  0  0  0  0  0  0
   49.7960   30.0980   49.8850 C   0  0  0  0  0  0  0  0  0  0  0  0
   50.1410   31.4180   49.8890 C   0  0  0  0  0  0  0  0  0  0  0  0
   50.7240   31.6870   51.1200 C   0  0  0  0  0  0  0  0  0  0  0  0
   50.7170   30.5410   51.8150 N   0  0  0  0  0  0  0  0  0  0  0  0
   50.1570   29.5760   51.0730 N   0  0  0  0  0  0  0  0  0  0  0  0
   47.4551   28.8306   46.6274 H   0  0  0  0  0  0  0  0  0  0  0  0
   46.2741   32.1586   46.3082 H   0  0  0  0  0  0  0  0  0  0  0  0
   48.8999   29.4047   44.4423 H   0  0  0  0  0  0  0  0  0  0  0  0
   48.9251   30.7753   42.3691 H   0  0  0  0  0  0  0  0  0  0  0  0
   44.0614   35.6032   46.1463 H   0  0  0  0  0  0  0  0  0  0  0  0
   44.1281   37.1584   44.1705 H   0  0  0  0  0  0  0  0  0  0  0  0
   45.5669   36.4881   42.1787 H   0  0  0  0  0  0  0  0  0  0  0  0
   46.6210   31.2645   48.0203 H   0  0  0  0  0  0  0  0  0  0  0  0
   44.1904   28.5462   49.1333 H   0  0  0  0  0  0  0  0  0  0  0  0
   45.7587   29.1496   49.7326 H   0  0  0  0  0  0  0  0  0  0  0  0
   48.6515   31.3581   47.2505 H   0  0  0  0  0  0  0  0  0  0  0  0
   49.9546   28.4689   46.9003 H   0  0  0  0  0  0  0  0  0  0  0  0
   51.0409   29.5189   47.3007 H   0  0  0  0  0  0  0  0  0  0  0  0
   48.5862   28.7528   49.3761 H   0  0  0  0  0  0  0  0  0  0  0  0
   49.9861   32.1354   49.0696 H   0  0  0  0  0  0  0  0  0  0  0  0
   51.1170   32.6564   51.4602 H   0  0  0  0  0  0  0  0  0  0  0  0
   51.0845   30.4209   52.7697 H   0  0  0  0  0  0  0  0  0  0  0  0
  1 18  1  0
  1 14  1  0
  2  3  2  0
  3  4  1  0
  4  1  1  0
  5  4  2  0
  6  7  2  0
  6  5  1  0
  7  2  1  0
  9  8  2  0
 10 11  2  0
 10  9  1  0
 11 12  1  0
 12  2  1  0
 12 13  2  0
 13  8  1  0
 14 15  1  0
 15 16  1  0
 17 15  2  0
 18 19  1  0
 18 20  1  0
 19 20  1  0
 20 21  1  0
 21 22  1  0
 21 25  2  0
 22 23  2  0
 23 24  1  0
 25 24  1  0
  1 26  1  6
  3 27  1  0
  5 28  1  0
  6 29  1  0
  8 30  1  0
  9 31  1  0
 10 32  1  0
 14 33  1  0
 16 34  1  0
 16 35  1  0
 18 36  1  1
 19 37  1  0
 19 38  1  0
 20 39  1  1
 22 40  1  0
 23 41  1  0
 24 42  1  0
M  ISO  8  26   8  27  14  28  14  29  14  30  14  31  14  32  14  36  13
M  ISO  6  37  13  38  13  39  13  40  14  41  14  42   9
M  END
>  <minimizedAffinity>  (1) 
-5.74406481

>  <minimizedRMSD>  (1) 
3.95783067

$$$$
