
     RDKit          3D

 38 40  0  0  1  0  0  0  0  0999 V2000
   46.4320   30.1110   45.5740 C   0  0  2  0  0  0  0  0  0  0  0  0
   48.5920   31.8580   43.0380 C   0  0  0  0  0  0  0  0  0  0  0  0
   47.5900   31.5570   43.9550 C   0  0  0  0  0  0  0  0  0  0  0  0
   47.5380   30.3450   44.5740 C   0  0  0  0  0  0  0  0  0  0  0  0
   48.5020   29.4350   44.2640 C   0  0  0  0  0  0  0  0  0  0  0  0
   49.5080   29.6920   43.3640 C   0  0  0  0  0  0  0  0  0  0  0  0
   49.5060   30.8990   42.7900 N   0  0  0  0  0  0  0  0  0  0  0  0
   49.6390   35.2530   42.3010 C   0  0  0  0  0  0  0  0  0  0  0  0
   48.8440   35.6030   41.2040 C   0  0  0  0  0  0  0  0  0  0  0  0
   47.9390   34.6620   40.7180 C   0  0  0  0  0  0  0  0  0  0  0  0
   47.8640   33.4510   41.3260 N   0  0  0  0  0  0  0  0  0  0  0  0
   48.6620   33.1610   42.3910 C   0  0  0  0  0  0  0  0  0  0  0  0
   49.5250   34.0530   42.8560 N   0  0  0  0  0  0  0  0  0  0  0  0
   45.2400   30.2670   44.9620 N   0  0  0  0  0  0  0  0  0  0  0  0
   44.4070   29.2130   44.5740 C   0  0  0  0  0  0  0  0  0  0  0  0
   43.2220   28.9900   45.3070 N   0  0  0  0  0  0  0  0  0  0  0  0
   44.4570   28.3380   43.6490 O   0  0  0  0  0  0  0  0  0  0  0  0
   46.5640   31.2130   46.5510 C   0  0  2  0  0  0  0  0  0  0  0  0
   47.6210   31.2040   47.5940 C   0  0  0  0  0  0  0  0  0  0  0  0
   46.2500   30.8460   48.0130 C   0  0  1  0  0  0  0  0  0  0  0  0
   45.4060   31.7380   48.8470 C   0  0  0  0  0  0  0  0  0  0  0  0
   45.1560   31.1560   50.0900 F   0  0  0  0  0  0  0  0  0  0  0  0
   44.1540   31.9130   48.2770 F   0  0  0  0  0  0  0  0  0  0  0  0
   46.0790   32.9330   49.0000 F   0  0  0  0  0  0  0  0  0  0  0  0
   46.4927   29.1088   46.0233 H   0  0  0  0  0  0  0  0  0  0  0  0
   46.8246   32.3129   44.1846 H   0  0  0  0  0  0  0  0  0  0  0  0
   48.4743   28.4512   44.7554 H   0  0  0  0  0  0  0  0  0  0  0  0
   50.2768   28.9416   43.1277 H   0  0  0  0  0  0  0  0  0  0  0  0
   50.3623   35.9764   42.7055 H   0  0  0  0  0  0  0  0  0  0  0  0
   48.9314   36.5953   40.7375 H   0  0  0  0  0  0  0  0  0  0  0  0
   47.2964   34.8964   39.8565 H   0  0  0  0  0  0  0  0  0  0  0  0
   44.9220   31.2272   44.7674 H   0  0  0  0  0  0  0  0  0  0  0  0
   42.5902   28.2206   45.0429 H   0  0  0  0  0  0  0  0  0  0  0  0
   42.9889   29.5966   46.1061 H   0  0  0  0  0  0  0  0  0  0  0  0
   46.2490   31.9577   45.8052 H   0  0  0  0  0  0  0  0  0  0  0  0
   48.4008   30.4285   47.5696 H   0  0  0  0  0  0  0  0  0  0  0  0
   48.3548   31.9460   47.9417 H   0  0  0  0  0  0  0  0  0  0  0  0
   45.8049   29.9913   48.5435 H   0  0  0  0  0  0  0  0  0  0  0  0
  1 18  1  0
  2  3  2  0
  3  4  1  0
  4  1  1  0
  5  4  2  0
  6  5  1  0
  7  2  1  0
  7  6  2  0
  8 13  2  0
  9  8  1  0
 10  9  2  0
 10 11  1  0
 11 12  2  0
 12 13  1  0
 12  2  1  0
 14  1  1  0
 15 14  1  0
 15 16  1  0
 17 15  2  0
 18 19  1  0
 18 20  1  0
 19 20  1  0
 20 21  1  0
 21 24  1  0
 21 22  1  0
 23 21  1  0
  1 25  1  1
  3 26  1  0
  5 27  1  0
  6 28  1  0
  8 29  1  0
  9 30  1  0
 10 31  1  0
 14 32  1  0
 16 33  1  0
 16 34  1  0
 18 35  1  6
 19 36  1  0
 19 37  1  0
 20 38  1  6
M  ISO  8  25   8  26  14  27  14  28  14  29  14  30  14  31  14  35  13
M  ISO  3  36  13  37  13  38  13
M  END
>  <minimizedAffinity>  (1) 
-5.28688383

>  <minimizedRMSD>  (1) 
3.14391303

$$$$
