
     RDKit          3D

 48 52  0  0  1  0  0  0  0  0999 V2000
   46.6670   30.4060   46.3430 C   0  0  2  0  0  0  0  0  0  0  0  0
   46.7230   33.5440   44.2670 C   0  0  0  0  0  0  0  0  0  0  0  0
   46.9440   32.2560   44.7470 C   0  0  0  0  0  0  0  0  0  0  0  0
   46.3960   31.8280   45.9180 C   0  0  0  0  0  0  0  0  0  0  0  0
   45.6220   32.7110   46.6090 C   0  0  0  0  0  0  0  0  0  0  0  0
   45.3770   33.9910   46.1760 C   0  0  0  0  0  0  0  0  0  0  0  0
   45.9440   34.3490   45.0170 N   0  0  0  0  0  0  0  0  0  0  0  0
   47.0070   34.3090   40.7340 C   0  0  0  0  0  0  0  0  0  0  0  0
   48.3070   34.8590   40.6320 C   0  0  0  0  0  0  0  0  0  0  0  0
   49.0760   34.9540   41.7930 C   0  0  0  0  0  0  0  0  0  0  0  0
   48.5460   34.5200   42.9560 N   0  0  0  0  0  0  0  0  0  0  0  0
   47.2900   33.9990   43.0110 C   0  0  0  0  0  0  0  0  0  0  0  0
   46.5590   33.9040   41.9230 N   0  0  0  0  0  0  0  0  0  0  0  0
   47.1310   29.7120   45.2850 N   0  0  0  0  0  0  0  0  0  0  0  0
   48.3830   29.0940   45.2320 C   0  0  0  0  0  0  0  0  0  0  0  0
   48.4280   27.6840   45.2870 N   0  0  0  0  0  0  0  0  0  0  0  0
   49.5820   29.5170   45.1400 O   0  0  0  0  0  0  0  0  0  0  0  0
   45.3390   29.8530   46.6780 C   0  0  2  0  0  0  0  0  0  0  0  0
   45.1810   28.8710   47.7830 C   0  0  0  0  0  0  0  0  0  0  0  0
   45.1450   28.3510   46.3930 C   0  0  1  0  0  0  0  0  0  0  0  0
   43.8610   27.8680   45.9720 N   0  0  0  0  0  0  0  0  0  0  0  0
   42.8790   28.6560   45.4610 C   0  0  0  0  0  0  0  0  0  0  0  0
   41.8060   27.8620   45.1730 N   0  0  0  0  0  0  0  0  0  0  0  0
   42.1630   26.5950   45.5180 C   0  0  0  0  0  0  0  0  0  0  0  0
   41.5100   25.3690   45.4630 C   0  0  0  0  0  0  0  0  0  0  0  0
   42.1210   24.2290   45.8860 N   0  0  0  0  0  0  0  0  0  0  0  0
   43.3910   24.2790   46.3730 C   0  0  0  0  0  0  0  0  0  0  0  0
   44.0560   25.4510   46.4410 N   0  0  0  0  0  0  0  0  0  0  0  0
   43.4540   26.6020   46.0200 C   0  0  0  0  0  0  0  0  0  0  0  0
   40.1770   25.2950   44.9560 N   0  0  0  0  0  0  0  0  0  0  0  0
   47.3903   30.3536   47.1701 H   0  0  0  0  0  0  0  0  0  0  0  0
   47.5762   31.5678   44.1667 H   0  0  0  0  0  0  0  0  0  0  0  0
   45.1724   32.3834   47.5579 H   0  0  0  0  0  0  0  0  0  0  0  0
   44.7477   34.6860   46.7513 H   0  0  0  0  0  0  0  0  0  0  0  0
   46.3719   34.2164   39.8407 H   0  0  0  0  0  0  0  0  0  0  0  0
   48.7007   35.2023   39.6640 H   0  0  0  0  0  0  0  0  0  0  0  0
   50.0923   35.3736   41.7608 H   0  0  0  0  0  0  0  0  0  0  0  0
   46.5210   29.6317   44.4590 H   0  0  0  0  0  0  0  0  0  0  0  0
   49.3342   27.1958   45.2503 H   0  0  0  0  0  0  0  0  0  0  0  0
   47.5546   27.1435   45.3638 H   0  0  0  0  0  0  0  0  0  0  0  0
   44.8380   30.8001   46.4290 H   0  0  0  0  0  0  0  0  0  0  0  0
   46.0405   28.6368   48.4283 H   0  0  0  0  0  0  0  0  0  0  0  0
   44.5008   28.7944   48.6441 H   0  0  0  0  0  0  0  0  0  0  0  0
   45.6952   27.6208   45.7813 H   0  0  0  0  0  0  0  0  0  0  0  0
   42.9381   29.7435   45.3064 H   0  0  0  0  0  0  0  0  0  0  0  0
   43.8801   23.3548   46.7145 H   0  0  0  0  0  0  0  0  0  0  0  0
   39.6915   24.3876   44.9144 H   0  0  0  0  0  0  0  0  0  0  0  0
   39.7011   26.1491   44.6319 H   0  0  0  0  0  0  0  0  0  0  0  0
  1 18  1  0
  2  3  2  0
  2  7  1  0
  3  4  1  0
  4  1  1  0
  4  5  2  0
  6  5  1  0
  7  6  2  0
  8 13  2  0
  9  8  1  0
  9 10  2  0
 10 11  1  0
 11 12  2  0
 12  2  1  0
 13 12  1  0
 14  1  1  0
 15 14  1  0
 15 16  1  0
 17 15  2  0
 18 19  1  0
 20 18  1  0
 20 19  1  0
 21 29  1  0
 21 20  1  0
 22 21  1  0
 23 22  2  0
 23 24  1  0
 24 29  2  0
 25 24  1  0
 25 26  2  0
 26 27  1  0
 27 28  2  0
 29 28  1  0
 30 25  1  0
  1 31  1  1
  3 32  1  0
  5 33  1  0
  6 34  1  0
  8 35  1  0
  9 36  1  0
 10 37  1  0
 14 38  1  0
 16 39  1  0
 16 40  1  0
 18 41  1  6
 19 42  1  0
 19 43  1  0
 20 44  1  1
 22 45  1  0
 27 46  1  0
 30 47  1  0
 30 48  1  0
M  ISO  8  31   8  32  14  33  14  34  14  35  14  36  14  37  14  41  13
M  ISO  5  42  13  43  13  44  13  45  14  46  14
M  END
>  <minimizedAffinity>  (1) 
-5.21830988

>  <minimizedRMSD>  (1) 
5.84887362

$$$$
