
     RDKit          3D

 38 40  0  0  1  0  0  0  0  0999 V2000
   46.8150   32.7820   44.0780 C   0  0  0  0  0  0  0  0  0  0  0  0
   46.6580   32.0690   45.2630 C   0  0  0  0  0  0  0  0  0  0  0  0
   47.3120   30.8920   45.4660 C   0  0  0  0  0  0  0  0  0  0  0  0
   48.1220   30.4380   44.4710 C   0  0  0  0  0  0  0  0  0  0  0  0
   48.3040   31.1130   43.2850 C   0  0  0  0  0  0  0  0  0  0  0  0
   47.6360   32.2610   43.1430 N   0  0  0  0  0  0  0  0  0  0  0  0
   44.6390   35.6300   44.6490 C   0  0  0  0  0  0  0  0  0  0  0  0
   44.8440   36.4440   43.5300 C   0  0  0  0  0  0  0  0  0  0  0  0
   45.7610   35.9760   42.5560 C   0  0  0  0  0  0  0  0  0  0  0  0
   46.3800   34.7970   42.7470 N   0  0  0  0  0  0  0  0  0  0  0  0
   46.1320   34.0560   43.8630 C   0  0  0  0  0  0  0  0  0  0  0  0
   45.2770   34.4760   44.7840 N   0  0  0  0  0  0  0  0  0  0  0  0
   47.0960   30.1940   46.7890 C   0  0  2  0  0  0  0  0  0  0  0  0
   46.1400   29.2510   46.6390 N   0  0  0  0  0  0  0  0  0  0  0  0
   46.2840   27.9130   47.0110 C   0  0  0  0  0  0  0  0  0  0  0  0
   45.5740   27.4550   48.1420 N   0  0  0  0  0  0  0  0  0  0  0  0
   46.9450   26.9260   46.5520 O   0  0  0  0  0  0  0  0  0  0  0  0
   46.5370   31.2310   47.6840 C   0  0  2  0  0  0  0  0  0  0  0  0
   47.3460   31.7820   48.8040 C   0  0  0  0  0  0  0  0  0  0  0  0
   46.3060   30.7940   49.1450 C   0  0  1  0  0  0  0  0  0  0  0  0
   45.0430   31.2840   49.7740 C   0  0  0  0  0  0  0  0  0  0  0  0
   45.9952   32.4625   46.0478 H   0  0  0  0  0  0  0  0  0  0  0  0
   48.6558   29.4880   44.6213 H   0  0  0  0  0  0  0  0  0  0  0  0
   48.9652   30.7270   42.4952 H   0  0  0  0  0  0  0  0  0  0  0  0
   43.9359   35.9533   45.4307 H   0  0  0  0  0  0  0  0  0  0  0  0
   44.3179   37.4028   43.4115 H   0  0  0  0  0  0  0  0  0  0  0  0
   45.9645   36.5706   41.6532 H   0  0  0  0  0  0  0  0  0  0  0  0
   48.0233   29.7366   47.1643 H   0  0  0  0  0  0  0  0  0  0  0  0
   45.2435   29.5390   46.2216 H   0  0  0  0  0  0  0  0  0  0  0  0
   45.6599   26.4731   48.4411 H   0  0  0  0  0  0  0  0  0  0  0  0
   44.9701   28.1027   48.6680 H   0  0  0  0  0  0  0  0  0  0  0  0
   45.9609   31.6891   46.8666 H   0  0  0  0  0  0  0  0  0  0  0  0
   48.4069   31.5054   48.8938 H   0  0  0  0  0  0  0  0  0  0  0  0
   47.5707   32.8013   49.1512 H   0  0  0  0  0  0  0  0  0  0  0  0
   46.2990   29.8471   49.7047 H   0  0  0  0  0  0  0  0  0  0  0  0
   45.1401   31.2463   50.8691 H   0  0  0  0  0  0  0  0  0  0  0  0
   44.8542   32.3206   49.4581 H   0  0  0  0  0  0  0  0  0  0  0  0
   44.2045   30.6459   49.4581 H   0  0  0  0  0  0  0  0  0  0  0  0
  1  2  2  0
  2  3  1  0
  3 13  1  0
  4  3  2  0
  5  4  1  0
  6  5  2  0
  6  1  1  0
  7 12  2  0
  8  7  1  0
  9 10  1  0
  9  8  2  0
 10 11  2  0
 11  1  1  0
 11 12  1  0
 13 18  1  0
 14 13  1  0
 14 15  1  0
 15 16  1  0
 17 15  2  0
 18 19  1  0
 18 20  1  0
 19 20  1  0
 20 21  1  0
  2 22  1  0
  4 23  1  0
  5 24  1  0
  7 25  1  0
  8 26  1  0
  9 27  1  0
 13 28  1  1
 14 29  1  0
 16 30  1  0
 16 31  1  0
 18 32  1  6
 19 33  1  0
 19 34  1  0
 20 35  1  6
 21 36  1  0
 21 37  1  0
 21 38  1  0
M  ISO  8  22  14  23  14  24  14  25  14  26  14  27  14  28   8  32  13
M  ISO  6  33  13  34  13  35  13  36   8  37   8  38   8
M  END
>  <minimizedAffinity>  (1) 
-4.70952702

>  <minimizedRMSD>  (1) 
0.999441147

$$$$
