
     RDKit          3D

 42 44  0  0  1  0  0  0  0  0999 V2000
   46.9280   30.4720   45.9870 C   0  0  2  0  0  0  0  0  0  0  0  0
   48.1150   31.9310   42.7370 C   0  0  0  0  0  0  0  0  0  0  0  0
   47.6540   31.7840   44.0430 C   0  0  0  0  0  0  0  0  0  0  0  0
   47.4010   30.5440   44.5530 C   0  0  0  0  0  0  0  0  0  0  0  0
   47.6030   29.4640   43.7650 C   0  0  0  0  0  0  0  0  0  0  0  0
   48.0570   29.5680   42.4680 C   0  0  0  0  0  0  0  0  0  0  0  0
   48.2930   30.8000   42.0120 N   0  0  0  0  0  0  0  0  0  0  0  0
   49.5380   35.2530   42.4000 C   0  0  0  0  0  0  0  0  0  0  0  0
   49.0280   35.7030   41.1890 C   0  0  0  0  0  0  0  0  0  0  0  0
   48.1680   34.8490   40.4610 C   0  0  0  0  0  0  0  0  0  0  0  0
   47.8810   33.6270   40.9820 N   0  0  0  0  0  0  0  0  0  0  0  0
   48.4120   33.2440   42.1740 C   0  0  0  0  0  0  0  0  0  0  0  0
   49.2120   34.0320   42.8540 N   0  0  0  0  0  0  0  0  0  0  0  0
   46.1910   29.3560   46.1490 N   0  0  0  0  0  0  0  0  0  0  0  0
   46.3350   28.4260   47.1730 C   0  0  0  0  0  0  0  0  0  0  0  0
   45.2890   28.3560   48.1380 N   0  0  0  0  0  0  0  0  0  0  0  0
   47.2390   27.5630   47.4740 O   0  0  0  0  0  0  0  0  0  0  0  0
   46.0260   31.6260   46.1500 C   0  0  2  0  0  0  0  0  0  0  0  0
   46.4890   32.9760   46.4760 C   0  0  0  0  0  0  0  0  0  0  0  0
   45.8950   32.2200   47.5730 C   0  0  2  0  0  0  0  0  0  0  0  0
   46.7950   31.7660   48.6370 C   0  0  0  0  0  0  0  0  0  0  0  0
   46.2850   31.0140   49.5400 O   0  0  0  0  0  0  0  0  0  0  0  0
   48.1160   31.9760   48.8940 O   0  0  0  0  0  0  0  0  0  0  0  0
   48.9870   31.0760   49.4820 C   0  0  0  0  0  0  0  0  0  0  0  0
   48.8130   29.6900   49.2050 N   0  0  0  0  0  0  0  0  0  0  0  0
   49.8880   31.5230   50.2310 O   0  0  0  0  0  0  0  0  0  0  0  0
   47.7669   30.4697   46.6985 H   0  0  0  0  0  0  0  0  0  0  0  0
   47.4926   32.6745   44.6682 H   0  0  0  0  0  0  0  0  0  0  0  0
   47.3971   28.4642   44.1748 H   0  0  0  0  0  0  0  0  0  0  0  0
   48.2170   28.6795   41.8395 H   0  0  0  0  0  0  0  0  0  0  0  0
   50.2091   35.8969   42.9873 H   0  0  0  0  0  0  0  0  0  0  0  0
   49.2872   36.7008   40.8052 H   0  0  0  0  0  0  0  0  0  0  0  0
   47.7420   35.1655   39.4975 H   0  0  0  0  0  0  0  0  0  0  0  0
   45.4547   29.1753   45.4518 H   0  0  0  0  0  0  0  0  0  0  0  0
   45.3497   27.6831   48.9154 H   0  0  0  0  0  0  0  0  0  0  0  0
   44.4721   28.9783   48.0581 H   0  0  0  0  0  0  0  0  0  0  0  0
   45.3777   31.2242   45.3573 H   0  0  0  0  0  0  0  0  0  0  0  0
   47.5685   33.1867   46.4894 H   0  0  0  0  0  0  0  0  0  0  0  0
   46.2842   33.9676   46.0460 H   0  0  0  0  0  0  0  0  0  0  0  0
   45.0650   32.3516   48.2827 H   0  0  0  0  0  0  0  0  0  0  0  0
   49.4462   28.9967   49.6285 H   0  0  0  0  0  0  0  0  0  0  0  0
   48.0540   29.3808   48.5812 H   0  0  0  0  0  0  0  0  0  0  0  0
  1 14  1  0
  1 18  1  0
  2  3  2  0
  3  4  1  0
  4  1  1  0
  5  4  2  0
  6  5  1  0
  7  6  2  0
  7  2  1  0
  8 13  2  0
  9  8  1  0
 10 11  1  0
 10  9  2  0
 11 12  2  0
 12  2  1  0
 12 13  1  0
 14 15  1  0
 15 17  2  0
 15 16  1  0
 18 19  1  0
 18 20  1  0
 19 20  1  0
 20 21  1  0
 21 23  1  0
 21 22  2  0
 23 24  1  0
 24 26  2  0
 25 24  1  0
  1 27  1  1
  3 28  1  0
  5 29  1  0
  6 30  1  0
  8 31  1  0
  9 32  1  0
 10 33  1  0
 14 34  1  0
 16 35  1  0
 16 36  1  0
 18 37  1  6
 19 38  1  0
 19 39  1  0
 20 40  1  1
 25 41  1  0
 25 42  1  0
M  ISO  8  27   8  28  14  29  14  30  14  31  14  32  14  33  14  37  13
M  ISO  3  38  13  39  13  40  13
M  END
>  <minimizedAffinity>  (1) 
-5.18270397

>  <minimizedRMSD>  (1) 
1.32586336

$$$$
