
     RDKit          3D

 41 43  0  0  1  0  0  0  0  0999 V2000
   46.8590   30.5390   46.0750 C   0  0  2  0  0  0  0  0  0  0  0  0
   48.1540   31.9300   42.8370 C   0  0  0  0  0  0  0  0  0  0  0  0
   47.6320   31.8040   44.1220 C   0  0  0  0  0  0  0  0  0  0  0  0
   47.4120   30.5770   44.6660 C   0  0  0  0  0  0  0  0  0  0  0  0
   47.7080   29.4810   43.9350 C   0  0  0  0  0  0  0  0  0  0  0  0
   48.2250   29.5580   42.6610 C   0  0  0  0  0  0  0  0  0  0  0  0
   48.4260   30.7790   42.1670 N   0  0  0  0  0  0  0  0  0  0  0  0
   49.5420   35.2390   42.3700 C   0  0  0  0  0  0  0  0  0  0  0  0
   48.9940   35.6750   41.1560 C   0  0  0  0  0  0  0  0  0  0  0  0
   48.1230   34.7950   40.4950 C   0  0  0  0  0  0  0  0  0  0  0  0
   47.8550   33.5840   41.0510 N   0  0  0  0  0  0  0  0  0  0  0  0
   48.4180   33.2230   42.2310 C   0  0  0  0  0  0  0  0  0  0  0  0
   49.2360   34.0310   42.8660 N   0  0  0  0  0  0  0  0  0  0  0  0
   46.0860   29.4440   46.2130 N   0  0  0  0  0  0  0  0  0  0  0  0
   46.2360   28.4580   47.1810 C   0  0  0  0  0  0  0  0  0  0  0  0
   45.2260   28.3820   48.1860 N   0  0  0  0  0  0  0  0  0  0  0  0
   47.1190   27.5460   47.3960 O   0  0  0  0  0  0  0  0  0  0  0  0
   45.9770   31.7150   46.1710 C   0  0  2  0  0  0  0  0  0  0  0  0
   46.4460   33.0300   46.6260 C   0  0  0  0  0  0  0  0  0  0  0  0
   45.6870   32.2470   47.5970 C   0  0  2  0  0  0  0  0  0  0  0  0
   46.4150   31.7210   48.7470 C   0  0  0  0  0  0  0  0  0  0  0  0
   45.7700   31.0790   49.6280 O   0  0  0  0  0  0  0  0  0  0  0  0
   47.7210   31.7730   49.1110 O   0  0  0  0  0  0  0  0  0  0  0  0
   48.5790   30.7160   49.3570 C   0  0  0  0  0  0  0  0  0  0  0  0
   47.6583   30.5284   46.8306 H   0  0  0  0  0  0  0  0  0  0  0  0
   47.3949   32.7071   44.7036 H   0  0  0  0  0  0  0  0  0  0  0  0
   47.5293   28.4884   44.3741 H   0  0  0  0  0  0  0  0  0  0  0  0
   48.4607   28.6548   42.0791 H   0  0  0  0  0  0  0  0  0  0  0  0
   50.2309   35.8950   42.9223 H   0  0  0  0  0  0  0  0  0  0  0  0
   49.2360   36.6639   40.7393 H   0  0  0  0  0  0  0  0  0  0  0  0
   47.6626   35.0820   39.5381 H   0  0  0  0  0  0  0  0  0  0  0  0
   45.3145   29.3272   45.5406 H   0  0  0  0  0  0  0  0  0  0  0  0
   45.2893   27.6692   48.9269 H   0  0  0  0  0  0  0  0  0  0  0  0
   44.4336   29.0399   48.1706 H   0  0  0  0  0  0  0  0  0  0  0  0
   45.4203   31.3794   45.2836 H   0  0  0  0  0  0  0  0  0  0  0  0
   47.5219   33.1922   46.7874 H   0  0  0  0  0  0  0  0  0  0  0  0
   46.3357   34.0494   46.2276 H   0  0  0  0  0  0  0  0  0  0  0  0
   44.7755   32.3737   48.1996 H   0  0  0  0  0  0  0  0  0  0  0  0
   48.6902   30.5790   50.4428 H   0  0  0  0  0  0  0  0  0  0  0  0
   48.1672   29.7982   48.9119 H   0  0  0  0  0  0  0  0  0  0  0  0
   49.5618   30.9303   48.9119 H   0  0  0  0  0  0  0  0  0  0  0  0
  1 18  1  0
  1 14  1  0
  2  3  2  0
  3  4  1  0
  4  1  1  0
  5  4  2  0
  6  5  1  0
  7  6  2  0
  7  2  1  0
  8 13  2  0
  9  8  1  0
 10 11  1  0
 10  9  2  0
 11 12  2  0
 12  2  1  0
 12 13  1  0
 14 15  1  0
 15 17  2  0
 15 16  1  0
 18 19  1  0
 18 20  1  0
 19 20  1  0
 20 21  1  0
 21 23  1  0
 21 22  2  0
 23 24  1  0
  1 25  1  1
  3 26  1  0
  5 27  1  0
  6 28  1  0
  8 29  1  0
  9 30  1  0
 10 31  1  0
 14 32  1  0
 16 33  1  0
 16 34  1  0
 18 35  1  6
 19 36  1  0
 19 37  1  0
 20 38  1  1
 24 39  1  0
 24 40  1  0
 24 41  1  0
M  ISO  8  25   8  26  14  27  14  28  14  29  14  30  14  31  14  35  13
M  ISO  6  36  13  37  13  38  13  39   8  40   8  41   8
M  END
>  <minimizedAffinity>  (1) 
-4.87511683

>  <minimizedRMSD>  (1) 
0.956035137

$$$$
