
     RDKit          3D

 35 37  0  0  0  0  0  0  0  0999 V2000
   44.7950   35.9230   45.1010 C   0  0  0  0  0  0  0  0  0  0  0  0
   44.1480   35.9130   43.8440 C   0  0  0  0  0  0  0  0  0  0  0  0
   44.1730   34.7450   43.1080 C   0  0  0  0  0  0  0  0  0  0  0  0
   44.8000   33.6480   43.5810 N   0  0  0  0  0  0  0  0  0  0  0  0
   45.4260   33.6650   44.7980 C   0  0  0  0  0  0  0  0  0  0  0  0
   45.4140   34.8060   45.5440 N   0  0  0  0  0  0  0  0  0  0  0  0
   43.5170   34.7630   41.8540 N   0  0  0  0  0  0  0  0  0  0  0  0
   42.2070   34.9430   41.6190 C   0  0  0  0  0  0  0  0  0  0  0  0
   41.7150   34.9340   40.3370 C   0  0  0  0  0  0  0  0  0  0  0  0
   42.5540   34.7400   39.2520 C   0  0  0  0  0  0  0  0  0  0  0  0
   42.1110   34.7320   38.0730 O   0  0  0  0  0  0  0  0  0  0  0  0
   43.8650   34.5630   39.5190 N   0  0  0  0  0  0  0  0  0  0  0  0
   44.3180   34.5760   40.7960 C   0  0  0  0  0  0  0  0  0  0  0  0
   45.5850   34.3930   40.8810 O   0  0  0  0  0  0  0  0  0  0  0  0
   40.2880   35.1320   40.1020 C   0  0  0  0  0  0  0  0  0  0  0  0
   46.0980   32.4850   45.3010 C   0  0  0  0  0  0  0  0  0  0  0  0
   46.9440   31.6340   44.6010 C   0  0  0  0  0  0  0  0  0  0  0  0
   47.3750   30.6390   45.4240 N   0  0  0  0  0  0  0  0  0  0  0  0
   46.7930   30.8860   46.6230 C   0  0  0  0  0  0  0  0  0  0  0  0
   46.0260   31.9900   46.5590 N   0  0  0  0  0  0  0  0  0  0  0  0
   45.2440   32.5760   47.6290 C   0  0  0  0  0  0  0  0  0  0  0  0
   44.3140   31.6590   48.1630 F   0  0  0  0  0  0  0  0  0  0  0  0
   44.5450   33.7130   47.2260 F   0  0  0  0  0  0  0  0  0  0  0  0
   46.0690   32.9070   48.7080 F   0  0  0  0  0  0  0  0  0  0  0  0
   47.0010   30.0390   47.7920 C   0  0  0  0  0  0  0  0  0  0  0  0
   47.8850   30.3330   48.6280 O   0  0  0  0  0  0  0  0  0  0  0  0
   44.7947   36.8353   45.7155 H   0  0  0  0  0  0  0  0  0  0  0  0
   43.6389   36.8106   43.4630 H   0  0  0  0  0  0  0  0  0  0  0  0
   41.5199   35.0995   42.4636 H   0  0  0  0  0  0  0  0  0  0  0  0
   44.5278   34.4166   38.7443 H   0  0  0  0  0  0  0  0  0  0  0  0
   39.7642   35.2047   41.0665 H   0  0  0  0  0  0  0  0  0  0  0  0
   40.1357   36.0599   39.5312 H   0  0  0  0  0  0  0  0  0  0  0  0
   39.8888   34.2806   39.5312 H   0  0  0  0  0  0  0  0  0  0  0  0
   47.2231   31.7470   43.5430 H   0  0  0  0  0  0  0  0  0  0  0  0
   46.3812   29.1422   47.9389 H   0  0  0  0  0  0  0  0  0  0  0  0
  1  6  2  0
  2  1  1  0
  3  4  1  0
  3  2  2  0
  4  5  2  0
  5 16  1  0
  5  6  1  0
  7  3  1  0
  8  7  1  0
  9  8  2  0
 10 12  1  0
 10  9  1  0
 11 10  2  0
 12 13  1  0
 13 14  2  0
 13  7  1  0
 15  9  1  0
 16 20  1  0
 17 16  2  0
 17 18  1  0
 18 19  2  0
 19 25  1  0
 20 19  1  0
 20 21  1  0
 21 22  1  0
 21 24  1  0
 23 21  1  0
 25 26  2  0
  1 27  1  0
  2 28  1  0
  8 29  1  0
 12 30  1  0
 15 31  1  0
 15 32  1  0
 15 33  1  0
 17 34  1  0
 25 35  1  0
M  ISO  8  27  14  28  14  29  14  30   9  31   8  32   8  33   8  34  14
M  ISO  1  35   6
M  END
>  <minimizedAffinity>  (1) 
-6.01850414

>  <minimizedRMSD>  (1) 
0.311222345

$$$$
