
     RDKit          3D

 46 49  0  0  1  0  0  0  0  0999 V2000
   46.5340   32.2190   44.5280 C   0  0  2  0  0  0  0  0  0  0  0  0
   44.5660   28.5030   43.8540 C   0  0  0  0  0  0  0  0  0  0  0  0
   43.6960   27.6800   44.5650 C   0  0  0  0  0  0  0  0  0  0  0  0
   43.5550   27.8900   45.9450 C   0  0  0  0  0  0  0  0  0  0  0  0
   44.2700   28.8810   46.5190 N   0  0  0  0  0  0  0  0  0  0  0  0
   45.1190   29.6810   45.8100 C   0  0  0  0  0  0  0  0  0  0  0  0
   45.2500   29.4770   44.4920 N   0  0  0  0  0  0  0  0  0  0  0  0
   45.8750   30.7150   46.3930 N   0  0  0  0  0  0  0  0  0  0  0  0
   46.0410   30.6380   47.7450 C   0  0  0  0  0  0  0  0  0  0  0  0
   46.8290   31.7590   48.0850 C   0  0  0  0  0  0  0  0  0  0  0  0
   47.1000   32.4520   46.9450 N   0  0  0  0  0  0  0  0  0  0  0  0
   46.5110   31.8000   45.9330 C   0  0  0  0  0  0  0  0  0  0  0  0
   47.8080   31.5730   43.9160 C   0  0  0  0  0  0  0  0  0  0  0  0
   46.7080   33.7030   44.4190 C   0  0  0  0  0  0  0  0  0  0  0  0
   47.2460   34.1350   43.1810 N   0  0  0  0  0  0  0  0  0  0  0  0
   48.5400   34.3870   42.9490 N   0  0  0  0  0  0  0  0  0  0  0  0
   48.6760   34.7830   41.6670 C   0  0  0  0  0  0  0  0  0  0  0  0
   47.4310   34.7860   41.0550 C   0  0  0  0  0  0  0  0  0  0  0  0
   46.5460   34.3680   42.0470 C   0  0  0  0  0  0  0  0  0  0  0  0
   42.3390   34.4320   41.2210 C   0  0  0  0  0  0  0  0  0  0  0  0
   43.0380   35.5730   41.5540 C   0  0  0  0  0  0  0  0  0  0  0  0
   44.3900   35.4510   41.8040 C   0  0  0  0  0  0  0  0  0  0  0  0
   45.1240   34.2610   41.7510 C   0  0  0  0  0  0  0  0  0  0  0  0
   44.3810   33.1490   41.4150 C   0  0  0  0  0  0  0  0  0  0  0  0
   43.0290   33.2400   41.1590 C   0  0  0  0  0  0  0  0  0  0  0  0
   40.6310   34.4670   40.8850 S   0  0  0  0  0  0  0  0  0  0  0  0
   40.1000   35.8660   40.7130 O   0  0  0  0  0  0  0  0  0  0  0  0
   39.8360   33.7570   41.9410 O   0  0  0  0  0  0  0  0  0  0  0  0
   45.5990   31.9253   44.0285 H   0  0  0  0  0  0  0  0  0  0  0  0
   44.6961   28.3594   42.7712 H   0  0  0  0  0  0  0  0  0  0  0  0
   43.1325   26.8839   44.0564 H   0  0  0  0  0  0  0  0  0  0  0  0
   42.8787   27.2628   46.5444 H   0  0  0  0  0  0  0  0  0  0  0  0
   45.6459   29.8681   48.4241 H   0  0  0  0  0  0  0  0  0  0  0  0
   47.1661   32.0265   49.0973 H   0  0  0  0  0  0  0  0  0  0  0  0
   48.4729   31.2359   44.7249 H   0  0  0  0  0  0  0  0  0  0  0  0
   47.5203   30.7119   43.2950 H   0  0  0  0  0  0  0  0  0  0  0  0
   48.3326   32.3140   43.2950 H   0  0  0  0  0  0  0  0  0  0  0  0
   45.7240   34.1765   44.5516 H   0  0  0  0  0  0  0  0  0  0  0  0
   47.4294   33.9949   45.1965 H   0  0  0  0  0  0  0  0  0  0  0  0
   49.6243   35.0599   41.1831 H   0  0  0  0  0  0  0  0  0  0  0  0
   47.1945   35.0583   40.0158 H   0  0  0  0  0  0  0  0  0  0  0  0
   42.5345   36.5489   41.6183 H   0  0  0  0  0  0  0  0  0  0  0  0
   44.9374   36.3680   42.0675 H   0  0  0  0  0  0  0  0  0  0  0  0
   44.8769   32.1693   41.3498 H   0  0  0  0  0  0  0  0  0  0  0  0
   42.4790   32.3248   40.8947 H   0  0  0  0  0  0  0  0  0  0  0  0
   40.4811   33.8048   39.6951 H   0  0  0  0  0  0  0  0  0  0  0  0
  1 12  1  0
  2  7  2  0
  2  3  1  0
  3  4  2  0
  4  5  1  0
  6  8  1  0
  6  5  2  0
  7  6  1  0
  8  9  1  0
  9 10  2  0
 11 10  1  0
 12  8  1  0
 12 11  2  0
 13  1  1  0
 14  1  1  0
 15 14  1  0
 16 15  1  0
 17 16  2  0
 18 17  1  0
 18 19  2  0
 19 15  1  0
 20 21  2  0
 21 22  1  0
 23 22  2  0
 23 19  1  0
 24 23  1  0
 25 20  1  0
 25 24  2  0
 26 20  1  0
 26 28  2  0
 27 26  2  0
  1 29  1  6
  2 30  1  0
  3 31  1  0
  4 32  1  0
  9 33  1  0
 10 34  1  0
 13 35  1  0
 13 36  1  0
 13 37  1  0
 14 38  1  0
 14 39  1  0
 17 40  1  0
 18 41  1  0
 21 42  1  0
 22 43  1  0
 24 44  1  0
 25 45  1  0
 26 46  1  0
M  ISO  8  29   8  30  14  31  14  32  14  33  14  34  14  35   8  36   8
M  ISO  8  37   8  38   8  39   8  40  14  41  14  42  14  43  14  44  14
M  ISO  2  45  14  46  11
M  END
>  <minimizedAffinity>  (1) 
-5.66094303

>  <minimizedRMSD>  (1) 
9.37590408

$$$$
