
     RDKit          3D

 23 24  0  0  0  0  0  0  0  0999 V2000
   46.7850   34.8060   41.7370 C   0  0  0  0  0  0  0  0  0  0  0  0
   45.2680   36.0220   43.2310 C   0  0  0  0  0  0  0  0  0  0  0  0
   46.0910   34.9100   43.0020 C   0  0  0  0  0  0  0  0  0  0  0  0
   46.1850   33.9690   44.0230 C   0  0  0  0  0  0  0  0  0  0  0  0
   45.4800   34.1820   45.1720 N   0  0  0  0  0  0  0  0  0  0  0  0
   44.6970   35.2740   45.3440 C   0  0  0  0  0  0  0  0  0  0  0  0
   44.5830   36.2000   44.3800 N   0  0  0  0  0  0  0  0  0  0  0  0
   48.1790   35.4190   41.9120 C   0  0  0  0  0  0  0  0  0  0  0  0
   49.2250   34.3940   41.9380 C   0  0  0  0  0  0  0  0  0  0  0  0
   49.1540   33.2340   41.2280 C   0  0  0  0  0  0  0  0  0  0  0  0
   50.2740   32.5260   41.4800 N   0  0  0  0  0  0  0  0  0  0  0  0
   51.0440   33.2320   42.3420 C   0  0  0  0  0  0  0  0  0  0  0  0
   50.3860   34.3830   42.6160 N   0  0  0  0  0  0  0  0  0  0  0  0
   46.2307   35.3537   40.9606 H   0  0  0  0  0  0  0  0  0  0  0  0
   46.8656   33.7528   41.4299 H   0  0  0  0  0  0  0  0  0  0  0  0
   45.1769   36.7815   42.4405 H   0  0  0  0  0  0  0  0  0  0  0  0
   46.8134   33.0737   43.9065 H   0  0  0  0  0  0  0  0  0  0  0  0
   44.1468   35.4033   46.2877 H   0  0  0  0  0  0  0  0  0  0  0  0
   48.3738   36.1052   41.0747 H   0  0  0  0  0  0  0  0  0  0  0  0
   48.1994   35.9526   42.8737 H   0  0  0  0  0  0  0  0  0  0  0  0
   48.3298   32.9288   40.5666 H   0  0  0  0  0  0  0  0  0  0  0  0
   52.0214   32.9272   42.7443 H   0  0  0  0  0  0  0  0  0  0  0  0
   50.7205   35.1292   43.2423 H   0  0  0  0  0  0  0  0  0  0  0  0
  1  8  1  0
  1  3  1  0
  2  7  2  0
  3  2  1  0
  3  4  2  0
  4  5  1  0
  5  6  2  0
  7  6  1  0
  8  9  1  0
  9 13  1  0
 10 11  1  0
 10  9  2  0
 11 12  2  0
 12 13  1  0
  1 14  1  0
  1 15  1  0
  2 16  1  0
  4 17  1  0
  6 18  1  0
  8 19  1  0
  8 20  1  0
 10 21  1  0
 12 22  1  0
 13 23  1  0
M  ISO  8  14   8  15   8  16  14  17  14  18  14  19   8  20   8  21  14
M  ISO  2  22  14  23   9
M  END
>  <minimizedAffinity>  (1) 
-4.54763412

>  <minimizedRMSD>  (1) 
2.54917169

$$$$
