
     RDKit          3D

 29 30  0  0  0  0  0  0  0  0999 V2000
   46.9170   34.9260   41.9440 C   0  0  0  0  0  0  0  0  0  0  0  0
   45.2570   35.9720   43.4190 C   0  0  0  0  0  0  0  0  0  0  0  0
   46.1760   34.9400   43.1830 C   0  0  0  0  0  0  0  0  0  0  0  0
   46.3050   33.9800   44.1800 C   0  0  0  0  0  0  0  0  0  0  0  0
   45.5470   34.0960   45.3080 N   0  0  0  0  0  0  0  0  0  0  0  0
   44.6730   35.1140   45.4870 C   0  0  0  0  0  0  0  0  0  0  0  0
   44.5280   36.0550   44.5380 N   0  0  0  0  0  0  0  0  0  0  0  0
   48.3830   34.7100   42.2570 C   0  0  0  0  0  0  0  0  0  0  0  0
   49.0230   33.8940   41.2780 N   0  0  0  0  0  0  0  0  0  0  0  0
   50.0120   32.9920   41.7650 C   0  0  0  0  0  0  0  0  0  0  0  0
   49.4670   31.8460   42.5960 C   0  0  0  0  0  0  0  0  0  0  0  0
   48.1520   31.6010   42.2380 O   0  0  0  0  0  0  0  0  0  0  0  0
   47.9520   31.7300   40.8610 C   0  0  0  0  0  0  0  0  0  0  0  0
   48.0640   33.1890   40.4640 C   0  0  0  0  0  0  0  0  0  0  0  0
   46.7872   35.8867   41.4243 H   0  0  0  0  0  0  0  0  0  0  0  0
   46.5489   34.1165   41.2965 H   0  0  0  0  0  0  0  0  0  0  0  0
   45.1295   36.7481   42.6500 H   0  0  0  0  0  0  0  0  0  0  0  0
   47.0065   33.1410   44.0613 H   0  0  0  0  0  0  0  0  0  0  0  0
   44.0798   35.1714   46.4115 H   0  0  0  0  0  0  0  0  0  0  0  0
   48.8871   35.6872   42.2896 H   0  0  0  0  0  0  0  0  0  0  0  0
   48.4515   34.1949   43.2265 H   0  0  0  0  0  0  0  0  0  0  0  0
   50.5438   32.5668   40.9010 H   0  0  0  0  0  0  0  0  0  0  0  0
   50.6660   33.5756   42.4296 H   0  0  0  0  0  0  0  0  0  0  0  0
   50.0701   30.9437   42.4166 H   0  0  0  0  0  0  0  0  0  0  0  0
   49.5133   32.1118   43.6624 H   0  0  0  0  0  0  0  0  0  0  0  0
   48.7136   31.1453   40.3243 H   0  0  0  0  0  0  0  0  0  0  0  0
   46.9502   31.3572   40.6014 H   0  0  0  0  0  0  0  0  0  0  0  0
   48.3785   33.2484   39.4116 H   0  0  0  0  0  0  0  0  0  0  0  0
   47.0804   33.6593   40.6102 H   0  0  0  0  0  0  0  0  0  0  0  0
  1  8  1  0
  1  3  1  0
  2  7  2  0
  3  2  1  0
  3  4  2  0
  4  5  1  0
  5  6  2  0
  7  6  1  0
  9 10  1  0
  9  8  1  0
 10 11  1  0
 12 11  1  0
 13 12  1  0
 14 13  1  0
 14  9  1  0
  1 15  1  0
  1 16  1  0
  2 17  1  0
  4 18  1  0
  6 19  1  0
  8 20  1  0
  8 21  1  0
 10 22  1  0
 10 23  1  0
 11 24  1  0
 11 25  1  0
 13 26  1  0
 13 27  1  0
 14 28  1  0
 14 29  1  0
M  ISO  8  15   8  16   8  17  14  18  14  19  14  20   8  21   8  22  13
M  ISO  7  23  13  24  13  25  13  26  13  27  13  28  13  29  13
M  END
>  <minimizedAffinity>  (1) 
-3.74804235

>  <minimizedRMSD>  (1) 
2.00404048

$$$$
