
     RDKit          3D

 28 29  0  0  0  0  0  0  0  0999 V2000
   46.5570   34.9040   41.8330 C   0  0  0  0  0  0  0  0  0  0  0  0
   45.0920   36.0070   43.4680 C   0  0  0  0  0  0  0  0  0  0  0  0
   45.9400   34.9420   43.1420 C   0  0  0  0  0  0  0  0  0  0  0  0
   46.1380   33.9650   44.1110 C   0  0  0  0  0  0  0  0  0  0  0  0
   45.5000   34.1080   45.3030 N   0  0  0  0  0  0  0  0  0  0  0  0
   44.6890   35.1470   45.5830 C   0  0  0  0  0  0  0  0  0  0  0  0
   44.4900   36.0900   44.6660 N   0  0  0  0  0  0  0  0  0  0  0  0
   47.3740   33.6390   41.7060 C   0  0  0  0  0  0  0  0  0  0  0  0
   48.6650   33.8720   41.1390 N   0  0  0  0  0  0  0  0  0  0  0  0
   49.4460   34.7640   41.9820 C   0  0  0  0  0  0  0  0  0  0  0  0
   50.6130   33.9720   42.5180 C   0  0  0  0  0  0  0  0  0  0  0  0
   50.1730   32.5330   42.2540 C   0  0  0  0  0  0  0  0  0  0  0  0
   49.4770   32.7210   40.9110 C   0  0  0  0  0  0  0  0  0  0  0  0
   45.7767   34.9175   41.0578 H   0  0  0  0  0  0  0  0  0  0  0  0
   47.2099   35.7802   41.7063 H   0  0  0  0  0  0  0  0  0  0  0  0
   44.9139   36.7969   42.7234 H   0  0  0  0  0  0  0  0  0  0  0  0
   46.7918   33.1015   43.9189 H   0  0  0  0  0  0  0  0  0  0  0  0
   44.1947   35.2150   46.5634 H   0  0  0  0  0  0  0  0  0  0  0  0
   47.5028   33.2011   42.7068 H   0  0  0  0  0  0  0  0  0  0  0  0
   46.8323   32.9593   41.0318 H   0  0  0  0  0  0  0  0  0  0  0  0
   49.8104   35.6169   41.3906 H   0  0  0  0  0  0  0  0  0  0  0  0
   48.8318   35.1563   42.8059 H   0  0  0  0  0  0  0  0  0  0  0  0
   51.5401   34.2115   41.9767 H   0  0  0  0  0  0  0  0  0  0  0  0
   50.8394   34.1783   43.5745 H   0  0  0  0  0  0  0  0  0  0  0  0
   51.0315   31.8494   42.1784 H   0  0  0  0  0  0  0  0  0  0  0  0
   49.5521   32.0827   43.0425 H   0  0  0  0  0  0  0  0  0  0  0  0
   48.8619   31.8453   40.6566 H   0  0  0  0  0  0  0  0  0  0  0  0
   50.1753   32.8383   40.0692 H   0  0  0  0  0  0  0  0  0  0  0  0
  1  3  1  0
  2  7  2  0
  3  2  1  0
  3  4  2  0
  4  5  1  0
  5  6  2  0
  7  6  1  0
  8  1  1  0
  9  8  1  0
  9 10  1  0
 10 11  1  0
 12 11  1  0
 13  9  1  0
 13 12  1  0
  1 14  1  0
  1 15  1  0
  2 16  1  0
  4 17  1  0
  6 18  1  0
  8 19  1  0
  8 20  1  0
 10 21  1  0
 10 22  1  0
 11 23  1  0
 11 24  1  0
 12 25  1  0
 12 26  1  0
 13 27  1  0
 13 28  1  0
M  ISO  8  14   8  15   8  16  14  17  14  18  14  19   8  20   8  21  13
M  ISO  7  22  13  23  13  24  13  25  13  26  13  27  13  28  13
M  END
>  <minimizedAffinity>  (1) 
-4.03018093

>  <minimizedRMSD>  (1) 
2.36902547

$$$$
