
     RDKit          3D

 26 27  0  0  1  0  0  0  0  0999 V2000
   46.2110   33.7890   41.0900 C   0  0  0  0  0  0  0  0  0  0  0  0
   47.3370   34.5220   40.3900 C   0  0  2  0  0  0  0  0  0  0  0  0
   48.5920   33.9020   40.0250 C   0  0  0  0  0  0  0  0  0  0  0  0
   48.5170   34.9260   41.1390 C   0  0  2  0  0  0  0  0  0  0  0  0
   49.1040   34.5050   42.3830 C   0  0  0  0  0  0  0  0  0  0  0  0
   49.0120   33.5740   43.2570 O   0  0  0  0  0  0  0  0  0  0  0  0
   50.1230   35.1670   43.0480 O   0  0  0  0  0  0  0  0  0  0  0  0
   45.2560   34.7360   41.6660 C   0  0  0  0  0  0  0  0  0  0  0  0
   44.6030   35.8080   43.7710 C   0  0  0  0  0  0  0  0  0  0  0  0
   45.1420   34.7270   43.0860 C   0  0  0  0  0  0  0  0  0  0  0  0
   45.5700   33.6410   43.7880 C   0  0  0  0  0  0  0  0  0  0  0  0
   45.4550   33.6440   45.1630 N   0  0  0  0  0  0  0  0  0  0  0  0
   44.9220   34.7160   45.8130 C   0  0  0  0  0  0  0  0  0  0  0  0
   44.5060   35.7760   45.1260 N   0  0  0  0  0  0  0  0  0  0  0  0
   46.6305   33.1657   41.8934 H   0  0  0  0  0  0  0  0  0  0  0  0
   45.6865   33.1617   40.3542 H   0  0  0  0  0  0  0  0  0  0  0  0
   46.5707   35.0420   39.7964 H   0  0  0  0  0  0  0  0  0  0  0  0
   48.7744   32.8427   40.2585 H   0  0  0  0  0  0  0  0  0  0  0  0
   49.1728   33.7926   39.0973 H   0  0  0  0  0  0  0  0  0  0  0  0
   48.8047   35.9403   41.4526 H   0  0  0  0  0  0  0  0  0  0  0  0
   50.4711   34.8084   43.9026 H   0  0  0  0  0  0  0  0  0  0  0  0
   45.5601   35.7478   41.3599 H   0  0  0  0  0  0  0  0  0  0  0  0
   44.2700   34.4268   41.2889 H   0  0  0  0  0  0  0  0  0  0  0  0
   44.2541   36.6913   43.2160 H   0  0  0  0  0  0  0  0  0  0  0  0
   46.0012   32.7739   43.2662 H   0  0  0  0  0  0  0  0  0  0  0  0
   44.8354   34.7048   46.9095 H   0  0  0  0  0  0  0  0  0  0  0  0
  1  8  1  0
  2  1  1  0
  2  4  1  0
  3  2  1  0
  3  4  1  0
  4  5  1  0
  5  7  1  0
  5  6  2  0
  8 10  1  0
  9 14  2  0
 10  9  1  0
 10 11  2  0
 11 12  1  0
 12 13  2  0
 14 13  1  0
  1 15  1  0
  1 16  1  0
  2 17  1  6
  3 18  1  0
  3 19  1  0
  4 20  1  6
  7 21  1  0
  8 22  1  0
  8 23  1  0
  9 24  1  0
 11 25  1  0
 13 26  1  0
M  ISO  8  15   8  16   8  17  13  18  13  19  13  20  13  21   3  22   8
M  ISO  4  23   8  24  14  25  14  26  14
M  END
>  <minimizedAffinity>  (1) 
-4.52349234

>  <minimizedRMSD>  (1) 
1.67801917

$$$$
