
     RDKit          3D

 30 32  0  0  1  0  0  0  0  0999 V2000
   45.6170   34.4410   41.2910 C   0  0  0  0  0  0  0  0  0  0  0  0
   47.0830   34.4670   40.8720 C   0  0  2  0  0  0  0  0  0  0  0  0
   47.5220   33.9660   39.5590 C   0  0  0  0  0  0  0  0  0  0  0  0
   47.7680   33.1450   40.8020 C   0  0  1  0  0  0  0  0  0  0  0  0
   49.1680   33.0050   41.2820 C   0  0  0  0  0  0  0  0  0  0  0  0
   49.7880   33.8310   42.2100 C   0  0  0  0  0  0  0  0  0  0  0  0
   51.0540   33.3490   42.3590 N   0  0  0  0  0  0  0  0  0  0  0  0
   51.2180   32.2760   41.5630 C   0  0  0  0  0  0  0  0  0  0  0  0
   50.0790   32.0620   40.9070 N   0  0  0  0  0  0  0  0  0  0  0  0
   45.3430   35.4780   42.2900 C   0  0  0  0  0  0  0  0  0  0  0  0
   44.5850   35.7380   44.5820 C   0  0  0  0  0  0  0  0  0  0  0  0
   45.3050   35.0210   43.6430 C   0  0  0  0  0  0  0  0  0  0  0  0
   45.9470   33.8660   44.0020 C   0  0  0  0  0  0  0  0  0  0  0  0
   45.8340   33.4660   45.3230 N   0  0  0  0  0  0  0  0  0  0  0  0
   45.1350   34.1630   46.2300 C   0  0  0  0  0  0  0  0  0  0  0  0
   44.5190   35.2850   45.8620 N   0  0  0  0  0  0  0  0  0  0  0  0
   45.3819   33.4558   41.7200 H   0  0  0  0  0  0  0  0  0  0  0  0
   44.9935   34.6313   40.4050 H   0  0  0  0  0  0  0  0  0  0  0  0
   47.2402   35.4275   41.3846 H   0  0  0  0  0  0  0  0  0  0  0  0
   48.3653   34.4460   39.0410 H   0  0  0  0  0  0  0  0  0  0  0  0
   47.0310   33.7849   38.5915 H   0  0  0  0  0  0  0  0  0  0  0  0
   47.5253   32.1290   41.1467 H   0  0  0  0  0  0  0  0  0  0  0  0
   49.3466   34.6990   42.7215 H   0  0  0  0  0  0  0  0  0  0  0  0
   52.1364   31.6778   41.4702 H   0  0  0  0  0  0  0  0  0  0  0  0
   49.9130   31.3067   40.2267 H   0  0  0  0  0  0  0  0  0  0  0  0
   46.1289   36.2436   42.2108 H   0  0  0  0  0  0  0  0  0  0  0  0
   44.3357   35.8596   42.0671 H   0  0  0  0  0  0  0  0  0  0  0  0
   44.0703   36.6669   44.2952 H   0  0  0  0  0  0  0  0  0  0  0  0
   46.5272   33.2814   43.2729 H   0  0  0  0  0  0  0  0  0  0  0  0
   45.0707   33.8110   47.2702 H   0  0  0  0  0  0  0  0  0  0  0  0
  1 10  1  0
  2  1  1  0
  3  4  1  0
  3  2  1  0
  4  2  1  0
  4  5  1  0
  5  6  2  0
  6  7  1  0
  8  7  2  0
  9  5  1  0
  9  8  1  0
 10 12  1  0
 11 16  2  0
 12 13  2  0
 12 11  1  0
 13 14  1  0
 14 15  2  0
 16 15  1  0
  1 17  1  0
  1 18  1  0
  2 19  1  1
  3 20  1  0
  3 21  1  0
  4 22  1  6
  6 23  1  0
  8 24  1  0
  9 25  1  0
 10 26  1  0
 10 27  1  0
 11 28  1  0
 13 29  1  0
 15 30  1  0
M  ISO  8  17   8  18   8  19  13  20  13  21  13  22  13  23  14  24  14
M  ISO  6  25   9  26   8  27   8  28  14  29  14  30  14
M  END
>  <minimizedAffinity>  (1) 
-4.43460464

>  <minimizedRMSD>  (1) 
3.10775161

$$$$
