
     RDKit          3D

 26 27  0  0  1  0  0  0  0  0999 V2000
   45.9460   33.0690   40.8940 C   0  0  0  0  0  0  0  0  0  0  0  0
   46.8220   34.2520   40.4840 C   0  0  2  0  0  0  0  0  0  0  0  0
   47.9900   34.0050   39.6150 C   0  0  0  0  0  0  0  0  0  0  0  0
   48.1830   34.2500   41.0670 C   0  0  1  0  0  0  0  0  0  0  0  0
   48.8850   35.5320   41.4180 C   0  0  0  0  0  0  0  0  0  0  0  0
   49.1850   36.2740   40.3060 F   0  0  0  0  0  0  0  0  0  0  0  0
   48.0460   36.2770   42.2230 F   0  0  0  0  0  0  0  0  0  0  0  0
   50.0160   35.2900   42.1830 F   0  0  0  0  0  0  0  0  0  0  0  0
   44.6470   33.5600   41.4140 C   0  0  0  0  0  0  0  0  0  0  0  0
   44.3140   35.3880   43.0680 C   0  0  0  0  0  0  0  0  0  0  0  0
   44.7310   34.0940   42.7480 C   0  0  0  0  0  0  0  0  0  0  0  0
   45.2390   33.3260   43.7640 C   0  0  0  0  0  0  0  0  0  0  0  0
   45.3240   33.8330   45.0310 N   0  0  0  0  0  0  0  0  0  0  0  0
   44.9040   35.1020   45.2980 C   0  0  0  0  0  0  0  0  0  0  0  0
   44.4070   35.8640   44.3250 N   0  0  0  0  0  0  0  0  0  0  0  0
   46.4575   32.4905   41.6774 H   0  0  0  0  0  0  0  0  0  0  0  0
   45.7670   32.4295   40.0171 H   0  0  0  0  0  0  0  0  0  0  0  0
   45.9763   34.9533   40.4293 H   0  0  0  0  0  0  0  0  0  0  0  0
   48.1634   33.0017   39.1987 H   0  0  0  0  0  0  0  0  0  0  0  0
   48.3815   34.4560   38.6912 H   0  0  0  0  0  0  0  0  0  0  0  0
   48.6240   33.7279   41.9290 H   0  0  0  0  0  0  0  0  0  0  0  0
   44.2797   34.3513   40.7440 H   0  0  0  0  0  0  0  0  0  0  0  0
   43.9650   32.6977   41.4514 H   0  0  0  0  0  0  0  0  0  0  0  0
   43.9011   36.0318   42.2774 H   0  0  0  0  0  0  0  0  0  0  0  0
   45.5788   32.3000   43.5594 H   0  0  0  0  0  0  0  0  0  0  0  0
   44.9758   35.4986   46.3215 H   0  0  0  0  0  0  0  0  0  0  0  0
  1  9  1  0
  2  1  1  0
  2  4  1  0
  3  2  1  0
  3  4  1  0
  4  5  1  0
  5  8  1  0
  5  7  1  0
  6  5  1  0
  9 11  1  0
 10 15  2  0
 11 10  1  0
 11 12  2  0
 12 13  1  0
 13 14  2  0
 15 14  1  0
  1 16  1  0
  1 17  1  0
  2 18  1  6
  3 19  1  0
  3 20  1  0
  4 21  1  1
  9 22  1  0
  9 23  1  0
 10 24  1  0
 12 25  1  0
 14 26  1  0
M  ISO  8  16   8  17   8  18  13  19  13  20  13  21  13  22   8  23   8
M  ISO  3  24  14  25  14  26  14
M  END
>  <minimizedAffinity>  (1) 
-4.6153245

>  <minimizedRMSD>  (1) 
1.99139476

$$$$
