
     RDKit          3D

 30 32  0  0  1  0  0  0  0  0999 V2000
   48.8880   34.0020   41.3770 C   0  0  0  0  0  0  0  0  0  0  0  0
   48.2400   34.3090   42.7280 C   0  0  2  0  0  0  0  0  0  0  0  0
   47.8210   33.1810   43.5850 C   0  0  0  0  0  0  0  0  0  0  0  0
   46.8030   33.9480   42.8220 C   0  0  1  0  0  0  0  0  0  0  0  0
   45.8640   34.8570   43.5300 C   0  0  0  0  0  0  0  0  0  0  0  0
   45.2210   34.5760   44.7190 C   0  0  0  0  0  0  0  0  0  0  0  0
   44.4540   35.6990   45.0000 C   0  0  0  0  0  0  0  0  0  0  0  0
   44.6330   36.6120   44.0200 N   0  0  0  0  0  0  0  0  0  0  0  0
   45.4780   36.0990   43.1460 N   0  0  0  0  0  0  0  0  0  0  0  0
   48.3390   34.9230   40.3410 C   0  0  0  0  0  0  0  0  0  0  0  0
   48.5290   34.5170   37.9100 C   0  0  0  0  0  0  0  0  0  0  0  0
   47.9460   34.2370   39.1390 C   0  0  0  0  0  0  0  0  0  0  0  0
   46.9720   33.2720   39.1750 C   0  0  0  0  0  0  0  0  0  0  0  0
   46.6040   32.6250   38.0340 N   0  0  0  0  0  0  0  0  0  0  0  0
   47.1960   32.9240   36.8410 C   0  0  0  0  0  0  0  0  0  0  0  0
   48.1510   33.8620   36.7790 N   0  0  0  0  0  0  0  0  0  0  0  0
   49.9764   34.1421   41.4523 H   0  0  0  0  0  0  0  0  0  0  0  0
   48.6706   32.9614   41.0944 H   0  0  0  0  0  0  0  0  0  0  0  0
   48.8539   35.2043   42.9059 H   0  0  0  0  0  0  0  0  0  0  0  0
   48.0643   32.1488   43.2928 H   0  0  0  0  0  0  0  0  0  0  0  0
   47.9614   32.9152   44.6431 H   0  0  0  0  0  0  0  0  0  0  0  0
   46.0118   33.6859   42.1042 H   0  0  0  0  0  0  0  0  0  0  0  0
   45.2997   33.6564   45.3175 H   0  0  0  0  0  0  0  0  0  0  0  0
   43.8050   35.8251   45.8791 H   0  0  0  0  0  0  0  0  0  0  0  0
   44.1900   37.5403   43.9652 H   0  0  0  0  0  0  0  0  0  0  0  0
   47.4592   35.4358   40.7569 H   0  0  0  0  0  0  0  0  0  0  0  0
   49.1352   35.6329   40.0727 H   0  0  0  0  0  0  0  0  0  0  0  0
   49.3138   35.2854   37.8496 H   0  0  0  0  0  0  0  0  0  0  0  0
   46.4860   33.0195   40.1290 H   0  0  0  0  0  0  0  0  0  0  0  0
   46.8883   32.3935   35.9279 H   0  0  0  0  0  0  0  0  0  0  0  0
  1  2  1  0
  2  4  1  0
  2  3  1  0
  4  5  1  0
  4  3  1  0
  5  6  1  0
  6  7  2  0
  8  7  1  0
  9  5  2  0
  9  8  1  0
 10  1  1  0
 11 12  2  0
 12 13  1  0
 12 10  1  0
 14 13  2  0
 15 14  1  0
 16 15  2  0
 16 11  1  0
  1 17  1  0
  1 18  1  0
  2 19  1  1
  3 20  1  0
  3 21  1  0
  4 22  1  6
  6 23  1  0
  7 24  1  0
  8 25  1  0
 10 26  1  0
 10 27  1  0
 11 28  1  0
 13 29  1  0
 15 30  1  0
M  ISO  8  17   8  18   8  19  13  20  13  21  13  22  13  23  14  24  14
M  ISO  6  25   9  26   8  27   8  28  14  29  14  30  14
M  END
>  <minimizedAffinity>  (1) 
-4.79476023

>  <minimizedRMSD>  (1) 
5.9289217

$$$$
