
     RDKit          3D

 35 36  0  0  1  0  0  0  0  0999 V2000
   46.0800   35.2220   42.4990 C   0  0  0  0  0  0  0  0  0  0  0  0
   44.6450   34.6930   42.5400 C   0  0  2  0  0  0  0  0  0  0  0  0
   44.4150   33.2400   42.4050 C   0  0  0  0  0  0  0  0  0  0  0  0
   44.1430   34.1450   41.2600 C   0  0  1  0  0  0  0  0  0  0  0  0
   42.7460   34.4050   40.7850 C   0  0  0  0  0  0  0  0  0  0  0  0
   42.1100   35.4270   41.7050 C   0  0  0  0  0  0  0  0  0  0  0  0
   41.8900   33.1650   40.8510 C   0  0  0  0  0  0  0  0  0  0  0  0
   42.6650   34.9480   39.3860 C   0  0  0  0  0  0  0  0  0  0  0  0
   46.8010   34.6410   41.3360 C   0  0  0  0  0  0  0  0  0  0  0  0
   48.6220   32.9690   41.3020 C   0  0  0  0  0  0  0  0  0  0  0  0
   48.1440   34.2240   41.6580 C   0  0  0  0  0  0  0  0  0  0  0  0
   48.9910   35.0680   42.3270 C   0  0  0  0  0  0  0  0  0  0  0  0
   50.2610   34.6660   42.6250 N   0  0  0  0  0  0  0  0  0  0  0  0
   50.7020   33.4270   42.2620 C   0  0  0  0  0  0  0  0  0  0  0  0
   49.8930   32.5860   41.6080 N   0  0  0  0  0  0  0  0  0  0  0  0
   46.0621   36.3180   42.4065 H   0  0  0  0  0  0  0  0  0  0  0  0
   46.5981   34.9352   43.4260 H   0  0  0  0  0  0  0  0  0  0  0  0
   44.3148   35.4442   43.2725 H   0  0  0  0  0  0  0  0  0  0  0  0
   45.2699   32.5487   42.3688 H   0  0  0  0  0  0  0  0  0  0  0  0
   43.8320   32.4897   42.9593 H   0  0  0  0  0  0  0  0  0  0  0  0
   44.4692   34.1974   40.2108 H   0  0  0  0  0  0  0  0  0  0  0  0
   42.2888   35.1397   42.7516 H   0  0  0  0  0  0  0  0  0  0  0  0
   42.5523   36.4162   41.5157 H   0  0  0  0  0  0  0  0  0  0  0  0
   41.0272   35.4671   41.5157 H   0  0  0  0  0  0  0  0  0  0  0  0
   41.7077   32.9009   41.9031 H   0  0  0  0  0  0  0  0  0  0  0  0
   40.9299   33.3551   40.3490 H   0  0  0  0  0  0  0  0  0  0  0  0
   42.4081   32.3346   40.3490 H   0  0  0  0  0  0  0  0  0  0  0  0
   42.5028   36.0353   39.4235 H   0  0  0  0  0  0  0  0  0  0  0  0
   43.6048   34.7356   38.8552 H   0  0  0  0  0  0  0  0  0  0  0  0
   41.8281   34.4705   38.8552 H   0  0  0  0  0  0  0  0  0  0  0  0
   46.8503   35.3984   40.5398 H   0  0  0  0  0  0  0  0  0  0  0  0
   46.2457   33.7466   41.0172 H   0  0  0  0  0  0  0  0  0  0  0  0
   47.9626   32.2724   40.7636 H   0  0  0  0  0  0  0  0  0  0  0  0
   48.6475   36.0699   42.6241 H   0  0  0  0  0  0  0  0  0  0  0  0
   51.7285   33.1179   42.5085 H   0  0  0  0  0  0  0  0  0  0  0  0
  1  2  1  0
  3  2  1  0
  4  3  1  0
  4  2  1  0
  5  7  1  0
  5  4  1  0
  5  6  1  0
  8  5  1  0
  9 11  1  0
  9  1  1  0
 10 15  2  0
 10 11  1  0
 11 12  2  0
 12 13  1  0
 14 13  2  0
 15 14  1  0
  1 16  1  0
  1 17  1  0
  2 18  1  1
  3 19  1  0
  3 20  1  0
  4 21  1  6
  6 22  1  0
  6 23  1  0
  6 24  1  0
  7 25  1  0
  7 26  1  0
  7 27  1  0
  8 28  1  0
  8 29  1  0
  8 30  1  0
  9 31  1  0
  9 32  1  0
 10 33  1  0
 12 34  1  0
 14 35  1  0
M  ISO  8  16   8  17   8  18  13  19  13  20  13  21  13  22   8  23   8
M  ISO  8  24   8  25   8  26   8  27   8  28   8  29   8  30   8  31   8
M  ISO  4  32   8  33  14  34  14  35  14
M  END
>  <minimizedAffinity>  (1) 
-3.88448572

>  <minimizedRMSD>  (1) 
6.26642323

$$$$
