
     RDKit          3D

 36 37  0  0  1  0  0  0  0  0999 V2000
   44.3850   34.6490   42.5350 C   0  0  2  0  0  0  0  0  0  0  0  0
   44.1540   33.2170   42.2760 C   0  0  0  0  0  0  0  0  0  0  0  0
   43.9000   34.1810   41.2030 C   0  0  1  0  0  0  0  0  0  0  0  0
   45.8180   35.2030   42.5180 C   0  0  0  0  0  0  0  0  0  0  0  0
   46.4920   34.7430   41.2600 C   0  0  0  0  0  0  0  0  0  0  0  0
   48.2580   33.0650   40.9130 C   0  0  0  0  0  0  0  0  0  0  0  0
   47.8280   34.2530   41.5210 C   0  0  0  0  0  0  0  0  0  0  0  0
   48.6960   34.9130   42.3540 C   0  0  0  0  0  0  0  0  0  0  0  0
   49.9440   34.3970   42.5650 N   0  0  0  0  0  0  0  0  0  0  0  0
   50.3220   33.2440   41.9590 C   0  0  0  0  0  0  0  0  0  0  0  0
   49.5030   32.5850   41.1480 N   0  0  0  0  0  0  0  0  0  0  0  0
   51.6220   32.9220   42.3230 O   0  0  0  0  0  0  0  0  0  0  0  0
   42.4850   34.4920   40.7620 C   0  0  0  0  0  0  0  0  0  0  0  0
   41.8690   35.4650   41.7210 C   0  0  0  0  0  0  0  0  0  0  0  0
   41.6350   33.2410   40.7840 C   0  0  0  0  0  0  0  0  0  0  0  0
   42.3920   35.0900   39.3910 C   0  0  0  0  0  0  0  0  0  0  0  0
   44.0523   35.3313   43.3311 H   0  0  0  0  0  0  0  0  0  0  0  0
   45.0095   32.5295   42.2024 H   0  0  0  0  0  0  0  0  0  0  0  0
   43.5588   32.4310   42.7638 H   0  0  0  0  0  0  0  0  0  0  0  0
   44.2402   34.2897   40.1626 H   0  0  0  0  0  0  0  0  0  0  0  0
   45.7910   36.3024   42.5436 H   0  0  0  0  0  0  0  0  0  0  0  0
   46.3723   34.8405   43.3963 H   0  0  0  0  0  0  0  0  0  0  0  0
   46.5522   35.5876   40.5578 H   0  0  0  0  0  0  0  0  0  0  0  0
   45.9003   33.9195   40.8336 H   0  0  0  0  0  0  0  0  0  0  0  0
   47.5799   32.5190   40.2406 H   0  0  0  0  0  0  0  0  0  0  0  0
   48.3906   35.8478   42.8469 H   0  0  0  0  0  0  0  0  0  0  0  0
   52.0484   32.1040   41.9637 H   0  0  0  0  0  0  0  0  0  0  0  0
   42.0733   35.1423   42.7526 H   0  0  0  0  0  0  0  0  0  0  0  0
   42.2996   36.4639   41.5572 H   0  0  0  0  0  0  0  0  0  0  0  0
   40.7819   35.5030   41.5572 H   0  0  0  0  0  0  0  0  0  0  0  0
   41.4374   32.9502   41.8263 H   0  0  0  0  0  0  0  0  0  0  0  0
   40.6818   33.4363   40.2708 H   0  0  0  0  0  0  0  0  0  0  0  0
   42.1676   32.4267   40.2708 H   0  0  0  0  0  0  0  0  0  0  0  0
   42.2234   36.1738   39.4744 H   0  0  0  0  0  0  0  0  0  0  0  0
   43.3296   34.9056   38.8462 H   0  0  0  0  0  0  0  0  0  0  0  0
   41.5547   34.6295   38.8462 H   0  0  0  0  0  0  0  0  0  0  0  0
  2  1  1  0
  3  2  1  0
  3  1  1  0
  4  1  1  0
  5  7  1  0
  5  4  1  0
  6 11  2  0
  6  7  1  0
  7  8  2  0
  8  9  1  0
 10 12  1  0
 10  9  2  0
 11 10  1  0
 13 15  1  0
 13  3  1  0
 13 14  1  0
 16 13  1  0
  1 17  1  1
  2 18  1  0
  2 19  1  0
  3 20  1  6
  4 21  1  0
  4 22  1  0
  5 23  1  0
  5 24  1  0
  6 25  1  0
  8 26  1  0
 12 27  1  0
 14 28  1  0
 14 29  1  0
 14 30  1  0
 15 31  1  0
 15 32  1  0
 15 33  1  0
 16 34  1  0
 16 35  1  0
 16 36  1  0
M  ISO  8  17  13  18  13  19  13  20  13  21   8  22   8  23   8  24   8
M  ISO  8  25  14  26  14  27   3  28   8  29   8  30   8  31   8  32   8
M  ISO  4  33   8  34   8  35   8  36   8
M  END
>  <minimizedAffinity>  (1) 
-4.13789654

>  <minimizedRMSD>  (1) 
0.394947022

$$$$
