
     RDKit          3D

 36 37  0  0  1  0  0  0  0  0999 V2000
   45.5060   35.2840   42.3900 C   0  0  2  0  0  0  0  0  0  0  0  0
   44.4210   35.5400   43.3600 C   0  0  0  0  0  0  0  0  0  0  0  0
   44.3850   34.3160   42.5460 C   0  0  1  0  0  0  0  0  0  0  0  0
   46.8690   34.7900   42.8900 C   0  0  0  0  0  0  0  0  0  0  0  0
   47.9190   35.2420   41.9210 C   0  0  0  0  0  0  0  0  0  0  0  0
   48.7420   33.2330   40.7660 C   0  0  0  0  0  0  0  0  0  0  0  0
   48.9360   34.2330   41.7290 C   0  0  0  0  0  0  0  0  0  0  0  0
   50.0960   34.2140   42.4650 C   0  0  0  0  0  0  0  0  0  0  0  0
   51.0100   33.2320   42.2370 N   0  0  0  0  0  0  0  0  0  0  0  0
   50.7910   32.2800   41.2990 C   0  0  0  0  0  0  0  0  0  0  0  0
   49.6790   32.2750   40.5730 N   0  0  0  0  0  0  0  0  0  0  0  0
   51.9570   30.9640   40.9550 S   0  0  0  0  0  0  0  0  0  0  0  0
   43.3870   34.1610   41.4200 C   0  0  0  0  0  0  0  0  0  0  0  0
   42.3830   35.2700   41.4770 C   0  0  0  0  0  0  0  0  0  0  0  0
   42.6350   32.8530   41.5660 C   0  0  0  0  0  0  0  0  0  0  0  0
   44.0110   34.1890   40.0530 C   0  0  0  0  0  0  0  0  0  0  0  0
   45.9518   35.8794   41.5796 H   0  0  0  0  0  0  0  0  0  0  0  0
   44.6239   35.4748   44.4392 H   0  0  0  0  0  0  0  0  0  0  0  0
   43.7230   36.3712   43.5387 H   0  0  0  0  0  0  0  0  0  0  0  0
   44.2938   33.2441   42.7756 H   0  0  0  0  0  0  0  0  0  0  0  0
   47.0751   35.2116   43.8849 H   0  0  0  0  0  0  0  0  0  0  0  0
   46.8698   33.6925   42.9643 H   0  0  0  0  0  0  0  0  0  0  0  0
   47.4426   35.4572   40.9532 H   0  0  0  0  0  0  0  0  0  0  0  0
   48.4006   36.1421   42.3308 H   0  0  0  0  0  0  0  0  0  0  0  0
   47.8221   33.2266   40.1629 H   0  0  0  0  0  0  0  0  0  0  0  0
   50.2835   34.9829   43.2289 H   0  0  0  0  0  0  0  0  0  0  0  0
   52.4187   30.4429   42.1349 H   0  0  0  0  0  0  0  0  0  0  0  0
   42.1636   35.5123   42.5273 H   0  0  0  0  0  0  0  0  0  0  0  0
   42.7897   36.1590   40.9728 H   0  0  0  0  0  0  0  0  0  0  0  0
   41.4580   34.9535   40.9728 H   0  0  0  0  0  0  0  0  0  0  0  0
   42.5029   32.6232   42.6336 H   0  0  0  0  0  0  0  0  0  0  0  0
   41.6496   32.9410   41.0852 H   0  0  0  0  0  0  0  0  0  0  0  0
   43.2068   32.0456   41.0852 H   0  0  0  0  0  0  0  0  0  0  0  0
   45.1056   34.2381   40.1505 H   0  0  0  0  0  0  0  0  0  0  0  0
   43.7323   33.2774   39.5040 H   0  0  0  0  0  0  0  0  0  0  0  0
   43.6518   35.0719   39.5040 H   0  0  0  0  0  0  0  0  0  0  0  0
  1  3  1  0
  1  4  1  0
  1  2  1  0
  3  2  1  0
  5  4  1  0
  6  7  2  0
  7  5  1  0
  7  8  1  0
  9  8  2  0
 10  9  1  0
 11  6  1  0
 11 10  2  0
 12 10  1  0
 13 14  1  0
 13 15  1  0
 13  3  1  0
 16 13  1  0
  1 17  1  6
  2 18  1  0
  2 19  1  0
  3 20  1  1
  4 21  1  0
  4 22  1  0
  5 23  1  0
  5 24  1  0
  6 25  1  0
  8 26  1  0
 12 27  1  0
 14 28  1  0
 14 29  1  0
 14 30  1  0
 15 31  1  0
 15 32  1  0
 15 33  1  0
 16 34  1  0
 16 35  1  0
 16 36  1  0
M  ISO  8  17  13  18  13  19  13  20  13  21   8  22   8  23   8  24   8
M  ISO  8  25  14  26  14  27  11  28   8  29   8  30   8  31   8  32   8
M  ISO  4  33   8  34   8  35   8  36   8
M  END
>  <minimizedAffinity>  (1) 
-4.22392559

>  <minimizedRMSD>  (1) 
1.44338417

$$$$
