
     RDKit          3D

 41 42  0  0  1  0  0  0  0  0999 V2000
   42.6070   35.1110   41.4140 C   0  0  2  0  0  0  0  0  0  0  0  0
   41.9710   33.7850   41.3050 C   0  0  0  0  0  0  0  0  0  0  0  0
   42.0780   34.6180   40.1080 C   0  0  1  0  0  0  0  0  0  0  0  0
   44.1390   35.2170   41.4610 C   0  0  0  0  0  0  0  0  0  0  0  0
   44.5380   35.7770   42.7930 C   0  0  0  0  0  0  0  0  0  0  0  0
   44.9530   34.9460   45.0660 C   0  0  0  0  0  0  0  0  0  0  0  0
   45.0040   34.7420   43.6880 C   0  0  0  0  0  0  0  0  0  0  0  0
   45.5080   33.5510   43.2310 C   0  0  0  0  0  0  0  0  0  0  0  0
   45.9370   32.6170   44.1270 N   0  0  0  0  0  0  0  0  0  0  0  0
   45.8700   32.8530   45.4580 C   0  0  0  0  0  0  0  0  0  0  0  0
   45.3870   33.9980   45.9270 N   0  0  0  0  0  0  0  0  0  0  0  0
   46.3430   31.8200   46.4010 C   0  0  0  0  0  0  0  0  0  0  0  0
   47.1310   32.5400   47.4930 C   0  0  0  0  0  0  0  0  0  0  0  0
   40.8500   35.2640   39.4990 C   0  0  0  0  0  0  0  0  0  0  0  0
   40.3050   36.2790   40.4560 C   0  0  0  0  0  0  0  0  0  0  0  0
   39.7650   34.2300   39.2760 C   0  0  0  0  0  0  0  0  0  0  0  0
   41.1010   35.9550   38.1970 C   0  0  0  0  0  0  0  0  0  0  0  0
   42.4514   35.9650   42.0897 H   0  0  0  0  0  0  0  0  0  0  0  0
   42.5833   32.8756   41.3950 H   0  0  0  0  0  0  0  0  0  0  0  0
   41.1410   33.2827   41.8235 H   0  0  0  0  0  0  0  0  0  0  0  0
   42.4914   34.4720   39.0991 H   0  0  0  0  0  0  0  0  0  0  0  0
   44.5839   34.2196   41.3298 H   0  0  0  0  0  0  0  0  0  0  0  0
   44.4955   35.8745   40.6544 H   0  0  0  0  0  0  0  0  0  0  0  0
   45.3444   36.5103   42.6448 H   0  0  0  0  0  0  0  0  0  0  0  0
   43.6543   36.2506   43.2455 H   0  0  0  0  0  0  0  0  0  0  0  0
   44.5536   35.8926   45.4590 H   0  0  0  0  0  0  0  0  0  0  0  0
   45.5656   33.3510   42.1509 H   0  0  0  0  0  0  0  0  0  0  0  0
   45.4859   31.2893   46.8411 H   0  0  0  0  0  0  0  0  0  0  0  0
   46.9718   31.0778   45.8874 H   0  0  0  0  0  0  0  0  0  0  0  0
   46.7727   32.2126   48.4801 H   0  0  0  0  0  0  0  0  0  0  0  0
   48.1998   32.3000   47.3927 H   0  0  0  0  0  0  0  0  0  0  0  0
   46.9881   33.6261   47.3927 H   0  0  0  0  0  0  0  0  0  0  0  0
   40.4851   35.9436   41.4880 H   0  0  0  0  0  0  0  0  0  0  0  0
   40.8061   37.2443   40.2914 H   0  0  0  0  0  0  0  0  0  0  0  0
   39.2235   36.3945   40.2914 H   0  0  0  0  0  0  0  0  0  0  0  0
   39.3920   33.8745   40.2478 H   0  0  0  0  0  0  0  0  0  0  0  0
   38.9381   34.6826   38.7091 H   0  0  0  0  0  0  0  0  0  0  0  0
   40.1773   33.3823   38.7091 H   0  0  0  0  0  0  0  0  0  0  0  0
   41.4709   36.9733   38.3876 H   0  0  0  0  0  0  0  0  0  0  0  0
   41.8526   35.3934   37.6228 H   0  0  0  0  0  0  0  0  0  0  0  0
   40.1642   36.0067   37.6228 H   0  0  0  0  0  0  0  0  0  0  0  0
  1  4  1  0
  2  1  1  0
  3  2  1  0
  3  1  1  0
  4  5  1  0
  5  7  1  0
  6 11  2  0
  7  6  1  0
  8  7  2  0
  8  9  1  0
  9 10  2  0
 10 11  1  0
 10 12  1  0
 12 13  1  0
 14  3  1  0
 14 15  1  0
 16 14  1  0
 17 14  1  0
  1 18  1  1
  2 19  1  0
  2 20  1  0
  3 21  1  6
  4 22  1  0
  4 23  1  0
  5 24  1  0
  5 25  1  0
  6 26  1  0
  8 27  1  0
 12 28  1  0
 12 29  1  0
 13 30  1  0
 13 31  1  0
 13 32  1  0
 15 33  1  0
 15 34  1  0
 15 35  1  0
 16 36  1  0
 16 37  1  0
 16 38  1  0
 17 39  1  0
 17 40  1  0
 17 41  1  0
M  ISO  8  18  13  19  13  20  13  21  13  22   8  23   8  24   8  25   8
M  ISO  8  26  14  27  14  28   8  29   8  30   8  31   8  32   8  33   8
M  ISO  8  34   8  35   8  36   8  37   8  38   8  39   8  40   8  41   8
M  END
>  <minimizedAffinity>  (1) 
-4.94729614

>  <minimizedRMSD>  (1) 
4.21960926

$$$$
