
     RDKit          3D

 54 55  0  0  1  0  0  0  0  0999 V2000
   40.6610   35.2650   40.9330 C   0  0  2  0  0  0  0  0  0  0  0  0
   40.1830   34.1500   41.7850 C   0  0  0  0  0  0  0  0  0  0  0  0
   40.7350   33.8740   40.4510 C   0  0  1  0  0  0  0  0  0  0  0  0
   42.0190   35.9300   41.2290 C   0  0  0  0  0  0  0  0  0  0  0  0
   42.6990   35.1270   42.2930 C   0  0  0  0  0  0  0  0  0  0  0  0
   45.0310   35.4750   43.0080 C   0  0  0  0  0  0  0  0  0  0  0  0
   44.1130   34.9890   42.0820 C   0  0  0  0  0  0  0  0  0  0  0  0
   44.5970   34.3850   40.9700 C   0  0  0  0  0  0  0  0  0  0  0  0
   45.9450   34.2580   40.7670 N   0  0  0  0  0  0  0  0  0  0  0  0
   46.8080   34.7410   41.6880 C   0  0  0  0  0  0  0  0  0  0  0  0
   46.3540   35.3350   42.7840 N   0  0  0  0  0  0  0  0  0  0  0  0
   48.2800   34.6250   41.5120 C   0  0  0  0  0  0  0  0  0  0  0  0
   48.9400   35.9940   41.4370 C   0  0  0  0  0  0  0  0  0  0  0  0
   48.9350   33.8780   42.6480 C   0  0  0  0  0  0  0  0  0  0  0  0
   48.5220   33.9310   40.1840 C   0  0  0  0  0  0  0  0  0  0  0  0
   39.8480   33.4030   39.3140 C   0  0  0  0  0  0  0  0  0  0  0  0
   38.4550   33.8700   39.5710 C   0  0  0  0  0  0  0  0  0  0  0  0
   39.7990   31.8800   39.2820 C   0  0  0  0  0  0  0  0  0  0  0  0
   40.2950   33.8670   37.9790 C   0  0  0  0  0  0  0  0  0  0  0  0
   40.2350   35.2550   37.6980 N   0  0  0  0  0  0  0  0  0  0  0  0
   41.2960   36.0660   37.2280 C   0  0  0  0  0  0  0  0  0  0  0  0
   42.4700   35.7570   37.7040 N   0  0  0  0  0  0  0  0  0  0  0  0
   41.1160   37.1360   36.3260 N   0  0  0  0  0  0  0  0  0  0  0  0
   43.2720   36.3320   37.3810 H   0  0  0  0  0  0  0  0  0  0  0  0
   40.2054   36.2106   40.6040 H   0  0  0  0  0  0  0  0  0  0  0  0
   40.7479   33.8634   42.6843 H   0  0  0  0  0  0  0  0  0  0  0  0
   39.2411   33.9138   42.3018 H   0  0  0  0  0  0  0  0  0  0  0  0
   41.5350   33.2240   40.0669 H   0  0  0  0  0  0  0  0  0  0  0  0
   42.6358   35.9430   40.3183 H   0  0  0  0  0  0  0  0  0  0  0  0
   41.8739   36.9676   41.5642 H   0  0  0  0  0  0  0  0  0  0  0  0
   42.5369   35.6222   43.2618 H   0  0  0  0  0  0  0  0  0  0  0  0
   42.2649   34.1166   42.2672 H   0  0  0  0  0  0  0  0  0  0  0  0
   44.6779   35.9734   43.9228 H   0  0  0  0  0  0  0  0  0  0  0  0
   43.8965   33.9908   40.2191 H   0  0  0  0  0  0  0  0  0  0  0  0
   49.1212   36.3699   42.4548 H   0  0  0  0  0  0  0  0  0  0  0  0
   49.8970   35.9108   40.9010 H   0  0  0  0  0  0  0  0  0  0  0  0
   48.2789   36.6909   40.9010 H   0  0  0  0  0  0  0  0  0  0  0  0
   48.5795   34.2835   43.6067 H   0  0  0  0  0  0  0  0  0  0  0  0
   48.6762   32.8109   42.5826 H   0  0  0  0  0  0  0  0  0  0  0  0
   50.0268   33.9952   42.5826 H   0  0  0  0  0  0  0  0  0  0  0  0
   48.8792   32.9066   40.3654 H   0  0  0  0  0  0  0  0  0  0  0  0
   47.5830   33.8960   39.6121 H   0  0  0  0  0  0  0  0  0  0  0  0
   49.2791   34.4875   39.6121 H   0  0  0  0  0  0  0  0  0  0  0  0
   38.2820   33.9280   40.6558 H   0  0  0  0  0  0  0  0  0  0  0  0
   38.3133   34.8648   39.1234 H   0  0  0  0  0  0  0  0  0  0  0  0
   37.7423   33.1616   39.1234 H   0  0  0  0  0  0  0  0  0  0  0  0
   39.7865   31.4918   40.3112 H   0  0  0  0  0  0  0  0  0  0  0  0
   38.8899   31.5534   38.7559 H   0  0  0  0  0  0  0  0  0  0  0  0
   40.6852   31.4956   38.7559 H   0  0  0  0  0  0  0  0  0  0  0  0
   41.3430   33.5549   37.8592 H   0  0  0  0  0  0  0  0  0  0  0  0
   39.5766   33.4157   37.2788 H   0  0  0  0  0  0  0  0  0  0  0  0
   39.3288   35.7201   37.8511 H   0  0  0  0  0  0  0  0  0  0  0  0
   41.9265   37.6922   36.0184 H   0  0  0  0  0  0  0  0  0  0  0  0
   40.1741   37.3609   35.9751 H   0  0  0  0  0  0  0  0  0  0  0  0
  1  4  1  0
  1  2  1  0
  3  1  1  0
  3  2  1  0
  4  5  1  0
  7  5  1  0
  7  6  2  0
  8  7  1  0
  9  8  2  0
  9 10  1  0
 10 11  2  0
 11  6  1  0
 12 10  1  0
 12 14  1  0
 13 12  1  0
 15 12  1  0
 16 17  1  0
 16  3  1  0
 18 16  1  0
 19 16  1  0
 20 19  1  0
 21 20  1  0
 21 22  2  0
 23 21  1  0
 24 22  1  0
  1 25  1  6
  2 26  1  0
  2 27  1  0
  3 28  1  1
  4 29  1  0
  4 30  1  0
  5 31  1  0
  5 32  1  0
  6 33  1  0
  8 34  1  0
 13 35  1  0
 13 36  1  0
 13 37  1  0
 14 38  1  0
 14 39  1  0
 14 40  1  0
 15 41  1  0
 15 42  1  0
 15 43  1  0
 17 44  1  0
 17 45  1  0
 17 46  1  0
 18 47  1  0
 18 48  1  0
 18 49  1  0
 19 50  1  0
 19 51  1  0
 20 52  1  0
 23 53  1  0
 23 54  1  0
M  ISO  8  25  13  26  13  27  13  28  13  29   8  30   8  31   8  32   8
M  ISO  8  33  14  34  14  35   8  36   8  37   8  38   8  39   8  40   8
M  ISO  8  41   8  42   8  43   8  44   8  45   8  46   8  47   8  48   8
M  ISO  3  49   8  50   8  51   8
M  END
>  <minimizedAffinity>  (1) 
-5.72895479

>  <minimizedRMSD>  (1) 
1.18577313

$$$$
