
     RDKit          3D

 47 48  0  0  1  0  0  0  0  0999 V2000
   40.7360   34.6250   40.6730 C   0  0  2  0  0  0  0  0  0  0  0  0
   40.8840   33.1840   40.9360 C   0  0  0  0  0  0  0  0  0  0  0  0
   40.6440   33.6410   39.5580 C   0  0  1  0  0  0  0  0  0  0  0  0
   41.9860   35.5250   40.6370 C   0  0  0  0  0  0  0  0  0  0  0  0
   42.6410   35.4640   41.9830 C   0  0  0  0  0  0  0  0  0  0  0  0
   44.9410   35.7330   42.8330 C   0  0  0  0  0  0  0  0  0  0  0  0
   44.0630   35.2090   41.8760 C   0  0  0  0  0  0  0  0  0  0  0  0
   44.5830   34.4640   40.8540 C   0  0  0  0  0  0  0  0  0  0  0  0
   45.9270   34.2490   40.7840 N   0  0  0  0  0  0  0  0  0  0  0  0
   46.7570   34.7680   41.7220 C   0  0  0  0  0  0  0  0  0  0  0  0
   46.2630   35.4910   42.7180 N   0  0  0  0  0  0  0  0  0  0  0  0
   48.2260   34.5520   41.6760 C   0  0  0  0  0  0  0  0  0  0  0  0
   48.9750   35.8690   41.4970 C   0  0  0  0  0  0  0  0  0  0  0  0
   48.7540   33.8970   42.9210 C   0  0  0  0  0  0  0  0  0  0  0  0
   48.5060   33.6950   40.4490 C   0  0  0  0  0  0  0  0  0  0  0  0
   39.3060   33.4140   38.8870 C   0  0  0  0  0  0  0  0  0  0  0  0
   38.2020   33.6580   39.8690 C   0  0  0  0  0  0  0  0  0  0  0  0
   39.1990   31.9850   38.4090 C   0  0  0  0  0  0  0  0  0  0  0  0
   39.0620   34.3210   37.7110 C   0  0  0  0  0  0  0  0  0  0  0  0
   40.1038   35.4097   41.1141 H   0  0  0  0  0  0  0  0  0  0  0  0
   41.8669   32.7762   41.2145 H   0  0  0  0  0  0  0  0  0  0  0  0
   40.3920   32.4666   41.6092 H   0  0  0  0  0  0  0  0  0  0  0  0
   41.1545   33.4861   38.5960 H   0  0  0  0  0  0  0  0  0  0  0  0
   42.6831   35.1646   39.8662 H   0  0  0  0  0  0  0  0  0  0  0  0
   41.7037   36.5606   40.3966 H   0  0  0  0  0  0  0  0  0  0  0  0
   42.4888   36.4244   42.4973 H   0  0  0  0  0  0  0  0  0  0  0  0
   42.1861   34.6374   42.5485 H   0  0  0  0  0  0  0  0  0  0  0  0
   44.5567   36.3354   43.6694 H   0  0  0  0  0  0  0  0  0  0  0  0
   43.9170   34.0385   40.0889 H   0  0  0  0  0  0  0  0  0  0  0  0
   49.2152   36.2913   42.4839 H   0  0  0  0  0  0  0  0  0  0  0  0
   49.9057   35.6886   40.9390 H   0  0  0  0  0  0  0  0  0  0  0  0
   48.3442   36.5766   40.9390 H   0  0  0  0  0  0  0  0  0  0  0  0
   48.3436   34.4062   43.8055 H   0  0  0  0  0  0  0  0  0  0  0  0
   48.4532   32.8390   42.9345 H   0  0  0  0  0  0  0  0  0  0  0  0
   49.8517   33.9663   42.9345 H   0  0  0  0  0  0  0  0  0  0  0  0
   48.8330   32.6942   40.7676 H   0  0  0  0  0  0  0  0  0  0  0  0
   47.5899   33.6069   39.8465 H   0  0  0  0  0  0  0  0  0  0  0  0
   49.2974   34.1648   39.8465 H   0  0  0  0  0  0  0  0  0  0  0  0
   38.5957   33.5710   40.8924 H   0  0  0  0  0  0  0  0  0  0  0  0
   37.7935   34.6681   39.7179 H   0  0  0  0  0  0  0  0  0  0  0  0
   37.4058   32.9141   39.7179 H   0  0  0  0  0  0  0  0  0  0  0  0
   39.1485   31.3109   39.2768 H   0  0  0  0  0  0  0  0  0  0  0  0
   38.2896   31.8688   37.8011 H   0  0  0  0  0  0  0  0  0  0  0  0
   40.0809   31.7347   37.8011 H   0  0  0  0  0  0  0  0  0  0  0  0
   38.7920   35.3245   38.0717 H   0  0  0  0  0  0  0  0  0  0  0  0
   39.9751   34.3840   37.1009 H   0  0  0  0  0  0  0  0  0  0  0  0
   38.2405   33.9174   37.1009 H   0  0  0  0  0  0  0  0  0  0  0  0
  1  2  1  0
  3  1  1  0
  3  2  1  0
  4  1  1  0
  4  5  1  0
  7  5  1  0
  7  6  2  0
  8  7  1  0
  9  8  2  0
  9 10  1  0
 10 11  2  0
 11  6  1  0
 12 10  1  0
 12 14  1  0
 13 12  1  0
 15 12  1  0
 16  3  1  0
 16 17  1  0
 18 16  1  0
 19 16  1  0
  1 20  1  1
  2 21  1  0
  2 22  1  0
  3 23  1  6
  4 24  1  0
  4 25  1  0
  5 26  1  0
  5 27  1  0
  6 28  1  0
  8 29  1  0
 13 30  1  0
 13 31  1  0
 13 32  1  0
 14 33  1  0
 14 34  1  0
 14 35  1  0
 15 36  1  0
 15 37  1  0
 15 38  1  0
 17 39  1  0
 17 40  1  0
 17 41  1  0
 18 42  1  0
 18 43  1  0
 18 44  1  0
 19 45  1  0
 19 46  1  0
 19 47  1  0
M  ISO  8  20  13  21  13  22  13  23  13  24   8  25   8  26   8  27   8
M  ISO  8  28  14  29  14  30   8  31   8  32   8  33   8  34   8  35   8
M  ISO  8  36   8  37   8  38   8  39   8  40   8  41   8  42   8  43   8
M  ISO  4  44   8  45   8  46   8  47   8
M  END
>  <minimizedAffinity>  (1) 
-5.43761492

>  <minimizedRMSD>  (1) 
4.33301497

$$$$
