
     RDKit          3D

 63 65  0  0  1  0  0  0  0  0999 V2000
   41.9020   34.5550   40.6180 C   0  0  0  0  0  0  0  0  0  0  0  0
   41.2270   33.3660   41.3450 C   0  0  2  0  0  0  0  0  0  0  0  0
   41.9750   32.1040   41.4980 C   0  0  0  0  0  0  0  0  0  0  0  0
   40.9260   32.2080   40.4840 C   0  0  1  0  0  0  0  0  0  0  0  0
   39.6120   31.4540   40.6200 C   0  0  0  0  0  0  0  0  0  0  0  0
   38.5030   32.4680   40.5640 C   0  0  0  0  0  0  0  0  0  0  0  0
   39.5530   30.7830   41.9770 C   0  0  0  0  0  0  0  0  0  0  0  0
   39.4040   30.4700   39.5530 C   0  0  0  0  0  0  0  0  0  0  0  0
   38.4140   30.5800   38.5150 C   0  0  0  0  0  0  0  0  0  0  0  0
   38.7220   30.9540   37.1370 C   0  0  0  0  0  0  0  0  0  0  0  0
   39.4080   29.8930   36.2950 C   0  0  0  0  0  0  0  0  0  0  0  0
   38.4380   28.7060   36.2310 C   0  0  0  0  0  0  0  0  0  0  0  0
   38.4430   28.1990   37.6810 C   0  0  0  0  0  0  0  0  0  0  0  0
   37.6690   29.2290   38.4600 C   0  0  0  0  0  0  0  0  0  0  0  0
   42.6160   35.3710   41.6330 C   0  0  0  0  0  0  0  0  0  0  0  0
   44.8310   35.6580   42.6680 C   0  0  0  0  0  0  0  0  0  0  0  0
   44.0360   35.1490   41.6460 C   0  0  0  0  0  0  0  0  0  0  0  0
   44.6370   34.4380   40.6610 C   0  0  0  0  0  0  0  0  0  0  0  0
   45.9890   34.2280   40.6720 N   0  0  0  0  0  0  0  0  0  0  0  0
   46.7390   34.7360   41.6820 C   0  0  0  0  0  0  0  0  0  0  0  0
   46.1650   35.4280   42.6440 N   0  0  0  0  0  0  0  0  0  0  0  0
   48.2090   34.5280   41.7430 C   0  0  0  0  0  0  0  0  0  0  0  0
   48.9640   35.8240   41.5300 C   0  0  0  0  0  0  0  0  0  0  0  0
   48.6530   33.9390   43.0620 C   0  0  0  0  0  0  0  0  0  0  0  0
   48.5690   33.5830   40.5980 C   0  0  0  0  0  0  0  0  0  0  0  0
   42.6173   34.1784   39.8720 H   0  0  0  0  0  0  0  0  0  0  0  0
   41.1460   35.1649   40.1017 H   0  0  0  0  0  0  0  0  0  0  0  0
   40.6804   34.0121   42.0477 H   0  0  0  0  0  0  0  0  0  0  0  0
   43.0305   32.0506   41.1930 H   0  0  0  0  0  0  0  0  0  0  0  0
   42.1812   31.4202   42.3346 H   0  0  0  0  0  0  0  0  0  0  0  0
   40.8803   32.0343   39.3988 H   0  0  0  0  0  0  0  0  0  0  0  0
   38.2041   32.7413   41.5867 H   0  0  0  0  0  0  0  0  0  0  0  0
   38.8529   33.3651   40.0322 H   0  0  0  0  0  0  0  0  0  0  0  0
   37.6408   32.0394   40.0322 H   0  0  0  0  0  0  0  0  0  0  0  0
   39.6201   31.5460   42.7665 H   0  0  0  0  0  0  0  0  0  0  0  0
   38.6033   30.2366   42.0749 H   0  0  0  0  0  0  0  0  0  0  0  0
   40.3927   30.0792   42.0749 H   0  0  0  0  0  0  0  0  0  0  0  0
   40.3695   30.3933   39.0315 H   0  0  0  0  0  0  0  0  0  0  0  0
   38.9934   29.6302   40.1328 H   0  0  0  0  0  0  0  0  0  0  0  0
   37.8755   31.4795   38.8480 H   0  0  0  0  0  0  0  0  0  0  0  0
   37.7763   31.2175   36.6408 H   0  0  0  0  0  0  0  0  0  0  0  0
   39.4401   31.7841   37.2093 H   0  0  0  0  0  0  0  0  0  0  0  0
   39.6071   30.2780   35.2840 H   0  0  0  0  0  0  0  0  0  0  0  0
   40.3746   29.5985   36.7298 H   0  0  0  0  0  0  0  0  0  0  0  0
   37.4320   29.0299   35.9259 H   0  0  0  0  0  0  0  0  0  0  0  0
   38.7275   27.9403   35.4962 H   0  0  0  0  0  0  0  0  0  0  0  0
   37.9535   27.2162   37.7480 H   0  0  0  0  0  0  0  0  0  0  0  0
   39.4643   28.0709   38.0690 H   0  0  0  0  0  0  0  0  0  0  0  0
   36.6915   29.3800   37.9786 H   0  0  0  0  0  0  0  0  0  0  0  0
   37.5480   28.8614   39.4897 H   0  0  0  0  0  0  0  0  0  0  0  0
   42.4310   36.4340   41.4191 H   0  0  0  0  0  0  0  0  0  0  0  0
   42.2311   35.0729   42.6194 H   0  0  0  0  0  0  0  0  0  0  0  0
   44.3812   36.2403   43.4857 H   0  0  0  0  0  0  0  0  0  0  0  0
   44.0300   34.0244   39.8421 H   0  0  0  0  0  0  0  0  0  0  0  0
   49.2201   36.2637   42.5052 H   0  0  0  0  0  0  0  0  0  0  0  0
   49.8861   35.6226   40.9651 H   0  0  0  0  0  0  0  0  0  0  0  0
   48.3340   36.5268   40.9651 H   0  0  0  0  0  0  0  0  0  0  0  0
   48.2159   34.5189   43.8882 H   0  0  0  0  0  0  0  0  0  0  0  0
   48.3160   32.8940   43.1289 H   0  0  0  0  0  0  0  0  0  0  0  0
   49.7504   33.9753   43.1289 H   0  0  0  0  0  0  0  0  0  0  0  0
   48.9321   32.6298   41.0097 H   0  0  0  0  0  0  0  0  0  0  0  0
   47.6777   33.3996   39.9799 H   0  0  0  0  0  0  0  0  0  0  0  0
   49.3564   34.0391   39.9799 H   0  0  0  0  0  0  0  0  0  0  0  0
  1  2  1  0
  1 15  1  0
  2  3  1  0
  4  5  1  0
  4  2  1  0
  4  3  1  0
  5  7  1  0
  6  5  1  0
  8  5  1  0
  9  8  1  0
 10  9  1  0
 11 10  1  0
 12 11  1  0
 12 13  1  0
 13 14  1  0
 14  9  1  0
 15 17  1  0
 17 16  2  0
 18 19  2  0
 18 17  1  0
 19 20  1  0
 20 22  1  0
 20 21  2  0
 21 16  1  0
 22 24  1  0
 23 22  1  0
 25 22  1  0
  1 26  1  0
  1 27  1  0
  2 28  1  1
  3 29  1  0
  3 30  1  0
  4 31  1  6
  6 32  1  0
  6 33  1  0
  6 34  1  0
  7 35  1  0
  7 36  1  0
  7 37  1  0
  8 38  1  0
  8 39  1  0
  9 40  1  0
 10 41  1  0
 10 42  1  0
 11 43  1  0
 11 44  1  0
 12 45  1  0
 12 46  1  0
 13 47  1  0
 13 48  1  0
 14 49  1  0
 14 50  1  0
 15 51  1  0
 15 52  1  0
 16 53  1  0
 18 54  1  0
 23 55  1  0
 23 56  1  0
 23 57  1  0
 24 58  1  0
 24 59  1  0
 24 60  1  0
 25 61  1  0
 25 62  1  0
 25 63  1  0
M  ISO  8  26   8  27   8  28  13  29  13  30  13  31  13  32   8  33   8
M  ISO  8  34   8  35   8  36   8  37   8  38   8  39   8  40  13  41  13
M  ISO  8  42  13  43  13  44  13  45  13  46  13  47  13  48  13  49  13
M  ISO  8  50  13  51   8  52   8  53  14  54  14  55   8  56   8  57   8
M  ISO  6  58   8  59   8  60   8  61   8  62   8  63   8
M  END
>  <minimizedAffinity>  (1) 
-5.2696538

>  <minimizedRMSD>  (1) 
2.3315115

$$$$
