
     RDKit          3D

 60 62  0  0  1  0  0  0  0  0999 V2000
   41.3110   35.7040   40.3560 C   0  0  0  0  0  0  0  0  0  0  0  0
   40.4780   34.5250   39.8010 C   0  0  2  0  0  0  0  0  0  0  0  0
   39.0010   34.6200   39.8010 C   0  0  0  0  0  0  0  0  0  0  0  0
   39.6740   33.8080   40.8120 C   0  0  1  0  0  0  0  0  0  0  0  0
   39.5990   32.2860   40.7980 C   0  0  0  0  0  0  0  0  0  0  0  0
   38.1740   31.8950   41.0260 C   0  0  0  0  0  0  0  0  0  0  0  0
   40.4390   31.7250   41.9330 C   0  0  0  0  0  0  0  0  0  0  0  0
   40.0840   31.6940   39.5290 C   0  0  0  0  0  0  0  0  0  0  0  0
   39.1340   31.0020   38.6380 C   0  0  0  0  0  0  0  0  0  0  0  0
   38.7120   31.6490   37.3770 C   0  0  0  0  0  0  0  0  0  0  0  0
   38.6070   30.4590   36.3880 C   0  0  0  0  0  0  0  0  0  0  0  0
   39.9500   29.7900   36.7050 C   0  0  0  0  0  0  0  0  0  0  0  0
   39.8260   29.6890   38.2140 C   0  0  0  0  0  0  0  0  0  0  0  0
   41.9500   35.2700   41.6280 C   0  0  0  0  0  0  0  0  0  0  0  0
   44.2800   35.5680   42.3610 C   0  0  0  0  0  0  0  0  0  0  0  0
   43.3540   35.0020   41.4870 C   0  0  0  0  0  0  0  0  0  0  0  0
   43.8260   34.1960   40.5040 C   0  0  0  0  0  0  0  0  0  0  0  0
   45.1660   33.9530   40.3830 N   0  0  0  0  0  0  0  0  0  0  0  0
   46.0370   34.5210   41.2500 C   0  0  0  0  0  0  0  0  0  0  0  0
   45.5930   35.3080   42.2120 N   0  0  0  0  0  0  0  0  0  0  0  0
   47.5010   34.2880   41.1610 C   0  0  0  0  0  0  0  0  0  0  0  0
   48.2920   35.4410   41.7500 C   0  0  0  0  0  0  0  0  0  0  0  0
   47.9290   33.0220   41.8640 C   0  0  0  0  0  0  0  0  0  0  0  0
   47.8400   34.1950   39.6800 C   0  0  0  0  0  0  0  0  0  0  0  0
   40.6545   36.5661   40.5453 H   0  0  0  0  0  0  0  0  0  0  0  0
   42.0809   35.9987   39.6277 H   0  0  0  0  0  0  0  0  0  0  0  0
   41.2203   34.2726   39.0294 H   0  0  0  0  0  0  0  0  0  0  0  0
   38.5113   35.5617   40.0898 H   0  0  0  0  0  0  0  0  0  0  0  0
   38.2115   34.4361   39.0574 H   0  0  0  0  0  0  0  0  0  0  0  0
   39.6468   33.7744   41.9111 H   0  0  0  0  0  0  0  0  0  0  0  0
   37.9771   31.8410   42.1069 H   0  0  0  0  0  0  0  0  0  0  0  0
   37.5106   32.6443   40.5694 H   0  0  0  0  0  0  0  0  0  0  0  0
   37.9859   30.9121   40.5694 H   0  0  0  0  0  0  0  0  0  0  0  0
   39.9975   32.0199   42.8964 H   0  0  0  0  0  0  0  0  0  0  0  0
   40.4650   30.6276   41.8622 H   0  0  0  0  0  0  0  0  0  0  0  0
   41.4627   32.1214   41.8622 H   0  0  0  0  0  0  0  0  0  0  0  0
   40.5315   32.5120   38.9454 H   0  0  0  0  0  0  0  0  0  0  0  0
   40.7575   30.8901   39.8610 H   0  0  0  0  0  0  0  0  0  0  0  0
   38.2126   30.9380   39.2354 H   0  0  0  0  0  0  0  0  0  0  0  0
   37.7400   32.1500   37.4964 H   0  0  0  0  0  0  0  0  0  0  0  0
   39.4074   32.4315   37.0391 H   0  0  0  0  0  0  0  0  0  0  0  0
   38.5456   30.7925   35.3416 H   0  0  0  0  0  0  0  0  0  0  0  0
   37.7163   29.8226   36.4953 H   0  0  0  0  0  0  0  0  0  0  0  0
   40.0376   28.8004   36.2328 H   0  0  0  0  0  0  0  0  0  0  0  0
   40.8389   30.3267   36.3420 H   0  0  0  0  0  0  0  0  0  0  0  0
   39.2142   28.8193   38.4958 H   0  0  0  0  0  0  0  0  0  0  0  0
   40.8016   29.5552   38.7041 H   0  0  0  0  0  0  0  0  0  0  0  0
   41.8183   36.0658   42.3759 H   0  0  0  0  0  0  0  0  0  0  0  0
   41.4651   34.3322   41.9370 H   0  0  0  0  0  0  0  0  0  0  0  0
   43.9385   36.2272   43.1727 H   0  0  0  0  0  0  0  0  0  0  0  0
   43.1230   33.7326   39.7961 H   0  0  0  0  0  0  0  0  0  0  0  0
   48.2554   35.3876   42.8481 H   0  0  0  0  0  0  0  0  0  0  0  0
   49.3377   35.3775   41.4145 H   0  0  0  0  0  0  0  0  0  0  0  0
   47.8564   36.3937   41.4145 H   0  0  0  0  0  0  0  0  0  0  0  0
   47.8783   33.1720   42.9525 H   0  0  0  0  0  0  0  0  0  0  0  0
   47.2594   32.1982   41.5758 H   0  0  0  0  0  0  0  0  0  0  0  0
   48.9611   32.7735   41.5758 H   0  0  0  0  0  0  0  0  0  0  0  0
   48.8948   33.9056   39.5628 H   0  0  0  0  0  0  0  0  0  0  0  0
   47.1975   33.4399   39.2035 H   0  0  0  0  0  0  0  0  0  0  0  0
   47.6727   35.1722   39.2035 H   0  0  0  0  0  0  0  0  0  0  0  0
  1 14  1  0
  2  3  1  0
  2  1  1  0
  2  4  1  0
  3  4  1  0
  5  4  1  0
  5  6  1  0
  5  7  1  0
  8  5  1  0
  9  8  1  0
 10  9  1  0
 11 12  1  0
 11 10  1  0
 12 13  1  0
 13  9  1  0
 16 14  1  0
 16 15  2  0
 17 16  1  0
 18 17  2  0
 18 19  1  0
 19 20  2  0
 20 15  1  0
 21 19  1  0
 21 22  1  0
 21 23  1  0
 24 21  1  0
  1 25  1  0
  1 26  1  0
  2 27  1  6
  3 28  1  0
  3 29  1  0
  4 30  1  1
  6 31  1  0
  6 32  1  0
  6 33  1  0
  7 34  1  0
  7 35  1  0
  7 36  1  0
  8 37  1  0
  8 38  1  0
  9 39  1  0
 10 40  1  0
 10 41  1  0
 11 42  1  0
 11 43  1  0
 12 44  1  0
 12 45  1  0
 13 46  1  0
 13 47  1  0
 14 48  1  0
 14 49  1  0
 15 50  1  0
 17 51  1  0
 22 52  1  0
 22 53  1  0
 22 54  1  0
 23 55  1  0
 23 56  1  0
 23 57  1  0
 24 58  1  0
 24 59  1  0
 24 60  1  0
M  ISO  8  25   8  26   8  27  13  28  13  29  13  30  13  31   8  32   8
M  ISO  8  33   8  34   8  35   8  36   8  37   8  38   8  39  13  40  13
M  ISO  8  41  13  42  13  43  13  44  13  45  13  46  13  47  13  48   8
M  ISO  8  49   8  50  14  51  14  52   8  53   8  54   8  55   8  56   8
M  ISO  4  57   8  58   8  59   8  60   8
M  END
>  <minimizedAffinity>  (1) 
-5.50990057

>  <minimizedRMSD>  (1) 
2.41407132

$$$$
