
     RDKit          3D

 33 34  0  0  0  0  0  0  0  0999 V2000
   44.6490   35.7810   44.5070 C   0  0  0  0  0  0  0  0  0  0  0  0
   45.5530   35.1560   43.6370 C   0  0  0  0  0  0  0  0  0  0  0  0
   46.2250   34.0380   44.1190 C   0  0  0  0  0  0  0  0  0  0  0  0
   45.9840   33.5970   45.4030 N   0  0  0  0  0  0  0  0  0  0  0  0
   45.1070   34.2340   46.1940 C   0  0  0  0  0  0  0  0  0  0  0  0
   44.4500   35.3160   45.7420 N   0  0  0  0  0  0  0  0  0  0  0  0
   44.8640   33.7660   47.5280 N   0  0  0  0  0  0  0  0  0  0  0  0
   45.2610   32.4720   47.9470 C   0  0  0  0  0  0  0  0  0  0  0  0
   45.2850   31.5460   47.0700 N   0  0  0  0  0  0  0  0  0  0  0  0
   45.6150   32.2410   49.3040 N   0  0  0  0  0  0  0  0  0  0  0  0
   45.5610   30.5660   47.2480 H   0  0  0  0  0  0  0  0  0  0  0  0
   47.1760   33.3610   43.2390 C   0  0  0  0  0  0  0  0  0  0  0  0
   47.7380   32.0800   43.7640 C   0  0  0  0  0  0  0  0  0  0  0  0
   48.5260   31.4300   42.6370 C   0  0  0  0  0  0  0  0  0  0  0  0
   49.5720   32.3680   42.1360 C   0  0  0  0  0  0  0  0  0  0  0  0
   49.0610   33.7250   41.7700 C   0  0  0  0  0  0  0  0  0  0  0  0
   48.2830   34.3380   42.9250 C   0  0  0  0  0  0  0  0  0  0  0  0
   44.0951   36.6683   44.1666 H   0  0  0  0  0  0  0  0  0  0  0  0
   45.7234   35.5333   42.6179 H   0  0  0  0  0  0  0  0  0  0  0  0
   44.3886   34.3866   48.1986 H   0  0  0  0  0  0  0  0  0  0  0  0
   45.9035   31.3001   49.6080 H   0  0  0  0  0  0  0  0  0  0  0  0
   45.5830   33.0145   49.9834 H   0  0  0  0  0  0  0  0  0  0  0  0
   46.6219   33.0556   42.3392 H   0  0  0  0  0  0  0  0  0  0  0  0
   48.4015   32.2830   44.6176 H   0  0  0  0  0  0  0  0  0  0  0  0
   46.9315   31.4149   44.1064 H   0  0  0  0  0  0  0  0  0  0  0  0
   49.0073   30.5142   43.0106 H   0  0  0  0  0  0  0  0  0  0  0  0
   47.8397   31.1828   41.8136 H   0  0  0  0  0  0  0  0  0  0  0  0
   50.3322   32.4872   42.9221 H   0  0  0  0  0  0  0  0  0  0  0  0
   49.9749   31.9250   41.2133 H   0  0  0  0  0  0  0  0  0  0  0  0
   49.9121   34.3763   41.5223 H   0  0  0  0  0  0  0  0  0  0  0  0
   48.3894   33.6276   40.9043 H   0  0  0  0  0  0  0  0  0  0  0  0
   48.9367   34.4704   43.7997 H   0  0  0  0  0  0  0  0  0  0  0  0
   47.8858   35.3301   42.6645 H   0  0  0  0  0  0  0  0  0  0  0  0
  1  6  2  0
  2  3  2  0
  2  1  1  0
  3  4  1  0
  4  5  2  0
  5  7  1  0
  6  5  1  0
  7  8  1  0
  8 10  1  0
  9 11  1  0
  9  8  2  0
 12 13  1  0
 12  3  1  0
 14 13  1  0
 15 14  1  0
 16 15  1  0
 16 17  1  0
 17 12  1  0
  1 18  1  0
  2 19  1  0
  7 20  1  0
 10 21  1  0
 10 22  1  0
 12 23  1  0
 13 24  1  0
 13 25  1  0
 14 26  1  0
 14 27  1  0
 15 28  1  0
 15 29  1  0
 16 30  1  0
 16 31  1  0
 17 32  1  0
 17 33  1  0
M  ISO  8  18  14  19  14  23  13  24  13  25  13  26  13  27  13  28  13
M  ISO  5  29  13  30  13  31  13  32  13  33  13
M  END
>  <minimizedAffinity>  (1) 
-6.20379782

>  <minimizedRMSD>  (1) 
0.0982992947

$$$$
