
     RDKit          3D

 24 25  0  0  0  0  0  0  0  0999 V2000
   44.7010   35.7130   44.4640 C   0  0  0  0  0  0  0  0  0  0  0  0
   45.7040   35.1550   43.6500 C   0  0  0  0  0  0  0  0  0  0  0  0
   46.4130   34.0890   44.1800 C   0  0  0  0  0  0  0  0  0  0  0  0
   46.1330   33.6240   45.4300 N   0  0  0  0  0  0  0  0  0  0  0  0
   45.1520   34.1980   46.1790 C   0  0  0  0  0  0  0  0  0  0  0  0
   44.4610   35.2270   45.6810 N   0  0  0  0  0  0  0  0  0  0  0  0
   44.8580   33.7180   47.4870 N   0  0  0  0  0  0  0  0  0  0  0  0
   45.3190   32.4500   47.9440 C   0  0  0  0  0  0  0  0  0  0  0  0
   45.4770   31.5350   47.0710 N   0  0  0  0  0  0  0  0  0  0  0  0
   45.5850   32.2430   49.3290 N   0  0  0  0  0  0  0  0  0  0  0  0
   45.8330   30.5840   47.2770 H   0  0  0  0  0  0  0  0  0  0  0  0
   47.4400   33.4740   43.4180 C   0  0  0  0  0  0  0  0  0  0  0  0
   47.7700   32.1740   43.1560 C   0  0  0  0  0  0  0  0  0  0  0  0
   48.8440   31.8770   42.3660 C   0  0  0  0  0  0  0  0  0  0  0  0
   49.5730   33.0370   41.8500 C   0  0  0  0  0  0  0  0  0  0  0  0
   48.6520   34.4820   42.5480 S   0  0  0  0  0  0  0  0  0  0  0  0
   44.1078   36.5609   44.0909 H   0  0  0  0  0  0  0  0  0  0  0  0
   45.9147   35.5455   42.6434 H   0  0  0  0  0  0  0  0  0  0  0  0
   44.2961   34.3042   48.1206 H   0  0  0  0  0  0  0  0  0  0  0  0
   45.9183   31.3256   49.6579 H   0  0  0  0  0  0  0  0  0  0  0  0
   45.4439   33.0108   50.0009 H   0  0  0  0  0  0  0  0  0  0  0  0
   47.1661   31.3606   43.5846 H   0  0  0  0  0  0  0  0  0  0  0  0
   49.1393   30.8429   42.1347 H   0  0  0  0  0  0  0  0  0  0  0  0
   50.4602   33.0471   41.1998 H   0  0  0  0  0  0  0  0  0  0  0  0
  1  6  2  0
  2  3  2  0
  2  1  1  0
  3  4  1  0
  4  5  2  0
  5  7  1  0
  6  5  1  0
  7  8  1  0
  8 10  1  0
  9 11  1  0
  9  8  2  0
 12  3  1  0
 13 12  2  0
 14 13  1  0
 15 14  2  0
 15 16  1  0
 16 12  1  0
  1 17  1  0
  2 18  1  0
  7 19  1  0
 10 20  1  0
 10 21  1  0
 13 22  1  0
 14 23  1  0
 15 24  1  0
M  ISO  5  17  14  18  14  22  14  23  14  24  14
M  END
>  <minimizedAffinity>  (1) 
-5.7558527

>  <minimizedRMSD>  (1) 
0.736960888

$$$$
