
     RDKit          3D

 32 33  0  0  0  0  0  0  0  0999 V2000
   44.6180   35.8160   44.5420 C   0  0  0  0  0  0  0  0  0  0  0  0
   45.5070   35.2000   43.6530 C   0  0  0  0  0  0  0  0  0  0  0  0
   46.1980   34.0600   44.0960 C   0  0  0  0  0  0  0  0  0  0  0  0
   45.9650   33.6120   45.3780 N   0  0  0  0  0  0  0  0  0  0  0  0
   45.1030   34.2380   46.1910 C   0  0  0  0  0  0  0  0  0  0  0  0
   44.4390   35.3320   45.7690 N   0  0  0  0  0  0  0  0  0  0  0  0
   44.8770   33.7580   47.5220 N   0  0  0  0  0  0  0  0  0  0  0  0
   45.2830   32.4620   47.9220 C   0  0  0  0  0  0  0  0  0  0  0  0
   45.3150   31.5470   47.0370 N   0  0  0  0  0  0  0  0  0  0  0  0
   45.6420   32.2220   49.2810 N   0  0  0  0  0  0  0  0  0  0  0  0
   45.6150   30.5710   47.2070 H   0  0  0  0  0  0  0  0  0  0  0  0
   47.1210   33.3400   43.3080 N   0  0  0  0  0  0  0  0  0  0  0  0
   46.8670   31.9860   42.8670 C   0  0  0  0  0  0  0  0  0  0  0  0
   48.0330   31.1710   43.3790 C   0  0  0  0  0  0  0  0  0  0  0  0
   49.3430   31.6190   42.8060 C   0  0  0  0  0  0  0  0  0  0  0  0
   49.3830   33.0400   42.3670 C   0  0  0  0  0  0  0  0  0  0  0  0
   48.3490   33.9450   42.9240 C   0  0  0  0  0  0  0  0  0  0  0  0
   44.0614   36.7096   44.2231 H   0  0  0  0  0  0  0  0  0  0  0  0
   45.6598   35.5966   42.6384 H   0  0  0  0  0  0  0  0  0  0  0  0
   44.4078   34.3706   48.2043 H   0  0  0  0  0  0  0  0  0  0  0  0
   45.9380   31.2809   49.5770 H   0  0  0  0  0  0  0  0  0  0  0  0
   45.6053   32.9897   49.9667 H   0  0  0  0  0  0  0  0  0  0  0  0
   45.9223   31.6143   43.2905 H   0  0  0  0  0  0  0  0  0  0  0  0
   46.7734   31.9232   41.7728 H   0  0  0  0  0  0  0  0  0  0  0  0
   48.0760   31.2664   44.4740 H   0  0  0  0  0  0  0  0  0  0  0  0
   47.8726   30.1277   43.0694 H   0  0  0  0  0  0  0  0  0  0  0  0
   50.1179   31.4768   43.5736 H   0  0  0  0  0  0  0  0  0  0  0  0
   49.5074   31.0130   41.9028 H   0  0  0  0  0  0  0  0  0  0  0  0
   50.3659   33.4466   42.6473 H   0  0  0  0  0  0  0  0  0  0  0  0
   49.1851   33.0109   41.2853 H   0  0  0  0  0  0  0  0  0  0  0  0
   48.7747   34.4325   43.8135 H   0  0  0  0  0  0  0  0  0  0  0  0
   48.0924   34.6345   42.1062 H   0  0  0  0  0  0  0  0  0  0  0  0
  1  6  2  0
  2  3  2  0
  2  1  1  0
  3  4  1  0
  4  5  2  0
  5  7  1  0
  6  5  1  0
  7  8  1  0
  8 10  1  0
  9 11  1  0
  9  8  2  0
 12  3  1  0
 13 12  1  0
 13 14  1  0
 15 14  1  0
 16 15  1  0
 16 17  1  0
 17 12  1  0
  1 18  1  0
  2 19  1  0
  7 20  1  0
 10 21  1  0
 10 22  1  0
 13 23  1  0
 13 24  1  0
 14 25  1  0
 14 26  1  0
 15 27  1  0
 15 28  1  0
 16 29  1  0
 16 30  1  0
 17 31  1  0
 17 32  1  0
M  ISO  8  18  14  19  14  23  13  24  13  25  13  26  13  27  13  28  13
M  ISO  4  29  13  30  13  31  13  32  13
M  END
>  <minimizedAffinity>  (1) 
-5.86804914

>  <minimizedRMSD>  (1) 
0.336621493

$$$$
