
     RDKit          3D

 26 27  0  0  0  0  0  0  0  0999 V2000
   44.7300   35.6550   44.4620 C   0  0  0  0  0  0  0  0  0  0  0  0
   45.7610   35.1210   43.6730 C   0  0  0  0  0  0  0  0  0  0  0  0
   46.4910   34.0710   44.2200 C   0  0  0  0  0  0  0  0  0  0  0  0
   46.1670   33.6250   45.4820 N   0  0  0  0  0  0  0  0  0  0  0  0
   45.1670   34.1730   46.1970 C   0  0  0  0  0  0  0  0  0  0  0  0
   44.4510   35.1900   45.6820 N   0  0  0  0  0  0  0  0  0  0  0  0
   44.8490   33.6940   47.5020 N   0  0  0  0  0  0  0  0  0  0  0  0
   45.3180   32.4300   47.9570 C   0  0  0  0  0  0  0  0  0  0  0  0
   45.5130   31.4970   47.0830 N   0  0  0  0  0  0  0  0  0  0  0  0
   45.5570   32.2320   49.3600 N   0  0  0  0  0  0  0  0  0  0  0  0
   45.8850   30.5700   47.3210 H   0  0  0  0  0  0  0  0  0  0  0  0
   47.5690   33.4650   43.4740 C   0  0  0  0  0  0  0  0  0  0  0  0
   48.4410   34.2600   42.7630 C   0  0  0  0  0  0  0  0  0  0  0  0
   49.4630   33.6560   42.0600 C   0  0  0  0  0  0  0  0  0  0  0  0
   49.5120   32.2770   42.1370 C   0  0  0  0  0  0  0  0  0  0  0  0
   48.6450   31.4570   42.8450 C   0  0  0  0  0  0  0  0  0  0  0  0
   47.6760   32.1340   43.5050 N   0  0  0  0  0  0  0  0  0  0  0  0
   44.1309   36.4858   44.0610 H   0  0  0  0  0  0  0  0  0  0  0  0
   45.9811   35.5144   42.6696 H   0  0  0  0  0  0  0  0  0  0  0  0
   44.2696   34.2732   48.1262 H   0  0  0  0  0  0  0  0  0  0  0  0
   45.8965   31.3214   49.7011 H   0  0  0  0  0  0  0  0  0  0  0  0
   45.3888   33.0007   50.0246 H   0  0  0  0  0  0  0  0  0  0  0  0
   48.3248   35.3538   42.7559 H   0  0  0  0  0  0  0  0  0  0  0  0
   50.1926   34.2354   41.4752 H   0  0  0  0  0  0  0  0  0  0  0  0
   50.3200   31.7791   41.5808 H   0  0  0  0  0  0  0  0  0  0  0  0
   48.7363   30.3610   42.8678 H   0  0  0  0  0  0  0  0  0  0  0  0
  1  6  2  0
  2  3  2  0
  2  1  1  0
  3  4  1  0
  4  5  2  0
  5  7  1  0
  6  5  1  0
  7  8  1  0
  8 10  1  0
  9 11  1  0
  9  8  2  0
 12 17  1  0
 12  3  1  0
 13 12  2  0
 14 15  2  0
 14 13  1  0
 15 16  1  0
 16 17  2  0
  1 18  1  0
  2 19  1  0
  7 20  1  0
 10 21  1  0
 10 22  1  0
 13 23  1  0
 14 24  1  0
 15 25  1  0
 16 26  1  0
M  ISO  6  18  14  19  14  23  14  24  14  25  14  26  14
M  END
>  <minimizedAffinity>  (1) 
-6.00380516

>  <minimizedRMSD>  (1) 
0.933160603

$$$$
