
     RDKit          3D

 29 30  0  0  0  0  0  0  0  0999 V2000
   44.6320   35.7880   44.5420 C   0  0  0  0  0  0  0  0  0  0  0  0
   45.5900   35.1880   43.6820 C   0  0  0  0  0  0  0  0  0  0  0  0
   46.2970   34.0710   44.1570 C   0  0  0  0  0  0  0  0  0  0  0  0
   46.0170   33.6260   45.4280 N   0  0  0  0  0  0  0  0  0  0  0  0
   45.1020   34.2270   46.2010 C   0  0  0  0  0  0  0  0  0  0  0  0
   44.4310   35.2840   45.7590 N   0  0  0  0  0  0  0  0  0  0  0  0
   44.8350   33.7410   47.5260 N   0  0  0  0  0  0  0  0  0  0  0  0
   45.2840   32.4690   47.9520 C   0  0  0  0  0  0  0  0  0  0  0  0
   45.3800   31.5370   47.0610 N   0  0  0  0  0  0  0  0  0  0  0  0
   45.6140   32.2510   49.3300 N   0  0  0  0  0  0  0  0  0  0  0  0
   45.6990   30.5810   47.2680 H   0  0  0  0  0  0  0  0  0  0  0  0
   47.2770   33.3870   43.3930 N   0  0  0  0  0  0  0  0  0  0  0  0
   47.3080   31.9970   42.9910 C   0  0  0  0  0  0  0  0  0  0  0  0
   48.1140   32.0500   41.7150 C   0  0  0  0  0  0  0  0  0  0  0  0
   49.2290   33.0070   42.1130 C   0  0  0  0  0  0  0  0  0  0  0  0
   48.4710   34.0670   42.8800 C   0  0  0  0  0  0  0  0  0  0  0  0
   44.0589   36.6644   44.2051 H   0  0  0  0  0  0  0  0  0  0  0  0
   45.7730   35.5865   42.6732 H   0  0  0  0  0  0  0  0  0  0  0  0
   44.3042   34.3325   48.1812 H   0  0  0  0  0  0  0  0  0  0  0  0
   45.9410   31.3251   49.6410 H   0  0  0  0  0  0  0  0  0  0  0  0
   45.5241   33.0203   50.0090 H   0  0  0  0  0  0  0  0  0  0  0  0
   47.8036   31.3736   43.7498 H   0  0  0  0  0  0  0  0  0  0  0  0
   46.3099   31.5525   42.8638 H   0  0  0  0  0  0  0  0  0  0  0  0
   47.5202   32.4475   40.8787 H   0  0  0  0  0  0  0  0  0  0  0  0
   48.4642   31.0696   41.3597 H   0  0  0  0  0  0  0  0  0  0  0  0
   49.9753   32.5092   42.7496 H   0  0  0  0  0  0  0  0  0  0  0  0
   49.8029   33.3999   41.2608 H   0  0  0  0  0  0  0  0  0  0  0  0
   49.0812   34.4542   43.7093 H   0  0  0  0  0  0  0  0  0  0  0  0
   48.2143   34.9293   42.2471 H   0  0  0  0  0  0  0  0  0  0  0  0
  1  6  2  0
  2  3  2  0
  2  1  1  0
  3  4  1  0
  4  5  2  0
  5  7  1  0
  6  5  1  0
  7  8  1  0
  8 10  1  0
  9 11  1  0
  9  8  2  0
 12  3  1  0
 13 12  1  0
 14 15  1  0
 14 13  1  0
 15 16  1  0
 16 12  1  0
  1 17  1  0
  2 18  1  0
  7 19  1  0
 10 20  1  0
 10 21  1  0
 13 22  1  0
 13 23  1  0
 14 24  1  0
 14 25  1  0
 15 26  1  0
 15 27  1  0
 16 28  1  0
 16 29  1  0
M  ISO  8  17  14  18  14  22  13  23  13  24  13  25  13  26  13  27  13
M  ISO  2  28  13  29  13
M  END
>  <minimizedAffinity>  (1) 
-5.70328188

>  <minimizedRMSD>  (1) 
0.181731135

$$$$
