
     RDKit          3D

 30 31  0  0  0  0  0  0  0  0999 V2000
   44.6200   35.7810   44.5290 C   0  0  0  0  0  0  0  0  0  0  0  0
   45.5700   35.2070   43.6680 C   0  0  0  0  0  0  0  0  0  0  0  0
   46.2800   34.1130   44.1470 C   0  0  0  0  0  0  0  0  0  0  0  0
   46.0230   33.6560   45.4140 N   0  0  0  0  0  0  0  0  0  0  0  0
   45.1030   34.2390   46.2030 C   0  0  0  0  0  0  0  0  0  0  0  0
   44.4090   35.2970   45.7540 N   0  0  0  0  0  0  0  0  0  0  0  0
   44.8550   33.7400   47.5240 N   0  0  0  0  0  0  0  0  0  0  0  0
   45.2990   32.4660   47.9320 C   0  0  0  0  0  0  0  0  0  0  0  0
   45.3970   31.5360   47.0380 N   0  0  0  0  0  0  0  0  0  0  0  0
   45.6210   32.2470   49.3000 N   0  0  0  0  0  0  0  0  0  0  0  0
   45.7460   30.5830   47.2320 H   0  0  0  0  0  0  0  0  0  0  0  0
   47.2850   33.3710   43.4650 N   0  0  0  0  0  0  0  0  0  0  0  0
   48.5310   33.9180   42.9410 C   0  0  0  0  0  0  0  0  0  0  0  0
   48.9260   33.4150   41.6090 C   0  0  0  0  0  0  0  0  0  0  0  0
   48.5000   32.1510   41.2710 O   0  0  0  0  0  0  0  0  0  0  0  0
   47.2140   31.8540   41.6670 C   0  0  0  0  0  0  0  0  0  0  0  0
   47.2090   31.9490   43.1910 C   0  0  0  0  0  0  0  0  0  0  0  0
   44.0374   36.6485   44.1856 H   0  0  0  0  0  0  0  0  0  0  0  0
   45.7443   35.6065   42.6580 H   0  0  0  0  0  0  0  0  0  0  0  0
   44.3383   34.3285   48.1931 H   0  0  0  0  0  0  0  0  0  0  0  0
   45.9465   31.3204   49.6105 H   0  0  0  0  0  0  0  0  0  0  0  0
   45.5287   33.0150   49.9801 H   0  0  0  0  0  0  0  0  0  0  0  0
   48.4218   35.0105   42.8739 H   0  0  0  0  0  0  0  0  0  0  0  0
   49.3217   33.5982   43.6357 H   0  0  0  0  0  0  0  0  0  0  0  0
   48.5265   34.1125   40.8581 H   0  0  0  0  0  0  0  0  0  0  0  0
   50.0236   33.3497   41.6403 H   0  0  0  0  0  0  0  0  0  0  0  0
   46.5053   32.5770   41.2369 H   0  0  0  0  0  0  0  0  0  0  0  0
   46.9085   30.8541   41.3252 H   0  0  0  0  0  0  0  0  0  0  0  0
   46.2834   31.5221   43.6044 H   0  0  0  0  0  0  0  0  0  0  0  0
   48.0383   31.3894   43.6483 H   0  0  0  0  0  0  0  0  0  0  0  0
  1  6  2  0
  2  3  2  0
  2  1  1  0
  3  4  1  0
  4  5  2  0
  5  7  1  0
  6  5  1  0
  7  8  1  0
  8 10  1  0
  9 11  1  0
  9  8  2  0
 12  3  1  0
 13 12  1  0
 14 13  1  0
 15 14  1  0
 15 16  1  0
 16 17  1  0
 17 12  1  0
  1 18  1  0
  2 19  1  0
  7 20  1  0
 10 21  1  0
 10 22  1  0
 13 23  1  0
 13 24  1  0
 14 25  1  0
 14 26  1  0
 16 27  1  0
 16 28  1  0
 17 29  1  0
 17 30  1  0
M  ISO  8  18  14  19  14  23  13  24  13  25  13  26  13  27  13  28  13
M  ISO  2  29  13  30  13
M  END
>  <minimizedAffinity>  (1) 
-5.73473501

>  <minimizedRMSD>  (1) 
0.22028695

$$$$
