
     RDKit          3D

 24 25  0  0  0  0  0  0  0  0999 V2000
   44.6290   35.7720   44.5370 C   0  0  0  0  0  0  0  0  0  0  0  0
   45.5620   35.1630   43.6670 C   0  0  0  0  0  0  0  0  0  0  0  0
   46.2510   34.0580   44.1570 C   0  0  0  0  0  0  0  0  0  0  0  0
   45.9990   33.6200   45.4260 N   0  0  0  0  0  0  0  0  0  0  0  0
   45.1030   34.2290   46.2200 C   0  0  0  0  0  0  0  0  0  0  0  0
   44.4400   35.2860   45.7640 N   0  0  0  0  0  0  0  0  0  0  0  0
   44.8520   33.7590   47.5470 N   0  0  0  0  0  0  0  0  0  0  0  0
   45.2600   32.4540   47.9590 C   0  0  0  0  0  0  0  0  0  0  0  0
   45.3230   31.5280   47.0720 N   0  0  0  0  0  0  0  0  0  0  0  0
   45.5830   32.2270   49.3310 N   0  0  0  0  0  0  0  0  0  0  0  0
   45.6320   30.5610   47.2620 H   0  0  0  0  0  0  0  0  0  0  0  0
   47.2160   33.3810   43.3370 C   0  0  0  0  0  0  0  0  0  0  0  0
   48.4500   33.8340   42.9460 C   0  0  0  0  0  0  0  0  0  0  0  0
   48.9810   32.8300   42.1800 C   0  0  0  0  0  0  0  0  0  0  0  0
   48.1100   31.7960   42.0990 N   0  0  0  0  0  0  0  0  0  0  0  0
   47.0610   32.1560   42.8030 N   0  0  0  0  0  0  0  0  0  0  0  0
   44.0572   36.6495   44.2006 H   0  0  0  0  0  0  0  0  0  0  0  0
   45.7352   35.5449   42.6501 H   0  0  0  0  0  0  0  0  0  0  0  0
   44.3682   34.3729   48.2178 H   0  0  0  0  0  0  0  0  0  0  0  0
   45.8788   31.2908   49.6424 H   0  0  0  0  0  0  0  0  0  0  0  0
   45.5203   32.9994   50.0095 H   0  0  0  0  0  0  0  0  0  0  0  0
   48.9150   34.7993   43.1948 H   0  0  0  0  0  0  0  0  0  0  0  0
   49.9706   32.8593   41.7006 H   0  0  0  0  0  0  0  0  0  0  0  0
   48.2427   30.9102   41.5904 H   0  0  0  0  0  0  0  0  0  0  0  0
  1  6  2  0
  2  3  2  0
  2  1  1  0
  3  4  1  0
  4  5  2  0
  5  7  1  0
  6  5  1  0
  7  8  1  0
  8 10  1  0
  9 11  1  0
  9  8  2  0
 12  3  1  0
 13 12  1  0
 14 13  2  0
 15 14  1  0
 15 16  1  0
 16 12  2  0
  1 17  1  0
  2 18  1  0
  7 19  1  0
 10 20  1  0
 10 21  1  0
 13 22  1  0
 14 23  1  0
 15 24  1  0
M  ISO  5  17  14  18  14  22  14  23  14  24   9
M  END
>  <minimizedAffinity>  (1) 
-5.69418526

>  <minimizedRMSD>  (1) 
0.304015309

$$$$
