
     RDKit          3D

 18 18  0  0  0  0  0  0  0  0999 V2000
   44.6480   35.7890   44.5270 C   0  0  0  0  0  0  0  0  0  0  0  0
   45.5400   35.1530   43.6500 C   0  0  0  0  0  0  0  0  0  0  0  0
   46.2200   34.0080   44.1130 C   0  0  0  0  0  0  0  0  0  0  0  0
   45.9710   33.5770   45.4010 N   0  0  0  0  0  0  0  0  0  0  0  0
   45.1100   34.2210   46.1940 C   0  0  0  0  0  0  0  0  0  0  0  0
   44.4570   35.3160   45.7580 N   0  0  0  0  0  0  0  0  0  0  0  0
   44.8530   33.7700   47.5380 N   0  0  0  0  0  0  0  0  0  0  0  0
   45.2580   32.4650   47.9550 C   0  0  0  0  0  0  0  0  0  0  0  0
   45.2870   31.5370   47.0780 N   0  0  0  0  0  0  0  0  0  0  0  0
   45.6130   32.2420   49.3130 N   0  0  0  0  0  0  0  0  0  0  0  0
   45.5310   30.5540   47.2670 H   0  0  0  0  0  0  0  0  0  0  0  0
   47.1200   33.3130   43.3230 O   0  0  0  0  0  0  0  0  0  0  0  0
   44.1023   36.6848   44.1957 H   0  0  0  0  0  0  0  0  0  0  0  0
   45.7037   35.5362   42.6320 H   0  0  0  0  0  0  0  0  0  0  0  0
   44.3736   34.3933   48.2033 H   0  0  0  0  0  0  0  0  0  0  0  0
   45.9060   31.3039   49.6213 H   0  0  0  0  0  0  0  0  0  0  0  0
   45.5772   33.0184   49.9888 H   0  0  0  0  0  0  0  0  0  0  0  0
   47.5790   32.5128   43.6823 H   0  0  0  0  0  0  0  0  0  0  0  0
  1  6  2  0
  2  3  2  0
  2  1  1  0
  3  4  1  0
  4  5  2  0
  5  7  1  0
  6  5  1  0
  7  8  1  0
  8 10  1  0
  9 11  1  0
  9  8  2  0
 12  3  1  0
  1 13  1  0
  2 14  1  0
  7 15  1  0
 10 16  1  0
 10 17  1  0
 12 18  1  0
M  ISO  3  13  14  14  14  18   3
M  END
>  <minimizedAffinity>  (1) 
-5.15587568

>  <minimizedRMSD>  (1) 
0.0160708632

$$$$
