
     RDKit          3D

 26 26  0  0  0  0  0  0  0  0999 V2000
   44.6030   35.8210   44.5420 C   0  0  0  0  0  0  0  0  0  0  0  0
   45.4850   35.1840   43.6490 C   0  0  0  0  0  0  0  0  0  0  0  0
   46.1670   34.0430   44.1040 C   0  0  0  0  0  0  0  0  0  0  0  0
   45.9370   33.6130   45.3920 N   0  0  0  0  0  0  0  0  0  0  0  0
   45.0850   34.2560   46.2040 C   0  0  0  0  0  0  0  0  0  0  0  0
   44.4300   35.3450   45.7760 N   0  0  0  0  0  0  0  0  0  0  0  0
   44.8680   33.7840   47.5380 N   0  0  0  0  0  0  0  0  0  0  0  0
   45.2560   32.4810   47.9340 C   0  0  0  0  0  0  0  0  0  0  0  0
   45.2390   31.5600   47.0550 N   0  0  0  0  0  0  0  0  0  0  0  0
   45.6510   32.2300   49.2860 N   0  0  0  0  0  0  0  0  0  0  0  0
   45.4820   30.5710   47.2180 H   0  0  0  0  0  0  0  0  0  0  0  0
   47.1300   33.2550   43.2950 C   0  0  0  0  0  0  0  0  0  0  0  0
   48.3800   34.0580   42.9620 C   0  0  0  0  0  0  0  0  0  0  0  0
   47.5940   32.0150   44.0350 C   0  0  0  0  0  0  0  0  0  0  0  0
   44.0527   36.7174   44.2201 H   0  0  0  0  0  0  0  0  0  0  0  0
   45.6353   35.5668   42.6288 H   0  0  0  0  0  0  0  0  0  0  0  0
   44.4195   34.4063   48.2254 H   0  0  0  0  0  0  0  0  0  0  0  0
   45.9330   31.2817   49.5725 H   0  0  0  0  0  0  0  0  0  0  0  0
   45.6534   32.9976   49.9728 H   0  0  0  0  0  0  0  0  0  0  0  0
   46.5903   32.9832   42.3758 H   0  0  0  0  0  0  0  0  0  0  0  0
   48.8719   34.3740   43.8938 H   0  0  0  0  0  0  0  0  0  0  0  0
   49.0710   33.4344   42.3758 H   0  0  0  0  0  0  0  0  0  0  0  0
   48.1002   34.9457   42.3758 H   0  0  0  0  0  0  0  0  0  0  0  0
   47.5288   32.1891   45.1192 H   0  0  0  0  0  0  0  0  0  0  0  0
   46.9537   31.1635   43.7613 H   0  0  0  0  0  0  0  0  0  0  0  0
   48.6360   31.7931   43.7613 H   0  0  0  0  0  0  0  0  0  0  0  0
  1  6  2  0
  2  3  2  0
  2  1  1  0
  3  4  1  0
  4  5  2  0
  5  7  1  0
  6  5  1  0
  7  8  1  0
  8 10  1  0
  9 11  1  0
  9  8  2  0
 12 14  1  0
 12  3  1  0
 13 12  1  0
  1 15  1  0
  2 16  1  0
  7 17  1  0
 10 18  1  0
 10 19  1  0
 12 20  1  0
 13 21  1  0
 13 22  1  0
 13 23  1  0
 14 24  1  0
 14 25  1  0
 14 26  1  0
M  ISO  8  15  14  16  14  20   8  21   8  22   8  23   8  24   8  25   8
M  ISO  1  26   8
M  END
>  <minimizedAffinity>  (1) 
-5.47732353

>  <minimizedRMSD>  (1) 
0.13791509

$$$$
