
     RDKit          3D

 20 20  0  0  0  0  0  0  0  0999 V2000
   44.6120   35.7780   44.5560 C   0  0  0  0  0  0  0  0  0  0  0  0
   45.5650   35.2060   43.7000 C   0  0  0  0  0  0  0  0  0  0  0  0
   46.2710   34.1110   44.1870 C   0  0  0  0  0  0  0  0  0  0  0  0
   46.0120   33.6430   45.4600 N   0  0  0  0  0  0  0  0  0  0  0  0
   45.0900   34.2270   46.2370 C   0  0  0  0  0  0  0  0  0  0  0  0
   44.4040   35.2840   45.7750 N   0  0  0  0  0  0  0  0  0  0  0  0
   44.8220   33.7460   47.5500 N   0  0  0  0  0  0  0  0  0  0  0  0
   45.2740   32.4600   47.9710 C   0  0  0  0  0  0  0  0  0  0  0  0
   45.3820   31.5300   47.0790 N   0  0  0  0  0  0  0  0  0  0  0  0
   45.5930   32.2340   49.3450 N   0  0  0  0  0  0  0  0  0  0  0  0
   45.7010   30.5760   47.2670 H   0  0  0  0  0  0  0  0  0  0  0  0
   47.3020   33.3570   43.4850 C   0  0  0  0  0  0  0  0  0  0  0  0
   47.1400   32.2430   42.9090 O   0  0  0  0  0  0  0  0  0  0  0  0
   48.6170   33.7920   43.3680 O   0  0  0  0  0  0  0  0  0  0  0  0
   44.0287   36.6463   44.2156 H   0  0  0  0  0  0  0  0  0  0  0  0
   45.7455   35.6048   42.6909 H   0  0  0  0  0  0  0  0  0  0  0  0
   44.2927   34.3366   48.2072 H   0  0  0  0  0  0  0  0  0  0  0  0
   45.9196   31.3067   49.6521 H   0  0  0  0  0  0  0  0  0  0  0  0
   45.4964   32.9984   50.0286 H   0  0  0  0  0  0  0  0  0  0  0  0
   49.2791   33.2410   42.8800 H   0  0  0  0  0  0  0  0  0  0  0  0
  1  6  2  0
  2  3  2  0
  2  1  1  0
  3  4  1  0
  4  5  2  0
  5  7  1  0
  6  5  1  0
  7  8  1  0
  8 10  1  0
  9 11  1  0
  9  8  2  0
 12  3  1  0
 13 12  2  0
 14 12  1  0
  1 15  1  0
  2 16  1  0
  7 17  1  0
 10 18  1  0
 10 19  1  0
 14 20  1  0
M  ISO  3  15  14  16  14  20   3
M  END
>  <minimizedAffinity>  (1) 
-5.44029045

>  <minimizedRMSD>  (1) 
0.30280444

$$$$
