
     RDKit          3D

 20 20  0  0  0  0  0  0  0  0999 V2000
   44.6570   35.7630   44.5330 C   0  0  0  0  0  0  0  0  0  0  0  0
   45.5800   35.1290   43.6620 C   0  0  0  0  0  0  0  0  0  0  0  0
   46.2550   34.0090   44.1450 C   0  0  0  0  0  0  0  0  0  0  0  0
   45.9990   33.5770   45.4260 N   0  0  0  0  0  0  0  0  0  0  0  0
   45.1110   34.2150   46.2160 C   0  0  0  0  0  0  0  0  0  0  0  0
   44.4640   35.2830   45.7600 N   0  0  0  0  0  0  0  0  0  0  0  0
   44.8640   33.7460   47.5400 N   0  0  0  0  0  0  0  0  0  0  0  0
   45.2590   32.4470   47.9660 C   0  0  0  0  0  0  0  0  0  0  0  0
   45.3020   31.5130   47.0700 N   0  0  0  0  0  0  0  0  0  0  0  0
   45.5870   32.2320   49.3440 N   0  0  0  0  0  0  0  0  0  0  0  0
   45.5760   30.5430   47.2700 H   0  0  0  0  0  0  0  0  0  0  0  0
   47.2460   33.2740   43.3060 C   0  0  0  0  0  0  0  0  0  0  0  0
   44.1013   36.6502   44.1951 H   0  0  0  0  0  0  0  0  0  0  0  0
   45.7564   35.5068   42.6441 H   0  0  0  0  0  0  0  0  0  0  0  0
   44.3851   34.3665   48.2083 H   0  0  0  0  0  0  0  0  0  0  0  0
   45.8743   31.2965   49.6651 H   0  0  0  0  0  0  0  0  0  0  0  0
   45.5355   33.0130   50.0136 H   0  0  0  0  0  0  0  0  0  0  0  0
   47.9579   32.7460   43.9574 H   0  0  0  0  0  0  0  0  0  0  0  0
   46.7203   32.5457   42.6710 H   0  0  0  0  0  0  0  0  0  0  0  0
   47.7904   33.9885   42.6710 H   0  0  0  0  0  0  0  0  0  0  0  0
  1  6  2  0
  2  3  2  0
  2  1  1  0
  3  4  1  0
  4  5  2  0
  5  7  1  0
  6  5  1  0
  7  8  1  0
  8 10  1  0
  9 11  1  0
  9  8  2  0
 12  3  1  0
  1 13  1  0
  2 14  1  0
  7 15  1  0
 10 16  1  0
 10 17  1  0
 12 18  1  0
 12 19  1  0
 12 20  1  0
M  ISO  5  13  14  14  14  18   8  19   8  20   8
M  END
>  <minimizedAffinity>  (1) 
-5.21172333

>  <minimizedRMSD>  (1) 
0.0395304002

$$$$
