
     RDKit          3D

 24 25  0  0  0  0  0  0  0  0999 V2000
   44.6150   35.8010   44.5440 C   0  0  0  0  0  0  0  0  0  0  0  0
   45.4890   35.1780   43.6380 C   0  0  0  0  0  0  0  0  0  0  0  0
   46.1630   34.0450   44.0930 C   0  0  0  0  0  0  0  0  0  0  0  0
   45.9390   33.6080   45.3780 N   0  0  0  0  0  0  0  0  0  0  0  0
   45.0930   34.2430   46.2000 C   0  0  0  0  0  0  0  0  0  0  0  0
   44.4360   35.3330   45.7810 N   0  0  0  0  0  0  0  0  0  0  0  0
   44.8790   33.7700   47.5280 N   0  0  0  0  0  0  0  0  0  0  0  0
   45.2670   32.4690   47.9300 C   0  0  0  0  0  0  0  0  0  0  0  0
   45.2740   31.5350   47.0370 N   0  0  0  0  0  0  0  0  0  0  0  0
   45.6360   32.2310   49.2990 N   0  0  0  0  0  0  0  0  0  0  0  0
   45.5590   30.5670   47.2230 H   0  0  0  0  0  0  0  0  0  0  0  0
   47.0950   33.3320   43.2150 C   0  0  0  0  0  0  0  0  0  0  0  0
   48.4540   33.9450   43.0660 C   0  0  0  0  0  0  0  0  0  0  0  0
   47.5160   33.8220   41.9050 C   0  0  0  0  0  0  0  0  0  0  0  0
   44.0637   36.6981   44.2257 H   0  0  0  0  0  0  0  0  0  0  0  0
   45.6348   35.5651   42.6187 H   0  0  0  0  0  0  0  0  0  0  0  0
   44.4293   34.3925   48.2144 H   0  0  0  0  0  0  0  0  0  0  0  0
   45.9194   31.2874   49.5994 H   0  0  0  0  0  0  0  0  0  0  0  0
   45.6169   33.0041   49.9794 H   0  0  0  0  0  0  0  0  0  0  0  0
   46.6584   32.3711   43.5250 H   0  0  0  0  0  0  0  0  0  0  0  0
   48.6685   34.9312   43.5035 H   0  0  0  0  0  0  0  0  0  0  0  0
   49.4866   33.6323   43.2805 H   0  0  0  0  0  0  0  0  0  0  0  0
   47.0483   34.7228   41.4810 H   0  0  0  0  0  0  0  0  0  0  0  0
   47.5840   33.3802   40.8999 H   0  0  0  0  0  0  0  0  0  0  0  0
  1  6  2  0
  2  3  2  0
  2  1  1  0
  3  4  1  0
  4  5  2  0
  5  7  1  0
  6  5  1  0
  7  8  1  0
  8 10  1  0
  9 11  1  0
  9  8  2  0
 12  3  1  0
 13 12  1  0
 14 13  1  0
 14 12  1  0
  1 15  1  0
  2 16  1  0
  7 17  1  0
 10 18  1  0
 10 19  1  0
 12 20  1  0
 13 21  1  0
 13 22  1  0
 14 23  1  0
 14 24  1  0
M  ISO  7  15  14  16  14  20  13  21  13  22  13  23  13  24  13
M  END
>  <minimizedAffinity>  (1) 
-5.46210098

>  <minimizedRMSD>  (1) 
0.127681985

$$$$
