
     RDKit          3D

 23 23  0  0  0  0  0  0  0  0999 V2000
   44.6270   35.7930   44.5400 C   0  0  0  0  0  0  0  0  0  0  0  0
   45.5440   35.1810   43.6690 C   0  0  0  0  0  0  0  0  0  0  0  0
   46.2290   34.0650   44.1370 C   0  0  0  0  0  0  0  0  0  0  0  0
   45.9690   33.6280   45.4200 N   0  0  0  0  0  0  0  0  0  0  0  0
   45.0860   34.2400   46.2230 C   0  0  0  0  0  0  0  0  0  0  0  0
   44.4290   35.3120   45.7710 N   0  0  0  0  0  0  0  0  0  0  0  0
   44.8420   33.7610   47.5430 N   0  0  0  0  0  0  0  0  0  0  0  0
   45.2640   32.4750   47.9550 C   0  0  0  0  0  0  0  0  0  0  0  0
   45.3280   31.5450   47.0660 N   0  0  0  0  0  0  0  0  0  0  0  0
   45.6040   32.2280   49.3250 N   0  0  0  0  0  0  0  0  0  0  0  0
   45.6100   30.5680   47.2380 H   0  0  0  0  0  0  0  0  0  0  0  0
   47.2260   33.2830   43.3850 C   0  0  0  0  0  0  0  0  0  0  0  0
   48.2630   34.2350   42.8360 C   0  0  0  0  0  0  0  0  0  0  0  0
   44.0659   36.6778   44.2050 H   0  0  0  0  0  0  0  0  0  0  0  0
   45.7138   35.5703   42.6543 H   0  0  0  0  0  0  0  0  0  0  0  0
   44.3463   34.3659   48.2134 H   0  0  0  0  0  0  0  0  0  0  0  0
   45.9105   31.2895   49.6184 H   0  0  0  0  0  0  0  0  0  0  0  0
   45.5419   32.9890   50.0163 H   0  0  0  0  0  0  0  0  0  0  0  0
   47.7076   32.5541   44.0534 H   0  0  0  0  0  0  0  0  0  0  0  0
   46.7381   32.7399   42.5622 H   0  0  0  0  0  0  0  0  0  0  0  0
   48.7922   34.7208   43.6690 H   0  0  0  0  0  0  0  0  0  0  0  0
   48.9832   33.6770   42.2197 H   0  0  0  0  0  0  0  0  0  0  0  0
   47.7685   35.0002   42.2197 H   0  0  0  0  0  0  0  0  0  0  0  0
  1  6  2  0
  2  3  2  0
  2  1  1  0
  3  4  1  0
  4  5  2  0
  5  7  1  0
  6  5  1  0
  7  8  1  0
  8 10  1  0
  9 11  1  0
  9  8  2  0
 12  3  1  0
 13 12  1  0
  1 14  1  0
  2 15  1  0
  7 16  1  0
 10 17  1  0
 10 18  1  0
 12 19  1  0
 12 20  1  0
 13 21  1  0
 13 22  1  0
 13 23  1  0
M  ISO  7  14  14  15  14  19   8  20   8  21   8  22   8  23   8
M  END
>  <minimizedAffinity>  (1) 
-5.31024599

>  <minimizedRMSD>  (1) 
0.17760694

$$$$
