
     RDKit          3D

 22 23  0  0  0  0  0  0  0  0999 V2000
   44.6110   35.3730   45.2200 C   0  0  0  0  0  0  0  0  0  0  0  0
   45.2830   35.2540   44.0050 C   0  0  0  0  0  0  0  0  0  0  0  0
   46.2060   34.2320   43.8650 C   0  0  0  0  0  0  0  0  0  0  0  0
   46.4140   33.3900   44.9240 N   0  0  0  0  0  0  0  0  0  0  0  0
   45.7570   33.5200   46.0870 C   0  0  0  0  0  0  0  0  0  0  0  0
   44.8480   34.5220   46.2340 N   0  0  0  0  0  0  0  0  0  0  0  0
   45.9980   32.6080   47.2020 C   0  0  0  0  0  0  0  0  0  0  0  0
   44.9250   32.1880   47.9600 C   0  0  0  0  0  0  0  0  0  0  0  0
   45.0700   31.3290   49.0270 C   0  0  0  0  0  0  0  0  0  0  0  0
   46.3590   30.8940   49.3160 C   0  0  0  0  0  0  0  0  0  0  0  0
   47.4340   31.3010   48.5740 C   0  0  0  0  0  0  0  0  0  0  0  0
   47.2680   32.1620   47.5090 C   0  0  0  0  0  0  0  0  0  0  0  0
   44.9990   36.1840   42.9480 C   0  0  0  0  0  0  0  0  0  0  0  0
   45.1600   37.3960   43.1730 O   0  0  0  0  0  0  0  0  0  0  0  0
   43.8730   36.1779   45.3521 H   0  0  0  0  0  0  0  0  0  0  0  0
   46.7599   34.0995   42.9239 H   0  0  0  0  0  0  0  0  0  0  0  0
   43.9189   32.5515   47.7037 H   0  0  0  0  0  0  0  0  0  0  0  0
   44.2055   31.0019   49.6234 H   0  0  0  0  0  0  0  0  0  0  0  0
   46.5178   30.2071   50.1604 H   0  0  0  0  0  0  0  0  0  0  0  0
   48.4406   30.9381   48.8291 H   0  0  0  0  0  0  0  0  0  0  0  0
   48.1338   32.4880   46.9139 H   0  0  0  0  0  0  0  0  0  0  0  0
   44.6485   35.8334   41.9660 H   0  0  0  0  0  0  0  0  0  0  0  0
  1  6  2  0
  2  1  1  0
  3  2  2  0
  3  4  1  0
  4  5  2  0
  5  6  1  0
  5  7  1  0
  7 12  1  0
  7  8  2  0
  8  9  1  0
  9 10  2  0
 11 10  1  0
 12 11  2  0
 13 14  2  0
 13  2  1  0
  1 15  1  0
  3 16  1  0
  8 17  1  0
  9 18  1  0
 10 19  1  0
 11 20  1  0
 12 21  1  0
 13 22  1  0
M  ISO  8  15  14  16  14  17  14  18  14  19  14  20  14  21  14  22   6
M  END
>  <minimizedAffinity>  (1) 
-4.82280874

>  <minimizedRMSD>  (1) 
0.971400201

$$$$
