
     RDKit          3D

 22 23  0  0  0  0  0  0  0  0999 V2000
   44.6120   35.3800   45.2190 C   0  0  0  0  0  0  0  0  0  0  0  0
   45.2890   35.2560   44.0030 C   0  0  0  0  0  0  0  0  0  0  0  0
   46.2130   34.2150   43.8580 C   0  0  0  0  0  0  0  0  0  0  0  0
   46.4060   33.3780   44.9040 N   0  0  0  0  0  0  0  0  0  0  0  0
   45.7370   33.5230   46.0680 C   0  0  0  0  0  0  0  0  0  0  0  0
   44.8470   34.5110   46.2310 N   0  0  0  0  0  0  0  0  0  0  0  0
   45.9370   32.6270   47.1980 C   0  0  0  0  0  0  0  0  0  0  0  0
   47.2400   32.2240   47.5090 C   0  0  0  0  0  0  0  0  0  0  0  0
   47.5000   31.3650   48.5820 C   0  0  0  0  0  0  0  0  0  0  0  0
   46.4200   30.9310   49.3210 C   0  0  0  0  0  0  0  0  0  0  0  0
   45.1210   31.3030   49.0500 C   0  0  0  0  0  0  0  0  0  0  0  0
   44.9070   32.1520   47.9840 C   0  0  0  0  0  0  0  0  0  0  0  0
   45.0100   36.2030   42.9490 C   0  0  0  0  0  0  0  0  0  0  0  0
   45.1730   37.4120   43.1980 O   0  0  0  0  0  0  0  0  0  0  0  0
   43.8814   36.1909   45.3557 H   0  0  0  0  0  0  0  0  0  0  0  0
   46.7682   34.0804   42.9180 H   0  0  0  0  0  0  0  0  0  0  0  0
   48.0775   32.5902   46.8971 H   0  0  0  0  0  0  0  0  0  0  0  0
   48.5248   31.0485   48.8263 H   0  0  0  0  0  0  0  0  0  0  0  0
   46.6042   30.2545   50.1686 H   0  0  0  0  0  0  0  0  0  0  0  0
   44.2842   30.9358   49.6623 H   0  0  0  0  0  0  0  0  0  0  0  0
   43.8773   32.4618   47.7519 H   0  0  0  0  0  0  0  0  0  0  0  0
   44.6652   35.8676   41.9598 H   0  0  0  0  0  0  0  0  0  0  0  0
  1  6  2  0
  2  1  1  0
  3  2  2  0
  3  4  1  0
  4  5  2  0
  5  6  1  0
  5  7  1  0
  7  8  2  0
  7 12  1  0
  8  9  1  0
  9 10  2  0
 11 10  1  0
 12 11  2  0
 13 14  2  0
 13  2  1  0
  1 15  1  0
  3 16  1  0
  8 17  1  0
  9 18  1  0
 10 19  1  0
 11 20  1  0
 12 21  1  0
 13 22  1  0
M  ISO  8  15  14  16  14  17  14  18  14  19  14  20  14  21  14  22   6
M  END
>  <minimizedAffinity>  (1) 
-4.83371449

>  <minimizedRMSD>  (1) 
0.976711631

$$$$
