
     RDKit          3D

 26 28  0  0  0  0  0  0  0  0999 V2000
   44.9720   34.4150   44.1590 C   0  0  0  0  0  0  0  0  0  0  0  0
   44.6770   34.1230   42.8280 C   0  0  0  0  0  0  0  0  0  0  0  0
   45.1210   32.9210   42.3070 C   0  0  0  0  0  0  0  0  0  0  0  0
   45.8270   32.0770   43.1190 N   0  0  0  0  0  0  0  0  0  0  0  0
   46.1020   32.3730   44.3990 C   0  0  0  0  0  0  0  0  0  0  0  0
   45.6780   33.5340   44.9160 N   0  0  0  0  0  0  0  0  0  0  0  0
   46.8360   31.5010   45.2510 N   0  0  0  0  0  0  0  0  0  0  0  0
   47.7580   30.6680   44.6980 C   0  0  0  0  0  0  0  0  0  0  0  0
   48.3100   29.9550   45.6940 N   0  0  0  0  0  0  0  0  0  0  0  0
   47.7630   30.3110   46.8810 C   0  0  0  0  0  0  0  0  0  0  0  0
   47.9500   29.9110   48.1920 C   0  0  0  0  0  0  0  0  0  0  0  0
   48.8130   29.0190   48.3690 O   0  0  0  0  0  0  0  0  0  0  0  0
   47.1950   30.5180   49.1160 N   0  0  0  0  0  0  0  0  0  0  0  0
   46.3010   31.4650   48.7870 C   0  0  0  0  0  0  0  0  0  0  0  0
   45.5820   32.0070   49.8930 N   0  0  0  0  0  0  0  0  0  0  0  0
   46.1060   31.8680   47.5010 N   0  0  0  0  0  0  0  0  0  0  0  0
   46.8450   31.2800   46.5590 C   0  0  0  0  0  0  0  0  0  0  0  0
   43.9270   35.0790   42.0600 C   0  0  0  0  0  0  0  0  0  0  0  0
   44.2750   36.2720   42.1020 O   0  0  0  0  0  0  0  0  0  0  0  0
   44.6314   35.3639   44.5991 H   0  0  0  0  0  0  0  0  0  0  0  0
   44.9107   32.6498   41.2619 H   0  0  0  0  0  0  0  0  0  0  0  0
   48.0066   30.5919   43.6292 H   0  0  0  0  0  0  0  0  0  0  0  0
   47.3025   30.2518   50.1052 H   0  0  0  0  0  0  0  0  0  0  0  0
   44.8746   32.7395   49.7382 H   0  0  0  0  0  0  0  0  0  0  0  0
   45.7702   31.6660   50.8465 H   0  0  0  0  0  0  0  0  0  0  0  0
   43.0673   34.7633   41.4508 H   0  0  0  0  0  0  0  0  0  0  0  0
  1  6  2  0
  2  1  1  0
  3  2  2  0
  3  4  1  0
  4  5  2  0
  5  6  1  0
  5  7  1  0
  7 17  1  0
  8  7  1  0
  8  9  2  0
  9 10  1  0
 10 11  1  0
 11 12  2  0
 11 13  1  0
 14 13  1  0
 14 15  1  0
 16 14  2  0
 17 10  2  0
 17 16  1  0
 18 19  2  0
 18  2  1  0
  1 20  1  0
  3 21  1  0
  8 22  1  0
 13 23  1  0
 15 24  1  0
 15 25  1  0
 18 26  1  0
M  ISO  5  20  14  21  14  22  14  23   9  26   6
M  END
>  <minimizedAffinity>  (1) 
-4.88713455

>  <minimizedRMSD>  (1) 
1.93575227

$$$$
