
     RDKit          3D

 19 20  0  0  0  0  0  0  0  0999 V2000
   44.7790   35.0640   45.2060 C   0  0  0  0  0  0  0  0  0  0  0  0
   45.5420   34.8700   44.0550 C   0  0  0  0  0  0  0  0  0  0  0  0
   46.4960   33.8670   44.0610 C   0  0  0  0  0  0  0  0  0  0  0  0
   46.6410   33.1160   45.1970 N   0  0  0  0  0  0  0  0  0  0  0  0
   45.8990   33.3170   46.2920 C   0  0  0  0  0  0  0  0  0  0  0  0
   44.9580   34.3000   46.3010 N   0  0  0  0  0  0  0  0  0  0  0  0
   46.1750   32.4510   47.3880 N   0  0  0  0  0  0  0  0  0  0  0  0
   47.2320   31.7640   47.7840 N   0  0  0  0  0  0  0  0  0  0  0  0
   46.9400   31.0900   48.9210 C   0  0  0  0  0  0  0  0  0  0  0  0
   45.6200   31.3870   49.2370 C   0  0  0  0  0  0  0  0  0  0  0  0
   45.1640   32.2560   48.2390 C   0  0  0  0  0  0  0  0  0  0  0  0
   45.3110   35.7120   42.9140 C   0  0  0  0  0  0  0  0  0  0  0  0
   45.1710   36.9320   43.1060 O   0  0  0  0  0  0  0  0  0  0  0  0
   44.0161   35.8563   45.2201 H   0  0  0  0  0  0  0  0  0  0  0  0
   47.1215   33.6780   43.1761 H   0  0  0  0  0  0  0  0  0  0  0  0
   47.6176   30.4333   49.4862 H   0  0  0  0  0  0  0  0  0  0  0  0
   45.0477   31.0138   50.0991 H   0  0  0  0  0  0  0  0  0  0  0  0
   44.1587   32.6969   48.1685 H   0  0  0  0  0  0  0  0  0  0  0  0
   45.2595   35.2892   41.8998 H   0  0  0  0  0  0  0  0  0  0  0  0
  1  6  2  0
  2  3  2  0
  2  1  1  0
  3  4  1  0
  4  5  2  0
  5  6  1  0
  5  7  1  0
  7  8  1  0
  7 11  1  0
  8  9  2  0
  9 10  1  0
 11 10  2  0
 12 13  2  0
 12  2  1  0
  1 14  1  0
  3 15  1  0
  9 16  1  0
 10 17  1  0
 11 18  1  0
 12 19  1  0
M  ISO  6  14  14  15  14  16  14  17  14  18  14  19   6
M  END
>  <minimizedAffinity>  (1) 
-4.53467798

>  <minimizedRMSD>  (1) 
0.896100938

$$$$
