
     RDKit          3D

 20 21  0  0  0  0  0  0  0  0999 V2000
   44.6070   35.3530   45.2590 C   0  0  0  0  0  0  0  0  0  0  0  0
   45.2870   35.2000   44.0480 C   0  0  0  0  0  0  0  0  0  0  0  0
   46.2120   34.1550   43.9160 C   0  0  0  0  0  0  0  0  0  0  0  0
   46.4040   33.3300   44.9830 N   0  0  0  0  0  0  0  0  0  0  0  0
   45.7320   33.5060   46.1330 C   0  0  0  0  0  0  0  0  0  0  0  0
   44.8430   34.5040   46.2750 N   0  0  0  0  0  0  0  0  0  0  0  0
   45.9640   32.6030   47.2580 C   0  0  0  0  0  0  0  0  0  0  0  0
   47.2480   32.2370   47.6080 C   0  0  0  0  0  0  0  0  0  0  0  0
   47.3650   31.3740   48.6940 C   0  0  0  0  0  0  0  0  0  0  0  0
   46.2830   30.9230   49.3600 N   0  0  0  0  0  0  0  0  0  0  0  0
   45.0580   31.2830   49.0100 C   0  0  0  0  0  0  0  0  0  0  0  0
   44.9310   32.1090   47.9740 N   0  0  0  0  0  0  0  0  0  0  0  0
   45.0210   36.1260   42.9600 C   0  0  0  0  0  0  0  0  0  0  0  0
   45.1780   37.3500   43.2240 O   0  0  0  0  0  0  0  0  0  0  0  0
   43.8785   36.1680   45.3814 H   0  0  0  0  0  0  0  0  0  0  0  0
   46.7668   34.0054   42.9780 H   0  0  0  0  0  0  0  0  0  0  0  0
   48.1279   32.6059   47.0605 H   0  0  0  0  0  0  0  0  0  0  0  0
   48.3659   31.0518   49.0170 H   0  0  0  0  0  0  0  0  0  0  0  0
   44.1773   30.9130   49.5554 H   0  0  0  0  0  0  0  0  0  0  0  0
   44.7018   35.7806   41.9656 H   0  0  0  0  0  0  0  0  0  0  0  0
  1  6  2  0
  2  1  1  0
  3  2  2  0
  3  4  1  0
  4  5  2  0
  5  6  1  0
  5  7  1  0
  7  8  2  0
  7 12  1  0
  8  9  1  0
  9 10  2  0
 11 10  1  0
 12 11  2  0
 13 14  2  0
 13  2  1  0
  1 15  1  0
  3 16  1  0
  8 17  1  0
  9 18  1  0
 11 19  1  0
 13 20  1  0
M  ISO  6  15  14  16  14  17  14  18  14  19  14  20   6
M  END
>  <minimizedAffinity>  (1) 
-4.60339451

>  <minimizedRMSD>  (1) 
0.938680112

$$$$
