
     RDKit          3D

 19 20  0  0  0  0  0  0  0  0999 V2000
   44.6160   35.3580   45.3020 C   0  0  0  0  0  0  0  0  0  0  0  0
   45.3500   35.0710   44.1470 C   0  0  0  0  0  0  0  0  0  0  0  0
   46.1640   33.9520   44.1540 C   0  0  0  0  0  0  0  0  0  0  0  0
   46.2080   33.1950   45.2730 N   0  0  0  0  0  0  0  0  0  0  0  0
   45.5020   33.4730   46.3770 C   0  0  0  0  0  0  0  0  0  0  0  0
   44.6940   34.5670   46.3980 N   0  0  0  0  0  0  0  0  0  0  0  0
   45.6270   32.5840   47.5310 C   0  0  0  0  0  0  0  0  0  0  0  0
   46.7590   32.1230   48.1550 C   0  0  0  0  0  0  0  0  0  0  0  0
   46.3770   31.3300   49.1720 N   0  0  0  0  0  0  0  0  0  0  0  0
   45.0190   31.2930   49.1870 C   0  0  0  0  0  0  0  0  0  0  0  0
   44.5830   32.0680   48.1740 N   0  0  0  0  0  0  0  0  0  0  0  0
   45.2140   35.9590   43.0230 C   0  0  0  0  0  0  0  0  0  0  0  0
   45.1820   37.1800   43.2380 O   0  0  0  0  0  0  0  0  0  0  0  0
   43.9630   36.2430   45.3205 H   0  0  0  0  0  0  0  0  0  0  0  0
   46.7612   33.6848   43.2697 H   0  0  0  0  0  0  0  0  0  0  0  0
   47.7955   32.3601   47.8732 H   0  0  0  0  0  0  0  0  0  0  0  0
   44.3907   30.7334   49.8956 H   0  0  0  0  0  0  0  0  0  0  0  0
   43.5951   32.2348   47.9350 H   0  0  0  0  0  0  0  0  0  0  0  0
   45.1403   35.5648   41.9987 H   0  0  0  0  0  0  0  0  0  0  0  0
  1  6  2  0
  2  3  2  0
  2  1  1  0
  3  4  1  0
  4  5  2  0
  5  6  1  0
  5  7  1  0
  7  8  2  0
  7 11  1  0
  8  9  1  0
  9 10  2  0
 11 10  1  0
 12 13  2  0
 12  2  1  0
  1 14  1  0
  3 15  1  0
  8 16  1  0
 10 17  1  0
 11 18  1  0
 12 19  1  0
M  ISO  6  14  14  15  14  16  14  17  14  18   9  19   6
M  END
>  <minimizedAffinity>  (1) 
-4.6425724

>  <minimizedRMSD>  (1) 
1.31386411

$$$$
