
     RDKit          3D

 23 25  0  0  0  0  0  0  0  0999 V2000
   44.8590   34.8520   45.2910 C   0  0  0  0  0  0  0  0  0  0  0  0
   45.4370   34.9480   44.0220 C   0  0  0  0  0  0  0  0  0  0  0  0
   46.5010   34.1120   43.7010 C   0  0  0  0  0  0  0  0  0  0  0  0
   46.9230   33.2320   44.6620 N   0  0  0  0  0  0  0  0  0  0  0  0
   46.3540   33.1570   45.8720 C   0  0  0  0  0  0  0  0  0  0  0  0
   45.3280   33.9560   46.1990 N   0  0  0  0  0  0  0  0  0  0  0  0
   46.8060   32.2370   46.8580 N   0  0  0  0  0  0  0  0  0  0  0  0
   46.6580   32.4380   48.1790 C   0  0  0  0  0  0  0  0  0  0  0  0
   47.1780   31.4060   48.8520 N   0  0  0  0  0  0  0  0  0  0  0  0
   47.6620   30.5450   47.9340 C   0  0  0  0  0  0  0  0  0  0  0  0
   48.2980   29.3290   48.0520 C   0  0  0  0  0  0  0  0  0  0  0  0
   48.7020   28.6320   46.9780 N   0  0  0  0  0  0  0  0  0  0  0  0
   48.4470   29.1930   45.7610 C   0  0  0  0  0  0  0  0  0  0  0  0
   47.8200   30.3920   45.5840 N   0  0  0  0  0  0  0  0  0  0  0  0
   47.4280   31.0680   46.6780 C   0  0  0  0  0  0  0  0  0  0  0  0
   44.8900   35.9250   43.1010 C   0  0  0  0  0  0  0  0  0  0  0  0
   45.2010   37.1300   43.2980 O   0  0  0  0  0  0  0  0  0  0  0  0
   44.0168   35.5076   45.5572 H   0  0  0  0  0  0  0  0  0  0  0  0
   46.9847   34.1558   42.7140 H   0  0  0  0  0  0  0  0  0  0  0  0
   46.1816   33.3176   48.6367 H   0  0  0  0  0  0  0  0  0  0  0  0
   48.4802   28.9169   49.0555 H   0  0  0  0  0  0  0  0  0  0  0  0
   48.7677   28.6431   44.8639 H   0  0  0  0  0  0  0  0  0  0  0  0
   44.2342   35.6282   42.2692 H   0  0  0  0  0  0  0  0  0  0  0  0
  1  6  2  0
  2  1  1  0
  3  2  2  0
  3  4  1  0
  4  5  2  0
  5  6  1  0
  5  7  1  0
  7  8  1  0
  8  9  2  0
 10 11  2  0
 10  9  1  0
 12 11  1  0
 13 12  2  0
 14 13  1  0
 14 15  2  0
 15  7  1  0
 15 10  1  0
 16 17  2  0
 16  2  1  0
  1 18  1  0
  3 19  1  0
  8 20  1  0
 11 21  1  0
 13 22  1  0
 16 23  1  0
M  ISO  6  18  14  19  14  20  14  21  14  22  14  23   6
M  END
>  <minimizedAffinity>  (1) 
-4.64663029

>  <minimizedRMSD>  (1) 
0.0561668836

$$$$
