
     RDKit          3D

 18 19  0  0  0  0  0  0  0  0999 V2000
   44.7720   35.1000   45.2190 C   0  0  0  0  0  0  0  0  0  0  0  0
   45.5300   34.9030   44.0470 C   0  0  0  0  0  0  0  0  0  0  0  0
   46.4560   33.8770   44.0530 C   0  0  0  0  0  0  0  0  0  0  0  0
   46.5980   33.1100   45.1680 N   0  0  0  0  0  0  0  0  0  0  0  0
   45.8630   33.3190   46.2710 C   0  0  0  0  0  0  0  0  0  0  0  0
   44.9450   34.3200   46.2970 N   0  0  0  0  0  0  0  0  0  0  0  0
   46.0280   32.5050   47.4270 N   0  0  0  0  0  0  0  0  0  0  0  0
   47.1920   32.1010   47.9610 C   0  0  0  0  0  0  0  0  0  0  0  0
   46.9430   31.3590   49.0300 N   0  0  0  0  0  0  0  0  0  0  0  0
   45.6260   31.2820   49.1870 C   0  0  0  0  0  0  0  0  0  0  0  0
   45.0560   32.0020   48.1800 N   0  0  0  0  0  0  0  0  0  0  0  0
   45.3060   35.7680   42.9200 C   0  0  0  0  0  0  0  0  0  0  0  0
   45.1610   36.9890   43.1410 O   0  0  0  0  0  0  0  0  0  0  0  0
   44.0255   35.9074   45.2504 H   0  0  0  0  0  0  0  0  0  0  0  0
   47.0732   33.6820   43.1636 H   0  0  0  0  0  0  0  0  0  0  0  0
   48.1916   32.3467   47.5732 H   0  0  0  0  0  0  0  0  0  0  0  0
   45.0945   30.7383   49.9819 H   0  0  0  0  0  0  0  0  0  0  0  0
   45.2637   35.3674   41.8964 H   0  0  0  0  0  0  0  0  0  0  0  0
  1  6  2  0
  2  3  2  0
  2  1  1  0
  3  4  1  0
  4  5  2  0
  5  6  1  0
  5  7  1  0
  7  8  1  0
  7 11  1  0
  8  9  2  0
  9 10  1  0
 11 10  2  0
 12 13  2  0
 12  2  1  0
  1 14  1  0
  3 15  1  0
  8 16  1  0
 10 17  1  0
 12 18  1  0
M  ISO  5  14  14  15  14  16  14  17  14  18   6
M  END
>  <minimizedAffinity>  (1) 
-4.46242285

>  <minimizedRMSD>  (1) 
0.8961941

$$$$
