
     RDKit          3D

 24 25  0  0  0  0  0  0  0  0999 V2000
   45.0330   34.7900   45.2090 C   0  0  0  0  0  0  0  0  0  0  0  0
   45.8390   34.6180   44.0740 C   0  0  0  0  0  0  0  0  0  0  0  0
   46.7540   33.5820   44.0800 C   0  0  0  0  0  0  0  0  0  0  0  0
   46.8410   32.7690   45.1810 N   0  0  0  0  0  0  0  0  0  0  0  0
   46.0550   32.9630   46.2460 C   0  0  0  0  0  0  0  0  0  0  0  0
   45.1620   33.9600   46.2620 N   0  0  0  0  0  0  0  0  0  0  0  0
   46.1660   32.1060   47.3760 N   0  0  0  0  0  0  0  0  0  0  0  0
   46.5580   30.7090   47.3940 C   0  0  0  0  0  0  0  0  0  0  0  0
   45.4810   30.1210   48.3020 C   0  0  0  0  0  0  0  0  0  0  0  0
   45.0310   31.2610   49.1710 C   0  0  0  0  0  0  0  0  0  0  0  0
   45.9080   32.4500   48.7610 C   0  0  0  0  0  0  0  0  0  0  0  0
   45.6750   35.5250   42.9620 C   0  0  0  0  0  0  0  0  0  0  0  0
   45.1800   36.6420   43.1890 O   0  0  0  0  0  0  0  0  0  0  0  0
   44.2941   35.6043   45.2392 H   0  0  0  0  0  0  0  0  0  0  0  0
   47.4058   33.4114   43.2105 H   0  0  0  0  0  0  0  0  0  0  0  0
   46.5249   30.2663   46.3876 H   0  0  0  0  0  0  0  0  0  0  0  0
   47.5884   30.5296   47.7347 H   0  0  0  0  0  0  0  0  0  0  0  0
   44.6410   29.7366   47.7048 H   0  0  0  0  0  0  0  0  0  0  0  0
   45.8609   29.2769   48.8962 H   0  0  0  0  0  0  0  0  0  0  0  0
   43.9690   31.4857   48.9931 H   0  0  0  0  0  0  0  0  0  0  0  0
   45.1308   31.0264   50.2410 H   0  0  0  0  0  0  0  0  0  0  0  0
   46.8358   32.4954   49.3501 H   0  0  0  0  0  0  0  0  0  0  0  0
   45.4507   33.4384   48.9157 H   0  0  0  0  0  0  0  0  0  0  0  0
   45.9790   35.2358   41.9452 H   0  0  0  0  0  0  0  0  0  0  0  0
  1  6  2  0
  2  3  2  0
  2  1  1  0
  3  4  1  0
  4  5  2  0
  5  6  1  0
  5  7  1  0
  7  8  1  0
  7 11  1  0
  8  9  1  0
  9 10  1  0
 11 10  1  0
 12 13  2  0
 12  2  1  0
  1 14  1  0
  3 15  1  0
  8 16  1  0
  8 17  1  0
  9 18  1  0
  9 19  1  0
 10 20  1  0
 10 21  1  0
 11 22  1  0
 11 23  1  0
 12 24  1  0
M  ISO  8  14  14  15  14  16  13  17  13  18  13  19  13  20  13  21  13
M  ISO  3  22  13  23  13  24   6
M  END
>  <minimizedAffinity>  (1) 
-4.51420879

>  <minimizedRMSD>  (1) 
0.848918974

$$$$
