
     RDKit          3D

 24 24  0  0  0  0  0  0  0  0999 V2000
   45.0650   34.7690   45.1300 C   0  0  0  0  0  0  0  0  0  0  0  0
   45.8530   34.6640   43.9870 C   0  0  0  0  0  0  0  0  0  0  0  0
   46.8160   33.6570   43.9570 C   0  0  0  0  0  0  0  0  0  0  0  0
   46.9240   32.8440   45.0430 N   0  0  0  0  0  0  0  0  0  0  0  0
   46.1540   32.9630   46.1320 C   0  0  0  0  0  0  0  0  0  0  0  0
   45.2100   33.9390   46.1800 N   0  0  0  0  0  0  0  0  0  0  0  0
   46.3290   32.0420   47.2750 C   0  0  0  0  0  0  0  0  0  0  0  0
   46.4350   30.6170   46.7690 C   0  0  0  0  0  0  0  0  0  0  0  0
   45.1660   32.2180   48.2030 C   0  0  0  0  0  0  0  0  0  0  0  0
   47.5880   32.3910   48.0430 C   0  0  0  0  0  0  0  0  0  0  0  0
   45.6310   35.5960   42.9050 C   0  0  0  0  0  0  0  0  0  0  0  0
   45.1790   36.7240   43.2140 O   0  0  0  0  0  0  0  0  0  0  0  0
   44.2983   35.5564   45.1767 H   0  0  0  0  0  0  0  0  0  0  0  0
   47.4690   33.5234   43.0820 H   0  0  0  0  0  0  0  0  0  0  0  0
   46.4863   29.9271   47.6242 H   0  0  0  0  0  0  0  0  0  0  0  0
   45.5521   30.3783   46.1578 H   0  0  0  0  0  0  0  0  0  0  0  0
   47.3435   30.5116   46.1578 H   0  0  0  0  0  0  0  0  0  0  0  0
   45.5165   32.1650   49.2443 H   0  0  0  0  0  0  0  0  0  0  0  0
   44.6982   33.1972   48.0230 H   0  0  0  0  0  0  0  0  0  0  0  0
   44.4294   31.4211   48.0230 H   0  0  0  0  0  0  0  0  0  0  0  0
   47.3861   32.3350   49.1229 H   0  0  0  0  0  0  0  0  0  0  0  0
   48.3858   31.6801   47.7818 H   0  0  0  0  0  0  0  0  0  0  0  0
   47.9059   33.4111   47.7818 H   0  0  0  0  0  0  0  0  0  0  0  0
   45.8482   35.3286   41.8603 H   0  0  0  0  0  0  0  0  0  0  0  0
  1  6  2  0
  2  1  1  0
  3  2  2  0
  3  4  1  0
  4  5  2  0
  5  6  1  0
  5  7  1  0
  7 10  1  0
  7  9  1  0
  8  7  1  0
 11 12  2  0
 11  2  1  0
  1 13  1  0
  3 14  1  0
  8 15  1  0
  8 16  1  0
  8 17  1  0
  9 18  1  0
  9 19  1  0
  9 20  1  0
 10 21  1  0
 10 22  1  0
 10 23  1  0
 11 24  1  0
M  ISO  8  13  14  14  14  15   8  16   8  17   8  18   8  19   8  20   8
M  ISO  4  21   8  22   8  23   8  24   6
M  END
>  <minimizedAffinity>  (1) 
-3.92629194

>  <minimizedRMSD>  (1) 
0.616415203

$$$$
