
     RDKit          3D

 46 49  0  0  1  0  0  0  0  0999 V2000
   47.9020   34.8930   41.4370 N   0  0  0  0  0  0  0  0  0  0  0  0
   49.1470   35.3620   41.9300 C   0  0  0  0  0  0  0  0  0  0  0  0
   50.1320   34.3160   42.3020 C   0  0  0  0  0  0  0  0  0  0  0  0
   49.3990   33.3060   42.9520 O   0  0  0  0  0  0  0  0  0  0  0  0
   48.7690   32.6420   41.9130 C   0  0  0  0  0  0  0  0  0  0  0  0
   47.8510   33.5150   41.0800 C   0  0  2  0  0  0  0  0  0  0  0  0
   48.3190   33.4460   39.6670 C   0  0  0  0  0  0  0  0  0  0  0  0
   48.0920   34.4880   38.8110 N   0  0  0  0  0  0  0  0  0  0  0  0
   48.4860   34.4750   37.5260 C   0  0  0  0  0  0  0  0  0  0  0  0
   49.1270   33.4490   36.9800 N   0  0  0  0  0  0  0  0  0  0  0  0
   49.3810   32.3950   37.7670 C   0  0  0  0  0  0  0  0  0  0  0  0
   50.0530   31.2830   37.2660 C   0  0  0  0  0  0  0  0  0  0  0  0
   50.3350   30.1710   38.0560 C   0  0  0  0  0  0  0  0  0  0  0  0
   49.9250   30.1940   39.3870 C   0  0  0  0  0  0  0  0  0  0  0  0
   49.2620   31.3090   39.8520 C   0  0  0  0  0  0  0  0  0  0  0  0
   48.9870   32.3910   39.0810 C   0  0  0  0  0  0  0  0  0  0  0  0
   46.8270   35.4710   42.1420 C   0  0  0  0  0  0  0  0  0  0  0  0
   45.6120   34.6060   42.3550 C   0  0  1  0  0  0  0  0  0  0  0  0
   44.6610   35.4360   44.5700 C   0  0  0  0  0  0  0  0  0  0  0  0
   45.3950   34.4790   43.8020 C   0  0  0  0  0  0  0  0  0  0  0  0
   45.9190   33.3880   44.5100 C   0  0  0  0  0  0  0  0  0  0  0  0
   45.6910   33.3250   45.8480 N   0  0  0  0  0  0  0  0  0  0  0  0
   45.0030   34.2280   46.5430 C   0  0  0  0  0  0  0  0  0  0  0  0
   44.4840   35.2960   45.8870 N   0  0  0  0  0  0  0  0  0  0  0  0
   44.4040   35.1260   41.6750 C   0  0  0  0  0  0  0  0  0  0  0  0
   49.6021   35.9920   41.1516 H   0  0  0  0  0  0  0  0  0  0  0  0
   48.9154   35.8980   42.8622 H   0  0  0  0  0  0  0  0  0  0  0  0
   50.6211   33.9144   41.4023 H   0  0  0  0  0  0  0  0  0  0  0  0
   50.9232   34.7203   42.9506 H   0  0  0  0  0  0  0  0  0  0  0  0
   49.5425   32.2255   41.2510 H   0  0  0  0  0  0  0  0  0  0  0  0
   48.1365   31.8676   42.3717 H   0  0  0  0  0  0  0  0  0  0  0  0
   46.8273   33.1450   41.2388 H   0  0  0  0  0  0  0  0  0  0  0  0
   48.2678   35.3526   36.8998 H   0  0  0  0  0  0  0  0  0  0  0  0
   50.3712   31.2828   36.2130 H   0  0  0  0  0  0  0  0  0  0  0  0
   50.8654   29.3011   37.6414 H   0  0  0  0  0  0  0  0  0  0  0  0
   50.1260   29.3412   40.0521 H   0  0  0  0  0  0  0  0  0  0  0  0
   48.9388   31.3225   40.9034 H   0  0  0  0  0  0  0  0  0  0  0  0
   47.2007   35.7699   43.1325 H   0  0  0  0  0  0  0  0  0  0  0  0
   46.4817   36.3024   41.5100 H   0  0  0  0  0  0  0  0  0  0  0  0
   45.7967   33.6203   41.9031 H   0  0  0  0  0  0  0  0  0  0  0  0
   44.2301   36.3117   44.0626 H   0  0  0  0  0  0  0  0  0  0  0  0
   46.4979   32.6058   43.9971 H   0  0  0  0  0  0  0  0  0  0  0  0
   44.8582   34.1106   47.6271 H   0  0  0  0  0  0  0  0  0  0  0  0
   43.6673   35.4431   42.4278 H   0  0  0  0  0  0  0  0  0  0  0  0
   44.6787   35.9856   41.0460 H   0  0  0  0  0  0  0  0  0  0  0  0
   43.9685   34.3357   41.0460 H   0  0  0  0  0  0  0  0  0  0  0  0
  1  2  1  0
  1 17  1  0
  2  3  1  0
  3  4  1  0
  5  4  1  0
  6  1  1  0
  6  5  1  0
  7  6  1  0
  8  7  2  0
  9  8  1  0
 10  9  2  0
 10 11  1  0
 11 16  2  0
 12 11  1  0
 12 13  2  0
 13 14  1  0
 14 15  2  0
 16  7  1  0
 16 15  1  0
 17 18  1  0
 18 20  1  0
 19 24  2  0
 20 21  2  0
 20 19  1  0
 21 22  1  0
 22 23  2  0
 24 23  1  0
 25 18  1  0
  2 26  1  0
  2 27  1  0
  3 28  1  0
  3 29  1  0
  5 30  1  0
  5 31  1  0
  6 32  1  6
  9 33  1  0
 12 34  1  0
 13 35  1  0
 14 36  1  0
 15 37  1  0
 17 38  1  0
 17 39  1  0
 18 40  1  6
 19 41  1  0
 21 42  1  0
 23 43  1  0
 25 44  1  0
 25 45  1  0
 25 46  1  0
M  ISO  8  26  13  27  13  28  13  29  13  30  13  31  13  32  13  33  14
M  ISO  8  34  14  35  14  36  14  37  14  38   8  39   8  40   8  41  14
M  ISO  5  42  14  43  14  44   8  45   8  46   8
M  END
>  <minimizedAffinity>  (1) 
-5.45909071

>  <minimizedRMSD>  (1) 
1.35211563

$$$$
