
     RDKit          3D

 25 26  0  0  0  0  0  0  0  0999 V2000
   45.2120   34.4350   45.1920 C   0  0  0  0  0  0  0  0  0  0  0  0
   45.9600   34.5000   44.0030 C   0  0  0  0  0  0  0  0  0  0  0  0
   46.9780   33.5630   43.7780 C   0  0  0  0  0  0  0  0  0  0  0  0
   47.1880   32.6280   44.7390 N   0  0  0  0  0  0  0  0  0  0  0  0
   46.4620   32.5830   45.8660 C   0  0  0  0  0  0  0  0  0  0  0  0
   45.4770   33.4790   46.0980 N   0  0  0  0  0  0  0  0  0  0  0  0
   46.7300   31.5270   46.9050 C   0  0  0  0  0  0  0  0  0  0  0  0
   47.1970   32.3030   48.1340 C   0  0  0  0  0  0  0  0  0  0  0  0
   45.9160   32.3830   48.9310 C   0  0  0  0  0  0  0  0  0  0  0  0
   45.4670   30.9200   48.8340 C   0  0  0  0  0  0  0  0  0  0  0  0
   45.5200   30.7680   47.3110 C   0  0  0  0  0  0  0  0  0  0  0  0
   45.6560   35.5450   43.0330 C   0  0  0  0  0  0  0  0  0  0  0  0
   45.0900   36.5750   43.4960 O   0  0  0  0  0  0  0  0  0  0  0  0
   44.4114   35.1655   45.3799 H   0  0  0  0  0  0  0  0  0  0  0  0
   47.5825   33.5847   42.8592 H   0  0  0  0  0  0  0  0  0  0  0  0
   47.4470   30.7979   46.4997 H   0  0  0  0  0  0  0  0  0  0  0  0
   47.9799   31.7581   48.6819 H   0  0  0  0  0  0  0  0  0  0  0  0
   47.6509   33.2791   47.9075 H   0  0  0  0  0  0  0  0  0  0  0  0
   46.0985   32.6882   49.9719 H   0  0  0  0  0  0  0  0  0  0  0  0
   45.1854   33.1222   48.5708 H   0  0  0  0  0  0  0  0  0  0  0  0
   46.1636   30.2378   49.3433 H   0  0  0  0  0  0  0  0  0  0  0  0
   44.5012   30.6841   49.3047 H   0  0  0  0  0  0  0  0  0  0  0  0
   44.6190   31.1944   46.8458 H   0  0  0  0  0  0  0  0  0  0  0  0
   45.5610   29.7148   46.9963 H   0  0  0  0  0  0  0  0  0  0  0  0
   45.9037   35.4431   41.9661 H   0  0  0  0  0  0  0  0  0  0  0  0
  1  6  2  0
  2  1  1  0
  3  2  2  0
  3  4  1  0
  4  5  2  0
  5  6  1  0
  5  7  1  0
  7 11  1  0
  7  8  1  0
  8  9  1  0
 10  9  1  0
 11 10  1  0
 12 13  2  0
 12  2  1  0
  1 14  1  0
  3 15  1  0
  7 16  1  0
  8 17  1  0
  8 18  1  0
  9 19  1  0
  9 20  1  0
 10 21  1  0
 10 22  1  0
 11 23  1  0
 11 24  1  0
 12 25  1  0
M  ISO  8  14  14  15  14  16  13  17  13  18  13  19  13  20  13  21  13
M  ISO  4  22  13  23  13  24  13  25   6
M  END
>  <minimizedAffinity>  (1) 
-4.29876757

>  <minimizedRMSD>  (1) 
0.636263907

$$$$
