
     RDKit          3D

 40 43  0  0  1  0  0  0  0  0999 V2000
   45.9050   30.7600   47.3510 C   0  0  2  0  0  0  0  0  0  0  0  0
   44.7360   34.6990   46.2130 C   0  0  0  0  0  0  0  0  0  0  0  0
   44.6080   35.4040   45.0220 C   0  0  0  0  0  0  0  0  0  0  0  0
   45.2160   34.8830   43.8700 C   0  0  0  0  0  0  0  0  0  0  0  0
   45.8970   33.7210   43.9660 N   0  0  0  0  0  0  0  0  0  0  0  0
   46.0140   33.0370   45.1460 C   0  0  0  0  0  0  0  0  0  0  0  0
   45.4310   33.5410   46.2440 N   0  0  0  0  0  0  0  0  0  0  0  0
   46.7250   31.8290   45.2730 N   0  0  0  0  0  0  0  0  0  0  0  0
   47.6220   31.5650   44.2830 C   0  0  0  0  0  0  0  0  0  0  0  0
   48.2050   30.3280   44.6330 C   0  0  0  0  0  0  0  0  0  0  0  0
   47.6400   29.9070   45.8010 N   0  0  0  0  0  0  0  0  0  0  0  0
   46.7440   30.8340   46.1710 C   0  0  0  0  0  0  0  0  0  0  0  0
   46.6710   31.5260   48.4740 C   0  0  0  0  0  0  0  0  0  0  0  0
   45.7480   29.3490   47.8370 C   0  0  0  0  0  0  0  0  0  0  0  0
   44.7920   28.5920   47.1140 N   0  0  0  0  0  0  0  0  0  0  0  0
   44.1790   29.0070   45.9810 N   0  0  0  0  0  0  0  0  0  0  0  0
   43.3350   28.0220   45.5880 C   0  0  0  0  0  0  0  0  0  0  0  0
   43.4060   26.9650   46.4740 C   0  0  0  0  0  0  0  0  0  0  0  0
   44.3440   27.3580   47.4340 C   0  0  0  0  0  0  0  0  0  0  0  0
   44.6890   26.4880   48.5470 C   0  0  0  0  0  0  0  0  0  0  0  0
   45.6280   25.4890   48.6750 C   0  0  0  0  0  0  0  0  0  0  0  0
   45.5880   24.9310   49.9370 C   0  0  0  0  0  0  0  0  0  0  0  0
   44.6030   25.6170   50.5690 N   0  0  0  0  0  0  0  0  0  0  0  0
   44.0900   26.5180   49.7500 N   0  0  0  0  0  0  0  0  0  0  0  0
   44.9120   31.1699   47.1147 H   0  0  0  0  0  0  0  0  0  0  0  0
   44.2705   35.0847   47.1320 H   0  0  0  0  0  0  0  0  0  0  0  0
   44.0437   36.3475   44.9836 H   0  0  0  0  0  0  0  0  0  0  0  0
   45.1395   35.4106   42.9078 H   0  0  0  0  0  0  0  0  0  0  0  0
   47.8444   32.1828   43.4005 H   0  0  0  0  0  0  0  0  0  0  0  0
   48.9805   29.7958   44.0627 H   0  0  0  0  0  0  0  0  0  0  0  0
   46.3232   31.1782   49.4579 H   0  0  0  0  0  0  0  0  0  0  0  0
   47.7500   31.3348   48.3779 H   0  0  0  0  0  0  0  0  0  0  0  0
   46.4798   32.6050   48.3779 H   0  0  0  0  0  0  0  0  0  0  0  0
   46.7221   28.8447   47.7548 H   0  0  0  0  0  0  0  0  0  0  0  0
   45.3874   29.4086   48.8745 H   0  0  0  0  0  0  0  0  0  0  0  0
   42.6905   28.0589   44.6974 H   0  0  0  0  0  0  0  0  0  0  0  0
   42.8461   26.0190   46.4334 H   0  0  0  0  0  0  0  0  0  0  0  0
   46.3184   25.1770   47.8775 H   0  0  0  0  0  0  0  0  0  0  0  0
   46.2110   24.1178   50.3377 H   0  0  0  0  0  0  0  0  0  0  0  0
   44.3006   25.4592   51.5409 H   0  0  0  0  0  0  0  0  0  0  0  0
  1 14  1  0
  1 13  1  0
  2  7  2  0
  3  2  1  0
  4  5  1  0
  4  3  2  0
  5  6  2  0
  6  8  1  0
  6  7  1  0
  8 12  1  0
  9 10  2  0
  9  8  1  0
 10 11  1  0
 11 12  2  0
 12  1  1  0
 15 19  1  0
 15 14  1  0
 16 15  1  0
 17 16  2  0
 17 18  1  0
 18 19  2  0
 19 20  1  0
 20 21  1  0
 20 24  2  0
 21 22  2  0
 22 23  1  0
 24 23  1  0
  1 25  1  6
  2 26  1  0
  3 27  1  0
  4 28  1  0
  9 29  1  0
 10 30  1  0
 13 31  1  0
 13 32  1  0
 13 33  1  0
 14 34  1  0
 14 35  1  0
 17 36  1  0
 18 37  1  0
 21 38  1  0
 22 39  1  0
 23 40  1  0
M  ISO  8  25   8  26  14  27  14  28  14  29  14  30  14  31   8  32   8
M  ISO  8  33   8  34   8  35   8  36  14  37  14  38  14  39  14  40   9
M  END
>  <minimizedAffinity>  (1) 
-5.42856264

>  <minimizedRMSD>  (1) 
1.31231296

$$$$
