
     RDKit          3D

 19 20  0  0  0  0  0  0  0  0999 V2000
   44.9670   34.8530   45.1520 C   0  0  0  0  0  0  0  0  0  0  0  0
   45.6630   34.8560   43.9450 C   0  0  0  0  0  0  0  0  0  0  0  0
   46.6630   33.9140   43.7730 C   0  0  0  0  0  0  0  0  0  0  0  0
   46.9240   33.0360   44.7720 N   0  0  0  0  0  0  0  0  0  0  0  0
   46.2460   33.0430   45.9300 C   0  0  0  0  0  0  0  0  0  0  0  0
   45.2680   33.9500   46.1220 N   0  0  0  0  0  0  0  0  0  0  0  0
   45.3080   35.8280   42.9510 C   0  0  0  0  0  0  0  0  0  0  0  0
   45.1840   37.0130   43.3050 O   0  0  0  0  0  0  0  0  0  0  0  0
   46.6030   32.0400   46.9700 C   0  0  0  0  0  0  0  0  0  0  0  0
   47.5230   32.3770   48.0700 C   0  0  0  0  0  0  0  0  0  0  0  0
   46.0400   32.3850   48.3410 C   0  0  0  0  0  0  0  0  0  0  0  0
   44.1666   35.5883   45.3213 H   0  0  0  0  0  0  0  0  0  0  0  0
   47.2389   33.8786   42.8365 H   0  0  0  0  0  0  0  0  0  0  0  0
   45.1498   35.5323   41.9034 H   0  0  0  0  0  0  0  0  0  0  0  0
   46.5920   31.1978   46.2624 H   0  0  0  0  0  0  0  0  0  0  0  0
   48.1549   31.5931   48.5130 H   0  0  0  0  0  0  0  0  0  0  0  0
   48.3328   33.1103   48.1987 H   0  0  0  0  0  0  0  0  0  0  0  0
   45.5101   33.3357   48.5001 H   0  0  0  0  0  0  0  0  0  0  0  0
   45.3679   31.8976   49.0626 H   0  0  0  0  0  0  0  0  0  0  0  0
  1  6  2  0
  2  1  1  0
  3  2  2  0
  3  4  1  0
  4  5  2  0
  5  6  1  0
  5  9  1  0
  7  8  2  0
  7  2  1  0
  9 10  1  0
  9 11  1  0
 10 11  1  0
  1 12  1  0
  3 13  1  0
  7 14  1  0
  9 15  1  0
 10 16  1  0
 10 17  1  0
 11 18  1  0
 11 19  1  0
M  ISO  8  12  14  13  14  14   6  15  13  16  13  17  13  18  13  19  13
M  END
>  <minimizedAffinity>  (1) 
-3.71253204

>  <minimizedRMSD>  (1) 
0.535962105

$$$$
