
     RDKit          3D

 15 15  0  0  0  0  0  0  0  0999 V2000
   44.5900   35.4050   45.2300 C   0  0  0  0  0  0  0  0  0  0  0  0
   45.2880   35.2250   44.0190 C   0  0  0  0  0  0  0  0  0  0  0  0
   46.1910   34.1600   43.9080 C   0  0  0  0  0  0  0  0  0  0  0  0
   46.3480   33.3460   44.9860 N   0  0  0  0  0  0  0  0  0  0  0  0
   45.6700   33.5420   46.1240 C   0  0  0  0  0  0  0  0  0  0  0  0
   44.8010   34.5530   46.2600 N   0  0  0  0  0  0  0  0  0  0  0  0
   45.9690   32.5590   47.1890 C   0  0  0  0  0  0  0  0  0  0  0  0
   45.7320   31.2740   46.7340 F   0  0  0  0  0  0  0  0  0  0  0  0
   45.3020   32.8310   48.3600 F   0  0  0  0  0  0  0  0  0  0  0  0
   47.3310   32.5650   47.5230 F   0  0  0  0  0  0  0  0  0  0  0  0
   45.0310   36.1670   42.9370 C   0  0  0  0  0  0  0  0  0  0  0  0
   45.1810   37.3830   43.2190 O   0  0  0  0  0  0  0  0  0  0  0  0
   43.8763   36.2351   45.3376 H   0  0  0  0  0  0  0  0  0  0  0  0
   46.7547   33.9877   42.9793 H   0  0  0  0  0  0  0  0  0  0  0  0
   44.7244   35.8342   41.9344 H   0  0  0  0  0  0  0  0  0  0  0  0
  1  6  2  0
  2  1  1  0
  3  2  2  0
  3  4  1  0
  4  5  2  0
  5  6  1  0
  5  7  1  0
  7 10  1  0
  7  9  1  0
  8  7  1  0
 11 12  2  0
 11  2  1  0
  1 13  1  0
  3 14  1  0
 11 15  1  0
M  ISO  3  13  14  14  14  15   6
M  END
>  <minimizedAffinity>  (1) 
-3.89759398

>  <minimizedRMSD>  (1) 
0.831767142

$$$$
