
     RDKit          3D

 33 36  0  0  0  0  0  0  0  0999 V2000
   44.8090   34.8000   44.7850 C   0  0  0  0  0  0  0  0  0  0  0  0
   45.3340   34.3260   43.6000 C   0  0  0  0  0  0  0  0  0  0  0  0
   46.2170   33.2400   43.6720 C   0  0  0  0  0  0  0  0  0  0  0  0
   46.4950   32.7300   44.8940 N   0  0  0  0  0  0  0  0  0  0  0  0
   45.9760   33.2010   46.0220 C   0  0  0  0  0  0  0  0  0  0  0  0
   45.1120   34.2590   46.0010 N   0  0  0  0  0  0  0  0  0  0  0  0
   46.3780   32.5030   47.2040 N   0  0  0  0  0  0  0  0  0  0  0  0
   47.4140   31.7980   47.5800 N   0  0  0  0  0  0  0  0  0  0  0  0
   47.2320   31.3620   48.8540 C   0  0  0  0  0  0  0  0  0  0  0  0
   46.0100   31.8300   49.2800 C   0  0  0  0  0  0  0  0  0  0  0  0
   45.4870   32.5520   48.2120 C   0  0  0  0  0  0  0  0  0  0  0  0
   44.8780   34.9970   42.4200 C   0  0  0  0  0  0  0  0  0  0  0  0
   44.9840   36.2610   42.4010 O   0  0  0  0  0  0  0  0  0  0  0  0
   44.2910   34.6080   41.1440 C   0  0  0  0  0  0  0  0  0  0  0  0
   45.0380   33.9080   40.2790 N   0  0  0  0  0  0  0  0  0  0  0  0
   44.5720   33.5040   39.0670 C   0  0  0  0  0  0  0  0  0  0  0  0
   43.3210   33.7930   38.6740 N   0  0  0  0  0  0  0  0  0  0  0  0
   42.5010   34.4950   39.4790 C   0  0  0  0  0  0  0  0  0  0  0  0
   41.2200   34.8190   39.0900 C   0  0  0  0  0  0  0  0  0  0  0  0
   40.3920   35.5540   39.9080 C   0  0  0  0  0  0  0  0  0  0  0  0
   40.9120   35.9500   41.1400 C   0  0  0  0  0  0  0  0  0  0  0  0
   42.1800   35.6020   41.4730 C   0  0  0  0  0  0  0  0  0  0  0  0
   43.0350   34.8720   40.6900 C   0  0  0  0  0  0  0  0  0  0  0  0
   44.1148   35.6525   44.7479 H   0  0  0  0  0  0  0  0  0  0  0  0
   46.6697   32.8157   42.7637 H   0  0  0  0  0  0  0  0  0  0  0  0
   47.9330   30.7475   49.4379 H   0  0  0  0  0  0  0  0  0  0  0  0
   45.5430   31.6668   50.2625 H   0  0  0  0  0  0  0  0  0  0  0  0
   44.5173   33.0710   48.1943 H   0  0  0  0  0  0  0  0  0  0  0  0
   45.2306   32.9311   38.3977 H   0  0  0  0  0  0  0  0  0  0  0  0
   40.8523   34.4846   38.1087 H   0  0  0  0  0  0  0  0  0  0  0  0
   39.3680   35.8167   39.6041 H   0  0  0  0  0  0  0  0  0  0  0  0
   40.2984   36.5402   41.8365 H   0  0  0  0  0  0  0  0  0  0  0  0
   42.5529   35.9335   42.4533 H   0  0  0  0  0  0  0  0  0  0  0  0
  1  6  2  0
  2  3  2  0
  2  1  1  0
  3  4  1  0
  4  5  2  0
  5  7  1  0
  6  5  1  0
  7  8  1  0
  7 11  1  0
  8  9  2  0
  9 10  1  0
 11 10  2  0
 12  2  1  0
 13 12  2  0
 14 12  1  0
 15 14  2  0
 16 15  1  0
 17 16  2  0
 17 18  1  0
 18 23  2  0
 19 18  1  0
 19 20  2  0
 20 21  1  0
 21 22  2  0
 23 14  1  0
 23 22  1  0
  1 24  1  0
  3 25  1  0
  9 26  1  0
 10 27  1  0
 11 28  1  0
 16 29  1  0
 19 30  1  0
 20 31  1  0
 21 32  1  0
 22 33  1  0
M  ISO  8  24  14  25  14  26  14  27  14  28  14  29  14  30  14  31  14
M  ISO  2  32  14  33  14
M  END
>  <minimizedAffinity>  (1) 
-6.48356104

>  <minimizedRMSD>  (1) 
1.11068392

$$$$
