
     RDKit          3D

 26 28  0  0  0  0  0  0  0  0999 V2000
   44.7080   35.0430   45.3510 C   0  0  0  0  0  0  0  0  0  0  0  0
   45.4130   34.8830   44.1730 C   0  0  0  0  0  0  0  0  0  0  0  0
   46.3850   33.9200   44.1280 C   0  0  0  0  0  0  0  0  0  0  0  0
   46.6130   33.1630   45.2450 N   0  0  0  0  0  0  0  0  0  0  0  0
   45.9110   33.3380   46.3820 C   0  0  0  0  0  0  0  0  0  0  0  0
   44.9460   34.2840   46.4510 N   0  0  0  0  0  0  0  0  0  0  0  0
   46.2750   32.4450   47.4420 N   0  0  0  0  0  0  0  0  0  0  0  0
   47.3520   31.7780   47.7800 N   0  0  0  0  0  0  0  0  0  0  0  0
   47.1280   31.0670   48.8970 C   0  0  0  0  0  0  0  0  0  0  0  0
   45.8220   31.3180   49.2650 C   0  0  0  0  0  0  0  0  0  0  0  0
   45.2900   32.2020   48.3230 C   0  0  0  0  0  0  0  0  0  0  0  0
   45.0560   35.7330   43.0880 C   0  0  0  0  0  0  0  0  0  0  0  0
   45.2650   36.9470   43.1440 O   0  0  0  0  0  0  0  0  0  0  0  0
   44.1380   34.3290   39.9070 N   0  0  0  0  0  0  0  0  0  0  0  0
   44.9990   34.5430   40.8910 N   0  0  0  0  0  0  0  0  0  0  0  0
   44.4250   35.2790   41.8310 C   0  0  0  0  0  0  0  0  0  0  0  0
   43.1510   35.5320   41.4120 C   0  0  0  0  0  0  0  0  0  0  0  0
   42.9760   34.9240   40.1840 C   0  0  0  0  0  0  0  0  0  0  0  0
   43.9249   35.8140   45.3990 H   0  0  0  0  0  0  0  0  0  0  0  0
   46.9715   33.7578   43.2116 H   0  0  0  0  0  0  0  0  0  0  0  0
   47.8444   30.4134   49.4162 H   0  0  0  0  0  0  0  0  0  0  0  0
   45.2977   30.9001   50.1371 H   0  0  0  0  0  0  0  0  0  0  0  0
   44.2708   32.6155   48.3060 H   0  0  0  0  0  0  0  0  0  0  0  0
   44.3359   33.7846   39.0553 H   0  0  0  0  0  0  0  0  0  0  0  0
   42.3958   36.1175   41.9568 H   0  0  0  0  0  0  0  0  0  0  0  0
   42.0677   34.9292   39.5635 H   0  0  0  0  0  0  0  0  0  0  0  0
  1  6  2  0
  2  1  1  0
  3  2  2  0
  3  4  1  0
  4  5  2  0
  5  6  1  0
  5  7  1  0
  7  8  1  0
  7 11  1  0
  8  9  2  0
  9 10  1  0
 11 10  2  0
 12 13  2  0
 12  2  1  0
 14 18  1  0
 14 15  1  0
 15 16  2  0
 16 12  1  0
 17 16  1  0
 18 17  2  0
  1 19  1  0
  3 20  1  0
  9 21  1  0
 10 22  1  0
 11 23  1  0
 14 24  1  0
 17 25  1  0
 18 26  1  0
M  ISO  8  19  14  20  14  21  14  22  14  23  14  24   9  25  14  26  14
M  END
>  <minimizedAffinity>  (1) 
-5.79947519

>  <minimizedRMSD>  (1) 
0.67674762

$$$$
