
     RDKit          3D

 26 27  0  0  0  0  0  0  0  0999 V2000
   44.7520   35.0940   45.2770 C   0  0  0  0  0  0  0  0  0  0  0  0
   45.5060   34.9190   44.1280 C   0  0  0  0  0  0  0  0  0  0  0  0
   46.4530   33.9230   44.1110 C   0  0  0  0  0  0  0  0  0  0  0  0
   46.6070   33.1520   45.2290 N   0  0  0  0  0  0  0  0  0  0  0  0
   45.8760   33.3290   46.3320 C   0  0  0  0  0  0  0  0  0  0  0  0
   44.9270   34.3170   46.3690 N   0  0  0  0  0  0  0  0  0  0  0  0
   46.1700   32.4370   47.3980 N   0  0  0  0  0  0  0  0  0  0  0  0
   47.2110   31.7450   47.7930 N   0  0  0  0  0  0  0  0  0  0  0  0
   46.9060   31.0460   48.9130 C   0  0  0  0  0  0  0  0  0  0  0  0
   45.5850   31.3360   49.2220 C   0  0  0  0  0  0  0  0  0  0  0  0
   45.1460   32.2210   48.2420 C   0  0  0  0  0  0  0  0  0  0  0  0
   45.2240   35.8070   43.0410 C   0  0  0  0  0  0  0  0  0  0  0  0
   45.2100   37.0280   43.2130 O   0  0  0  0  0  0  0  0  0  0  0  0
   44.9480   35.2990   41.7210 N   0  0  0  0  0  0  0  0  0  0  0  0
   43.6700   35.2550   41.1430 C   0  0  0  0  0  0  0  0  0  0  0  0
   42.6960   35.7130   41.8800 N   0  0  0  0  0  0  0  0  0  0  0  0
   43.4480   34.7420   39.8320 N   0  0  0  0  0  0  0  0  0  0  0  0
   41.7380   35.6890   41.4700 H   0  0  0  0  0  0  0  0  0  0  0  0
   43.9901   35.8870   45.3012 H   0  0  0  0  0  0  0  0  0  0  0  0
   47.0724   33.7504   43.2185 H   0  0  0  0  0  0  0  0  0  0  0  0
   47.5775   30.3766   49.4706 H   0  0  0  0  0  0  0  0  0  0  0  0
   45.0028   30.9456   50.0697 H   0  0  0  0  0  0  0  0  0  0  0  0
   44.1418   32.6642   48.1707 H   0  0  0  0  0  0  0  0  0  0  0  0
   45.7401   34.9453   41.1657 H   0  0  0  0  0  0  0  0  0  0  0  0
   42.4957   34.7253   39.4399 H   0  0  0  0  0  0  0  0  0  0  0  0
   44.2399   34.3879   39.2766 H   0  0  0  0  0  0  0  0  0  0  0  0
  1  6  2  0
  2  1  1  0
  3  2  2  0
  3  4  1  0
  4  5  2  0
  5  6  1  0
  5  7  1  0
  7  8  1  0
  7 11  1  0
  8  9  2  0
  9 10  1  0
 11 10  2  0
 12 13  2  0
 12  2  1  0
 14 12  1  0
 15 14  1  0
 15 16  2  0
 17 15  1  0
 18 16  1  0
  1 19  1  0
  3 20  1  0
  9 21  1  0
 10 22  1  0
 11 23  1  0
 14 24  1  0
 17 25  1  0
 17 26  1  0
M  ISO  5  19  14  20  14  21  14  22  14  23  14
M  END
>  <minimizedAffinity>  (1) 
-6.03285074

>  <minimizedRMSD>  (1) 
0.17982842

$$$$
