
     RDKit          3D

 26 28  0  0  0  0  0  0  0  0999 V2000
   44.5810   35.0900   45.5210 C   0  0  0  0  0  0  0  0  0  0  0  0
   45.1780   34.9550   44.2780 C   0  0  0  0  0  0  0  0  0  0  0  0
   46.1390   33.9850   44.1290 C   0  0  0  0  0  0  0  0  0  0  0  0
   46.4600   33.2010   45.2090 N   0  0  0  0  0  0  0  0  0  0  0  0
   45.8770   33.3440   46.3960 C   0  0  0  0  0  0  0  0  0  0  0  0
   44.9180   34.3030   46.5700 N   0  0  0  0  0  0  0  0  0  0  0  0
   46.3240   32.4530   47.4090 N   0  0  0  0  0  0  0  0  0  0  0  0
   47.4250   31.7810   47.6450 N   0  0  0  0  0  0  0  0  0  0  0  0
   47.2880   31.0730   48.7900 C   0  0  0  0  0  0  0  0  0  0  0  0
   46.0260   31.3250   49.2870 C   0  0  0  0  0  0  0  0  0  0  0  0
   45.4340   32.2090   48.3850 C   0  0  0  0  0  0  0  0  0  0  0  0
   44.7560   35.8330   43.2320 C   0  0  0  0  0  0  0  0  0  0  0  0
   45.3180   36.9230   43.0890 O   0  0  0  0  0  0  0  0  0  0  0  0
   43.6790   35.5380   42.2840 C   0  0  0  0  0  0  0  0  0  0  0  0
   43.8420   35.1290   40.9970 C   0  0  0  0  0  0  0  0  0  0  0  0
   42.5920   34.9690   40.4730 N   0  0  0  0  0  0  0  0  0  0  0  0
   41.6750   35.2650   41.3870 C   0  0  0  0  0  0  0  0  0  0  0  0
   42.3630   35.6130   42.4960 N   0  0  0  0  0  0  0  0  0  0  0  0
   43.8088   35.8610   45.6600 H   0  0  0  0  0  0  0  0  0  0  0  0
   46.6422   33.8391   43.1618 H   0  0  0  0  0  0  0  0  0  0  0  0
   48.0453   30.4159   49.2423 H   0  0  0  0  0  0  0  0  0  0  0  0
   45.5793   30.9140   50.2044 H   0  0  0  0  0  0  0  0  0  0  0  0
   44.4207   32.6305   48.4595 H   0  0  0  0  0  0  0  0  0  0  0  0
   44.7972   34.9598   40.4785 H   0  0  0  0  0  0  0  0  0  0  0  0
   40.5821   35.2333   41.2660 H   0  0  0  0  0  0  0  0  0  0  0  0
   41.9303   35.8981   43.3862 H   0  0  0  0  0  0  0  0  0  0  0  0
  1  6  2  0
  2  1  1  0
  3  2  2  0
  3  4  1  0
  4  5  2  0
  5  6  1  0
  5  7  1  0
  7  8  1  0
  7 11  1  0
  8  9  2  0
  9 10  1  0
 11 10  2  0
 12  2  1  0
 13 12  2  0
 14 18  1  0
 14 12  1  0
 15 14  2  0
 16 15  1  0
 16 17  2  0
 17 18  1  0
  1 19  1  0
  3 20  1  0
  9 21  1  0
 10 22  1  0
 11 23  1  0
 15 24  1  0
 17 25  1  0
 18 26  1  0
M  ISO  8  19  14  20  14  21  14  22  14  23  14  24  14  25  14  26   9
M  END
>  <minimizedAffinity>  (1) 
-5.8366003

>  <minimizedRMSD>  (1) 
1.39916229

$$$$
