
     RDKit          3D

 29 31  0  0  0  0  0  0  0  0999 V2000
   44.7210   35.0080   45.2290 C   0  0  0  0  0  0  0  0  0  0  0  0
   45.4440   34.8420   44.0390 C   0  0  0  0  0  0  0  0  0  0  0  0
   46.4350   33.8910   44.0250 C   0  0  0  0  0  0  0  0  0  0  0  0
   46.6570   33.1650   45.1680 N   0  0  0  0  0  0  0  0  0  0  0  0
   45.9560   33.3430   46.2880 C   0  0  0  0  0  0  0  0  0  0  0  0
   44.9610   34.2780   46.3450 N   0  0  0  0  0  0  0  0  0  0  0  0
   46.3230   32.5070   47.3720 N   0  0  0  0  0  0  0  0  0  0  0  0
   47.4080   31.8620   47.7300 N   0  0  0  0  0  0  0  0  0  0  0  0
   47.2300   31.1940   48.8800 C   0  0  0  0  0  0  0  0  0  0  0  0
   45.9340   31.4410   49.2720 C   0  0  0  0  0  0  0  0  0  0  0  0
   45.3820   32.2810   48.2900 C   0  0  0  0  0  0  0  0  0  0  0  0
   45.0790   35.6850   42.9430 C   0  0  0  0  0  0  0  0  0  0  0  0
   45.3310   36.9040   43.0220 O   0  0  0  0  0  0  0  0  0  0  0  0
   44.4230   35.1640   41.7440 C   0  0  0  0  0  0  0  0  0  0  0  0
   44.9820   34.2370   40.9080 C   0  0  0  0  0  0  0  0  0  0  0  0
   44.3480   33.7490   39.7930 C   0  0  0  0  0  0  0  0  0  0  0  0
   43.0690   34.2070   39.4720 C   0  0  0  0  0  0  0  0  0  0  0  0
   42.4730   35.1370   40.2860 C   0  0  0  0  0  0  0  0  0  0  0  0
   43.1380   35.6150   41.4170 C   0  0  0  0  0  0  0  0  0  0  0  0
   43.9232   35.7648   45.2578 H   0  0  0  0  0  0  0  0  0  0  0  0
   47.0356   33.7158   43.1202 H   0  0  0  0  0  0  0  0  0  0  0  0
   47.9714   30.5733   49.4044 H   0  0  0  0  0  0  0  0  0  0  0  0
   45.4316   31.0580   50.1725 H   0  0  0  0  0  0  0  0  0  0  0  0
   44.3572   32.6807   48.2801 H   0  0  0  0  0  0  0  0  0  0  0  0
   45.9902   33.8639   41.1410 H   0  0  0  0  0  0  0  0  0  0  0  0
   44.8444   33.0018   39.1564 H   0  0  0  0  0  0  0  0  0  0  0  0
   42.5473   33.8284   38.5807 H   0  0  0  0  0  0  0  0  0  0  0  0
   41.4656   35.5081   40.0463 H   0  0  0  0  0  0  0  0  0  0  0  0
   42.6447   36.3576   42.0614 H   0  0  0  0  0  0  0  0  0  0  0  0
  1  6  2  0
  2  1  1  0
  3  2  2  0
  3  4  1  0
  4  5  2  0
  5  6  1  0
  5  7  1  0
  7  8  1  0
  7 11  1  0
  8  9  2  0
  9 10  1  0
 11 10  2  0
 12 13  2  0
 12  2  1  0
 14 12  1  0
 15 14  2  0
 16 15  1  0
 17 16  2  0
 17 18  1  0
 18 19  2  0
 19 14  1  0
  1 20  1  0
  3 21  1  0
  9 22  1  0
 10 23  1  0
 11 24  1  0
 15 25  1  0
 16 26  1  0
 17 27  1  0
 18 28  1  0
 19 29  1  0
M  ISO  8  20  14  21  14  22  14  23  14  24  14  25  14  26  14  27  14
M  ISO  2  28  14  29  14
M  END
>  <minimizedAffinity>  (1) 
-5.91594887

>  <minimizedRMSD>  (1) 
0.759982169

$$$$
