
     RDKit          3D

 26 28  0  0  0  0  0  0  0  0999 V2000
   45.1130   34.6990   45.1140 C   0  0  0  0  0  0  0  0  0  0  0  0
   45.9860   34.4220   44.0760 C   0  0  0  0  0  0  0  0  0  0  0  0
   46.9020   33.4110   44.2380 C   0  0  0  0  0  0  0  0  0  0  0  0
   46.9120   32.7170   45.4190 N   0  0  0  0  0  0  0  0  0  0  0  0
   46.0590   32.9980   46.4150 C   0  0  0  0  0  0  0  0  0  0  0  0
   45.1560   33.9900   46.2650 N   0  0  0  0  0  0  0  0  0  0  0  0
   46.1940   32.1800   47.5740 N   0  0  0  0  0  0  0  0  0  0  0  0
   47.1770   31.5020   48.1330 N   0  0  0  0  0  0  0  0  0  0  0  0
   46.7560   30.8820   49.2460 C   0  0  0  0  0  0  0  0  0  0  0  0
   45.4000   31.2080   49.3780 C   0  0  0  0  0  0  0  0  0  0  0  0
   45.0710   32.0400   48.2930 C   0  0  0  0  0  0  0  0  0  0  0  0
   45.9000   35.1940   42.8810 C   0  0  0  0  0  0  0  0  0  0  0  0
   45.1460   36.1630   42.8220 O   0  0  0  0  0  0  0  0  0  0  0  0
   46.7010   34.8520   41.7050 C   0  0  0  0  0  0  0  0  0  0  0  0
   47.9520   35.2160   41.2920 C   0  0  0  0  0  0  0  0  0  0  0  0
   48.4440   34.7270   40.1250 C   0  0  0  0  0  0  0  0  0  0  0  0
   47.6770   33.8620   39.3580 C   0  0  0  0  0  0  0  0  0  0  0  0
   46.1060   33.7460   40.4210 S   0  0  0  0  0  0  0  0  0  0  0  0
   44.3745   35.5064   45.0012 H   0  0  0  0  0  0  0  0  0  0  0  0
   47.6129   33.1639   43.4358 H   0  0  0  0  0  0  0  0  0  0  0  0
   47.3534   30.2476   49.9174 H   0  0  0  0  0  0  0  0  0  0  0  0
   44.7217   30.8764   50.1780 H   0  0  0  0  0  0  0  0  0  0  0  0
   44.0891   32.4865   48.0774 H   0  0  0  0  0  0  0  0  0  0  0  0
   48.5575   35.9021   41.9025 H   0  0  0  0  0  0  0  0  0  0  0  0
   49.4502   35.0165   39.7877 H   0  0  0  0  0  0  0  0  0  0  0  0
   47.9131   33.3772   38.3992 H   0  0  0  0  0  0  0  0  0  0  0  0
  1  6  2  0
  2  3  2  0
  2  1  1  0
  3  4  1  0
  4  5  2  0
  5  7  1  0
  6  5  1  0
  7  8  1  0
  7 11  1  0
  8  9  2  0
  9 10  1  0
 11 10  2  0
 12  2  1  0
 13 12  2  0
 14 12  1  0
 15 14  2  0
 16 15  1  0
 17 16  2  0
 17 18  1  0
 18 14  1  0
  1 19  1  0
  3 20  1  0
  9 21  1  0
 10 22  1  0
 11 23  1  0
 15 24  1  0
 16 25  1  0
 17 26  1  0
M  ISO  8  19  14  20  14  21  14  22  14  23  14  24  14  25  14  26  14
M  END
>  <minimizedAffinity>  (1) 
-5.68904638

>  <minimizedRMSD>  (1) 
1.3420769

$$$$
