
     RDKit          3D

 26 28  0  0  0  0  0  0  0  0999 V2000
   44.6820   35.0660   45.2980 C   0  0  0  0  0  0  0  0  0  0  0  0
   45.3590   34.8930   44.0960 C   0  0  0  0  0  0  0  0  0  0  0  0
   46.3480   33.9120   44.0320 C   0  0  0  0  0  0  0  0  0  0  0  0
   46.6030   33.1710   45.1480 N   0  0  0  0  0  0  0  0  0  0  0  0
   45.9360   33.3590   46.2920 C   0  0  0  0  0  0  0  0  0  0  0  0
   44.9610   34.3170   46.3740 N   0  0  0  0  0  0  0  0  0  0  0  0
   46.3150   32.5040   47.3790 N   0  0  0  0  0  0  0  0  0  0  0  0
   47.4270   31.8620   47.6910 N   0  0  0  0  0  0  0  0  0  0  0  0
   47.2380   31.1860   48.8480 C   0  0  0  0  0  0  0  0  0  0  0  0
   45.9330   31.4380   49.2520 C   0  0  0  0  0  0  0  0  0  0  0  0
   45.3630   32.2860   48.2920 C   0  0  0  0  0  0  0  0  0  0  0  0
   45.0250   35.7210   42.9680 C   0  0  0  0  0  0  0  0  0  0  0  0
   45.2850   36.9250   43.0480 O   0  0  0  0  0  0  0  0  0  0  0  0
   44.4000   35.1930   41.7560 C   0  0  0  0  0  0  0  0  0  0  0  0
   43.1170   35.5840   41.3860 C   0  0  0  0  0  0  0  0  0  0  0  0
   42.8250   34.9050   40.1980 C   0  0  0  0  0  0  0  0  0  0  0  0
   43.9580   34.1410   39.9250 C   0  0  0  0  0  0  0  0  0  0  0  0
   44.8350   34.3530   40.8660 O   0  0  0  0  0  0  0  0  0  0  0  0
   43.8991   35.8356   45.3676 H   0  0  0  0  0  0  0  0  0  0  0  0
   46.9099   33.7398   43.1021 H   0  0  0  0  0  0  0  0  0  0  0  0
   47.9759   30.5578   49.3685 H   0  0  0  0  0  0  0  0  0  0  0  0
   45.4402   31.0464   50.1541 H   0  0  0  0  0  0  0  0  0  0  0  0
   44.3399   32.6901   48.2903 H   0  0  0  0  0  0  0  0  0  0  0  0
   42.4622   36.2874   41.9212 H   0  0  0  0  0  0  0  0  0  0  0  0
   41.8994   34.9620   39.6063 H   0  0  0  0  0  0  0  0  0  0  0  0
   44.0900   33.4723   39.0617 H   0  0  0  0  0  0  0  0  0  0  0  0
  1  6  2  0
  2  1  1  0
  3  2  2  0
  3  4  1  0
  4  5  2  0
  5  6  1  0
  5  7  1  0
  7  8  1  0
  7 11  1  0
  8  9  2  0
  9 10  1  0
 11 10  2  0
 12 13  2  0
 12  2  1  0
 14 12  1  0
 15 14  2  0
 16 15  1  0
 17 16  2  0
 17 18  1  0
 18 14  1  0
  1 19  1  0
  3 20  1  0
  9 21  1  0
 10 22  1  0
 11 23  1  0
 15 24  1  0
 16 25  1  0
 17 26  1  0
M  ISO  8  19  14  20  14  21  14  22  14  23  14  24  14  25  14  26  14
M  END
>  <minimizedAffinity>  (1) 
-5.56536722

>  <minimizedRMSD>  (1) 
0.904394805

$$$$
