
     RDKit          3D

 35 37  0  0  0  0  0  0  0  0999 V2000
   44.7670   35.0600   45.2180 C   0  0  0  0  0  0  0  0  0  0  0  0
   45.5210   34.8590   44.0500 C   0  0  0  0  0  0  0  0  0  0  0  0
   46.4520   33.8430   44.0520 C   0  0  0  0  0  0  0  0  0  0  0  0
   46.5960   33.0860   45.1800 N   0  0  0  0  0  0  0  0  0  0  0  0
   45.8670   33.2970   46.2770 C   0  0  0  0  0  0  0  0  0  0  0  0
   44.9460   34.2860   46.3040 N   0  0  0  0  0  0  0  0  0  0  0  0
   46.1470   32.4110   47.3680 N   0  0  0  0  0  0  0  0  0  0  0  0
   47.1960   31.6760   47.7250 N   0  0  0  0  0  0  0  0  0  0  0  0
   46.9150   31.0190   48.8630 C   0  0  0  0  0  0  0  0  0  0  0  0
   45.6280   31.3680   49.2210 C   0  0  0  0  0  0  0  0  0  0  0  0
   45.1470   32.2610   48.2550 C   0  0  0  0  0  0  0  0  0  0  0  0
   45.3090   35.6990   42.9080 C   0  0  0  0  0  0  0  0  0  0  0  0
   45.3040   36.9200   43.0920 O   0  0  0  0  0  0  0  0  0  0  0  0
   45.1100   34.9870   41.5960 C   0  0  0  0  0  0  0  0  0  0  0  0
   45.3880   33.5150   41.7280 C   0  0  0  0  0  0  0  0  0  0  0  0
   44.1610   32.7390   42.1600 C   0  0  0  0  0  0  0  0  0  0  0  0
   43.0380   32.8620   41.1610 C   0  0  0  0  0  0  0  0  0  0  0  0
   43.2470   34.0640   40.2550 C   0  0  0  0  0  0  0  0  0  0  0  0
   43.6860   35.1980   41.1270 C   0  0  0  0  0  0  0  0  0  0  0  0
   44.0171   35.8643   45.2453 H   0  0  0  0  0  0  0  0  0  0  0  0
   47.0676   33.6453   43.1621 H   0  0  0  0  0  0  0  0  0  0  0  0
   47.5829   30.3339   49.4058 H   0  0  0  0  0  0  0  0  0  0  0  0
   45.0797   31.0097   50.1047 H   0  0  0  0  0  0  0  0  0  0  0  0
   44.1572   32.7401   48.2275 H   0  0  0  0  0  0  0  0  0  0  0  0
   45.8157   35.4020   40.8613 H   0  0  0  0  0  0  0  0  0  0  0  0
   45.7269   33.1296   40.7551 H   0  0  0  0  0  0  0  0  0  0  0  0
   46.1602   33.3844   42.5004 H   0  0  0  0  0  0  0  0  0  0  0  0
   44.4299   31.6775   42.2641 H   0  0  0  0  0  0  0  0  0  0  0  0
   43.8134   33.1554   43.1170 H   0  0  0  0  0  0  0  0  0  0  0  0
   43.0010   31.9502   40.5468 H   0  0  0  0  0  0  0  0  0  0  0  0
   42.0934   32.9950   41.7088 H   0  0  0  0  0  0  0  0  0  0  0  0
   42.3066   34.3212   39.7457 H   0  0  0  0  0  0  0  0  0  0  0  0
   44.0005   33.8477   39.4834 H   0  0  0  0  0  0  0  0  0  0  0  0
   43.6283   36.1366   40.5563 H   0  0  0  0  0  0  0  0  0  0  0  0
   43.0260   35.2468   42.0057 H   0  0  0  0  0  0  0  0  0  0  0  0
  1  6  2  0
  2  3  2  0
  2  1  1  0
  3  4  1  0
  4  5  2  0
  5  6  1  0
  5  7  1  0
  7  8  1  0
  7 11  1  0
  8  9  2  0
  9 10  1  0
 11 10  2  0
 12 13  2  0
 12  2  1  0
 14 15  1  0
 14 12  1  0
 15 16  1  0
 17 16  1  0
 18 19  1  0
 18 17  1  0
 19 14  1  0
  1 20  1  0
  3 21  1  0
  9 22  1  0
 10 23  1  0
 11 24  1  0
 14 25  1  0
 15 26  1  0
 15 27  1  0
 16 28  1  0
 16 29  1  0
 17 30  1  0
 17 31  1  0
 18 32  1  0
 18 33  1  0
 19 34  1  0
 19 35  1  0
M  ISO  8  20  14  21  14  22  14  23  14  24  14  25  13  26  13  27  13
M  ISO  8  28  13  29  13  30  13  31  13  32  13  33  13  34  13  35  13
M  END
>  <minimizedAffinity>  (1) 
-5.70323515

>  <minimizedRMSD>  (1) 
0.362221986

$$$$
