
     RDKit          3D

 25 27  0  0  0  0  0  0  0  0999 V2000
   44.5700   35.1480   45.3940 C   0  0  0  0  0  0  0  0  0  0  0  0
   45.2070   35.0110   44.1700 C   0  0  0  0  0  0  0  0  0  0  0  0
   46.1930   34.0300   44.0630 C   0  0  0  0  0  0  0  0  0  0  0  0
   46.4810   33.2600   45.1580 N   0  0  0  0  0  0  0  0  0  0  0  0
   45.8550   33.4120   46.3200 C   0  0  0  0  0  0  0  0  0  0  0  0
   44.8820   34.3670   46.4550 N   0  0  0  0  0  0  0  0  0  0  0  0
   46.2580   32.5430   47.3640 N   0  0  0  0  0  0  0  0  0  0  0  0
   47.3780   31.8860   47.6330 N   0  0  0  0  0  0  0  0  0  0  0  0
   47.2050   31.1880   48.7910 C   0  0  0  0  0  0  0  0  0  0  0  0
   45.9250   31.4340   49.2430 C   0  0  0  0  0  0  0  0  0  0  0  0
   45.3490   32.2970   48.3160 C   0  0  0  0  0  0  0  0  0  0  0  0
   44.8490   35.8530   43.0750 C   0  0  0  0  0  0  0  0  0  0  0  0
   45.3070   37.0000   43.0800 O   0  0  0  0  0  0  0  0  0  0  0  0
   43.9820   35.3380   42.0230 C   0  0  0  0  0  0  0  0  0  0  0  0
   44.6260   34.6270   40.9580 C   0  0  0  0  0  0  0  0  0  0  0  0
   43.1790   34.1420   39.8360 S   0  0  0  0  0  0  0  0  0  0  0  0
   41.9950   35.0010   41.0420 C   0  0  0  0  0  0  0  0  0  0  0  0
   42.6770   35.4250   41.9000 N   0  0  0  0  0  0  0  0  0  0  0  0
   43.7882   35.9137   45.5063 H   0  0  0  0  0  0  0  0  0  0  0  0
   46.7300   33.8776   43.1151 H   0  0  0  0  0  0  0  0  0  0  0  0
   47.9521   30.5440   49.2778 H   0  0  0  0  0  0  0  0  0  0  0  0
   45.4551   31.0299   50.1518 H   0  0  0  0  0  0  0  0  0  0  0  0
   44.3282   32.7048   48.3577 H   0  0  0  0  0  0  0  0  0  0  0  0
   45.6972   34.4151   40.8250 H   0  0  0  0  0  0  0  0  0  0  0  0
   40.9015   35.0848   40.9567 H   0  0  0  0  0  0  0  0  0  0  0  0
  1  6  2  0
  2  1  1  0
  3  2  2  0
  3  4  1  0
  4  5  2  0
  5  6  1  0
  5  7  1  0
  7  8  1  0
  7 11  1  0
  8  9  2  0
  9 10  1  0
 11 10  2  0
 12 13  2  0
 12  2  1  0
 14 12  1  0
 15 14  2  0
 16 15  1  0
 16 17  1  0
 17 18  2  0
 18 14  1  0
  1 19  1  0
  3 20  1  0
  9 21  1  0
 10 22  1  0
 11 23  1  0
 15 24  1  0
 17 25  1  0
M  ISO  7  19  14  20  14  21  14  22  14  23  14  24  14  25  14
M  END
>  <minimizedAffinity>  (1) 
-5.44990063

>  <minimizedRMSD>  (1) 
1.14698112

$$$$
