
     RDKit          3D

 24 26  0  0  0  0  0  0  0  0999 V2000
   44.6130   35.1380   45.3750 C   0  0  0  0  0  0  0  0  0  0  0  0
   45.2830   34.9950   44.1590 C   0  0  0  0  0  0  0  0  0  0  0  0
   46.2600   34.0220   44.0640 C   0  0  0  0  0  0  0  0  0  0  0  0
   46.5240   33.2490   45.1630 N   0  0  0  0  0  0  0  0  0  0  0  0
   45.8780   33.3970   46.3130 C   0  0  0  0  0  0  0  0  0  0  0  0
   44.9050   34.3530   46.4350 N   0  0  0  0  0  0  0  0  0  0  0  0
   46.2530   32.5270   47.3730 N   0  0  0  0  0  0  0  0  0  0  0  0
   47.3790   31.8770   47.6650 N   0  0  0  0  0  0  0  0  0  0  0  0
   47.1720   31.1770   48.8130 C   0  0  0  0  0  0  0  0  0  0  0  0
   45.8780   31.4100   49.2300 C   0  0  0  0  0  0  0  0  0  0  0  0
   45.3150   32.2730   48.2950 C   0  0  0  0  0  0  0  0  0  0  0  0
   44.9460   35.8450   43.0600 C   0  0  0  0  0  0  0  0  0  0  0  0
   45.2580   37.0390   43.1300 O   0  0  0  0  0  0  0  0  0  0  0  0
   44.2540   35.3710   41.8660 C   0  0  0  0  0  0  0  0  0  0  0  0
   44.8180   34.5260   40.9590 N   0  0  0  0  0  0  0  0  0  0  0  0
   43.9480   34.2950   40.0180 O   0  0  0  0  0  0  0  0  0  0  0  0
   42.8400   34.9440   40.2540 C   0  0  0  0  0  0  0  0  0  0  0  0
   43.0150   35.6220   41.4060 N   0  0  0  0  0  0  0  0  0  0  0  0
   43.8312   35.9056   45.4723 H   0  0  0  0  0  0  0  0  0  0  0  0
   46.8137   33.8718   43.1255 H   0  0  0  0  0  0  0  0  0  0  0  0
   47.9085   30.5366   49.3204 H   0  0  0  0  0  0  0  0  0  0  0  0
   45.3886   30.9959   50.1239 H   0  0  0  0  0  0  0  0  0  0  0  0
   44.2902   32.6724   48.3101 H   0  0  0  0  0  0  0  0  0  0  0  0
   41.9340   34.9386   39.6302 H   0  0  0  0  0  0  0  0  0  0  0  0
  1  6  2  0
  2  1  1  0
  3  2  2  0
  3  4  1  0
  4  5  2  0
  5  6  1  0
  5  7  1  0
  7  8  1  0
  7 11  1  0
  8  9  2  0
  9 10  1  0
 11 10  2  0
 12 13  2  0
 12  2  1  0
 14 12  1  0
 15 14  2  0
 16 17  1  0
 16 15  1  0
 17 18  2  0
 18 14  1  0
  1 19  1  0
  3 20  1  0
  9 21  1  0
 10 22  1  0
 11 23  1  0
 17 24  1  0
M  ISO  6  19  14  20  14  21  14  22  14  23  14  24  14
M  END
>  <minimizedAffinity>  (1) 
-5.5390234

>  <minimizedRMSD>  (1) 
1.01405609

$$$$
