
     RDKit          3D

 20 21  0  0  0  0  0  0  0  0999 V2000
   44.7860   35.0120   45.2130 C   0  0  0  0  0  0  0  0  0  0  0  0
   45.5260   34.8120   44.0500 C   0  0  0  0  0  0  0  0  0  0  0  0
   46.4870   33.8320   44.0470 C   0  0  0  0  0  0  0  0  0  0  0  0
   46.6710   33.1020   45.1850 N   0  0  0  0  0  0  0  0  0  0  0  0
   45.9620   33.2980   46.2920 C   0  0  0  0  0  0  0  0  0  0  0  0
   44.9930   34.2670   46.3290 N   0  0  0  0  0  0  0  0  0  0  0  0
   46.2880   32.4430   47.3850 N   0  0  0  0  0  0  0  0  0  0  0  0
   47.3770   31.7990   47.7770 N   0  0  0  0  0  0  0  0  0  0  0  0
   47.0990   31.1200   48.9210 C   0  0  0  0  0  0  0  0  0  0  0  0
   45.7780   31.3620   49.2410 C   0  0  0  0  0  0  0  0  0  0  0  0
   45.2870   32.2070   48.2460 C   0  0  0  0  0  0  0  0  0  0  0  0
   45.2080   35.6670   42.9360 C   0  0  0  0  0  0  0  0  0  0  0  0
   45.2080   36.8920   43.0800 O   0  0  0  0  0  0  0  0  0  0  0  0
   44.8800   35.2640   41.6260 O   0  0  0  0  0  0  0  0  0  0  0  0
   44.0131   35.7946   45.2277 H   0  0  0  0  0  0  0  0  0  0  0  0
   47.0936   33.6399   43.1497 H   0  0  0  0  0  0  0  0  0  0  0  0
   47.8000   30.4911   49.4894 H   0  0  0  0  0  0  0  0  0  0  0  0
   45.2245   30.9679   50.1061 H   0  0  0  0  0  0  0  0  0  0  0  0
   44.2646   32.6072   48.1794 H   0  0  0  0  0  0  0  0  0  0  0  0
   44.8500   34.3013   41.3972 H   0  0  0  0  0  0  0  0  0  0  0  0
  1  6  2  0
  2  1  1  0
  3  2  2  0
  3  4  1  0
  4  5  2  0
  5  6  1  0
  5  7  1  0
  7  8  1  0
  7 11  1  0
  8  9  2  0
  9 10  1  0
 11 10  2  0
 12 13  2  0
 12  2  1  0
 14 12  1  0
  1 15  1  0
  3 16  1  0
  9 17  1  0
 10 18  1  0
 11 19  1  0
 14 20  1  0
M  ISO  6  15  14  16  14  17  14  18  14  19  14  20   3
M  END
>  <minimizedAffinity>  (1) 
-4.76699591

>  <minimizedRMSD>  (1) 
0.111802727

$$$$
