
     RDKit          3D

 26 28  0  0  0  0  0  0  0  0999 V2000
   44.7520   35.0020   45.2750 C   0  0  0  0  0  0  0  0  0  0  0  0
   45.4600   34.8290   44.0910 C   0  0  0  0  0  0  0  0  0  0  0  0
   46.4340   33.8600   44.0580 C   0  0  0  0  0  0  0  0  0  0  0  0
   46.6550   33.1180   45.1860 N   0  0  0  0  0  0  0  0  0  0  0  0
   45.9760   33.2840   46.3150 C   0  0  0  0  0  0  0  0  0  0  0  0
   45.0170   34.2380   46.3500 N   0  0  0  0  0  0  0  0  0  0  0  0
   46.3170   32.4420   47.3980 N   0  0  0  0  0  0  0  0  0  0  0  0
   47.4240   31.7810   47.7320 N   0  0  0  0  0  0  0  0  0  0  0  0
   47.1770   31.1200   48.8990 C   0  0  0  0  0  0  0  0  0  0  0  0
   45.8780   31.3930   49.2780 C   0  0  0  0  0  0  0  0  0  0  0  0
   45.3580   32.2370   48.3040 C   0  0  0  0  0  0  0  0  0  0  0  0
   45.1520   35.6570   42.9670 C   0  0  0  0  0  0  0  0  0  0  0  0
   45.2100   36.8840   43.1030 O   0  0  0  0  0  0  0  0  0  0  0  0
   44.7660   35.0880   41.6430 C   0  0  0  0  0  0  0  0  0  0  0  0
   43.4770   34.2050   41.7080 C   0  0  0  0  0  0  0  0  0  0  0  0
   43.5340   35.4750   40.9450 C   0  0  0  0  0  0  0  0  0  0  0  0
   43.9676   35.7710   45.3333 H   0  0  0  0  0  0  0  0  0  0  0  0
   47.0226   33.6850   43.1453 H   0  0  0  0  0  0  0  0  0  0  0  0
   47.8883   30.4812   49.4430 H   0  0  0  0  0  0  0  0  0  0  0  0
   45.3585   31.0176   50.1720 H   0  0  0  0  0  0  0  0  0  0  0  0
   44.3423   32.6589   48.2833 H   0  0  0  0  0  0  0  0  0  0  0  0
   45.8113   35.0282   41.3056 H   0  0  0  0  0  0  0  0  0  0  0  0
   43.4359   33.2403   41.1810 H   0  0  0  0  0  0  0  0  0  0  0  0
   42.8428   33.7868   42.5035 H   0  0  0  0  0  0  0  0  0  0  0  0
   42.9627   36.3443   41.3027 H   0  0  0  0  0  0  0  0  0  0  0  0
   43.3104   35.7370   39.9003 H   0  0  0  0  0  0  0  0  0  0  0  0
  1  6  2  0
  2  1  1  0
  3  2  2  0
  3  4  1  0
  4  5  2  0
  5  6  1  0
  5  7  1  0
  7  8  1  0
  7 11  1  0
  8  9  2  0
  9 10  1  0
 11 10  2  0
 12 13  2  0
 12  2  1  0
 14 15  1  0
 14 12  1  0
 16 14  1  0
 16 15  1  0
  1 17  1  0
  3 18  1  0
  9 19  1  0
 10 20  1  0
 11 21  1  0
 14 22  1  0
 15 23  1  0
 15 24  1  0
 16 25  1  0
 16 26  1  0
M  ISO  8  17  14  18  14  19  14  20  14  21  14  22  13  23  13  24  13
M  ISO  2  25  13  26  13
M  END
>  <minimizedAffinity>  (1) 
-5.18235016

>  <minimizedRMSD>  (1) 
0.309867054

$$$$
