
     RDKit          3D

 26 28  0  0  0  0  0  0  0  0999 V2000
   44.6720   35.0900   45.3840 C   0  0  0  0  0  0  0  0  0  0  0  0
   45.3890   34.9330   44.2080 C   0  0  0  0  0  0  0  0  0  0  0  0
   46.3490   33.9540   44.1450 C   0  0  0  0  0  0  0  0  0  0  0  0
   46.5470   33.1800   45.2560 N   0  0  0  0  0  0  0  0  0  0  0  0
   45.8490   33.3390   46.3900 C   0  0  0  0  0  0  0  0  0  0  0  0
   44.9020   34.3030   46.4560 N   0  0  0  0  0  0  0  0  0  0  0  0
   46.1900   32.4430   47.4430 N   0  0  0  0  0  0  0  0  0  0  0  0
   47.2600   31.7600   47.7870 N   0  0  0  0  0  0  0  0  0  0  0  0
   47.0060   31.0530   48.9170 C   0  0  0  0  0  0  0  0  0  0  0  0
   45.7000   31.3260   49.2800 C   0  0  0  0  0  0  0  0  0  0  0  0
   45.2060   32.2140   48.3240 C   0  0  0  0  0  0  0  0  0  0  0  0
   45.0820   35.8120   43.1170 C   0  0  0  0  0  0  0  0  0  0  0  0
   45.2840   37.0240   43.2330 O   0  0  0  0  0  0  0  0  0  0  0  0
   44.5240   35.2850   41.8560 C   0  0  0  0  0  0  0  0  0  0  0  0
   43.2410   35.4880   41.4410 C   0  0  0  0  0  0  0  0  0  0  0  0
   43.1240   34.8420   40.2320 C   0  0  0  0  0  0  0  0  0  0  0  0
   44.3150   34.3050   40.0020 N   0  0  0  0  0  0  0  0  0  0  0  0
   45.2170   34.5350   40.9500 N   0  0  0  0  0  0  0  0  0  0  0  0
   43.9003   35.8715   45.4446 H   0  0  0  0  0  0  0  0  0  0  0  0
   46.9402   33.7967   43.2308 H   0  0  0  0  0  0  0  0  0  0  0  0
   47.7063   30.3886   49.4443 H   0  0  0  0  0  0  0  0  0  0  0  0
   45.1587   30.9235   50.1489 H   0  0  0  0  0  0  0  0  0  0  0  0
   44.1950   32.6466   48.2980 H   0  0  0  0  0  0  0  0  0  0  0  0
   42.4578   36.0539   41.9667 H   0  0  0  0  0  0  0  0  0  0  0  0
   42.2316   34.7832   39.5915 H   0  0  0  0  0  0  0  0  0  0  0  0
   44.5236   33.7543   39.1569 H   0  0  0  0  0  0  0  0  0  0  0  0
  1  6  2  0
  2  1  1  0
  3  2  2  0
  3  4  1  0
  4  5  2  0
  5  6  1  0
  5  7  1  0
  7  8  1  0
  7 11  1  0
  8  9  2  0
  9 10  1  0
 11 10  2  0
 12 13  2  0
 12  2  1  0
 14 12  1  0
 15 14  1  0
 16 15  2  0
 17 16  1  0
 17 18  1  0
 18 14  2  0
  1 19  1  0
  3 20  1  0
  9 21  1  0
 10 22  1  0
 11 23  1  0
 15 24  1  0
 16 25  1  0
 17 26  1  0
M  ISO  8  19  14  20  14  21  14  22  14  23  14  24  14  25  14  26   9
M  END
>  <minimizedAffinity>  (1) 
-5.83355904

>  <minimizedRMSD>  (1) 
0.648271739

$$$$
