
     RDKit          3D

 33 36  0  0  0  0  0  0  0  0999 V2000
   44.6470   35.1240   45.2900 C   0  0  0  0  0  0  0  0  0  0  0  0
   45.3300   34.9540   44.0860 C   0  0  0  0  0  0  0  0  0  0  0  0
   46.2990   33.9890   44.0090 C   0  0  0  0  0  0  0  0  0  0  0  0
   46.5530   33.2350   45.1200 N   0  0  0  0  0  0  0  0  0  0  0  0
   45.8930   33.4030   46.2740 C   0  0  0  0  0  0  0  0  0  0  0  0
   44.9330   34.3550   46.3580 N   0  0  0  0  0  0  0  0  0  0  0  0
   46.2750   32.5410   47.3270 N   0  0  0  0  0  0  0  0  0  0  0  0
   47.3780   31.8770   47.6500 N   0  0  0  0  0  0  0  0  0  0  0  0
   47.1750   31.1920   48.7910 C   0  0  0  0  0  0  0  0  0  0  0  0
   45.8890   31.4350   49.2040 C   0  0  0  0  0  0  0  0  0  0  0  0
   45.3330   32.2990   48.2550 C   0  0  0  0  0  0  0  0  0  0  0  0
   44.9640   35.8160   42.9910 C   0  0  0  0  0  0  0  0  0  0  0  0
   45.2840   36.9980   43.0090 O   0  0  0  0  0  0  0  0  0  0  0  0
   44.2060   35.2830   41.8500 C   0  0  0  0  0  0  0  0  0  0  0  0
   42.8810   35.5200   41.6110 C   0  0  0  0  0  0  0  0  0  0  0  0
   42.5520   34.8500   40.4620 C   0  0  0  0  0  0  0  0  0  0  0  0
   43.6860   34.2510   40.0770 N   0  0  0  0  0  0  0  0  0  0  0  0
   44.7160   34.4730   40.8700 N   0  0  0  0  0  0  0  0  0  0  0  0
   43.5330   32.1450   37.1660 N   0  0  0  0  0  0  0  0  0  0  0  0
   42.9800   32.8790   38.1430 N   0  0  0  0  0  0  0  0  0  0  0  0
   43.9360   33.4070   38.9300 C   0  0  0  0  0  0  0  0  0  0  0  0
   45.1550   32.9760   38.4080 C   0  0  0  0  0  0  0  0  0  0  0  0
   44.8760   32.1790   37.2950 C   0  0  0  0  0  0  0  0  0  0  0  0
   43.8660   35.8947   45.3682 H   0  0  0  0  0  0  0  0  0  0  0  0
   46.8587   33.8251   43.0763 H   0  0  0  0  0  0  0  0  0  0  0  0
   47.9093   30.5515   49.3015 H   0  0  0  0  0  0  0  0  0  0  0  0
   45.3952   31.0317   50.1004 H   0  0  0  0  0  0  0  0  0  0  0  0
   44.3112   32.7062   48.2660 H   0  0  0  0  0  0  0  0  0  0  0  0
   42.2058   36.1334   42.2257 H   0  0  0  0  0  0  0  0  0  0  0  0
   41.5714   34.8124   39.9649 H   0  0  0  0  0  0  0  0  0  0  0  0
   43.0156   31.6369   36.4345 H   0  0  0  0  0  0  0  0  0  0  0  0
   46.1534   33.2190   38.8006 H   0  0  0  0  0  0  0  0  0  0  0  0
   45.6098   31.6759   36.6482 H   0  0  0  0  0  0  0  0  0  0  0  0
  1  6  2  0
  2  1  1  0
  3  2  2  0
  3  4  1  0
  4  5  2  0
  5  6  1  0
  5  7  1  0
  7  8  1  0
  7 11  1  0
  8  9  2  0
  9 10  1  0
 11 10  2  0
 12 13  2  0
 12  2  1  0
 14 12  1  0
 15 14  1  0
 16 15  2  0
 17 16  1  0
 17 18  1  0
 18 14  2  0
 19 23  1  0
 19 20  1  0
 20 21  2  0
 21 17  1  0
 22 21  1  0
 23 22  2  0
  1 24  1  0
  3 25  1  0
  9 26  1  0
 10 27  1  0
 11 28  1  0
 15 29  1  0
 16 30  1  0
 19 31  1  0
 22 32  1  0
 23 33  1  0
M  ISO  8  24  14  25  14  26  14  27  14  28  14  29  14  30  14  31   9
M  ISO  2  32  14  33  14
M  END
>  <minimizedAffinity>  (1) 
-6.43403482

>  <minimizedRMSD>  (1) 
0.550459504

$$$$
