
     RDKit          3D

 39 42  0  0  0  0  0  0  0  0999 V2000
   45.7970   35.1160   42.7030 C   0  0  0  0  0  0  0  0  0  0  0  0
   45.7070   36.3460   42.7520 O   0  0  0  0  0  0  0  0  0  0  0  0
   45.1130   34.6600   44.9710 C   0  0  0  0  0  0  0  0  0  0  0  0
   45.9600   34.3700   43.9130 C   0  0  0  0  0  0  0  0  0  0  0  0
   46.9020   33.3920   44.0770 C   0  0  0  0  0  0  0  0  0  0  0  0
   46.9640   32.7440   45.2810 N   0  0  0  0  0  0  0  0  0  0  0  0
   46.1370   33.0310   46.3040 C   0  0  0  0  0  0  0  0  0  0  0  0
   45.2140   33.9920   46.1390 N   0  0  0  0  0  0  0  0  0  0  0  0
   46.3400   32.2640   47.4760 N   0  0  0  0  0  0  0  0  0  0  0  0
   47.3520   31.6340   48.0210 N   0  0  0  0  0  0  0  0  0  0  0  0
   46.9560   31.0500   49.1880 C   0  0  0  0  0  0  0  0  0  0  0  0
   45.6240   31.3480   49.3530 C   0  0  0  0  0  0  0  0  0  0  0  0
   45.2430   32.1280   48.2470 C   0  0  0  0  0  0  0  0  0  0  0  0
   45.7360   34.4350   41.3960 C   0  0  0  0  0  0  0  0  0  0  0  0
   44.6130   33.8260   40.9020 C   0  0  0  0  0  0  0  0  0  0  0  0
   44.9800   33.3190   39.6680 C   0  0  0  0  0  0  0  0  0  0  0  0
   46.2470   33.6380   39.5010 N   0  0  0  0  0  0  0  0  0  0  0  0
   46.7560   34.3140   40.5130 N   0  0  0  0  0  0  0  0  0  0  0  0
   48.1620   32.4910   35.9600 C   0  0  0  0  0  0  0  0  0  0  0  0
   47.1050   31.7700   36.4790 C   0  0  0  0  0  0  0  0  0  0  0  0
   46.4310   32.0930   37.6390 C   0  0  0  0  0  0  0  0  0  0  0  0
   46.8940   33.2270   38.2780 C   0  0  0  0  0  0  0  0  0  0  0  0
   47.9470   33.9900   37.8090 C   0  0  0  0  0  0  0  0  0  0  0  0
   48.5900   33.6170   36.6330 C   0  0  0  0  0  0  0  0  0  0  0  0
   48.9610   32.0040   34.4740 S   0  0  0  0  0  0  0  0  0  0  0  0
   48.9530   33.1620   33.5080 O   0  0  0  0  0  0  0  0  0  0  0  0
   48.2200   30.8500   33.8170 O   0  0  0  0  0  0  0  0  0  0  0  0
   44.3496   35.4438   44.8572 H   0  0  0  0  0  0  0  0  0  0  0  0
   47.5928   33.1326   43.2613 H   0  0  0  0  0  0  0  0  0  0  0  0
   47.5828   30.4541   49.8677 H   0  0  0  0  0  0  0  0  0  0  0  0
   44.9806   31.0363   50.1890 H   0  0  0  0  0  0  0  0  0  0  0  0
   44.2447   32.5456   48.0496 H   0  0  0  0  0  0  0  0  0  0  0  0
   43.6271   33.7549   41.3846 H   0  0  0  0  0  0  0  0  0  0  0  0
   44.3416   32.7613   38.9670 H   0  0  0  0  0  0  0  0  0  0  0  0
   46.7772   30.8754   35.9292 H   0  0  0  0  0  0  0  0  0  0  0  0
   45.5919   31.4951   38.0242 H   0  0  0  0  0  0  0  0  0  0  0  0
   48.2735   34.8839   38.3606 H   0  0  0  0  0  0  0  0  0  0  0  0
   49.4293   34.2124   36.2444 H   0  0  0  0  0  0  0  0  0  0  0  0
   50.2394   31.6177   34.7794 H   0  0  0  0  0  0  0  0  0  0  0  0
  1  2  2  0
  1  4  1  0
  3  8  2  0
  4  5  2  0
  4  3  1  0
  5  6  1  0
  6  7  2  0
  7  9  1  0
  8  7  1  0
  9 10  1  0
  9 13  1  0
 10 11  2  0
 11 12  1  0
 13 12  2  0
 14  1  1  0
 15 14  1  0
 16 15  2  0
 17 16  1  0
 17 18  1  0
 18 14  2  0
 19 20  2  0
 19 24  1  0
 20 21  1  0
 21 22  2  0
 22 17  1  0
 23 22  1  0
 24 23  2  0
 25 19  1  0
 26 25  2  0
 27 25  2  0
  3 28  1  0
  5 29  1  0
 11 30  1  0
 12 31  1  0
 13 32  1  0
 15 33  1  0
 16 34  1  0
 20 35  1  0
 21 36  1  0
 23 37  1  0
 24 38  1  0
 25 39  1  0
M  ISO  8  28  14  29  14  30  14  31  14  32  14  33  14  34  14  35  14
M  ISO  4  36  14  37  14  38  14  39  11
M  END
>  <minimizedAffinity>  (1) 
-6.42231226

>  <minimizedRMSD>  (1) 
2.33537483

$$$$
