
     RDKit          3D

 34 37  0  0  0  0  0  0  0  0999 V2000
   44.7090   35.0450   45.3160 C   0  0  0  0  0  0  0  0  0  0  0  0
   45.4260   34.8860   44.1420 C   0  0  0  0  0  0  0  0  0  0  0  0
   46.4030   33.9370   44.0890 C   0  0  0  0  0  0  0  0  0  0  0  0
   46.6340   33.1790   45.2060 N   0  0  0  0  0  0  0  0  0  0  0  0
   45.9430   33.3330   46.3370 C   0  0  0  0  0  0  0  0  0  0  0  0
   44.9650   34.2790   46.3980 N   0  0  0  0  0  0  0  0  0  0  0  0
   46.3040   32.4710   47.4000 N   0  0  0  0  0  0  0  0  0  0  0  0
   47.3930   31.8250   47.7580 N   0  0  0  0  0  0  0  0  0  0  0  0
   47.1480   31.1290   48.9020 C   0  0  0  0  0  0  0  0  0  0  0  0
   45.8350   31.3630   49.2670 C   0  0  0  0  0  0  0  0  0  0  0  0
   45.3230   32.2230   48.2870 C   0  0  0  0  0  0  0  0  0  0  0  0
   45.0910   35.7400   43.0390 C   0  0  0  0  0  0  0  0  0  0  0  0
   45.2990   36.9490   43.1180 O   0  0  0  0  0  0  0  0  0  0  0  0
   44.4970   35.1780   41.8040 C   0  0  0  0  0  0  0  0  0  0  0  0
   43.2510   35.5130   41.3380 C   0  0  0  0  0  0  0  0  0  0  0  0
   43.0750   34.7830   40.1830 C   0  0  0  0  0  0  0  0  0  0  0  0
   44.1930   34.0830   40.0350 N   0  0  0  0  0  0  0  0  0  0  0  0
   45.0940   34.2740   40.9800 N   0  0  0  0  0  0  0  0  0  0  0  0
   44.3850   33.1890   38.9230 C   0  0  0  0  0  0  0  0  0  0  0  0
   43.3490   32.4750   38.3560 C   0  0  0  0  0  0  0  0  0  0  0  0
   43.5660   31.6180   37.2820 C   0  0  0  0  0  0  0  0  0  0  0  0
   44.8360   31.5030   36.8030 N   0  0  0  0  0  0  0  0  0  0  0  0
   45.8320   32.2080   37.3700 C   0  0  0  0  0  0  0  0  0  0  0  0
   45.6470   33.0560   38.4240 N   0  0  0  0  0  0  0  0  0  0  0  0
   43.9181   35.8077   45.3679 H   0  0  0  0  0  0  0  0  0  0  0  0
   46.9911   33.7838   43.1721 H   0  0  0  0  0  0  0  0  0  0  0  0
   47.8667   30.4935   49.4402 H   0  0  0  0  0  0  0  0  0  0  0  0
   45.3046   30.9592   50.1420 H   0  0  0  0  0  0  0  0  0  0  0  0
   44.2997   32.6247   48.2492 H   0  0  0  0  0  0  0  0  0  0  0  0
   42.5397   36.2184   41.7924 H   0  0  0  0  0  0  0  0  0  0  0  0
   42.1947   34.7807   39.5234 H   0  0  0  0  0  0  0  0  0  0  0  0
   42.3323   32.5857   38.7611 H   0  0  0  0  0  0  0  0  0  0  0  0
   42.7374   31.0505   36.8332 H   0  0  0  0  0  0  0  0  0  0  0  0
   46.8478   32.0953   36.9633 H   0  0  0  0  0  0  0  0  0  0  0  0
  1  6  2  0
  2  1  1  0
  3  2  2  0
  3  4  1  0
  4  5  2  0
  5  6  1  0
  5  7  1  0
  7  8  1  0
  7 11  1  0
  8  9  2  0
  9 10  1  0
 11 10  2  0
 12 13  2  0
 12  2  1  0
 14 12  1  0
 15 14  1  0
 16 15  2  0
 17 16  1  0
 17 18  1  0
 18 14  2  0
 19 17  1  0
 20 19  2  0
 21 20  1  0
 22 21  2  0
 22 23  1  0
 23 24  2  0
 24 19  1  0
  1 25  1  0
  3 26  1  0
  9 27  1  0
 10 28  1  0
 11 29  1  0
 15 30  1  0
 16 31  1  0
 20 32  1  0
 21 33  1  0
 23 34  1  0
M  ISO  8  25  14  26  14  27  14  28  14  29  14  30  14  31  14  32  14
M  ISO  2  33  14  34  14
M  END
>  <minimizedAffinity>  (1) 
-6.12216997

>  <minimizedRMSD>  (1) 
0.308468431

$$$$
