
     RDKit          3D

 39 42  0  0  0  0  0  0  0  0999 V2000
   44.5780   35.2030   45.2880 C   0  0  0  0  0  0  0  0  0  0  0  0
   45.1240   34.9670   44.0330 C   0  0  0  0  0  0  0  0  0  0  0  0
   46.0240   33.9510   43.8870 C   0  0  0  0  0  0  0  0  0  0  0  0
   46.3440   33.2140   44.9950 N   0  0  0  0  0  0  0  0  0  0  0  0
   45.8090   33.4530   46.2050 C   0  0  0  0  0  0  0  0  0  0  0  0
   44.9160   34.4570   46.3590 N   0  0  0  0  0  0  0  0  0  0  0  0
   46.2680   32.5770   47.2340 N   0  0  0  0  0  0  0  0  0  0  0  0
   47.3410   31.8610   47.4600 N   0  0  0  0  0  0  0  0  0  0  0  0
   47.2310   31.2050   48.6310 C   0  0  0  0  0  0  0  0  0  0  0  0
   46.0020   31.5470   49.1520 C   0  0  0  0  0  0  0  0  0  0  0  0
   45.4000   32.4200   48.2530 C   0  0  0  0  0  0  0  0  0  0  0  0
   44.6940   35.8200   42.9640 C   0  0  0  0  0  0  0  0  0  0  0  0
   45.1610   36.9660   42.8560 O   0  0  0  0  0  0  0  0  0  0  0  0
   43.7010   35.3520   41.9810 C   0  0  0  0  0  0  0  0  0  0  0  0
   42.3810   35.1490   42.2570 C   0  0  0  0  0  0  0  0  0  0  0  0
   41.8140   34.7170   41.0730 C   0  0  0  0  0  0  0  0  0  0  0  0
   42.7910   34.6890   40.1900 N   0  0  0  0  0  0  0  0  0  0  0  0
   43.9660   35.0660   40.6830 N   0  0  0  0  0  0  0  0  0  0  0  0
   42.5330   34.2730   38.8170 C   0  0  0  0  0  0  0  0  0  0  0  0
   42.5990   35.4490   37.8660 C   0  0  0  0  0  0  0  0  0  0  0  0
   41.2680   36.1510   38.0200 C   0  0  0  0  0  0  0  0  0  0  0  0
   40.4260   35.2930   38.9400 C   0  0  0  0  0  0  0  0  0  0  0  0
   41.0410   33.9310   38.7130 C   0  0  0  0  0  0  0  0  0  0  0  0
   43.8512   36.0194   45.4114 H   0  0  0  0  0  0  0  0  0  0  0  0
   46.4779   33.7315   42.9093 H   0  0  0  0  0  0  0  0  0  0  0  0
   47.9741   30.5306   49.0817 H   0  0  0  0  0  0  0  0  0  0  0  0
   45.5762   31.1946   50.1030 H   0  0  0  0  0  0  0  0  0  0  0  0
   44.4105   32.8899   48.3535 H   0  0  0  0  0  0  0  0  0  0  0  0
   41.8732   35.2981   43.2213 H   0  0  0  0  0  0  0  0  0  0  0  0
   40.7605   34.4506   40.9026 H   0  0  0  0  0  0  0  0  0  0  0  0
   43.2501   33.4725   38.5824 H   0  0  0  0  0  0  0  0  0  0  0  0
   42.7360   35.1023   36.8311 H   0  0  0  0  0  0  0  0  0  0  0  0
   43.4459   36.1145   38.0894 H   0  0  0  0  0  0  0  0  0  0  0  0
   41.4144   37.1482   38.4606 H   0  0  0  0  0  0  0  0  0  0  0  0
   40.7767   36.2847   37.0449 H   0  0  0  0  0  0  0  0  0  0  0  0
   40.5237   35.6100   39.9888 H   0  0  0  0  0  0  0  0  0  0  0  0
   39.3455   35.3403   38.7392 H   0  0  0  0  0  0  0  0  0  0  0  0
   40.7849   33.5307   37.7209 H   0  0  0  0  0  0  0  0  0  0  0  0
   40.7005   33.1535   39.4126 H   0  0  0  0  0  0  0  0  0  0  0  0
  1  6  2  0
  2  1  1  0
  3  2  2  0
  3  4  1  0
  4  5  2  0
  5  6  1  0
  5  7  1  0
  7  8  1  0
  7 11  1  0
  8  9  2  0
  9 10  1  0
 11 10  2  0
 12  2  1  0
 13 12  2  0
 14 15  1  0
 14 12  1  0
 16 15  2  0
 17 18  1  0
 17 16  1  0
 18 14  2  0
 19 17  1  0
 20 21  1  0
 20 19  1  0
 21 22  1  0
 23 19  1  0
 23 22  1  0
  1 24  1  0
  3 25  1  0
  9 26  1  0
 10 27  1  0
 11 28  1  0
 15 29  1  0
 16 30  1  0
 19 31  1  0
 20 32  1  0
 20 33  1  0
 21 34  1  0
 21 35  1  0
 22 36  1  0
 22 37  1  0
 23 38  1  0
 23 39  1  0
M  ISO  8  24  14  25  14  26  14  27  14  28  14  29  14  30  14  31  13
M  ISO  8  32  13  33  13  34  13  35  13  36  13  37  13  38  13  39  13
M  END
>  <minimizedAffinity>  (1) 
-6.11008072

>  <minimizedRMSD>  (1) 
1.30244851

$$$$
