
     RDKit          3D

 40 42  0  0  1  0  0  0  0  0999 V2000
   48.0950   34.8000   41.3690 N   0  0  0  0  0  0  0  0  0  0  0  0
   49.3240   35.1770   42.0120 C   0  0  0  0  0  0  0  0  0  0  0  0
   50.2250   34.0670   42.4050 C   0  0  0  0  0  0  0  0  0  0  0  0
   49.3980   33.0600   42.9270 O   0  0  0  0  0  0  0  0  0  0  0  0
   48.8460   32.4840   41.7880 C   0  0  0  0  0  0  0  0  0  0  0  0
   48.0320   33.4580   40.9630 C   0  0  2  0  0  0  0  0  0  0  0  0
   48.4000   33.3620   39.5040 C   0  0  0  0  0  0  0  0  0  0  0  0
   49.0720   32.2640   38.9520 C   0  0  0  0  0  0  0  0  0  0  0  0
   49.3720   32.2560   37.6050 C   0  0  0  0  0  0  0  0  0  0  0  0
   49.0330   33.2850   36.7890 N   0  0  0  0  0  0  0  0  0  0  0  0
   48.3890   34.3230   37.3470 C   0  0  0  0  0  0  0  0  0  0  0  0
   48.0680   34.3870   38.6650 N   0  0  0  0  0  0  0  0  0  0  0  0
   46.9990   35.3900   42.0440 C   0  0  0  0  0  0  0  0  0  0  0  0
   45.7770   34.5270   42.2350 C   0  0  1  0  0  0  0  0  0  0  0  0
   44.7600   35.4430   44.3780 C   0  0  0  0  0  0  0  0  0  0  0  0
   45.5040   34.4410   43.6780 C   0  0  0  0  0  0  0  0  0  0  0  0
   45.9580   33.3850   44.4480 C   0  0  0  0  0  0  0  0  0  0  0  0
   45.6840   33.3600   45.7710 N   0  0  0  0  0  0  0  0  0  0  0  0
   44.9840   34.3130   46.3970 C   0  0  0  0  0  0  0  0  0  0  0  0
   44.5140   35.3720   45.6860 N   0  0  0  0  0  0  0  0  0  0  0  0
   44.5940   34.9970   41.4810 C   0  0  0  0  0  0  0  0  0  0  0  0
   49.8776   35.8299   41.3211 H   0  0  0  0  0  0  0  0  0  0  0  0
   49.0267   35.6619   42.9535 H   0  0  0  0  0  0  0  0  0  0  0  0
   50.7749   33.6932   41.5287 H   0  0  0  0  0  0  0  0  0  0  0  0
   50.9708   34.3971   43.1432 H   0  0  0  0  0  0  0  0  0  0  0  0
   49.6624   32.0932   41.1629 H   0  0  0  0  0  0  0  0  0  0  0  0
   48.1641   31.6878   42.1215 H   0  0  0  0  0  0  0  0  0  0  0  0
   46.9912   33.1443   41.1310 H   0  0  0  0  0  0  0  0  0  0  0  0
   49.3588   31.4136   39.5881 H   0  0  0  0  0  0  0  0  0  0  0  0
   49.9014   31.3901   37.1808 H   0  0  0  0  0  0  0  0  0  0  0  0
   48.1061   35.1674   36.7013 H   0  0  0  0  0  0  0  0  0  0  0  0
   47.3482   35.6986   43.0404 H   0  0  0  0  0  0  0  0  0  0  0  0
   46.6711   36.2161   41.3959 H   0  0  0  0  0  0  0  0  0  0  0  0
   45.9868   33.5295   41.8216 H   0  0  0  0  0  0  0  0  0  0  0  0
   44.3759   36.3060   43.8143 H   0  0  0  0  0  0  0  0  0  0  0  0
   46.5377   32.5719   43.9867 H   0  0  0  0  0  0  0  0  0  0  0  0
   44.7905   34.2402   47.4774 H   0  0  0  0  0  0  0  0  0  0  0  0
   43.8096   35.3086   42.1864 H   0  0  0  0  0  0  0  0  0  0  0  0
   44.8780   35.8506   40.8480 H   0  0  0  0  0  0  0  0  0  0  0  0
   44.2148   34.1812   40.8480 H   0  0  0  0  0  0  0  0  0  0  0  0
  1  2  1  0
  1 13  1  0
  2  3  1  0
  3  4  1  0
  5  4  1  0
  6  1  1  0
  6  5  1  0
  7  6  1  0
  8  7  2  0
  9  8  1  0
 10 11  1  0
 10  9  2  0
 11 12  2  0
 12  7  1  0
 13 14  1  0
 14 16  1  0
 15 20  2  0
 16 15  1  0
 16 17  2  0
 17 18  1  0
 18 19  2  0
 20 19  1  0
 21 14  1  0
  2 22  1  0
  2 23  1  0
  3 24  1  0
  3 25  1  0
  5 26  1  0
  5 27  1  0
  6 28  1  6
  8 29  1  0
  9 30  1  0
 11 31  1  0
 13 32  1  0
 13 33  1  0
 14 34  1  6
 15 35  1  0
 17 36  1  0
 19 37  1  0
 21 38  1  0
 21 39  1  0
 21 40  1  0
M  ISO  8  22  13  23  13  24  13  25  13  26  13  27  13  28  13  29  14
M  ISO  8  30  14  31  14  32   8  33   8  34   8  35  14  36  14  37  14
M  ISO  3  38   8  39   8  40   8
M  END
>  <minimizedAffinity>  (1) 
-5.11485243

>  <minimizedRMSD>  (1) 
1.06156111

$$$$
