
     RDKit          3D

 36 39  0  0  0  0  0  0  0  0999 V2000
   45.0640   35.7510   43.0140 C   0  0  0  0  0  0  0  0  0  0  0  0
   45.2980   36.9640   43.0760 O   0  0  0  0  0  0  0  0  0  0  0  0
   44.6950   35.0580   45.3010 C   0  0  0  0  0  0  0  0  0  0  0  0
   45.4110   34.8970   44.1150 C   0  0  0  0  0  0  0  0  0  0  0  0
   46.3950   33.9460   44.0540 C   0  0  0  0  0  0  0  0  0  0  0  0
   46.6200   33.2030   45.1780 N   0  0  0  0  0  0  0  0  0  0  0  0
   45.9370   33.3540   46.3140 C   0  0  0  0  0  0  0  0  0  0  0  0
   44.9580   34.2970   46.3800 N   0  0  0  0  0  0  0  0  0  0  0  0
   46.3020   32.4960   47.3840 N   0  0  0  0  0  0  0  0  0  0  0  0
   47.4020   31.8470   47.7170 N   0  0  0  0  0  0  0  0  0  0  0  0
   47.1790   31.1560   48.8750 C   0  0  0  0  0  0  0  0  0  0  0  0
   45.8810   31.4090   49.2470 C   0  0  0  0  0  0  0  0  0  0  0  0
   45.3380   32.2610   48.2890 C   0  0  0  0  0  0  0  0  0  0  0  0
   44.4310   35.2040   41.8010 C   0  0  0  0  0  0  0  0  0  0  0  0
   43.1750   35.5170   41.3640 C   0  0  0  0  0  0  0  0  0  0  0  0
   42.9870   34.7930   40.2140 C   0  0  0  0  0  0  0  0  0  0  0  0
   44.1070   34.1020   40.0220 N   0  0  0  0  0  0  0  0  0  0  0  0
   45.0320   34.3100   40.9600 N   0  0  0  0  0  0  0  0  0  0  0  0
   44.3740   33.2040   38.9430 C   0  0  0  0  0  0  0  0  0  0  0  0
   45.7440   33.0310   38.7190 C   0  0  0  0  0  0  0  0  0  0  0  0
   46.2130   32.1970   37.7130 C   0  0  0  0  0  0  0  0  0  0  0  0
   45.3010   31.5260   36.9220 C   0  0  0  0  0  0  0  0  0  0  0  0
   43.9410   31.7030   37.1500 C   0  0  0  0  0  0  0  0  0  0  0  0
   43.4770   32.5350   38.1540 C   0  0  0  0  0  0  0  0  0  0  0  0
   43.9026   35.8190   45.3557 H   0  0  0  0  0  0  0  0  0  0  0  0
   46.9806   33.7870   43.1365 H   0  0  0  0  0  0  0  0  0  0  0  0
   47.9008   30.5191   49.4073 H   0  0  0  0  0  0  0  0  0  0  0  0
   45.3670   31.0128   50.1352 H   0  0  0  0  0  0  0  0  0  0  0  0
   44.3148   32.6646   48.2759 H   0  0  0  0  0  0  0  0  0  0  0  0
   42.4612   36.2075   41.8370 H   0  0  0  0  0  0  0  0  0  0  0  0
   42.0895   34.7855   39.5780 H   0  0  0  0  0  0  0  0  0  0  0  0
   46.4651   33.5672   39.3535 H   0  0  0  0  0  0  0  0  0  0  0  0
   47.2935   32.0726   37.5486 H   0  0  0  0  0  0  0  0  0  0  0  0
   45.6473   30.8581   36.1195 H   0  0  0  0  0  0  0  0  0  0  0  0
   43.2166   31.1691   36.5174 H   0  0  0  0  0  0  0  0  0  0  0  0
   42.3961   32.6578   38.3168 H   0  0  0  0  0  0  0  0  0  0  0  0
  1  2  2  0
  1  4  1  0
  3  8  2  0
  4  3  1  0
  5  4  2  0
  5  6  1  0
  6  7  2  0
  7  8  1  0
  7  9  1  0
  9 10  1  0
  9 13  1  0
 10 11  2  0
 11 12  1  0
 13 12  2  0
 14  1  1  0
 15 14  1  0
 16 15  2  0
 17 16  1  0
 17 18  1  0
 18 14  2  0
 19 17  1  0
 20 19  2  0
 21 20  1  0
 22 23  1  0
 22 21  2  0
 23 24  2  0
 24 19  1  0
  3 25  1  0
  5 26  1  0
 11 27  1  0
 12 28  1  0
 13 29  1  0
 15 30  1  0
 16 31  1  0
 20 32  1  0
 21 33  1  0
 22 34  1  0
 23 35  1  0
 24 36  1  0
M  ISO  8  25  14  26  14  27  14  28  14  29  14  30  14  31  14  32  14
M  ISO  4  33  14  34  14  35  14  36  14
M  END
>  <minimizedAffinity>  (1) 
-6.15776491

>  <minimizedRMSD>  (1) 
0.376789123

$$$$
