
     RDKit          3D

 32 34  0  0  0  0  0  0  0  0999 V2000
   44.6140   35.1540   45.3050 C   0  0  0  0  0  0  0  0  0  0  0  0
   45.2660   34.9840   44.1010 C   0  0  0  0  0  0  0  0  0  0  0  0
   46.2380   34.0050   44.0010 C   0  0  0  0  0  0  0  0  0  0  0  0
   46.5060   33.2510   45.1060 N   0  0  0  0  0  0  0  0  0  0  0  0
   45.8600   33.4270   46.2770 C   0  0  0  0  0  0  0  0  0  0  0  0
   44.9040   34.3890   46.3770 N   0  0  0  0  0  0  0  0  0  0  0  0
   46.2690   32.5520   47.3200 N   0  0  0  0  0  0  0  0  0  0  0  0
   47.3530   31.8860   47.6260 N   0  0  0  0  0  0  0  0  0  0  0  0
   47.1600   31.1980   48.7680 C   0  0  0  0  0  0  0  0  0  0  0  0
   45.8740   31.4570   49.1910 C   0  0  0  0  0  0  0  0  0  0  0  0
   45.3240   32.3220   48.2550 C   0  0  0  0  0  0  0  0  0  0  0  0
   44.8940   35.8400   43.0150 C   0  0  0  0  0  0  0  0  0  0  0  0
   45.2350   37.0230   43.0160 O   0  0  0  0  0  0  0  0  0  0  0  0
   44.0980   35.3250   41.8770 C   0  0  0  0  0  0  0  0  0  0  0  0
   42.7670   35.5170   41.7180 C   0  0  0  0  0  0  0  0  0  0  0  0
   42.4350   34.8750   40.5400 C   0  0  0  0  0  0  0  0  0  0  0  0
   43.5550   34.3500   40.0770 N   0  0  0  0  0  0  0  0  0  0  0  0
   44.6090   34.5850   40.8430 N   0  0  0  0  0  0  0  0  0  0  0  0
   43.5650   33.5920   38.8300 C   0  0  0  0  0  0  0  0  0  0  0  0
   42.1310   33.1880   38.4900 C   0  0  0  0  0  0  0  0  0  0  0  0
   43.8403   35.9310   45.3924 H   0  0  0  0  0  0  0  0  0  0  0  0
   46.7793   33.8392   43.0578 H   0  0  0  0  0  0  0  0  0  0  0  0
   47.8931   30.5495   49.2700 H   0  0  0  0  0  0  0  0  0  0  0  0
   45.3820   31.0581   50.0903 H   0  0  0  0  0  0  0  0  0  0  0  0
   44.3073   32.7416   48.2724 H   0  0  0  0  0  0  0  0  0  0  0  0
   42.0907   36.0691   42.3872 H   0  0  0  0  0  0  0  0  0  0  0  0
   41.4376   34.8136   40.0801 H   0  0  0  0  0  0  0  0  0  0  0  0
   43.9755   34.2149   38.0216 H   0  0  0  0  0  0  0  0  0  0  0  0
   44.1904   32.6941   38.9425 H   0  0  0  0  0  0  0  0  0  0  0  0
   41.5648   33.0285   39.4195 H   0  0  0  0  0  0  0  0  0  0  0  0
   41.6544   33.9868   37.9029 H   0  0  0  0  0  0  0  0  0  0  0  0
   42.1415   32.2579   37.9029 H   0  0  0  0  0  0  0  0  0  0  0  0
  1  6  2  0
  2  1  1  0
  3  2  2  0
  3  4  1  0
  4  5  2  0
  5  6  1  0
  5  7  1  0
  7  8  1  0
  7 11  1  0
  8  9  2  0
  9 10  1  0
 11 10  2  0
 12 13  2  0
 12  2  1  0
 14 12  1  0
 15 14  1  0
 16 15  2  0
 17 16  1  0
 17 18  1  0
 18 14  2  0
 19 17  1  0
 20 19  1  0
  1 21  1  0
  3 22  1  0
  9 23  1  0
 10 24  1  0
 11 25  1  0
 15 26  1  0
 16 27  1  0
 19 28  1  0
 19 29  1  0
 20 30  1  0
 20 31  1  0
 20 32  1  0
M  ISO  8  21  14  22  14  23  14  24  14  25  14  26  14  27  14  28   8
M  ISO  4  29   8  30   8  31   8  32   8
M  END
>  <minimizedAffinity>  (1) 
-5.60695267

>  <minimizedRMSD>  (1) 
0.570555806

$$$$
