
     RDKit          3D

 33 36  0  0  0  0  0  0  0  0999 V2000
   44.6850   35.0890   45.2730 C   0  0  0  0  0  0  0  0  0  0  0  0
   45.3800   34.9320   44.0950 C   0  0  0  0  0  0  0  0  0  0  0  0
   46.3650   33.9710   44.0230 C   0  0  0  0  0  0  0  0  0  0  0  0
   46.5990   33.2170   45.1440 N   0  0  0  0  0  0  0  0  0  0  0  0
   45.9190   33.3750   46.2850 C   0  0  0  0  0  0  0  0  0  0  0  0
   44.9460   34.3250   46.3560 N   0  0  0  0  0  0  0  0  0  0  0  0
   46.2880   32.5130   47.3450 N   0  0  0  0  0  0  0  0  0  0  0  0
   47.3830   31.8490   47.6820 N   0  0  0  0  0  0  0  0  0  0  0  0
   47.1630   31.1690   48.8250 C   0  0  0  0  0  0  0  0  0  0  0  0
   45.8530   31.4260   49.2220 C   0  0  0  0  0  0  0  0  0  0  0  0
   45.3340   32.2880   48.2490 C   0  0  0  0  0  0  0  0  0  0  0  0
   45.0370   35.7870   42.9940 C   0  0  0  0  0  0  0  0  0  0  0  0
   45.2980   36.9900   43.0470 O   0  0  0  0  0  0  0  0  0  0  0  0
   44.3710   35.2370   41.7940 C   0  0  0  0  0  0  0  0  0  0  0  0
   43.1000   35.5230   41.4130 C   0  0  0  0  0  0  0  0  0  0  0  0
   42.8550   34.8210   40.2620 C   0  0  0  0  0  0  0  0  0  0  0  0
   43.9830   34.1650   40.0250 N   0  0  0  0  0  0  0  0  0  0  0  0
   44.9460   34.3630   40.9030 N   0  0  0  0  0  0  0  0  0  0  0  0
   44.2650   33.2710   38.9250 C   0  0  0  0  0  0  0  0  0  0  0  0
   43.5510   32.4370   38.0620 C   0  0  0  0  0  0  0  0  0  0  0  0
   44.4750   31.8540   37.2220 C   0  0  0  0  0  0  0  0  0  0  0  0
   45.7060   32.3490   37.5990 C   0  0  0  0  0  0  0  0  0  0  0  0
   45.5490   33.1670   38.5870 O   0  0  0  0  0  0  0  0  0  0  0  0
   43.8981   35.8552   45.3338 H   0  0  0  0  0  0  0  0  0  0  0  0
   46.9424   33.8145   43.0999 H   0  0  0  0  0  0  0  0  0  0  0  0
   47.8868   30.5275   49.3490 H   0  0  0  0  0  0  0  0  0  0  0  0
   45.3363   31.0349   50.1109 H   0  0  0  0  0  0  0  0  0  0  0  0
   44.3169   32.7066   48.2329 H   0  0  0  0  0  0  0  0  0  0  0  0
   42.3981   36.1929   41.9312 H   0  0  0  0  0  0  0  0  0  0  0  0
   41.9296   34.8051   39.6675 H   0  0  0  0  0  0  0  0  0  0  0  0
   42.4628   32.2766   38.0542 H   0  0  0  0  0  0  0  0  0  0  0  0
   44.2715   31.1373   36.4127 H   0  0  0  0  0  0  0  0  0  0  0  0
   46.6679   32.0890   37.1330 H   0  0  0  0  0  0  0  0  0  0  0  0
  1  6  2  0
  2  1  1  0
  3  2  2  0
  3  4  1  0
  4  5  2  0
  5  6  1  0
  5  7  1  0
  7  8  1  0
  7 11  1  0
  8  9  2  0
  9 10  1  0
 11 10  2  0
 12 13  2  0
 12  2  1  0
 14 12  1  0
 15 14  1  0
 16 15  2  0
 17 16  1  0
 17 18  1  0
 18 14  2  0
 19 17  1  0
 20 19  2  0
 21 22  2  0
 21 20  1  0
 22 23  1  0
 23 19  1  0
  1 24  1  0
  3 25  1  0
  9 26  1  0
 10 27  1  0
 11 28  1  0
 15 29  1  0
 16 30  1  0
 20 31  1  0
 21 32  1  0
 22 33  1  0
M  ISO  8  24  14  25  14  26  14  27  14  28  14  29  14  30  14  31  14
M  ISO  2  32  14  33  14
M  END
>  <minimizedAffinity>  (1) 
-5.99789572

>  <minimizedRMSD>  (1) 
0.444638968

$$$$
