
     RDKit          3D

 32 35  0  0  0  0  0  0  0  0999 V2000
   44.6820   35.0870   45.2820 C   0  0  0  0  0  0  0  0  0  0  0  0
   45.3760   34.9290   44.1020 C   0  0  0  0  0  0  0  0  0  0  0  0
   46.3650   33.9640   44.0420 C   0  0  0  0  0  0  0  0  0  0  0  0
   46.6030   33.2170   45.1530 N   0  0  0  0  0  0  0  0  0  0  0  0
   45.9220   33.3780   46.2960 C   0  0  0  0  0  0  0  0  0  0  0  0
   44.9510   34.3250   46.3590 N   0  0  0  0  0  0  0  0  0  0  0  0
   46.3000   32.5120   47.3590 N   0  0  0  0  0  0  0  0  0  0  0  0
   47.3920   31.8560   47.6930 N   0  0  0  0  0  0  0  0  0  0  0  0
   47.1740   31.1710   48.8320 C   0  0  0  0  0  0  0  0  0  0  0  0
   45.8710   31.4170   49.2260 C   0  0  0  0  0  0  0  0  0  0  0  0
   45.3270   32.2840   48.2600 C   0  0  0  0  0  0  0  0  0  0  0  0
   45.0330   35.7800   42.9920 C   0  0  0  0  0  0  0  0  0  0  0  0
   45.2810   36.9770   43.0460 O   0  0  0  0  0  0  0  0  0  0  0  0
   44.3900   35.2280   41.7960 C   0  0  0  0  0  0  0  0  0  0  0  0
   43.1370   35.5270   41.3790 C   0  0  0  0  0  0  0  0  0  0  0  0
   42.9060   34.8080   40.2260 C   0  0  0  0  0  0  0  0  0  0  0  0
   44.0350   34.1210   40.0200 N   0  0  0  0  0  0  0  0  0  0  0  0
   44.9650   34.3330   40.9320 N   0  0  0  0  0  0  0  0  0  0  0  0
   44.3570   33.2140   38.9700 C   0  0  0  0  0  0  0  0  0  0  0  0
   45.8210   32.9960   38.7930 C   0  0  0  0  0  0  0  0  0  0  0  0
   45.9510   31.7990   37.3920 S   0  0  0  0  0  0  0  0  0  0  0  0
   44.0520   31.7840   37.2710 C   0  0  0  0  0  0  0  0  0  0  0  0
   43.7070   32.4890   38.0820 N   0  0  0  0  0  0  0  0  0  0  0  0
   43.8928   35.8506   45.3453 H   0  0  0  0  0  0  0  0  0  0  0  0
   46.9436   33.8050   43.1201 H   0  0  0  0  0  0  0  0  0  0  0  0
   47.9007   30.5315   49.3545 H   0  0  0  0  0  0  0  0  0  0  0  0
   45.3625   31.0158   50.1151 H   0  0  0  0  0  0  0  0  0  0  0  0
   44.3066   32.6946   48.2446 H   0  0  0  0  0  0  0  0  0  0  0  0
   42.4337   36.2161   41.8695 H   0  0  0  0  0  0  0  0  0  0  0  0
   41.9941   34.8008   39.6108 H   0  0  0  0  0  0  0  0  0  0  0  0
   46.6420   33.4478   39.3690 H   0  0  0  0  0  0  0  0  0  0  0  0
   43.4284   31.2142   36.5664 H   0  0  0  0  0  0  0  0  0  0  0  0
  1  6  2  0
  2  1  1  0
  3  2  2  0
  3  4  1  0
  4  5  2  0
  5  6  1  0
  5  7  1  0
  7  8  1  0
  7 11  1  0
  8  9  2  0
  9 10  1  0
 11 10  2  0
 12 13  2  0
 12  2  1  0
 14 12  1  0
 15 14  1  0
 16 15  2  0
 17 16  1  0
 17 18  1  0
 18 14  2  0
 19 17  1  0
 20 19  2  0
 21 20  1  0
 22 21  1  0
 22 23  2  0
 23 19  1  0
  1 24  1  0
  3 25  1  0
  9 26  1  0
 10 27  1  0
 11 28  1  0
 15 29  1  0
 16 30  1  0
 20 31  1  0
 22 32  1  0
M  ISO  8  24  14  25  14  26  14  27  14  28  14  29  14  30  14  31  14
M  ISO  1  32  14
M  END
>  <minimizedAffinity>  (1) 
-5.98541594

>  <minimizedRMSD>  (1) 
0.492179722

$$$$
