
     RDKit          3D

 35 37  0  0  0  0  0  0  0  0999 V2000
   44.6530   35.1110   45.2840 C   0  0  0  0  0  0  0  0  0  0  0  0
   45.3300   34.9450   44.0950 C   0  0  0  0  0  0  0  0  0  0  0  0
   46.3110   33.9760   44.0170 C   0  0  0  0  0  0  0  0  0  0  0  0
   46.5600   33.2300   45.1370 N   0  0  0  0  0  0  0  0  0  0  0  0
   45.8920   33.4060   46.2870 C   0  0  0  0  0  0  0  0  0  0  0  0
   44.9370   34.3500   46.3580 N   0  0  0  0  0  0  0  0  0  0  0  0
   46.2900   32.5350   47.3410 N   0  0  0  0  0  0  0  0  0  0  0  0
   47.3820   31.8780   47.6650 N   0  0  0  0  0  0  0  0  0  0  0  0
   47.1760   31.1910   48.8060 C   0  0  0  0  0  0  0  0  0  0  0  0
   45.8720   31.4420   49.2080 C   0  0  0  0  0  0  0  0  0  0  0  0
   45.3360   32.2980   48.2580 C   0  0  0  0  0  0  0  0  0  0  0  0
   44.9730   35.7920   42.9960 C   0  0  0  0  0  0  0  0  0  0  0  0
   45.2680   36.9940   43.0230 O   0  0  0  0  0  0  0  0  0  0  0  0
   44.2500   35.2520   41.8190 C   0  0  0  0  0  0  0  0  0  0  0  0
   42.9370   35.4930   41.5450 C   0  0  0  0  0  0  0  0  0  0  0  0
   42.6670   34.8140   40.3780 C   0  0  0  0  0  0  0  0  0  0  0  0
   43.8040   34.2250   40.0370 N   0  0  0  0  0  0  0  0  0  0  0  0
   44.8010   34.4540   40.8730 N   0  0  0  0  0  0  0  0  0  0  0  0
   43.9300   33.4020   38.8440 C   0  0  0  0  0  0  0  0  0  0  0  0
   42.5810   32.7920   38.4620 C   0  0  0  0  0  0  0  0  0  0  0  0
   44.8480   32.2270   39.1770 C   0  0  0  0  0  0  0  0  0  0  0  0
   43.8677   35.8778   45.3568 H   0  0  0  0  0  0  0  0  0  0  0  0
   46.8731   33.8095   43.0862 H   0  0  0  0  0  0  0  0  0  0  0  0
   47.9060   30.5504   49.3225 H   0  0  0  0  0  0  0  0  0  0  0  0
   45.3661   31.0429   50.0995 H   0  0  0  0  0  0  0  0  0  0  0  0
   44.3155   32.7086   48.2552 H   0  0  0  0  0  0  0  0  0  0  0  0
   42.2374   36.1038   42.1344 H   0  0  0  0  0  0  0  0  0  0  0  0
   41.7080   34.7697   39.8410 H   0  0  0  0  0  0  0  0  0  0  0  0
   44.3126   34.0282   38.0246 H   0  0  0  0  0  0  0  0  0  0  0  0
   42.0214   32.5390   39.3746 H   0  0  0  0  0  0  0  0  0  0  0  0
   42.0055   33.5175   37.8683 H   0  0  0  0  0  0  0  0  0  0  0  0
   42.7456   31.8807   37.8683 H   0  0  0  0  0  0  0  0  0  0  0  0
   44.9291   32.1231   40.2691 H   0  0  0  0  0  0  0  0  0  0  0  0
   44.4301   31.3030   38.7508 H   0  0  0  0  0  0  0  0  0  0  0  0
   45.8456   32.4089   38.7508 H   0  0  0  0  0  0  0  0  0  0  0  0
  1  6  2  0
  2  1  1  0
  3  2  2  0
  3  4  1  0
  4  5  2  0
  5  6  1  0
  5  7  1  0
  7  8  1  0
  7 11  1  0
  8  9  2  0
  9 10  1  0
 11 10  2  0
 12 13  2  0
 12  2  1  0
 14 12  1  0
 15 14  1  0
 16 15  2  0
 17 16  1  0
 17 18  1  0
 18 14  2  0
 19 21  1  0
 19 17  1  0
 20 19  1  0
  1 22  1  0
  3 23  1  0
  9 24  1  0
 10 25  1  0
 11 26  1  0
 15 27  1  0
 16 28  1  0
 19 29  1  0
 20 30  1  0
 20 31  1  0
 20 32  1  0
 21 33  1  0
 21 34  1  0
 21 35  1  0
M  ISO  8  22  14  23  14  24  14  25  14  26  14  27  14  28  14  29   8
M  ISO  6  30   8  31   8  32   8  33   8  34   8  35   8
M  END
>  <minimizedAffinity>  (1) 
-5.68868732

>  <minimizedRMSD>  (1) 
0.505555212

$$$$
