
     RDKit          3D

 46 48  0  0  1  0  0  0  0  0999 V2000
   48.4500   34.4810   41.3260 N   0  0  0  0  0  0  0  0  0  0  0  0
   49.6800   34.6630   42.0580 C   0  0  0  0  0  0  0  0  0  0  0  0
   50.4570   33.4380   42.3500 C   0  0  0  0  0  0  0  0  0  0  0  0
   49.5140   32.4560   42.7040 O   0  0  0  0  0  0  0  0  0  0  0  0
   48.9760   32.0800   41.4730 C   0  0  0  0  0  0  0  0  0  0  0  0
   48.2710   33.2110   40.7490 C   0  0  2  0  0  0  0  0  0  0  0  0
   48.6350   33.1710   39.3200 N   0  0  0  0  0  0  0  0  0  0  0  0
   47.6390   32.2580   38.7360 C   0  0  0  0  0  0  0  0  0  0  0  0
   47.9110   32.1790   37.2610 C   0  0  0  0  0  0  0  0  0  0  0  0
   47.5800   33.4520   36.6700 N   0  0  0  0  0  0  0  0  0  0  0  0
   48.3530   34.5060   37.2960 C   0  0  0  0  0  0  0  0  0  0  0  0
   48.2170   34.4840   38.8000 C   0  0  0  0  0  0  0  0  0  0  0  0
   47.3850   35.0950   42.0340 C   0  0  0  0  0  0  0  0  0  0  0  0
   46.1230   34.2810   42.1810 C   0  0  1  0  0  0  0  0  0  0  0  0
   44.8550   35.4880   44.0320 C   0  0  0  0  0  0  0  0  0  0  0  0
   45.6700   34.4050   43.5720 C   0  0  0  0  0  0  0  0  0  0  0  0
   46.0160   33.4700   44.5370 C   0  0  0  0  0  0  0  0  0  0  0  0
   45.5720   33.6370   45.8070 N   0  0  0  0  0  0  0  0  0  0  0  0
   44.8080   34.6660   46.2040 C   0  0  0  0  0  0  0  0  0  0  0  0
   44.4480   35.6000   45.2970 N   0  0  0  0  0  0  0  0  0  0  0  0
   45.0640   34.6820   41.2250 C   0  0  0  0  0  0  0  0  0  0  0  0
   50.3228   35.3356   41.4711 H   0  0  0  0  0  0  0  0  0  0  0  0
   49.3812   35.0613   43.0388 H   0  0  0  0  0  0  0  0  0  0  0  0
   51.0218   33.1225   41.4604 H   0  0  0  0  0  0  0  0  0  0  0  0
   51.1860   33.6059   43.1565 H   0  0  0  0  0  0  0  0  0  0  0  0
   49.7926   31.7132   40.8338 H   0  0  0  0  0  0  0  0  0  0  0  0
   48.2218   31.3047   41.6732 H   0  0  0  0  0  0  0  0  0  0  0  0
   47.1889   33.0430   40.8536 H   0  0  0  0  0  0  0  0  0  0  0  0
   47.7325   31.2601   39.1894 H   0  0  0  0  0  0  0  0  0  0  0  0
   46.6192   32.6252   38.9233 H   0  0  0  0  0  0  0  0  0  0  0  0
   48.9744   31.9552   37.0905 H   0  0  0  0  0  0  0  0  0  0  0  0
   47.3050   31.3814   36.8064 H   0  0  0  0  0  0  0  0  0  0  0  0
   47.7925   33.4257   35.6625 H   0  0  0  0  0  0  0  0  0  0  0  0
   49.4129   34.3748   37.0324 H   0  0  0  0  0  0  0  0  0  0  0  0
   47.9717   35.4716   36.9324 H   0  0  0  0  0  0  0  0  0  0  0  0
   48.8531   35.2686   39.2356 H   0  0  0  0  0  0  0  0  0  0  0  0
   47.1666   34.6646   39.0722 H   0  0  0  0  0  0  0  0  0  0  0  0
   47.7485   35.3351   43.0441 H   0  0  0  0  0  0  0  0  0  0  0  0
   47.1004   35.9715   41.4334 H   0  0  0  0  0  0  0  0  0  0  0  0
   46.3424   33.2303   41.9403 H   0  0  0  0  0  0  0  0  0  0  0  0
   44.5513   36.2612   43.3110 H   0  0  0  0  0  0  0  0  0  0  0  0
   46.6424   32.6045   44.2750 H   0  0  0  0  0  0  0  0  0  0  0  0
   44.4802   34.7477   47.2508 H   0  0  0  0  0  0  0  0  0  0  0  0
   44.1763   35.0181   41.7809 H   0  0  0  0  0  0  0  0  0  0  0  0
   45.4329   35.5027   40.5922 H   0  0  0  0  0  0  0  0  0  0  0  0
   44.7968   33.8228   40.5922 H   0  0  0  0  0  0  0  0  0  0  0  0
  1 13  1  0
  1  2  1  0
  2  3  1  0
  3  4  1  0
  5  4  1  0
  6  1  1  0
  6  5  1  0
  7  6  1  0
  8  7  1  0
  9  8  1  0
 10  9  1  0
 10 11  1  0
 11 12  1  0
 12  7  1  0
 13 14  1  0
 14 16  1  0
 15 20  2  0
 16 15  1  0
 16 17  2  0
 17 18  1  0
 18 19  2  0
 20 19  1  0
 21 14  1  0
  2 22  1  0
  2 23  1  0
  3 24  1  0
  3 25  1  0
  5 26  1  0
  5 27  1  0
  6 28  1  6
  8 29  1  0
  8 30  1  0
  9 31  1  0
  9 32  1  0
 10 33  1  0
 11 34  1  0
 11 35  1  0
 12 36  1  0
 12 37  1  0
 13 38  1  0
 13 39  1  0
 14 40  1  6
 15 41  1  0
 17 42  1  0
 19 43  1  0
 21 44  1  0
 21 45  1  0
 21 46  1  0
M  ISO  8  22  13  23  13  24  13  25  13  26  13  27  13  28  13  29  13
M  ISO  8  30  13  31  13  32  13  33   5  34  13  35  13  36  13  37  13
M  ISO  8  38   8  39   8  40   8  41  14  42  14  43  14  44   8  45   8
M  ISO  1  46   8
M  END
>  <minimizedAffinity>  (1) 
-5.10215473

>  <minimizedRMSD>  (1) 
0.886279345

$$$$
