
     RDKit          3D

 47 49  0  0  1  0  0  0  0  0999 V2000
   45.5790   32.8980   41.2390 N   0  0  0  0  0  0  0  0  0  0  0  0
   45.2480   31.5690   40.8160 C   0  0  0  0  0  0  0  0  0  0  0  0
   45.6040   31.2190   39.4210 C   0  0  0  0  0  0  0  0  0  0  0  0
   45.2840   32.3510   38.6470 O   0  0  0  0  0  0  0  0  0  0  0  0
   46.3350   33.2340   38.9190 C   0  0  0  0  0  0  0  0  0  0  0  0
   46.4260   33.6110   40.3820 C   0  0  2  0  0  0  0  0  0  0  0  0
   47.8330   33.5370   40.8010 N   0  0  0  0  0  0  0  0  0  0  0  0
   47.9080   33.4640   42.2480 C   0  0  0  0  0  0  0  0  0  0  0  0
   49.3350   33.6720   42.6640 C   0  0  0  0  0  0  0  0  0  0  0  0
   49.7860   35.1030   42.4080 C   0  0  0  0  0  0  0  0  0  0  0  0
   48.7420   35.7190   41.5150 C   0  0  0  0  0  0  0  0  0  0  0  0
   48.4720   34.7760   40.3610 C   0  0  0  0  0  0  0  0  0  0  0  0
   44.4320   33.5280   41.7860 C   0  0  0  0  0  0  0  0  0  0  0  0
   44.2520   34.9940   41.4740 C   0  0  1  0  0  0  0  0  0  0  0  0
   41.7710   35.5230   41.6780 C   0  0  0  0  0  0  0  0  0  0  0  0
   42.9150   35.1690   40.8930 C   0  0  0  0  0  0  0  0  0  0  0  0
   42.6790   34.9940   39.5360 C   0  0  0  0  0  0  0  0  0  0  0  0
   41.4180   35.1670   39.0580 N   0  0  0  0  0  0  0  0  0  0  0  0
   40.3670   35.5000   39.8240 C   0  0  0  0  0  0  0  0  0  0  0  0
   40.5530   35.6820   41.1700 N   0  0  0  0  0  0  0  0  0  0  0  0
   44.4550   35.8700   42.6500 C   0  0  0  0  0  0  0  0  0  0  0  0
   45.7688   30.8653   41.4820 H   0  0  0  0  0  0  0  0  0  0  0  0
   44.1506   31.5095   40.8636 H   0  0  0  0  0  0  0  0  0  0  0  0
   46.6781   30.9942   39.3448 H   0  0  0  0  0  0  0  0  0  0  0  0
   45.0607   30.3267   39.0766 H   0  0  0  0  0  0  0  0  0  0  0  0
   47.2801   32.7569   38.6204 H   0  0  0  0  0  0  0  0  0  0  0  0
   46.1446   34.1573   38.3522 H   0  0  0  0  0  0  0  0  0  0  0  0
   46.0535   34.6422   40.4706 H   0  0  0  0  0  0  0  0  0  0  0  0
   47.2747   34.2462   42.6919 H   0  0  0  0  0  0  0  0  0  0  0  0
   47.5549   32.4813   42.5938 H   0  0  0  0  0  0  0  0  0  0  0  0
   49.4300   33.4537   43.7379 H   0  0  0  0  0  0  0  0  0  0  0  0
   49.9700   32.9978   42.0705 H   0  0  0  0  0  0  0  0  0  0  0  0
   49.8522   35.6573   43.3558 H   0  0  0  0  0  0  0  0  0  0  0  0
   50.7812   35.1321   41.9404 H   0  0  0  0  0  0  0  0  0  0  0  0
   47.8155   35.8805   42.0856 H   0  0  0  0  0  0  0  0  0  0  0  0
   49.0996   36.6864   41.1326 H   0  0  0  0  0  0  0  0  0  0  0  0
   49.4269   34.5290   39.8739 H   0  0  0  0  0  0  0  0  0  0  0  0
   47.7872   35.2812   39.6639 H   0  0  0  0  0  0  0  0  0  0  0  0
   43.5468   32.9954   41.4083 H   0  0  0  0  0  0  0  0  0  0  0  0
   44.5664   33.4782   42.8766 H   0  0  0  0  0  0  0  0  0  0  0  0
   45.0271   35.3022   40.7569 H   0  0  0  0  0  0  0  0  0  0  0  0
   41.9074   35.6713   42.7594 H   0  0  0  0  0  0  0  0  0  0  0  0
   43.5002   34.7194   38.8576 H   0  0  0  0  0  0  0  0  0  0  0  0
   39.3695   35.6252   39.3774 H   0  0  0  0  0  0  0  0  0  0  0  0
   44.3193   35.2844   43.5712 H   0  0  0  0  0  0  0  0  0  0  0  0
   45.4732   36.2855   42.6263 H   0  0  0  0  0  0  0  0  0  0  0  0
   43.7233   36.6910   42.6263 H   0  0  0  0  0  0  0  0  0  0  0  0
  1 13  1  0
  2  1  1  0
  3  2  1  0
  4  5  1  0
  4  3  1  0
  5  6  1  0
  6  7  1  0
  6  1  1  0
  7  8  1  0
  8  9  1  0
 10  9  1  0
 11 10  1  0
 12  7  1  0
 12 11  1  0
 14 13  1  0
 14 21  1  0
 16 14  1  0
 16 15  2  0
 17 16  1  0
 18 17  2  0
 18 19  1  0
 19 20  2  0
 20 15  1  0
  2 22  1  0
  2 23  1  0
  3 24  1  0
  3 25  1  0
  5 26  1  0
  5 27  1  0
  6 28  1  6
  8 29  1  0
  8 30  1  0
  9 31  1  0
  9 32  1  0
 10 33  1  0
 10 34  1  0
 11 35  1  0
 11 36  1  0
 12 37  1  0
 12 38  1  0
 13 39  1  0
 13 40  1  0
 14 41  1  6
 15 42  1  0
 17 43  1  0
 19 44  1  0
 21 45  1  0
 21 46  1  0
 21 47  1  0
M  ISO  8  22  13  23  13  24  13  25  13  26  13  27  13  28  13  29  13
M  ISO  8  30  13  31  13  32  13  33  13  34  13  35  13  36  13  37  13
M  ISO  8  38  13  39   8  40   8  41   8  42  14  43  14  44  14  45   8
M  ISO  2  46   8  47   8
M  END
>  <minimizedAffinity>  (1) 
-5.08860874

>  <minimizedRMSD>  (1) 
4.81150866

$$$$
