
     RDKit          3D

 46 50  0  0  1  0  0  0  0  0999 V2000
   43.7810   35.2800   41.9370 C   0  0  0  0  0  0  0  0  0  0  0  0
   42.4310   35.4910   42.0570 C   0  0  0  0  0  0  0  0  0  0  0  0
   41.8430   34.8860   40.9620 C   0  0  0  0  0  0  0  0  0  0  0  0
   42.8810   34.3680   40.2810 N   0  0  0  0  0  0  0  0  0  0  0  0
   44.0640   34.5640   40.8010 N   0  0  0  0  0  0  0  0  0  0  0  0
   43.7960   33.9930   38.0770 N   0  0  0  0  0  0  0  0  0  0  0  0
   44.9480   33.1260   38.2710 C   0  0  0  0  0  0  0  0  0  0  0  0
   44.4680   31.8740   38.9260 C   0  0  0  0  0  0  0  0  0  0  0  0
   43.0290   32.1360   39.2770 C   0  0  0  0  0  0  0  0  0  0  0  0
   42.7990   33.6070   39.0120 C   0  0  1  0  0  0  0  0  0  0  0  0
   41.4160   33.7400   38.4790 C   0  0  0  0  0  0  0  0  0  0  0  0
   40.6570   32.5810   38.5120 C   0  0  0  0  0  0  0  0  0  0  0  0
   39.3570   32.4470   38.0800 C   0  0  0  0  0  0  0  0  0  0  0  0
   38.7890   33.5770   37.5770 N   0  0  0  0  0  0  0  0  0  0  0  0
   39.5250   34.7260   37.5380 C   0  0  0  0  0  0  0  0  0  0  0  0
   40.7820   34.8330   37.9610 N   0  0  0  0  0  0  0  0  0  0  0  0
   44.7790   35.7670   42.9040 C   0  0  0  0  0  0  0  0  0  0  0  0
   45.2640   36.8890   42.7800 O   0  0  0  0  0  0  0  0  0  0  0  0
   44.6050   35.1570   45.2410 C   0  0  0  0  0  0  0  0  0  0  0  0
   45.1910   34.9250   44.0040 C   0  0  0  0  0  0  0  0  0  0  0  0
   46.1180   33.9230   43.8920 C   0  0  0  0  0  0  0  0  0  0  0  0
   46.4170   33.2030   45.0050 N   0  0  0  0  0  0  0  0  0  0  0  0
   45.8580   33.4210   46.1950 C   0  0  0  0  0  0  0  0  0  0  0  0
   44.9320   34.4170   46.3230 N   0  0  0  0  0  0  0  0  0  0  0  0
   46.2740   32.5890   47.2490 N   0  0  0  0  0  0  0  0  0  0  0  0
   47.3830   31.9100   47.5150 N   0  0  0  0  0  0  0  0  0  0  0  0
   47.2410   31.2580   48.6990 C   0  0  0  0  0  0  0  0  0  0  0  0
   45.9840   31.5560   49.1740 C   0  0  0  0  0  0  0  0  0  0  0  0
   45.3970   32.4020   48.2310 C   0  0  0  0  0  0  0  0  0  0  0  0
   41.9180   36.0340   42.8645 H   0  0  0  0  0  0  0  0  0  0  0  0
   40.7741   34.8390   40.7067 H   0  0  0  0  0  0  0  0  0  0  0  0
   44.0652   34.9742   38.2370 H   0  0  0  0  0  0  0  0  0  0  0  0
   45.4062   32.8887   37.2995 H   0  0  0  0  0  0  0  0  0  0  0  0
   45.7035   33.6233   38.8971 H   0  0  0  0  0  0  0  0  0  0  0  0
   44.5469   31.0225   38.2341 H   0  0  0  0  0  0  0  0  0  0  0  0
   45.0667   31.6199   39.8131 H   0  0  0  0  0  0  0  0  0  0  0  0
   42.3645   31.5254   38.6480 H   0  0  0  0  0  0  0  0  0  0  0  0
   42.8149   31.8760   40.3242 H   0  0  0  0  0  0  0  0  0  0  0  0
   41.1397   31.6820   38.9228 H   0  0  0  0  0  0  0  0  0  0  0  0
   38.8142   31.4920   38.1374 H   0  0  0  0  0  0  0  0  0  0  0  0
   39.0451   35.6269   37.1280 H   0  0  0  0  0  0  0  0  0  0  0  0
   43.8595   35.9595   45.3422 H   0  0  0  0  0  0  0  0  0  0  0  0
   46.6058   33.7075   42.9299 H   0  0  0  0  0  0  0  0  0  0  0  0
   47.9887   30.6143   49.1854 H   0  0  0  0  0  0  0  0  0  0  0  0
   45.5316   31.1985   50.1108 H   0  0  0  0  0  0  0  0  0  0  0  0
   44.3882   32.8366   48.2899 H   0  0  0  0  0  0  0  0  0  0  0  0
  1  2  1  0
  1 17  1  0
  3  2  2  0
  4  5  1  0
  4  3  1  0
  5  1  2  0
  6  7  1  0
  6 10  1  0
  7  8  1  0
  8  9  1  0
 10 11  1  0
 10  9  1  0
 10  4  1  1
 11 12  2  0
 13 12  1  0
 14 13  2  0
 15 14  1  0
 15 16  2  0
 16 11  1  0
 17 20  1  0
 18 17  2  0
 19 24  2  0
 20 19  1  0
 21 20  2  0
 21 22  1  0
 22 23  2  0
 23 24  1  0
 23 25  1  0
 25 26  1  0
 25 29  1  0
 26 27  2  0
 27 28  1  0
 29 28  2  0
  2 30  1  0
  3 31  1  0
  6 32  1  0
  7 33  1  0
  7 34  1  0
  8 35  1  0
  8 36  1  0
  9 37  1  0
  9 38  1  0
 12 39  1  0
 13 40  1  0
 15 41  1  0
 19 42  1  0
 21 43  1  0
 27 44  1  0
 28 45  1  0
 29 46  1  0
M  ISO  8  30  14  31  14  32   5  33  13  34  13  35  13  36  13  37  13
M  ISO  8  38  13  39  14  40  14  41  14  42  14  43  14  44  14  45  14
M  ISO  1  46  14
M  END
>  <minimizedAffinity>  (1) 
-6.95130444

>  <minimizedRMSD>  (1) 
1.28716433

$$$$
