
     RDKit          3D

 51 55  0  0  1  0  0  0  0  0999 V2000
   44.0580   35.1460   42.0630 C   0  0  0  0  0  0  0  0  0  0  0  0
   42.6950   35.3000   42.0190 C   0  0  0  0  0  0  0  0  0  0  0  0
   42.2640   34.6550   40.8720 C   0  0  0  0  0  0  0  0  0  0  0  0
   43.3760   34.1690   40.3200 N   0  0  0  0  0  0  0  0  0  0  0  0
   44.4780   34.4290   40.9840 N   0  0  0  0  0  0  0  0  0  0  0  0
   44.7840   33.4950   38.4690 N   0  0  0  0  0  0  0  0  0  0  0  0
   45.5930   32.3960   38.9650 C   0  0  0  0  0  0  0  0  0  0  0  0
   44.6580   31.3190   39.4190 C   0  0  0  0  0  0  0  0  0  0  0  0
   43.2790   31.9210   39.3380 C   0  0  0  0  0  0  0  0  0  0  0  0
   43.4930   33.3890   39.0700 C   0  0  1  0  0  0  0  0  0  0  0  0
   42.5440   33.9280   38.0940 N   0  0  0  0  0  0  0  0  0  0  0  0
   41.4230   33.0730   38.0580 C   0  0  0  0  0  0  0  0  0  0  0  0
   40.1200   33.6870   38.4880 C   0  0  0  0  0  0  0  0  0  0  0  0
   39.9490   34.9370   37.6320 C   0  0  0  0  0  0  0  0  0  0  0  0
   41.0140   35.8890   38.0870 C   0  0  0  0  0  0  0  0  0  0  0  0
   42.3660   35.3080   38.2820 C   0  0  0  0  0  0  0  0  0  0  0  0
   44.9030   35.6900   43.1330 C   0  0  0  0  0  0  0  0  0  0  0  0
   45.2510   36.8730   43.0950 O   0  0  0  0  0  0  0  0  0  0  0  0
   44.6510   35.0020   45.4420 C   0  0  0  0  0  0  0  0  0  0  0  0
   45.3240   34.8470   44.2240 C   0  0  0  0  0  0  0  0  0  0  0  0
   46.3190   33.9310   44.1300 C   0  0  0  0  0  0  0  0  0  0  0  0
   46.6330   33.1890   45.2280 N   0  0  0  0  0  0  0  0  0  0  0  0
   45.9980   33.3270   46.3980 C   0  0  0  0  0  0  0  0  0  0  0  0
   44.9870   34.2490   46.5140 N   0  0  0  0  0  0  0  0  0  0  0  0
   46.4340   32.4880   47.4460 N   0  0  0  0  0  0  0  0  0  0  0  0
   47.5640   31.8810   47.7420 N   0  0  0  0  0  0  0  0  0  0  0  0
   47.4280   31.1820   48.8960 C   0  0  0  0  0  0  0  0  0  0  0  0
   46.1270   31.3770   49.3330 C   0  0  0  0  0  0  0  0  0  0  0  0
   45.5230   32.2150   48.3830 C   0  0  0  0  0  0  0  0  0  0  0  0
   42.0684   35.8311   42.7507 H   0  0  0  0  0  0  0  0  0  0  0  0
   41.2332   34.5639   40.4991 H   0  0  0  0  0  0  0  0  0  0  0  0
   45.2176   34.3934   38.7253 H   0  0  0  0  0  0  0  0  0  0  0  0
   46.2427   32.0159   38.1629 H   0  0  0  0  0  0  0  0  0  0  0  0
   46.2327   32.7295   39.7954 H   0  0  0  0  0  0  0  0  0  0  0  0
   44.7335   30.4416   38.7599 H   0  0  0  0  0  0  0  0  0  0  0  0
   44.8942   30.9767   40.4374 H   0  0  0  0  0  0  0  0  0  0  0  0
   42.7065   31.4606   38.5193 H   0  0  0  0  0  0  0  0  0  0  0  0
   42.7073   31.7551   40.2630 H   0  0  0  0  0  0  0  0  0  0  0  0
   41.3034   32.7160   37.0244 H   0  0  0  0  0  0  0  0  0  0  0  0
   41.6320   32.2742   38.7848 H   0  0  0  0  0  0  0  0  0  0  0  0
   39.2901   32.9864   38.3135 H   0  0  0  0  0  0  0  0  0  0  0  0
   40.1198   33.9275   39.5614 H   0  0  0  0  0  0  0  0  0  0  0  0
   38.9517   35.3745   37.7870 H   0  0  0  0  0  0  0  0  0  0  0  0
   40.0386   34.7100   36.5594 H   0  0  0  0  0  0  0  0  0  0  0  0
   40.8060   36.9543   38.2657 H   0  0  0  0  0  0  0  0  0  0  0  0
   43.2138   35.9475   38.5688 H   0  0  0  0  0  0  0  0  0  0  0  0
   43.8421   35.7425   45.5277 H   0  0  0  0  0  0  0  0  0  0  0  0
   46.8627   33.7897   43.1843 H   0  0  0  0  0  0  0  0  0  0  0  0
   48.2017   30.5764   49.3905 H   0  0  0  0  0  0  0  0  0  0  0  0
   45.6630   30.9602   50.2390 H   0  0  0  0  0  0  0  0  0  0  0  0
   44.4859   32.5809   48.4062 H   0  0  0  0  0  0  0  0  0  0  0  0
  1 17  1  0
  2  1  1  0
  3  2  2  0
  4  3  1  0
  4  5  1  0
  5  1  2  0
  6  7  1  0
  6 10  1  0
  7  8  1  0
  9  8  1  0
 10 11  1  6
 10  9  1  0
 10  4  1  0
 11 16  1  0
 12 11  1  0
 12 13  1  0
 14 15  1  0
 14 13  1  0
 15 16  2  0
 17 20  1  0
 18 17  2  0
 19 24  2  0
 20 19  1  0
 21 20  2  0
 21 22  1  0
 22 23  2  0
 23 24  1  0
 23 25  1  0
 25 26  1  0
 25 29  1  0
 26 27  2  0
 27 28  1  0
 29 28  2  0
  2 30  1  0
  3 31  1  0
  6 32  1  0
  7 33  1  0
  7 34  1  0
  8 35  1  0
  8 36  1  0
  9 37  1  0
  9 38  1  0
 12 39  1  0
 12 40  1  0
 13 41  1  0
 13 42  1  0
 14 43  1  0
 14 44  1  0
 15 45  1  0
 16 46  1  0
 19 47  1  0
 21 48  1  0
 27 49  1  0
 28 50  1  0
 29 51  1  0
M  ISO  8  30  14  31  14  32   5  33  13  34  13  35  13  36  13  37  13
M  ISO  8  38  13  39  13  40  13  41  13  42  13  43  13  44  13  45  13
M  ISO  6  46  13  47  14  48  14  49  14  50  14  51  14
M  END
>  <minimizedAffinity>  (1) 
-6.96929359

>  <minimizedRMSD>  (1) 
0.592368782

$$$$
