
     RDKit          3D

 48 52  0  0  1  0  0  0  0  0999 V2000
   43.6920   35.1730   41.7830 C   0  0  0  0  0  0  0  0  0  0  0  0
   42.3320   35.2430   41.9190 C   0  0  0  0  0  0  0  0  0  0  0  0
   41.7990   34.6440   40.8040 C   0  0  0  0  0  0  0  0  0  0  0  0
   42.8580   34.2560   40.0800 N   0  0  0  0  0  0  0  0  0  0  0  0
   44.0200   34.5500   40.6230 N   0  0  0  0  0  0  0  0  0  0  0  0
   43.9420   33.9300   37.9540 N   0  0  0  0  0  0  0  0  0  0  0  0
   45.0120   32.9840   38.2050 C   0  0  0  0  0  0  0  0  0  0  0  0
   44.4040   31.7330   38.7470 C   0  0  0  0  0  0  0  0  0  0  0  0
   42.9550   32.0760   38.9760 C   0  0  0  0  0  0  0  0  0  0  0  0
   42.8270   33.5640   38.7900 C   0  0  1  0  0  0  0  0  0  0  0  0
   41.6340   33.8030   38.0580 N   0  0  0  0  0  0  0  0  0  0  0  0
   41.1220   35.1170   38.0230 C   0  0  0  0  0  0  0  0  0  0  0  0
   39.6010   35.0080   37.9100 C   0  0  0  0  0  0  0  0  0  0  0  0
   39.2790   33.5380   38.0130 C   0  0  0  0  0  0  0  0  0  0  0  0
   40.6120   32.8340   38.1630 C   0  0  0  0  0  0  0  0  0  0  0  0
   44.6530   35.7060   42.7750 C   0  0  0  0  0  0  0  0  0  0  0  0
   45.0720   36.8580   42.6500 O   0  0  0  0  0  0  0  0  0  0  0  0
   44.5760   35.2090   45.1320 C   0  0  0  0  0  0  0  0  0  0  0  0
   45.0890   34.8790   43.8730 C   0  0  0  0  0  0  0  0  0  0  0  0
   45.9410   33.8330   43.7500 C   0  0  0  0  0  0  0  0  0  0  0  0
   46.2720   33.1320   44.8760 N   0  0  0  0  0  0  0  0  0  0  0  0
   45.7840   33.4410   46.0940 C   0  0  0  0  0  0  0  0  0  0  0  0
   44.9290   34.4900   46.2230 N   0  0  0  0  0  0  0  0  0  0  0  0
   46.2230   32.6190   47.1520 N   0  0  0  0  0  0  0  0  0  0  0  0
   47.2980   31.9010   47.3890 N   0  0  0  0  0  0  0  0  0  0  0  0
   47.1960   31.2920   48.6010 C   0  0  0  0  0  0  0  0  0  0  0  0
   45.9720   31.6710   49.1310 C   0  0  0  0  0  0  0  0  0  0  0  0
   45.3820   32.5140   48.1850 C   0  0  0  0  0  0  0  0  0  0  0  0
   41.7758   35.6905   42.7559 H   0  0  0  0  0  0  0  0  0  0  0  0
   40.7349   34.5116   40.5587 H   0  0  0  0  0  0  0  0  0  0  0  0
   44.2555   34.8834   38.1854 H   0  0  0  0  0  0  0  0  0  0  0  0
   45.5440   32.7647   37.2675 H   0  0  0  0  0  0  0  0  0  0  0  0
   45.7310   33.4024   38.9248 H   0  0  0  0  0  0  0  0  0  0  0  0
   44.4976   30.9112   38.0218 H   0  0  0  0  0  0  0  0  0  0  0  0
   44.9011   31.3957   39.6685 H   0  0  0  0  0  0  0  0  0  0  0  0
   42.3210   31.5473   38.2490 H   0  0  0  0  0  0  0  0  0  0  0  0
   42.6319   31.7744   39.9833 H   0  0  0  0  0  0  0  0  0  0  0  0
   41.7079   36.0469   38.0685 H   0  0  0  0  0  0  0  0  0  0  0  0
   38.8865   35.8342   37.7800 H   0  0  0  0  0  0  0  0  0  0  0  0
   38.6432   33.3455   38.8897 H   0  0  0  0  0  0  0  0  0  0  0  0
   38.7291   33.1807   37.1298 H   0  0  0  0  0  0  0  0  0  0  0  0
   40.7280   32.0821   37.3686 H   0  0  0  0  0  0  0  0  0  0  0  0
   40.6672   32.3258   39.1370 H   0  0  0  0  0  0  0  0  0  0  0  0
   43.8826   36.0566   45.2357 H   0  0  0  0  0  0  0  0  0  0  0  0
   46.3556   33.5550   42.7698 H   0  0  0  0  0  0  0  0  0  0  0  0
   47.9387   30.6290   49.0688 H   0  0  0  0  0  0  0  0  0  0  0  0
   45.5501   31.3690   50.1009 H   0  0  0  0  0  0  0  0  0  0  0  0
   44.4010   33.0034   48.2748 H   0  0  0  0  0  0  0  0  0  0  0  0
  1  2  1  0
  1 16  1  0
  3  2  2  0
  4  5  1  0
  4  3  1  0
  5  1  2  0
  6  7  1  0
  6 10  1  0
  7  8  1  0
  8  9  1  0
 10 11  1  6
 10  9  1  0
 10  4  1  0
 11 15  1  0
 12 11  1  0
 13 14  1  0
 13 12  2  0
 14 15  1  0
 16 19  1  0
 17 16  2  0
 18 23  2  0
 19 18  1  0
 20 19  2  0
 20 21  1  0
 21 22  2  0
 22 23  1  0
 22 24  1  0
 24 25  1  0
 24 28  1  0
 25 26  2  0
 26 27  1  0
 28 27  2  0
  2 29  1  0
  3 30  1  0
  6 31  1  0
  7 32  1  0
  7 33  1  0
  8 34  1  0
  8 35  1  0
  9 36  1  0
  9 37  1  0
 12 38  1  0
 13 39  1  0
 14 40  1  0
 14 41  1  0
 15 42  1  0
 15 43  1  0
 18 44  1  0
 20 45  1  0
 26 46  1  0
 27 47  1  0
 28 48  1  0
M  ISO  8  29  14  30  14  31   5  32  13  33  13  34  13  35  13  36  13
M  ISO  8  37  13  38  13  39  13  40  13  41  13  42  13  43  13  44  14
M  ISO  4  45  14  46  14  47  14  48  14
M  END
>  <minimizedAffinity>  (1) 
-6.83665085

>  <minimizedRMSD>  (1) 
1.16251695

$$$$
