
     RDKit          3D

 45 49  0  0  1  0  0  0  0  0999 V2000
   43.7500   35.2770   41.9650 C   0  0  0  0  0  0  0  0  0  0  0  0
   42.4080   35.4560   42.1430 C   0  0  0  0  0  0  0  0  0  0  0  0
   41.7960   34.8820   41.0510 C   0  0  0  0  0  0  0  0  0  0  0  0
   42.7860   34.4050   40.3060 N   0  0  0  0  0  0  0  0  0  0  0  0
   43.9820   34.6090   40.7990 N   0  0  0  0  0  0  0  0  0  0  0  0
   43.6790   34.0880   38.0790 N   0  0  0  0  0  0  0  0  0  0  0  0
   44.8010   33.1920   38.2280 C   0  0  0  0  0  0  0  0  0  0  0  0
   44.3030   31.9200   38.8480 C   0  0  0  0  0  0  0  0  0  0  0  0
   42.8770   32.2040   39.2170 C   0  0  0  0  0  0  0  0  0  0  0  0
   42.6790   33.6990   39.0310 C   0  0  1  0  0  0  0  0  0  0  0  0
   41.3120   33.8780   38.4630 C   0  0  0  0  0  0  0  0  0  0  0  0
   40.7360   35.0080   37.9380 C   0  0  0  0  0  0  0  0  0  0  0  0
   39.4530   34.6290   37.5510 C   0  0  0  0  0  0  0  0  0  0  0  0
   39.2800   33.3230   37.8390 N   0  0  0  0  0  0  0  0  0  0  0  0
   40.3980   32.8830   38.3850 N   0  0  0  0  0  0  0  0  0  0  0  0
   44.7740   35.7450   42.9100 C   0  0  0  0  0  0  0  0  0  0  0  0
   45.2870   36.8610   42.7630 O   0  0  0  0  0  0  0  0  0  0  0  0
   44.6030   35.1470   45.2480 C   0  0  0  0  0  0  0  0  0  0  0  0
   45.1870   34.9170   44.0080 C   0  0  0  0  0  0  0  0  0  0  0  0
   46.1140   33.9250   43.8950 C   0  0  0  0  0  0  0  0  0  0  0  0
   46.4280   33.2010   45.0120 N   0  0  0  0  0  0  0  0  0  0  0  0
   45.8620   33.4280   46.2010 C   0  0  0  0  0  0  0  0  0  0  0  0
   44.9380   34.4110   46.3280 N   0  0  0  0  0  0  0  0  0  0  0  0
   46.3000   32.5880   47.2520 N   0  0  0  0  0  0  0  0  0  0  0  0
   47.4020   31.9120   47.5240 N   0  0  0  0  0  0  0  0  0  0  0  0
   47.2620   31.2610   48.7060 C   0  0  0  0  0  0  0  0  0  0  0  0
   46.0070   31.5550   49.1810 C   0  0  0  0  0  0  0  0  0  0  0  0
   45.4120   32.4030   48.2350 C   0  0  0  0  0  0  0  0  0  0  0  0
   41.9149   35.9578   42.9886 H   0  0  0  0  0  0  0  0  0  0  0  0
   40.7175   34.8299   40.8409 H   0  0  0  0  0  0  0  0  0  0  0  0
   43.9776   35.0569   38.2604 H   0  0  0  0  0  0  0  0  0  0  0  0
   45.2414   32.9790   37.2428 H   0  0  0  0  0  0  0  0  0  0  0  0
   45.5721   33.6498   38.8650 H   0  0  0  0  0  0  0  0  0  0  0  0
   44.3587   31.0905   38.1277 H   0  0  0  0  0  0  0  0  0  0  0  0
   44.9046   31.6201   39.7187 H   0  0  0  0  0  0  0  0  0  0  0  0
   42.1947   31.6446   38.5600 H   0  0  0  0  0  0  0  0  0  0  0  0
   42.6627   31.8976   40.2515 H   0  0  0  0  0  0  0  0  0  0  0  0
   41.1923   36.0044   37.8429 H   0  0  0  0  0  0  0  0  0  0  0  0
   38.7037   35.2870   37.0866 H   0  0  0  0  0  0  0  0  0  0  0  0
   38.4293   32.7692   37.6644 H   0  0  0  0  0  0  0  0  0  0  0  0
   43.8528   35.9449   45.3509 H   0  0  0  0  0  0  0  0  0  0  0  0
   46.5975   33.7119   42.9302 H   0  0  0  0  0  0  0  0  0  0  0  0
   48.0116   30.6192   49.1920 H   0  0  0  0  0  0  0  0  0  0  0  0
   45.5572   31.1962   50.1185 H   0  0  0  0  0  0  0  0  0  0  0  0
   44.4022   32.8356   48.2912 H   0  0  0  0  0  0  0  0  0  0  0  0
  1  2  1  0
  1 16  1  0
  3  2  2  0
  4  5  1  0
  4  3  1  0
  5  1  2  0
  6  7  1  0
  6 10  1  0
  7  8  1  0
  8  9  1  0
 10 11  1  0
 10  9  1  0
 10  4  1  1
 12 11  1  0
 13 14  1  0
 13 12  2  0
 14 15  1  0
 15 11  2  0
 16 19  1  0
 17 16  2  0
 18 23  2  0
 19 18  1  0
 20 19  2  0
 20 21  1  0
 21 22  2  0
 22 23  1  0
 22 24  1  0
 24 25  1  0
 24 28  1  0
 25 26  2  0
 26 27  1  0
 28 27  2  0
  2 29  1  0
  3 30  1  0
  6 31  1  0
  7 32  1  0
  7 33  1  0
  8 34  1  0
  8 35  1  0
  9 36  1  0
  9 37  1  0
 12 38  1  0
 13 39  1  0
 14 40  1  0
 18 41  1  0
 20 42  1  0
 26 43  1  0
 27 44  1  0
 28 45  1  0
M  ISO  8  29  14  30  14  31   5  32  13  33  13  34  13  35  13  36  13
M  ISO  8  37  13  38  14  39  14  40   9  41  14  42  14  43  14  44  14
M  ISO  1  45  14
M  END
>  <minimizedAffinity>  (1) 
-6.83165455

>  <minimizedRMSD>  (1) 
1.28149843

$$$$
