
     RDKit          3D

 51 55  0  0  1  0  0  0  0  0999 V2000
   43.8550   35.2810   41.9320 C   0  0  0  0  0  0  0  0  0  0  0  0
   42.5100   35.5960   41.9590 C   0  0  0  0  0  0  0  0  0  0  0  0
   41.9490   34.9520   40.8840 C   0  0  0  0  0  0  0  0  0  0  0  0
   42.9530   34.3080   40.2900 N   0  0  0  0  0  0  0  0  0  0  0  0
   44.1300   34.4640   40.8720 N   0  0  0  0  0  0  0  0  0  0  0  0
   43.7550   33.9330   38.0340 N   0  0  0  0  0  0  0  0  0  0  0  0
   45.0230   33.2600   38.1720 C   0  0  0  0  0  0  0  0  0  0  0  0
   44.8070   32.0040   38.9470 C   0  0  0  0  0  0  0  0  0  0  0  0
   43.3610   32.0660   39.4110 C   0  0  0  0  0  0  0  0  0  0  0  0
   42.9050   33.4580   39.0840 C   0  0  1  0  0  0  0  0  0  0  0  0
   41.5630   33.4650   38.6340 N   0  0  0  0  0  0  0  0  0  0  0  0
   40.6440   32.5580   39.1990 C   0  0  0  0  0  0  0  0  0  0  0  0
   39.5210   32.2870   38.2530 C   0  0  0  0  0  0  0  0  0  0  0  0
   39.0740   33.4060   37.5780 O   0  0  0  0  0  0  0  0  0  0  0  0
   39.5200   34.5930   38.1470 C   0  0  0  0  0  0  0  0  0  0  0  0
   41.0530   34.6690   38.1070 C   0  0  0  0  0  0  0  0  0  0  0  0
   44.8330   35.7700   42.9190 C   0  0  0  0  0  0  0  0  0  0  0  0
   45.3000   36.9020   42.8090 O   0  0  0  0  0  0  0  0  0  0  0  0
   44.6160   35.1460   45.2420 C   0  0  0  0  0  0  0  0  0  0  0  0
   45.2380   34.9180   44.0120 C   0  0  0  0  0  0  0  0  0  0  0  0
   46.1620   33.9350   43.9170 C   0  0  0  0  0  0  0  0  0  0  0  0
   46.4590   33.1960   45.0270 N   0  0  0  0  0  0  0  0  0  0  0  0
   45.8690   33.4070   46.2100 C   0  0  0  0  0  0  0  0  0  0  0  0
   44.9300   34.4000   46.3250 N   0  0  0  0  0  0  0  0  0  0  0  0
   46.2780   32.5670   47.2570 N   0  0  0  0  0  0  0  0  0  0  0  0
   47.3740   31.8880   47.5450 N   0  0  0  0  0  0  0  0  0  0  0  0
   47.2110   31.2280   48.7190 C   0  0  0  0  0  0  0  0  0  0  0  0
   45.9480   31.5180   49.1770 C   0  0  0  0  0  0  0  0  0  0  0  0
   45.3690   32.3800   48.2180 C   0  0  0  0  0  0  0  0  0  0  0  0
   41.9938   36.2330   42.6924 H   0  0  0  0  0  0  0  0  0  0  0  0
   40.8926   34.9650   40.5775 H   0  0  0  0  0  0  0  0  0  0  0  0
   43.8851   34.9512   38.1191 H   0  0  0  0  0  0  0  0  0  0  0  0
   45.4256   33.0183   37.1773 H   0  0  0  0  0  0  0  0  0  0  0  0
   45.7404   33.9088   38.6957 H   0  0  0  0  0  0  0  0  0  0  0  0
   44.9697   31.1236   38.3079 H   0  0  0  0  0  0  0  0  0  0  0  0
   45.5064   31.9164   39.7915 H   0  0  0  0  0  0  0  0  0  0  0  0
   42.7512   31.3239   38.8749 H   0  0  0  0  0  0  0  0  0  0  0  0
   43.2621   31.8410   40.4832 H   0  0  0  0  0  0  0  0  0  0  0  0
   41.1611   31.6140   39.4256 H   0  0  0  0  0  0  0  0  0  0  0  0
   40.2328   32.9982   40.1194 H   0  0  0  0  0  0  0  0  0  0  0  0
   39.8630   31.5494   37.5120 H   0  0  0  0  0  0  0  0  0  0  0  0
   38.6774   31.9205   38.8563 H   0  0  0  0  0  0  0  0  0  0  0  0
   39.1012   35.4421   37.5869 H   0  0  0  0  0  0  0  0  0  0  0  0
   39.1904   34.6293   39.1958 H   0  0  0  0  0  0  0  0  0  0  0  0
   41.3935   34.7958   37.0687 H   0  0  0  0  0  0  0  0  0  0  0  0
   41.4086   35.5257   38.6983 H   0  0  0  0  0  0  0  0  0  0  0  0
   43.8618   35.9419   45.3304 H   0  0  0  0  0  0  0  0  0  0  0  0
   46.6667   33.7336   42.9606 H   0  0  0  0  0  0  0  0  0  0  0  0
   47.9516   30.5813   49.2124 H   0  0  0  0  0  0  0  0  0  0  0  0
   45.4815   31.1527   50.1037 H   0  0  0  0  0  0  0  0  0  0  0  0
   44.3594   32.8152   48.2559 H   0  0  0  0  0  0  0  0  0  0  0  0
  1  2  1  0
  1 17  1  0
  3  2  2  0
  4  5  1  0
  4  3  1  0
  5  1  2  0
  6  7  1  0
  6 10  1  0
  7  8  1  0
  8  9  1  0
 10 11  1  6
 10  9  1  0
 10  4  1  0
 11 12  1  0
 13 12  1  0
 14 15  1  0
 14 13  1  0
 16 15  1  0
 16 11  1  0
 17 20  1  0
 18 17  2  0
 19 24  2  0
 20 19  1  0
 21 20  2  0
 21 22  1  0
 22 23  2  0
 23 24  1  0
 23 25  1  0
 25 26  1  0
 25 29  1  0
 26 27  2  0
 27 28  1  0
 29 28  2  0
  2 30  1  0
  3 31  1  0
  6 32  1  0
  7 33  1  0
  7 34  1  0
  8 35  1  0
  8 36  1  0
  9 37  1  0
  9 38  1  0
 12 39  1  0
 12 40  1  0
 13 41  1  0
 13 42  1  0
 15 43  1  0
 15 44  1  0
 16 45  1  0
 16 46  1  0
 19 47  1  0
 21 48  1  0
 27 49  1  0
 28 50  1  0
 29 51  1  0
M  ISO  8  30  14  31  14  32   5  33  13  34  13  35  13  36  13  37  13
M  ISO  8  38  13  39  13  40  13  41  13  42  13  43  13  44  13  45  13
M  ISO  6  46  13  47  14  48  14  49  14  50  14  51  14
M  END
>  <minimizedAffinity>  (1) 
-6.7711153

>  <minimizedRMSD>  (1) 
1.36889374

$$$$
