
     RDKit          3D

 48 50  0  0  1  0  0  0  0  0999 V2000
   48.2760   34.6050   41.4250 N   0  0  0  0  0  0  0  0  0  0  0  0
   49.5160   34.8990   42.0630 C   0  0  0  0  0  0  0  0  0  0  0  0
   50.3650   33.7260   42.3900 C   0  0  0  0  0  0  0  0  0  0  0  0
   49.4880   32.7470   42.8980 O   0  0  0  0  0  0  0  0  0  0  0  0
   48.8930   32.2430   41.7320 C   0  0  0  0  0  0  0  0  0  0  0  0
   48.1130   33.2760   40.9570 C   0  0  2  0  0  0  0  0  0  0  0  0
   48.5690   33.1960   39.5100 C   0  0  0  0  0  0  0  0  0  0  0  0
   48.2040   34.4630   38.7580 C   0  0  0  0  0  0  0  0  0  0  0  0
   48.2520   34.2450   37.2750 C   0  0  0  0  0  0  0  0  0  0  0  0
   47.2690   33.1950   36.8090 C   0  0  0  0  0  0  0  0  0  0  0  0
   46.7380   32.4730   38.0220 C   0  0  0  0  0  0  0  0  0  0  0  0
   47.9430   31.9820   38.8140 C   0  0  0  0  0  0  0  0  0  0  0  0
   47.2060   35.2270   42.1180 C   0  0  0  0  0  0  0  0  0  0  0  0
   45.9440   34.4190   42.2840 C   0  0  1  0  0  0  0  0  0  0  0  0
   44.7940   35.4290   44.3190 C   0  0  0  0  0  0  0  0  0  0  0  0
   45.5940   34.4100   43.7130 C   0  0  0  0  0  0  0  0  0  0  0  0
   46.0350   33.4000   44.5610 C   0  0  0  0  0  0  0  0  0  0  0  0
   45.6890   33.4420   45.8710 N   0  0  0  0  0  0  0  0  0  0  0  0
   44.9350   34.4140   46.4090 C   0  0  0  0  0  0  0  0  0  0  0  0
   44.4860   35.4140   45.6190 N   0  0  0  0  0  0  0  0  0  0  0  0
   44.8210   34.9150   41.4550 C   0  0  0  0  0  0  0  0  0  0  0  0
   50.0916   35.5575   41.3959 H   0  0  0  0  0  0  0  0  0  0  0  0
   49.2555   35.3592   43.0276 H   0  0  0  0  0  0  0  0  0  0  0  0
   50.8707   33.3553   41.4862 H   0  0  0  0  0  0  0  0  0  0  0  0
   51.1490   33.9838   43.1173 H   0  0  0  0  0  0  0  0  0  0  0  0
   49.6856   31.8452   41.0811 H   0  0  0  0  0  0  0  0  0  0  0  0
   48.1789   31.4666   42.0439 H   0  0  0  0  0  0  0  0  0  0  0  0
   47.0443   33.0471   41.0817 H   0  0  0  0  0  0  0  0  0  0  0  0
   49.6635   33.0859   39.5065 H   0  0  0  0  0  0  0  0  0  0  0  0
   47.1867   34.7693   39.0431 H   0  0  0  0  0  0  0  0  0  0  0  0
   48.9316   35.2455   39.0193 H   0  0  0  0  0  0  0  0  0  0  0  0
   48.0179   35.1947   36.7717 H   0  0  0  0  0  0  0  0  0  0  0  0
   49.2623   33.8903   37.0232 H   0  0  0  0  0  0  0  0  0  0  0  0
   46.4396   33.6753   36.2692 H   0  0  0  0  0  0  0  0  0  0  0  0
   47.7656   32.4845   36.1318 H   0  0  0  0  0  0  0  0  0  0  0  0
   46.1368   33.1593   38.6365 H   0  0  0  0  0  0  0  0  0  0  0  0
   46.0945   31.6313   37.7262 H   0  0  0  0  0  0  0  0  0  0  0  0
   47.6229   31.2439   39.5641 H   0  0  0  0  0  0  0  0  0  0  0  0
   48.6733   31.5016   38.1463 H   0  0  0  0  0  0  0  0  0  0  0  0
   47.5680   35.4894   43.1230 H   0  0  0  0  0  0  0  0  0  0  0  0
   46.9185   36.0857   41.4935 H   0  0  0  0  0  0  0  0  0  0  0  0
   46.1321   33.3957   41.9271 H   0  0  0  0  0  0  0  0  0  0  0  0
   44.4197   36.2529   43.6936 H   0  0  0  0  0  0  0  0  0  0  0  0
   46.6559   32.5785   44.1742 H   0  0  0  0  0  0  0  0  0  0  0  0
   44.6857   34.3964   47.4802 H   0  0  0  0  0  0  0  0  0  0  0  0
   44.0121   35.2723   42.1093 H   0  0  0  0  0  0  0  0  0  0  0  0
   45.1714   35.7421   40.8201 H   0  0  0  0  0  0  0  0  0  0  0  0
   44.4456   34.0990   40.8201 H   0  0  0  0  0  0  0  0  0  0  0  0
  1  2  1  0
  1 13  1  0
  2  3  1  0
  3  4  1  0
  5  4  1  0
  6  1  1  0
  6  5  1  0
  7  6  1  0
  8  7  1  0
  9  8  1  0
 10  9  1  0
 10 11  1  0
 11 12  1  0
 12  7  1  0
 13 14  1  0
 14 16  1  0
 15 20  2  0
 16 15  1  0
 16 17  2  0
 17 18  1  0
 18 19  2  0
 20 19  1  0
 21 14  1  0
  2 22  1  0
  2 23  1  0
  3 24  1  0
  3 25  1  0
  5 26  1  0
  5 27  1  0
  6 28  1  6
  7 29  1  0
  8 30  1  0
  8 31  1  0
  9 32  1  0
  9 33  1  0
 10 34  1  0
 10 35  1  0
 11 36  1  0
 11 37  1  0
 12 38  1  0
 12 39  1  0
 13 40  1  0
 13 41  1  0
 14 42  1  6
 15 43  1  0
 17 44  1  0
 19 45  1  0
 21 46  1  0
 21 47  1  0
 21 48  1  0
M  ISO  8  22  13  23  13  24  13  25  13  26  13  27  13  28  13  29  13
M  ISO  8  30  13  31  13  32  13  33  13  34  13  35  13  36  13  37  13
M  ISO  8  38  13  39  13  40   8  41   8  42   8  43  14  44  14  45  14
M  ISO  3  46   8  47   8  48   8
M  END
>  <minimizedAffinity>  (1) 
-5.03822136

>  <minimizedRMSD>  (1) 
1.40411556

$$$$
