
     RDKit          3D

 52 56  0  0  1  0  0  0  0  0999 V2000
   43.7340   35.1590   41.7890 C   0  0  0  0  0  0  0  0  0  0  0  0
   42.3640   35.2900   41.8990 C   0  0  0  0  0  0  0  0  0  0  0  0
   41.8380   34.6630   40.7930 C   0  0  0  0  0  0  0  0  0  0  0  0
   42.8980   34.2050   40.1040 N   0  0  0  0  0  0  0  0  0  0  0  0
   44.0640   34.4780   40.6610 N   0  0  0  0  0  0  0  0  0  0  0  0
   43.8680   33.9280   37.9130 N   0  0  0  0  0  0  0  0  0  0  0  0
   45.0710   33.1550   38.1070 C   0  0  0  0  0  0  0  0  0  0  0  0
   44.6940   31.8680   38.7500 C   0  0  0  0  0  0  0  0  0  0  0  0
   43.2220   32.0010   39.1030 C   0  0  0  0  0  0  0  0  0  0  0  0
   42.8920   33.4600   38.8400 C   0  0  1  0  0  0  0  0  0  0  0  0
   41.5670   33.5410   38.2990 N   0  0  0  0  0  0  0  0  0  0  0  0
   40.5950   32.7220   38.9500 C   0  0  0  0  0  0  0  0  0  0  0  0
   39.4470   32.4810   37.9780 C   0  0  0  0  0  0  0  0  0  0  0  0
   38.8790   33.7700   37.6360 N   0  0  0  0  0  0  0  0  0  0  0  0
   39.5410   34.8860   38.2370 C   0  0  0  0  0  0  0  0  0  0  0  0
   41.0510   34.8570   38.1090 C   0  0  0  0  0  0  0  0  0  0  0  0
   44.6900   35.6960   42.7800 C   0  0  0  0  0  0  0  0  0  0  0  0
   45.1150   36.8360   42.6610 O   0  0  0  0  0  0  0  0  0  0  0  0
   44.5940   35.1790   45.1400 C   0  0  0  0  0  0  0  0  0  0  0  0
   45.1200   34.8720   43.8850 C   0  0  0  0  0  0  0  0  0  0  0  0
   45.9860   33.8380   43.7790 C   0  0  0  0  0  0  0  0  0  0  0  0
   46.3080   33.1400   44.9050 N   0  0  0  0  0  0  0  0  0  0  0  0
   45.8080   33.4300   46.1100 C   0  0  0  0  0  0  0  0  0  0  0  0
   44.9390   34.4640   46.2320 N   0  0  0  0  0  0  0  0  0  0  0  0
   46.2400   32.6090   47.1750 N   0  0  0  0  0  0  0  0  0  0  0  0
   47.3200   31.9030   47.4230 N   0  0  0  0  0  0  0  0  0  0  0  0
   47.2050   31.2910   48.6300 C   0  0  0  0  0  0  0  0  0  0  0  0
   45.9840   31.6510   49.1370 C   0  0  0  0  0  0  0  0  0  0  0  0
   45.3830   32.4920   48.1960 C   0  0  0  0  0  0  0  0  0  0  0  0
   41.8079   35.7920   42.7045 H   0  0  0  0  0  0  0  0  0  0  0  0
   40.7754   34.5585   40.5284 H   0  0  0  0  0  0  0  0  0  0  0  0
   44.0618   34.9253   38.0826 H   0  0  0  0  0  0  0  0  0  0  0  0
   45.5500   32.9606   37.1360 H   0  0  0  0  0  0  0  0  0  0  0  0
   45.7797   33.7057   38.7429 H   0  0  0  0  0  0  0  0  0  0  0  0
   44.8472   31.0313   38.0525 H   0  0  0  0  0  0  0  0  0  0  0  0
   45.3081   31.6630   39.6393 H   0  0  0  0  0  0  0  0  0  0  0  0
   42.6099   31.3443   38.4673 H   0  0  0  0  0  0  0  0  0  0  0  0
   43.0157   31.7089   40.1433 H   0  0  0  0  0  0  0  0  0  0  0  0
   41.0487   31.7615   39.2357 H   0  0  0  0  0  0  0  0  0  0  0  0
   40.2253   33.2205   39.8582 H   0  0  0  0  0  0  0  0  0  0  0  0
   39.8225   31.9848   37.0709 H   0  0  0  0  0  0  0  0  0  0  0  0
   38.6844   31.8341   38.4363 H   0  0  0  0  0  0  0  0  0  0  0  0
   38.9249   33.8810   36.6130 H   0  0  0  0  0  0  0  0  0  0  0  0
   39.1720   35.8047   37.7577 H   0  0  0  0  0  0  0  0  0  0  0  0
   39.3147   34.8452   39.3127 H   0  0  0  0  0  0  0  0  0  0  0  0
   41.3314   35.2093   37.1054 H   0  0  0  0  0  0  0  0  0  0  0  0
   41.4756   35.5095   38.8862 H   0  0  0  0  0  0  0  0  0  0  0  0
   43.8876   36.0161   45.2414 H   0  0  0  0  0  0  0  0  0  0  0  0
   46.4208   33.5664   42.8057 H   0  0  0  0  0  0  0  0  0  0  0  0
   47.9473   30.6344   49.1074 H   0  0  0  0  0  0  0  0  0  0  0  0
   45.5577   31.3377   50.1014 H   0  0  0  0  0  0  0  0  0  0  0  0
   44.3943   32.9670   48.2790 H   0  0  0  0  0  0  0  0  0  0  0  0
  1  2  1  0
  1 17  1  0
  3  2  2  0
  4  5  1  0
  4  3  1  0
  5  1  2  0
  6  7  1  0
  6 10  1  0
  7  8  1  0
  8  9  1  0
 10 11  1  6
 10  9  1  0
 10  4  1  0
 11 12  1  0
 13 12  1  0
 14 13  1  0
 14 15  1  0
 16 15  1  0
 16 11  1  0
 17 20  1  0
 18 17  2  0
 19 24  2  0
 20 19  1  0
 21 20  2  0
 21 22  1  0
 22 23  2  0
 23 24  1  0
 23 25  1  0
 25 26  1  0
 25 29  1  0
 26 27  2  0
 27 28  1  0
 29 28  2  0
  2 30  1  0
  3 31  1  0
  6 32  1  0
  7 33  1  0
  7 34  1  0
  8 35  1  0
  8 36  1  0
  9 37  1  0
  9 38  1  0
 12 39  1  0
 12 40  1  0
 13 41  1  0
 13 42  1  0
 14 43  1  0
 15 44  1  0
 15 45  1  0
 16 46  1  0
 16 47  1  0
 19 48  1  0
 21 49  1  0
 27 50  1  0
 28 51  1  0
 29 52  1  0
M  ISO  8  30  14  31  14  32   5  33  13  34  13  35  13  36  13  37  13
M  ISO  8  38  13  39  13  40  13  41  13  42  13  43   5  44  13  45  13
M  ISO  7  46  13  47  13  48  14  49  14  50  14  51  14  52  14
M  END
>  <minimizedAffinity>  (1) 
-6.80192327

>  <minimizedRMSD>  (1) 
1.19851291

$$$$
