
     RDKit          3D

 45 49  0  0  1  0  0  0  0  0999 V2000
   43.7500   35.2880   41.9720 C   0  0  0  0  0  0  0  0  0  0  0  0
   42.4130   35.5280   42.1220 C   0  0  0  0  0  0  0  0  0  0  0  0
   41.8020   34.9290   41.0380 C   0  0  0  0  0  0  0  0  0  0  0  0
   42.7950   34.3880   40.3390 N   0  0  0  0  0  0  0  0  0  0  0  0
   44.0020   34.5640   40.8410 N   0  0  0  0  0  0  0  0  0  0  0  0
   43.6050   34.0690   38.0710 N   0  0  0  0  0  0  0  0  0  0  0  0
   44.8040   33.2750   38.1920 C   0  0  0  0  0  0  0  0  0  0  0  0
   44.4340   31.9930   38.8650 C   0  0  0  0  0  0  0  0  0  0  0  0
   42.9950   32.1780   39.3010 C   0  0  0  0  0  0  0  0  0  0  0  0
   42.6760   33.6280   39.0790 C   0  0  1  0  0  0  0  0  0  0  0  0
   41.3340   33.7840   38.5360 N   0  0  0  0  0  0  0  0  0  0  0  0
   40.3650   32.8610   38.5120 N   0  0  0  0  0  0  0  0  0  0  0  0
   39.2630   33.3300   37.9450 C   0  0  0  0  0  0  0  0  0  0  0  0
   39.4990   34.6470   37.5630 C   0  0  0  0  0  0  0  0  0  0  0  0
   40.8100   34.8780   37.9560 C   0  0  0  0  0  0  0  0  0  0  0  0
   44.7840   35.7590   42.9230 C   0  0  0  0  0  0  0  0  0  0  0  0
   45.2810   36.8680   42.7730 O   0  0  0  0  0  0  0  0  0  0  0  0
   44.6100   35.1500   45.2510 C   0  0  0  0  0  0  0  0  0  0  0  0
   45.2000   34.9150   44.0170 C   0  0  0  0  0  0  0  0  0  0  0  0
   46.1160   33.9260   43.9070 C   0  0  0  0  0  0  0  0  0  0  0  0
   46.4330   33.1880   45.0130 N   0  0  0  0  0  0  0  0  0  0  0  0
   45.8630   33.4160   46.2050 C   0  0  0  0  0  0  0  0  0  0  0  0
   44.9350   34.4100   46.3380 N   0  0  0  0  0  0  0  0  0  0  0  0
   46.2930   32.5700   47.2600 N   0  0  0  0  0  0  0  0  0  0  0  0
   47.3840   31.8910   47.5220 N   0  0  0  0  0  0  0  0  0  0  0  0
   47.2450   31.2400   48.7040 C   0  0  0  0  0  0  0  0  0  0  0  0
   45.9970   31.5440   49.1820 C   0  0  0  0  0  0  0  0  0  0  0  0
   45.4050   32.3980   48.2410 C   0  0  0  0  0  0  0  0  0  0  0  0
   41.9250   36.0829   42.9368 H   0  0  0  0  0  0  0  0  0  0  0  0
   40.7275   34.9048   40.8039 H   0  0  0  0  0  0  0  0  0  0  0  0
   43.8289   35.0642   38.2134 H   0  0  0  0  0  0  0  0  0  0  0  0
   45.2187   33.0683   37.1944 H   0  0  0  0  0  0  0  0  0  0  0  0
   45.5643   33.8122   38.7779 H   0  0  0  0  0  0  0  0  0  0  0  0
   44.5198   31.1498   38.1638 H   0  0  0  0  0  0  0  0  0  0  0  0
   45.0962   31.7666   39.7136 H   0  0  0  0  0  0  0  0  0  0  0  0
   42.3288   31.5438   38.6977 H   0  0  0  0  0  0  0  0  0  0  0  0
   42.8541   31.8921   40.3538 H   0  0  0  0  0  0  0  0  0  0  0  0
   38.3245   32.7746   37.8012 H   0  0  0  0  0  0  0  0  0  0  0  0
   38.8076   35.3430   37.0654 H   0  0  0  0  0  0  0  0  0  0  0  0
   41.3473   35.8271   37.8125 H   0  0  0  0  0  0  0  0  0  0  0  0
   43.8641   35.9526   45.3482 H   0  0  0  0  0  0  0  0  0  0  0  0
   46.5992   33.7184   42.9409 H   0  0  0  0  0  0  0  0  0  0  0  0
   47.9914   30.5919   49.1866 H   0  0  0  0  0  0  0  0  0  0  0  0
   45.5477   31.1875   50.1206 H   0  0  0  0  0  0  0  0  0  0  0  0
   44.4002   32.8417   48.3001 H   0  0  0  0  0  0  0  0  0  0  0  0
  1  2  1  0
  1 16  1  0
  3  2  2  0
  4  5  1  0
  4  3  1  0
  5  1  2  0
  6  7  1  0
  6 10  1  0
  7  8  1  0
  8  9  1  0
 10 11  1  6
 10  9  1  0
 10  4  1  0
 12 11  1  0
 13 12  2  0
 14 13  1  0
 14 15  2  0
 15 11  1  0
 16 19  1  0
 17 16  2  0
 18 23  2  0
 19 18  1  0
 20 19  2  0
 20 21  1  0
 21 22  2  0
 22 23  1  0
 22 24  1  0
 24 25  1  0
 24 28  1  0
 25 26  2  0
 26 27  1  0
 28 27  2  0
  2 29  1  0
  3 30  1  0
  6 31  1  0
  7 32  1  0
  7 33  1  0
  8 34  1  0
  8 35  1  0
  9 36  1  0
  9 37  1  0
 13 38  1  0
 14 39  1  0
 15 40  1  0
 18 41  1  0
 20 42  1  0
 26 43  1  0
 27 44  1  0
 28 45  1  0
M  ISO  8  29  14  30  14  31   5  32  13  33  13  34  13  35  13  36  13
M  ISO  8  37  13  38  14  39  14  40  14  41  14  42  14  43  14  44  14
M  ISO  1  45  14
M  END
>  <minimizedAffinity>  (1) 
-6.79499912

>  <minimizedRMSD>  (1) 
1.32702446

$$$$
