
     RDKit          3D

 45 49  0  0  1  0  0  0  0  0999 V2000
   43.7470   35.2810   41.9690 C   0  0  0  0  0  0  0  0  0  0  0  0
   42.4050   35.4980   42.1220 C   0  0  0  0  0  0  0  0  0  0  0  0
   41.7960   34.9080   41.0390 C   0  0  0  0  0  0  0  0  0  0  0  0
   42.7850   34.3870   40.3210 N   0  0  0  0  0  0  0  0  0  0  0  0
   43.9860   34.5790   40.8300 N   0  0  0  0  0  0  0  0  0  0  0  0
   43.6120   34.0790   38.0720 N   0  0  0  0  0  0  0  0  0  0  0  0
   44.8000   33.2740   38.1890 C   0  0  0  0  0  0  0  0  0  0  0  0
   44.4120   31.9870   38.8590 C   0  0  0  0  0  0  0  0  0  0  0  0
   42.9860   32.1760   39.2860 C   0  0  0  0  0  0  0  0  0  0  0  0
   42.6890   33.6490   39.0620 C   0  0  1  0  0  0  0  0  0  0  0  0
   41.3020   33.7920   38.5220 C   0  0  0  0  0  0  0  0  0  0  0  0
   40.7770   34.9320   37.9180 C   0  0  0  0  0  0  0  0  0  0  0  0
   39.4690   34.6480   37.5610 C   0  0  0  0  0  0  0  0  0  0  0  0
   39.3030   33.3540   37.9780 C   0  0  0  0  0  0  0  0  0  0  0  0
   40.3680   32.8430   38.5410 O   0  0  0  0  0  0  0  0  0  0  0  0
   44.7760   35.7530   42.9170 C   0  0  0  0  0  0  0  0  0  0  0  0
   45.2810   36.8680   42.7750 O   0  0  0  0  0  0  0  0  0  0  0  0
   44.6100   35.1460   45.2510 C   0  0  0  0  0  0  0  0  0  0  0  0
   45.1920   34.9170   44.0090 C   0  0  0  0  0  0  0  0  0  0  0  0
   46.1160   33.9240   43.8950 C   0  0  0  0  0  0  0  0  0  0  0  0
   46.4330   33.1920   45.0070 N   0  0  0  0  0  0  0  0  0  0  0  0
   45.8680   33.4170   46.2030 C   0  0  0  0  0  0  0  0  0  0  0  0
   44.9350   34.4180   46.3270 N   0  0  0  0  0  0  0  0  0  0  0  0
   46.3000   32.5790   47.2520 N   0  0  0  0  0  0  0  0  0  0  0  0
   47.3900   31.9060   47.5240 N   0  0  0  0  0  0  0  0  0  0  0  0
   47.2520   31.2480   48.7070 C   0  0  0  0  0  0  0  0  0  0  0  0
   45.9830   31.5450   49.1880 C   0  0  0  0  0  0  0  0  0  0  0  0
   45.4040   32.3990   48.2290 C   0  0  0  0  0  0  0  0  0  0  0  0
   41.9122   36.0360   42.9453 H   0  0  0  0  0  0  0  0  0  0  0  0
   40.7195   34.8746   40.8151 H   0  0  0  0  0  0  0  0  0  0  0  0
   43.8463   35.0710   38.2204 H   0  0  0  0  0  0  0  0  0  0  0  0
   45.2131   33.0675   37.1906 H   0  0  0  0  0  0  0  0  0  0  0  0
   45.5667   33.7998   38.7769 H   0  0  0  0  0  0  0  0  0  0  0  0
   44.4949   31.1460   38.1549 H   0  0  0  0  0  0  0  0  0  0  0  0
   45.0676   31.7549   39.7113 H   0  0  0  0  0  0  0  0  0  0  0  0
   42.3160   31.5514   38.6769 H   0  0  0  0  0  0  0  0  0  0  0  0
   42.8309   31.8825   40.3347 H   0  0  0  0  0  0  0  0  0  0  0  0
   41.3043   35.8834   37.7545 H   0  0  0  0  0  0  0  0  0  0  0  0
   38.7396   35.3036   37.0628 H   0  0  0  0  0  0  0  0  0  0  0  0
   38.3630   32.7968   37.8516 H   0  0  0  0  0  0  0  0  0  0  0  0
   43.8626   35.9467   45.3524 H   0  0  0  0  0  0  0  0  0  0  0  0
   46.5981   33.7142   42.9288 H   0  0  0  0  0  0  0  0  0  0  0  0
   48.0017   30.6041   49.1900 H   0  0  0  0  0  0  0  0  0  0  0  0
   45.5258   31.1879   50.1226 H   0  0  0  0  0  0  0  0  0  0  0  0
   44.3967   32.8386   48.2751 H   0  0  0  0  0  0  0  0  0  0  0  0
  1  2  1  0
  1 16  1  0
  3  2  2  0
  4  5  1  0
  4  3  1  0
  5  1  2  0
  6  7  1  0
  6 10  1  0
  7  8  1  0
  8  9  1  0
 10 11  1  0
 10  9  1  0
 10  4  1  1
 11 15  1  0
 12 11  2  0
 13 12  1  0
 13 14  2  0
 14 15  1  0
 16 19  1  0
 17 16  2  0
 18 23  2  0
 19 18  1  0
 20 19  2  0
 20 21  1  0
 21 22  2  0
 22 23  1  0
 22 24  1  0
 24 25  1  0
 24 28  1  0
 25 26  2  0
 26 27  1  0
 28 27  2  0
  2 29  1  0
  3 30  1  0
  6 31  1  0
  7 32  1  0
  7 33  1  0
  8 34  1  0
  8 35  1  0
  9 36  1  0
  9 37  1  0
 12 38  1  0
 13 39  1  0
 14 40  1  0
 18 41  1  0
 20 42  1  0
 26 43  1  0
 27 44  1  0
 28 45  1  0
M  ISO  8  29  14  30  14  31   5  32  13  33  13  34  13  35  13  36  13
M  ISO  8  37  13  38  14  39  14  40  14  41  14  42  14  43  14  44  14
M  ISO  1  45  14
M  END
>  <minimizedAffinity>  (1) 
-6.93196726

>  <minimizedRMSD>  (1) 
1.31871259

$$$$
