
     RDKit          3D

 45 49  0  0  1  0  0  0  0  0999 V2000
   43.7070   35.3160   42.0000 C   0  0  0  0  0  0  0  0  0  0  0  0
   42.3820   35.6160   42.1410 C   0  0  0  0  0  0  0  0  0  0  0  0
   41.7420   35.0170   41.0750 C   0  0  0  0  0  0  0  0  0  0  0  0
   42.7040   34.4160   40.3870 N   0  0  0  0  0  0  0  0  0  0  0  0
   43.9200   34.5520   40.8860 N   0  0  0  0  0  0  0  0  0  0  0  0
   43.4200   34.0600   38.0970 N   0  0  0  0  0  0  0  0  0  0  0  0
   44.6570   33.3160   38.1790 C   0  0  0  0  0  0  0  0  0  0  0  0
   44.3670   32.0370   38.8970 C   0  0  0  0  0  0  0  0  0  0  0  0
   42.9600   32.1820   39.4030 C   0  0  0  0  0  0  0  0  0  0  0  0
   42.5690   33.6280   39.1480 C   0  0  1  0  0  0  0  0  0  0  0  0
   41.1890   33.6140   38.6570 C   0  0  0  0  0  0  0  0  0  0  0  0
   40.2820   32.5870   38.7630 C   0  0  0  0  0  0  0  0  0  0  0  0
   39.0250   32.7090   38.2600 C   0  0  0  0  0  0  0  0  0  0  0  0
   38.7780   34.0470   37.6110 C   0  0  0  0  0  0  0  0  0  0  0  0
   40.4120   34.9760   37.8070 S   0  0  0  0  0  0  0  0  0  0  0  0
   44.7560   35.7660   42.9380 C   0  0  0  0  0  0  0  0  0  0  0  0
   45.2680   36.8780   42.7850 O   0  0  0  0  0  0  0  0  0  0  0  0
   44.6070   35.1590   45.2760 C   0  0  0  0  0  0  0  0  0  0  0  0
   45.1740   34.9130   44.0220 C   0  0  0  0  0  0  0  0  0  0  0  0
   46.0710   33.9050   43.8980 C   0  0  0  0  0  0  0  0  0  0  0  0
   46.3890   33.1640   44.9970 N   0  0  0  0  0  0  0  0  0  0  0  0
   45.8400   33.4040   46.2030 C   0  0  0  0  0  0  0  0  0  0  0  0
   44.9370   34.4150   46.3410 N   0  0  0  0  0  0  0  0  0  0  0  0
   46.2680   32.5530   47.2430 N   0  0  0  0  0  0  0  0  0  0  0  0
   47.3560   31.8580   47.4970 N   0  0  0  0  0  0  0  0  0  0  0  0
   47.2350   31.1950   48.6760 C   0  0  0  0  0  0  0  0  0  0  0  0
   45.9870   31.5110   49.1690 C   0  0  0  0  0  0  0  0  0  0  0  0
   45.3890   32.3830   48.2320 C   0  0  0  0  0  0  0  0  0  0  0  0
   41.9195   36.2130   42.9408 H   0  0  0  0  0  0  0  0  0  0  0  0
   40.6664   35.0342   40.8454 H   0  0  0  0  0  0  0  0  0  0  0  0
   43.6121   35.0671   38.1962 H   0  0  0  0  0  0  0  0  0  0  0  0
   45.0339   33.1018   37.1680 H   0  0  0  0  0  0  0  0  0  0  0  0
   45.4224   33.8959   38.7156 H   0  0  0  0  0  0  0  0  0  0  0  0
   44.4437   31.1821   38.2091 H   0  0  0  0  0  0  0  0  0  0  0  0
   45.0811   31.8515   39.7129 H   0  0  0  0  0  0  0  0  0  0  0  0
   42.2867   31.5027   38.8597 H   0  0  0  0  0  0  0  0  0  0  0  0
   42.8881   31.9280   40.4708 H   0  0  0  0  0  0  0  0  0  0  0  0
   40.5775   31.6524   39.2622 H   0  0  0  0  0  0  0  0  0  0  0  0
   38.2670   31.9141   38.3203 H   0  0  0  0  0  0  0  0  0  0  0  0
   37.8543   34.4027   37.1312 H   0  0  0  0  0  0  0  0  0  0  0  0
   43.8789   35.9756   45.3904 H   0  0  0  0  0  0  0  0  0  0  0  0
   46.5357   33.6879   42.9249 H   0  0  0  0  0  0  0  0  0  0  0  0
   47.9828   30.5377   49.1438 H   0  0  0  0  0  0  0  0  0  0  0  0
   45.5428   31.1535   50.1097 H   0  0  0  0  0  0  0  0  0  0  0  0
   44.3890   32.8356   48.3042 H   0  0  0  0  0  0  0  0  0  0  0  0
  1  2  1  0
  1 16  1  0
  3  2  2  0
  4  5  1  0
  4  3  1  0
  5  1  2  0
  6  7  1  0
  6 10  1  0
  7  8  1  0
  8  9  1  0
 10 11  1  0
 10  9  1  0
 10  4  1  1
 11 12  2  0
 13 12  1  0
 14 15  1  0
 14 13  2  0
 15 11  1  0
 16 19  1  0
 17 16  2  0
 18 23  2  0
 19 18  1  0
 20 19  2  0
 20 21  1  0
 21 22  2  0
 22 23  1  0
 22 24  1  0
 24 25  1  0
 24 28  1  0
 25 26  2  0
 26 27  1  0
 28 27  2  0
  2 29  1  0
  3 30  1  0
  6 31  1  0
  7 32  1  0
  7 33  1  0
  8 34  1  0
  8 35  1  0
  9 36  1  0
  9 37  1  0
 12 38  1  0
 13 39  1  0
 14 40  1  0
 18 41  1  0
 20 42  1  0
 26 43  1  0
 27 44  1  0
 28 45  1  0
M  ISO  8  29  14  30  14  31   5  32  13  33  13  34  13  35  13  36  13
M  ISO  8  37  13  38  14  39  14  40  14  41  14  42  14  43  14  44  14
M  ISO  1  45  14
M  END
>  <minimizedAffinity>  (1) 
-6.72179651

>  <minimizedRMSD>  (1) 
1.48823082

$$$$
