
     RDKit          3D

 44 48  0  0  1  0  0  0  0  0999 V2000
   43.8010   35.2640   41.9460 C   0  0  0  0  0  0  0  0  0  0  0  0
   42.4560   35.4360   42.0760 C   0  0  0  0  0  0  0  0  0  0  0  0
   41.8750   34.8400   40.9850 C   0  0  0  0  0  0  0  0  0  0  0  0
   42.9130   34.3530   40.2790 N   0  0  0  0  0  0  0  0  0  0  0  0
   44.0970   34.5700   40.7960 N   0  0  0  0  0  0  0  0  0  0  0  0
   43.8600   33.9970   38.0850 N   0  0  0  0  0  0  0  0  0  0  0  0
   44.9940   33.1090   38.2930 C   0  0  0  0  0  0  0  0  0  0  0  0
   44.4790   31.8460   38.9170 C   0  0  0  0  0  0  0  0  0  0  0  0
   43.0300   32.1380   39.2340 C   0  0  0  0  0  0  0  0  0  0  0  0
   42.8450   33.6100   39.0000 C   0  0  1  0  0  0  0  0  0  0  0  0
   41.5530   33.9490   38.4290 N   0  0  0  0  0  0  0  0  0  0  0  0
   40.5050   33.1180   38.2780 C   0  0  0  0  0  0  0  0  0  0  0  0
   39.5230   33.8170   37.7180 N   0  0  0  0  0  0  0  0  0  0  0  0
   39.9270   35.0670   37.5130 C   0  0  0  0  0  0  0  0  0  0  0  0
   41.1960   35.1340   37.9620 N   0  0  0  0  0  0  0  0  0  0  0  0
   44.7950   35.7620   42.9200 C   0  0  0  0  0  0  0  0  0  0  0  0
   45.2620   36.8920   42.7940 O   0  0  0  0  0  0  0  0  0  0  0  0
   44.6080   35.1460   45.2470 C   0  0  0  0  0  0  0  0  0  0  0  0
   45.2160   34.9220   44.0160 C   0  0  0  0  0  0  0  0  0  0  0  0
   46.1610   33.9380   43.9080 C   0  0  0  0  0  0  0  0  0  0  0  0
   46.4710   33.2120   45.0230 N   0  0  0  0  0  0  0  0  0  0  0  0
   45.8900   33.4220   46.2070 C   0  0  0  0  0  0  0  0  0  0  0  0
   44.9420   34.4060   46.3260 N   0  0  0  0  0  0  0  0  0  0  0  0
   46.3150   32.5940   47.2590 N   0  0  0  0  0  0  0  0  0  0  0  0
   47.4160   31.9440   47.5410 N   0  0  0  0  0  0  0  0  0  0  0  0
   47.2710   31.2770   48.7350 C   0  0  0  0  0  0  0  0  0  0  0  0
   45.9890   31.5500   49.1960 C   0  0  0  0  0  0  0  0  0  0  0  0
   45.4100   32.3950   48.2250 C   0  0  0  0  0  0  0  0  0  0  0  0
   41.9363   35.9525   42.8965 H   0  0  0  0  0  0  0  0  0  0  0  0
   40.8041   34.7749   40.7422 H   0  0  0  0  0  0  0  0  0  0  0  0
   44.1396   34.9725   38.2611 H   0  0  0  0  0  0  0  0  0  0  0  0
   45.4731   32.8819   37.3292 H   0  0  0  0  0  0  0  0  0  0  0  0
   45.7394   33.5846   38.9473 H   0  0  0  0  0  0  0  0  0  0  0  0
   44.5602   31.0045   38.2133 H   0  0  0  0  0  0  0  0  0  0  0  0
   45.0515   31.5603   39.8118 H   0  0  0  0  0  0  0  0  0  0  0  0
   42.3695   31.5594   38.5715 H   0  0  0  0  0  0  0  0  0  0  0  0
   42.7791   31.8592   40.2681 H   0  0  0  0  0  0  0  0  0  0  0  0
   40.4681   32.0567   38.5650 H   0  0  0  0  0  0  0  0  0  0  0  0
   39.3418   35.8841   37.0658 H   0  0  0  0  0  0  0  0  0  0  0  0
   43.8469   35.9345   45.3425 H   0  0  0  0  0  0  0  0  0  0  0  0
   46.6584   33.7367   42.9477 H   0  0  0  0  0  0  0  0  0  0  0  0
   48.0254   30.6479   49.2301 H   0  0  0  0  0  0  0  0  0  0  0  0
   45.5232   31.1844   50.1230 H   0  0  0  0  0  0  0  0  0  0  0  0
   44.3942   32.8158   48.2565 H   0  0  0  0  0  0  0  0  0  0  0  0
  1  2  1  0
  1 16  1  0
  3  2  2  0
  4  5  1  0
  4  3  1  0
  5  1  2  0
  6  7  1  0
  6 10  1  0
  7  8  1  0
  8  9  1  0
 10 11  1  6
 10  9  1  0
 10  4  1  0
 12 11  1  0
 13 12  2  0
 14 13  1  0
 14 15  2  0
 15 11  1  0
 16 19  1  0
 17 16  2  0
 18 23  2  0
 19 18  1  0
 20 19  2  0
 20 21  1  0
 21 22  2  0
 22 23  1  0
 22 24  1  0
 24 25  1  0
 24 28  1  0
 25 26  2  0
 26 27  1  0
 28 27  2  0
  2 29  1  0
  3 30  1  0
  6 31  1  0
  7 32  1  0
  7 33  1  0
  8 34  1  0
  8 35  1  0
  9 36  1  0
  9 37  1  0
 12 38  1  0
 14 39  1  0
 18 40  1  0
 20 41  1  0
 26 42  1  0
 27 43  1  0
 28 44  1  0
M  ISO  8  29  14  30  14  31   5  32  13  33  13  34  13  35  13  36  13
M  ISO  8  37  13  38  14  39  14  40  14  41  14  42  14  43  14  44  14
M  END
>  <minimizedAffinity>  (1) 
-6.71875858

>  <minimizedRMSD>  (1) 
1.14438772

$$$$
