
     RDKit          3D

 39 42  0  0  1  0  0  0  0  0999 V2000
   43.8620   35.4090   41.9220 C   0  0  0  0  0  0  0  0  0  0  0  0
   42.5020   35.3300   42.0680 C   0  0  0  0  0  0  0  0  0  0  0  0
   42.0030   34.8400   40.8820 C   0  0  0  0  0  0  0  0  0  0  0  0
   43.0860   34.6610   40.1100 N   0  0  0  0  0  0  0  0  0  0  0  0
   44.2280   34.9800   40.6690 N   0  0  0  0  0  0  0  0  0  0  0  0
   44.3260   33.4790   38.4170 N   0  0  0  0  0  0  0  0  0  0  0  0
   44.1270   32.0610   38.7040 C   0  0  0  0  0  0  0  0  0  0  0  0
   42.6500   31.7870   38.6530 C   0  0  0  0  0  0  0  0  0  0  0  0
   41.9980   33.1470   38.5160 C   0  0  0  0  0  0  0  0  0  0  0  0
   43.1160   34.1520   38.7330 C   0  0  1  0  0  0  0  0  0  0  0  0
   42.8510   35.2320   37.8790 O   0  0  0  0  0  0  0  0  0  0  0  0
   44.7760   35.8910   42.9760 C   0  0  0  0  0  0  0  0  0  0  0  0
   45.1910   37.0400   42.9390 O   0  0  0  0  0  0  0  0  0  0  0  0
   44.5980   35.2280   45.2840 C   0  0  0  0  0  0  0  0  0  0  0  0
   45.1710   35.0040   44.0420 C   0  0  0  0  0  0  0  0  0  0  0  0
   46.0510   33.9850   43.9080 C   0  0  0  0  0  0  0  0  0  0  0  0
   46.3430   33.2190   44.9950 N   0  0  0  0  0  0  0  0  0  0  0  0
   45.7880   33.4350   46.1960 C   0  0  0  0  0  0  0  0  0  0  0  0
   44.9050   34.4510   46.3470 N   0  0  0  0  0  0  0  0  0  0  0  0
   46.1930   32.5520   47.2290 N   0  0  0  0  0  0  0  0  0  0  0  0
   47.2720   31.8320   47.4680 N   0  0  0  0  0  0  0  0  0  0  0  0
   47.1130   31.1560   48.6330 C   0  0  0  0  0  0  0  0  0  0  0  0
   45.8710   31.4830   49.1270 C   0  0  0  0  0  0  0  0  0  0  0  0
   45.3090   32.3750   48.2080 C   0  0  0  0  0  0  0  0  0  0  0  0
   41.9209   35.6050   42.9606 H   0  0  0  0  0  0  0  0  0  0  0  0
   40.9523   34.6401   40.6249 H   0  0  0  0  0  0  0  0  0  0  0  0
   45.0954   33.8498   38.9927 H   0  0  0  0  0  0  0  0  0  0  0  0
   44.6475   31.4499   37.9519 H   0  0  0  0  0  0  0  0  0  0  0  0
   44.5316   31.8082   39.6951 H   0  0  0  0  0  0  0  0  0  0  0  0
   42.4050   31.1530   37.7881 H   0  0  0  0  0  0  0  0  0  0  0  0
   42.3001   31.2518   39.5481 H   0  0  0  0  0  0  0  0  0  0  0  0
   41.5624   33.2660   37.5130 H   0  0  0  0  0  0  0  0  0  0  0  0
   41.1788   33.2832   39.2373 H   0  0  0  0  0  0  0  0  0  0  0  0
   42.6532   36.0383   38.4183 H   0  0  0  0  0  0  0  0  0  0  0  0
   43.8806   36.0527   45.4070 H   0  0  0  0  0  0  0  0  0  0  0  0
   46.5231   33.7787   42.9361 H   0  0  0  0  0  0  0  0  0  0  0  0
   47.8409   30.4738   49.0964 H   0  0  0  0  0  0  0  0  0  0  0  0
   45.4125   31.1166   50.0573 H   0  0  0  0  0  0  0  0  0  0  0  0
   44.3170   32.8447   48.2811 H   0  0  0  0  0  0  0  0  0  0  0  0
  1  2  1  0
  1 12  1  0
  3  2  2  0
  4  5  1  0
  4  3  1  0
  5  1  2  0
  6  7  1  0
  6 10  1  0
  8  7  1  0
  9  8  1  0
  9 10  1  0
 10 11  1  6
 10  4  1  0
 12 15  1  0
 13 12  2  0
 14 19  2  0
 15 14  1  0
 16 15  2  0
 16 17  1  0
 17 18  2  0
 18 19  1  0
 18 20  1  0
 20 21  1  0
 20 24  1  0
 21 22  2  0
 22 23  1  0
 24 23  2  0
  2 25  1  0
  3 26  1  0
  6 27  1  0
  7 28  1  0
  7 29  1  0
  8 30  1  0
  8 31  1  0
  9 32  1  0
  9 33  1  0
 11 34  1  0
 14 35  1  0
 16 36  1  0
 22 37  1  0
 23 38  1  0
 24 39  1  0
M  ISO  8  25  14  26  14  27   5  28  13  29  13  30  13  31  13  32  13
M  ISO  7  33  13  34   3  35  14  36  14  37  14  38  14  39  14
M  END
>  <minimizedAffinity>  (1) 
-6.43465042

>  <minimizedRMSD>  (1) 
1.16064489

$$$$
