
     RDKit          3D

 39 41  0  0  1  0  0  0  0  0999 V2000
   48.0840   34.9020   41.4320 N   0  0  0  0  0  0  0  0  0  0  0  0
   49.3440   35.1500   42.0880 C   0  0  0  0  0  0  0  0  0  0  0  0
   50.2020   33.9700   42.3290 C   0  0  0  0  0  0  0  0  0  0  0  0
   49.3360   32.9440   42.7550 O   0  0  0  0  0  0  0  0  0  0  0  0
   48.7330   32.5250   41.5670 C   0  0  0  0  0  0  0  0  0  0  0  0
   47.9480   33.6210   40.8830 C   0  0  2  0  0  0  0  0  0  0  0  0
   48.3340   33.6140   39.4350 C   0  0  0  0  0  0  0  0  0  0  0  0
   48.8670   32.5370   38.7550 C   0  0  0  0  0  0  0  0  0  0  0  0
   49.0940   32.8930   37.4630 N   0  0  0  0  0  0  0  0  0  0  0  0
   48.7120   34.1710   37.3270 C   0  0  0  0  0  0  0  0  0  0  0  0
   48.2560   34.6070   38.5050 N   0  0  0  0  0  0  0  0  0  0  0  0
   47.0350   35.4650   42.2020 C   0  0  0  0  0  0  0  0  0  0  0  0
   45.7930   34.6240   42.3650 C   0  0  1  0  0  0  0  0  0  0  0  0
   44.7880   35.2850   44.6090 C   0  0  0  0  0  0  0  0  0  0  0  0
   45.5780   34.4030   43.8050 C   0  0  0  0  0  0  0  0  0  0  0  0
   46.1420   33.3270   44.4650 C   0  0  0  0  0  0  0  0  0  0  0  0
   45.9120   33.1800   45.7950 N   0  0  0  0  0  0  0  0  0  0  0  0
   45.1770   34.0060   46.5240 C   0  0  0  0  0  0  0  0  0  0  0  0
   44.6020   35.0840   45.9140 N   0  0  0  0  0  0  0  0  0  0  0  0
   44.6050   35.2330   41.7230 C   0  0  0  0  0  0  0  0  0  0  0  0
   49.9127   35.8559   41.4649 H   0  0  0  0  0  0  0  0  0  0  0  0
   49.0841   35.5317   43.0864 H   0  0  0  0  0  0  0  0  0  0  0  0
   50.7172   33.6759   41.4027 H   0  0  0  0  0  0  0  0  0  0  0  0
   50.9780   34.1812   43.0794 H   0  0  0  0  0  0  0  0  0  0  0  0
   49.5178   32.1753   40.8802 H   0  0  0  0  0  0  0  0  0  0  0  0
   48.0239   31.7240   41.8233 H   0  0  0  0  0  0  0  0  0  0  0  0
   46.8817   33.3951   41.0315 H   0  0  0  0  0  0  0  0  0  0  0  0
   49.0749   31.5481   39.1897 H   0  0  0  0  0  0  0  0  0  0  0  0
   48.7651   34.7618   36.4006 H   0  0  0  0  0  0  0  0  0  0  0  0
   47.8976   35.5559   38.6841 H   0  0  0  0  0  0  0  0  0  0  0  0
   47.4322   35.6726   43.2066 H   0  0  0  0  0  0  0  0  0  0  0  0
   46.7115   36.3568   41.6451 H   0  0  0  0  0  0  0  0  0  0  0  0
   45.9397   33.6620   41.8521 H   0  0  0  0  0  0  0  0  0  0  0  0
   44.3181   36.1588   44.1340 H   0  0  0  0  0  0  0  0  0  0  0  0
   46.7664   32.6024   43.9218 H   0  0  0  0  0  0  0  0  0  0  0  0
   45.0325   33.8272   47.5997 H   0  0  0  0  0  0  0  0  0  0  0  0
   43.9110   35.5888   42.4987 H   0  0  0  0  0  0  0  0  0  0  0  0
   44.9206   36.0805   41.0968 H   0  0  0  0  0  0  0  0  0  0  0  0
   44.1012   34.4820   41.0968 H   0  0  0  0  0  0  0  0  0  0  0  0
  1  2  1  0
  1 12  1  0
  2  3  1  0
  3  4  1  0
  5  4  1  0
  6  1  1  0
  6  5  1  0
  7  6  1  0
  8  7  2  0
  9  8  1  0
 10  9  2  0
 10 11  1  0
 11  7  1  0
 12 13  1  0
 13 15  1  0
 14 19  2  0
 15 16  2  0
 15 14  1  0
 16 17  1  0
 17 18  2  0
 19 18  1  0
 20 13  1  0
  2 21  1  0
  2 22  1  0
  3 23  1  0
  3 24  1  0
  5 25  1  0
  5 26  1  0
  6 27  1  6
  8 28  1  0
 10 29  1  0
 11 30  1  0
 12 31  1  0
 12 32  1  0
 13 33  1  6
 14 34  1  0
 16 35  1  0
 18 36  1  0
 20 37  1  0
 20 38  1  0
 20 39  1  0
M  ISO  8  21  13  22  13  23  13  24  13  25  13  26  13  27  13  28  14
M  ISO  8  29  14  30   9  31   8  32   8  33   8  34  14  35  14  36  14
M  ISO  3  37   8  38   8  39   8
M  END
>  <minimizedAffinity>  (1) 
-5.01401377

>  <minimizedRMSD>  (1) 
1.06707633

$$$$
