
     RDKit          3D

 15 15  0  0  0  0  0  0  0  0999 V2000
   44.9950   34.8580   44.8470 C   0  0  0  0  0  0  0  0  0  0  0  0
   45.9150   34.6330   43.8220 C   0  0  0  0  0  0  0  0  0  0  0  0
   46.9110   33.6740   44.0090 C   0  0  0  0  0  0  0  0  0  0  0  0
   46.9390   33.0020   45.1860 N   0  0  0  0  0  0  0  0  0  0  0  0
   46.0400   33.2360   46.1610 C   0  0  0  0  0  0  0  0  0  0  0  0
   45.0740   34.1550   45.9980 N   0  0  0  0  0  0  0  0  0  0  0  0
   43.9340   35.8060   44.7780 N   0  0  0  0  0  0  0  0  0  0  0  0
   45.7630   35.4420   42.5860 C   0  0  0  0  0  0  0  0  0  0  0  0
   46.8440   35.2500   41.7510 F   0  0  0  0  0  0  0  0  0  0  0  0
   45.6260   36.7830   42.8280 F   0  0  0  0  0  0  0  0  0  0  0  0
   44.6590   35.0330   41.8380 F   0  0  0  0  0  0  0  0  0  0  0  0
   47.6529   33.4689   43.2232 H   0  0  0  0  0  0  0  0  0  0  0  0
   46.0974   32.6682   47.1014 H   0  0  0  0  0  0  0  0  0  0  0  0
   43.8100   36.3795   43.9315 H   0  0  0  0  0  0  0  0  0  0  0  0
   43.2908   35.9180   45.5746 H   0  0  0  0  0  0  0  0  0  0  0  0
  1  6  2  0
  2  3  2  0
  2  1  1  0
  3  4  1  0
  4  5  2  0
  6  5  1  0
  7  1  1  0
  8 10  1  0
  8  2  1  0
  9  8  1  0
 11  8  1  0
  3 12  1  0
  5 13  1  0
  7 14  1  0
  7 15  1  0
M  ISO  2  12  14  13  14
M  END
>  <minimizedAffinity>  (1) 
-4.15931559

>  <minimizedRMSD>  (1) 
0.323195606

$$$$
