
     RDKit          3D

 41 44  0  0  1  0  0  0  0  0999 V2000
   44.3970   35.2050   41.7600 C   0  0  0  0  0  0  0  0  0  0  0  0
   43.1800   35.6230   41.2800 C   0  0  0  0  0  0  0  0  0  0  0  0
   42.9120   34.8650   40.1690 C   0  0  0  0  0  0  0  0  0  0  0  0
   43.9720   34.0520   40.0570 N   0  0  0  0  0  0  0  0  0  0  0  0
   44.8970   34.1980   40.9710 N   0  0  0  0  0  0  0  0  0  0  0  0
   44.9560   33.5040   37.9180 N   0  0  0  0  0  0  0  0  0  0  0  0
   46.3500   33.2170   38.1910 C   0  0  0  0  0  0  0  0  0  0  0  0
   46.4020   32.0790   39.1640 C   0  0  0  0  0  0  0  0  0  0  0  0
   44.9670   31.8540   39.5870 C   0  0  0  0  0  0  0  0  0  0  0  0
   44.1960   33.0200   39.0170 C   0  0  1  0  0  0  0  0  0  0  0  0
   42.8530   32.4590   38.5500 C   0  0  0  0  0  0  0  0  0  0  0  0
   45.0590   35.7670   42.9530 C   0  0  0  0  0  0  0  0  0  0  0  0
   45.3160   36.9660   42.9980 O   0  0  0  0  0  0  0  0  0  0  0  0
   44.6960   35.0840   45.2410 C   0  0  0  0  0  0  0  0  0  0  0  0
   45.4030   34.9120   44.0600 C   0  0  0  0  0  0  0  0  0  0  0  0
   46.3770   33.9560   44.0030 C   0  0  0  0  0  0  0  0  0  0  0  0
   46.6020   33.2130   45.1260 N   0  0  0  0  0  0  0  0  0  0  0  0
   45.9210   33.3780   46.2660 C   0  0  0  0  0  0  0  0  0  0  0  0
   44.9510   34.3260   46.3290 N   0  0  0  0  0  0  0  0  0  0  0  0
   46.2890   32.5180   47.3280 N   0  0  0  0  0  0  0  0  0  0  0  0
   47.3730   31.8700   47.6820 N   0  0  0  0  0  0  0  0  0  0  0  0
   47.1570   31.1740   48.8270 C   0  0  0  0  0  0  0  0  0  0  0  0
   45.8420   31.4200   49.1900 C   0  0  0  0  0  0  0  0  0  0  0  0
   45.3170   32.2800   48.2140 C   0  0  0  0  0  0  0  0  0  0  0  0
   42.5433   36.4131   41.7046 H   0  0  0  0  0  0  0  0  0  0  0  0
   42.0273   34.9132   39.5171 H   0  0  0  0  0  0  0  0  0  0  0  0
   44.8196   34.5199   37.8166 H   0  0  0  0  0  0  0  0  0  0  0  0
   46.8635   32.9365   37.2595 H   0  0  0  0  0  0  0  0  0  0  0  0
   46.8496   34.1031   38.6096 H   0  0  0  0  0  0  0  0  0  0  0  0
   46.8081   31.1775   38.6820 H   0  0  0  0  0  0  0  0  0  0  0  0
   47.0539   32.3006   40.0219 H   0  0  0  0  0  0  0  0  0  0  0  0
   44.5890   30.9054   39.1781 H   0  0  0  0  0  0  0  0  0  0  0  0
   44.8669   31.7916   40.6807 H   0  0  0  0  0  0  0  0  0  0  0  0
   42.2385   32.2023   39.4255 H   0  0  0  0  0  0  0  0  0  0  0  0
   42.3308   33.2142   37.9442 H   0  0  0  0  0  0  0  0  0  0  0  0
   43.0232   31.5567   37.9442 H   0  0  0  0  0  0  0  0  0  0  0  0
   43.9117   35.8535   45.2922 H   0  0  0  0  0  0  0  0  0  0  0  0
   46.9595   33.7906   43.0847 H   0  0  0  0  0  0  0  0  0  0  0  0
   47.8812   30.5409   49.3606 H   0  0  0  0  0  0  0  0  0  0  0  0
   45.3149   31.0202   50.0688 H   0  0  0  0  0  0  0  0  0  0  0  0
   44.2943   32.6839   48.1835 H   0  0  0  0  0  0  0  0  0  0  0  0
  1 12  1  0
  2  1  1  0
  3  2  2  0
  4  3  1  0
  4  5  1  0
  5  1  2  0
  6  7  1  0
  6 10  1  0
  7  8  1  0
  8  9  1  0
 10 11  1  6
 10  9  1  0
 10  4  1  0
 12 13  2  0
 12 15  1  0
 14 19  2  0
 15 14  1  0
 16 15  2  0
 16 17  1  0
 17 18  2  0
 18 19  1  0
 18 20  1  0
 20 21  1  0
 20 24  1  0
 21 22  2  0
 22 23  1  0
 24 23  2  0
  2 25  1  0
  3 26  1  0
  6 27  1  0
  7 28  1  0
  7 29  1  0
  8 30  1  0
  8 31  1  0
  9 32  1  0
  9 33  1  0
 11 34  1  0
 11 35  1  0
 11 36  1  0
 14 37  1  0
 16 38  1  0
 22 39  1  0
 23 40  1  0
 24 41  1  0
M  ISO  8  25  14  26  14  27   5  28  13  29  13  30  13  31  13  32  13
M  ISO  8  33  13  34   8  35   8  36   8  37  14  38  14  39  14  40  14
M  ISO  1  41  14
M  END
>  <minimizedAffinity>  (1) 
-6.19142485

>  <minimizedRMSD>  (1) 
0.466618031

$$$$
