
     RDKit          3D

 14 14  0  0  0  0  0  0  0  0999 V2000
   45.0660   34.6910   44.9760 C   0  0  0  0  0  0  0  0  0  0  0  0
   45.8900   34.5590   43.8590 C   0  0  0  0  0  0  0  0  0  0  0  0
   46.9400   33.6460   43.9090 C   0  0  0  0  0  0  0  0  0  0  0  0
   47.1130   32.9300   45.0380 N   0  0  0  0  0  0  0  0  0  0  0  0
   46.3120   33.0670   46.1090 C   0  0  0  0  0  0  0  0  0  0  0  0
   45.2820   33.9520   46.0820 N   0  0  0  0  0  0  0  0  0  0  0  0
   45.5760   35.4150   42.6940 C   0  0  0  0  0  0  0  0  0  0  0  0
   46.5510   35.2490   41.7070 F   0  0  0  0  0  0  0  0  0  0  0  0
   45.5490   36.7630   42.9970 F   0  0  0  0  0  0  0  0  0  0  0  0
   44.3880   35.0700   42.0950 F   0  0  0  0  0  0  0  0  0  0  0  0
   44.0070   35.5900   44.9680 O   0  0  0  0  0  0  0  0  0  0  0  0
   47.6119   33.5122   43.0484 H   0  0  0  0  0  0  0  0  0  0  0  0
   46.4912   32.4609   47.0093 H   0  0  0  0  0  0  0  0  0  0  0  0
   43.8322   36.1418   44.1649 H   0  0  0  0  0  0  0  0  0  0  0  0
  1  6  2  0
  2  3  2  0
  2  1  1  0
  3  4  1  0
  4  5  2  0
  6  5  1  0
  7  9  1  0
  7  2  1  0
  8  7  1  0
 10  7  1  0
 11  1  1  0
  3 12  1  0
  5 13  1  0
 11 14  1  0
M  ISO  3  12  14  13  14  14   3
M  END
>  <minimizedAffinity>  (1) 
-4.19772243

>  <minimizedRMSD>  (1) 
0.411565185

$$$$
