
     RDKit          3D

 14 14  0  0  0  0  0  0  0  0999 V2000
   45.5440   34.4800   44.6630 C   0  0  0  0  0  0  0  0  0  0  0  0
   46.4640   33.8960   43.7950 C   0  0  0  0  0  0  0  0  0  0  0  0
   47.2260   32.8020   44.2460 C   0  0  0  0  0  0  0  0  0  0  0  0
   47.0140   32.3760   45.5190 N   0  0  0  0  0  0  0  0  0  0  0  0
   46.1200   32.9590   46.3330 C   0  0  0  0  0  0  0  0  0  0  0  0
   45.3880   34.0020   45.9150 N   0  0  0  0  0  0  0  0  0  0  0  0
   46.5650   34.4850   42.4470 C   0  0  0  0  0  0  0  0  0  0  0  0
   47.4470   33.7280   41.6720 F   0  0  0  0  0  0  0  0  0  0  0  0
   46.9980   35.7740   42.4250 F   0  0  0  0  0  0  0  0  0  0  0  0
   45.3700   34.4030   41.7500 F   0  0  0  0  0  0  0  0  0  0  0  0
   44.5140   35.8700   44.2220 S   0  0  0  0  0  0  0  0  0  0  0  0
   47.9637   32.3113   43.5941 H   0  0  0  0  0  0  0  0  0  0  0  0
   45.9861   32.5765   47.3556 H   0  0  0  0  0  0  0  0  0  0  0  0
   44.0606   36.4819   45.3608 H   0  0  0  0  0  0  0  0  0  0  0  0
  1  6  2  0
  2  3  2  0
  2  1  1  0
  3  4  1  0
  4  5  2  0
  6  5  1  0
  7  2  1  0
  8  7  1  0
  9  7  1  0
 10  7  1  0
 11  1  1  0
  3 12  1  0
  5 13  1  0
 11 14  1  0
M  ISO  3  12  14  13  14  14  11
M  END
>  <minimizedAffinity>  (1) 
-3.4544642

>  <minimizedRMSD>  (1) 
1.22962463

$$$$
