
     RDKit          3D

 19 19  0  0  0  0  0  0  0  0999 V2000
   45.8390   34.9330   43.5180 C   0  0  0  0  0  0  0  0  0  0  0  0
   46.9860   34.2780   43.1050 C   0  0  0  0  0  0  0  0  0  0  0  0
   47.4940   33.2530   43.9030 C   0  0  0  0  0  0  0  0  0  0  0  0
   46.8390   32.9430   45.0530 N   0  0  0  0  0  0  0  0  0  0  0  0
   45.7310   33.5870   45.4370 C   0  0  0  0  0  0  0  0  0  0  0  0
   45.2400   34.5710   44.6740 N   0  0  0  0  0  0  0  0  0  0  0  0
   47.5880   34.7050   41.8310 C   0  0  0  0  0  0  0  0  0  0  0  0
   48.6260   33.8300   41.4810 F   0  0  0  0  0  0  0  0  0  0  0  0
   48.0850   35.9680   41.8470 F   0  0  0  0  0  0  0  0  0  0  0  0
   46.7010   34.6080   40.7620 F   0  0  0  0  0  0  0  0  0  0  0  0
   45.1360   36.0770   42.8730 C   0  0  0  0  0  0  0  0  0  0  0  0
   43.9100   35.5790   42.1580 C   0  0  0  0  0  0  0  0  0  0  0  0
   48.4032   32.7084   43.6086 H   0  0  0  0  0  0  0  0  0  0  0  0
   45.2265   33.3095   46.3743 H   0  0  0  0  0  0  0  0  0  0  0  0
   44.8403   36.8055   43.6424 H   0  0  0  0  0  0  0  0  0  0  0  0
   45.8102   36.5582   42.1492 H   0  0  0  0  0  0  0  0  0  0  0  0
   43.1544   35.2721   42.8961 H   0  0  0  0  0  0  0  0  0  0  0  0
   43.5015   36.3825   41.5275 H   0  0  0  0  0  0  0  0  0  0  0  0
   44.1775   34.7182   41.5275 H   0  0  0  0  0  0  0  0  0  0  0  0
  1  6  2  0
  2  1  1  0
  2  3  2  0
  3  4  1  0
  4  5  2  0
  6  5  1  0
  7  9  1  0
  7  2  1  0
  8  7  1  0
 10  7  1  0
 11  1  1  0
 12 11  1  0
  3 13  1  0
  5 14  1  0
 11 15  1  0
 11 16  1  0
 12 17  1  0
 12 18  1  0
 12 19  1  0
M  ISO  7  13  14  14  14  15   8  16   8  17   8  18   8  19   8
M  END
>  <minimizedAffinity>  (1) 
-3.91805243

>  <minimizedRMSD>  (1) 
1.9926157

$$$$
