
     RDKit          3D

 39 41  0  0  1  0  0  0  0  0999 V2000
   48.0210   34.8450   41.3670 N   0  0  0  0  0  0  0  0  0  0  0  0
   49.2680   35.1270   42.0290 C   0  0  0  0  0  0  0  0  0  0  0  0
   50.1280   33.9600   42.3400 C   0  0  0  0  0  0  0  0  0  0  0  0
   49.2630   32.9460   42.7830 O   0  0  0  0  0  0  0  0  0  0  0  0
   48.6870   32.4780   41.6010 C   0  0  0  0  0  0  0  0  0  0  0  0
   47.9030   33.5300   40.8670 C   0  0  2  0  0  0  0  0  0  0  0  0
   48.3760   33.5170   39.4560 C   0  0  0  0  0  0  0  0  0  0  0  0
   48.9440   32.4640   38.7450 C   0  0  0  0  0  0  0  0  0  0  0  0
   49.2260   32.9200   37.4670 C   0  0  0  0  0  0  0  0  0  0  0  0
   48.8350   34.2210   37.4130 N   0  0  0  0  0  0  0  0  0  0  0  0
   48.3290   34.5730   38.5990 N   0  0  0  0  0  0  0  0  0  0  0  0
   46.9540   35.4250   42.0900 C   0  0  0  0  0  0  0  0  0  0  0  0
   45.7280   34.5700   42.2860 C   0  0  1  0  0  0  0  0  0  0  0  0
   44.7560   35.3690   44.4950 C   0  0  0  0  0  0  0  0  0  0  0  0
   45.5040   34.4150   43.7350 C   0  0  0  0  0  0  0  0  0  0  0  0
   46.0120   33.3390   44.4370 C   0  0  0  0  0  0  0  0  0  0  0  0
   45.7780   33.2510   45.7720 N   0  0  0  0  0  0  0  0  0  0  0  0
   45.0800   34.1500   46.4560 C   0  0  0  0  0  0  0  0  0  0  0  0
   44.5550   35.2350   45.8040 N   0  0  0  0  0  0  0  0  0  0  0  0
   44.5240   35.0950   41.5990 C   0  0  0  0  0  0  0  0  0  0  0  0
   49.8445   35.8046   41.3821 H   0  0  0  0  0  0  0  0  0  0  0  0
   48.9911   35.5540   43.0042 H   0  0  0  0  0  0  0  0  0  0  0  0
   50.6692   33.6338   41.4396 H   0  0  0  0  0  0  0  0  0  0  0  0
   50.8811   34.2075   43.1026 H   0  0  0  0  0  0  0  0  0  0  0  0
   49.4889   32.1155   40.9410 H   0  0  0  0  0  0  0  0  0  0  0  0
   47.9836   31.6778   41.8747 H   0  0  0  0  0  0  0  0  0  0  0  0
   46.8403   33.2733   40.9887 H   0  0  0  0  0  0  0  0  0  0  0  0
   49.1350   31.4510   39.1288 H   0  0  0  0  0  0  0  0  0  0  0  0
   49.6803   32.3392   36.6507 H   0  0  0  0  0  0  0  0  0  0  0  0
   48.9157   34.8361   36.5908 H   0  0  0  0  0  0  0  0  0  0  0  0
   47.3343   35.6964   43.0859 H   0  0  0  0  0  0  0  0  0  0  0  0
   46.6191   36.2766   41.4796 H   0  0  0  0  0  0  0  0  0  0  0  0
   45.9091   33.5907   41.8189 H   0  0  0  0  0  0  0  0  0  0  0  0
   44.3323   36.2436   43.9796 H   0  0  0  0  0  0  0  0  0  0  0  0
   46.5982   32.5639   43.9216 H   0  0  0  0  0  0  0  0  0  0  0  0
   44.9244   34.0248   47.5377 H   0  0  0  0  0  0  0  0  0  0  0  0
   43.7856   35.4170   42.3480 H   0  0  0  0  0  0  0  0  0  0  0  0
   44.8055   35.9521   40.9696 H   0  0  0  0  0  0  0  0  0  0  0  0
   44.0875   34.3055   40.9696 H   0  0  0  0  0  0  0  0  0  0  0  0
  1  2  1  0
  1 12  1  0
  2  3  1  0
  3  4  1  0
  5  4  1  0
  6  1  1  0
  6  5  1  0
  7  6  1  0
  8  7  1  0
  9  8  2  0
 10  9  1  0
 10 11  1  0
 11  7  2  0
 12 13  1  0
 13 15  1  0
 14 19  2  0
 15 16  2  0
 15 14  1  0
 16 17  1  0
 17 18  2  0
 19 18  1  0
 20 13  1  0
  2 21  1  0
  2 22  1  0
  3 23  1  0
  3 24  1  0
  5 25  1  0
  5 26  1  0
  6 27  1  6
  8 28  1  0
  9 29  1  0
 10 30  1  0
 12 31  1  0
 12 32  1  0
 13 33  1  6
 14 34  1  0
 16 35  1  0
 18 36  1  0
 20 37  1  0
 20 38  1  0
 20 39  1  0
M  ISO  8  21  13  22  13  23  13  24  13  25  13  26  13  27  13  28  14
M  ISO  8  29  14  30   9  31   8  32   8  33   8  34  14  35  14  36  14
M  ISO  3  37   8  38   8  39   8
M  END
>  <minimizedAffinity>  (1) 
-4.93254375

>  <minimizedRMSD>  (1) 
1.02617502

$$$$
