
     RDKit          3D

 25 26  0  0  0  0  0  0  0  0999 V2000
   47.4060   33.3950   43.6560 C   0  0  0  0  0  0  0  0  0  0  0  0
   46.4110   34.2700   43.2170 C   0  0  0  0  0  0  0  0  0  0  0  0
   46.7480   35.2590   42.3030 C   0  0  0  0  0  0  0  0  0  0  0  0
   48.0280   35.3210   41.8840 N   0  0  0  0  0  0  0  0  0  0  0  0
   48.9750   34.4720   42.3140 C   0  0  0  0  0  0  0  0  0  0  0  0
   48.6720   33.4970   43.2070 N   0  0  0  0  0  0  0  0  0  0  0  0
   47.2430   32.3270   44.5830 N   0  0  0  0  0  0  0  0  0  0  0  0
   47.3220   32.1110   46.0160 C   0  0  0  0  0  0  0  0  0  0  0  0
   45.8860   31.6420   46.2820 C   0  0  0  0  0  0  0  0  0  0  0  0
   45.7030   30.6770   45.1220 C   0  0  0  0  0  0  0  0  0  0  0  0
   46.8880   30.9550   44.1890 C   0  0  0  0  0  0  0  0  0  0  0  0
   45.0600   34.0640   43.7790 C   0  0  0  0  0  0  0  0  0  0  0  0
   44.1810   35.0220   43.2540 F   0  0  0  0  0  0  0  0  0  0  0  0
   44.9930   34.2000   45.1510 F   0  0  0  0  0  0  0  0  0  0  0  0
   44.5000   32.8640   43.4180 F   0  0  0  0  0  0  0  0  0  0  0  0
   45.9946   35.9696   41.9323 H   0  0  0  0  0  0  0  0  0  0  0  0
   50.0047   34.5678   41.9392 H   0  0  0  0  0  0  0  0  0  0  0  0
   48.0605   31.3377   46.2741 H   0  0  0  0  0  0  0  0  0  0  0  0
   47.6457   32.9829   46.6034 H   0  0  0  0  0  0  0  0  0  0  0  0
   45.7961   31.1339   47.2535 H   0  0  0  0  0  0  0  0  0  0  0  0
   45.1387   32.4473   46.3364 H   0  0  0  0  0  0  0  0  0  0  0  0
   45.7254   29.6361   45.4769 H   0  0  0  0  0  0  0  0  0  0  0  0
   44.7358   30.8148   44.6164 H   0  0  0  0  0  0  0  0  0  0  0  0
   46.5897   30.9033   43.1315 H   0  0  0  0  0  0  0  0  0  0  0  0
   47.7121   30.2316   44.2765 H   0  0  0  0  0  0  0  0  0  0  0  0
  1  7  1  0
  2  1  2  0
  2 12  1  0
  3  2  1  0
  4  3  2  0
  4  5  1  0
  5  6  2  0
  6  1  1  0
  7  8  1  0
  8  9  1  0
 10  9  1  0
 11  7  1  0
 11 10  1  0
 12 14  1  0
 13 12  1  0
 15 12  1  0
  3 16  1  0
  5 17  1  0
  8 18  1  0
  8 19  1  0
  9 20  1  0
  9 21  1  0
 10 22  1  0
 10 23  1  0
 11 24  1  0
 11 25  1  0
M  ISO  8  16  14  17  14  18  13  19  13  20  13  21  13  22  13  23  13
M  ISO  2  24  13  25  13
M  END
>  <minimizedAffinity>  (1) 
-3.63119531

>  <minimizedRMSD>  (1) 
4.63778257

$$$$
