
     RDKit          3D

 38 40  0  0  1  0  0  0  0  0999 V2000
   48.1000   34.8200   41.3560 N   0  0  0  0  0  0  0  0  0  0  0  0
   49.3120   35.1960   42.0080 C   0  0  0  0  0  0  0  0  0  0  0  0
   50.2120   34.0840   42.4000 C   0  0  0  0  0  0  0  0  0  0  0  0
   49.3810   33.0700   42.9000 O   0  0  0  0  0  0  0  0  0  0  0  0
   48.8430   32.5080   41.7380 C   0  0  0  0  0  0  0  0  0  0  0  0
   48.0250   33.4700   40.9250 C   0  0  2  0  0  0  0  0  0  0  0  0
   48.3930   33.4030   39.4580 C   0  0  0  0  0  0  0  0  0  0  0  0
   49.0210   32.2100   39.0370 C   0  0  0  0  0  0  0  0  0  0  0  0
   49.2910   32.5300   37.2470 S   0  0  0  0  0  0  0  0  0  0  0  0
   48.4920   34.2480   37.3830 C   0  0  0  0  0  0  0  0  0  0  0  0
   48.1350   34.4010   38.6420 N   0  0  0  0  0  0  0  0  0  0  0  0
   46.9880   35.4010   42.0140 C   0  0  0  0  0  0  0  0  0  0  0  0
   45.7790   34.5200   42.2070 C   0  0  1  0  0  0  0  0  0  0  0  0
   44.7670   35.4360   44.3590 C   0  0  0  0  0  0  0  0  0  0  0  0
   45.5060   34.4370   43.6480 C   0  0  0  0  0  0  0  0  0  0  0  0
   45.9640   33.3760   44.4170 C   0  0  0  0  0  0  0  0  0  0  0  0
   45.6850   33.3620   45.7440 N   0  0  0  0  0  0  0  0  0  0  0  0
   44.9930   34.3080   46.3810 C   0  0  0  0  0  0  0  0  0  0  0  0
   44.5250   35.3670   45.6640 N   0  0  0  0  0  0  0  0  0  0  0  0
   44.5900   34.9930   41.4580 C   0  0  0  0  0  0  0  0  0  0  0  0
   49.8695   35.8561   41.3272 H   0  0  0  0  0  0  0  0  0  0  0  0
   49.0057   35.6753   42.9495 H   0  0  0  0  0  0  0  0  0  0  0  0
   50.7739   33.7214   41.5266 H   0  0  0  0  0  0  0  0  0  0  0  0
   50.9480   34.4077   43.1507 H   0  0  0  0  0  0  0  0  0  0  0  0
   49.6713   32.1423   41.1134 H   0  0  0  0  0  0  0  0  0  0  0  0
   48.1677   31.6996   42.0548 H   0  0  0  0  0  0  0  0  0  0  0  0
   46.9866   33.1408   41.0781 H   0  0  0  0  0  0  0  0  0  0  0  0
   49.2813   31.3193   39.6277 H   0  0  0  0  0  0  0  0  0  0  0  0
   48.3541   34.9743   36.5685 H   0  0  0  0  0  0  0  0  0  0  0  0
   47.3235   35.7292   43.0088 H   0  0  0  0  0  0  0  0  0  0  0  0
   46.6517   36.2124   41.3518 H   0  0  0  0  0  0  0  0  0  0  0  0
   45.9983   33.5230   41.7973 H   0  0  0  0  0  0  0  0  0  0  0  0
   44.3816   36.3009   43.7992 H   0  0  0  0  0  0  0  0  0  0  0  0
   46.5430   32.5610   43.9581 H   0  0  0  0  0  0  0  0  0  0  0  0
   44.8044   34.2343   47.4622 H   0  0  0  0  0  0  0  0  0  0  0  0
   43.8092   35.3036   42.1678 H   0  0  0  0  0  0  0  0  0  0  0  0
   44.8713   35.8477   40.8253 H   0  0  0  0  0  0  0  0  0  0  0  0
   44.2074   34.1786   40.8253 H   0  0  0  0  0  0  0  0  0  0  0  0
  1  2  1  0
  1 12  1  0
  2  3  1  0
  3  4  1  0
  5  4  1  0
  6  1  1  0
  6  5  1  0
  7  6  1  0
  8  7  2  0
  9 10  1  0
  9  8  1  0
 10 11  2  0
 11  7  1  0
 12 13  1  0
 13 15  1  0
 14 19  2  0
 15 14  1  0
 15 16  2  0
 16 17  1  0
 17 18  2  0
 19 18  1  0
 20 13  1  0
  2 21  1  0
  2 22  1  0
  3 23  1  0
  3 24  1  0
  5 25  1  0
  5 26  1  0
  6 27  1  6
  8 28  1  0
 10 29  1  0
 12 30  1  0
 12 31  1  0
 13 32  1  6
 14 33  1  0
 16 34  1  0
 18 35  1  0
 20 36  1  0
 20 37  1  0
 20 38  1  0
M  ISO  8  21  13  22  13  23  13  24  13  25  13  26  13  27  13  28  14
M  ISO  8  29  14  30   8  31   8  32   8  33  14  34  14  35  14  36   8
M  ISO  2  37   8  38   8
M  END
>  <minimizedAffinity>  (1) 
-4.91282988

>  <minimizedRMSD>  (1) 
1.04577863

$$$$
