
     RDKit          3D

 39 42  0  0  1  0  0  0  0  0999 V2000
   46.6240   32.6990   42.6310 N   0  0  0  0  0  0  0  0  0  0  0  0
   45.2350   32.6040   42.9960 C   0  0  0  0  0  0  0  0  0  0  0  0
   44.7990   31.4510   42.1380 C   0  0  0  0  0  0  0  0  0  0  0  0
   45.9600   30.5290   42.2100 C   0  0  0  0  0  0  0  0  0  0  0  0
   47.0630   31.3300   42.8860 C   0  0  2  0  0  0  0  0  0  0  0  0
   47.2480   31.0550   44.2700 N   0  0  0  0  0  0  0  0  0  0  0  0
   47.8730   30.0520   44.9240 C   0  0  0  0  0  0  0  0  0  0  0  0
   47.7280   30.3150   46.2470 N   0  0  0  0  0  0  0  0  0  0  0  0
   47.0360   31.4430   46.4370 C   0  0  0  0  0  0  0  0  0  0  0  0
   46.6350   32.1180   47.5740 C   0  0  0  0  0  0  0  0  0  0  0  0
   46.9030   31.7050   48.7210 O   0  0  0  0  0  0  0  0  0  0  0  0
   45.9320   33.2600   47.5000 N   0  0  0  0  0  0  0  0  0  0  0  0
   45.6390   33.7130   46.2630 C   0  0  0  0  0  0  0  0  0  0  0  0
   44.9070   34.8960   45.9360 N   0  0  0  0  0  0  0  0  0  0  0  0
   46.0180   33.0730   45.1490 N   0  0  0  0  0  0  0  0  0  0  0  0
   46.7280   31.9200   45.1610 C   0  0  0  0  0  0  0  0  0  0  0  0
   47.4980   33.7140   42.1290 C   0  0  0  0  0  0  0  0  0  0  0  0
   47.5580   34.1350   40.7900 C   0  0  0  0  0  0  0  0  0  0  0  0
   48.4590   35.1340   40.4520 C   0  0  0  0  0  0  0  0  0  0  0  0
   49.2280   35.6480   41.4220 N   0  0  0  0  0  0  0  0  0  0  0  0
   49.1530   35.2290   42.7010 C   0  0  0  0  0  0  0  0  0  0  0  0
   48.2850   34.2570   43.0610 N   0  0  0  0  0  0  0  0  0  0  0  0
   46.6260   33.4560   39.8450 C   0  0  0  0  0  0  0  0  0  0  0  0
   46.8920   33.9030   38.5410 F   0  0  0  0  0  0  0  0  0  0  0  0
   45.3190   33.7550   40.0720 F   0  0  0  0  0  0  0  0  0  0  0  0
   46.8200   32.1190   39.7630 F   0  0  0  0  0  0  0  0  0  0  0  0
   45.1116   32.3820   44.0663 H   0  0  0  0  0  0  0  0  0  0  0  0
   44.6591   33.5289   42.8444 H   0  0  0  0  0  0  0  0  0  0  0  0
   44.6141   31.7750   41.1032 H   0  0  0  0  0  0  0  0  0  0  0  0
   43.8571   30.9916   42.4723 H   0  0  0  0  0  0  0  0  0  0  0  0
   45.7094   29.6386   42.8053 H   0  0  0  0  0  0  0  0  0  0  0  0
   46.2627   30.1700   41.2153 H   0  0  0  0  0  0  0  0  0  0  0  0
   48.0609   31.0872   42.4920 H   0  0  0  0  0  0  0  0  0  0  0  0
   48.3947   29.1943   44.4743 H   0  0  0  0  0  0  0  0  0  0  0  0
   45.6313   33.7652   48.3457 H   0  0  0  0  0  0  0  0  0  0  0  0
   44.7430   35.1441   44.9499 H   0  0  0  0  0  0  0  0  0  0  0  0
   44.5434   35.5006   46.6865 H   0  0  0  0  0  0  0  0  0  0  0  0
   48.5402   35.4946   39.4160 H   0  0  0  0  0  0  0  0  0  0  0  0
   49.8058   35.6833   43.4609 H   0  0  0  0  0  0  0  0  0  0  0  0
  1  5  1  0
  1  2  1  0
  3  4  1  0
  3  2  1  0
  4  5  1  0
  5  6  1  0
  6  7  1  0
  6 16  1  0
  7  8  2  0
  8  9  1  0
  9 10  1  0
 10 11  2  0
 12 10  1  0
 13 12  1  0
 14 13  1  0
 15 16  1  0
 15 13  2  0
 16  9  2  0
 17  1  1  0
 17 22  1  0
 18 17  2  0
 19 18  1  0
 19 20  2  0
 20 21  1  0
 21 22  2  0
 23 25  1  0
 23 18  1  0
 24 23  1  0
 26 23  1  0
  2 27  1  0
  2 28  1  0
  3 29  1  0
  3 30  1  0
  4 31  1  0
  4 32  1  0
  5 33  1  6
  7 34  1  0
 12 35  1  0
 14 36  1  0
 14 37  1  0
 19 38  1  0
 21 39  1  0
M  ISO  8  27  13  28  13  29  13  30  13  31  13  32  13  33  13  34  14
M  ISO  3  35   9  38  14  39  14
M  END
>  <minimizedAffinity>  (1) 
-5.49062204

>  <minimizedRMSD>  (1) 
4.31675768

$$$$
