
     RDKit          3D

 38 40  0  0  1  0  0  0  0  0999 V2000
   47.1810   32.7010   44.8230 N   0  0  0  0  0  0  0  0  0  0  0  0
   47.0210   32.8240   46.2530 C   0  0  0  0  0  0  0  0  0  0  0  0
   45.7280   32.0950   46.4540 C   0  0  0  0  0  0  0  0  0  0  0  0
   45.8140   30.9780   45.4780 C   0  0  0  0  0  0  0  0  0  0  0  0
   47.0630   31.3010   44.6360 C   0  0  2  0  0  0  0  0  0  0  0  0
   48.0920   30.3960   44.8560 N   0  0  0  0  0  0  0  0  0  0  0  0
   48.8770   30.2830   43.7340 C   0  0  0  0  0  0  0  0  0  0  0  0
   49.9740   29.4250   43.7210 C   0  0  0  0  0  0  0  0  0  0  0  0
   50.8790   29.2340   42.5580 C   0  0  0  0  0  0  0  0  0  0  0  0
   50.2990   28.6730   44.8290 C   0  0  0  0  0  0  0  0  0  0  0  0
   51.2820   27.8790   44.8770 O   0  0  0  0  0  0  0  0  0  0  0  0
   49.5240   28.7920   45.9220 N   0  0  0  0  0  0  0  0  0  0  0  0
   48.4850   29.6290   45.8780 C   0  0  0  0  0  0  0  0  0  0  0  0
   47.7690   29.7390   46.8890 O   0  0  0  0  0  0  0  0  0  0  0  0
   47.3670   33.6360   43.7530 C   0  0  0  0  0  0  0  0  0  0  0  0
   46.3440   34.3870   43.1540 C   0  0  0  0  0  0  0  0  0  0  0  0
   46.6660   35.2370   42.0900 C   0  0  0  0  0  0  0  0  0  0  0  0
   47.9570   35.2830   41.7000 N   0  0  0  0  0  0  0  0  0  0  0  0
   48.9110   34.5600   42.2860 C   0  0  0  0  0  0  0  0  0  0  0  0
   48.6120   33.7470   43.3030 N   0  0  0  0  0  0  0  0  0  0  0  0
   44.9780   34.2300   43.7130 C   0  0  0  0  0  0  0  0  0  0  0  0
   44.0850   35.0350   42.9930 F   0  0  0  0  0  0  0  0  0  0  0  0
   44.8760   34.6480   45.0040 F   0  0  0  0  0  0  0  0  0  0  0  0
   44.4860   32.9860   43.5600 F   0  0  0  0  0  0  0  0  0  0  0  0
   47.8468   32.3409   46.7959 H   0  0  0  0  0  0  0  0  0  0  0  0
   47.0227   33.8595   46.6243 H   0  0  0  0  0  0  0  0  0  0  0  0
   45.6452   31.7146   47.4828 H   0  0  0  0  0  0  0  0  0  0  0  0
   44.8447   32.7330   46.3034 H   0  0  0  0  0  0  0  0  0  0  0  0
   45.9327   30.0156   45.9972 H   0  0  0  0  0  0  0  0  0  0  0  0
   44.9061   30.8868   44.8637 H   0  0  0  0  0  0  0  0  0  0  0  0
   47.0449   31.1372   43.5484 H   0  0  0  0  0  0  0  0  0  0  0  0
   48.6370   30.8751   42.8386 H   0  0  0  0  0  0  0  0  0  0  0  0
   51.8965   29.0193   42.9166 H   0  0  0  0  0  0  0  0  0  0  0  0
   50.5197   28.3919   41.9483 H   0  0  0  0  0  0  0  0  0  0  0  0
   50.8907   30.1495   41.9483 H   0  0  0  0  0  0  0  0  0  0  0  0
   49.7276   28.2496   46.7736 H   0  0  0  0  0  0  0  0  0  0  0  0
   45.8965   35.8442   41.5908 H   0  0  0  0  0  0  0  0  0  0  0  0
   49.9494   34.6330   41.9306 H   0  0  0  0  0  0  0  0  0  0  0  0
  1  2  1  0
  2  3  1  0
  4  3  1  0
  5  1  1  0
  5  6  1  0
  5  4  1  0
  6 13  1  0
  7  6  1  0
  8  7  2  0
  8 10  1  0
  9  8  1  0
 10 11  2  0
 10 12  1  0
 13 12  1  0
 13 14  2  0
 15  1  1  0
 16 21  1  0
 16 15  2  0
 17 16  1  0
 18 17  2  0
 18 19  1  0
 19 20  2  0
 20 15  1  0
 21 23  1  0
 22 21  1  0
 24 21  1  0
  2 25  1  0
  2 26  1  0
  3 27  1  0
  3 28  1  0
  4 29  1  0
  4 30  1  0
  5 31  1  6
  7 32  1  0
  9 33  1  0
  9 34  1  0
  9 35  1  0
 12 36  1  0
 17 37  1  0
 19 38  1  0
M  ISO  8  25  13  26  13  27  13  28  13  29  13  30  13  31  13  32  14
M  ISO  6  33   8  34   8  35   8  36   9  37  14  38  14
M  END
>  <minimizedAffinity>  (1) 
-4.27075577

>  <minimizedRMSD>  (1) 
0.896407902

$$$$
