
     RDKit          3D

 34 36  0  0  1  0  0  0  0  0999 V2000
   47.2050   32.6610   44.7810 N   0  0  0  0  0  0  0  0  0  0  0  0
   47.1070   32.7010   46.2160 C   0  0  0  0  0  0  0  0  0  0  0  0
   45.7730   32.0570   46.4240 C   0  0  0  0  0  0  0  0  0  0  0  0
   45.7510   30.9740   45.3950 C   0  0  0  0  0  0  0  0  0  0  0  0
   46.9640   31.2440   44.5260 C   0  0  2  0  0  0  0  0  0  0  0  0
   47.4310   33.6020   43.7310 C   0  0  0  0  0  0  0  0  0  0  0  0
   46.4640   34.4900   43.2320 C   0  0  0  0  0  0  0  0  0  0  0  0
   46.8240   35.3550   42.2000 C   0  0  0  0  0  0  0  0  0  0  0  0
   48.0880   35.2890   41.7400 N   0  0  0  0  0  0  0  0  0  0  0  0
   48.9980   34.4310   42.2340 C   0  0  0  0  0  0  0  0  0  0  0  0
   48.6720   33.5810   43.2350 N   0  0  0  0  0  0  0  0  0  0  0  0
   45.1150   34.4280   43.8600 C   0  0  0  0  0  0  0  0  0  0  0  0
   44.2700   35.3480   43.2230 F   0  0  0  0  0  0  0  0  0  0  0  0
   45.1160   34.7850   45.1710 F   0  0  0  0  0  0  0  0  0  0  0  0
   44.4960   33.2430   43.6730 F   0  0  0  0  0  0  0  0  0  0  0  0
   48.1000   30.3740   44.7260 C   0  0  0  0  0  0  0  0  0  0  0  0
   49.0580   30.1600   43.7260 C   0  0  0  0  0  0  0  0  0  0  0  0
   50.1740   29.3530   43.8140 C   0  0  0  0  0  0  0  0  0  0  0  0
   50.3650   28.6960   44.9980 C   0  0  0  0  0  0  0  0  0  0  0  0
   49.4410   28.8840   46.0050 C   0  0  0  0  0  0  0  0  0  0  0  0
   48.3830   29.6820   45.8450 N   0  0  0  0  0  0  0  0  0  0  0  0
   47.9135   32.1248   46.6930 H   0  0  0  0  0  0  0  0  0  0  0  0
   47.1997   33.7071   46.6509 H   0  0  0  0  0  0  0  0  0  0  0  0
   45.6909   31.6389   47.4381 H   0  0  0  0  0  0  0  0  0  0  0  0
   44.9343   32.7619   46.3256 H   0  0  0  0  0  0  0  0  0  0  0  0
   45.8271   29.9852   45.8709 H   0  0  0  0  0  0  0  0  0  0  0  0
   44.8163   30.9698   44.8151 H   0  0  0  0  0  0  0  0  0  0  0  0
   46.7827   31.0160   43.4653 H   0  0  0  0  0  0  0  0  0  0  0  0
   46.1006   36.0670   41.7759 H   0  0  0  0  0  0  0  0  0  0  0  0
   50.0172   34.4201   41.8203 H   0  0  0  0  0  0  0  0  0  0  0  0
   48.9049   30.6892   42.7739 H   0  0  0  0  0  0  0  0  0  0  0  0
   50.8751   29.2437   42.9735 H   0  0  0  0  0  0  0  0  0  0  0  0
   51.2323   28.0352   45.1436 H   0  0  0  0  0  0  0  0  0  0  0  0
   49.5796   28.3632   46.9639 H   0  0  0  0  0  0  0  0  0  0  0  0
  1  2  1  0
  2  3  1  0
  4  3  1  0
  5 16  1  0
  5  1  1  0
  5  4  1  0
  6  1  1  0
  7  6  2  0
  7 12  1  0
  8  7  1  0
  9  8  2  0
  9 10  1  0
 10 11  2  0
 11  6  1  0
 12 14  1  0
 13 12  1  0
 15 12  1  0
 16 21  2  0
 17 18  2  0
 17 16  1  0
 18 19  1  0
 19 20  2  0
 21 20  1  0
  2 22  1  0
  2 23  1  0
  3 24  1  0
  3 25  1  0
  4 26  1  0
  4 27  1  0
  5 28  1  6
  8 29  1  0
 10 30  1  0
 17 31  1  0
 18 32  1  0
 19 33  1  0
 20 34  1  0
M  ISO  8  22  13  23  13  24  13  25  13  26  13  27  13  28  13  29  14
M  ISO  5  30  14  31  14  32  14  33  14  34  14
M  END
>  <minimizedAffinity>  (1) 
-4.08384037

>  <minimizedRMSD>  (1) 
0.954240978

$$$$
