
     RDKit          3D

 40 42  0  0  1  0  0  0  0  0999 V2000
   47.2150   32.6690   44.7810 N   0  0  0  0  0  0  0  0  0  0  0  0
   47.1010   32.7290   46.2180 C   0  0  0  0  0  0  0  0  0  0  0  0
   45.7620   32.0640   46.4070 C   0  0  0  0  0  0  0  0  0  0  0  0
   45.7840   30.9730   45.3940 C   0  0  0  0  0  0  0  0  0  0  0  0
   47.0230   31.2600   44.5600 C   0  0  2  0  0  0  0  0  0  0  0  0
   47.4330   33.6250   43.7360 C   0  0  0  0  0  0  0  0  0  0  0  0
   46.4620   34.4980   43.2270 C   0  0  0  0  0  0  0  0  0  0  0  0
   46.8210   35.3570   42.1920 C   0  0  0  0  0  0  0  0  0  0  0  0
   48.0820   35.3010   41.7380 N   0  0  0  0  0  0  0  0  0  0  0  0
   49.0010   34.4560   42.2420 C   0  0  0  0  0  0  0  0  0  0  0  0
   48.6680   33.6200   43.2410 N   0  0  0  0  0  0  0  0  0  0  0  0
   45.1180   34.4410   43.8630 C   0  0  0  0  0  0  0  0  0  0  0  0
   44.2690   35.3630   43.2360 F   0  0  0  0  0  0  0  0  0  0  0  0
   45.1290   34.8110   45.1780 F   0  0  0  0  0  0  0  0  0  0  0  0
   44.5030   33.2560   43.6880 F   0  0  0  0  0  0  0  0  0  0  0  0
   48.0170   30.3480   44.8680 N   0  0  0  0  0  0  0  0  0  0  0  0
   49.0620   30.0610   43.9540 C   0  0  0  0  0  0  0  0  0  0  0  0
   49.6340   28.6540   44.1340 C   0  0  0  0  0  0  0  0  0  0  0  0
   49.4950   28.1060   45.5210 C   0  0  0  0  0  0  0  0  0  0  0  0
   48.1590   28.3850   46.1730 C   0  0  0  0  0  0  0  0  0  0  0  0
   47.3160   29.0730   45.1500 C   0  0  0  0  0  0  0  0  0  0  0  0
   47.9075   32.1695   46.7144 H   0  0  0  0  0  0  0  0  0  0  0  0
   47.1788   33.7396   46.6453 H   0  0  0  0  0  0  0  0  0  0  0  0
   45.6627   31.6571   47.4242 H   0  0  0  0  0  0  0  0  0  0  0  0
   44.9141   32.7537   46.2830 H   0  0  0  0  0  0  0  0  0  0  0  0
   45.8615   29.9900   45.8815 H   0  0  0  0  0  0  0  0  0  0  0  0
   44.8666   30.9437   44.7877 H   0  0  0  0  0  0  0  0  0  0  0  0
   46.9793   31.1055   43.4718 H   0  0  0  0  0  0  0  0  0  0  0  0
   46.0933   36.0597   41.7600 H   0  0  0  0  0  0  0  0  0  0  0  0
   50.0236   34.4496   41.8368 H   0  0  0  0  0  0  0  0  0  0  0  0
   49.8708   30.7914   44.1035 H   0  0  0  0  0  0  0  0  0  0  0  0
   48.6417   30.1214   42.9393 H   0  0  0  0  0  0  0  0  0  0  0  0
   49.1103   27.9779   43.4422 H   0  0  0  0  0  0  0  0  0  0  0  0
   50.7125   28.7233   43.9288 H   0  0  0  0  0  0  0  0  0  0  0  0
   49.6345   27.0158   45.4756 H   0  0  0  0  0  0  0  0  0  0  0  0
   50.2552   28.6108   46.1352 H   0  0  0  0  0  0  0  0  0  0  0  0
   47.6845   27.4423   46.4831 H   0  0  0  0  0  0  0  0  0  0  0  0
   48.2800   29.0097   47.0702 H   0  0  0  0  0  0  0  0  0  0  0  0
   46.3080   29.2656   45.5461 H   0  0  0  0  0  0  0  0  0  0  0  0
   47.1876   28.4634   44.2434 H   0  0  0  0  0  0  0  0  0  0  0  0
  1  2  1  0
  2  3  1  0
  4  3  1  0
  5  1  1  0
  5 16  1  0
  5  4  1  0
  6  1  1  0
  7  6  2  0
  7 12  1  0
  8  7  1  0
  9  8  2  0
  9 10  1  0
 10 11  2  0
 11  6  1  0
 12 14  1  0
 13 12  1  0
 15 12  1  0
 16 21  1  0
 17 18  1  0
 17 16  1  0
 18 19  1  0
 19 20  1  0
 21 20  1  0
  2 22  1  0
  2 23  1  0
  3 24  1  0
  3 25  1  0
  4 26  1  0
  4 27  1  0
  5 28  1  6
  8 29  1  0
 10 30  1  0
 17 31  1  0
 17 32  1  0
 18 33  1  0
 18 34  1  0
 19 35  1  0
 19 36  1  0
 20 37  1  0
 20 38  1  0
 21 39  1  0
 21 40  1  0
M  ISO  8  22  13  23  13  24  13  25  13  26  13  27  13  28  13  29  14
M  ISO  8  30  14  31  13  32  13  33  13  34  13  35  13  36  13  37  13
M  ISO  3  38  13  39  13  40  13
M  END
>  <minimizedAffinity>  (1) 
-3.91245818

>  <minimizedRMSD>  (1) 
1.20318162

$$$$
