
     RDKit          3D

 32 34  0  0  1  0  0  0  0  0999 V2000
   47.2320   32.4270   44.6450 N   0  0  0  0  0  0  0  0  0  0  0  0
   47.1520   32.3220   46.0840 C   0  0  0  0  0  0  0  0  0  0  0  0
   45.8280   31.6260   46.2280 C   0  0  0  0  0  0  0  0  0  0  0  0
   45.8420   30.6440   45.1140 C   0  0  0  0  0  0  0  0  0  0  0  0
   47.0410   31.0150   44.2650 C   0  0  2  0  0  0  0  0  0  0  0  0
   47.4140   33.4600   43.6790 C   0  0  0  0  0  0  0  0  0  0  0  0
   46.4090   34.3190   43.2180 C   0  0  0  0  0  0  0  0  0  0  0  0
   46.7330   35.2660   42.2620 C   0  0  0  0  0  0  0  0  0  0  0  0
   48.0090   35.3100   41.8260 N   0  0  0  0  0  0  0  0  0  0  0  0
   48.9570   34.4860   42.2760 C   0  0  0  0  0  0  0  0  0  0  0  0
   48.6590   33.5580   43.2060 N   0  0  0  0  0  0  0  0  0  0  0  0
   45.0590   34.1350   43.8180 C   0  0  0  0  0  0  0  0  0  0  0  0
   44.1630   35.0430   43.2320 F   0  0  0  0  0  0  0  0  0  0  0  0
   45.0070   34.3880   45.1550 F   0  0  0  0  0  0  0  0  0  0  0  0
   44.5150   32.9310   43.5280 F   0  0  0  0  0  0  0  0  0  0  0  0
   48.2220   30.2000   44.5300 C   0  0  0  0  0  0  0  0  0  0  0  0
   48.5510   29.2990   45.5010 C   0  0  0  0  0  0  0  0  0  0  0  0
   49.8350   28.8300   45.2330 C   0  0  0  0  0  0  0  0  0  0  0  0
   50.2590   29.4480   44.1130 N   0  0  0  0  0  0  0  0  0  0  0  0
   49.2890   30.2540   43.7150 N   0  0  0  0  0  0  0  0  0  0  0  0
   47.9756   31.7195   46.4947 H   0  0  0  0  0  0  0  0  0  0  0  0
   47.2305   33.2788   46.6210 H   0  0  0  0  0  0  0  0  0  0  0  0
   45.7522   31.1186   47.2010 H   0  0  0  0  0  0  0  0  0  0  0  0
   44.9707   32.3140   46.1877 H   0  0  0  0  0  0  0  0  0  0  0  0
   45.9485   29.6210   45.5041 H   0  0  0  0  0  0  0  0  0  0  0  0
   44.9072   30.6694   44.5347 H   0  0  0  0  0  0  0  0  0  0  0  0
   46.8822   30.8491   43.1892 H   0  0  0  0  0  0  0  0  0  0  0  0
   45.9748   35.9602   41.8705 H   0  0  0  0  0  0  0  0  0  0  0  0
   49.9830   34.5645   41.8872 H   0  0  0  0  0  0  0  0  0  0  0  0
   47.9147   28.9967   46.3458 H   0  0  0  0  0  0  0  0  0  0  0  0
   50.3976   28.0930   45.8249 H   0  0  0  0  0  0  0  0  0  0  0  0
   51.1706   29.3168   43.6519 H   0  0  0  0  0  0  0  0  0  0  0  0
  1  2  1  0
  2  3  1  0
  4  3  1  0
  5 16  1  0
  5  1  1  0
  5  4  1  0
  6  1  1  0
  7  6  2  0
  7 12  1  0
  8  7  1  0
  9  8  2  0
  9 10  1  0
 10 11  2  0
 11  6  1  0
 12 14  1  0
 13 12  1  0
 15 12  1  0
 16 17  1  0
 18 17  2  0
 19 18  1  0
 20 19  1  0
 20 16  2  0
  2 21  1  0
  2 22  1  0
  3 23  1  0
  3 24  1  0
  4 25  1  0
  4 26  1  0
  5 27  1  6
  8 28  1  0
 10 29  1  0
 17 30  1  0
 18 31  1  0
 19 32  1  0
M  ISO  8  21  13  22  13  23  13  24  13  25  13  26  13  27  13  28  14
M  ISO  4  29  14  30  14  31  14  32   9
M  END
>  <minimizedAffinity>  (1) 
-3.93461299

>  <minimizedRMSD>  (1) 
0.289311111

$$$$
