
     RDKit          3D

 27 28  0  0  1  0  0  0  0  0999 V2000
   47.2360   32.4470   44.6740 N   0  0  0  0  0  0  0  0  0  0  0  0
   47.1390   32.3950   46.1120 C   0  0  0  0  0  0  0  0  0  0  0  0
   45.8300   31.6870   46.2730 C   0  0  0  0  0  0  0  0  0  0  0  0
   45.8570   30.6700   45.1900 C   0  0  0  0  0  0  0  0  0  0  0  0
   47.0560   31.0380   44.3380 C   0  0  2  0  0  0  0  0  0  0  0  0
   47.4190   33.4650   43.6960 C   0  0  0  0  0  0  0  0  0  0  0  0
   46.4100   34.3150   43.2260 C   0  0  0  0  0  0  0  0  0  0  0  0
   46.7430   35.2650   42.2590 C   0  0  0  0  0  0  0  0  0  0  0  0
   48.0180   35.3100   41.8340 N   0  0  0  0  0  0  0  0  0  0  0  0
   48.9640   34.4900   42.2960 C   0  0  0  0  0  0  0  0  0  0  0  0
   48.6710   33.5590   43.2340 N   0  0  0  0  0  0  0  0  0  0  0  0
   45.0560   34.1380   43.8150 C   0  0  0  0  0  0  0  0  0  0  0  0
   44.1630   35.0320   43.2110 F   0  0  0  0  0  0  0  0  0  0  0  0
   45.0100   34.4280   45.1490 F   0  0  0  0  0  0  0  0  0  0  0  0
   44.5170   32.9250   43.5640 F   0  0  0  0  0  0  0  0  0  0  0  0
   48.2440   30.2260   44.5280 C   0  0  0  0  0  0  0  0  0  0  0  0
   49.0350   30.1950   43.5740 O   0  0  0  0  0  0  0  0  0  0  0  0
   47.9674   31.8221   46.5542 H   0  0  0  0  0  0  0  0  0  0  0  0
   47.1943   33.3741   46.6104 H   0  0  0  0  0  0  0  0  0  0  0  0
   45.7594   31.2088   47.2611 H   0  0  0  0  0  0  0  0  0  0  0  0
   44.9641   32.3623   46.2083 H   0  0  0  0  0  0  0  0  0  0  0  0
   45.9762   29.6604   45.6102 H   0  0  0  0  0  0  0  0  0  0  0  0
   44.9234   30.6601   44.6083 H   0  0  0  0  0  0  0  0  0  0  0  0
   46.8810   30.8490   43.2686 H   0  0  0  0  0  0  0  0  0  0  0  0
   45.9864   35.9550   41.8573 H   0  0  0  0  0  0  0  0  0  0  0  0
   49.9912   34.5713   41.9111 H   0  0  0  0  0  0  0  0  0  0  0  0
   48.4308   29.6727   45.4602 H   0  0  0  0  0  0  0  0  0  0  0  0
  1  2  1  0
  2  3  1  0
  4  3  1  0
  5 16  1  0
  5  1  1  0
  5  4  1  0
  6  1  1  0
  7  6  2  0
  7 12  1  0
  8  7  1  0
  9  8  2  0
  9 10  1  0
 10 11  2  0
 11  6  1  0
 12 14  1  0
 13 12  1  0
 15 12  1  0
 17 16  2  0
  2 18  1  0
  2 19  1  0
  3 20  1  0
  3 21  1  0
  4 22  1  0
  4 23  1  0
  5 24  1  6
  8 25  1  0
 10 26  1  0
 16 27  1  0
M  ISO  8  18  13  19  13  20  13  21  13  22  13  23  13  24  13  25  14
M  ISO  2  26  14  27   6
M  END
>  <minimizedAffinity>  (1) 
-3.61278582

>  <minimizedRMSD>  (1) 
0.190823138

$$$$
