
     RDKit          3D

 26 27  0  0  1  0  0  0  0  0999 V2000
   47.2590   32.4270   44.6600 N   0  0  0  0  0  0  0  0  0  0  0  0
   47.1310   32.3310   46.0950 C   0  0  0  0  0  0  0  0  0  0  0  0
   45.8280   31.5980   46.2040 C   0  0  0  0  0  0  0  0  0  0  0  0
   45.9030   30.6140   45.1010 C   0  0  0  0  0  0  0  0  0  0  0  0
   47.1150   31.0050   44.2740 C   0  0  2  0  0  0  0  0  0  0  0  0
   47.4520   33.4620   43.6980 C   0  0  0  0  0  0  0  0  0  0  0  0
   46.4600   34.3660   43.2960 C   0  0  0  0  0  0  0  0  0  0  0  0
   46.7930   35.3270   42.3360 C   0  0  0  0  0  0  0  0  0  0  0  0
   48.0460   35.3230   41.8590 N   0  0  0  0  0  0  0  0  0  0  0  0
   48.9790   34.4490   42.2570 C   0  0  0  0  0  0  0  0  0  0  0  0
   48.6870   33.5010   43.1890 N   0  0  0  0  0  0  0  0  0  0  0  0
   45.1280   34.2290   43.9410 C   0  0  0  0  0  0  0  0  0  0  0  0
   44.2500   35.1820   43.3990 F   0  0  0  0  0  0  0  0  0  0  0  0
   45.1470   34.4880   45.2780 F   0  0  0  0  0  0  0  0  0  0  0  0
   44.5290   33.0480   43.6710 F   0  0  0  0  0  0  0  0  0  0  0  0
   48.2670   30.3390   44.5980 O   0  0  0  0  0  0  0  0  0  0  0  0
   47.9580   31.7576   46.5391 H   0  0  0  0  0  0  0  0  0  0  0  0
   47.1604   33.2952   46.6236 H   0  0  0  0  0  0  0  0  0  0  0  0
   45.7388   31.0938   47.1776 H   0  0  0  0  0  0  0  0  0  0  0  0
   44.9523   32.2600   46.1340 H   0  0  0  0  0  0  0  0  0  0  0  0
   46.0263   29.5976   45.5031 H   0  0  0  0  0  0  0  0  0  0  0  0
   44.9844   30.6158   44.4959 H   0  0  0  0  0  0  0  0  0  0  0  0
   46.9713   30.7829   43.2063 H   0  0  0  0  0  0  0  0  0  0  0  0
   46.0526   36.0607   41.9845 H   0  0  0  0  0  0  0  0  0  0  0  0
   49.9903   34.4975   41.8270 H   0  0  0  0  0  0  0  0  0  0  0  0
   48.3534   30.2890   45.5830 H   0  0  0  0  0  0  0  0  0  0  0  0
  1  2  1  0
  2  3  1  0
  4  3  1  0
  5 16  1  0
  5  1  1  0
  5  4  1  0
  6  1  1  0
  7  6  2  0
  7 12  1  0
  8  7  1  0
  9 10  1  0
  9  8  2  0
 10 11  2  0
 11  6  1  0
 12 14  1  0
 13 12  1  0
 15 12  1  0
  2 17  1  0
  2 18  1  0
  3 19  1  0
  3 20  1  0
  4 21  1  0
  4 22  1  0
  5 23  1  6
  8 24  1  0
 10 25  1  0
 16 26  1  0
M  ISO  8  17  13  18  13  19  13  20  13  21  13  22  13  23  13  24  14
M  ISO  2  25  14  26   3
M  END
>  <minimizedAffinity>  (1) 
-3.71106005

>  <minimizedRMSD>  (1) 
0.218198881

$$$$
