
     RDKit          3D

 31 32  0  0  1  0  0  0  0  0999 V2000
   47.2360   32.4340   44.6650 N   0  0  0  0  0  0  0  0  0  0  0  0
   47.1260   32.3520   46.1050 C   0  0  0  0  0  0  0  0  0  0  0  0
   45.8150   31.6300   46.2290 C   0  0  0  0  0  0  0  0  0  0  0  0
   45.8710   30.6300   45.1260 C   0  0  0  0  0  0  0  0  0  0  0  0
   47.0730   31.0210   44.2990 C   0  0  2  0  0  0  0  0  0  0  0  0
   47.4250   33.4580   43.6910 C   0  0  0  0  0  0  0  0  0  0  0  0
   46.4160   34.3150   43.2300 C   0  0  0  0  0  0  0  0  0  0  0  0
   46.7490   35.2640   42.2660 C   0  0  0  0  0  0  0  0  0  0  0  0
   48.0210   35.3030   41.8330 N   0  0  0  0  0  0  0  0  0  0  0  0
   48.9680   34.4750   42.2870 C   0  0  0  0  0  0  0  0  0  0  0  0
   48.6750   33.5370   43.2290 N   0  0  0  0  0  0  0  0  0  0  0  0
   45.0640   34.1360   43.8220 C   0  0  0  0  0  0  0  0  0  0  0  0
   44.1690   35.0300   43.2170 F   0  0  0  0  0  0  0  0  0  0  0  0
   45.0070   34.4070   45.1530 F   0  0  0  0  0  0  0  0  0  0  0  0
   44.5260   32.9280   43.5460 F   0  0  0  0  0  0  0  0  0  0  0  0
   48.2830   30.1950   44.5050 C   0  0  0  0  0  0  0  0  0  0  0  0
   48.8570   29.9240   43.1070 C   0  0  0  0  0  0  0  0  0  0  0  0
   47.9526   31.7746   46.5448 H   0  0  0  0  0  0  0  0  0  0  0  0
   47.1723   33.3187   46.6277 H   0  0  0  0  0  0  0  0  0  0  0  0
   45.7289   31.1340   47.2070 H   0  0  0  0  0  0  0  0  0  0  0  0
   44.9454   32.3001   46.1598 H   0  0  0  0  0  0  0  0  0  0  0  0
   45.9951   29.6149   45.5313 H   0  0  0  0  0  0  0  0  0  0  0  0
   44.9464   30.6223   44.5302 H   0  0  0  0  0  0  0  0  0  0  0  0
   46.9199   30.8543   43.2225 H   0  0  0  0  0  0  0  0  0  0  0  0
   45.9942   35.9601   41.8713 H   0  0  0  0  0  0  0  0  0  0  0  0
   49.9931   34.5526   41.8956 H   0  0  0  0  0  0  0  0  0  0  0  0
   49.0158   30.7381   45.1198 H   0  0  0  0  0  0  0  0  0  0  0  0
   48.0453   29.2582   45.0302 H   0  0  0  0  0  0  0  0  0  0  0  0
   49.8480   29.4561   43.2019 H   0  0  0  0  0  0  0  0  0  0  0  0
   48.1837   29.2487   42.5588 H   0  0  0  0  0  0  0  0  0  0  0  0
   48.9506   30.8730   42.5588 H   0  0  0  0  0  0  0  0  0  0  0  0
  1  2  1  0
  2  3  1  0
  4  3  1  0
  5 16  1  0
  5  1  1  0
  5  4  1  0
  6  1  1  0
  7  6  2  0
  7 12  1  0
  8  7  1  0
  9  8  2  0
  9 10  1  0
 10 11  2  0
 11  6  1  0
 12 14  1  0
 13 12  1  0
 15 12  1  0
 17 16  1  0
  2 18  1  0
  2 19  1  0
  3 20  1  0
  3 21  1  0
  4 22  1  0
  4 23  1  0
  5 24  1  6
  8 25  1  0
 10 26  1  0
 16 27  1  0
 16 28  1  0
 17 29  1  0
 17 30  1  0
 17 31  1  0
M  ISO  8  18  13  19  13  20  13  21  13  22  13  23  13  24  13  25  14
M  ISO  6  26  14  27   8  28   8  29   8  30   8  31   8
M  END
>  <minimizedAffinity>  (1) 
-3.64337993

>  <minimizedRMSD>  (1) 
0.200966328

$$$$
