
     RDKit          3D

 43 46  0  0  1  0  0  0  0  0999 V2000
   46.3850   31.1570   45.3030 C   0  0  2  0  0  0  0  0  0  0  0  0
   44.7290   35.0810   45.3880 C   0  0  0  0  0  0  0  0  0  0  0  0
   44.5610   36.1290   44.4840 C   0  0  0  0  0  0  0  0  0  0  0  0
   45.2940   36.0970   43.2850 C   0  0  0  0  0  0  0  0  0  0  0  0
   46.1250   35.0560   43.0630 N   0  0  0  0  0  0  0  0  0  0  0  0
   46.2780   34.0360   43.9600 C   0  0  0  0  0  0  0  0  0  0  0  0
   45.5760   34.0720   45.1030 N   0  0  0  0  0  0  0  0  0  0  0  0
   47.1450   32.9470   43.7520 N   0  0  0  0  0  0  0  0  0  0  0  0
   48.1180   33.1340   42.8100 C   0  0  0  0  0  0  0  0  0  0  0  0
   48.8480   31.9310   42.7970 C   0  0  0  0  0  0  0  0  0  0  0  0
   48.3010   31.0820   43.7110 N   0  0  0  0  0  0  0  0  0  0  0  0
   47.2670   31.7230   44.2780 C   0  0  0  0  0  0  0  0  0  0  0  0
   47.1890   31.2220   46.6320 C   0  0  0  0  0  0  0  0  0  0  0  0
   46.1070   29.7110   45.0250 C   0  0  0  0  0  0  0  0  0  0  0  0
   44.8070   29.4630   44.5150 N   0  0  0  0  0  0  0  0  0  0  0  0
   44.2840   30.0260   43.4260 N   0  0  0  0  0  0  0  0  0  0  0  0
   43.0280   29.5470   43.2620 C   0  0  0  0  0  0  0  0  0  0  0  0
   42.7410   28.6530   44.2770 C   0  0  0  0  0  0  0  0  0  0  0  0
   43.8990   28.6170   45.0660 C   0  0  0  0  0  0  0  0  0  0  0  0
   43.9480   27.7710   46.2470 C   0  0  0  0  0  0  0  0  0  0  0  0
   43.0570   26.6960   46.2760 C   0  0  0  0  0  0  0  0  0  0  0  0
   42.9430   25.7750   47.2920 C   0  0  0  0  0  0  0  0  0  0  0  0
   43.7700   25.9110   48.3810 C   0  0  0  0  0  0  0  0  0  0  0  0
   44.6640   26.9590   48.3920 C   0  0  0  0  0  0  0  0  0  0  0  0
   44.7540   27.8650   47.3580 C   0  0  0  0  0  0  0  0  0  0  0  0
   45.4319   31.7054   45.3335 H   0  0  0  0  0  0  0  0  0  0  0  0
   44.1696   35.0776   46.3351 H   0  0  0  0  0  0  0  0  0  0  0  0
   43.8731   36.9589   44.7032 H   0  0  0  0  0  0  0  0  0  0  0  0
   45.1928   36.9029   42.5432 H   0  0  0  0  0  0  0  0  0  0  0  0
   48.2923   34.0298   42.1959 H   0  0  0  0  0  0  0  0  0  0  0  0
   49.7150   31.7128   42.1562 H   0  0  0  0  0  0  0  0  0  0  0  0
   46.4949   31.1659   47.4835 H   0  0  0  0  0  0  0  0  0  0  0  0
   47.8928   30.3778   46.6764 H   0  0  0  0  0  0  0  0  0  0  0  0
   47.7481   32.1683   46.6764 H   0  0  0  0  0  0  0  0  0  0  0  0
   46.8418   29.3524   44.2892 H   0  0  0  0  0  0  0  0  0  0  0  0
   46.1789   29.1816   45.9866 H   0  0  0  0  0  0  0  0  0  0  0  0
   42.3427   29.8258   42.4480 H   0  0  0  0  0  0  0  0  0  0  0  0
   41.8074   28.0922   44.4316 H   0  0  0  0  0  0  0  0  0  0  0  0
   42.3880   26.5750   45.4113 H   0  0  0  0  0  0  0  0  0  0  0  0
   42.2122   24.9549   47.2342 H   0  0  0  0  0  0  0  0  0  0  0  0
   43.7195   25.2025   49.2209 H   0  0  0  0  0  0  0  0  0  0  0  0
   45.3310   27.0769   49.2588 H   0  0  0  0  0  0  0  0  0  0  0  0
   45.4873   28.6824   47.4222 H   0  0  0  0  0  0  0  0  0  0  0  0
  1 13  1  0
  3  2  2  0
  4  3  1  0
  5  4  2  0
  5  6  1  0
  6  7  2  0
  7  2  1  0
  8  6  1  0
  8 12  1  0
  9  8  1  0
 10  9  2  0
 10 11  1  0
 11 12  2  0
 12  1  1  0
 14  1  1  0
 15 14  1  0
 15 19  1  0
 16 15  1  0
 17 16  2  0
 17 18  1  0
 18 19  2  0
 19 20  1  0
 20 21  2  0
 20 25  1  0
 21 22  1  0
 22 23  2  0
 23 24  1  0
 25 24  2  0
  1 26  1  1
  2 27  1  0
  3 28  1  0
  4 29  1  0
  9 30  1  0
 10 31  1  0
 13 32  1  0
 13 33  1  0
 13 34  1  0
 14 35  1  0
 14 36  1  0
 17 37  1  0
 18 38  1  0
 21 39  1  0
 22 40  1  0
 23 41  1  0
 24 42  1  0
 25 43  1  0
M  ISO  8  26   8  27  14  28  14  29  14  30  14  31  14  32   8  33   8
M  ISO  8  34   8  35   8  36   8  37  14  38  14  39  14  40  14  41  14
M  ISO  2  42  14  43  14
M  END
>  <minimizedAffinity>  (1) 
-5.38825655

>  <minimizedRMSD>  (1) 
2.6528306

$$$$
