
     RDKit          3D

 48 51  0  0  1  0  0  0  0  0999 V2000
   47.2260   32.4710   44.6040 N   0  0  0  0  0  0  0  0  0  0  0  0
   47.1010   32.3680   46.0280 C   0  0  0  0  0  0  0  0  0  0  0  0
   45.8570   31.5870   46.1620 C   0  0  0  0  0  0  0  0  0  0  0  0
   45.9080   30.6250   45.0250 C   0  0  0  0  0  0  0  0  0  0  0  0
   47.1050   31.0510   44.2140 C   0  0  2  0  0  0  0  0  0  0  0  0
   47.4070   33.5230   43.6400 C   0  0  0  0  0  0  0  0  0  0  0  0
   46.3650   34.3650   43.2100 C   0  0  0  0  0  0  0  0  0  0  0  0
   46.6740   35.3430   42.2640 C   0  0  0  0  0  0  0  0  0  0  0  0
   47.9320   35.4200   41.8290 N   0  0  0  0  0  0  0  0  0  0  0  0
   48.9000   34.6060   42.2550 C   0  0  0  0  0  0  0  0  0  0  0  0
   48.6350   33.6550   43.1660 N   0  0  0  0  0  0  0  0  0  0  0  0
   45.0140   34.1250   43.8130 C   0  0  0  0  0  0  0  0  0  0  0  0
   44.1020   35.0100   43.2150 F   0  0  0  0  0  0  0  0  0  0  0  0
   44.9910   34.4080   45.1270 F   0  0  0  0  0  0  0  0  0  0  0  0
   44.5150   32.9230   43.5010 F   0  0  0  0  0  0  0  0  0  0  0  0
   48.2960   30.2680   44.4720 C   0  0  0  0  0  0  0  0  0  0  0  0
   48.6810   29.4260   45.4640 C   0  0  0  0  0  0  0  0  0  0  0  0
   49.8810   28.8300   45.4310 C   0  0  0  0  0  0  0  0  0  0  0  0
   50.7090   29.1220   44.3240 C   0  0  0  0  0  0  0  0  0  0  0  0
   49.6550   30.3020   43.3430 S   0  0  0  0  0  0  0  0  0  0  0  0
   52.0400   28.6430   44.0020 C   0  0  0  0  0  0  0  0  0  0  0  0
   52.9950   29.7220   44.3730 C   0  0  0  0  0  0  0  0  0  0  0  0
   54.4390   29.3890   44.0740 C   0  0  0  0  0  0  0  0  0  0  0  0
   54.5200   27.9950   43.4510 C   0  0  0  0  0  0  0  0  0  0  0  0
   53.6410   27.9940   42.2130 C   0  0  0  0  0  0  0  0  0  0  0  0
   52.2140   28.3560   42.5100 C   0  0  0  0  0  0  0  0  0  0  0  0
   47.9576   31.8368   46.4686 H   0  0  0  0  0  0  0  0  0  0  0  0
   47.0778   33.3381   46.5460 H   0  0  0  0  0  0  0  0  0  0  0  0
   45.8323   31.0539   47.1239 H   0  0  0  0  0  0  0  0  0  0  0  0
   44.9570   32.2192   46.1403 H   0  0  0  0  0  0  0  0  0  0  0  0
   46.0355   29.5963   45.3931 H   0  0  0  0  0  0  0  0  0  0  0  0
   44.9811   30.6324   44.4328 H   0  0  0  0  0  0  0  0  0  0  0  0
   46.9835   30.8987   43.1314 H   0  0  0  0  0  0  0  0  0  0  0  0
   45.9021   36.0306   41.8880 H   0  0  0  0  0  0  0  0  0  0  0  0
   49.9202   34.7144   41.8581 H   0  0  0  0  0  0  0  0  0  0  0  0
   48.0000   29.2302   46.3054 H   0  0  0  0  0  0  0  0  0  0  0  0
   50.2060   28.1456   46.2284 H   0  0  0  0  0  0  0  0  0  0  0  0
   52.2151   27.7041   44.5477 H   0  0  0  0  0  0  0  0  0  0  0  0
   52.7258   30.6304   43.8142 H   0  0  0  0  0  0  0  0  0  0  0  0
   52.9168   29.8583   45.4617 H   0  0  0  0  0  0  0  0  0  0  0  0
   54.8485   30.1295   43.3712 H   0  0  0  0  0  0  0  0  0  0  0  0
   55.0216   29.4091   45.0069 H   0  0  0  0  0  0  0  0  0  0  0  0
   55.5598   27.7682   43.1730 H   0  0  0  0  0  0  0  0  0  0  0  0
   54.1806   27.2316   44.1666 H   0  0  0  0  0  0  0  0  0  0  0  0
   53.6628   26.9884   41.7677 H   0  0  0  0  0  0  0  0  0  0  0  0
   54.0385   28.7546   41.5249 H   0  0  0  0  0  0  0  0  0  0  0  0
   51.9391   29.2516   41.9335 H   0  0  0  0  0  0  0  0  0  0  0  0
   51.5647   27.5137   42.2290 H   0  0  0  0  0  0  0  0  0  0  0  0
  1  2  1  0
  2  3  1  0
  4  3  1  0
  5 16  1  0
  5  1  1  0
  5  4  1  0
  6  1  1  0
  7  6  2  0
  7 12  1  0
  8  7  1  0
  9 10  1  0
  9  8  2  0
 10 11  2  0
 11  6  1  0
 12 14  1  0
 13 12  1  0
 15 12  1  0
 16 17  2  0
 18 17  1  0
 19 18  2  0
 20 19  1  0
 20 16  1  0
 21 19  1  0
 21 22  1  0
 23 22  1  0
 24 23  1  0
 25 26  1  0
 25 24  1  0
 26 21  1  0
  2 27  1  0
  2 28  1  0
  3 29  1  0
  3 30  1  0
  4 31  1  0
  4 32  1  0
  5 33  1  6
  8 34  1  0
 10 35  1  0
 17 36  1  0
 18 37  1  0
 21 38  1  0
 22 39  1  0
 22 40  1  0
 23 41  1  0
 23 42  1  0
 24 43  1  0
 24 44  1  0
 25 45  1  0
 25 46  1  0
 26 47  1  0
 26 48  1  0
M  ISO  8  27  13  28  13  29  13  30  13  31  13  32  13  33  13  34  14
M  ISO  8  35  14  36  14  37  14  38  13  39  13  40  13  41  13  42  13
M  ISO  6  43  13  44  13  45  13  46  13  47  13  48  13
M  END
>  <minimizedAffinity>  (1) 
-4.21611261

>  <minimizedRMSD>  (1) 
0.275663674

$$$$
