
     RDKit          3D

 46 50  0  0  1  0  0  0  0  0999 V2000
   47.2380   32.4660   44.5870 N   0  0  0  0  0  0  0  0  0  0  0  0
   47.1430   32.3530   46.0110 C   0  0  0  0  0  0  0  0  0  0  0  0
   45.8880   31.5790   46.1580 C   0  0  0  0  0  0  0  0  0  0  0  0
   45.9110   30.6300   45.0140 C   0  0  0  0  0  0  0  0  0  0  0  0
   47.0920   31.0540   44.1790 C   0  0  2  0  0  0  0  0  0  0  0  0
   47.4120   33.5270   43.6310 C   0  0  0  0  0  0  0  0  0  0  0  0
   46.3660   34.3740   43.2150 C   0  0  0  0  0  0  0  0  0  0  0  0
   46.6690   35.3630   42.2760 C   0  0  0  0  0  0  0  0  0  0  0  0
   47.9220   35.4430   41.8340 N   0  0  0  0  0  0  0  0  0  0  0  0
   48.8940   34.6280   42.2460 C   0  0  0  0  0  0  0  0  0  0  0  0
   48.6350   33.6660   43.1480 N   0  0  0  0  0  0  0  0  0  0  0  0
   45.0190   34.1290   43.8230 C   0  0  0  0  0  0  0  0  0  0  0  0
   44.1070   35.0160   43.2360 F   0  0  0  0  0  0  0  0  0  0  0  0
   45.0010   34.3930   45.1390 F   0  0  0  0  0  0  0  0  0  0  0  0
   44.5170   32.9300   43.5030 F   0  0  0  0  0  0  0  0  0  0  0  0
   48.2830   30.2530   44.4090 C   0  0  0  0  0  0  0  0  0  0  0  0
   48.6910   29.4110   45.3810 C   0  0  0  0  0  0  0  0  0  0  0  0
   49.8860   28.7970   45.3380 C   0  0  0  0  0  0  0  0  0  0  0  0
   50.6880   29.0970   44.1990 C   0  0  0  0  0  0  0  0  0  0  0  0
   49.6140   30.2870   43.2430 S   0  0  0  0  0  0  0  0  0  0  0  0
   51.9940   28.6060   43.8730 C   0  0  0  0  0  0  0  0  0  0  0  0
   52.7130   27.6460   44.5380 C   0  0  0  0  0  0  0  0  0  0  0  0
   53.8610   27.5470   43.8430 N   0  0  0  0  0  0  0  0  0  0  0  0
   53.9120   28.3770   42.7890 C   0  0  0  0  0  0  0  0  0  0  0  0
   54.9250   28.5450   41.8620 C   0  0  0  0  0  0  0  0  0  0  0  0
   54.7030   29.4800   40.8730 C   0  0  0  0  0  0  0  0  0  0  0  0
   53.5330   30.2110   40.8100 C   0  0  0  0  0  0  0  0  0  0  0  0
   52.5710   29.9860   41.7680 C   0  0  0  0  0  0  0  0  0  0  0  0
   52.7110   29.0720   42.7920 C   0  0  0  0  0  0  0  0  0  0  0  0
   48.0027   31.8095   46.4300 H   0  0  0  0  0  0  0  0  0  0  0  0
   47.1420   33.3173   46.5403 H   0  0  0  0  0  0  0  0  0  0  0  0
   45.8735   31.0367   47.1149 H   0  0  0  0  0  0  0  0  0  0  0  0
   44.9941   32.2200   46.1568 H   0  0  0  0  0  0  0  0  0  0  0  0
   46.0405   29.5975   45.3707 H   0  0  0  0  0  0  0  0  0  0  0  0
   44.9719   30.6501   44.4416 H   0  0  0  0  0  0  0  0  0  0  0  0
   46.9447   30.9187   43.0973 H   0  0  0  0  0  0  0  0  0  0  0  0
   45.8951   36.0551   41.9127 H   0  0  0  0  0  0  0  0  0  0  0  0
   49.9121   34.7437   41.8458 H   0  0  0  0  0  0  0  0  0  0  0  0
   48.0249   29.2210   46.2355 H   0  0  0  0  0  0  0  0  0  0  0  0
   50.2220   28.1097   46.1284 H   0  0  0  0  0  0  0  0  0  0  0  0
   52.4180   27.0840   45.4364 H   0  0  0  0  0  0  0  0  0  0  0  0
   54.6226   26.9006   44.0940 H   0  0  0  0  0  0  0  0  0  0  0  0
   55.8577   27.9639   41.9112 H   0  0  0  0  0  0  0  0  0  0  0  0
   55.4799   29.6484   40.1127 H   0  0  0  0  0  0  0  0  0  0  0  0
   53.3741   30.9540   40.0145 H   0  0  0  0  0  0  0  0  0  0  0  0
   51.6386   30.5672   41.7144 H   0  0  0  0  0  0  0  0  0  0  0  0
  1  2  1  0
  2  3  1  0
  4  3  1  0
  5 16  1  0
  5  1  1  0
  5  4  1  0
  6  1  1  0
  7  6  2  0
  7 12  1  0
  8  7  1  0
  9 10  1  0
  9  8  2  0
 10 11  2  0
 11  6  1  0
 12 14  1  0
 13 12  1  0
 15 12  1  0
 16 17  2  0
 18 17  1  0
 19 18  2  0
 20 19  1  0
 20 16  1  0
 21 19  1  0
 21 22  2  0
 23 22  1  0
 24 29  2  0
 24 23  1  0
 25 24  1  0
 26 25  2  0
 27 26  1  0
 27 28  2  0
 28 29  1  0
 29 21  1  0
  2 30  1  0
  2 31  1  0
  3 32  1  0
  3 33  1  0
  4 34  1  0
  4 35  1  0
  5 36  1  6
  8 37  1  0
 10 38  1  0
 17 39  1  0
 18 40  1  0
 22 41  1  0
 23 42  1  0
 25 43  1  0
 26 44  1  0
 27 45  1  0
 28 46  1  0
M  ISO  8  30  13  31  13  32  13  33  13  34  13  35  13  36  13  37  14
M  ISO  8  38  14  39  14  40  14  41  14  42   9  43  14  44  14  45  14
M  ISO  1  46  14
M  END
>  <minimizedAffinity>  (1) 
-4.42073441

>  <minimizedRMSD>  (1) 
0.410646677

$$$$
