
     RDKit          3D

 39 41  0  0  1  0  0  0  0  0999 V2000
   47.2300   32.4610   44.6200 N   0  0  0  0  0  0  0  0  0  0  0  0
   47.1150   32.3660   46.0460 C   0  0  0  0  0  0  0  0  0  0  0  0
   45.8580   31.6040   46.1900 C   0  0  0  0  0  0  0  0  0  0  0  0
   45.8890   30.6360   45.0600 C   0  0  0  0  0  0  0  0  0  0  0  0
   47.0840   31.0420   44.2390 C   0  0  2  0  0  0  0  0  0  0  0  0
   47.4180   33.5070   43.6510 C   0  0  0  0  0  0  0  0  0  0  0  0
   46.3850   34.3520   43.2130 C   0  0  0  0  0  0  0  0  0  0  0  0
   46.7000   35.3250   42.2610 C   0  0  0  0  0  0  0  0  0  0  0  0
   47.9620   35.3870   41.8310 N   0  0  0  0  0  0  0  0  0  0  0  0
   48.9190   34.5760   42.2620 C   0  0  0  0  0  0  0  0  0  0  0  0
   48.6490   33.6250   43.1790 N   0  0  0  0  0  0  0  0  0  0  0  0
   45.0310   34.1230   43.8150 C   0  0  0  0  0  0  0  0  0  0  0  0
   44.1180   35.0130   43.2160 F   0  0  0  0  0  0  0  0  0  0  0  0
   45.0050   34.4110   45.1260 F   0  0  0  0  0  0  0  0  0  0  0  0
   44.5190   32.9220   43.5080 F   0  0  0  0  0  0  0  0  0  0  0  0
   48.2680   30.2430   44.4940 C   0  0  0  0  0  0  0  0  0  0  0  0
   48.6690   29.4180   45.4790 C   0  0  0  0  0  0  0  0  0  0  0  0
   49.8580   28.8040   45.4360 C   0  0  0  0  0  0  0  0  0  0  0  0
   50.6680   29.0540   44.3270 C   0  0  0  0  0  0  0  0  0  0  0  0
   49.6110   30.2320   43.3470 S   0  0  0  0  0  0  0  0  0  0  0  0
   51.9300   28.6690   43.8110 N   0  0  0  0  0  0  0  0  0  0  0  0
   52.9420   29.6290   43.7790 C   0  0  0  0  0  0  0  0  0  0  0  0
   53.1720   30.3680   44.7970 N   0  0  0  0  0  0  0  0  0  0  0  0
   53.7480   29.7840   42.5880 N   0  0  0  0  0  0  0  0  0  0  0  0
   52.6370   30.2980   45.6790 H   0  0  0  0  0  0  0  0  0  0  0  0
   47.9663   31.8230   46.4825 H   0  0  0  0  0  0  0  0  0  0  0  0
   47.1119   33.3378   46.5614 H   0  0  0  0  0  0  0  0  0  0  0  0
   45.8292   31.0769   47.1551 H   0  0  0  0  0  0  0  0  0  0  0  0
   44.9679   32.2499   46.1684 H   0  0  0  0  0  0  0  0  0  0  0  0
   46.0065   29.6080   45.4334 H   0  0  0  0  0  0  0  0  0  0  0  0
   44.9580   30.6513   44.4743 H   0  0  0  0  0  0  0  0  0  0  0  0
   46.9502   30.8867   43.1583 H   0  0  0  0  0  0  0  0  0  0  0  0
   45.9342   36.0162   41.8790 H   0  0  0  0  0  0  0  0  0  0  0  0
   49.9409   34.6800   41.8683 H   0  0  0  0  0  0  0  0  0  0  0  0
   48.0050   29.2443   46.3386 H   0  0  0  0  0  0  0  0  0  0  0  0
   50.1834   28.1298   46.2420 H   0  0  0  0  0  0  0  0  0  0  0  0
   52.0952   27.7111   43.4704 H   0  0  0  0  0  0  0  0  0  0  0  0
   54.4959   30.4916   42.5608 H   0  0  0  0  0  0  0  0  0  0  0  0
   53.5740   29.1867   41.7671 H   0  0  0  0  0  0  0  0  0  0  0  0
  1  2  1  0
  2  3  1  0
  4  3  1  0
  5 16  1  0
  5  1  1  0
  5  4  1  0
  6  1  1  0
  7  6  2  0
  7 12  1  0
  8  7  1  0
  9  8  2  0
  9 10  1  0
 10 11  2  0
 11  6  1  0
 12 14  1  0
 13 12  1  0
 15 12  1  0
 16 17  2  0
 18 17  1  0
 19 18  2  0
 20 19  1  0
 20 16  1  0
 21 19  1  0
 22 21  1  0
 22 23  2  0
 23 25  1  0
 24 22  1  0
  2 26  1  0
  2 27  1  0
  3 28  1  0
  3 29  1  0
  4 30  1  0
  4 31  1  0
  5 32  1  6
  8 33  1  0
 10 34  1  0
 17 35  1  0
 18 36  1  0
 21 37  1  0
 24 38  1  0
 24 39  1  0
M  ISO  8  26  13  27  13  28  13  29  13  30  13  31  13  32  13  33  14
M  ISO  3  34  14  35  14  36  14
M  END
>  <minimizedAffinity>  (1) 
-4.48431396

>  <minimizedRMSD>  (1) 
0.286080062

$$$$
