
     RDKit          3D

 45 49  0  0  1  0  0  0  0  0999 V2000
   47.2580   32.4490   44.5600 N   0  0  0  0  0  0  0  0  0  0  0  0
   47.1600   32.3180   45.9840 C   0  0  0  0  0  0  0  0  0  0  0  0
   45.9160   31.5330   46.1220 C   0  0  0  0  0  0  0  0  0  0  0  0
   45.9490   30.5940   44.9690 C   0  0  0  0  0  0  0  0  0  0  0  0
   47.1290   31.0370   44.1440 C   0  0  2  0  0  0  0  0  0  0  0  0
   47.4210   33.5200   43.6140 C   0  0  0  0  0  0  0  0  0  0  0  0
   46.3690   34.3600   43.2080 C   0  0  0  0  0  0  0  0  0  0  0  0
   46.6590   35.3610   42.2800 C   0  0  0  0  0  0  0  0  0  0  0  0
   47.9140   35.4590   41.8370 N   0  0  0  0  0  0  0  0  0  0  0  0
   48.8930   34.6470   42.2390 C   0  0  0  0  0  0  0  0  0  0  0  0
   48.6440   33.6710   43.1330 N   0  0  0  0  0  0  0  0  0  0  0  0
   45.0250   34.0960   43.8160 C   0  0  0  0  0  0  0  0  0  0  0  0
   44.1020   34.9820   43.2390 F   0  0  0  0  0  0  0  0  0  0  0  0
   45.0090   34.3540   45.1340 F   0  0  0  0  0  0  0  0  0  0  0  0
   44.5310   32.8970   43.4870 F   0  0  0  0  0  0  0  0  0  0  0  0
   48.3280   30.2510   44.3650 C   0  0  0  0  0  0  0  0  0  0  0  0
   48.7450   29.3990   45.3340 C   0  0  0  0  0  0  0  0  0  0  0  0
   49.9440   28.8070   45.2710 C   0  0  0  0  0  0  0  0  0  0  0  0
   50.7460   29.1150   44.1520 C   0  0  0  0  0  0  0  0  0  0  0  0
   49.6570   30.3100   43.2040 S   0  0  0  0  0  0  0  0  0  0  0  0
   52.0300   28.6670   43.8000 N   0  0  0  0  0  0  0  0  0  0  0  0
   52.6760   27.7110   44.5080 C   0  0  0  0  0  0  0  0  0  0  0  0
   53.8910   27.4910   43.9280 N   0  0  0  0  0  0  0  0  0  0  0  0
   53.9850   28.3250   42.8520 C   0  0  0  0  0  0  0  0  0  0  0  0
   54.9350   28.5780   41.8820 C   0  0  0  0  0  0  0  0  0  0  0  0
   54.7090   29.5080   40.9130 N   0  0  0  0  0  0  0  0  0  0  0  0
   53.5660   30.2090   40.8590 C   0  0  0  0  0  0  0  0  0  0  0  0
   52.6450   29.9650   41.7970 N   0  0  0  0  0  0  0  0  0  0  0  0
   52.8090   29.0610   42.7800 C   0  0  0  0  0  0  0  0  0  0  0  0
   56.1580   27.8490   41.9140 N   0  0  0  0  0  0  0  0  0  0  0  0
   48.0241   31.7780   46.3984 H   0  0  0  0  0  0  0  0  0  0  0  0
   47.1477   33.2768   46.5231 H   0  0  0  0  0  0  0  0  0  0  0  0
   45.9057   30.9820   47.0740 H   0  0  0  0  0  0  0  0  0  0  0  0
   45.0161   32.1656   46.1253 H   0  0  0  0  0  0  0  0  0  0  0  0
   46.0857   29.5592   45.3161 H   0  0  0  0  0  0  0  0  0  0  0  0
   45.0114   30.6102   44.3940 H   0  0  0  0  0  0  0  0  0  0  0  0
   46.9850   30.9050   43.0615 H   0  0  0  0  0  0  0  0  0  0  0  0
   45.8771   36.0482   41.9245 H   0  0  0  0  0  0  0  0  0  0  0  0
   49.9093   34.7753   41.8381 H   0  0  0  0  0  0  0  0  0  0  0  0
   48.0849   29.1902   46.1888 H   0  0  0  0  0  0  0  0  0  0  0  0
   50.2871   28.1142   46.0535 H   0  0  0  0  0  0  0  0  0  0  0  0
   52.2870   27.1983   45.4001 H   0  0  0  0  0  0  0  0  0  0  0  0
   53.3931   30.9573   40.0715 H   0  0  0  0  0  0  0  0  0  0  0  0
   56.8797   28.0224   41.1999 H   0  0  0  0  0  0  0  0  0  0  0  0
   56.3208   27.1484   42.6512 H   0  0  0  0  0  0  0  0  0  0  0  0
  1  2  1  0
  2  3  1  0
  4  3  1  0
  5 16  1  0
  5  1  1  0
  5  4  1  0
  6  1  1  0
  7  6  2  0
  7 12  1  0
  8  7  1  0
  9 10  1  0
  9  8  2  0
 10 11  2  0
 11  6  1  0
 12 14  1  0
 13 12  1  0
 15 12  1  0
 16 17  2  0
 18 17  1  0
 19 18  2  0
 20 19  1  0
 20 16  1  0
 21 19  1  0
 21 22  1  0
 23 22  2  0
 24 23  1  0
 25 30  1  0
 25 24  2  0
 26 25  1  0
 27 26  2  0
 27 28  1  0
 28 29  2  0
 29 24  1  0
 29 21  1  0
  2 31  1  0
  2 32  1  0
  3 33  1  0
  3 34  1  0
  4 35  1  0
  4 36  1  0
  5 37  1  6
  8 38  1  0
 10 39  1  0
 17 40  1  0
 18 41  1  0
 22 42  1  0
 27 43  1  0
 30 44  1  0
 30 45  1  0
M  ISO  8  31  13  32  13  33  13  34  13  35  13  36  13  37  13  38  14
M  ISO  5  39  14  40  14  41  14  42  14  43  14
M  END
>  <minimizedAffinity>  (1) 
-4.42337751

>  <minimizedRMSD>  (1) 
0.364175707

$$$$
