
     RDKit          3D

 46 49  0  0  1  0  0  0  0  0999 V2000
   47.2260   32.4720   44.6180 N   0  0  0  0  0  0  0  0  0  0  0  0
   47.1010   32.3640   46.0390 C   0  0  0  0  0  0  0  0  0  0  0  0
   45.8450   31.5920   46.1680 C   0  0  0  0  0  0  0  0  0  0  0  0
   45.9010   30.6270   45.0320 C   0  0  0  0  0  0  0  0  0  0  0  0
   47.1030   31.0480   44.2320 C   0  0  2  0  0  0  0  0  0  0  0  0
   47.4060   33.5180   43.6510 C   0  0  0  0  0  0  0  0  0  0  0  0
   46.3680   34.3630   43.2040 C   0  0  0  0  0  0  0  0  0  0  0  0
   46.6820   35.3340   42.2530 C   0  0  0  0  0  0  0  0  0  0  0  0
   47.9400   35.4050   41.8260 N   0  0  0  0  0  0  0  0  0  0  0  0
   48.9100   34.5920   42.2630 C   0  0  0  0  0  0  0  0  0  0  0  0
   48.6440   33.6410   43.1820 N   0  0  0  0  0  0  0  0  0  0  0  0
   45.0200   34.1280   43.8030 C   0  0  0  0  0  0  0  0  0  0  0  0
   44.1080   35.0180   43.2210 F   0  0  0  0  0  0  0  0  0  0  0  0
   44.9940   34.4190   45.1260 F   0  0  0  0  0  0  0  0  0  0  0  0
   44.5120   32.9270   43.5060 F   0  0  0  0  0  0  0  0  0  0  0  0
   48.2890   30.2570   44.4980 C   0  0  0  0  0  0  0  0  0  0  0  0
   48.6730   29.4220   45.4910 C   0  0  0  0  0  0  0  0  0  0  0  0
   49.8680   28.8200   45.4650 C   0  0  0  0  0  0  0  0  0  0  0  0
   50.7000   29.0990   44.3640 C   0  0  0  0  0  0  0  0  0  0  0  0
   49.6530   30.2820   43.3680 S   0  0  0  0  0  0  0  0  0  0  0  0
   51.9640   28.6650   44.0010 N   0  0  0  0  0  0  0  0  0  0  0  0
   53.0420   29.6500   44.1860 C   0  0  0  0  0  0  0  0  0  0  0  0
   54.2150   29.1570   43.3680 C   0  0  0  0  0  0  0  0  0  0  0  0
   54.6810   27.9310   43.9850 N   0  0  0  0  0  0  0  0  0  0  0  0
   53.6090   26.9780   44.2250 C   0  0  0  0  0  0  0  0  0  0  0  0
   52.3350   27.3850   43.4700 C   0  0  0  0  0  0  0  0  0  0  0  0
   47.9522   31.8222   46.4770 H   0  0  0  0  0  0  0  0  0  0  0  0
   47.0881   33.3314   46.5625 H   0  0  0  0  0  0  0  0  0  0  0  0
   45.8084   31.0617   47.1310 H   0  0  0  0  0  0  0  0  0  0  0  0
   44.9493   32.2299   46.1400 H   0  0  0  0  0  0  0  0  0  0  0  0
   46.0225   29.5984   45.4025 H   0  0  0  0  0  0  0  0  0  0  0  0
   44.9785   30.6357   44.4328 H   0  0  0  0  0  0  0  0  0  0  0  0
   46.9901   30.8965   43.1484 H   0  0  0  0  0  0  0  0  0  0  0  0
   45.9131   36.0199   41.8680 H   0  0  0  0  0  0  0  0  0  0  0  0
   49.9315   34.7004   41.8696 H   0  0  0  0  0  0  0  0  0  0  0  0
   47.9915   29.2348   46.3339 H   0  0  0  0  0  0  0  0  0  0  0  0
   50.1858   28.1381   46.2675 H   0  0  0  0  0  0  0  0  0  0  0  0
   52.7188   30.6393   43.8300 H   0  0  0  0  0  0  0  0  0  0  0  0
   53.3109   29.7527   45.2477 H   0  0  0  0  0  0  0  0  0  0  0  0
   55.0181   29.9087   43.3692 H   0  0  0  0  0  0  0  0  0  0  0  0
   53.9170   28.9806   42.3239 H   0  0  0  0  0  0  0  0  0  0  0  0
   55.3769   27.4940   43.3641 H   0  0  0  0  0  0  0  0  0  0  0  0
   53.9284   25.9828   43.8823 H   0  0  0  0  0  0  0  0  0  0  0  0
   53.3887   26.9607   45.3026 H   0  0  0  0  0  0  0  0  0  0  0  0
   51.5346   26.6507   43.6437 H   0  0  0  0  0  0  0  0  0  0  0  0
   52.5020   27.4280   42.3836 H   0  0  0  0  0  0  0  0  0  0  0  0
  1  2  1  0
  2  3  1  0
  4  3  1  0
  5 16  1  0
  5  1  1  0
  5  4  1  0
  6  1  1  0
  7  6  2  0
  7 12  1  0
  8  7  1  0
  9  8  2  0
  9 10  1  0
 10 11  2  0
 11  6  1  0
 12 14  1  0
 13 12  1  0
 15 12  1  0
 16 17  2  0
 18 17  1  0
 19 18  2  0
 20 19  1  0
 20 16  1  0
 21 22  1  0
 21 19  1  0
 23 24  1  0
 23 22  1  0
 24 25  1  0
 26 21  1  0
 26 25  1  0
  2 27  1  0
  2 28  1  0
  3 29  1  0
  3 30  1  0
  4 31  1  0
  4 32  1  0
  5 33  1  6
  8 34  1  0
 10 35  1  0
 17 36  1  0
 18 37  1  0
 22 38  1  0
 22 39  1  0
 23 40  1  0
 23 41  1  0
 24 42  1  0
 25 43  1  0
 25 44  1  0
 26 45  1  0
 26 46  1  0
M  ISO  8  27  13  28  13  29  13  30  13  31  13  32  13  33  13  34  14
M  ISO  8  35  14  36  14  37  14  38  13  39  13  40  13  41  13  42   5
M  ISO  4  43  13  44  13  45  13  46  13
M  END
>  <minimizedAffinity>  (1) 
-4.09550524

>  <minimizedRMSD>  (1) 
0.214906126

$$$$
