
     RDKit          3D

 40 43  0  0  1  0  0  0  0  0999 V2000
   47.2210   32.4690   44.6240 N   0  0  0  0  0  0  0  0  0  0  0  0
   47.0990   32.3730   46.0470 C   0  0  0  0  0  0  0  0  0  0  0  0
   45.8400   31.6020   46.1810 C   0  0  0  0  0  0  0  0  0  0  0  0
   45.8920   30.6310   45.0560 C   0  0  0  0  0  0  0  0  0  0  0  0
   47.0850   31.0480   44.2390 C   0  0  2  0  0  0  0  0  0  0  0  0
   47.4120   33.5110   43.6530 C   0  0  0  0  0  0  0  0  0  0  0  0
   46.3760   34.3550   43.2130 C   0  0  0  0  0  0  0  0  0  0  0  0
   46.6950   35.3240   42.2590 C   0  0  0  0  0  0  0  0  0  0  0  0
   47.9540   35.3910   41.8280 N   0  0  0  0  0  0  0  0  0  0  0  0
   48.9150   34.5790   42.2620 C   0  0  0  0  0  0  0  0  0  0  0  0
   48.6410   33.6340   43.1810 N   0  0  0  0  0  0  0  0  0  0  0  0
   45.0240   34.1300   43.8130 C   0  0  0  0  0  0  0  0  0  0  0  0
   44.1170   35.0190   43.2110 F   0  0  0  0  0  0  0  0  0  0  0  0
   44.9940   34.4190   45.1240 F   0  0  0  0  0  0  0  0  0  0  0  0
   44.5120   32.9320   43.5110 F   0  0  0  0  0  0  0  0  0  0  0  0
   48.2720   30.2560   44.5090 C   0  0  0  0  0  0  0  0  0  0  0  0
   48.6690   29.4280   45.4940 C   0  0  0  0  0  0  0  0  0  0  0  0
   49.8680   28.8200   45.4870 C   0  0  0  0  0  0  0  0  0  0  0  0
   50.6890   29.1010   44.3800 C   0  0  0  0  0  0  0  0  0  0  0  0
   49.6400   30.2700   43.3830 S   0  0  0  0  0  0  0  0  0  0  0  0
   51.9890   28.7040   43.9600 C   0  0  0  0  0  0  0  0  0  0  0  0
   53.0490   29.5750   44.0330 C   0  0  0  0  0  0  0  0  0  0  0  0
   54.2530   29.0230   43.5800 C   0  0  0  0  0  0  0  0  0  0  0  0
   54.4030   27.7720   43.1120 N   0  0  0  0  0  0  0  0  0  0  0  0
   53.3200   26.9750   43.0700 C   0  0  0  0  0  0  0  0  0  0  0  0
   52.1110   27.4500   43.4980 N   0  0  0  0  0  0  0  0  0  0  0  0
   47.9501   31.8336   46.4883 H   0  0  0  0  0  0  0  0  0  0  0  0
   47.0891   33.3438   46.5641 H   0  0  0  0  0  0  0  0  0  0  0  0
   45.8029   31.0787   47.1479 H   0  0  0  0  0  0  0  0  0  0  0  0
   44.9458   32.2418   46.1473 H   0  0  0  0  0  0  0  0  0  0  0  0
   46.0214   29.6064   45.4348 H   0  0  0  0  0  0  0  0  0  0  0  0
   44.9644   30.6324   44.4647 H   0  0  0  0  0  0  0  0  0  0  0  0
   46.9575   30.8963   43.1570 H   0  0  0  0  0  0  0  0  0  0  0  0
   45.9283   36.0126   41.8743 H   0  0  0  0  0  0  0  0  0  0  0  0
   49.9371   34.6803   41.8683 H   0  0  0  0  0  0  0  0  0  0  0  0
   47.9863   29.2421   46.3363 H   0  0  0  0  0  0  0  0  0  0  0  0
   50.1867   28.1457   46.2955 H   0  0  0  0  0  0  0  0  0  0  0  0
   52.9603   30.6045   44.4102 H   0  0  0  0  0  0  0  0  0  0  0  0
   55.1468   29.6635   43.6094 H   0  0  0  0  0  0  0  0  0  0  0  0
   53.4065   25.9453   42.6929 H   0  0  0  0  0  0  0  0  0  0  0  0
  1  2  1  0
  2  3  1  0
  4  3  1  0
  5 16  1  0
  5  1  1  0
  5  4  1  0
  6  1  1  0
  7  6  2  0
  7 12  1  0
  8  7  1  0
  9  8  2  0
  9 10  1  0
 10 11  2  0
 11  6  1  0
 12 14  1  0
 13 12  1  0
 15 12  1  0
 16 17  2  0
 18 17  1  0
 19 18  2  0
 20 19  1  0
 20 16  1  0
 21 22  2  0
 21 19  1  0
 23 22  1  0
 24 23  2  0
 25 24  1  0
 25 26  2  0
 26 21  1  0
  2 27  1  0
  2 28  1  0
  3 29  1  0
  3 30  1  0
  4 31  1  0
  4 32  1  0
  5 33  1  6
  8 34  1  0
 10 35  1  0
 17 36  1  0
 18 37  1  0
 22 38  1  0
 23 39  1  0
 25 40  1  0
M  ISO  8  27  13  28  13  29  13  30  13  31  13  32  13  33  13  34  14
M  ISO  6  35  14  36  14  37  14  38  14  39  14  40  14
M  END
>  <minimizedAffinity>  (1) 
-4.11437178

>  <minimizedRMSD>  (1) 
0.224023625

$$$$
