
     RDKit          3D

 39 42  0  0  1  0  0  0  0  0999 V2000
   47.2270   32.4620   44.6190 N   0  0  0  0  0  0  0  0  0  0  0  0
   47.1130   32.3720   46.0460 C   0  0  0  0  0  0  0  0  0  0  0  0
   45.8540   31.6020   46.1890 C   0  0  0  0  0  0  0  0  0  0  0  0
   45.8920   30.6350   45.0610 C   0  0  0  0  0  0  0  0  0  0  0  0
   47.0800   31.0420   44.2340 C   0  0  2  0  0  0  0  0  0  0  0  0
   47.4180   33.5060   43.6510 C   0  0  0  0  0  0  0  0  0  0  0  0
   46.3800   34.3530   43.2150 C   0  0  0  0  0  0  0  0  0  0  0  0
   46.6970   35.3270   42.2650 C   0  0  0  0  0  0  0  0  0  0  0  0
   47.9560   35.3960   41.8310 N   0  0  0  0  0  0  0  0  0  0  0  0
   48.9170   34.5790   42.2620 C   0  0  0  0  0  0  0  0  0  0  0  0
   48.6470   33.6280   43.1770 N   0  0  0  0  0  0  0  0  0  0  0  0
   45.0270   34.1260   43.8130 C   0  0  0  0  0  0  0  0  0  0  0  0
   44.1210   35.0140   43.2140 F   0  0  0  0  0  0  0  0  0  0  0  0
   44.9990   34.4090   45.1250 F   0  0  0  0  0  0  0  0  0  0  0  0
   44.5170   32.9270   43.5100 F   0  0  0  0  0  0  0  0  0  0  0  0
   48.2670   30.2430   44.4990 C   0  0  0  0  0  0  0  0  0  0  0  0
   48.6740   29.4300   45.4930 C   0  0  0  0  0  0  0  0  0  0  0  0
   49.8630   28.8130   45.4800 C   0  0  0  0  0  0  0  0  0  0  0  0
   50.6750   29.0770   44.3370 C   0  0  0  0  0  0  0  0  0  0  0  0
   49.6110   30.2360   43.3420 S   0  0  0  0  0  0  0  0  0  0  0  0
   51.9670   28.6660   43.8970 C   0  0  0  0  0  0  0  0  0  0  0  0
   52.7550   29.5390   43.1820 C   0  0  0  0  0  0  0  0  0  0  0  0
   53.9050   28.8690   42.9100 N   0  0  0  0  0  0  0  0  0  0  0  0
   53.7760   27.6320   43.4610 C   0  0  0  0  0  0  0  0  0  0  0  0
   52.5840   27.4860   44.0750 N   0  0  0  0  0  0  0  0  0  0  0  0
   47.9661   31.8340   46.4850 H   0  0  0  0  0  0  0  0  0  0  0  0
   47.1069   33.3447   46.5596 H   0  0  0  0  0  0  0  0  0  0  0  0
   45.8256   31.0754   47.1543 H   0  0  0  0  0  0  0  0  0  0  0  0
   44.9610   32.2438   46.1657 H   0  0  0  0  0  0  0  0  0  0  0  0
   46.0166   29.6086   45.4366 H   0  0  0  0  0  0  0  0  0  0  0  0
   44.9601   30.6475   44.4767 H   0  0  0  0  0  0  0  0  0  0  0  0
   46.9438   30.8889   43.1533 H   0  0  0  0  0  0  0  0  0  0  0  0
   45.9295   36.0177   41.8856 H   0  0  0  0  0  0  0  0  0  0  0  0
   49.9386   34.6822   41.8674 H   0  0  0  0  0  0  0  0  0  0  0  0
   48.0034   29.2663   46.3494 H   0  0  0  0  0  0  0  0  0  0  0  0
   50.1904   28.1492   46.2937 H   0  0  0  0  0  0  0  0  0  0  0  0
   52.5045   30.5696   42.8902 H   0  0  0  0  0  0  0  0  0  0  0  0
   54.5471   26.8490   43.4120 H   0  0  0  0  0  0  0  0  0  0  0  0
   52.2269   26.6560   44.5694 H   0  0  0  0  0  0  0  0  0  0  0  0
  1  2  1  0
  2  3  1  0
  4  3  1  0
  5 16  1  0
  5  1  1  0
  5  4  1  0
  6  1  1  0
  7  6  2  0
  7 12  1  0
  8  7  1  0
  9 10  1  0
  9  8  2  0
 10 11  2  0
 11  6  1  0
 12 14  1  0
 13 12  1  0
 15 12  1  0
 16 17  2  0
 18 17  1  0
 19 18  2  0
 20 19  1  0
 20 16  1  0
 21 25  1  0
 21 19  1  0
 22 21  2  0
 23 22  1  0
 23 24  2  0
 24 25  1  0
  2 26  1  0
  2 27  1  0
  3 28  1  0
  3 29  1  0
  4 30  1  0
  4 31  1  0
  5 32  1  6
  8 33  1  0
 10 34  1  0
 17 35  1  0
 18 36  1  0
 22 37  1  0
 24 38  1  0
 25 39  1  0
M  ISO  8  26  13  27  13  28  13  29  13  30  13  31  13  32  13  33  14
M  ISO  6  34  14  35  14  36  14  37  14  38  14  39   9
M  END
>  <minimizedAffinity>  (1) 
-4.0620141

>  <minimizedRMSD>  (1) 
0.235450074

$$$$
