
     RDKit          3D

 39 42  0  0  1  0  0  0  0  0999 V2000
   47.2270   32.4660   44.6180 N   0  0  0  0  0  0  0  0  0  0  0  0
   47.1100   32.3700   46.0420 C   0  0  0  0  0  0  0  0  0  0  0  0
   45.8490   31.5990   46.1790 C   0  0  0  0  0  0  0  0  0  0  0  0
   45.8950   30.6310   45.0480 C   0  0  0  0  0  0  0  0  0  0  0  0
   47.0870   31.0460   44.2290 C   0  0  2  0  0  0  0  0  0  0  0  0
   47.4140   33.5110   43.6500 C   0  0  0  0  0  0  0  0  0  0  0  0
   46.3780   34.3590   43.2120 C   0  0  0  0  0  0  0  0  0  0  0  0
   46.6930   35.3320   42.2620 C   0  0  0  0  0  0  0  0  0  0  0  0
   47.9510   35.4010   41.8280 N   0  0  0  0  0  0  0  0  0  0  0  0
   48.9140   34.5840   42.2600 C   0  0  0  0  0  0  0  0  0  0  0  0
   48.6420   33.6370   43.1740 N   0  0  0  0  0  0  0  0  0  0  0  0
   45.0260   34.1270   43.8140 C   0  0  0  0  0  0  0  0  0  0  0  0
   44.1130   35.0160   43.2190 F   0  0  0  0  0  0  0  0  0  0  0  0
   44.9980   34.4120   45.1250 F   0  0  0  0  0  0  0  0  0  0  0  0
   44.5160   32.9290   43.5090 F   0  0  0  0  0  0  0  0  0  0  0  0
   48.2750   30.2520   44.4890 C   0  0  0  0  0  0  0  0  0  0  0  0
   48.6730   29.4240   45.4730 C   0  0  0  0  0  0  0  0  0  0  0  0
   49.8710   28.8110   45.4600 C   0  0  0  0  0  0  0  0  0  0  0  0
   50.6850   29.0930   44.3460 C   0  0  0  0  0  0  0  0  0  0  0  0
   49.6330   30.2630   43.3550 S   0  0  0  0  0  0  0  0  0  0  0  0
   51.9920   28.6920   43.9070 C   0  0  0  0  0  0  0  0  0  0  0  0
   52.4520   27.4020   43.7760 C   0  0  0  0  0  0  0  0  0  0  0  0
   53.7530   27.5810   43.3270 C   0  0  0  0  0  0  0  0  0  0  0  0
   54.0100   28.9510   43.2110 C   0  0  0  0  0  0  0  0  0  0  0  0
   52.9070   29.5630   43.5770 O   0  0  0  0  0  0  0  0  0  0  0  0
   47.9620   31.8297   46.4805 H   0  0  0  0  0  0  0  0  0  0  0  0
   47.1031   33.3405   46.5598 H   0  0  0  0  0  0  0  0  0  0  0  0
   45.8157   31.0719   47.1439 H   0  0  0  0  0  0  0  0  0  0  0  0
   44.9554   32.2399   46.1522 H   0  0  0  0  0  0  0  0  0  0  0  0
   46.0216   29.6045   45.4225 H   0  0  0  0  0  0  0  0  0  0  0  0
   44.9659   30.6389   44.4591 H   0  0  0  0  0  0  0  0  0  0  0  0
   46.9550   30.8951   43.1474 H   0  0  0  0  0  0  0  0  0  0  0  0
   45.9249   36.0219   41.8825 H   0  0  0  0  0  0  0  0  0  0  0  0
   49.9358   34.6863   41.8658 H   0  0  0  0  0  0  0  0  0  0  0  0
   47.9939   29.2417   46.3189 H   0  0  0  0  0  0  0  0  0  0  0  0
   50.1929   28.1348   46.2657 H   0  0  0  0  0  0  0  0  0  0  0  0
   51.9198   26.4607   43.9775 H   0  0  0  0  0  0  0  0  0  0  0  0
   54.4667   26.7756   43.0992 H   0  0  0  0  0  0  0  0  0  0  0  0
   54.9476   29.4214   42.8798 H   0  0  0  0  0  0  0  0  0  0  0  0
  1  2  1  0
  2  3  1  0
  4  3  1  0
  5 16  1  0
  5  1  1  0
  5  4  1  0
  6  1  1  0
  7  6  2  0
  7 12  1  0
  8  7  1  0
  9 10  1  0
  9  8  2  0
 10 11  2  0
 11  6  1  0
 12 14  1  0
 13 12  1  0
 15 12  1  0
 16 17  2  0
 18 17  1  0
 19 18  2  0
 20 19  1  0
 20 16  1  0
 21 19  1  0
 22 21  2  0
 23 22  1  0
 24 23  2  0
 24 25  1  0
 25 21  1  0
  2 26  1  0
  2 27  1  0
  3 28  1  0
  3 29  1  0
  4 30  1  0
  4 31  1  0
  5 32  1  6
  8 33  1  0
 10 34  1  0
 17 35  1  0
 18 36  1  0
 22 37  1  0
 23 38  1  0
 24 39  1  0
M  ISO  8  26  13  27  13  28  13  29  13  30  13  31  13  32  13  33  14
M  ISO  6  34  14  35  14  36  14  37  14  38  14  39  14
M  END
>  <minimizedAffinity>  (1) 
-4.05329657

>  <minimizedRMSD>  (1) 
0.208795562

$$$$
