
     RDKit          3D

 39 42  0  0  1  0  0  0  0  0999 V2000
   47.2290   32.4660   44.6100 N   0  0  0  0  0  0  0  0  0  0  0  0
   47.1120   32.3650   46.0340 C   0  0  0  0  0  0  0  0  0  0  0  0
   45.8570   31.5870   46.1690 C   0  0  0  0  0  0  0  0  0  0  0  0
   45.9010   30.6270   45.0340 C   0  0  0  0  0  0  0  0  0  0  0  0
   47.0920   31.0500   44.2130 C   0  0  2  0  0  0  0  0  0  0  0  0
   47.4140   33.5160   43.6460 C   0  0  0  0  0  0  0  0  0  0  0  0
   46.3700   34.3580   43.2120 C   0  0  0  0  0  0  0  0  0  0  0  0
   46.6840   35.3340   42.2620 C   0  0  0  0  0  0  0  0  0  0  0  0
   47.9370   35.4120   41.8280 N   0  0  0  0  0  0  0  0  0  0  0  0
   48.9080   34.6000   42.2580 C   0  0  0  0  0  0  0  0  0  0  0  0
   48.6430   33.6460   43.1730 N   0  0  0  0  0  0  0  0  0  0  0  0
   45.0250   34.1250   43.8120 C   0  0  0  0  0  0  0  0  0  0  0  0
   44.1160   35.0170   43.2190 F   0  0  0  0  0  0  0  0  0  0  0  0
   44.9960   34.4110   45.1370 F   0  0  0  0  0  0  0  0  0  0  0  0
   44.5140   32.9270   43.5070 F   0  0  0  0  0  0  0  0  0  0  0  0
   48.2870   30.2520   44.4750 C   0  0  0  0  0  0  0  0  0  0  0  0
   48.6800   29.4250   45.4650 C   0  0  0  0  0  0  0  0  0  0  0  0
   49.8790   28.8170   45.4440 C   0  0  0  0  0  0  0  0  0  0  0  0
   50.6960   29.1030   44.3210 C   0  0  0  0  0  0  0  0  0  0  0  0
   49.6320   30.2830   43.3250 S   0  0  0  0  0  0  0  0  0  0  0  0
   52.0130   28.6170   44.0100 C   0  0  0  0  0  0  0  0  0  0  0  0
   52.5380   27.3830   44.2700 C   0  0  0  0  0  0  0  0  0  0  0  0
   53.8310   27.4580   43.7620 C   0  0  0  0  0  0  0  0  0  0  0  0
   54.0550   28.6760   43.2290 N   0  0  0  0  0  0  0  0  0  0  0  0
   52.9220   29.3770   43.3920 N   0  0  0  0  0  0  0  0  0  0  0  0
   47.9671   31.8286   46.4711 H   0  0  0  0  0  0  0  0  0  0  0  0
   47.0990   33.3340   46.5544 H   0  0  0  0  0  0  0  0  0  0  0  0
   45.8298   31.0536   47.1307 H   0  0  0  0  0  0  0  0  0  0  0  0
   44.9609   32.2246   46.1479 H   0  0  0  0  0  0  0  0  0  0  0  0
   46.0305   29.5985   45.4020 H   0  0  0  0  0  0  0  0  0  0  0  0
   44.9702   30.6363   44.4479 H   0  0  0  0  0  0  0  0  0  0  0  0
   46.9604   30.9064   43.1304 H   0  0  0  0  0  0  0  0  0  0  0  0
   45.9126   36.0205   41.8831 H   0  0  0  0  0  0  0  0  0  0  0  0
   49.9287   34.7108   41.8631 H   0  0  0  0  0  0  0  0  0  0  0  0
   48.0019   29.2431   46.3118 H   0  0  0  0  0  0  0  0  0  0  0  0
   50.2055   28.1403   46.2474 H   0  0  0  0  0  0  0  0  0  0  0  0
   52.0520   26.5295   44.7653 H   0  0  0  0  0  0  0  0  0  0  0  0
   54.5659   26.6400   43.7911 H   0  0  0  0  0  0  0  0  0  0  0  0
   54.9243   29.0040   42.7843 H   0  0  0  0  0  0  0  0  0  0  0  0
  1  2  1  0
  2  3  1  0
  4  3  1  0
  5 16  1  0
  5  1  1  0
  5  4  1  0
  6  1  1  0
  7  6  2  0
  7 12  1  0
  8  7  1  0
  9 10  1  0
  9  8  2  0
 10 11  2  0
 11  6  1  0
 12 14  1  0
 13 12  1  0
 15 12  1  0
 16 17  2  0
 18 17  1  0
 19 18  2  0
 20 19  1  0
 20 16  1  0
 21 22  1  0
 21 19  1  0
 23 22  2  0
 24 25  1  0
 24 23  1  0
 25 21  2  0
  2 26  1  0
  2 27  1  0
  3 28  1  0
  3 29  1  0
  4 30  1  0
  4 31  1  0
  5 32  1  6
  8 33  1  0
 10 34  1  0
 17 35  1  0
 18 36  1  0
 22 37  1  0
 23 38  1  0
 24 39  1  0
M  ISO  8  26  13  27  13  28  13  29  13  30  13  31  13  32  13  33  14
M  ISO  6  34  14  35  14  36  14  37  14  38  14  39   9
M  END
>  <minimizedAffinity>  (1) 
-4.0264225

>  <minimizedRMSD>  (1) 
0.36570707

$$$$
