
     RDKit          3D

 45 48  0  0  1  0  0  0  0  0999 V2000
   47.2240   32.4630   44.6080 N   0  0  0  0  0  0  0  0  0  0  0  0
   47.1010   32.3650   46.0330 C   0  0  0  0  0  0  0  0  0  0  0  0
   45.8450   31.5820   46.1610 C   0  0  0  0  0  0  0  0  0  0  0  0
   45.9060   30.6190   45.0280 C   0  0  0  0  0  0  0  0  0  0  0  0
   47.0990   31.0430   44.2170 C   0  0  2  0  0  0  0  0  0  0  0  0
   47.4090   33.5130   43.6430 C   0  0  0  0  0  0  0  0  0  0  0  0
   46.3700   34.3560   43.2080 C   0  0  0  0  0  0  0  0  0  0  0  0
   46.6780   35.3350   42.2610 C   0  0  0  0  0  0  0  0  0  0  0  0
   47.9410   35.4090   41.8280 N   0  0  0  0  0  0  0  0  0  0  0  0
   48.9030   34.5970   42.2580 C   0  0  0  0  0  0  0  0  0  0  0  0
   48.6370   33.6430   43.1700 N   0  0  0  0  0  0  0  0  0  0  0  0
   45.0200   34.1190   43.8070 C   0  0  0  0  0  0  0  0  0  0  0  0
   44.1010   35.0070   43.2150 F   0  0  0  0  0  0  0  0  0  0  0  0
   44.9860   34.4000   45.1190 F   0  0  0  0  0  0  0  0  0  0  0  0
   44.5110   32.9210   43.5000 F   0  0  0  0  0  0  0  0  0  0  0  0
   48.2920   30.2560   44.4850 C   0  0  0  0  0  0  0  0  0  0  0  0
   48.6850   29.4170   45.4640 C   0  0  0  0  0  0  0  0  0  0  0  0
   49.8900   28.8230   45.4520 C   0  0  0  0  0  0  0  0  0  0  0  0
   50.7190   29.1370   44.3520 C   0  0  0  0  0  0  0  0  0  0  0  0
   49.6640   30.3100   43.3690 S   0  0  0  0  0  0  0  0  0  0  0  0
   54.5690   28.0530   43.3040 C   0  0  0  0  0  0  0  0  0  0  0  0
   53.5170   27.1640   43.0540 C   0  0  0  0  0  0  0  0  0  0  0  0
   52.1990   27.4940   43.3930 C   0  0  0  0  0  0  0  0  0  0  0  0
   52.0340   28.7290   43.9770 C   0  0  0  0  0  0  0  0  0  0  0  0
   53.0160   29.6510   44.2530 C   0  0  0  0  0  0  0  0  0  0  0  0
   54.3260   29.2950   43.9020 C   0  0  0  0  0  0  0  0  0  0  0  0
   56.1740   27.5790   42.8570 S   0  0  0  0  0  0  0  0  0  0  0  0
   56.5350   27.9560   41.4650 O   0  0  0  0  0  0  0  0  0  0  0  0
   56.2650   26.0760   43.0290 O   0  0  0  0  0  0  0  0  0  0  0  0
   47.9553   31.8318   46.4756 H   0  0  0  0  0  0  0  0  0  0  0  0
   47.0836   33.3345   46.5524 H   0  0  0  0  0  0  0  0  0  0  0  0
   45.8110   31.0515   47.1240 H   0  0  0  0  0  0  0  0  0  0  0  0
   44.9458   32.2150   46.1316 H   0  0  0  0  0  0  0  0  0  0  0  0
   46.0374   29.5924   45.4005 H   0  0  0  0  0  0  0  0  0  0  0  0
   44.9807   30.6235   44.4332 H   0  0  0  0  0  0  0  0  0  0  0  0
   46.9768   30.8924   43.1342 H   0  0  0  0  0  0  0  0  0  0  0  0
   45.9069   36.0228   41.8836 H   0  0  0  0  0  0  0  0  0  0  0  0
   49.9246   34.7060   41.8650 H   0  0  0  0  0  0  0  0  0  0  0  0
   47.9980   29.2124   46.2984 H   0  0  0  0  0  0  0  0  0  0  0  0
   50.2109   28.1355   46.2485 H   0  0  0  0  0  0  0  0  0  0  0  0
   53.7287   26.1921   42.5844 H   0  0  0  0  0  0  0  0  0  0  0  0
   51.3550   26.8139   43.2056 H   0  0  0  0  0  0  0  0  0  0  0  0
   52.7858   30.6177   44.7247 H   0  0  0  0  0  0  0  0  0  0  0  0
   55.1581   29.9879   44.0955 H   0  0  0  0  0  0  0  0  0  0  0  0
   57.0630   28.2411   43.6621 H   0  0  0  0  0  0  0  0  0  0  0  0
  1  2  1  0
  2  3  1  0
  4  3  1  0
  5 16  1  0
  5  1  1  0
  5  4  1  0
  6  1  1  0
  7  6  2  0
  7 12  1  0
  8  7  1  0
  9 10  1  0
  9  8  2  0
 10 11  2  0
 11  6  1  0
 12 14  1  0
 13 12  1  0
 15 12  1  0
 16 17  2  0
 18 17  1  0
 19 18  2  0
 20 19  1  0
 20 16  1  0
 21 26  2  0
 22 21  1  0
 22 23  2  0
 23 24  1  0
 24 25  2  0
 24 19  1  0
 26 25  1  0
 27 29  2  0
 27 21  1  0
 28 27  2  0
  2 30  1  0
  2 31  1  0
  3 32  1  0
  3 33  1  0
  4 34  1  0
  4 35  1  0
  5 36  1  6
  8 37  1  0
 10 38  1  0
 17 39  1  0
 18 40  1  0
 22 41  1  0
 23 42  1  0
 25 43  1  0
 26 44  1  0
 27 45  1  0
M  ISO  8  30  13  31  13  32  13  33  13  34  13  35  13  36  13  37  14
M  ISO  8  38  14  39  14  40  14  41  14  42  14  43  14  44  14  45  11
M  END
>  <minimizedAffinity>  (1) 
-4.04279232

>  <minimizedRMSD>  (1) 
0.37491262

$$$$
