
     RDKit          3D

 33 35  0  0  1  0  0  0  0  0999 V2000
   47.2200   32.4850   44.6880 N   0  0  0  0  0  0  0  0  0  0  0  0
   47.1150   32.4270   46.1160 C   0  0  0  0  0  0  0  0  0  0  0  0
   45.8470   31.6880   46.2910 C   0  0  0  0  0  0  0  0  0  0  0  0
   45.8560   30.6930   45.1840 C   0  0  0  0  0  0  0  0  0  0  0  0
   47.0530   31.0580   44.3420 C   0  0  2  0  0  0  0  0  0  0  0  0
   47.4180   33.5050   43.6940 C   0  0  0  0  0  0  0  0  0  0  0  0
   46.3930   34.3460   43.2350 C   0  0  0  0  0  0  0  0  0  0  0  0
   46.7120   35.2940   42.2620 C   0  0  0  0  0  0  0  0  0  0  0  0
   47.9720   35.3420   41.8260 N   0  0  0  0  0  0  0  0  0  0  0  0
   48.9330   34.5230   42.2830 C   0  0  0  0  0  0  0  0  0  0  0  0
   48.6490   33.6060   43.2190 N   0  0  0  0  0  0  0  0  0  0  0  0
   45.0370   34.1450   43.8380 C   0  0  0  0  0  0  0  0  0  0  0  0
   44.1390   35.0230   43.2100 F   0  0  0  0  0  0  0  0  0  0  0  0
   45.0110   34.4620   45.1430 F   0  0  0  0  0  0  0  0  0  0  0  0
   44.5140   32.9380   43.5570 F   0  0  0  0  0  0  0  0  0  0  0  0
   48.2290   30.2480   44.6050 C   0  0  0  0  0  0  0  0  0  0  0  0
   48.6480   29.5000   45.6580 C   0  0  0  0  0  0  0  0  0  0  0  0
   49.8160   28.8490   45.6180 C   0  0  0  0  0  0  0  0  0  0  0  0
   50.5780   28.9840   44.4360 C   0  0  0  0  0  0  0  0  0  0  0  0
   49.5020   30.1070   43.3900 S   0  0  0  0  0  0  0  0  0  0  0  0
   51.8200   28.4530   44.0670 O   0  0  0  0  0  0  0  0  0  0  0  0
   47.9616   31.8820   46.5589 H   0  0  0  0  0  0  0  0  0  0  0  0
   47.1304   33.4116   46.6062 H   0  0  0  0  0  0  0  0  0  0  0  0
   45.8190   31.1851   47.2689 H   0  0  0  0  0  0  0  0  0  0  0  0
   44.9657   32.3456   46.2628 H   0  0  0  0  0  0  0  0  0  0  0  0
   45.9596   29.6727   45.5818 H   0  0  0  0  0  0  0  0  0  0  0  0
   44.9215   30.7111   44.6041 H   0  0  0  0  0  0  0  0  0  0  0  0
   46.9102   30.8749   43.2668 H   0  0  0  0  0  0  0  0  0  0  0  0
   45.9485   35.9802   41.8668 H   0  0  0  0  0  0  0  0  0  0  0  0
   49.9565   34.6047   41.8882 H   0  0  0  0  0  0  0  0  0  0  0  0
   48.0180   29.4283   46.5568 H   0  0  0  0  0  0  0  0  0  0  0  0
   50.1658   28.2387   46.4637 H   0  0  0  0  0  0  0  0  0  0  0  0
   52.2037   28.6623   43.1787 H   0  0  0  0  0  0  0  0  0  0  0  0
  1  2  1  0
  2  3  1  0
  4  3  1  0
  5 16  1  0
  5  1  1  0
  5  4  1  0
  6  1  1  0
  7  6  2  0
  7 12  1  0
  8  7  1  0
  9  8  2  0
  9 10  1  0
 10 11  2  0
 11  6  1  0
 12 14  1  0
 13 12  1  0
 15 12  1  0
 16 17  2  0
 18 17  1  0
 19 18  2  0
 20 19  1  0
 20 16  1  0
 21 19  1  0
  2 22  1  0
  2 23  1  0
  3 24  1  0
  3 25  1  0
  4 26  1  0
  4 27  1  0
  5 28  1  6
  8 29  1  0
 10 30  1  0
 17 31  1  0
 18 32  1  0
 21 33  1  0
M  ISO  8  22  13  23  13  24  13  25  13  26  13  27  13  28  13  29  14
M  ISO  4  30  14  31  14  32  14  33   3
M  END
>  <minimizedAffinity>  (1) 
-4.03321838

>  <minimizedRMSD>  (1) 
0.0151348663

$$$$
