
     RDKit          3D

 38 40  0  0  1  0  0  0  0  0999 V2000
   47.2150   32.4990   44.6850 N   0  0  0  0  0  0  0  0  0  0  0  0
   47.1000   32.4380   46.1130 C   0  0  0  0  0  0  0  0  0  0  0  0
   45.8350   31.6900   46.2760 C   0  0  0  0  0  0  0  0  0  0  0  0
   45.8590   30.6950   45.1690 C   0  0  0  0  0  0  0  0  0  0  0  0
   47.0590   31.0720   44.3400 C   0  0  2  0  0  0  0  0  0  0  0  0
   47.4120   33.5180   43.6890 C   0  0  0  0  0  0  0  0  0  0  0  0
   46.3820   34.3580   43.2270 C   0  0  0  0  0  0  0  0  0  0  0  0
   46.7020   35.3040   42.2530 C   0  0  0  0  0  0  0  0  0  0  0  0
   47.9650   35.3510   41.8220 N   0  0  0  0  0  0  0  0  0  0  0  0
   48.9240   34.5420   42.2790 C   0  0  0  0  0  0  0  0  0  0  0  0
   48.6440   33.6180   43.2180 N   0  0  0  0  0  0  0  0  0  0  0  0
   45.0260   34.1510   43.8310 C   0  0  0  0  0  0  0  0  0  0  0  0
   44.1230   35.0310   43.2100 F   0  0  0  0  0  0  0  0  0  0  0  0
   45.0010   34.4680   45.1370 F   0  0  0  0  0  0  0  0  0  0  0  0
   44.5090   32.9440   43.5490 F   0  0  0  0  0  0  0  0  0  0  0  0
   48.2370   30.2680   44.6090 C   0  0  0  0  0  0  0  0  0  0  0  0
   48.6350   29.4930   45.6410 C   0  0  0  0  0  0  0  0  0  0  0  0
   49.8110   28.8500   45.6010 C   0  0  0  0  0  0  0  0  0  0  0  0
   50.5950   29.0240   44.4420 C   0  0  0  0  0  0  0  0  0  0  0  0
   49.5390   30.1680   43.4190 S   0  0  0  0  0  0  0  0  0  0  0  0
   51.8900   28.4800   44.0840 C   0  0  0  0  0  0  0  0  0  0  0  0
   52.9160   29.5680   43.9690 C   0  0  0  0  0  0  0  0  0  0  0  0
   47.9468   31.8977   46.5615 H   0  0  0  0  0  0  0  0  0  0  0  0
   47.1057   33.4216   46.6055 H   0  0  0  0  0  0  0  0  0  0  0  0
   45.8018   31.1865   47.2535 H   0  0  0  0  0  0  0  0  0  0  0  0
   44.9500   32.3423   46.2395 H   0  0  0  0  0  0  0  0  0  0  0  0
   45.9675   29.6752   45.5667 H   0  0  0  0  0  0  0  0  0  0  0  0
   44.9288   30.7040   44.5819 H   0  0  0  0  0  0  0  0  0  0  0  0
   46.9249   30.8917   43.2632 H   0  0  0  0  0  0  0  0  0  0  0  0
   45.9393   35.9885   41.8533 H   0  0  0  0  0  0  0  0  0  0  0  0
   49.9478   34.6307   41.8866 H   0  0  0  0  0  0  0  0  0  0  0  0
   47.9874   29.3881   46.5240 H   0  0  0  0  0  0  0  0  0  0  0  0
   50.1486   28.2159   46.4341 H   0  0  0  0  0  0  0  0  0  0  0  0
   52.2073   27.7666   44.8588 H   0  0  0  0  0  0  0  0  0  0  0  0
   51.8019   27.9765   43.1100 H   0  0  0  0  0  0  0  0  0  0  0  0
   53.2214   29.8918   44.9749 H   0  0  0  0  0  0  0  0  0  0  0  0
   53.7930   29.1889   43.4239 H   0  0  0  0  0  0  0  0  0  0  0  0
   52.4861   30.4212   43.4239 H   0  0  0  0  0  0  0  0  0  0  0  0
  1  2  1  0
  2  3  1  0
  4  3  1  0
  5 16  1  0
  5  1  1  0
  5  4  1  0
  6  1  1  0
  7  6  2  0
  7 12  1  0
  8  7  1  0
  9  8  2  0
  9 10  1  0
 10 11  2  0
 11  6  1  0
 12 14  1  0
 13 12  1  0
 15 12  1  0
 16 17  2  0
 18 17  1  0
 19 18  2  0
 20 19  1  0
 20 16  1  0
 21 19  1  0
 22 21  1  0
  2 23  1  0
  2 24  1  0
  3 25  1  0
  3 26  1  0
  4 27  1  0
  4 28  1  0
  5 29  1  6
  8 30  1  0
 10 31  1  0
 17 32  1  0
 18 33  1  0
 21 34  1  0
 21 35  1  0
 22 36  1  0
 22 37  1  0
 22 38  1  0
M  ISO  8  23  13  24  13  25  13  26  13  27  13  28  13  29  13  30  14
M  ISO  8  31  14  32  14  33  14  34   8  35   8  36   8  37   8  38   8
M  END
>  <minimizedAffinity>  (1) 
-3.97248435

>  <minimizedRMSD>  (1) 
0.588975906

$$$$
