
     RDKit          3D

 35 37  0  0  1  0  0  0  0  0999 V2000
   47.2260   32.4580   44.6390 N   0  0  0  0  0  0  0  0  0  0  0  0
   47.1130   32.3730   46.0640 C   0  0  0  0  0  0  0  0  0  0  0  0
   45.8510   31.6230   46.2180 C   0  0  0  0  0  0  0  0  0  0  0  0
   45.8760   30.6450   45.0940 C   0  0  0  0  0  0  0  0  0  0  0  0
   47.0700   31.0360   44.2630 C   0  0  2  0  0  0  0  0  0  0  0  0
   47.4220   33.4950   43.6630 C   0  0  0  0  0  0  0  0  0  0  0  0
   46.3910   34.3460   43.2200 C   0  0  0  0  0  0  0  0  0  0  0  0
   46.7130   35.3110   42.2650 C   0  0  0  0  0  0  0  0  0  0  0  0
   47.9710   35.3700   41.8340 N   0  0  0  0  0  0  0  0  0  0  0  0
   48.9300   34.5520   42.2710 C   0  0  0  0  0  0  0  0  0  0  0  0
   48.6510   33.6110   43.1910 N   0  0  0  0  0  0  0  0  0  0  0  0
   45.0350   34.1290   43.8200 C   0  0  0  0  0  0  0  0  0  0  0  0
   44.1370   35.0160   43.2090 F   0  0  0  0  0  0  0  0  0  0  0  0
   45.0120   34.4280   45.1290 F   0  0  0  0  0  0  0  0  0  0  0  0
   44.5200   32.9300   43.5240 F   0  0  0  0  0  0  0  0  0  0  0  0
   48.2550   30.2300   44.5220 C   0  0  0  0  0  0  0  0  0  0  0  0
   48.6650   29.4500   45.5440 C   0  0  0  0  0  0  0  0  0  0  0  0
   49.8500   28.8160   45.5200 C   0  0  0  0  0  0  0  0  0  0  0  0
   50.6350   29.0210   44.3510 C   0  0  0  0  0  0  0  0  0  0  0  0
   49.5590   30.1650   43.3300 S   0  0  0  0  0  0  0  0  0  0  0  0
   51.9240   28.4910   44.0290 C   0  0  0  0  0  0  0  0  0  0  0  0
   52.2220   27.2820   44.1890 O   0  0  0  0  0  0  0  0  0  0  0  0
   52.8530   29.3810   43.5210 O   0  0  0  0  0  0  0  0  0  0  0  0
   47.9609   31.8259   46.5019 H   0  0  0  0  0  0  0  0  0  0  0  0
   47.1184   33.3486   46.5721 H   0  0  0  0  0  0  0  0  0  0  0  0
   45.8198   31.1043   47.1875 H   0  0  0  0  0  0  0  0  0  0  0  0
   44.9648   32.2742   46.1941 H   0  0  0  0  0  0  0  0  0  0  0  0
   45.9900   29.6198   45.4761 H   0  0  0  0  0  0  0  0  0  0  0  0
   44.9435   30.6621   44.5108 H   0  0  0  0  0  0  0  0  0  0  0  0
   46.9312   30.8733   43.1840 H   0  0  0  0  0  0  0  0  0  0  0  0
   45.9495   36.0028   41.8796 H   0  0  0  0  0  0  0  0  0  0  0  0
   49.9528   34.6473   41.8775 H   0  0  0  0  0  0  0  0  0  0  0  0
   48.0116   29.3297   46.4207 H   0  0  0  0  0  0  0  0  0  0  0  0
   50.1908   28.1799   46.3502 H   0  0  0  0  0  0  0  0  0  0  0  0
   52.6106   30.3329   43.3977 H   0  0  0  0  0  0  0  0  0  0  0  0
  1  2  1  0
  2  3  1  0
  4  3  1  0
  5 16  1  0
  5  1  1  0
  5  4  1  0
  6  1  1  0
  7  6  2  0
  7 12  1  0
  8  7  1  0
  9  8  2  0
  9 10  1  0
 10 11  2  0
 11  6  1  0
 12 14  1  0
 13 12  1  0
 15 12  1  0
 16 17  2  0
 18 17  1  0
 19 18  2  0
 20 19  1  0
 20 16  1  0
 21 22  2  0
 21 19  1  0
 23 21  1  0
  2 24  1  0
  2 25  1  0
  3 26  1  0
  3 27  1  0
  4 28  1  0
  4 29  1  0
  5 30  1  6
  8 31  1  0
 10 32  1  0
 17 33  1  0
 18 34  1  0
 23 35  1  0
M  ISO  8  24  13  25  13  26  13  27  13  28  13  29  13  30  13  31  14
M  ISO  4  32  14  33  14  34  14  35   3
M  END
>  <minimizedAffinity>  (1) 
-3.94426394

>  <minimizedRMSD>  (1) 
0.14181608

$$$$
