
     RDKit          3D

 24 25  0  0  0  0  0  0  0  0999 V2000
   46.0270   34.9120   43.1080 C   0  0  0  0  0  0  0  0  0  0  0  0
   46.3180   33.9660   44.1160 C   0  0  0  0  0  0  0  0  0  0  0  0
   45.6310   34.0960   45.3260 C   0  0  0  0  0  0  0  0  0  0  0  0
   44.7360   35.0990   45.4730 N   0  0  0  0  0  0  0  0  0  0  0  0
   44.4860   35.9810   44.4850 C   0  0  0  0  0  0  0  0  0  0  0  0
   45.1320   35.8930   43.2900 N   0  0  0  0  0  0  0  0  0  0  0  0
   45.9500   33.1290   46.3140 N   0  0  0  0  0  0  0  0  0  0  0  0
   45.2580   33.2660   47.4630 C   0  0  0  0  0  0  0  0  0  0  0  0
   45.4490   32.4050   48.5280 C   0  0  0  0  0  0  0  0  0  0  0  0
   46.3800   31.3910   48.3770 C   0  0  0  0  0  0  0  0  0  0  0  0
   46.5840   30.5060   49.4600 N   0  0  0  0  0  0  0  0  0  0  0  0
   47.0400   31.2970   47.2240 N   0  0  0  0  0  0  0  0  0  0  0  0
   46.8520   32.1350   46.1870 C   0  0  0  0  0  0  0  0  0  0  0  0
   47.4580   32.0710   45.0880 O   0  0  0  0  0  0  0  0  0  0  0  0
   46.7560   34.7810   41.8100 C   0  0  0  0  0  0  0  0  0  0  0  0
   47.0525   33.1630   43.9556 H   0  0  0  0  0  0  0  0  0  0  0  0
   43.7502   36.7826   44.6464 H   0  0  0  0  0  0  0  0  0  0  0  0
   44.5250   34.0810   47.5553 H   0  0  0  0  0  0  0  0  0  0  0  0
   44.8811   32.5215   49.4628 H   0  0  0  0  0  0  0  0  0  0  0  0
   47.2696   29.7417   49.3784 H   0  0  0  0  0  0  0  0  0  0  0  0
   46.0470   30.6254   50.3308 H   0  0  0  0  0  0  0  0  0  0  0  0
   47.8214   34.5895   42.0055 H   0  0  0  0  0  0  0  0  0  0  0  0
   46.3327   33.9445   41.2345 H   0  0  0  0  0  0  0  0  0  0  0  0
   46.6504   35.7125   41.2345 H   0  0  0  0  0  0  0  0  0  0  0  0
  1  6  2  0
  1  2  1  0
  2  3  2  0
  3  4  1  0
  3  7  1  0
  5  4  2  0
  6  5  1  0
  7  8  1  0
  8  9  2  0
 10  9  1  0
 10 11  1  0
 12 10  2  0
 13  7  1  0
 13 12  1  0
 14 13  2  0
 15  1  1  0
  2 16  1  0
  5 17  1  0
  8 18  1  0
  9 19  1  0
 11 20  1  0
 11 21  1  0
 15 22  1  0
 15 23  1  0
 15 24  1  0
M  ISO  7  16  14  17  14  18  14  19  14  22   8  23   8  24   8
M  END
>  <minimizedAffinity>  (1) 
-5.24431896

>  <minimizedRMSD>  (1) 
0.865257919

$$$$
