
     RDKit          3D

 27 29  0  0  0  0  0  0  0  0999 V2000
   46.1650   34.8860   43.1960 C   0  0  0  0  0  0  0  0  0  0  0  0
   46.3380   33.9060   44.1960 C   0  0  0  0  0  0  0  0  0  0  0  0
   45.5870   34.0240   45.3650 C   0  0  0  0  0  0  0  0  0  0  0  0
   44.7270   35.0800   45.4750 N   0  0  0  0  0  0  0  0  0  0  0  0
   44.5900   35.9960   44.4990 C   0  0  0  0  0  0  0  0  0  0  0  0
   45.2930   35.9180   43.3600 N   0  0  0  0  0  0  0  0  0  0  0  0
   45.7550   33.0180   46.4090 C   0  0  0  0  0  0  0  0  0  0  0  0
   45.2060   33.0420   47.6890 C   0  0  0  0  0  0  0  0  0  0  0  0
   45.6280   31.9270   48.2790 N   0  0  0  0  0  0  0  0  0  0  0  0
   46.4140   31.1620   47.4990 C   0  0  0  0  0  0  0  0  0  0  0  0
   47.0520   29.9630   47.6930 C   0  0  0  0  0  0  0  0  0  0  0  0
   47.8030   29.4330   46.6600 C   0  0  0  0  0  0  0  0  0  0  0  0
   47.9240   30.0780   45.4390 C   0  0  0  0  0  0  0  0  0  0  0  0
   47.2570   31.2960   45.2880 C   0  0  0  0  0  0  0  0  0  0  0  0
   46.4990   31.8610   46.2910 C   0  0  0  0  0  0  0  0  0  0  0  0
   46.9640   34.7600   41.9530 C   0  0  0  0  0  0  0  0  0  0  0  0
   47.0440   33.0739   44.0577 H   0  0  0  0  0  0  0  0  0  0  0  0
   43.8847   36.8284   44.6389 H   0  0  0  0  0  0  0  0  0  0  0  0
   44.5592   33.8198   48.1212 H   0  0  0  0  0  0  0  0  0  0  0  0
   45.3762   31.6723   49.2447 H   0  0  0  0  0  0  0  0  0  0  0  0
   46.9676   29.4328   48.6531 H   0  0  0  0  0  0  0  0  0  0  0  0
   48.3186   28.4732   46.8113 H   0  0  0  0  0  0  0  0  0  0  0  0
   48.5214   29.6479   44.6216 H   0  0  0  0  0  0  0  0  0  0  0  0
   47.3402   31.8267   44.3281 H   0  0  0  0  0  0  0  0  0  0  0  0
   48.0202   34.5934   42.2113 H   0  0  0  0  0  0  0  0  0  0  0  0
   46.5923   33.9094   41.3628 H   0  0  0  0  0  0  0  0  0  0  0  0
   46.8721   35.6837   41.3628 H   0  0  0  0  0  0  0  0  0  0  0  0
  1  6  2  0
  1  2  1  0
  2  3  2  0
  3  4  1  0
  3  7  1  0
  5  4  2  0
  6  5  1  0
  7  8  2  0
  8  9  1  0
 10 11  2  0
 10  9  1  0
 12 11  1  0
 13 12  2  0
 14 13  1  0
 14 15  2  0
 15  7  1  0
 15 10  1  0
 16  1  1  0
  2 17  1  0
  5 18  1  0
  8 19  1  0
  9 20  1  0
 11 21  1  0
 12 22  1  0
 13 23  1  0
 14 24  1  0
 16 25  1  0
 16 26  1  0
 16 27  1  0
M  ISO  8  17  14  18  14  19  14  20   9  21  14  22  14  23  14  24  14
M  ISO  3  25   8  26   8  27   8
M  END
>  <minimizedAffinity>  (1) 
-5.06443405

>  <minimizedRMSD>  (1) 
0.131703913

$$$$
