
     RDKit          3D

 24 26  0  0  0  0  0  0  0  0999 V2000
   46.1960   34.8930   43.1540 C   0  0  0  0  0  0  0  0  0  0  0  0
   46.3830   33.9280   44.1470 C   0  0  0  0  0  0  0  0  0  0  0  0
   45.6360   34.0230   45.3240 C   0  0  0  0  0  0  0  0  0  0  0  0
   44.7500   35.0620   45.4530 N   0  0  0  0  0  0  0  0  0  0  0  0
   44.5970   35.9730   44.4740 C   0  0  0  0  0  0  0  0  0  0  0  0
   45.3110   35.9050   43.3200 N   0  0  0  0  0  0  0  0  0  0  0  0
   45.7310   33.1190   46.3960 N   0  0  0  0  0  0  0  0  0  0  0  0
   45.0910   33.3070   47.5600 C   0  0  0  0  0  0  0  0  0  0  0  0
   45.3890   32.2630   48.3720 N   0  0  0  0  0  0  0  0  0  0  0  0
   46.2190   31.4340   47.6960 C   0  0  0  0  0  0  0  0  0  0  0  0
   46.7820   30.2460   48.1160 C   0  0  0  0  0  0  0  0  0  0  0  0
   47.5840   29.6270   47.2040 N   0  0  0  0  0  0  0  0  0  0  0  0
   47.7960   30.1570   45.9840 C   0  0  0  0  0  0  0  0  0  0  0  0
   47.2360   31.3300   45.5720 N   0  0  0  0  0  0  0  0  0  0  0  0
   46.4400   31.9740   46.4370 C   0  0  0  0  0  0  0  0  0  0  0  0
   46.9900   34.7830   41.9130 C   0  0  0  0  0  0  0  0  0  0  0  0
   47.1041   33.1096   44.0050 H   0  0  0  0  0  0  0  0  0  0  0  0
   43.8763   36.7926   44.6116 H   0  0  0  0  0  0  0  0  0  0  0  0
   44.4399   34.1574   47.8110 H   0  0  0  0  0  0  0  0  0  0  0  0
   46.5966   29.8280   49.1164 H   0  0  0  0  0  0  0  0  0  0  0  0
   48.4529   29.6173   45.2860 H   0  0  0  0  0  0  0  0  0  0  0  0
   48.0500   34.6362   42.1677 H   0  0  0  0  0  0  0  0  0  0  0  0
   46.6324   33.9258   41.3236 H   0  0  0  0  0  0  0  0  0  0  0  0
   46.8789   35.7051   41.3236 H   0  0  0  0  0  0  0  0  0  0  0  0
  1  6  2  0
  1  2  1  0
  2  3  2  0
  3  4  1  0
  3  7  1  0
  5  4  2  0
  6  5  1  0
  7 15  1  0
  7  8  1  0
  8  9  2  0
 10 11  2  0
 10  9  1  0
 12 11  1  0
 13 12  2  0
 14 13  1  0
 14 15  2  0
 15 10  1  0
 16  1  1  0
  2 17  1  0
  5 18  1  0
  8 19  1  0
 11 20  1  0
 13 21  1  0
 16 22  1  0
 16 23  1  0
 16 24  1  0
M  ISO  8  17  14  18  14  19  14  20  14  21  14  22   8  23   8  24   8
M  END
>  <minimizedAffinity>  (1) 
-4.95485735

>  <minimizedRMSD>  (1) 
1.21360612

$$$$
