
     RDKit          3D

 35 36  0  0  1  0  0  0  0  0999 V2000
   46.9080   35.4420   42.0740 C   0  0  0  0  0  0  0  0  0  0  0  0
   48.0010   34.8570   41.3890 N   0  0  0  0  0  0  0  0  0  0  0  0
   49.2330   35.2260   42.0080 C   0  0  0  0  0  0  0  0  0  0  0  0
   50.1420   34.1240   42.3850 C   0  0  0  0  0  0  0  0  0  0  0  0
   49.3160   33.1030   42.9100 O   0  0  0  0  0  0  0  0  0  0  0  0
   48.7470   32.5340   41.7700 C   0  0  0  0  0  0  0  0  0  0  0  0
   47.9220   33.5170   40.9590 C   0  0  2  0  0  0  0  0  0  0  0  0
   48.5020   33.4850   39.5730 C   0  0  0  0  0  0  0  0  0  0  0  0
   47.9830   34.2880   38.7520 O   0  0  0  0  0  0  0  0  0  0  0  0
   49.5480   32.6280   39.1960 O   0  0  0  0  0  0  0  0  0  0  0  0
   45.6910   34.5740   42.2760 C   0  0  1  0  0  0  0  0  0  0  0  0
   44.7370   35.3920   44.4910 C   0  0  0  0  0  0  0  0  0  0  0  0
   45.4700   34.4340   43.7220 C   0  0  0  0  0  0  0  0  0  0  0  0
   45.9760   33.3460   44.4290 C   0  0  0  0  0  0  0  0  0  0  0  0
   45.7460   33.2700   45.7640 N   0  0  0  0  0  0  0  0  0  0  0  0
   45.0600   34.1750   46.4560 C   0  0  0  0  0  0  0  0  0  0  0  0
   44.5420   35.2640   45.8050 N   0  0  0  0  0  0  0  0  0  0  0  0
   44.4830   35.0910   41.5910 C   0  0  0  0  0  0  0  0  0  0  0  0
   46.5938   36.3288   41.5041 H   0  0  0  0  0  0  0  0  0  0  0  0
   47.2822   35.6546   43.0863 H   0  0  0  0  0  0  0  0  0  0  0  0
   49.7744   35.8804   41.3090 H   0  0  0  0  0  0  0  0  0  0  0  0
   48.9482   35.7035   42.9571 H   0  0  0  0  0  0  0  0  0  0  0  0
   50.6875   33.7589   41.5023 H   0  0  0  0  0  0  0  0  0  0  0  0
   50.8932   34.4529   43.1181 H   0  0  0  0  0  0  0  0  0  0  0  0
   49.5551   32.1462   41.1323 H   0  0  0  0  0  0  0  0  0  0  0  0
   48.0677   31.7370   42.1068 H   0  0  0  0  0  0  0  0  0  0  0  0
   46.8679   33.2155   41.0478 H   0  0  0  0  0  0  0  0  0  0  0  0
   49.8937   32.6471   38.2685 H   0  0  0  0  0  0  0  0  0  0  0  0
   45.8790   33.5923   41.8168 H   0  0  0  0  0  0  0  0  0  0  0  0
   44.3170   36.2699   43.9784 H   0  0  0  0  0  0  0  0  0  0  0  0
   46.5517   32.5625   43.9144 H   0  0  0  0  0  0  0  0  0  0  0  0
   44.9101   34.0509   47.5386 H   0  0  0  0  0  0  0  0  0  0  0  0
   43.7433   35.4076   42.3411 H   0  0  0  0  0  0  0  0  0  0  0  0
   44.7578   35.9503   40.9617 H   0  0  0  0  0  0  0  0  0  0  0  0
   44.0511   34.2989   40.9617 H   0  0  0  0  0  0  0  0  0  0  0  0
  1 11  1  0
  2  3  1  0
  2  1  1  0
  3  4  1  0
  4  5  1  0
  6  5  1  0
  7  2  1  0
  7  6  1  0
  8  7  1  0
  9  8  2  0
 10  8  1  0
 11 13  1  0
 12 17  2  0
 13 14  2  0
 13 12  1  0
 14 15  1  0
 15 16  2  0
 17 16  1  0
 18 11  1  0
  1 19  1  0
  1 20  1  0
  3 21  1  0
  3 22  1  0
  4 23  1  0
  4 24  1  0
  6 25  1  0
  6 26  1  0
  7 27  1  6
 10 28  1  0
 11 29  1  6
 12 30  1  0
 14 31  1  0
 16 32  1  0
 18 33  1  0
 18 34  1  0
 18 35  1  0
M  ISO  8  19   8  20   8  21  13  22  13  23  13  24  13  25  13  26  13
M  ISO  8  27  13  28   3  29   8  30  14  31  14  32  14  33   8  34   8
M  ISO  1  35   8
M  END
>  <minimizedAffinity>  (1) 
-4.49727678

>  <minimizedRMSD>  (1) 
1.00410581

$$$$
