
     RDKit          3D

 21 22  0  0  0  0  0  0  0  0999 V2000
   46.1210   34.8080   43.3000 C   0  0  0  0  0  0  0  0  0  0  0  0
   46.4250   33.8670   44.2990 C   0  0  0  0  0  0  0  0  0  0  0  0
   45.7250   33.9510   45.5020 C   0  0  0  0  0  0  0  0  0  0  0  0
   44.7940   34.9150   45.6660 N   0  0  0  0  0  0  0  0  0  0  0  0
   44.5300   35.8070   44.6710 C   0  0  0  0  0  0  0  0  0  0  0  0
   45.1870   35.7670   43.4810 N   0  0  0  0  0  0  0  0  0  0  0  0
   46.0050   33.0000   46.5610 C   0  0  0  0  0  0  0  0  0  0  0  0
   45.1770   32.9500   47.6630 C   0  0  0  0  0  0  0  0  0  0  0  0
   45.5560   31.9940   48.6080 C   0  0  0  0  0  0  0  0  0  0  0  0
   46.6210   31.1730   48.5020 N   0  0  0  0  0  0  0  0  0  0  0  0
   47.3920   31.2770   47.3910 C   0  0  0  0  0  0  0  0  0  0  0  0
   47.0660   32.1830   46.4540 N   0  0  0  0  0  0  0  0  0  0  0  0
   46.8750   34.7110   42.0180 C   0  0  0  0  0  0  0  0  0  0  0  0
   47.1883   33.0916   44.1374 H   0  0  0  0  0  0  0  0  0  0  0  0
   43.7650   36.5803   44.8344 H   0  0  0  0  0  0  0  0  0  0  0  0
   44.2999   33.6023   47.7861 H   0  0  0  0  0  0  0  0  0  0  0  0
   44.9358   31.9032   49.5119 H   0  0  0  0  0  0  0  0  0  0  0  0
   48.2712   30.6292   47.2591 H   0  0  0  0  0  0  0  0  0  0  0  0
   47.9452   34.5733   42.2316 H   0  0  0  0  0  0  0  0  0  0  0  0
   46.5035   33.8532   41.4381 H   0  0  0  0  0  0  0  0  0  0  0  0
   46.7327   35.6349   41.4381 H   0  0  0  0  0  0  0  0  0  0  0  0
  1  6  2  0
  1  2  1  0
  2  3  2  0
  3  4  1  0
  3  7  1  0
  5  4  2  0
  6  5  1  0
  7  8  2  0
  8  9  1  0
 10  9  2  0
 11 10  1  0
 12  7  1  0
 12 11  2  0
 13  1  1  0
  2 14  1  0
  5 15  1  0
  8 16  1  0
  9 17  1  0
 11 18  1  0
 13 19  1  0
 13 20  1  0
 13 21  1  0
M  ISO  8  14  14  15  14  16  14  17  14  18  14  19   8  20   8  21   8
M  END
>  <minimizedAffinity>  (1) 
-4.6546526

>  <minimizedRMSD>  (1) 
0.442971736

$$$$
