
     RDKit          3D

 27 28  0  0  0  0  0  0  0  0999 V2000
   46.0270   34.8880   43.3620 C   0  0  0  0  0  0  0  0  0  0  0  0
   46.2860   33.8130   44.2080 C   0  0  0  0  0  0  0  0  0  0  0  0
   45.6480   33.7660   45.4460 C   0  0  0  0  0  0  0  0  0  0  0  0
   44.7940   34.7920   45.7590 N   0  0  0  0  0  0  0  0  0  0  0  0
   44.5710   35.8140   44.9130 C   0  0  0  0  0  0  0  0  0  0  0  0
   45.1810   35.8680   43.7180 N   0  0  0  0  0  0  0  0  0  0  0  0
   45.8370   32.7050   46.4040 N   0  0  0  0  0  0  0  0  0  0  0  0
   45.3970   32.8990   47.7870 C   0  0  0  0  0  0  0  0  0  0  0  0
   44.8090   31.6120   48.2640 C   0  0  0  0  0  0  0  0  0  0  0  0
   44.8970   30.5200   47.3360 N   0  0  0  0  0  0  0  0  0  0  0  0
   46.2950   30.4130   46.8900 C   0  0  0  0  0  0  0  0  0  0  0  0
   46.4740   31.5050   45.8600 C   0  0  0  0  0  0  0  0  0  0  0  0
   46.7160   34.9160   42.0530 C   0  0  0  0  0  0  0  0  0  0  0  0
   46.9810   33.0160   43.9050 H   0  0  0  0  0  0  0  0  0  0  0  0
   43.8786   36.6174   45.2046 H   0  0  0  0  0  0  0  0  0  0  0  0
   46.2552   33.1747   48.4175 H   0  0  0  0  0  0  0  0  0  0  0  0
   44.6517   33.7061   47.8433 H   0  0  0  0  0  0  0  0  0  0  0  0
   45.3333   31.3189   49.1855 H   0  0  0  0  0  0  0  0  0  0  0  0
   43.7357   31.8022   48.4115 H   0  0  0  0  0  0  0  0  0  0  0  0
   44.6095   29.6452   47.7975 H   0  0  0  0  0  0  0  0  0  0  0  0
   46.9813   30.5659   47.7359 H   0  0  0  0  0  0  0  0  0  0  0  0
   46.5162   29.4190   46.4741 H   0  0  0  0  0  0  0  0  0  0  0  0
   45.9929   31.2162   44.9139 H   0  0  0  0  0  0  0  0  0  0  0  0
   47.5396   31.6823   45.6525 H   0  0  0  0  0  0  0  0  0  0  0  0
   47.8036   34.9602   42.2120 H   0  0  0  0  0  0  0  0  0  0  0  0
   46.4648   34.0069   41.4869 H   0  0  0  0  0  0  0  0  0  0  0  0
   46.3919   35.8017   41.4869 H   0  0  0  0  0  0  0  0  0  0  0  0
  1  6  2  0
  1  2  1  0
  2  3  2  0
  3  4  1  0
  3  7  1  0
  5  4  2  0
  6  5  1  0
  7  8  1  0
  8  9  1  0
 10  9  1  0
 11 10  1  0
 12  7  1  0
 12 11  1  0
 13  1  1  0
  2 14  1  0
  5 15  1  0
  8 16  1  0
  8 17  1  0
  9 18  1  0
  9 19  1  0
 10 20  1  0
 11 21  1  0
 11 22  1  0
 12 23  1  0
 12 24  1  0
 13 25  1  0
 13 26  1  0
 13 27  1  0
M  ISO  8  14  14  15  14  16  13  17  13  18  13  19  13  20   5  21  13
M  ISO  6  22  13  23  13  24  13  25   8  26   8  27   8
M  END
>  <minimizedAffinity>  (1) 
-4.61528397

>  <minimizedRMSD>  (1) 
0.696739197

$$$$
