
     RDKit          3D

 28 29  0  0  0  0  0  0  0  0999 V2000
   46.1180   34.8390   43.2640 C   0  0  0  0  0  0  0  0  0  0  0  0
   46.3950   33.8790   44.2420 C   0  0  0  0  0  0  0  0  0  0  0  0
   45.6920   33.9590   45.4530 C   0  0  0  0  0  0  0  0  0  0  0  0
   44.7860   34.9470   45.6280 N   0  0  0  0  0  0  0  0  0  0  0  0
   44.5410   35.8660   44.6570 C   0  0  0  0  0  0  0  0  0  0  0  0
   45.2110   35.8060   43.4760 N   0  0  0  0  0  0  0  0  0  0  0  0
   45.9280   33.0210   46.4730 N   0  0  0  0  0  0  0  0  0  0  0  0
   46.9750   32.0190   46.3980 C   0  0  0  0  0  0  0  0  0  0  0  0
   46.3170   30.7060   46.7740 C   0  0  0  0  0  0  0  0  0  0  0  0
   46.0570   30.7520   48.2670 C   0  0  0  0  0  0  0  0  0  0  0  0
   45.8470   32.1750   48.6880 C   0  0  0  0  0  0  0  0  0  0  0  0
   45.1140   33.0160   47.6740 C   0  0  0  0  0  0  0  0  0  0  0  0
   46.8550   34.7620   41.9820 C   0  0  0  0  0  0  0  0  0  0  0  0
   47.1390   33.0878   44.0676 H   0  0  0  0  0  0  0  0  0  0  0  0
   43.7989   36.6599   44.8273 H   0  0  0  0  0  0  0  0  0  0  0  0
   47.3816   31.9653   45.3773 H   0  0  0  0  0  0  0  0  0  0  0  0
   47.8136   32.2584   47.0683 H   0  0  0  0  0  0  0  0  0  0  0  0
   45.3688   30.5889   46.2289 H   0  0  0  0  0  0  0  0  0  0  0  0
   46.9631   29.8545   46.5141 H   0  0  0  0  0  0  0  0  0  0  0  0
   45.1585   30.1625   48.5021 H   0  0  0  0  0  0  0  0  0  0  0  0
   46.9193   30.3313   48.8050 H   0  0  0  0  0  0  0  0  0  0  0  0
   45.2664   32.1766   49.6223 H   0  0  0  0  0  0  0  0  0  0  0  0
   46.8455   32.6208   48.8070 H   0  0  0  0  0  0  0  0  0  0  0  0
   44.9881   34.0415   48.0514 H   0  0  0  0  0  0  0  0  0  0  0  0
   44.1118   32.6100   47.4721 H   0  0  0  0  0  0  0  0  0  0  0  0
   47.9305   34.6496   42.1835 H   0  0  0  0  0  0  0  0  0  0  0  0
   46.4977   33.8963   41.4051 H   0  0  0  0  0  0  0  0  0  0  0  0
   46.6843   35.6829   41.4051 H   0  0  0  0  0  0  0  0  0  0  0  0
  1  6  2  0
  1  2  1  0
  2  3  2  0
  3  4  1  0
  3  7  1  0
  5  4  2  0
  6  5  1  0
  7 12  1  0
  8  7  1  0
  8  9  1  0
  9 10  1  0
 10 11  1  0
 12 11  1  0
 13  1  1  0
  2 14  1  0
  5 15  1  0
  8 16  1  0
  8 17  1  0
  9 18  1  0
  9 19  1  0
 10 20  1  0
 10 21  1  0
 11 22  1  0
 11 23  1  0
 12 24  1  0
 12 25  1  0
 13 26  1  0
 13 27  1  0
 13 28  1  0
M  ISO  8  14  14  15  14  16  13  17  13  18  13  19  13  20  13  21  13
M  ISO  7  22  13  23  13  24  13  25  13  26   8  27   8  28   8
M  END
>  <minimizedAffinity>  (1) 
-4.66407156

>  <minimizedRMSD>  (1) 
0.34479332

$$$$
