
     RDKit          3D

 29 30  0  0  0  0  0  0  0  0999 V2000
   46.1210   34.6450   43.3930 C   0  0  0  0  0  0  0  0  0  0  0  0
   46.4960   33.7340   44.3970 C   0  0  0  0  0  0  0  0  0  0  0  0
   45.8370   33.8110   45.6430 C   0  0  0  0  0  0  0  0  0  0  0  0
   44.8820   34.7530   45.8050 N   0  0  0  0  0  0  0  0  0  0  0  0
   44.5470   35.6110   44.8200 C   0  0  0  0  0  0  0  0  0  0  0  0
   45.1560   35.5690   43.6150 N   0  0  0  0  0  0  0  0  0  0  0  0
   46.2320   32.8480   46.7060 C   0  0  0  0  0  0  0  0  0  0  0  0
   46.5330   31.5150   46.1270 C   0  0  0  0  0  0  0  0  0  0  0  0
   45.6220   30.3980   46.4930 C   0  0  0  0  0  0  0  0  0  0  0  0
   44.9900   30.4620   47.8310 C   0  0  0  0  0  0  0  0  0  0  0  0
   45.6120   31.5950   48.6540 C   0  0  0  0  0  0  0  0  0  0  0  0
   45.2160   32.8220   47.8260 C   0  0  0  0  0  0  0  0  0  0  0  0
   46.8180   34.5620   42.0820 C   0  0  0  0  0  0  0  0  0  0  0  0
   47.2798   32.9836   44.2165 H   0  0  0  0  0  0  0  0  0  0  0  0
   43.7621   36.3600   45.0014 H   0  0  0  0  0  0  0  0  0  0  0  0
   47.1688   33.1899   47.1703 H   0  0  0  0  0  0  0  0  0  0  0  0
   47.5470   31.2350   46.4485 H   0  0  0  0  0  0  0  0  0  0  0  0
   46.4086   31.6407   45.0413 H   0  0  0  0  0  0  0  0  0  0  0  0
   44.8157   30.3677   45.7454 H   0  0  0  0  0  0  0  0  0  0  0  0
   46.2607   29.5028   46.5192 H   0  0  0  0  0  0  0  0  0  0  0  0
   43.9117   30.6460   47.7155 H   0  0  0  0  0  0  0  0  0  0  0  0
   45.1533   29.5071   48.3521 H   0  0  0  0  0  0  0  0  0  0  0  0
   45.1849   31.6380   49.6668 H   0  0  0  0  0  0  0  0  0  0  0  0
   46.6952   31.4916   48.8153 H   0  0  0  0  0  0  0  0  0  0  0  0
   45.2768   33.7387   48.4310 H   0  0  0  0  0  0  0  0  0  0  0  0
   44.1805   32.7697   47.4585 H   0  0  0  0  0  0  0  0  0  0  0  0
   47.8977   34.4334   42.2483 H   0  0  0  0  0  0  0  0  0  0  0  0
   46.4297   33.7037   41.5140 H   0  0  0  0  0  0  0  0  0  0  0  0
   46.6421   35.4874   41.5140 H   0  0  0  0  0  0  0  0  0  0  0  0
  1  6  2  0
  1  2  1  0
  2  3  2  0
  3  4  1  0
  3  7  1  0
  5  4  2  0
  6  5  1  0
  7 12  1  0
  8  9  1  0
  8  7  1  0
  9 10  1  0
 10 11  1  0
 12 11  1  0
 13  1  1  0
  2 14  1  0
  5 15  1  0
  7 16  1  0
  8 17  1  0
  8 18  1  0
  9 19  1  0
  9 20  1  0
 10 21  1  0
 10 22  1  0
 11 23  1  0
 11 24  1  0
 12 25  1  0
 12 26  1  0
 13 27  1  0
 13 28  1  0
 13 29  1  0
M  ISO  8  14  14  15  14  16  13  17  13  18  13  19  13  20  13  21  13
M  ISO  8  22  13  23  13  24  13  25  13  26  13  27   8  28   8  29   8
M  END
>  <minimizedAffinity>  (1) 
-4.77993774

>  <minimizedRMSD>  (1) 
0.680107296

$$$$
