
     RDKit          3D

 20 21  0  0  0  0  0  0  0  0999 V2000
   46.1530   34.8110   43.3100 C   0  0  0  0  0  0  0  0  0  0  0  0
   46.4030   33.8300   44.2700 C   0  0  0  0  0  0  0  0  0  0  0  0
   45.6850   33.9010   45.4640 C   0  0  0  0  0  0  0  0  0  0  0  0
   44.7900   34.8920   45.6550 N   0  0  0  0  0  0  0  0  0  0  0  0
   44.5690   35.8370   44.6970 C   0  0  0  0  0  0  0  0  0  0  0  0
   45.2470   35.7970   43.5300 N   0  0  0  0  0  0  0  0  0  0  0  0
   45.8670   32.9360   46.5240 C   0  0  0  0  0  0  0  0  0  0  0  0
   45.1770   32.8930   47.7610 C   0  0  0  0  0  0  0  0  0  0  0  0
   45.5490   31.8640   48.5890 C   0  0  0  0  0  0  0  0  0  0  0  0
   46.5090   30.9800   48.2070 C   0  0  0  0  0  0  0  0  0  0  0  0
   46.9860   31.5940   46.5220 S   0  0  0  0  0  0  0  0  0  0  0  0
   46.9130   34.7500   42.0250 C   0  0  0  0  0  0  0  0  0  0  0  0
   47.1381   33.0312   44.0923 H   0  0  0  0  0  0  0  0  0  0  0  0
   43.8345   36.6361   44.8759 H   0  0  0  0  0  0  0  0  0  0  0  0
   44.4045   33.6263   48.0356 H   0  0  0  0  0  0  0  0  0  0  0  0
   45.0661   31.7532   49.5711 H   0  0  0  0  0  0  0  0  0  0  0  0
   46.9048   30.1152   48.7598 H   0  0  0  0  0  0  0  0  0  0  0  0
   47.9885   34.6637   42.2389 H   0  0  0  0  0  0  0  0  0  0  0  0
   46.5831   33.8754   41.4451 H   0  0  0  0  0  0  0  0  0  0  0  0
   46.7268   35.6660   41.4451 H   0  0  0  0  0  0  0  0  0  0  0  0
  1  6  2  0
  1  2  1  0
  2  3  2  0
  3  4  1  0
  3  7  1  0
  5  4  2  0
  6  5  1  0
  7  8  2  0
  8  9  1  0
 10  9  2  0
 11  7  1  0
 11 10  1  0
 12  1  1  0
  2 13  1  0
  5 14  1  0
  8 15  1  0
  9 16  1  0
 10 17  1  0
 12 18  1  0
 12 19  1  0
 12 20  1  0
M  ISO  8  13  14  14  14  15  14  16  14  17  14  18   8  19   8  20   8
M  END
>  <minimizedAffinity>  (1) 
-4.47013283

>  <minimizedRMSD>  (1) 
0.298482776

$$$$
