
     RDKit          3D

 20 21  0  0  0  0  0  0  0  0999 V2000
   46.1040   34.8060   43.2830 C   0  0  0  0  0  0  0  0  0  0  0  0
   46.4060   33.8880   44.2900 C   0  0  0  0  0  0  0  0  0  0  0  0
   45.7110   33.9910   45.4950 C   0  0  0  0  0  0  0  0  0  0  0  0
   44.7750   34.9720   45.6400 N   0  0  0  0  0  0  0  0  0  0  0  0
   44.5110   35.8460   44.6350 C   0  0  0  0  0  0  0  0  0  0  0  0
   45.1740   35.7620   43.4630 N   0  0  0  0  0  0  0  0  0  0  0  0
   45.9440   33.1050   46.5820 N   0  0  0  0  0  0  0  0  0  0  0  0
   45.1070   33.0060   47.6010 N   0  0  0  0  0  0  0  0  0  0  0  0
   45.5460   32.1020   48.5000 C   0  0  0  0  0  0  0  0  0  0  0  0
   46.7400   31.6510   47.9350 C   0  0  0  0  0  0  0  0  0  0  0  0
   46.9820   32.2920   46.7210 C   0  0  0  0  0  0  0  0  0  0  0  0
   46.8440   34.6980   41.9980 C   0  0  0  0  0  0  0  0  0  0  0  0
   47.1673   33.1086   44.1383 H   0  0  0  0  0  0  0  0  0  0  0  0
   43.7509   36.6283   44.7774 H   0  0  0  0  0  0  0  0  0  0  0  0
   45.0778   31.7951   49.4469 H   0  0  0  0  0  0  0  0  0  0  0  0
   47.3990   30.8942   48.3855 H   0  0  0  0  0  0  0  0  0  0  0  0
   47.8340   32.1554   46.0387 H   0  0  0  0  0  0  0  0  0  0  0  0
   47.9134   34.5419   42.2027 H   0  0  0  0  0  0  0  0  0  0  0  0
   46.4533   33.8474   41.4203 H   0  0  0  0  0  0  0  0  0  0  0  0
   46.7127   35.6248   41.4203 H   0  0  0  0  0  0  0  0  0  0  0  0
  1  6  2  0
  1  2  1  0
  2  3  2  0
  3  4  1  0
  3  7  1  0
  5  4  2  0
  6  5  1  0
  7 11  1  0
  7  8  1  0
  8  9  2  0
 10  9  1  0
 11 10  2  0
 12  1  1  0
  2 13  1  0
  5 14  1  0
  9 15  1  0
 10 16  1  0
 11 17  1  0
 12 18  1  0
 12 19  1  0
 12 20  1  0
M  ISO  8  13  14  14  14  15  14  16  14  17  14  18   8  19   8  20   8
M  END
>  <minimizedAffinity>  (1) 
-4.44748735

>  <minimizedRMSD>  (1) 
0.371603131

$$$$
