
     RDKit          3D

 20 21  0  0  0  0  0  0  0  0999 V2000
   46.1700   34.7760   43.1720 C   0  0  0  0  0  0  0  0  0  0  0  0
   46.3370   33.9370   44.2950 C   0  0  0  0  0  0  0  0  0  0  0  0
   45.5650   34.2030   45.4250 C   0  0  0  0  0  0  0  0  0  0  0  0
   44.6980   35.2330   45.4150 N   0  0  0  0  0  0  0  0  0  0  0  0
   44.5570   36.0270   44.3160 C   0  0  0  0  0  0  0  0  0  0  0  0
   45.2830   35.8040   43.2080 N   0  0  0  0  0  0  0  0  0  0  0  0
   45.7400   33.3410   46.5720 C   0  0  0  0  0  0  0  0  0  0  0  0
   46.7650   32.4680   46.8620 C   0  0  0  0  0  0  0  0  0  0  0  0
   46.5310   31.8330   48.0800 C   0  0  0  0  0  0  0  0  0  0  0  0
   45.3420   32.3570   48.4970 N   0  0  0  0  0  0  0  0  0  0  0  0
   44.9160   33.2230   47.6040 N   0  0  0  0  0  0  0  0  0  0  0  0
   46.9920   34.4910   41.9700 C   0  0  0  0  0  0  0  0  0  0  0  0
   47.0522   33.1014   44.2790 H   0  0  0  0  0  0  0  0  0  0  0  0
   43.8398   36.8607   44.3367 H   0  0  0  0  0  0  0  0  0  0  0  0
   47.6436   32.2964   46.2228 H   0  0  0  0  0  0  0  0  0  0  0  0
   47.1579   31.0846   48.5868 H   0  0  0  0  0  0  0  0  0  0  0  0
   44.8559   32.1131   49.3717 H   0  0  0  0  0  0  0  0  0  0  0  0
   47.9889   34.1454   42.2811 H   0  0  0  0  0  0  0  0  0  0  0  0
   46.5040   33.7096   41.3689 H   0  0  0  0  0  0  0  0  0  0  0  0
   47.0925   35.4068   41.3689 H   0  0  0  0  0  0  0  0  0  0  0  0
  1  6  2  0
  1  2  1  0
  2  3  2  0
  3  7  1  0
  4  3  1  0
  5  4  2  0
  6  5  1  0
  7  8  1  0
  7 11  2  0
  8  9  2  0
  9 10  1  0
 11 10  1  0
 12  1  1  0
  2 13  1  0
  5 14  1  0
  8 15  1  0
  9 16  1  0
 10 17  1  0
 12 18  1  0
 12 19  1  0
 12 20  1  0
M  ISO  8  13  14  14  14  15  14  16  14  17   9  18   8  19   8  20   8
M  END
>  <minimizedAffinity>  (1) 
-4.44221354

>  <minimizedRMSD>  (1) 
0.670724094

$$$$
