
     RDKit          3D

 19 20  0  0  0  0  0  0  0  0999 V2000
   46.0890   34.8250   43.2770 C   0  0  0  0  0  0  0  0  0  0  0  0
   46.3740   33.9120   44.3050 C   0  0  0  0  0  0  0  0  0  0  0  0
   45.6640   34.0400   45.5020 C   0  0  0  0  0  0  0  0  0  0  0  0
   44.7410   35.0260   45.6280 N   0  0  0  0  0  0  0  0  0  0  0  0
   44.4960   35.8880   44.6100 C   0  0  0  0  0  0  0  0  0  0  0  0
   45.1650   35.7980   43.4280 N   0  0  0  0  0  0  0  0  0  0  0  0
   45.9740   33.1000   46.5260 N   0  0  0  0  0  0  0  0  0  0  0  0
   46.9580   32.2020   46.7500 C   0  0  0  0  0  0  0  0  0  0  0  0
   46.7000   31.5890   47.9220 N   0  0  0  0  0  0  0  0  0  0  0  0
   45.5460   32.1080   48.4350 C   0  0  0  0  0  0  0  0  0  0  0  0
   45.1290   33.0350   47.5480 N   0  0  0  0  0  0  0  0  0  0  0  0
   46.8380   34.6950   42.0020 C   0  0  0  0  0  0  0  0  0  0  0  0
   47.1296   33.1236   44.1729 H   0  0  0  0  0  0  0  0  0  0  0  0
   43.7406   36.6766   44.7424 H   0  0  0  0  0  0  0  0  0  0  0  0
   47.8176   32.0059   46.0922 H   0  0  0  0  0  0  0  0  0  0  0  0
   45.0561   31.8275   49.3791 H   0  0  0  0  0  0  0  0  0  0  0  0
   47.9007   34.5106   42.2182 H   0  0  0  0  0  0  0  0  0  0  0  0
   46.4306   33.8541   41.4215 H   0  0  0  0  0  0  0  0  0  0  0  0
   46.7378   35.6240   41.4215 H   0  0  0  0  0  0  0  0  0  0  0  0
  1  6  2  0
  1  2  1  0
  2  3  2  0
  3  4  1  0
  3  7  1  0
  5  4  2  0
  6  5  1  0
  7  8  1  0
  7 11  1  0
  8  9  2  0
  9 10  1  0
 11 10  2  0
 12  1  1  0
  2 13  1  0
  5 14  1  0
  8 15  1  0
 10 16  1  0
 12 17  1  0
 12 18  1  0
 12 19  1  0
M  ISO  7  13  14  14  14  15  14  16  14  17   8  18   8  19   8
M  END
>  <minimizedAffinity>  (1) 
-4.36296654

>  <minimizedRMSD>  (1) 
0.559915006

$$$$
