
     RDKit          3D

 19 19  0  0  0  0  0  0  0  0999 V2000
   46.0800   34.8140   43.3160 C   0  0  0  0  0  0  0  0  0  0  0  0
   46.4740   33.8140   44.2100 C   0  0  0  0  0  0  0  0  0  0  0  0
   45.8570   33.7850   45.4770 C   0  0  0  0  0  0  0  0  0  0  0  0
   44.9130   34.7300   45.7620 N   0  0  0  0  0  0  0  0  0  0  0  0
   44.5680   35.6740   44.8640 C   0  0  0  0  0  0  0  0  0  0  0  0
   45.1450   35.7220   43.6440 N   0  0  0  0  0  0  0  0  0  0  0  0
   46.7330   34.8390   41.9830 C   0  0  0  0  0  0  0  0  0  0  0  0
   46.1680   32.8030   46.5050 C   0  0  0  0  0  0  0  0  0  0  0  0
   45.2440   32.8010   47.6700 C   0  0  0  0  0  0  0  0  0  0  0  0
   47.2400   33.0744   43.9339 H   0  0  0  0  0  0  0  0  0  0  0  0
   43.8030   36.4184   45.1295 H   0  0  0  0  0  0  0  0  0  0  0  0
   47.8248   34.8808   42.1103 H   0  0  0  0  0  0  0  0  0  0  0  0
   46.4634   33.9299   41.4255 H   0  0  0  0  0  0  0  0  0  0  0  0
   46.3947   35.7248   41.4255 H   0  0  0  0  0  0  0  0  0  0  0  0
   46.1384   31.8048   46.0439 H   0  0  0  0  0  0  0  0  0  0  0  0
   47.1593   33.0722   46.8984 H   0  0  0  0  0  0  0  0  0  0  0  0
   45.8287   32.8023   48.6017 H   0  0  0  0  0  0  0  0  0  0  0  0
   44.6079   33.6978   47.6351 H   0  0  0  0  0  0  0  0  0  0  0  0
   44.6118   31.9015   47.6351 H   0  0  0  0  0  0  0  0  0  0  0  0
  1  6  2  0
  1  2  1  0
  2  3  2  0
  3  4  1  0
  3  8  1  0
  5  4  2  0
  6  5  1  0
  7  1  1  0
  8  9  1  0
  2 10  1  0
  5 11  1  0
  7 12  1  0
  7 13  1  0
  7 14  1  0
  8 15  1  0
  8 16  1  0
  9 17  1  0
  9 18  1  0
  9 19  1  0
M  ISO  8  10  14  11  14  12   8  13   8  14   8  15   8  16   8  17   8
M  ISO  2  18   8  19   8
M  END
>  <minimizedAffinity>  (1) 
-3.55464768

>  <minimizedRMSD>  (1) 
0.552006423

$$$$
