
     RDKit          3D

 15 15  0  0  0  0  0  0  0  0999 V2000
   46.1090   34.9260   43.1870 C   0  0  0  0  0  0  0  0  0  0  0  0
   46.1600   33.9460   44.1800 C   0  0  0  0  0  0  0  0  0  0  0  0
   45.3940   34.1430   45.3280 C   0  0  0  0  0  0  0  0  0  0  0  0
   44.6410   35.2610   45.4300 N   0  0  0  0  0  0  0  0  0  0  0  0
   44.6120   36.1880   44.4530 C   0  0  0  0  0  0  0  0  0  0  0  0
   45.3430   36.0370   43.3170 N   0  0  0  0  0  0  0  0  0  0  0  0
   46.9320   34.7140   41.9540 C   0  0  0  0  0  0  0  0  0  0  0  0
   45.4900   33.1130   46.2970 N   0  0  0  0  0  0  0  0  0  0  0  0
   46.7840   33.0480   44.0605 H   0  0  0  0  0  0  0  0  0  0  0  0
   43.9853   37.0835   44.5768 H   0  0  0  0  0  0  0  0  0  0  0  0
   47.9604   34.4491   42.2407 H   0  0  0  0  0  0  0  0  0  0  0  0
   46.4960   33.8988   41.3578 H   0  0  0  0  0  0  0  0  0  0  0  0
   46.9441   35.6383   41.3578 H   0  0  0  0  0  0  0  0  0  0  0  0
   44.9558   33.1805   47.1750 H   0  0  0  0  0  0  0  0  0  0  0  0
   46.0940   32.2970   46.1231 H   0  0  0  0  0  0  0  0  0  0  0  0
  1  6  2  0
  1  2  1  0
  2  3  2  0
  3  4  1  0
  3  8  1  0
  5  4  2  0
  6  5  1  0
  7  1  1  0
  2  9  1  0
  5 10  1  0
  7 11  1  0
  7 12  1  0
  7 13  1  0
  8 14  1  0
  8 15  1  0
M  ISO  5   9  14  10  14  11   8  12   8  13   8
M  END
>  <minimizedAffinity>  (1) 
-3.50936222

>  <minimizedRMSD>  (1) 
0.171876296

$$$$
