
     RDKit          3D

 22 22  0  0  0  0  0  0  0  0999 V2000
   46.0790   34.8080   43.3400 C   0  0  0  0  0  0  0  0  0  0  0  0
   46.4500   33.8260   44.2580 C   0  0  0  0  0  0  0  0  0  0  0  0
   45.8110   33.8340   45.5070 C   0  0  0  0  0  0  0  0  0  0  0  0
   44.8770   34.7760   45.7650 N   0  0  0  0  0  0  0  0  0  0  0  0
   44.5430   35.7140   44.8480 C   0  0  0  0  0  0  0  0  0  0  0  0
   45.1330   35.7400   43.6390 N   0  0  0  0  0  0  0  0  0  0  0  0
   46.7520   34.8090   42.0110 C   0  0  0  0  0  0  0  0  0  0  0  0
   46.2090   32.7830   46.4830 C   0  0  0  0  0  0  0  0  0  0  0  0
   45.2800   32.7480   47.6720 C   0  0  0  0  0  0  0  0  0  0  0  0
   46.1970   31.4640   45.7550 C   0  0  0  0  0  0  0  0  0  0  0  0
   47.2143   33.0740   44.0123 H   0  0  0  0  0  0  0  0  0  0  0  0
   43.7785   36.4655   45.0946 H   0  0  0  0  0  0  0  0  0  0  0  0
   47.8429   34.8106   42.1524 H   0  0  0  0  0  0  0  0  0  0  0  0
   46.4564   33.9104   41.4496 H   0  0  0  0  0  0  0  0  0  0  0  0
   46.4537   35.7067   41.4496 H   0  0  0  0  0  0  0  0  0  0  0  0
   47.2123   32.9999   46.8784 H   0  0  0  0  0  0  0  0  0  0  0  0
   45.8707   32.7703   48.5997 H   0  0  0  0  0  0  0  0  0  0  0  0
   44.6123   33.6216   47.6415 H   0  0  0  0  0  0  0  0  0  0  0  0
   44.6799   31.8266   47.6415 H   0  0  0  0  0  0  0  0  0  0  0  0
   46.1895   30.6419   46.4858 H   0  0  0  0  0  0  0  0  0  0  0  0
   45.2983   31.4017   45.1238 H   0  0  0  0  0  0  0  0  0  0  0  0
   47.0945   31.3854   45.1238 H   0  0  0  0  0  0  0  0  0  0  0  0
  1  6  2  0
  1  2  1  0
  2  3  2  0
  3  4  1  0
  3  8  1  0
  5  4  2  0
  6  5  1  0
  7  1  1  0
  8  9  1  0
 10  8  1  0
  2 11  1  0
  5 12  1  0
  7 13  1  0
  7 14  1  0
  7 15  1  0
  8 16  1  0
  9 17  1  0
  9 18  1  0
  9 19  1  0
 10 20  1  0
 10 21  1  0
 10 22  1  0
M  ISO  8  11  14  12  14  13   8  14   8  15   8  16   8  17   8  18   8
M  ISO  4  19   8  20   8  21   8  22   8
M  END
>  <minimizedAffinity>  (1) 
-3.812711

>  <minimizedRMSD>  (1) 
0.447548151

$$$$
