
     RDKit          3D

 15 15  0  0  0  0  0  0  0  0999 V2000
   46.1210   34.8930   43.1950 C   0  0  0  0  0  0  0  0  0  0  0  0
   46.3320   33.9300   44.1980 C   0  0  0  0  0  0  0  0  0  0  0  0
   45.6110   34.0480   45.3840 C   0  0  0  0  0  0  0  0  0  0  0  0
   44.7450   35.0760   45.5200 N   0  0  0  0  0  0  0  0  0  0  0  0
   44.5650   35.9870   44.5340 C   0  0  0  0  0  0  0  0  0  0  0  0
   45.2460   35.8970   43.3800 N   0  0  0  0  0  0  0  0  0  0  0  0
   46.8930   34.7580   41.9340 C   0  0  0  0  0  0  0  0  0  0  0  0
   45.8530   33.0340   46.4050 C   0  0  0  0  0  0  0  0  0  0  0  0
   45.1920   32.9810   47.4910 O   0  0  0  0  0  0  0  0  0  0  0  0
   47.0464   33.1067   44.0501 H   0  0  0  0  0  0  0  0  0  0  0  0
   43.8516   36.8114   44.6804 H   0  0  0  0  0  0  0  0  0  0  0  0
   47.9513   34.5729   42.1700 H   0  0  0  0  0  0  0  0  0  0  0  0
   46.4951   33.9158   41.3489 H   0  0  0  0  0  0  0  0  0  0  0  0
   46.8045   35.6852   41.3489 H   0  0  0  0  0  0  0  0  0  0  0  0
   46.6389   32.2848   46.2287 H   0  0  0  0  0  0  0  0  0  0  0  0
  1  6  2  0
  1  2  1  0
  2  3  2  0
  3  4  1  0
  3  8  1  0
  5  4  2  0
  6  5  1  0
  7  1  1  0
  8  9  2  0
  2 10  1  0
  5 11  1  0
  7 12  1  0
  7 13  1  0
  7 14  1  0
  8 15  1  0
M  ISO  6  10  14  11  14  12   8  13   8  14   8  15   6
M  END
>  <minimizedAffinity>  (1) 
-3.55059743

>  <minimizedRMSD>  (1) 
0.0852789134

$$$$
