
     RDKit          3D

 14 14  0  0  0  0  0  0  0  0999 V2000
   46.1160   34.9310   43.1690 C   0  0  0  0  0  0  0  0  0  0  0  0
   46.1640   33.9480   44.1610 C   0  0  0  0  0  0  0  0  0  0  0  0
   45.3990   34.1330   45.3120 C   0  0  0  0  0  0  0  0  0  0  0  0
   44.6420   35.2480   45.4320 N   0  0  0  0  0  0  0  0  0  0  0  0
   44.6230   36.1870   44.4410 C   0  0  0  0  0  0  0  0  0  0  0  0
   45.3470   36.0370   43.3230 N   0  0  0  0  0  0  0  0  0  0  0  0
   46.9310   34.7290   41.9490 C   0  0  0  0  0  0  0  0  0  0  0  0
   45.3720   33.2200   46.3590 O   0  0  0  0  0  0  0  0  0  0  0  0
   46.7891   33.0514   44.0371 H   0  0  0  0  0  0  0  0  0  0  0  0
   44.0004   37.0856   44.5627 H   0  0  0  0  0  0  0  0  0  0  0  0
   47.9620   34.4735   42.2349 H   0  0  0  0  0  0  0  0  0  0  0  0
   46.5021   33.9100   41.3530 H   0  0  0  0  0  0  0  0  0  0  0  0
   46.9342   35.6535   41.3530 H   0  0  0  0  0  0  0  0  0  0  0  0
   44.8120   33.3972   47.1559 H   0  0  0  0  0  0  0  0  0  0  0  0
  1  6  2  0
  1  2  1  0
  2  3  2  0
  3  4  1  0
  3  8  1  0
  5  4  2  0
  6  5  1  0
  7  1  1  0
  2  9  1  0
  5 10  1  0
  7 11  1  0
  7 12  1  0
  7 13  1  0
  8 14  1  0
M  ISO  6   9  14  10  14  11   8  12   8  13   8  14   3
M  END
>  <minimizedAffinity>  (1) 
-3.49980855

>  <minimizedRMSD>  (1) 
0.164796203

$$$$
