
     RDKit          3D

 44 45  0  0  1  0  0  0  0  0999 V2000
   46.8850   35.3730   42.0520 C   0  0  0  0  0  0  0  0  0  0  0  0
   47.9650   34.7290   41.3870 N   0  0  0  0  0  0  0  0  0  0  0  0
   49.2150   35.2210   41.9120 C   0  0  0  0  0  0  0  0  0  0  0  0
   50.1740   34.1940   42.3690 C   0  0  0  0  0  0  0  0  0  0  0  0
   49.3970   33.2260   43.0600 O   0  0  0  0  0  0  0  0  0  0  0  0
   48.7940   32.5050   42.0270 C   0  0  0  0  0  0  0  0  0  0  0  0
   47.9130   33.3510   41.1510 C   0  0  2  0  0  0  0  0  0  0  0  0
   48.0880   33.0130   39.6760 C   0  0  0  0  0  0  0  0  0  0  0  0
   49.3190   32.1810   39.4260 C   0  0  0  0  0  0  0  0  0  0  0  0
   48.1530   34.2340   38.7920 C   0  0  0  0  0  0  0  0  0  0  0  0
   46.9360   32.1740   39.1590 C   0  0  0  0  0  0  0  0  0  0  0  0
   45.6350   34.5580   42.2680 C   0  0  1  0  0  0  0  0  0  0  0  0
   44.6960   35.4420   44.4700 C   0  0  0  0  0  0  0  0  0  0  0  0
   45.4120   34.4570   43.7140 C   0  0  0  0  0  0  0  0  0  0  0  0
   45.8970   33.3800   44.4520 C   0  0  0  0  0  0  0  0  0  0  0  0
   45.6660   33.3430   45.7850 N   0  0  0  0  0  0  0  0  0  0  0  0
   44.9950   34.2770   46.4640 C   0  0  0  0  0  0  0  0  0  0  0  0
   44.4970   35.3560   45.7830 N   0  0  0  0  0  0  0  0  0  0  0  0
   44.4500   35.1220   41.5810 C   0  0  0  0  0  0  0  0  0  0  0  0
   46.6076   36.2561   41.4576 H   0  0  0  0  0  0  0  0  0  0  0  0
   47.2609   35.5954   43.0616 H   0  0  0  0  0  0  0  0  0  0  0  0
   49.7036   35.8099   41.1218 H   0  0  0  0  0  0  0  0  0  0  0  0
   48.9524   35.8017   42.8085 H   0  0  0  0  0  0  0  0  0  0  0  0
   50.6835   33.7347   41.5091 H   0  0  0  0  0  0  0  0  0  0  0  0
   50.9548   34.6244   43.0133 H   0  0  0  0  0  0  0  0  0  0  0  0
   49.5837   32.0604   41.4035 H   0  0  0  0  0  0  0  0  0  0  0  0
   48.1550   31.7397   42.4918 H   0  0  0  0  0  0  0  0  0  0  0  0
   46.8916   33.0739   41.4510 H   0  0  0  0  0  0  0  0  0  0  0  0
   49.7611   31.8822   40.3879 H   0  0  0  0  0  0  0  0  0  0  0  0
   49.0444   31.2826   38.8538 H   0  0  0  0  0  0  0  0  0  0  0  0
   50.0502   32.7708   38.8538 H   0  0  0  0  0  0  0  0  0  0  0  0
   48.2011   35.1375   39.4176 H   0  0  0  0  0  0  0  0  0  0  0  0
   49.0495   34.1796   38.1569 H   0  0  0  0  0  0  0  0  0  0  0  0
   47.2558   34.2751   38.1569 H   0  0  0  0  0  0  0  0  0  0  0  0
   46.3715   31.7629   40.0089 H   0  0  0  0  0  0  0  0  0  0  0  0
   46.2716   32.8012   38.5465 H   0  0  0  0  0  0  0  0  0  0  0  0
   47.3291   31.3492   38.5465 H   0  0  0  0  0  0  0  0  0  0  0  0
   45.7788   33.5615   41.8250 H   0  0  0  0  0  0  0  0  0  0  0  0
   44.2899   36.3144   43.9372 H   0  0  0  0  0  0  0  0  0  0  0  0
   46.4587   32.5726   43.9594 H   0  0  0  0  0  0  0  0  0  0  0  0
   44.8451   34.1815   47.5496 H   0  0  0  0  0  0  0  0  0  0  0  0
   43.7224   35.4683   42.3298 H   0  0  0  0  0  0  0  0  0  0  0  0
   44.7598   35.9692   40.9515 H   0  0  0  0  0  0  0  0  0  0  0  0
   43.9878   34.3473   40.9515 H   0  0  0  0  0  0  0  0  0  0  0  0
  1 12  1  0
  2  3  1  0
  2  1  1  0
  3  4  1  0
  4  5  1  0
  6  5  1  0
  7  2  1  0
  7  6  1  0
  8  7  1  0
  9  8  1  0
 10  8  1  0
 11  8  1  0
 12 14  1  0
 13 18  2  0
 14 15  2  0
 14 13  1  0
 15 16  1  0
 16 17  2  0
 18 17  1  0
 19 12  1  0
  1 20  1  0
  1 21  1  0
  3 22  1  0
  3 23  1  0
  4 24  1  0
  4 25  1  0
  6 26  1  0
  6 27  1  0
  7 28  1  1
  9 29  1  0
  9 30  1  0
  9 31  1  0
 10 32  1  0
 10 33  1  0
 10 34  1  0
 11 35  1  0
 11 36  1  0
 11 37  1  0
 12 38  1  6
 13 39  1  0
 15 40  1  0
 17 41  1  0
 19 42  1  0
 19 43  1  0
 19 44  1  0
M  ISO  8  20   8  21   8  22  13  23  13  24  13  25  13  26  13  27  13
M  ISO  8  28  13  29   8  30   8  31   8  32   8  33   8  34   8  35   8
M  ISO  8  36   8  37   8  38   8  39  14  40  14  41  14  42   8  43   8
M  ISO  1  44   8
M  END
>  <minimizedAffinity>  (1) 
-4.48088074

>  <minimizedRMSD>  (1) 
1.14453089

$$$$
