
     RDKit          3D

 39 41  0  0  1  0  0  0  0  0999 V2000
   46.9810   35.5710   42.3780 C   0  0  0  0  0  0  0  0  0  0  0  0
   47.9970   35.0470   41.5470 N   0  0  0  0  0  0  0  0  0  0  0  0
   49.2830   35.2490   42.1590 C   0  0  0  0  0  0  0  0  0  0  0  0
   50.1390   34.0470   42.3120 C   0  0  0  0  0  0  0  0  0  0  0  0
   49.2820   33.0090   42.7130 O   0  0  0  0  0  0  0  0  0  0  0  0
   48.6300   32.6570   41.5300 C   0  0  0  0  0  0  0  0  0  0  0  0
   47.8330   33.7870   40.9390 C   0  0  2  0  0  0  0  0  0  0  0  0
   48.2540   33.9270   39.4780 C   0  0  0  0  0  0  0  0  0  0  0  0
   47.1750   33.4520   38.4910 C   0  0  0  0  0  0  0  0  0  0  0  0
   48.4990   32.7730   38.6160 C   0  0  0  0  0  0  0  0  0  0  0  0
   45.7300   34.7410   42.5270 C   0  0  1  0  0  0  0  0  0  0  0  0
   44.7470   35.2270   44.8210 C   0  0  0  0  0  0  0  0  0  0  0  0
   45.5590   34.4270   43.9560 C   0  0  0  0  0  0  0  0  0  0  0  0
   46.1810   33.3380   44.5410 C   0  0  0  0  0  0  0  0  0  0  0  0
   45.9880   33.1030   45.8630 N   0  0  0  0  0  0  0  0  0  0  0  0
   45.2270   33.8620   46.6500 C   0  0  0  0  0  0  0  0  0  0  0  0
   44.5940   34.9460   46.1160 N   0  0  0  0  0  0  0  0  0  0  0  0
   44.5220   35.3820   41.9580 C   0  0  0  0  0  0  0  0  0  0  0  0
   46.6856   36.5477   41.9673 H   0  0  0  0  0  0  0  0  0  0  0  0
   47.4231   35.6095   43.3845 H   0  0  0  0  0  0  0  0  0  0  0  0
   49.8347   35.9763   41.5453 H   0  0  0  0  0  0  0  0  0  0  0  0
   49.0682   35.5860   43.1838 H   0  0  0  0  0  0  0  0  0  0  0  0
   50.6207   33.7967   41.3553 H   0  0  0  0  0  0  0  0  0  0  0  0
   50.9402   34.2142   43.0470 H   0  0  0  0  0  0  0  0  0  0  0  0
   49.3844   32.3386   40.7955 H   0  0  0  0  0  0  0  0  0  0  0  0
   47.9246   31.8483   41.7715 H   0  0  0  0  0  0  0  0  0  0  0  0
   46.7771   33.5182   41.0904 H   0  0  0  0  0  0  0  0  0  0  0  0
   48.8617   34.8204   39.6844 H   0  0  0  0  0  0  0  0  0  0  0  0
   46.9373   34.0477   37.5973 H   0  0  0  0  0  0  0  0  0  0  0  0
   46.1200   33.1478   38.5577 H   0  0  0  0  0  0  0  0  0  0  0  0
   48.5531   31.7674   39.0584 H   0  0  0  0  0  0  0  0  0  0  0  0
   49.2919   32.5124   37.8994 H   0  0  0  0  0  0  0  0  0  0  0  0
   45.8529   33.8173   41.9424 H   0  0  0  0  0  0  0  0  0  0  0  0
   44.2310   36.1042   44.4035 H   0  0  0  0  0  0  0  0  0  0  0  0
   46.8220   32.6733   43.9433 H   0  0  0  0  0  0  0  0  0  0  0  0
   45.1106   33.6179   47.7162 H   0  0  0  0  0  0  0  0  0  0  0  0
   43.8710   35.7274   42.7747 H   0  0  0  0  0  0  0  0  0  0  0  0
   44.8199   36.2407   41.3384 H   0  0  0  0  0  0  0  0  0  0  0  0
   43.9779   34.6539   41.3384 H   0  0  0  0  0  0  0  0  0  0  0  0
  1 11  1  0
  2  3  1  0
  2  1  1  0
  3  4  1  0
  4  5  1  0
  6  5  1  0
  7  6  1  0
  7  2  1  0
  8  7  1  0
  9 10  1  0
  9  8  1  0
 10  8  1  0
 11 13  1  0
 12 17  2  0
 13 14  2  0
 13 12  1  0
 14 15  1  0
 15 16  2  0
 17 16  1  0
 18 11  1  0
  1 19  1  0
  1 20  1  0
  3 21  1  0
  3 22  1  0
  4 23  1  0
  4 24  1  0
  6 25  1  0
  6 26  1  0
  7 27  1  6
  8 28  1  0
  9 29  1  0
  9 30  1  0
 10 31  1  0
 10 32  1  0
 11 33  1  6
 12 34  1  0
 14 35  1  0
 16 36  1  0
 18 37  1  0
 18 38  1  0
 18 39  1  0
M  ISO  8  19   8  20   8  21  13  22  13  23  13  24  13  25  13  26  13
M  ISO  8  27  13  28  13  29  13  30  13  31  13  32  13  33   8  34  14
M  ISO  5  35  14  36  14  37   8  38   8  39   8
M  END
>  <minimizedAffinity>  (1) 
-4.32712269

>  <minimizedRMSD>  (1) 
1.23342025

$$$$
