
     RDKit          3D

 33 36  0  0  0  0  0  0  0  0999 V2000
   47.3110   33.5520   43.7770 C   0  0  0  0  0  0  0  0  0  0  0  0
   47.2410   32.9440   45.0470 C   0  0  0  0  0  0  0  0  0  0  0  0
   46.1560   33.2950   45.8660 C   0  0  0  0  0  0  0  0  0  0  0  0
   45.2370   34.1940   45.3960 N   0  0  0  0  0  0  0  0  0  0  0  0
   45.3490   34.7430   44.1800 C   0  0  0  0  0  0  0  0  0  0  0  0
   46.3770   34.4410   43.3470 N   0  0  0  0  0  0  0  0  0  0  0  0
   46.1150   32.6760   47.1220 N   0  0  0  0  0  0  0  0  0  0  0  0
   45.1040   32.5850   48.0100 C   0  0  0  0  0  0  0  0  0  0  0  0
   45.6050   31.8600   49.0970 C   0  0  0  0  0  0  0  0  0  0  0  0
   46.8880   31.5440   48.8230 N   0  0  0  0  0  0  0  0  0  0  0  0
   47.2170   32.0360   47.6210 C   0  0  0  0  0  0  0  0  0  0  0  0
   48.4430   33.1970   42.9030 C   0  0  0  0  0  0  0  0  0  0  0  0
   48.2660   33.6780   41.5430 N   0  0  0  0  0  0  0  0  0  0  0  0
   48.6360   34.9070   41.0840 C   0  0  0  0  0  0  0  0  0  0  0  0
   48.3280   35.0190   39.7850 N   0  0  0  0  0  0  0  0  0  0  0  0
   47.7600   33.8930   39.3610 C   0  0  0  0  0  0  0  0  0  0  0  0
   47.2640   33.4900   38.1360 C   0  0  0  0  0  0  0  0  0  0  0  0
   46.7420   32.2370   38.0660 N   0  0  0  0  0  0  0  0  0  0  0  0
   46.7160   31.4330   39.1620 C   0  0  0  0  0  0  0  0  0  0  0  0
   47.2020   31.8370   40.3490 N   0  0  0  0  0  0  0  0  0  0  0  0
   47.7290   33.0640   40.4750 C   0  0  0  0  0  0  0  0  0  0  0  0
   47.3200   34.3770   37.0290 N   0  0  0  0  0  0  0  0  0  0  0  0
   48.0036   32.2255   45.3819 H   0  0  0  0  0  0  0  0  0  0  0  0
   44.5849   35.4604   43.8461 H   0  0  0  0  0  0  0  0  0  0  0  0
   44.0900   32.9975   47.9016 H   0  0  0  0  0  0  0  0  0  0  0  0
   45.0524   31.5953   50.0105 H   0  0  0  0  0  0  0  0  0  0  0  0
   48.1946   31.9426   47.1255 H   0  0  0  0  0  0  0  0  0  0  0  0
   49.3611   33.6391   43.3172 H   0  0  0  0  0  0  0  0  0  0  0  0
   48.5054   32.0994   42.8647 H   0  0  0  0  0  0  0  0  0  0  0  0
   49.1158   35.6899   41.6897 H   0  0  0  0  0  0  0  0  0  0  0  0
   46.2856   30.4244   39.0755 H   0  0  0  0  0  0  0  0  0  0  0  0
   46.9518   34.0819   36.1135 H   0  0  0  0  0  0  0  0  0  0  0  0
   47.7289   35.3157   37.1414 H   0  0  0  0  0  0  0  0  0  0  0  0
  1  2  2  0
  2  3  1  0
  3  7  1  0
  4  3  2  0
  5  4  1  0
  6  1  1  0
  6  5  2  0
  7 11  1  0
  7  8  1  0
  8  9  2  0
 10  9  1  0
 11 10  2  0
 12  1  1  0
 13 12  1  0
 14 13  1  0
 15 14  2  0
 16 15  1  0
 16 21  2  0
 17 16  1  0
 18 17  2  0
 18 19  1  0
 19 20  2  0
 20 21  1  0
 21 13  1  0
 22 17  1  0
  2 23  1  0
  5 24  1  0
  8 25  1  0
  9 26  1  0
 11 27  1  0
 12 28  1  0
 12 29  1  0
 14 30  1  0
 19 31  1  0
 22 32  1  0
 22 33  1  0
M  ISO  8  23  14  24  14  25  14  26  14  27  14  28   8  29   8  30  14
M  ISO  1  31  14
M  END
>  <minimizedAffinity>  (1) 
-5.93030119

>  <minimizedRMSD>  (1) 
2.66322756

$$$$
