
     RDKit          3D

 32 34  0  0  0  0  0  0  0  0999 V2000
   46.1550   34.6770   43.4310 C   0  0  0  0  0  0  0  0  0  0  0  0
   46.3730   33.7670   44.4890 C   0  0  0  0  0  0  0  0  0  0  0  0
   45.6170   33.9470   45.6560 C   0  0  0  0  0  0  0  0  0  0  0  0
   44.7230   34.9810   45.7030 N   0  0  0  0  0  0  0  0  0  0  0  0
   44.5510   35.8200   44.6740 C   0  0  0  0  0  0  0  0  0  0  0  0
   45.2550   35.6930   43.5190 N   0  0  0  0  0  0  0  0  0  0  0  0
   45.8630   33.0240   46.6830 N   0  0  0  0  0  0  0  0  0  0  0  0
   45.1330   32.7600   47.7880 C   0  0  0  0  0  0  0  0  0  0  0  0
   45.8250   31.7590   48.4740 C   0  0  0  0  0  0  0  0  0  0  0  0
   46.9290   31.4630   47.7660 N   0  0  0  0  0  0  0  0  0  0  0  0
   46.9740   32.2280   46.6590 C   0  0  0  0  0  0  0  0  0  0  0  0
   46.9520   34.4910   42.1990 C   0  0  0  0  0  0  0  0  0  0  0  0
   48.1750   33.8500   42.5760 N   0  0  0  0  0  0  0  0  0  0  0  0
   49.3060   34.7470   42.6180 C   0  0  0  0  0  0  0  0  0  0  0  0
   50.5360   33.9040   42.3930 C   0  0  0  0  0  0  0  0  0  0  0  0
   49.9760   32.5080   42.2590 C   0  0  0  0  0  0  0  0  0  0  0  0
   48.6020   32.7980   41.6780 C   0  0  0  0  0  0  0  0  0  0  0  0
   47.1054   32.9510   44.4011 H   0  0  0  0  0  0  0  0  0  0  0  0
   43.8187   36.6356   44.7663 H   0  0  0  0  0  0  0  0  0  0  0  0
   44.1872   33.2357   48.0867 H   0  0  0  0  0  0  0  0  0  0  0  0
   45.5209   31.2955   49.4241 H   0  0  0  0  0  0  0  0  0  0  0  0
   47.7547   32.2150   45.8842 H   0  0  0  0  0  0  0  0  0  0  0  0
   47.1650   35.4666   41.7376 H   0  0  0  0  0  0  0  0  0  0  0  0
   46.4018   33.8807   41.4677 H   0  0  0  0  0  0  0  0  0  0  0  0
   49.2171   35.5065   41.8273 H   0  0  0  0  0  0  0  0  0  0  0  0
   49.3580   35.2734   43.5825 H   0  0  0  0  0  0  0  0  0  0  0  0
   51.0608   34.2085   41.4755 H   0  0  0  0  0  0  0  0  0  0  0  0
   51.2768   33.9965   43.2009 H   0  0  0  0  0  0  0  0  0  0  0  0
   50.5815   31.8942   41.5759 H   0  0  0  0  0  0  0  0  0  0  0  0
   49.9583   31.9357   43.1982 H   0  0  0  0  0  0  0  0  0  0  0  0
   48.6631   33.1479   40.6369 H   0  0  0  0  0  0  0  0  0  0  0  0
   47.9273   31.9311   41.6209 H   0  0  0  0  0  0  0  0  0  0  0  0
  1  6  1  0
  1  2  2  0
  2  3  1  0
  3  4  2  0
  3  7  1  0
  5  4  1  0
  6  5  2  0
  7  8  1  0
  8  9  2  0
 10  9  1  0
 11  7  1  0
 11 10  2  0
 12 13  1  0
 12  1  1  0
 13 14  1  0
 15 14  1  0
 16 15  1  0
 17 16  1  0
 17 13  1  0
  2 18  1  0
  5 19  1  0
  8 20  1  0
  9 21  1  0
 11 22  1  0
 12 23  1  0
 12 24  1  0
 14 25  1  0
 14 26  1  0
 15 27  1  0
 15 28  1  0
 16 29  1  0
 16 30  1  0
 17 31  1  0
 17 32  1  0
M  ISO  8  18  14  19  14  20  14  21  14  22  14  23   8  24   8  25  13
M  ISO  7  26  13  27  13  28  13  29  13  30  13  31  13  32  13
M  END
>  <minimizedAffinity>  (1) 
-5.33949995

>  <minimizedRMSD>  (1) 
1.42081761

$$$$
