
     RDKit          3D

 27 29  0  0  0  0  0  0  0  0999 V2000
   46.1210   34.8450   43.2580 C   0  0  0  0  0  0  0  0  0  0  0  0
   46.3440   33.9190   44.3020 C   0  0  0  0  0  0  0  0  0  0  0  0
   45.6110   34.0850   45.4720 C   0  0  0  0  0  0  0  0  0  0  0  0
   44.7210   35.1210   45.5580 N   0  0  0  0  0  0  0  0  0  0  0  0
   44.5350   35.9790   44.5470 C   0  0  0  0  0  0  0  0  0  0  0  0
   45.2190   35.8680   43.3880 N   0  0  0  0  0  0  0  0  0  0  0  0
   45.8650   33.1420   46.4850 N   0  0  0  0  0  0  0  0  0  0  0  0
   45.1530   32.8550   47.5940 C   0  0  0  0  0  0  0  0  0  0  0  0
   45.8390   31.8430   48.2630 C   0  0  0  0  0  0  0  0  0  0  0  0
   46.9340   31.5630   47.5290 N   0  0  0  0  0  0  0  0  0  0  0  0
   46.9740   32.3420   46.4400 C   0  0  0  0  0  0  0  0  0  0  0  0
   46.8790   34.6990   42.0070 C   0  0  0  0  0  0  0  0  0  0  0  0
   48.2180   34.2440   42.0860 C   0  0  0  0  0  0  0  0  0  0  0  0
   49.4320   34.8520   42.5370 C   0  0  0  0  0  0  0  0  0  0  0  0
   50.5860   34.1310   42.4890 C   0  0  0  0  0  0  0  0  0  0  0  0
   50.5990   32.7680   41.9890 C   0  0  0  0  0  0  0  0  0  0  0  0
   48.7580   32.5580   41.5660 S   0  0  0  0  0  0  0  0  0  0  0  0
   47.0691   33.0990   44.1934 H   0  0  0  0  0  0  0  0  0  0  0  0
   43.8066   36.7950   44.6635 H   0  0  0  0  0  0  0  0  0  0  0  0
   44.2118   33.3287   47.9097 H   0  0  0  0  0  0  0  0  0  0  0  0
   45.5435   31.3647   49.2085 H   0  0  0  0  0  0  0  0  0  0  0  0
   47.7493   32.3391   45.6597 H   0  0  0  0  0  0  0  0  0  0  0  0
   46.8976   35.6850   41.5197 H   0  0  0  0  0  0  0  0  0  0  0  0
   46.3521   33.9034   41.4598 H   0  0  0  0  0  0  0  0  0  0  0  0
   49.4331   35.8846   42.9162 H   0  0  0  0  0  0  0  0  0  0  0  0
   51.5244   34.5890   42.8349 H   0  0  0  0  0  0  0  0  0  0  0  0
   51.4345   32.0601   41.8849 H   0  0  0  0  0  0  0  0  0  0  0  0
  1  6  1  0
  1  2  2  0
  2  3  1  0
  3  4  2  0
  3  7  1  0
  5  4  1  0
  6  5  2  0
  7  8  1  0
  8  9  2  0
 10  9  1  0
 11  7  1  0
 11 10  2  0
 12 13  1  0
 12  1  1  0
 13 14  2  0
 15 14  1  0
 16 15  2  0
 17 16  1  0
 17 13  1  0
  2 18  1  0
  5 19  1  0
  8 20  1  0
  9 21  1  0
 11 22  1  0
 12 23  1  0
 12 24  1  0
 14 25  1  0
 15 26  1  0
 16 27  1  0
M  ISO  8  18  14  19  14  20  14  21  14  22  14  23   8  24   8  25  14
M  ISO  2  26  14  27  14
M  END
>  <minimizedAffinity>  (1) 
-5.63403511

>  <minimizedRMSD>  (1) 
1.50815237

$$$$
