
     RDKit          3D

 33 35  0  0  0  0  0  0  0  0999 V2000
   45.6670   34.5890   43.2470 C   0  0  0  0  0  0  0  0  0  0  0  0
   45.9640   33.6940   44.2890 C   0  0  0  0  0  0  0  0  0  0  0  0
   45.4690   33.9840   45.5590 C   0  0  0  0  0  0  0  0  0  0  0  0
   44.7230   35.1180   45.7260 N   0  0  0  0  0  0  0  0  0  0  0  0
   44.4580   35.9520   44.7080 C   0  0  0  0  0  0  0  0  0  0  0  0
   44.9230   35.7020   43.4630 N   0  0  0  0  0  0  0  0  0  0  0  0
   45.8010   33.0510   46.5630 N   0  0  0  0  0  0  0  0  0  0  0  0
   45.2210   32.8930   47.7820 C   0  0  0  0  0  0  0  0  0  0  0  0
   45.9150   31.8410   48.3870 C   0  0  0  0  0  0  0  0  0  0  0  0
   46.8620   31.4220   47.5200 N   0  0  0  0  0  0  0  0  0  0  0  0
   46.8100   32.1530   46.3900 C   0  0  0  0  0  0  0  0  0  0  0  0
   46.1890   34.2860   41.9050 C   0  0  0  0  0  0  0  0  0  0  0  0
   47.5350   34.7240   41.6870 N   0  0  0  0  0  0  0  0  0  0  0  0
   48.1830   34.2750   40.5100 C   0  0  0  0  0  0  0  0  0  0  0  0
   49.0430   33.0700   40.8820 C   0  0  0  0  0  0  0  0  0  0  0  0
   50.1370   33.4400   41.6550 O   0  0  0  0  0  0  0  0  0  0  0  0
   49.8460   34.5150   42.4930 C   0  0  0  0  0  0  0  0  0  0  0  0
   48.3840   34.5980   42.8250 C   0  0  0  0  0  0  0  0  0  0  0  0
   46.5682   32.7928   44.1078 H   0  0  0  0  0  0  0  0  0  0  0  0
   43.8532   36.8527   44.8894 H   0  0  0  0  0  0  0  0  0  0  0  0
   44.3841   33.4698   48.2027 H   0  0  0  0  0  0  0  0  0  0  0  0
   45.7241   31.4287   49.3888 H   0  0  0  0  0  0  0  0  0  0  0  0
   47.4538   32.0460   45.5045 H   0  0  0  0  0  0  0  0  0  0  0  0
   46.1526   33.1964   41.7584 H   0  0  0  0  0  0  0  0  0  0  0  0
   45.5582   34.8332   41.1890 H   0  0  0  0  0  0  0  0  0  0  0  0
   48.8174   35.0763   40.1031 H   0  0  0  0  0  0  0  0  0  0  0  0
   47.4424   33.9973   39.7455 H   0  0  0  0  0  0  0  0  0  0  0  0
   48.4295   32.3558   41.4508 H   0  0  0  0  0  0  0  0  0  0  0  0
   49.4169   32.6149   39.9530 H   0  0  0  0  0  0  0  0  0  0  0  0
   50.4151   34.3996   43.4272 H   0  0  0  0  0  0  0  0  0  0  0  0
   50.1246   35.4389   41.9650 H   0  0  0  0  0  0  0  0  0  0  0  0
   48.2259   35.4731   43.4725 H   0  0  0  0  0  0  0  0  0  0  0  0
   48.1163   33.6514   43.3172 H   0  0  0  0  0  0  0  0  0  0  0  0
  1  6  1  0
  1  2  2  0
  2  3  1  0
  3  4  2  0
  3  7  1  0
  5  4  1  0
  6  5  2  0
  7  8  1  0
  8  9  2  0
 10  9  1  0
 11  7  1  0
 11 10  2  0
 12  1  1  0
 13 12  1  0
 13 18  1  0
 14 15  1  0
 14 13  1  0
 15 16  1  0
 16 17  1  0
 17 18  1  0
  2 19  1  0
  5 20  1  0
  8 21  1  0
  9 22  1  0
 11 23  1  0
 12 24  1  0
 12 25  1  0
 14 26  1  0
 14 27  1  0
 15 28  1  0
 15 29  1  0
 17 30  1  0
 17 31  1  0
 18 32  1  0
 18 33  1  0
M  ISO  8  19  14  20  14  21  14  22  14  23  14  24   8  25   8  26  13
M  ISO  7  27  13  28  13  29  13  30  13  31  13  32  13  33  13
M  END
>  <minimizedAffinity>  (1) 
-5.37664509

>  <minimizedRMSD>  (1) 
0.713997364

$$$$
