
     RDKit          3D

 34 35  0  0  1  0  0  0  0  0999 V2000
   46.9650   35.4040   42.0590 C   0  0  0  0  0  0  0  0  0  0  0  0
   48.0500   34.8170   41.3570 N   0  0  0  0  0  0  0  0  0  0  0  0
   49.2850   35.1390   42.0090 C   0  0  0  0  0  0  0  0  0  0  0  0
   50.1610   33.9910   42.3400 C   0  0  0  0  0  0  0  0  0  0  0  0
   49.3150   32.9810   42.8200 O   0  0  0  0  0  0  0  0  0  0  0  0
   48.7400   32.4710   41.6510 C   0  0  0  0  0  0  0  0  0  0  0  0
   47.9460   33.4970   40.8920 C   0  0  2  0  0  0  0  0  0  0  0  0
   48.4160   33.4580   39.4760 C   0  0  0  0  0  0  0  0  0  0  0  0
   48.1480   34.3990   38.7550 O   0  0  0  0  0  0  0  0  0  0  0  0
   45.7430   34.5410   42.2570 C   0  0  1  0  0  0  0  0  0  0  0  0
   44.7420   35.4370   44.4180 C   0  0  0  0  0  0  0  0  0  0  0  0
   45.4850   34.4420   43.7050 C   0  0  0  0  0  0  0  0  0  0  0  0
   45.9550   33.3800   44.4540 C   0  0  0  0  0  0  0  0  0  0  0  0
   45.6910   33.3480   45.7800 N   0  0  0  0  0  0  0  0  0  0  0  0
   44.9950   34.2870   46.4270 C   0  0  0  0  0  0  0  0  0  0  0  0
   44.5140   35.3510   45.7280 N   0  0  0  0  0  0  0  0  0  0  0  0
   44.5570   35.0430   41.5230 C   0  0  0  0  0  0  0  0  0  0  0  0
   46.6539   36.3008   41.5032 H   0  0  0  0  0  0  0  0  0  0  0  0
   47.3474   35.6023   43.0711 H   0  0  0  0  0  0  0  0  0  0  0  0
   49.8490   35.8136   41.3481 H   0  0  0  0  0  0  0  0  0  0  0  0
   49.0041   35.5867   42.9737 H   0  0  0  0  0  0  0  0  0  0  0  0
   50.6948   33.6469   41.4419 H   0  0  0  0  0  0  0  0  0  0  0  0
   50.9201   34.2674   43.0865 H   0  0  0  0  0  0  0  0  0  0  0  0
   49.5434   32.0969   40.9994 H   0  0  0  0  0  0  0  0  0  0  0  0
   48.0460   31.6706   41.9473 H   0  0  0  0  0  0  0  0  0  0  0  0
   46.8870   33.2293   41.0218 H   0  0  0  0  0  0  0  0  0  0  0  0
   48.9898   32.6003   39.0950 H   0  0  0  0  0  0  0  0  0  0  0  0
   45.9385   33.5437   41.8361 H   0  0  0  0  0  0  0  0  0  0  0  0
   44.3460   36.3018   43.8655 H   0  0  0  0  0  0  0  0  0  0  0  0
   46.5342   32.5741   43.9796 H   0  0  0  0  0  0  0  0  0  0  0  0
   44.8134   34.2014   47.5085 H   0  0  0  0  0  0  0  0  0  0  0  0
   43.7907   35.3673   42.2425 H   0  0  0  0  0  0  0  0  0  0  0  0
   44.8502   35.8942   40.8909 H   0  0  0  0  0  0  0  0  0  0  0  0
   44.1500   34.2400   40.8909 H   0  0  0  0  0  0  0  0  0  0  0  0
  1 10  1  0
  2  3  1  0
  2  1  1  0
  3  4  1  0
  4  5  1  0
  6  5  1  0
  7  2  1  0
  7  6  1  0
  8  7  1  0
  9  8  2  0
 10 12  1  0
 11 16  2  0
 12 11  1  0
 12 13  2  0
 13 14  1  0
 14 15  2  0
 16 15  1  0
 17 10  1  0
  1 18  1  0
  1 19  1  0
  3 20  1  0
  3 21  1  0
  4 22  1  0
  4 23  1  0
  6 24  1  0
  6 25  1  0
  7 26  1  6
  8 27  1  0
 10 28  1  6
 11 29  1  0
 13 30  1  0
 15 31  1  0
 17 32  1  0
 17 33  1  0
 17 34  1  0
M  ISO  8  18   8  19   8  20  13  21  13  22  13  23  13  24  13  25  13
M  ISO  8  26  13  27   6  28   8  29  14  30  14  31  14  32   8  33   8
M  ISO  1  34   8
M  END
>  <minimizedAffinity>  (1) 
-4.20413971

>  <minimizedRMSD>  (1) 
0.870394051

$$$$
