
     RDKit          3D

 28 30  0  0  0  0  0  0  0  0999 V2000
   46.0700   34.9750   43.3340 C   0  0  0  0  0  0  0  0  0  0  0  0
   46.3260   33.9860   44.3130 C   0  0  0  0  0  0  0  0  0  0  0  0
   45.6040   34.0660   45.5040 C   0  0  0  0  0  0  0  0  0  0  0  0
   44.6960   35.0750   45.6780 N   0  0  0  0  0  0  0  0  0  0  0  0
   44.4880   35.9950   44.7130 C   0  0  0  0  0  0  0  0  0  0  0  0
   45.1640   35.9650   43.5320 N   0  0  0  0  0  0  0  0  0  0  0  0
   45.8930   33.0630   46.4470 N   0  0  0  0  0  0  0  0  0  0  0  0
   45.1760   32.7190   47.5560 C   0  0  0  0  0  0  0  0  0  0  0  0
   45.8810   31.6830   48.1390 C   0  0  0  0  0  0  0  0  0  0  0  0
   46.9630   31.4390   47.3950 N   0  0  0  0  0  0  0  0  0  0  0  0
   46.9940   32.2730   46.3500 C   0  0  0  0  0  0  0  0  0  0  0  0
   46.8270   34.9000   42.0720 C   0  0  0  0  0  0  0  0  0  0  0  0
   45.9220   34.3070   41.0570 C   0  0  0  0  0  0  0  0  0  0  0  0
   46.4430   33.5450   40.0270 C   0  0  0  0  0  0  0  0  0  0  0  0
   45.6460   32.9720   39.0600 C   0  0  0  0  0  0  0  0  0  0  0  0
   44.3070   33.1660   39.1250 N   0  0  0  0  0  0  0  0  0  0  0  0
   43.7960   33.9030   40.1210 C   0  0  0  0  0  0  0  0  0  0  0  0
   44.5780   34.4720   41.0800 N   0  0  0  0  0  0  0  0  0  0  0  0
   47.0632   33.1877   44.1422 H   0  0  0  0  0  0  0  0  0  0  0  0
   43.7505   36.7926   44.8859 H   0  0  0  0  0  0  0  0  0  0  0  0
   44.2373   33.1700   47.9103 H   0  0  0  0  0  0  0  0  0  0  0  0
   45.5990   31.1502   49.0591 H   0  0  0  0  0  0  0  0  0  0  0  0
   47.7624   32.3118   45.5639 H   0  0  0  0  0  0  0  0  0  0  0  0
   47.1383   35.9072   41.7579 H   0  0  0  0  0  0  0  0  0  0  0  0
   47.7334   34.2889   42.1941 H   0  0  0  0  0  0  0  0  0  0  0  0
   47.5311   33.3911   39.9781 H   0  0  0  0  0  0  0  0  0  0  0  0
   46.0877   32.3698   38.2524 H   0  0  0  0  0  0  0  0  0  0  0  0
   42.7073   34.0535   40.1655 H   0  0  0  0  0  0  0  0  0  0  0  0
  1  6  1  0
  1  2  2  0
  2  3  1  0
  3  4  2  0
  3  7  1  0
  5  4  1  0
  6  5  2  0
  7  8  1  0
  8  9  2  0
 10  9  1  0
 11  7  1  0
 11 10  2  0
 12  1  1  0
 13 18  1  0
 13 12  1  0
 14 13  2  0
 15 16  2  0
 15 14  1  0
 16 17  1  0
 17 18  2  0
  2 19  1  0
  5 20  1  0
  8 21  1  0
  9 22  1  0
 11 23  1  0
 12 24  1  0
 12 25  1  0
 14 26  1  0
 15 27  1  0
 17 28  1  0
M  ISO  8  19  14  20  14  21  14  22  14  23  14  24   8  25   8  26  14
M  ISO  2  27  14  28  14
M  END
>  <minimizedAffinity>  (1) 
-5.25774336

>  <minimizedRMSD>  (1) 
0.481685847

$$$$
