
     RDKit          3D

 33 35  0  0  0  0  0  0  0  0999 V2000
   46.6020   34.4750   43.4440 C   0  0  0  0  0  0  0  0  0  0  0  0
   46.7040   33.6810   44.6000 C   0  0  0  0  0  0  0  0  0  0  0  0
   45.7670   33.8930   45.6100 C   0  0  0  0  0  0  0  0  0  0  0  0
   44.8130   34.8480   45.4240 N   0  0  0  0  0  0  0  0  0  0  0  0
   44.7460   35.5900   44.3050 C   0  0  0  0  0  0  0  0  0  0  0  0
   45.6390   35.4160   43.2960 N   0  0  0  0  0  0  0  0  0  0  0  0
   45.9010   33.0850   46.7440 N   0  0  0  0  0  0  0  0  0  0  0  0
   45.0300   32.8480   47.7560 C   0  0  0  0  0  0  0  0  0  0  0  0
   45.6650   31.9680   48.6300 C   0  0  0  0  0  0  0  0  0  0  0  0
   46.8860   31.7060   48.1210 N   0  0  0  0  0  0  0  0  0  0  0  0
   47.0530   32.3790   46.9670 C   0  0  0  0  0  0  0  0  0  0  0  0
   47.5910   34.2610   42.3810 C   0  0  0  0  0  0  0  0  0  0  0  0
   47.0720   34.2400   40.9920 C   0  0  0  0  0  0  0  0  0  0  0  0
   46.4300   32.9310   40.5830 C   0  0  0  0  0  0  0  0  0  0  0  0
   46.1860   33.1860   39.1120 C   0  0  0  0  0  0  0  0  0  0  0  0
   47.4810   33.8330   38.6710 C   0  0  0  0  0  0  0  0  0  0  0  0
   48.1060   34.4500   39.9150 C   0  0  0  0  0  0  0  0  0  0  0  0
   47.4931   32.9216   44.7033 H   0  0  0  0  0  0  0  0  0  0  0  0
   43.9564   36.3493   44.2048 H   0  0  0  0  0  0  0  0  0  0  0  0
   44.0194   33.2684   47.8655 H   0  0  0  0  0  0  0  0  0  0  0  0
   45.2474   31.5619   49.5631 H   0  0  0  0  0  0  0  0  0  0  0  0
   47.9459   32.3645   46.3247 H   0  0  0  0  0  0  0  0  0  0  0  0
   48.3346   35.0688   42.4482 H   0  0  0  0  0  0  0  0  0  0  0  0
   47.9957   33.2534   42.5570 H   0  0  0  0  0  0  0  0  0  0  0  0
   46.3555   35.0727   41.0480 H   0  0  0  0  0  0  0  0  0  0  0  0
   47.1092   32.0800   40.7397 H   0  0  0  0  0  0  0  0  0  0  0  0
   45.5293   32.6655   41.1560 H   0  0  0  0  0  0  0  0  0  0  0  0
   46.0071   32.2456   38.5701 H   0  0  0  0  0  0  0  0  0  0  0  0
   45.2982   33.8053   38.9163 H   0  0  0  0  0  0  0  0  0  0  0  0
   48.1558   33.0774   38.2423 H   0  0  0  0  0  0  0  0  0  0  0  0
   47.3003   34.5952   37.8987 H   0  0  0  0  0  0  0  0  0  0  0  0
   49.0464   33.9408   40.1725 H   0  0  0  0  0  0  0  0  0  0  0  0
   48.3602   35.5112   39.7764 H   0  0  0  0  0  0  0  0  0  0  0  0
  1  2  2  0
  2  3  1  0
  3  7  1  0
  4  3  2  0
  5  4  1  0
  6  1  1  0
  6  5  2  0
  7 11  1  0
  7  8  1  0
  8  9  2  0
 10  9  1  0
 11 10  2  0
 12  1  1  0
 13 12  1  0
 14 13  1  0
 15 14  1  0
 16 15  1  0
 16 17  1  0
 17 13  1  0
  2 18  1  0
  5 19  1  0
  8 20  1  0
  9 21  1  0
 11 22  1  0
 12 23  1  0
 12 24  1  0
 13 25  1  0
 14 26  1  0
 14 27  1  0
 15 28  1  0
 15 29  1  0
 16 30  1  0
 16 31  1  0
 17 32  1  0
 17 33  1  0
M  ISO  8  18  14  19  14  20  14  21  14  22  14  23   8  24   8  25  13
M  ISO  8  26  13  27  13  28  13  29  13  30  13  31  13  32  13  33  13
M  END
>  <minimizedAffinity>  (1) 
-5.20809269

>  <minimizedRMSD>  (1) 
0.896446466

$$$$
