
     RDKit          3D

 27 29  0  0  0  0  0  0  0  0999 V2000
   46.0200   34.9400   43.3530 C   0  0  0  0  0  0  0  0  0  0  0  0
   46.2750   33.9630   44.3320 C   0  0  0  0  0  0  0  0  0  0  0  0
   45.5760   34.0600   45.5450 C   0  0  0  0  0  0  0  0  0  0  0  0
   44.6920   35.0910   45.7060 N   0  0  0  0  0  0  0  0  0  0  0  0
   44.4820   36.0020   44.7380 C   0  0  0  0  0  0  0  0  0  0  0  0
   45.1310   35.9520   43.5540 N   0  0  0  0  0  0  0  0  0  0  0  0
   45.8660   33.0650   46.4880 N   0  0  0  0  0  0  0  0  0  0  0  0
   45.1730   32.7180   47.5990 C   0  0  0  0  0  0  0  0  0  0  0  0
   45.8810   31.6790   48.1870 C   0  0  0  0  0  0  0  0  0  0  0  0
   46.9620   31.4400   47.4210 N   0  0  0  0  0  0  0  0  0  0  0  0
   46.9790   32.2780   46.3680 C   0  0  0  0  0  0  0  0  0  0  0  0
   46.7640   34.8230   42.0890 C   0  0  0  0  0  0  0  0  0  0  0  0
   45.8410   34.3240   41.0340 C   0  0  0  0  0  0  0  0  0  0  0  0
   44.4740   34.5210   41.0920 C   0  0  0  0  0  0  0  0  0  0  0  0
   43.8910   33.9540   39.9890 C   0  0  0  0  0  0  0  0  0  0  0  0
   44.9380   33.4330   39.3050 N   0  0  0  0  0  0  0  0  0  0  0  0
   46.0900   33.6410   39.9030 N   0  0  0  0  0  0  0  0  0  0  0  0
   46.9964   33.1520   44.1533 H   0  0  0  0  0  0  0  0  0  0  0  0
   43.7597   36.8123   44.9162 H   0  0  0  0  0  0  0  0  0  0  0  0
   44.2376   33.1688   47.9620 H   0  0  0  0  0  0  0  0  0  0  0  0
   45.6084   31.1476   49.1107 H   0  0  0  0  0  0  0  0  0  0  0  0
   47.7357   32.3215   45.5709 H   0  0  0  0  0  0  0  0  0  0  0  0
   47.1583   35.8082   41.7995 H   0  0  0  0  0  0  0  0  0  0  0  0
   47.6035   34.1231   42.2128 H   0  0  0  0  0  0  0  0  0  0  0  0
   43.9394   35.0488   41.8955 H   0  0  0  0  0  0  0  0  0  0  0  0
   42.8242   33.9280   39.7219 H   0  0  0  0  0  0  0  0  0  0  0  0
   44.8417   32.9282   38.4124 H   0  0  0  0  0  0  0  0  0  0  0  0
  1  6  1  0
  1  2  2  0
  2  3  1  0
  3  4  2  0
  3  7  1  0
  5  4  1  0
  6  5  2  0
  7  8  1  0
  8  9  2  0
 10  9  1  0
 11  7  1  0
 11 10  2  0
 12  1  1  0
 13 14  1  0
 13 12  1  0
 15 14  2  0
 16 17  1  0
 16 15  1  0
 17 13  2  0
  2 18  1  0
  5 19  1  0
  8 20  1  0
  9 21  1  0
 11 22  1  0
 12 23  1  0
 12 24  1  0
 14 25  1  0
 15 26  1  0
 16 27  1  0
M  ISO  8  18  14  19  14  20  14  21  14  22  14  23   8  24   8  25  14
M  ISO  2  26  14  27   9
M  END
>  <minimizedAffinity>  (1) 
-5.264534

>  <minimizedRMSD>  (1) 
0.640332758

$$$$
