
     RDKit          3D

 22 23  0  0  0  0  0  0  0  0999 V2000
   46.0390   34.8130   43.1950 C   0  0  0  0  0  0  0  0  0  0  0  0
   46.2770   33.9010   44.2420 C   0  0  0  0  0  0  0  0  0  0  0  0
   45.5800   34.0970   45.4370 C   0  0  0  0  0  0  0  0  0  0  0  0
   44.7150   35.1430   45.5420 N   0  0  0  0  0  0  0  0  0  0  0  0
   44.5120   35.9900   44.5250 C   0  0  0  0  0  0  0  0  0  0  0  0
   45.1710   35.8420   43.3320 N   0  0  0  0  0  0  0  0  0  0  0  0
   45.8590   33.1540   46.4480 N   0  0  0  0  0  0  0  0  0  0  0  0
   45.2090   32.9280   47.6060 C   0  0  0  0  0  0  0  0  0  0  0  0
   45.8840   31.8930   48.2480 C   0  0  0  0  0  0  0  0  0  0  0  0
   46.8990   31.5420   47.4630 N   0  0  0  0  0  0  0  0  0  0  0  0
   46.9200   32.2950   46.3430 C   0  0  0  0  0  0  0  0  0  0  0  0
   46.7610   34.6270   41.9280 C   0  0  0  0  0  0  0  0  0  0  0  0
   45.8250   34.4520   40.8100 N   0  0  0  0  0  0  0  0  0  0  0  0
   46.9842   33.0669   44.1233 H   0  0  0  0  0  0  0  0  0  0  0  0
   43.8023   36.8212   44.6492 H   0  0  0  0  0  0  0  0  0  0  0  0
   44.3179   33.4582   47.9732 H   0  0  0  0  0  0  0  0  0  0  0  0
   45.6264   31.4492   49.2210 H   0  0  0  0  0  0  0  0  0  0  0  0
   47.6418   32.2315   45.5153 H   0  0  0  0  0  0  0  0  0  0  0  0
   47.3874   35.5110   41.7378 H   0  0  0  0  0  0  0  0  0  0  0  0
   47.3836   33.7238   42.0086 H   0  0  0  0  0  0  0  0  0  0  0  0
   44.8795   34.2752   41.1783 H   0  0  0  0  0  0  0  0  0  0  0  0
   45.8150   35.3057   40.2338 H   0  0  0  0  0  0  0  0  0  0  0  0
  1  6  2  0
  1  2  1  0
  2  3  2  0
  3  4  1  0
  3  7  1  0
  5  4  2  0
  6  5  1  0
  7  8  1  0
  8  9  2  0
 10  9  1  0
 11  7  1  0
 11 10  2  0
 12  1  1  0
 13 12  1  0
  2 14  1  0
  5 15  1  0
  8 16  1  0
  9 17  1  0
 11 18  1  0
 12 19  1  0
 12 20  1  0
 13 21  1  0
 13 22  1  0
M  ISO  8  14  14  15  14  16  14  17  14  18  14  19   8  20   8  21   5
M  ISO  1  22   5
M  END
>  <minimizedAffinity>  (1) 
-4.29402447

>  <minimizedRMSD>  (1) 
0.216238171

$$$$
