
     RDKit          3D

 25 27  0  0  0  0  0  0  0  0999 V2000
   45.9980   34.9090   43.4110 C   0  0  0  0  0  0  0  0  0  0  0  0
   46.2540   33.9440   44.3980 C   0  0  0  0  0  0  0  0  0  0  0  0
   45.5690   34.0330   45.6100 C   0  0  0  0  0  0  0  0  0  0  0  0
   44.6810   35.0580   45.7760 N   0  0  0  0  0  0  0  0  0  0  0  0
   44.4610   35.9620   44.8140 C   0  0  0  0  0  0  0  0  0  0  0  0
   45.1060   35.9070   43.6280 N   0  0  0  0  0  0  0  0  0  0  0  0
   45.8670   33.0410   46.5570 N   0  0  0  0  0  0  0  0  0  0  0  0
   45.1920   32.6860   47.6730 C   0  0  0  0  0  0  0  0  0  0  0  0
   45.9230   31.6490   48.2510 C   0  0  0  0  0  0  0  0  0  0  0  0
   47.0010   31.4190   47.4700 N   0  0  0  0  0  0  0  0  0  0  0  0
   46.9750   32.2720   46.4250 C   0  0  0  0  0  0  0  0  0  0  0  0
   46.7310   34.8030   42.1370 C   0  0  0  0  0  0  0  0  0  0  0  0
   45.9560   34.2330   41.0290 C   0  0  0  0  0  0  0  0  0  0  0  0
   44.6430   34.3300   40.7110 N   0  0  0  0  0  0  0  0  0  0  0  0
   44.4040   33.6490   39.6300 O   0  0  0  0  0  0  0  0  0  0  0  0
   45.5110   33.0990   39.2100 C   0  0  0  0  0  0  0  0  0  0  0  0
   46.4830   33.4480   40.0610 N   0  0  0  0  0  0  0  0  0  0  0  0
   46.9785   33.1358   44.2196 H   0  0  0  0  0  0  0  0  0  0  0  0
   43.7367   36.7703   44.9934 H   0  0  0  0  0  0  0  0  0  0  0  0
   44.2564   33.1258   48.0487 H   0  0  0  0  0  0  0  0  0  0  0  0
   45.6676   31.1138   49.1774 H   0  0  0  0  0  0  0  0  0  0  0  0
   47.7167   32.3322   45.6149 H   0  0  0  0  0  0  0  0  0  0  0  0
   47.0564   35.8121   41.8440 H   0  0  0  0  0  0  0  0  0  0  0  0
   47.5687   34.1133   42.3172 H   0  0  0  0  0  0  0  0  0  0  0  0
   45.6242   32.4642   38.3188 H   0  0  0  0  0  0  0  0  0  0  0  0
  1  6  1  0
  1  2  2  0
  2  3  1  0
  3  4  2  0
  3  7  1  0
  5  4  1  0
  6  5  2  0
  7  8  1  0
  8  9  2  0
 10  9  1  0
 11  7  1  0
 11 10  2  0
 12  1  1  0
 13 12  1  0
 14 13  2  0
 15 14  1  0
 16 15  1  0
 16 17  2  0
 17 13  1  0
  2 18  1  0
  5 19  1  0
  8 20  1  0
  9 21  1  0
 11 22  1  0
 12 23  1  0
 12 24  1  0
 16 25  1  0
M  ISO  8  18  14  19  14  20  14  21  14  22  14  23   8  24   8  25  14
M  END
>  <minimizedAffinity>  (1) 
-5.03782034

>  <minimizedRMSD>  (1) 
0.466334462

$$$$
