
     RDKit          3D

 46 50  0  0  0  0  0  0  0  0999 V2000
   47.8650   34.0470   41.9800 N   0  0  0  0  0  0  0  0  0  0  0  0
   47.9930   35.3940   41.8160 C   0  0  0  0  0  0  0  0  0  0  0  0
   49.3750   35.9590   41.9790 C   0  0  0  0  0  0  0  0  0  0  0  0
   50.2470   35.1700   42.8270 N   0  0  0  0  0  0  0  0  0  0  0  0
   50.1910   33.7680   42.5910 C   0  0  0  0  0  0  0  0  0  0  0  0
   48.8900   33.1480   42.1760 C   0  0  0  0  0  0  0  0  0  0  0  0
   48.7870   31.7330   42.0740 C   0  0  0  0  0  0  0  0  0  0  0  0
   47.5370   31.2120   42.1730 N   0  0  0  0  0  0  0  0  0  0  0  0
   47.2620   29.9090   42.1240 C   0  0  0  0  0  0  0  0  0  0  0  0
   48.2100   28.9670   41.9730 N   0  0  0  0  0  0  0  0  0  0  0  0
   49.5010   29.3890   41.8690 C   0  0  0  0  0  0  0  0  0  0  0  0
   50.5080   28.4690   41.7660 C   0  0  0  0  0  0  0  0  0  0  0  0
   51.8290   28.8560   41.7200 C   0  0  0  0  0  0  0  0  0  0  0  0
   52.0700   30.2330   41.7840 C   0  0  0  0  0  0  0  0  0  0  0  0
   51.0290   31.1210   41.8850 C   0  0  0  0  0  0  0  0  0  0  0  0
   49.7110   30.7410   41.9270 C   0  0  0  0  0  0  0  0  0  0  0  0
   46.5320   33.5570   42.1580 C   0  0  0  0  0  0  0  0  0  0  0  0
   45.9290   34.0070   43.4410 C   0  0  0  0  0  0  0  0  0  0  0  0
   46.2010   33.2430   44.6130 C   0  0  0  0  0  0  0  0  0  0  0  0
   45.6310   33.6750   45.8010 C   0  0  0  0  0  0  0  0  0  0  0  0
   44.8460   34.7980   45.7800 N   0  0  0  0  0  0  0  0  0  0  0  0
   44.6180   35.4850   44.6490 C   0  0  0  0  0  0  0  0  0  0  0  0
   45.1500   35.1060   43.4720 N   0  0  0  0  0  0  0  0  0  0  0  0
   45.9330   32.8940   46.9310 N   0  0  0  0  0  0  0  0  0  0  0  0
   45.3240   32.8940   48.1390 C   0  0  0  0  0  0  0  0  0  0  0  0
   46.0140   31.9380   48.9090 C   0  0  0  0  0  0  0  0  0  0  0  0
   46.9860   31.4210   48.1360 N   0  0  0  0  0  0  0  0  0  0  0  0
   46.9560   31.9890   46.9280 C   0  0  0  0  0  0  0  0  0  0  0  0
   47.3419   35.8843   42.5547 H   0  0  0  0  0  0  0  0  0  0  0  0
   47.7203   35.5876   40.7681 H   0  0  0  0  0  0  0  0  0  0  0  0
   49.8368   36.0319   40.9833 H   0  0  0  0  0  0  0  0  0  0  0  0
   49.2593   36.9366   42.4698 H   0  0  0  0  0  0  0  0  0  0  0  0
   50.8575   35.5903   43.5422 H   0  0  0  0  0  0  0  0  0  0  0  0
   51.0907   33.1466   42.7114 H   0  0  0  0  0  0  0  0  0  0  0  0
   46.2130   29.5897   42.2109 H   0  0  0  0  0  0  0  0  0  0  0  0
   50.2578   27.3989   41.7190 H   0  0  0  0  0  0  0  0  0  0  0  0
   52.6470   28.1252   41.6377 H   0  0  0  0  0  0  0  0  0  0  0  0
   53.1040   30.6070   41.7530 H   0  0  0  0  0  0  0  0  0  0  0  0
   51.2633   32.1946   41.9350 H   0  0  0  0  0  0  0  0  0  0  0  0
   45.9083   33.9203   41.3279 H   0  0  0  0  0  0  0  0  0  0  0  0
   46.5783   32.4581   42.1764 H   0  0  0  0  0  0  0  0  0  0  0  0
   46.8375   32.3466   44.5766 H   0  0  0  0  0  0  0  0  0  0  0  0
   43.9801   36.3804   44.6852 H   0  0  0  0  0  0  0  0  0  0  0  0
   44.4695   33.5111   48.4536 H   0  0  0  0  0  0  0  0  0  0  0  0
   45.7977   31.6640   49.9521 H   0  0  0  0  0  0  0  0  0  0  0  0
   47.6298   31.7690   46.0868 H   0  0  0  0  0  0  0  0  0  0  0  0
  1 17  1  0
  1  6  1  0
  2  3  1  0
  2  1  1  0
  3  4  1  0
  5  4  1  0
  6  5  2  0
  7  8  2  0
  7  6  1  0
  9  8  1  0
 10  9  2  0
 11 16  2  0
 11 10  1  0
 12 11  1  0
 13 12  2  0
 13 14  1  0
 14 15  2  0
 15 16  1  0
 16  7  1  0
 17 18  1  0
 18 23  1  0
 18 19  2  0
 19 20  1  0
 20 24  1  0
 21 20  2  0
 22 21  1  0
 23 22  2  0
 24 25  1  0
 25 26  2  0
 27 26  1  0
 28 24  1  0
 28 27  2  0
  2 29  1  0
  2 30  1  0
  3 31  1  0
  3 32  1  0
  4 33  1  0
  5 34  1  0
  9 35  1  0
 12 36  1  0
 13 37  1  0
 14 38  1  0
 15 39  1  0
 17 40  1  0
 17 41  1  0
 19 42  1  0
 22 43  1  0
 25 44  1  0
 26 45  1  0
 28 46  1  0
M  ISO  8  29  13  30  13  31  13  32  13  34  13  35  14  36  14  37  14
M  ISO  8  38  14  39  14  40   8  41   8  42  14  43  14  44  14  45  14
M  ISO  1  46  14
M  END
>  <minimizedAffinity>  (1) 
-6.33911324

>  <minimizedRMSD>  (1) 
0.387006402

$$$$
