
     RDKit          3D

 45 49  0  0  0  0  0  0  0  0999 V2000
   47.8550   34.0910   41.9740 N   0  0  0  0  0  0  0  0  0  0  0  0
   47.9800   35.4360   41.8010 C   0  0  0  0  0  0  0  0  0  0  0  0
   49.3610   36.0010   41.9530 C   0  0  0  0  0  0  0  0  0  0  0  0
   50.2320   35.2230   42.8220 N   0  0  0  0  0  0  0  0  0  0  0  0
   50.1860   33.7990   42.6050 C   0  0  0  0  0  0  0  0  0  0  0  0
   48.8700   33.2090   42.1750 C   0  0  0  0  0  0  0  0  0  0  0  0
   48.9990   31.8350   42.0720 N   0  0  0  0  0  0  0  0  0  0  0  0
   48.7560   30.9030   43.0050 C   0  0  0  0  0  0  0  0  0  0  0  0
   49.0530   29.6330   42.6140 N   0  0  0  0  0  0  0  0  0  0  0  0
   49.5200   29.7320   41.3420 C   0  0  0  0  0  0  0  0  0  0  0  0
   49.9480   28.7000   40.5450 C   0  0  0  0  0  0  0  0  0  0  0  0
   50.3750   29.0950   39.3090 N   0  0  0  0  0  0  0  0  0  0  0  0
   50.3530   30.3940   38.9600 C   0  0  0  0  0  0  0  0  0  0  0  0
   49.9180   31.3300   39.8070 N   0  0  0  0  0  0  0  0  0  0  0  0
   49.4750   31.0740   41.0430 C   0  0  0  0  0  0  0  0  0  0  0  0
   49.9370   27.3500   40.9930 N   0  0  0  0  0  0  0  0  0  0  0  0
   46.5330   33.5850   42.1590 C   0  0  0  0  0  0  0  0  0  0  0  0
   45.9350   34.0280   43.4580 C   0  0  0  0  0  0  0  0  0  0  0  0
   46.2290   33.2380   44.6090 C   0  0  0  0  0  0  0  0  0  0  0  0
   45.6730   33.6220   45.8090 C   0  0  0  0  0  0  0  0  0  0  0  0
   44.8720   34.7410   45.8240 N   0  0  0  0  0  0  0  0  0  0  0  0
   44.6230   35.4540   44.7180 C   0  0  0  0  0  0  0  0  0  0  0  0
   45.1470   35.1110   43.5270 N   0  0  0  0  0  0  0  0  0  0  0  0
   45.9920   32.8220   46.9180 N   0  0  0  0  0  0  0  0  0  0  0  0
   45.4040   32.7990   48.1360 C   0  0  0  0  0  0  0  0  0  0  0  0
   46.1120   31.8290   48.8720 C   0  0  0  0  0  0  0  0  0  0  0  0
   47.0680   31.3290   48.0780 N   0  0  0  0  0  0  0  0  0  0  0  0
   47.0170   31.9180   46.8800 C   0  0  0  0  0  0  0  0  0  0  0  0
   47.3326   35.9304   42.5402 H   0  0  0  0  0  0  0  0  0  0  0  0
   47.7004   35.6238   40.7538 H   0  0  0  0  0  0  0  0  0  0  0  0
   49.8243   36.0522   40.9566 H   0  0  0  0  0  0  0  0  0  0  0  0
   49.2481   36.9896   42.4220 H   0  0  0  0  0  0  0  0  0  0  0  0
   50.8343   35.6565   43.5363 H   0  0  0  0  0  0  0  0  0  0  0  0
   51.0764   33.1691   42.7478 H   0  0  0  0  0  0  0  0  0  0  0  0
   48.3520   31.1435   43.9995 H   0  0  0  0  0  0  0  0  0  0  0  0
   50.6996   30.6903   37.9590 H   0  0  0  0  0  0  0  0  0  0  0  0
   50.2650   26.5980   40.3702 H   0  0  0  0  0  0  0  0  0  0  0  0
   49.6011   27.1244   41.9402 H   0  0  0  0  0  0  0  0  0  0  0  0
   45.8978   33.9440   41.3358 H   0  0  0  0  0  0  0  0  0  0  0  0
   46.5902   32.4865   42.1705 H   0  0  0  0  0  0  0  0  0  0  0  0
   46.8777   32.3523   44.5403 H   0  0  0  0  0  0  0  0  0  0  0  0
   43.9752   36.3405   44.7847 H   0  0  0  0  0  0  0  0  0  0  0  0
   44.5543   33.4079   48.4785 H   0  0  0  0  0  0  0  0  0  0  0  0
   45.9150   31.5345   49.9134 H   0  0  0  0  0  0  0  0  0  0  0  0
   47.6762   31.7139   46.0234 H   0  0  0  0  0  0  0  0  0  0  0  0
  1 17  1  0
  1  6  1  0
  2  3  1  0
  2  1  1  0
  3  4  1  0
  5  4  1  0
  6  5  2  0
  7  6  1  0
  7  8  1  0
  9  8  2  0
 10  9  1  0
 11 16  1  0
 11 10  2  0
 12 11  1  0
 13 12  2  0
 13 14  1  0
 14 15  2  0
 15 10  1  0
 15  7  1  0
 17 18  1  0
 18 23  1  0
 18 19  2  0
 19 20  1  0
 20 21  2  0
 20 24  1  0
 22 21  1  0
 23 22  2  0
 24 25  1  0
 25 26  2  0
 27 26  1  0
 28 24  1  0
 28 27  2  0
  2 29  1  0
  2 30  1  0
  3 31  1  0
  3 32  1  0
  4 33  1  0
  5 34  1  0
  8 35  1  0
 13 36  1  0
 16 37  1  0
 16 38  1  0
 17 39  1  0
 17 40  1  0
 19 41  1  0
 22 42  1  0
 25 43  1  0
 26 44  1  0
 28 45  1  0
M  ISO  8  29  13  30  13  31  13  32  13  34  13  35  14  36  14  39   8
M  ISO  6  40   8  41  14  42  14  43  14  44  14  45  14
M  END
>  <minimizedAffinity>  (1) 
-6.30632544

>  <minimizedRMSD>  (1) 
0.530924976

$$$$
