
     RDKit          3D

 42 45  0  0  0  0  0  0  0  0999 V2000
   47.7800   34.1220   41.9650 N   0  0  0  0  0  0  0  0  0  0  0  0
   47.9900   35.4490   41.7280 C   0  0  0  0  0  0  0  0  0  0  0  0
   49.3880   35.9570   41.9150 C   0  0  0  0  0  0  0  0  0  0  0  0
   50.1890   35.1590   42.8390 N   0  0  0  0  0  0  0  0  0  0  0  0
   50.0680   33.7460   42.6900 C   0  0  0  0  0  0  0  0  0  0  0  0
   48.7470   33.1950   42.2410 C   0  0  0  0  0  0  0  0  0  0  0  0
   48.7750   31.7950   42.2130 N   0  0  0  0  0  0  0  0  0  0  0  0
   48.7610   31.0090   43.3020 C   0  0  0  0  0  0  0  0  0  0  0  0
   48.8730   29.6390   43.3920 C   0  0  0  0  0  0  0  0  0  0  0  0
   49.0200   28.9460   42.1890 C   0  0  0  0  0  0  0  0  0  0  0  0
   49.1250   27.7030   42.2010 O   0  0  0  0  0  0  0  0  0  0  0  0
   49.0360   29.7130   41.0620 N   0  0  0  0  0  0  0  0  0  0  0  0
   48.9190   31.0440   41.1100 C   0  0  0  0  0  0  0  0  0  0  0  0
   48.9710   31.4900   39.9410 O   0  0  0  0  0  0  0  0  0  0  0  0
   46.4250   33.7030   42.1230 C   0  0  0  0  0  0  0  0  0  0  0  0
   45.8540   34.1310   43.4400 C   0  0  0  0  0  0  0  0  0  0  0  0
   46.1650   33.3140   44.5690 C   0  0  0  0  0  0  0  0  0  0  0  0
   45.6250   33.7000   45.7930 C   0  0  0  0  0  0  0  0  0  0  0  0
   44.8420   34.8200   45.8360 N   0  0  0  0  0  0  0  0  0  0  0  0
   44.5820   35.5520   44.7410 C   0  0  0  0  0  0  0  0  0  0  0  0
   45.0790   35.2220   43.5410 N   0  0  0  0  0  0  0  0  0  0  0  0
   45.9560   32.8770   46.8850 N   0  0  0  0  0  0  0  0  0  0  0  0
   45.3970   32.8150   48.1080 C   0  0  0  0  0  0  0  0  0  0  0  0
   46.0910   31.8380   48.8140 C   0  0  0  0  0  0  0  0  0  0  0  0
   47.0300   31.3570   47.9960 N   0  0  0  0  0  0  0  0  0  0  0  0
   46.9810   31.9670   46.8060 C   0  0  0  0  0  0  0  0  0  0  0  0
   47.3365   36.0157   42.4076 H   0  0  0  0  0  0  0  0  0  0  0  0
   47.7746   35.5875   40.6582 H   0  0  0  0  0  0  0  0  0  0  0  0
   49.8892   35.9601   40.9358 H   0  0  0  0  0  0  0  0  0  0  0  0
   49.3062   36.9637   42.3508 H   0  0  0  0  0  0  0  0  0  0  0  0
   50.7994   35.5873   43.5495 H   0  0  0  0  0  0  0  0  0  0  0  0
   50.9182   33.0798   42.8982 H   0  0  0  0  0  0  0  0  0  0  0  0
   48.6430   31.5354   44.2606 H   0  0  0  0  0  0  0  0  0  0  0  0
   48.8479   29.1184   44.3607 H   0  0  0  0  0  0  0  0  0  0  0  0
   49.1414   29.2534   40.1463 H   0  0  0  0  0  0  0  0  0  0  0  0
   45.8213   34.1419   41.3150 H   0  0  0  0  0  0  0  0  0  0  0  0
   46.4031   32.6039   42.0849 H   0  0  0  0  0  0  0  0  0  0  0  0
   46.8013   32.4215   44.4761 H   0  0  0  0  0  0  0  0  0  0  0  0
   43.9454   36.4445   44.8310 H   0  0  0  0  0  0  0  0  0  0  0  0
   44.5553   33.4193   48.4772 H   0  0  0  0  0  0  0  0  0  0  0  0
   45.9019   31.5215   49.8504 H   0  0  0  0  0  0  0  0  0  0  0  0
   47.6310   31.7775   45.9391 H   0  0  0  0  0  0  0  0  0  0  0  0
  1 15  1  0
  1  6  1  0
  2  3  1  0
  2  1  1  0
  3  4  1  0
  5  4  1  0
  6  5  2  0
  7  6  1  0
  7  8  1  0
  8  9  2  0
 10 11  2  0
 10  9  1  0
 12 13  1  0
 12 10  1  0
 13  7  1  0
 14 13  2  0
 15 16  1  0
 16 21  1  0
 16 17  2  0
 17 18  1  0
 18 19  2  0
 18 22  1  0
 20 19  1  0
 21 20  2  0
 22 23  1  0
 23 24  2  0
 25 24  1  0
 26 22  1  0
 26 25  2  0
  2 27  1  0
  2 28  1  0
  3 29  1  0
  3 30  1  0
  4 31  1  0
  5 32  1  0
  8 33  1  0
  9 34  1  0
 12 35  1  0
 15 36  1  0
 15 37  1  0
 17 38  1  0
 20 39  1  0
 23 40  1  0
 24 41  1  0
 26 42  1  0
M  ISO  8  27  13  28  13  29  13  30  13  32  13  33  14  34  14  35   9
M  ISO  7  36   8  37   8  38  14  39  14  40  14  41  14  42  14
M  END
>  <minimizedAffinity>  (1) 
-6.19116879

>  <minimizedRMSD>  (1) 
0.759470999

$$$$
