
     RDKit          3D

 43 46  0  0  0  0  0  0  0  0999 V2000
   47.8410   34.0820   41.9700 N   0  0  0  0  0  0  0  0  0  0  0  0
   47.9960   35.4180   41.7540 C   0  0  0  0  0  0  0  0  0  0  0  0
   49.3810   35.9670   41.9240 C   0  0  0  0  0  0  0  0  0  0  0  0
   50.2240   35.1880   42.8220 N   0  0  0  0  0  0  0  0  0  0  0  0
   50.1540   33.7640   42.6490 C   0  0  0  0  0  0  0  0  0  0  0  0
   48.8410   33.1840   42.2220 C   0  0  0  0  0  0  0  0  0  0  0  0
   48.9320   31.8040   42.1910 N   0  0  0  0  0  0  0  0  0  0  0  0
   48.8290   30.9670   43.2360 C   0  0  0  0  0  0  0  0  0  0  0  0
   49.0010   29.6040   43.2980 C   0  0  0  0  0  0  0  0  0  0  0  0
   49.3310   28.9530   42.1300 C   0  0  0  0  0  0  0  0  0  0  0  0
   49.5140   27.5470   42.1660 N   0  0  0  0  0  0  0  0  0  0  0  0
   49.4470   29.7490   41.0420 N   0  0  0  0  0  0  0  0  0  0  0  0
   49.2550   31.0780   41.1050 C   0  0  0  0  0  0  0  0  0  0  0  0
   49.4410   31.5110   39.9430 O   0  0  0  0  0  0  0  0  0  0  0  0
   46.5110   33.5980   42.1430 C   0  0  0  0  0  0  0  0  0  0  0  0
   45.9140   34.0450   43.4430 C   0  0  0  0  0  0  0  0  0  0  0  0
   46.2050   33.2530   44.5930 C   0  0  0  0  0  0  0  0  0  0  0  0
   45.6540   33.6500   45.7990 C   0  0  0  0  0  0  0  0  0  0  0  0
   44.8710   34.7680   45.8110 N   0  0  0  0  0  0  0  0  0  0  0  0
   44.6210   35.4850   44.7080 C   0  0  0  0  0  0  0  0  0  0  0  0
   45.1360   35.1350   43.5200 N   0  0  0  0  0  0  0  0  0  0  0  0
   45.9690   32.8490   46.9110 N   0  0  0  0  0  0  0  0  0  0  0  0
   45.3930   32.7970   48.1180 C   0  0  0  0  0  0  0  0  0  0  0  0
   46.0770   31.8410   48.8580 C   0  0  0  0  0  0  0  0  0  0  0  0
   47.0500   31.3490   48.0620 N   0  0  0  0  0  0  0  0  0  0  0  0
   47.0090   31.9470   46.8640 C   0  0  0  0  0  0  0  0  0  0  0  0
   47.3374   35.9488   42.4572 H   0  0  0  0  0  0  0  0  0  0  0  0
   47.7501   35.5718   40.6929 H   0  0  0  0  0  0  0  0  0  0  0  0
   49.8642   35.9974   40.9363 H   0  0  0  0  0  0  0  0  0  0  0  0
   49.2736   36.9643   42.3754 H   0  0  0  0  0  0  0  0  0  0  0  0
   50.8278   35.6279   43.5311 H   0  0  0  0  0  0  0  0  0  0  0  0
   51.0313   33.1238   42.8235 H   0  0  0  0  0  0  0  0  0  0  0  0
   48.5662   31.4460   44.1907 H   0  0  0  0  0  0  0  0  0  0  0  0
   48.8798   29.0551   44.2435 H   0  0  0  0  0  0  0  0  0  0  0  0
   49.7611   27.0376   41.3056 H   0  0  0  0  0  0  0  0  0  0  0  0
   49.3998   27.0353   43.0526 H   0  0  0  0  0  0  0  0  0  0  0  0
   45.8869   33.9728   41.3184 H   0  0  0  0  0  0  0  0  0  0  0  0
   46.5480   32.4986   42.1470 H   0  0  0  0  0  0  0  0  0  0  0  0
   46.8435   32.3600   44.5240 H   0  0  0  0  0  0  0  0  0  0  0  0
   43.9816   36.3774   44.7775 H   0  0  0  0  0  0  0  0  0  0  0  0
   44.5380   33.3987   48.4600 H   0  0  0  0  0  0  0  0  0  0  0  0
   45.8660   31.5418   49.8953 H   0  0  0  0  0  0  0  0  0  0  0  0
   47.6753   31.7553   46.0100 H   0  0  0  0  0  0  0  0  0  0  0  0
  1 15  1  0
  1  6  1  0
  2  3  1  0
  2  1  1  0
  3  4  1  0
  5  4  1  0
  6  5  2  0
  7  6  1  0
  7  8  1  0
  8  9  2  0
 10 11  1  0
 10  9  1  0
 12 13  1  0
 12 10  2  0
 13  7  1  0
 14 13  2  0
 15 16  1  0
 16 21  1  0
 16 17  2  0
 17 18  1  0
 18 19  2  0
 18 22  1  0
 20 19  1  0
 21 20  2  0
 22 23  1  0
 23 24  2  0
 25 24  1  0
 26 22  1  0
 26 25  2  0
  2 27  1  0
  2 28  1  0
  3 29  1  0
  3 30  1  0
  4 31  1  0
  5 32  1  0
  8 33  1  0
  9 34  1  0
 11 35  1  0
 11 36  1  0
 15 37  1  0
 15 38  1  0
 17 39  1  0
 20 40  1  0
 23 41  1  0
 24 42  1  0
 26 43  1  0
M  ISO  8  27  13  28  13  29  13  30  13  32  13  33  14  34  14  37   8
M  ISO  6  38   8  39  14  40  14  41  14  42  14  43  14
M  END
>  <minimizedAffinity>  (1) 
-6.22078705

>  <minimizedRMSD>  (1) 
0.850058854

$$$$
