
     RDKit          3D

 39 42  0  0  0  0  0  0  0  0999 V2000
   46.4580   33.6540   42.1390 C   0  0  0  0  0  0  0  0  0  0  0  0
   45.8780   34.0880   43.4500 C   0  0  0  0  0  0  0  0  0  0  0  0
   46.1820   33.2840   44.5890 C   0  0  0  0  0  0  0  0  0  0  0  0
   45.6360   33.6810   45.8040 C   0  0  0  0  0  0  0  0  0  0  0  0
   44.8550   34.7940   45.8310 N   0  0  0  0  0  0  0  0  0  0  0  0
   44.5970   35.5190   44.7370 C   0  0  0  0  0  0  0  0  0  0  0  0
   45.0980   35.1820   43.5370 N   0  0  0  0  0  0  0  0  0  0  0  0
   45.9670   32.8600   46.9040 N   0  0  0  0  0  0  0  0  0  0  0  0
   45.3950   32.8150   48.1220 C   0  0  0  0  0  0  0  0  0  0  0  0
   46.0800   31.8420   48.8490 C   0  0  0  0  0  0  0  0  0  0  0  0
   47.0370   31.3430   48.0370 N   0  0  0  0  0  0  0  0  0  0  0  0
   46.9840   31.9500   46.8480 C   0  0  0  0  0  0  0  0  0  0  0  0
   47.8040   34.1030   41.9740 N   0  0  0  0  0  0  0  0  0  0  0  0
   47.9830   35.4360   41.7490 C   0  0  0  0  0  0  0  0  0  0  0  0
   49.3830   35.9550   41.9110 C   0  0  0  0  0  0  0  0  0  0  0  0
   50.2000   35.1830   42.8270 N   0  0  0  0  0  0  0  0  0  0  0  0
   50.0980   33.7700   42.6770 C   0  0  0  0  0  0  0  0  0  0  0  0
   48.7800   33.1840   42.2340 C   0  0  0  0  0  0  0  0  0  0  0  0
   48.8680   31.7470   42.1800 C   0  0  0  0  0  0  0  0  0  0  0  0
   48.8180   30.7640   43.1070 C   0  0  0  0  0  0  0  0  0  0  0  0
   49.0060   29.4990   42.6320 C   0  0  0  0  0  0  0  0  0  0  0  0
   49.1800   29.7390   41.3250 N   0  0  0  0  0  0  0  0  0  0  0  0
   49.1010   31.0010   41.0720 N   0  0  0  0  0  0  0  0  0  0  0  0
   46.4417   32.5552   42.0899 H   0  0  0  0  0  0  0  0  0  0  0  0
   45.8512   34.0975   41.3358 H   0  0  0  0  0  0  0  0  0  0  0  0
   46.8192   32.3910   44.5091 H   0  0  0  0  0  0  0  0  0  0  0  0
   43.9599   36.4117   44.8219 H   0  0  0  0  0  0  0  0  0  0  0  0
   44.5516   33.4266   48.4749 H   0  0  0  0  0  0  0  0  0  0  0  0
   45.8790   31.5384   49.8870 H   0  0  0  0  0  0  0  0  0  0  0  0
   47.6374   31.7536   45.9851 H   0  0  0  0  0  0  0  0  0  0  0  0
   47.3387   35.9842   42.4520 H   0  0  0  0  0  0  0  0  0  0  0  0
   47.7330   35.5912   40.6891 H   0  0  0  0  0  0  0  0  0  0  0  0
   49.8699   35.9482   40.9247 H   0  0  0  0  0  0  0  0  0  0  0  0
   49.2985   36.9656   42.3371 H   0  0  0  0  0  0  0  0  0  0  0  0
   50.8080   35.6228   43.5326 H   0  0  0  0  0  0  0  0  0  0  0  0
   50.9618   33.1199   42.8798 H   0  0  0  0  0  0  0  0  0  0  0  0
   48.6379   30.9703   44.1724 H   0  0  0  0  0  0  0  0  0  0  0  0
   49.0129   28.5420   43.1744 H   0  0  0  0  0  0  0  0  0  0  0  0
   49.3538   29.0118   40.6165 H   0  0  0  0  0  0  0  0  0  0  0  0
  1  2  1  0
  2  7  1  0
  2  3  2  0
  3  4  1  0
  4  5  2  0
  4  8  1  0
  6  5  1  0
  7  6  2  0
  8  9  1  0
  9 10  2  0
 11 10  1  0
 12  8  1  0
 12 11  2  0
 13  1  1  0
 13 18  1  0
 14 15  1  0
 14 13  1  0
 15 16  1  0
 17 16  1  0
 18 17  2  0
 19 18  1  0
 19 20  1  0
 21 20  2  0
 22 21  1  0
 23 22  1  0
 23 19  2  0
  1 24  1  0
  1 25  1  0
  3 26  1  0
  6 27  1  0
  9 28  1  0
 10 29  1  0
 12 30  1  0
 14 31  1  0
 14 32  1  0
 15 33  1  0
 15 34  1  0
 16 35  1  0
 17 36  1  0
 20 37  1  0
 21 38  1  0
 22 39  1  0
M  ISO  8  24   8  25   8  26  14  27  14  28  14  29  14  30  14  31  13
M  ISO  7  32  13  33  13  34  13  36  13  37  14  38  14  39   9
M  END
>  <minimizedAffinity>  (1) 
-6.00580645

>  <minimizedRMSD>  (1) 
0.616646111

$$$$
