
     RDKit          3D

 47 50  0  0  0  0  0  0  0  0999 V2000
   46.5340   33.4970   42.1960 C   0  0  0  0  0  0  0  0  0  0  0  0
   45.9500   33.9270   43.4930 C   0  0  0  0  0  0  0  0  0  0  0  0
   46.2420   33.1460   44.6470 C   0  0  0  0  0  0  0  0  0  0  0  0
   45.6980   33.5490   45.8570 C   0  0  0  0  0  0  0  0  0  0  0  0
   44.9130   34.6710   45.8810 N   0  0  0  0  0  0  0  0  0  0  0  0
   44.6620   35.3810   44.7700 C   0  0  0  0  0  0  0  0  0  0  0  0
   45.1670   35.0280   43.5770 N   0  0  0  0  0  0  0  0  0  0  0  0
   46.0160   32.7480   46.9680 N   0  0  0  0  0  0  0  0  0  0  0  0
   45.4510   32.7060   48.1880 C   0  0  0  0  0  0  0  0  0  0  0  0
   46.1420   31.7400   48.9190 C   0  0  0  0  0  0  0  0  0  0  0  0
   47.1030   31.2330   48.1070 N   0  0  0  0  0  0  0  0  0  0  0  0
   47.0400   31.8350   46.9180 C   0  0  0  0  0  0  0  0  0  0  0  0
   47.8590   34.0320   42.0090 N   0  0  0  0  0  0  0  0  0  0  0  0
   47.9750   35.3770   41.8150 C   0  0  0  0  0  0  0  0  0  0  0  0
   49.3600   35.9470   41.9510 C   0  0  0  0  0  0  0  0  0  0  0  0
   50.2300   35.2000   42.8180 N   0  0  0  0  0  0  0  0  0  0  0  0
   50.1960   33.7700   42.6220 C   0  0  0  0  0  0  0  0  0  0  0  0
   48.8880   33.1520   42.2220 C   0  0  0  0  0  0  0  0  0  0  0  0
   48.8910   31.7390   42.1180 N   0  0  0  0  0  0  0  0  0  0  0  0
   48.8140   30.8020   43.2260 C   0  0  0  0  0  0  0  0  0  0  0  0
   48.4840   29.4350   42.7320 C   0  0  0  0  0  0  0  0  0  0  0  0
   49.5620   28.9140   41.8140 C   0  0  0  0  0  0  0  0  0  0  0  0
   50.1310   30.0670   40.9940 C   0  0  0  0  0  0  0  0  0  0  0  0
   48.9760   31.0670   40.8340 C   0  0  0  0  0  0  0  0  0  0  0  0
   46.5860   32.3984   42.1743 H   0  0  0  0  0  0  0  0  0  0  0  0
   45.8922   33.8753   41.3867 H   0  0  0  0  0  0  0  0  0  0  0  0
   46.8788   32.2515   44.5808 H   0  0  0  0  0  0  0  0  0  0  0  0
   44.0258   36.2757   44.8386 H   0  0  0  0  0  0  0  0  0  0  0  0
   44.6066   33.3161   48.5411 H   0  0  0  0  0  0  0  0  0  0  0  0
   45.9445   31.4444   49.9600 H   0  0  0  0  0  0  0  0  0  0  0  0
   47.6909   31.6358   46.0539 H   0  0  0  0  0  0  0  0  0  0  0  0
   47.3306   35.8798   42.5512 H   0  0  0  0  0  0  0  0  0  0  0  0
   47.6848   35.5512   40.7684 H   0  0  0  0  0  0  0  0  0  0  0  0
   49.8174   35.9803   40.9512 H   0  0  0  0  0  0  0  0  0  0  0  0
   49.2453   36.9423   42.4052 H   0  0  0  0  0  0  0  0  0  0  0  0
   50.8305   35.6497   43.5237 H   0  0  0  0  0  0  0  0  0  0  0  0
   51.0973   33.1549   42.7610 H   0  0  0  0  0  0  0  0  0  0  0  0
   49.7834   30.7750   43.7452 H   0  0  0  0  0  0  0  0  0  0  0  0
   48.0231   31.1314   43.9160 H   0  0  0  0  0  0  0  0  0  0  0  0
   48.3856   28.7563   43.5920 H   0  0  0  0  0  0  0  0  0  0  0  0
   47.5402   29.4854   42.1692 H   0  0  0  0  0  0  0  0  0  0  0  0
   50.3647   28.4582   42.4123 H   0  0  0  0  0  0  0  0  0  0  0  0
   49.1350   28.1585   41.1381 H   0  0  0  0  0  0  0  0  0  0  0  0
   50.9743   30.5352   41.5228 H   0  0  0  0  0  0  0  0  0  0  0  0
   50.5126   29.7256   40.0204 H   0  0  0  0  0  0  0  0  0  0  0  0
   49.1950   31.7878   40.0325 H   0  0  0  0  0  0  0  0  0  0  0  0
   48.0324   30.5730   40.5591 H   0  0  0  0  0  0  0  0  0  0  0  0
  1  2  1  0
  2  7  1  0
  2  3  2  0
  3  4  1  0
  4  5  2  0
  4  8  1  0
  6  5  1  0
  7  6  2  0
  8  9  1  0
  9 10  2  0
 11 10  1  0
 12  8  1  0
 12 11  2  0
 13  1  1  0
 13 18  1  0
 14 15  1  0
 14 13  1  0
 15 16  1  0
 17 16  1  0
 18 17  2  0
 19 18  1  0
 19 20  1  0
 21 20  1  0
 22 21  1  0
 23 22  1  0
 24 23  1  0
 24 19  1  0
  1 25  1  0
  1 26  1  0
  3 27  1  0
  6 28  1  0
  9 29  1  0
 10 30  1  0
 12 31  1  0
 14 32  1  0
 14 33  1  0
 15 34  1  0
 15 35  1  0
 16 36  1  0
 17 37  1  0
 20 38  1  0
 20 39  1  0
 21 40  1  0
 21 41  1  0
 22 42  1  0
 22 43  1  0
 23 44  1  0
 23 45  1  0
 24 46  1  0
 24 47  1  0
M  ISO  8  25   8  26   8  27  14  28  14  29  14  30  14  31  14  32  13
M  ISO  8  33  13  34  13  35  13  37  13  38  13  39  13  40  13  41  13
M  ISO  6  42  13  43  13  44  13  45  13  46  13  47  13
M  END
>  <minimizedAffinity>  (1) 
-6.01952314

>  <minimizedRMSD>  (1) 
0.760350287

$$$$
