
     RDKit          3D

 38 41  0  0  0  0  0  0  0  0999 V2000
   46.4490   33.6380   42.1440 C   0  0  0  0  0  0  0  0  0  0  0  0
   45.8730   34.0530   43.4470 C   0  0  0  0  0  0  0  0  0  0  0  0
   46.1700   33.2660   44.5960 C   0  0  0  0  0  0  0  0  0  0  0  0
   45.6350   33.6760   45.8100 C   0  0  0  0  0  0  0  0  0  0  0  0
   44.8600   34.7980   45.8430 N   0  0  0  0  0  0  0  0  0  0  0  0
   44.6020   35.5150   44.7400 C   0  0  0  0  0  0  0  0  0  0  0  0
   45.0960   35.1590   43.5430 N   0  0  0  0  0  0  0  0  0  0  0  0
   45.9710   32.8550   46.9110 N   0  0  0  0  0  0  0  0  0  0  0  0
   45.3950   32.8030   48.1290 C   0  0  0  0  0  0  0  0  0  0  0  0
   46.0830   31.8370   48.8530 C   0  0  0  0  0  0  0  0  0  0  0  0
   47.0490   31.3430   48.0410 N   0  0  0  0  0  0  0  0  0  0  0  0
   46.9930   31.9540   46.8550 C   0  0  0  0  0  0  0  0  0  0  0  0
   47.8010   34.0810   41.9850 N   0  0  0  0  0  0  0  0  0  0  0  0
   47.9880   35.4060   41.7190 C   0  0  0  0  0  0  0  0  0  0  0  0
   49.3760   35.9420   41.9010 C   0  0  0  0  0  0  0  0  0  0  0  0
   50.1920   35.1770   42.8330 N   0  0  0  0  0  0  0  0  0  0  0  0
   50.0960   33.7460   42.7070 C   0  0  0  0  0  0  0  0  0  0  0  0
   48.7830   33.1800   42.2850 C   0  0  0  0  0  0  0  0  0  0  0  0
   48.7830   31.7710   42.2660 N   0  0  0  0  0  0  0  0  0  0  0  0
   48.9380   31.0200   41.1660 C   0  0  0  0  0  0  0  0  0  0  0  0
   48.8870   29.7120   41.4520 N   0  0  0  0  0  0  0  0  0  0  0  0
   48.6930   29.6150   42.7780 C   0  0  0  0  0  0  0  0  0  0  0  0
   48.6400   30.8630   43.1970 N   0  0  0  0  0  0  0  0  0  0  0  0
   46.4261   32.5401   42.0801 H   0  0  0  0  0  0  0  0  0  0  0  0
   45.8468   34.0980   41.3466 H   0  0  0  0  0  0  0  0  0  0  0  0
   46.7997   32.3669   44.5245 H   0  0  0  0  0  0  0  0  0  0  0  0
   43.9725   36.4138   44.8170 H   0  0  0  0  0  0  0  0  0  0  0  0
   44.5460   33.4074   48.4809 H   0  0  0  0  0  0  0  0  0  0  0  0
   45.8815   31.5308   49.8901 H   0  0  0  0  0  0  0  0  0  0  0  0
   47.6495   31.7655   45.9928 H   0  0  0  0  0  0  0  0  0  0  0  0
   47.3213   35.9761   42.3827 H   0  0  0  0  0  0  0  0  0  0  0  0
   47.7747   35.5173   40.6456 H   0  0  0  0  0  0  0  0  0  0  0  0
   49.8775   35.9414   40.9220 H   0  0  0  0  0  0  0  0  0  0  0  0
   49.2727   36.9516   42.3252 H   0  0  0  0  0  0  0  0  0  0  0  0
   50.7964   35.6285   43.5343 H   0  0  0  0  0  0  0  0  0  0  0  0
   50.9584   33.0953   42.9142 H   0  0  0  0  0  0  0  0  0  0  0  0
   49.0882   31.4269   40.1551 H   0  0  0  0  0  0  0  0  0  0  0  0
   48.5994   28.6986   43.3792 H   0  0  0  0  0  0  0  0  0  0  0  0
  1  2  1  0
  2  7  1  0
  2  3  2  0
  3  4  1  0
  4  5  2  0
  4  8  1  0
  6  5  1  0
  7  6  2  0
  8  9  1  0
  9 10  2  0
 11 10  1  0
 12  8  1  0
 12 11  2  0
 13  1  1  0
 13 18  1  0
 14 15  1  0
 14 13  1  0
 15 16  1  0
 17 16  1  0
 18 17  2  0
 19 18  1  0
 19 23  1  0
 20 21  2  0
 20 19  1  0
 21 22  1  0
 22 23  2  0
  1 24  1  0
  1 25  1  0
  3 26  1  0
  6 27  1  0
  9 28  1  0
 10 29  1  0
 12 30  1  0
 14 31  1  0
 14 32  1  0
 15 33  1  0
 15 34  1  0
 16 35  1  0
 17 36  1  0
 20 37  1  0
 22 38  1  0
M  ISO  8  24   8  25   8  26  14  27  14  28  14  29  14  30  14  31  13
M  ISO  6  32  13  33  13  34  13  36  13  37  14  38  14
M  END
>  <minimizedAffinity>  (1) 
-5.96203756

>  <minimizedRMSD>  (1) 
0.436145931

$$$$
