
     RDKit          3D

 39 42  0  0  0  0  0  0  0  0999 V2000
   46.4150   33.7280   42.0950 C   0  0  0  0  0  0  0  0  0  0  0  0
   45.8470   34.1450   43.4160 C   0  0  0  0  0  0  0  0  0  0  0  0
   46.1570   33.3310   44.5460 C   0  0  0  0  0  0  0  0  0  0  0  0
   45.6300   33.7010   45.7630 C   0  0  0  0  0  0  0  0  0  0  0  0
   44.8400   34.8260   45.8170 N   0  0  0  0  0  0  0  0  0  0  0  0
   44.5740   35.5620   44.7280 C   0  0  0  0  0  0  0  0  0  0  0  0
   45.0700   35.2360   43.5200 N   0  0  0  0  0  0  0  0  0  0  0  0
   45.9660   32.8780   46.8510 N   0  0  0  0  0  0  0  0  0  0  0  0
   45.3970   32.8220   48.0740 C   0  0  0  0  0  0  0  0  0  0  0  0
   46.1110   31.8440   48.7850 C   0  0  0  0  0  0  0  0  0  0  0  0
   47.0640   31.3650   47.9620 N   0  0  0  0  0  0  0  0  0  0  0  0
   46.9920   31.9800   46.7820 C   0  0  0  0  0  0  0  0  0  0  0  0
   47.7810   34.1210   41.9490 N   0  0  0  0  0  0  0  0  0  0  0  0
   48.0180   35.4490   41.7420 C   0  0  0  0  0  0  0  0  0  0  0  0
   49.4260   35.9220   41.9410 C   0  0  0  0  0  0  0  0  0  0  0  0
   50.2100   35.0920   42.8460 N   0  0  0  0  0  0  0  0  0  0  0  0
   50.0570   33.6870   42.6670 C   0  0  0  0  0  0  0  0  0  0  0  0
   48.7230   33.1710   42.2060 C   0  0  0  0  0  0  0  0  0  0  0  0
   48.7460   31.7670   42.1330 N   0  0  0  0  0  0  0  0  0  0  0  0
   48.6890   30.8700   41.1450 C   0  0  0  0  0  0  0  0  0  0  0  0
   48.6690   29.5520   41.5300 C   0  0  0  0  0  0  0  0  0  0  0  0
   48.7200   29.6190   42.8510 N   0  0  0  0  0  0  0  0  0  0  0  0
   48.7640   30.9110   43.1900 C   0  0  0  0  0  0  0  0  0  0  0  0
   46.3500   32.6332   42.0107 H   0  0  0  0  0  0  0  0  0  0  0  0
   45.8334   34.2245   41.3043 H   0  0  0  0  0  0  0  0  0  0  0  0
   46.7942   32.4397   44.4484 H   0  0  0  0  0  0  0  0  0  0  0  0
   43.9357   36.4527   44.8242 H   0  0  0  0  0  0  0  0  0  0  0  0
   44.5485   33.4196   48.4386 H   0  0  0  0  0  0  0  0  0  0  0  0
   45.9263   31.5275   49.8222 H   0  0  0  0  0  0  0  0  0  0  0  0
   47.6402   31.7976   45.9122 H   0  0  0  0  0  0  0  0  0  0  0  0
   47.3761   36.0137   42.4341 H   0  0  0  0  0  0  0  0  0  0  0  0
   47.8053   35.6171   40.6759 H   0  0  0  0  0  0  0  0  0  0  0  0
   49.9277   35.9349   40.9621 H   0  0  0  0  0  0  0  0  0  0  0  0
   49.3636   36.9199   42.3996 H   0  0  0  0  0  0  0  0  0  0  0  0
   50.8306   35.4924   43.5639 H   0  0  0  0  0  0  0  0  0  0  0  0
   50.8927   32.9985   42.8610 H   0  0  0  0  0  0  0  0  0  0  0  0
   48.6598   31.1690   40.0868 H   0  0  0  0  0  0  0  0  0  0  0  0
   48.6219   28.6560   40.8936 H   0  0  0  0  0  0  0  0  0  0  0  0
   48.8108   31.2529   44.2345 H   0  0  0  0  0  0  0  0  0  0  0  0
  1  2  1  0
  2  7  1  0
  2  3  2  0
  3  4  1  0
  4  5  2  0
  4  8  1  0
  6  5  1  0
  7  6  2  0
  8  9  1  0
  9 10  2  0
 11 10  1  0
 12  8  1  0
 12 11  2  0
 13  1  1  0
 13 18  1  0
 14 15  1  0
 14 13  1  0
 15 16  1  0
 17 16  1  0
 18 17  2  0
 19 18  1  0
 19 23  1  0
 20 21  2  0
 20 19  1  0
 21 22  1  0
 22 23  2  0
  1 24  1  0
  1 25  1  0
  3 26  1  0
  6 27  1  0
  9 28  1  0
 10 29  1  0
 12 30  1  0
 14 31  1  0
 14 32  1  0
 15 33  1  0
 15 34  1  0
 16 35  1  0
 17 36  1  0
 20 37  1  0
 21 38  1  0
 23 39  1  0
M  ISO  8  24   8  25   8  26  14  27  14  28  14  29  14  30  14  31  13
M  ISO  7  32  13  33  13  34  13  36  13  37  14  38  14  39  14
M  END
>  <minimizedAffinity>  (1) 
-5.98500681

>  <minimizedRMSD>  (1) 
0.527526855

$$$$
