
     RDKit          3D

 41 43  0  0  0  0  0  0  0  0999 V2000
   46.3900   33.8120   41.9930 C   0  0  0  0  0  0  0  0  0  0  0  0
   45.8110   34.2350   43.2940 C   0  0  0  0  0  0  0  0  0  0  0  0
   46.0740   33.4390   44.4320 C   0  0  0  0  0  0  0  0  0  0  0  0
   45.5360   33.8310   45.6520 C   0  0  0  0  0  0  0  0  0  0  0  0
   44.7830   34.9640   45.6890 N   0  0  0  0  0  0  0  0  0  0  0  0
   44.5520   35.6990   44.5890 C   0  0  0  0  0  0  0  0  0  0  0  0
   45.0600   35.3480   43.3820 N   0  0  0  0  0  0  0  0  0  0  0  0
   45.8410   32.9910   46.7460 N   0  0  0  0  0  0  0  0  0  0  0  0
   45.2600   32.9380   47.9560 C   0  0  0  0  0  0  0  0  0  0  0  0
   45.9050   31.9380   48.6700 C   0  0  0  0  0  0  0  0  0  0  0  0
   46.8470   31.4320   47.8600 N   0  0  0  0  0  0  0  0  0  0  0  0
   46.8350   32.0530   46.6760 C   0  0  0  0  0  0  0  0  0  0  0  0
   47.7790   34.1750   41.8830 N   0  0  0  0  0  0  0  0  0  0  0  0
   48.0810   35.4990   41.7310 C   0  0  0  0  0  0  0  0  0  0  0  0
   49.5140   35.8810   41.9740 C   0  0  0  0  0  0  0  0  0  0  0  0
   50.2360   34.9820   42.8480 N   0  0  0  0  0  0  0  0  0  0  0  0
   50.0150   33.5900   42.6040 C   0  0  0  0  0  0  0  0  0  0  0  0
   48.6690   33.1650   42.1150 C   0  0  0  0  0  0  0  0  0  0  0  0
   48.5110   31.7310   41.9430 C   0  0  0  0  0  0  0  0  0  0  0  0
   49.5610   31.1290   41.0210 C   0  0  0  0  0  0  0  0  0  0  0  0
   48.6630   30.9730   43.2620 C   0  0  0  0  0  0  0  0  0  0  0  0
   46.2990   32.7196   41.9010 H   0  0  0  0  0  0  0  0  0  0  0  0
   45.8382   34.3234   41.1905 H   0  0  0  0  0  0  0  0  0  0  0  0
   46.6898   32.5309   44.3539 H   0  0  0  0  0  0  0  0  0  0  0  0
   43.9363   36.6070   44.6692 H   0  0  0  0  0  0  0  0  0  0  0  0
   44.4312   33.5671   48.3128 H   0  0  0  0  0  0  0  0  0  0  0  0
   45.6862   31.6216   49.7005 H   0  0  0  0  0  0  0  0  0  0  0  0
   47.4924   31.8505   45.8176 H   0  0  0  0  0  0  0  0  0  0  0  0
   47.8267   35.7858   40.6999 H   0  0  0  0  0  0  0  0  0  0  0  0
   47.4994   36.0258   42.5019 H   0  0  0  0  0  0  0  0  0  0  0  0
   50.0318   35.9062   41.0038 H   0  0  0  0  0  0  0  0  0  0  0  0
   49.4954   36.8586   42.4780 H   0  0  0  0  0  0  0  0  0  0  0  0
   50.8634   35.3198   43.5917 H   0  0  0  0  0  0  0  0  0  0  0  0
   50.8141   32.8529   42.7718 H   0  0  0  0  0  0  0  0  0  0  0  0
   47.5008   31.6236   41.5211 H   0  0  0  0  0  0  0  0  0  0  0  0
   50.3592   30.6713   41.6238 H   0  0  0  0  0  0  0  0  0  0  0  0
   49.0947   30.3610   40.3863 H   0  0  0  0  0  0  0  0  0  0  0  0
   49.9882   31.9194   40.3863 H   0  0  0  0  0  0  0  0  0  0  0  0
   48.5235   31.6685   44.1027 H   0  0  0  0  0  0  0  0  0  0  0  0
   47.9068   30.1760   43.3161 H   0  0  0  0  0  0  0  0  0  0  0  0
   49.6680   30.5292   43.3161 H   0  0  0  0  0  0  0  0  0  0  0  0
  1  2  1  0
  2  7  1  0
  2  3  2  0
  3  4  1  0
  4  5  2  0
  4  8  1  0
  6  5  1  0
  7  6  2  0
  8  9  1  0
  9 10  2  0
 11 10  1  0
 12  8  1  0
 12 11  2  0
 13  1  1  0
 13 18  1  0
 14 13  1  0
 14 15  1  0
 15 16  1  0
 17 16  1  0
 18 17  2  0
 19 18  1  0
 19 21  1  0
 20 19  1  0
  1 22  1  0
  1 23  1  0
  3 24  1  0
  6 25  1  0
  9 26  1  0
 10 27  1  0
 12 28  1  0
 14 29  1  0
 14 30  1  0
 15 31  1  0
 15 32  1  0
 16 33  1  0
 17 34  1  0
 19 35  1  0
 20 36  1  0
 20 37  1  0
 20 38  1  0
 21 39  1  0
 21 40  1  0
 21 41  1  0
M  ISO  8  22   8  23   8  24  14  25  14  26  14  27  14  28  14  29  13
M  ISO  8  30  13  31  13  32  13  34  13  35   8  36   8  37   8  38   8
M  ISO  3  39   8  40   8  41   8
M  END
>  <minimizedAffinity>  (1) 
-5.90124369

>  <minimizedRMSD>  (1) 
0.406126589

$$$$
