
     RDKit          3D

 33 35  0  0  0  0  0  0  0  0999 V2000
   46.4130   33.7930   41.9860 C   0  0  0  0  0  0  0  0  0  0  0  0
   45.8330   34.2100   43.2890 C   0  0  0  0  0  0  0  0  0  0  0  0
   46.1130   33.4060   44.4310 C   0  0  0  0  0  0  0  0  0  0  0  0
   45.5670   33.8080   45.6460 C   0  0  0  0  0  0  0  0  0  0  0  0
   44.7970   34.9420   45.6800 N   0  0  0  0  0  0  0  0  0  0  0  0
   44.5600   35.6660   44.5750 C   0  0  0  0  0  0  0  0  0  0  0  0
   45.0620   35.3250   43.3780 N   0  0  0  0  0  0  0  0  0  0  0  0
   45.8780   32.9790   46.7450 N   0  0  0  0  0  0  0  0  0  0  0  0
   45.2810   32.9450   47.9610 C   0  0  0  0  0  0  0  0  0  0  0  0
   45.9650   31.9460   48.6820 C   0  0  0  0  0  0  0  0  0  0  0  0
   46.9090   31.4460   47.8800 N   0  0  0  0  0  0  0  0  0  0  0  0
   46.8780   32.0570   46.6910 C   0  0  0  0  0  0  0  0  0  0  0  0
   47.7990   34.1640   41.8770 N   0  0  0  0  0  0  0  0  0  0  0  0
   48.0830   35.4910   41.7450 C   0  0  0  0  0  0  0  0  0  0  0  0
   49.5170   35.8870   41.9710 C   0  0  0  0  0  0  0  0  0  0  0  0
   50.2490   35.0060   42.8440 N   0  0  0  0  0  0  0  0  0  0  0  0
   50.0580   33.6000   42.5830 C   0  0  0  0  0  0  0  0  0  0  0  0
   48.7100   33.1640   42.0980 C   0  0  0  0  0  0  0  0  0  0  0  0
   48.4580   31.4400   41.8740 S   0  0  0  0  0  0  0  0  0  0  0  0
   46.3280   32.7004   41.8913 H   0  0  0  0  0  0  0  0  0  0  0  0
   45.8577   34.3026   41.1848 H   0  0  0  0  0  0  0  0  0  0  0  0
   46.7364   32.5028   44.3553 H   0  0  0  0  0  0  0  0  0  0  0  0
   43.9345   36.5675   44.6529 H   0  0  0  0  0  0  0  0  0  0  0  0
   44.4420   33.5646   48.3105 H   0  0  0  0  0  0  0  0  0  0  0  0
   45.7591   31.6346   49.7167 H   0  0  0  0  0  0  0  0  0  0  0  0
   47.5353   31.8534   45.8328 H   0  0  0  0  0  0  0  0  0  0  0  0
   47.8078   35.7936   40.7239 H   0  0  0  0  0  0  0  0  0  0  0  0
   47.5090   35.9960   42.5359 H   0  0  0  0  0  0  0  0  0  0  0  0
   50.0261   35.9057   40.9961 H   0  0  0  0  0  0  0  0  0  0  0  0
   49.4963   36.8701   42.4641 H   0  0  0  0  0  0  0  0  0  0  0  0
   50.8613   35.3527   43.5962 H   0  0  0  0  0  0  0  0  0  0  0  0
   50.8718   32.8756   42.7345 H   0  0  0  0  0  0  0  0  0  0  0  0
   48.3687   30.8289   43.0969 H   0  0  0  0  0  0  0  0  0  0  0  0
  1  2  1  0
  2  7  1  0
  2  3  2  0
  3  4  1  0
  4  5  2  0
  4  8  1  0
  6  5  1  0
  7  6  2  0
  8  9  1  0
  9 10  2  0
 11 10  1  0
 12  8  1  0
 12 11  2  0
 13  1  1  0
 13 18  1  0
 14 13  1  0
 14 15  1  0
 15 16  1  0
 17 16  1  0
 18 17  2  0
 19 18  1  0
  1 20  1  0
  1 21  1  0
  3 22  1  0
  6 23  1  0
  9 24  1  0
 10 25  1  0
 12 26  1  0
 14 27  1  0
 14 28  1  0
 15 29  1  0
 15 30  1  0
 16 31  1  0
 17 32  1  0
 19 33  1  0
M  ISO  8  20   8  21   8  22  14  23  14  24  14  25  14  26  14  27  13
M  ISO  5  28  13  29  13  30  13  32  13  33  11
M  END
>  <minimizedAffinity>  (1) 
-5.88694429

>  <minimizedRMSD>  (1) 
0.00768513791

$$$$
