
     RDKit          3D

 52 56  0  0  0  0  0  0  0  0999 V2000
   47.9090   34.0580   42.0740 N   0  0  0  0  0  0  0  0  0  0  0  0
   47.9620   35.3870   41.8370 C   0  0  0  0  0  0  0  0  0  0  0  0
   49.3180   36.0210   42.0120 C   0  0  0  0  0  0  0  0  0  0  0  0
   50.2350   35.2450   42.8190 N   0  0  0  0  0  0  0  0  0  0  0  0
   50.2190   33.8410   42.6040 C   0  0  0  0  0  0  0  0  0  0  0  0
   48.9640   33.1760   42.2510 C   0  0  0  0  0  0  0  0  0  0  0  0
   49.0300   31.7860   42.1280 N   0  0  0  0  0  0  0  0  0  0  0  0
   48.7580   30.8770   43.0930 N   0  0  0  0  0  0  0  0  0  0  0  0
   49.0170   29.6500   42.6490 C   0  0  0  0  0  0  0  0  0  0  0  0
   49.4720   29.7740   41.3370 C   0  0  0  0  0  0  0  0  0  0  0  0
   49.4500   31.1310   41.0560 C   0  0  0  0  0  0  0  0  0  0  0  0
   49.5990   31.2160   39.6300 N   0  0  0  0  0  0  0  0  0  0  0  0
   49.1960   32.2110   38.6150 C   0  0  0  0  0  0  0  0  0  0  0  0
   48.2030   31.5820   37.6020 C   0  0  0  0  0  0  0  0  0  0  0  0
   48.6810   30.3590   37.1610 O   0  0  0  0  0  0  0  0  0  0  0  0
   50.0530   30.2590   37.4230 C   0  0  0  0  0  0  0  0  0  0  0  0
   50.2200   30.1280   38.8740 C   0  0  0  0  0  0  0  0  0  0  0  0
   46.5850   33.5050   42.2130 C   0  0  0  0  0  0  0  0  0  0  0  0
   45.9850   33.9200   43.5160 C   0  0  0  0  0  0  0  0  0  0  0  0
   46.2720   33.1520   44.6620 C   0  0  0  0  0  0  0  0  0  0  0  0
   45.7090   33.5560   45.8680 C   0  0  0  0  0  0  0  0  0  0  0  0
   44.9140   34.6620   45.8830 N   0  0  0  0  0  0  0  0  0  0  0  0
   44.6640   35.3660   44.7760 C   0  0  0  0  0  0  0  0  0  0  0  0
   45.1890   35.0080   43.5910 N   0  0  0  0  0  0  0  0  0  0  0  0
   46.0290   32.7630   46.9880 N   0  0  0  0  0  0  0  0  0  0  0  0
   45.4030   32.6760   48.1720 C   0  0  0  0  0  0  0  0  0  0  0  0
   46.1100   31.7200   48.9230 C   0  0  0  0  0  0  0  0  0  0  0  0
   47.1280   31.2800   48.1490 N   0  0  0  0  0  0  0  0  0  0  0  0
   47.0870   31.9090   46.9740 C   0  0  0  0  0  0  0  0  0  0  0  0
   47.2638   35.8830   42.5273 H   0  0  0  0  0  0  0  0  0  0  0  0
   47.7014   35.5164   40.7762 H   0  0  0  0  0  0  0  0  0  0  0  0
   49.7657   36.1586   41.0167 H   0  0  0  0  0  0  0  0  0  0  0  0
   49.1570   36.9716   42.5415 H   0  0  0  0  0  0  0  0  0  0  0  0
   50.8618   35.6845   43.5081 H   0  0  0  0  0  0  0  0  0  0  0  0
   51.1455   33.2563   42.7024 H   0  0  0  0  0  0  0  0  0  0  0  0
   48.8950   28.7128   43.2118 H   0  0  0  0  0  0  0  0  0  0  0  0
   49.7841   28.9621   40.6636 H   0  0  0  0  0  0  0  0  0  0  0  0
   48.7119   33.0628   39.1152 H   0  0  0  0  0  0  0  0  0  0  0  0
   50.0914   32.5488   38.0726 H   0  0  0  0  0  0  0  0  0  0  0  0
   47.2284   31.4365   38.0909 H   0  0  0  0  0  0  0  0  0  0  0  0
   48.0934   32.2568   36.7402 H   0  0  0  0  0  0  0  0  0  0  0  0
   50.4679   29.3751   36.9166 H   0  0  0  0  0  0  0  0  0  0  0  0
   50.5825   31.1491   37.0525 H   0  0  0  0  0  0  0  0  0  0  0  0
   49.7662   29.1781   39.1931 H   0  0  0  0  0  0  0  0  0  0  0  0
   51.2997   30.1628   39.0815 H   0  0  0  0  0  0  0  0  0  0  0  0
   45.9518   33.8677   41.3899 H   0  0  0  0  0  0  0  0  0  0  0  0
   46.6503   32.4074   42.1822 H   0  0  0  0  0  0  0  0  0  0  0  0
   46.9187   32.2640   44.6049 H   0  0  0  0  0  0  0  0  0  0  0  0
   44.0175   36.2540   44.8346 H   0  0  0  0  0  0  0  0  0  0  0  0
   44.5142   33.2400   48.4913 H   0  0  0  0  0  0  0  0  0  0  0  0
   45.8786   31.3919   49.9471 H   0  0  0  0  0  0  0  0  0  0  0  0
   47.7874   31.7625   46.1385 H   0  0  0  0  0  0  0  0  0  0  0  0
  1 18  1  0
  1  6  1  0
  2  3  1  0
  2  1  1  0
  3  4  1  0
  5  4  1  0
  6  5  2  0
  7  6  1  0
  7  8  1  0
  9  8  2  0
 10  9  1  0
 11 10  2  0
 11  7  1  0
 12 11  1  0
 13 12  1  0
 14 13  1  0
 15 16  1  0
 15 14  1  0
 16 17  1  0
 17 12  1  0
 18 19  1  0
 19 24  1  0
 19 20  2  0
 20 21  1  0
 21 22  2  0
 21 25  1  0
 23 22  1  0
 24 23  2  0
 25 26  1  0
 26 27  2  0
 28 27  1  0
 29 25  1  0
 29 28  2  0
  2 30  1  0
  2 31  1  0
  3 32  1  0
  3 33  1  0
  4 34  1  0
  5 35  1  0
  9 36  1  0
 10 37  1  0
 13 38  1  0
 13 39  1  0
 14 40  1  0
 14 41  1  0
 16 42  1  0
 16 43  1  0
 17 44  1  0
 17 45  1  0
 18 46  1  0
 18 47  1  0
 20 48  1  0
 23 49  1  0
 26 50  1  0
 27 51  1  0
 29 52  1  0
M  ISO  8  30  13  31  13  32  13  33  13  35  13  36  14  37  14  38  13
M  ISO  8  39  13  40  13  41  13  42  13  43  13  44  13  45  13  46   8
M  ISO  6  47   8  48  14  49  14  50  14  51  14  52  14
M  END
>  <minimizedAffinity>  (1) 
-6.25693703

>  <minimizedRMSD>  (1) 
3.71857309

$$$$
