
     RDKit          3D

 49 53  0  0  0  0  0  0  0  0999 V2000
   48.0120   34.0410   41.4150 N   0  0  0  0  0  0  0  0  0  0  0  0
   48.2480   35.2920   40.9630 C   0  0  0  0  0  0  0  0  0  0  0  0
   49.4520   35.9820   41.5550 C   0  0  0  0  0  0  0  0  0  0  0  0
   49.8580   35.4470   42.8340 N   0  0  0  0  0  0  0  0  0  0  0  0
   49.8780   34.0250   42.9030 C   0  0  0  0  0  0  0  0  0  0  0  0
   48.8190   33.2640   42.1840 C   0  0  0  0  0  0  0  0  0  0  0  0
   48.8620   31.8880   42.4300 N   0  0  0  0  0  0  0  0  0  0  0  0
   48.3310   31.2670   43.5080 N   0  0  0  0  0  0  0  0  0  0  0  0
   48.6380   29.9780   43.4580 C   0  0  0  0  0  0  0  0  0  0  0  0
   49.3910   29.7290   42.3120 C   0  0  0  0  0  0  0  0  0  0  0  0
   49.4970   30.9690   41.6870 C   0  0  0  0  0  0  0  0  0  0  0  0
   49.8330   31.1350   40.3210 N   0  0  0  0  0  0  0  0  0  0  0  0
   49.1830   30.8490   39.2150 C   0  0  0  0  0  0  0  0  0  0  0  0
   49.6120   30.9160   37.9190 C   0  0  0  0  0  0  0  0  0  0  0  0
   50.9030   31.3390   37.6730 C   0  0  0  0  0  0  0  0  0  0  0  0
   51.3250   31.4110   36.5090 O   0  0  0  0  0  0  0  0  0  0  0  0
   51.6360   31.6550   38.7750 N   0  0  0  0  0  0  0  0  0  0  0  0
   51.1100   31.5500   39.9980 C   0  0  0  0  0  0  0  0  0  0  0  0
   51.9940   31.9010   40.8360 O   0  0  0  0  0  0  0  0  0  0  0  0
   46.7210   33.4850   41.0840 C   0  0  0  0  0  0  0  0  0  0  0  0
   45.6340   34.2330   41.7630 C   0  0  0  0  0  0  0  0  0  0  0  0
   44.4310   34.4590   41.0580 C   0  0  0  0  0  0  0  0  0  0  0  0
   43.4140   35.1270   41.6900 C   0  0  0  0  0  0  0  0  0  0  0  0
   43.6120   35.5520   42.9870 N   0  0  0  0  0  0  0  0  0  0  0  0
   44.7620   35.3280   43.6350 C   0  0  0  0  0  0  0  0  0  0  0  0
   45.7750   34.6730   43.0370 N   0  0  0  0  0  0  0  0  0  0  0  0
   42.2320   35.3010   40.9710 N   0  0  0  0  0  0  0  0  0  0  0  0
   41.1000   35.9960   41.2560 C   0  0  0  0  0  0  0  0  0  0  0  0
   40.1890   35.7790   40.2340 C   0  0  0  0  0  0  0  0  0  0  0  0
   40.8000   34.9640   39.3670 N   0  0  0  0  0  0  0  0  0  0  0  0
   42.0310   34.6660   39.7860 C   0  0  0  0  0  0  0  0  0  0  0  0
   48.3908   35.2371   39.8737 H   0  0  0  0  0  0  0  0  0  0  0  0
   47.3774   35.8915   41.2673 H   0  0  0  0  0  0  0  0  0  0  0  0
   50.2921   35.8778   40.8526 H   0  0  0  0  0  0  0  0  0  0  0  0
   49.1710   37.0325   41.7208 H   0  0  0  0  0  0  0  0  0  0  0  0
   50.1126   36.0463   43.6321 H   0  0  0  0  0  0  0  0  0  0  0  0
   50.6580   33.5005   43.4744 H   0  0  0  0  0  0  0  0  0  0  0  0
   48.3446   29.2242   44.2034 H   0  0  0  0  0  0  0  0  0  0  0  0
   49.8082   28.7681   41.9763 H   0  0  0  0  0  0  0  0  0  0  0  0
   48.1465   30.5071   39.3518 H   0  0  0  0  0  0  0  0  0  0  0  0
   48.9436   30.6391   37.0904 H   0  0  0  0  0  0  0  0  0  0  0  0
   52.6075   31.9788   38.6646 H   0  0  0  0  0  0  0  0  0  0  0  0
   46.5724   33.5420   39.9956 H   0  0  0  0  0  0  0  0  0  0  0  0
   46.6917   32.4382   41.4208 H   0  0  0  0  0  0  0  0  0  0  0  0
   44.3125   34.1062   40.0229 H   0  0  0  0  0  0  0  0  0  0  0  0
   44.8807   35.6836   44.6691 H   0  0  0  0  0  0  0  0  0  0  0  0
   40.9348   36.6229   42.1446 H   0  0  0  0  0  0  0  0  0  0  0  0
   39.1727   36.1920   40.1527 H   0  0  0  0  0  0  0  0  0  0  0  0
   42.7544   34.0213   39.2654 H   0  0  0  0  0  0  0  0  0  0  0  0
  1  6  1  0
  2  1  1  0
  2  3  1  0
  3  4  1  0
  4  5  1  0
  6  7  1  0
  6  5  2  0
  7  8  1  0
  9  8  2  0
 10  9  1  0
 11 10  2  0
 11  7  1  0
 12 11  1  0
 13 12  1  0
 14 13  2  0
 15 14  1  0
 15 17  1  0
 16 15  2  0
 17 18  1  0
 18 12  1  0
 18 19  2  0
 20  1  1  0
 20 21  1  0
 21 26  2  0
 22 23  2  0
 22 21  1  0
 23 24  1  0
 24 25  2  0
 26 25  1  0
 27 28  1  0
 27 23  1  0
 29 28  2  0
 30 31  2  0
 30 29  1  0
 31 27  1  0
  2 32  1  0
  2 33  1  0
  3 34  1  0
  3 35  1  0
  4 36  1  0
  5 37  1  0
  9 38  1  0
 10 39  1  0
 13 40  1  0
 14 41  1  0
 17 42  1  0
 20 43  1  0
 20 44  1  0
 22 45  1  0
 25 46  1  0
 28 47  1  0
 29 48  1  0
 31 49  1  0
M  ISO  8  32  13  33  13  34  13  35  13  37  13  38  14  39  14  40  14
M  ISO  8  41  14  42   9  43   8  44   8  45  14  46  14  47  14  48  14
M  ISO  1  49  14
M  END
>  <minimizedAffinity>  (1) 
-6.2110548

>  <minimizedRMSD>  (1) 
5.78854418

$$$$
