
     RDKit          3D

 51 55  0  0  0  0  0  0  0  0999 V2000
   47.9300   34.1620   41.8300 N   0  0  0  0  0  0  0  0  0  0  0  0
   48.2390   35.4710   41.9490 C   0  0  0  0  0  0  0  0  0  0  0  0
   49.6810   35.7660   42.2830 C   0  0  0  0  0  0  0  0  0  0  0  0
   50.3930   34.6500   42.8670 N   0  0  0  0  0  0  0  0  0  0  0  0
   50.1270   33.3730   42.3090 C   0  0  0  0  0  0  0  0  0  0  0  0
   48.7880   33.0810   41.7840 C   0  0  0  0  0  0  0  0  0  0  0  0
   48.6140   31.7780   41.3070 N   0  0  0  0  0  0  0  0  0  0  0  0
   48.2860   31.4200   40.0370 N   0  0  0  0  0  0  0  0  0  0  0  0
   48.0950   30.1120   39.9680 C   0  0  0  0  0  0  0  0  0  0  0  0
   48.3120   29.5950   41.2400 C   0  0  0  0  0  0  0  0  0  0  0  0
   48.6460   30.6730   42.0390 C   0  0  0  0  0  0  0  0  0  0  0  0
   49.1800   30.1740   43.2780 N   0  0  0  0  0  0  0  0  0  0  0  0
   50.5440   29.7190   43.4500 C   0  0  0  0  0  0  0  0  0  0  0  0
   50.6690   29.2290   44.8460 C   0  0  0  0  0  0  0  0  0  0  0  0
   49.2890   29.1700   45.4090 C   0  0  0  0  0  0  0  0  0  0  0  0
   48.4590   29.9720   44.5350 C   0  0  0  0  0  0  0  0  0  0  0  0
   46.5230   33.8610   41.8110 C   0  0  0  0  0  0  0  0  0  0  0  0
   45.8800   34.3040   43.0840 C   0  0  0  0  0  0  0  0  0  0  0  0
   46.1160   33.5530   44.2520 C   0  0  0  0  0  0  0  0  0  0  0  0
   45.5170   33.9810   45.4290 C   0  0  0  0  0  0  0  0  0  0  0  0
   44.7340   35.1000   45.3980 N   0  0  0  0  0  0  0  0  0  0  0  0
   44.5320   35.7890   44.2730 C   0  0  0  0  0  0  0  0  0  0  0  0
   45.0960   35.4030   43.1180 N   0  0  0  0  0  0  0  0  0  0  0  0
   45.7860   33.2110   46.5760 N   0  0  0  0  0  0  0  0  0  0  0  0
   45.1670   33.1760   47.7660 C   0  0  0  0  0  0  0  0  0  0  0  0
   45.8320   32.2430   48.5520 C   0  0  0  0  0  0  0  0  0  0  0  0
   46.8430   31.7370   47.8040 N   0  0  0  0  0  0  0  0  0  0  0  0
   46.8110   32.3290   46.6050 C   0  0  0  0  0  0  0  0  0  0  0  0
   48.0038   35.9638   40.9941 H   0  0  0  0  0  0  0  0  0  0  0  0
   47.6475   35.8471   42.7968 H   0  0  0  0  0  0  0  0  0  0  0  0
   50.1972   36.0583   41.3567 H   0  0  0  0  0  0  0  0  0  0  0  0
   49.6742   36.5670   43.0369 H   0  0  0  0  0  0  0  0  0  0  0  0
   51.0563   34.7757   43.6449 H   0  0  0  0  0  0  0  0  0  0  0  0
   50.9172   32.6087   42.2702 H   0  0  0  0  0  0  0  0  0  0  0  0
   47.8163   29.5402   39.0706 H   0  0  0  0  0  0  0  0  0  0  0  0
   48.2339   28.5420   41.5484 H   0  0  0  0  0  0  0  0  0  0  0  0
   50.7618   28.9045   42.7435 H   0  0  0  0  0  0  0  0  0  0  0  0
   51.2558   30.5350   43.2567 H   0  0  0  0  0  0  0  0  0  0  0  0
   51.1250   28.2280   44.8563 H   0  0  0  0  0  0  0  0  0  0  0  0
   51.3094   29.8960   45.4418 H   0  0  0  0  0  0  0  0  0  0  0  0
   48.9294   28.1306   45.4277 H   0  0  0  0  0  0  0  0  0  0  0  0
   49.2623   29.5465   46.4422 H   0  0  0  0  0  0  0  0  0  0  0  0
   48.2527   30.9443   45.0063 H   0  0  0  0  0  0  0  0  0  0  0  0
   47.5025   29.4625   44.3466 H   0  0  0  0  0  0  0  0  0  0  0  0
   46.0517   34.3836   40.9656 H   0  0  0  0  0  0  0  0  0  0  0  0
   46.3914   32.7742   41.7035 H   0  0  0  0  0  0  0  0  0  0  0  0
   46.7538   32.6570   44.2322 H   0  0  0  0  0  0  0  0  0  0  0  0
   43.8947   36.6853   44.2927 H   0  0  0  0  0  0  0  0  0  0  0  0
   44.2942   33.7753   48.0642 H   0  0  0  0  0  0  0  0  0  0  0  0
   45.5844   31.9666   49.5875 H   0  0  0  0  0  0  0  0  0  0  0  0
   47.5063   32.1305   45.7761 H   0  0  0  0  0  0  0  0  0  0  0  0
  1  2  1  0
  2  3  1  0
  3  4  1  0
  5  4  1  0
  6  1  1  0
  6  5  2  0
  7  6  1  0
  7 11  1  0
  8  7  1  0
  9  8  2  0
  9 10  1  0
 10 11  2  0
 11 12  1  0
 12 13  1  0
 12 16  1  0
 13 14  1  0
 14 15  1  0
 16 15  1  0
 17  1  1  0
 17 18  1  0
 18 23  1  0
 18 19  2  0
 19 20  1  0
 20 24  1  0
 21 20  2  0
 22 21  1  0
 23 22  2  0
 24 28  1  0
 24 25  1  0
 25 26  2  0
 27 26  1  0
 28 27  2  0
  2 29  1  0
  2 30  1  0
  3 31  1  0
  3 32  1  0
  4 33  1  0
  5 34  1  0
  9 35  1  0
 10 36  1  0
 13 37  1  0
 13 38  1  0
 14 39  1  0
 14 40  1  0
 15 41  1  0
 15 42  1  0
 16 43  1  0
 16 44  1  0
 17 45  1  0
 17 46  1  0
 19 47  1  0
 22 48  1  0
 25 49  1  0
 26 50  1  0
 28 51  1  0
M  ISO  8  29  13  30  13  31  13  32  13  34  13  35  14  36  14  37  13
M  ISO  8  38  13  39  13  40  13  41  13  42  13  43  13  44  13  45   8
M  ISO  6  46   8  47  14  48  14  49  14  50  14  51  14
M  END
>  <minimizedAffinity>  (1) 
-5.94525909

>  <minimizedRMSD>  (1) 
1.11873662

$$$$
