
     RDKit          3D

 40 43  0  0  0  0  0  0  0  0999 V2000
   47.8220   34.1760   41.8880 N   0  0  0  0  0  0  0  0  0  0  0  0
   48.0820   35.4970   41.7760 C   0  0  0  0  0  0  0  0  0  0  0  0
   49.5220   35.8930   42.0300 C   0  0  0  0  0  0  0  0  0  0  0  0
   50.2720   34.9540   42.8330 N   0  0  0  0  0  0  0  0  0  0  0  0
   50.0640   33.5810   42.5020 C   0  0  0  0  0  0  0  0  0  0  0  0
   48.7240   33.1460   42.0070 C   0  0  0  0  0  0  0  0  0  0  0  0
   48.5920   31.7740   41.7620 N   0  0  0  0  0  0  0  0  0  0  0  0
   48.4800   31.1510   40.5980 N   0  0  0  0  0  0  0  0  0  0  0  0
   48.3520   29.8320   40.7920 C   0  0  0  0  0  0  0  0  0  0  0  0
   48.3850   29.5820   42.1640 C   0  0  0  0  0  0  0  0  0  0  0  0
   48.5410   30.8400   42.7190 C   0  0  0  0  0  0  0  0  0  0  0  0
   48.5870   30.5790   44.0590 O   0  0  0  0  0  0  0  0  0  0  0  0
   46.4250   33.8110   41.9520 C   0  0  0  0  0  0  0  0  0  0  0  0
   45.8400   34.2180   43.2660 C   0  0  0  0  0  0  0  0  0  0  0  0
   46.1080   33.4200   44.4030 C   0  0  0  0  0  0  0  0  0  0  0  0
   45.5650   33.8100   45.6180 C   0  0  0  0  0  0  0  0  0  0  0  0
   44.7950   34.9530   45.6480 N   0  0  0  0  0  0  0  0  0  0  0  0
   44.5620   35.6840   44.5530 C   0  0  0  0  0  0  0  0  0  0  0  0
   45.0770   35.3270   43.3640 N   0  0  0  0  0  0  0  0  0  0  0  0
   45.8580   33.0070   46.7190 N   0  0  0  0  0  0  0  0  0  0  0  0
   45.2820   32.9580   47.9260 C   0  0  0  0  0  0  0  0  0  0  0  0
   45.9570   31.9670   48.6610 C   0  0  0  0  0  0  0  0  0  0  0  0
   46.9160   31.4610   47.8570 N   0  0  0  0  0  0  0  0  0  0  0  0
   46.8650   32.0880   46.6750 C   0  0  0  0  0  0  0  0  0  0  0  0
   47.8173   35.8109   40.7555 H   0  0  0  0  0  0  0  0  0  0  0  0
   47.4860   35.9934   42.5559 H   0  0  0  0  0  0  0  0  0  0  0  0
   50.0269   35.9929   41.0578 H   0  0  0  0  0  0  0  0  0  0  0  0
   49.4907   36.8340   42.5988 H   0  0  0  0  0  0  0  0  0  0  0  0
   50.9078   35.2526   43.5863 H   0  0  0  0  0  0  0  0  0  0  0  0
   50.8809   32.8523   42.6103 H   0  0  0  0  0  0  0  0  0  0  0  0
   48.2398   29.0740   40.0028 H   0  0  0  0  0  0  0  0  0  0  0  0
   48.3058   28.6147   42.6817 H   0  0  0  0  0  0  0  0  0  0  0  0
   48.5009   29.6483   44.3853 H   0  0  0  0  0  0  0  0  0  0  0  0
   45.8807   34.3166   41.1407 H   0  0  0  0  0  0  0  0  0  0  0  0
   46.3359   32.7199   41.8442 H   0  0  0  0  0  0  0  0  0  0  0  0
   46.7295   32.5157   44.3255 H   0  0  0  0  0  0  0  0  0  0  0  0
   43.9410   36.5890   44.6262 H   0  0  0  0  0  0  0  0  0  0  0  0
   44.4413   33.5749   48.2763 H   0  0  0  0  0  0  0  0  0  0  0  0
   45.7437   31.6617   49.6960 H   0  0  0  0  0  0  0  0  0  0  0  0
   47.5231   31.8949   45.8150 H   0  0  0  0  0  0  0  0  0  0  0  0
  1 13  1  0
  1  6  1  0
  2  1  1  0
  2  3  1  0
  3  4  1  0
  5  4  1  0
  6  5  2  0
  7  6  1  0
  7 11  1  0
  8  9  2  0
  8  7  1  0
  9 10  1  0
 10 11  2  0
 11 12  1  0
 13 14  1  0
 14 19  1  0
 14 15  2  0
 15 16  1  0
 16 17  2  0
 16 20  1  0
 18 17  1  0
 19 18  2  0
 20 21  1  0
 21 22  2  0
 23 22  1  0
 24 20  1  0
 24 23  2  0
  2 25  1  0
  2 26  1  0
  3 27  1  0
  3 28  1  0
  4 29  1  0
  5 30  1  0
  9 31  1  0
 10 32  1  0
 12 33  1  0
 13 34  1  0
 13 35  1  0
 15 36  1  0
 18 37  1  0
 21 38  1  0
 22 39  1  0
 24 40  1  0
M  ISO  8  25  13  26  13  27  13  28  13  30  13  31  14  32  14  33   3
M  ISO  7  34   8  35   8  36  14  37  14  38  14  39  14  40  14
M  END
>  <minimizedAffinity>  (1) 
-6.00211668

>  <minimizedRMSD>  (1) 
0.368074179

$$$$
