
     RDKit          3D

 42 45  0  0  0  0  0  0  0  0999 V2000
   47.8650   34.1420   41.8810 N   0  0  0  0  0  0  0  0  0  0  0  0
   48.1580   35.4570   41.9840 C   0  0  0  0  0  0  0  0  0  0  0  0
   49.6090   35.7770   42.2640 C   0  0  0  0  0  0  0  0  0  0  0  0
   50.3570   34.6850   42.8500 N   0  0  0  0  0  0  0  0  0  0  0  0
   50.0980   33.4090   42.2880 C   0  0  0  0  0  0  0  0  0  0  0  0
   48.7490   33.0920   41.7860 C   0  0  0  0  0  0  0  0  0  0  0  0
   48.5780   31.7920   41.3160 N   0  0  0  0  0  0  0  0  0  0  0  0
   48.3210   31.3700   40.0680 N   0  0  0  0  0  0  0  0  0  0  0  0
   48.1880   30.0490   40.0400 C   0  0  0  0  0  0  0  0  0  0  0  0
   48.3680   29.5640   41.3330 C   0  0  0  0  0  0  0  0  0  0  0  0
   48.6200   30.7000   42.1020 C   0  0  0  0  0  0  0  0  0  0  0  0
   49.1060   30.3370   43.4210 C   0  0  0  0  0  0  0  0  0  0  0  0
   48.4400   30.1780   44.4880 O   0  0  0  0  0  0  0  0  0  0  0  0
   50.4980   30.1200   43.5690 O   0  0  0  0  0  0  0  0  0  0  0  0
   46.4690   33.8000   41.9290 C   0  0  0  0  0  0  0  0  0  0  0  0
   45.8690   34.2190   43.2270 C   0  0  0  0  0  0  0  0  0  0  0  0
   46.1250   33.4340   44.3730 C   0  0  0  0  0  0  0  0  0  0  0  0
   45.5670   33.8380   45.5780 C   0  0  0  0  0  0  0  0  0  0  0  0
   44.7950   34.9760   45.5930 N   0  0  0  0  0  0  0  0  0  0  0  0
   44.5740   35.6950   44.4830 C   0  0  0  0  0  0  0  0  0  0  0  0
   45.1000   35.3290   43.3070 N   0  0  0  0  0  0  0  0  0  0  0  0
   45.8510   33.0460   46.6910 N   0  0  0  0  0  0  0  0  0  0  0  0
   45.2770   32.9970   47.9040 C   0  0  0  0  0  0  0  0  0  0  0  0
   45.9450   32.0290   48.6510 C   0  0  0  0  0  0  0  0  0  0  0  0
   46.9090   31.5190   47.8600 N   0  0  0  0  0  0  0  0  0  0  0  0
   46.8580   32.1320   46.6680 C   0  0  0  0  0  0  0  0  0  0  0  0
   47.8800   35.9421   41.0367 H   0  0  0  0  0  0  0  0  0  0  0  0
   47.5926   35.8269   42.8520 H   0  0  0  0  0  0  0  0  0  0  0  0
   50.0903   36.0539   41.3144 H   0  0  0  0  0  0  0  0  0  0  0  0
   49.6152   36.5942   43.0003 H   0  0  0  0  0  0  0  0  0  0  0  0
   51.0281   34.8245   43.6188 H   0  0  0  0  0  0  0  0  0  0  0  0
   50.9004   32.6591   42.2270 H   0  0  0  0  0  0  0  0  0  0  0  0
   47.9726   29.4419   39.1483 H   0  0  0  0  0  0  0  0  0  0  0  0
   48.3218   28.5186   41.6721 H   0  0  0  0  0  0  0  0  0  0  0  0
   50.8690   29.8709   44.4524 H   0  0  0  0  0  0  0  0  0  0  0  0
   45.9439   34.3091   41.1073 H   0  0  0  0  0  0  0  0  0  0  0  0
   46.3682   32.7093   41.8282 H   0  0  0  0  0  0  0  0  0  0  0  0
   46.7480   32.5295   44.3123 H   0  0  0  0  0  0  0  0  0  0  0  0
   43.9508   36.5997   44.5392 H   0  0  0  0  0  0  0  0  0  0  0  0
   44.4310   33.6110   48.2465 H   0  0  0  0  0  0  0  0  0  0  0  0
   45.7269   31.7368   49.6888 H   0  0  0  0  0  0  0  0  0  0  0  0
   47.5206   31.9292   45.8137 H   0  0  0  0  0  0  0  0  0  0  0  0
  1 15  1  0
  1  2  1  0
  2  3  1  0
  3  4  1  0
  5  4  1  0
  6  1  1  0
  6  5  2  0
  7  6  1  0
  7 11  1  0
  8  7  1  0
  9  8  2  0
  9 10  1  0
 10 11  2  0
 11 12  1  0
 12 14  1  0
 12 13  2  0
 15 16  1  0
 16 21  1  0
 16 17  2  0
 17 18  1  0
 18 19  2  0
 18 22  1  0
 20 19  1  0
 21 20  2  0
 22 23  1  0
 23 24  2  0
 25 24  1  0
 26 22  1  0
 26 25  2  0
  2 27  1  0
  2 28  1  0
  3 29  1  0
  3 30  1  0
  4 31  1  0
  5 32  1  0
  9 33  1  0
 10 34  1  0
 14 35  1  0
 15 36  1  0
 15 37  1  0
 17 38  1  0
 20 39  1  0
 23 40  1  0
 24 41  1  0
 26 42  1  0
M  ISO  8  27  13  28  13  29  13  30  13  32  13  33  14  34  14  35   3
M  ISO  7  36   8  37   8  38  14  39  14  40  14  41  14  42  14
M  END
>  <minimizedAffinity>  (1) 
-5.75404739

>  <minimizedRMSD>  (1) 
0.793449461

$$$$
