
     RDKit          3D

 53 57  0  0  0  0  0  0  0  0999 V2000
   47.8910   34.1640   41.8640 N   0  0  0  0  0  0  0  0  0  0  0  0
   48.2020   35.4750   41.9740 C   0  0  0  0  0  0  0  0  0  0  0  0
   49.6450   35.7700   42.3060 C   0  0  0  0  0  0  0  0  0  0  0  0
   50.3790   34.6490   42.8570 N   0  0  0  0  0  0  0  0  0  0  0  0
   50.1050   33.3760   42.2860 C   0  0  0  0  0  0  0  0  0  0  0  0
   48.7550   33.0890   41.7910 C   0  0  0  0  0  0  0  0  0  0  0  0
   48.5750   31.7920   41.3030 N   0  0  0  0  0  0  0  0  0  0  0  0
   48.2280   31.4480   40.0380 N   0  0  0  0  0  0  0  0  0  0  0  0
   48.0370   30.1250   39.9620 C   0  0  0  0  0  0  0  0  0  0  0  0
   48.2780   29.5980   41.2390 C   0  0  0  0  0  0  0  0  0  0  0  0
   48.6200   30.6750   42.0150 C   0  0  0  0  0  0  0  0  0  0  0  0
   49.2520   30.1940   43.2010 N   0  0  0  0  0  0  0  0  0  0  0  0
   50.6630   29.8110   43.3990 C   0  0  0  0  0  0  0  0  0  0  0  0
   50.9100   29.2250   44.7750 C   0  0  0  0  0  0  0  0  0  0  0  0
   50.1360   28.0150   44.9290 N   0  0  0  0  0  0  0  0  0  0  0  0
   48.7590   28.3300   44.6950 C   0  0  0  0  0  0  0  0  0  0  0  0
   48.6160   29.8280   44.4550 C   0  0  0  0  0  0  0  0  0  0  0  0
   46.4850   33.8530   41.8780 C   0  0  0  0  0  0  0  0  0  0  0  0
   45.8750   34.2680   43.1730 C   0  0  0  0  0  0  0  0  0  0  0  0
   46.1270   33.4780   44.3170 C   0  0  0  0  0  0  0  0  0  0  0  0
   45.5610   33.8770   45.5200 C   0  0  0  0  0  0  0  0  0  0  0  0
   44.7900   35.0100   45.5350 N   0  0  0  0  0  0  0  0  0  0  0  0
   44.5710   35.7330   44.4330 C   0  0  0  0  0  0  0  0  0  0  0  0
   45.1050   35.3750   43.2510 N   0  0  0  0  0  0  0  0  0  0  0  0
   45.8470   33.0810   46.6330 N   0  0  0  0  0  0  0  0  0  0  0  0
   45.2410   33.0220   47.8300 C   0  0  0  0  0  0  0  0  0  0  0  0
   45.9270   32.0420   48.5770 C   0  0  0  0  0  0  0  0  0  0  0  0
   46.9090   31.5620   47.7960 N   0  0  0  0  0  0  0  0  0  0  0  0
   46.8690   32.1890   46.6110 C   0  0  0  0  0  0  0  0  0  0  0  0
   47.9674   35.9615   41.0157 H   0  0  0  0  0  0  0  0  0  0  0  0
   47.6110   35.8580   42.8190 H   0  0  0  0  0  0  0  0  0  0  0  0
   50.1506   36.0908   41.3832 H   0  0  0  0  0  0  0  0  0  0  0  0
   49.6330   36.5472   43.0843 H   0  0  0  0  0  0  0  0  0  0  0  0
   51.0611   34.7676   43.6196 H   0  0  0  0  0  0  0  0  0  0  0  0
   50.8966   32.6154   42.2164 H   0  0  0  0  0  0  0  0  0  0  0  0
   47.7456   29.5577   39.0658 H   0  0  0  0  0  0  0  0  0  0  0  0
   48.2077   28.5456   41.5512 H   0  0  0  0  0  0  0  0  0  0  0  0
   50.9365   29.0623   42.6409 H   0  0  0  0  0  0  0  0  0  0  0  0
   51.2758   30.7195   43.3041 H   0  0  0  0  0  0  0  0  0  0  0  0
   51.9793   28.9932   44.8883 H   0  0  0  0  0  0  0  0  0  0  0  0
   50.6093   29.9529   45.5429 H   0  0  0  0  0  0  0  0  0  0  0  0
   50.4526   27.3099   44.2482 H   0  0  0  0  0  0  0  0  0  0  0  0
   48.4020   27.7810   43.8111 H   0  0  0  0  0  0  0  0  0  0  0  0
   48.1616   28.0398   45.5719 H   0  0  0  0  0  0  0  0  0  0  0  0
   49.0948   30.3763   45.2797 H   0  0  0  0  0  0  0  0  0  0  0  0
   47.5476   30.0852   44.4062 H   0  0  0  0  0  0  0  0  0  0  0  0
   45.9873   34.3869   41.0551 H   0  0  0  0  0  0  0  0  0  0  0  0
   46.3580   32.7673   41.7549 H   0  0  0  0  0  0  0  0  0  0  0  0
   46.7522   32.5750   44.2562 H   0  0  0  0  0  0  0  0  0  0  0  0
   43.9443   36.6350   44.4930 H   0  0  0  0  0  0  0  0  0  0  0  0
   44.3796   33.6200   48.1622 H   0  0  0  0  0  0  0  0  0  0  0  0
   45.7003   31.7291   49.6069 H   0  0  0  0  0  0  0  0  0  0  0  0
   47.5492   32.0104   45.7651 H   0  0  0  0  0  0  0  0  0  0  0  0
  1 18  1  0
  1  2  1  0
  2  3  1  0
  3  4  1  0
  5  4  1  0
  6  1  1  0
  6  5  2  0
  7  6  1  0
  7 11  1  0
  8  7  1  0
  9  8  2  0
  9 10  1  0
 10 11  2  0
 11 12  1  0
 12 13  1  0
 12 17  1  0
 13 14  1  0
 14 15  1  0
 16 15  1  0
 17 16  1  0
 18 19  1  0
 19 24  1  0
 19 20  2  0
 20 21  1  0
 21 22  2  0
 21 25  1  0
 23 22  1  0
 24 23  2  0
 25 26  1  0
 26 27  2  0
 28 27  1  0
 29 25  1  0
 29 28  2  0
  2 30  1  0
  2 31  1  0
  3 32  1  0
  3 33  1  0
  4 34  1  0
  5 35  1  0
  9 36  1  0
 10 37  1  0
 13 38  1  0
 13 39  1  0
 14 40  1  0
 14 41  1  0
 15 42  1  0
 16 43  1  0
 16 44  1  0
 17 45  1  0
 17 46  1  0
 18 47  1  0
 18 48  1  0
 20 49  1  0
 23 50  1  0
 26 51  1  0
 27 52  1  0
 29 53  1  0
M  ISO  8  30  13  31  13  32  13  33  13  35  13  36  14  37  14  38  13
M  ISO  8  39  13  40  13  41  13  42   5  43  13  44  13  45  13  46  13
M  ISO  7  47   8  48   8  49  14  50  14  51  14  52  14  53  14
M  END
>  <minimizedAffinity>  (1) 
-5.86873627

>  <minimizedRMSD>  (1) 
1.1026262

$$$$
