
     RDKit          3D

 45 48  0  0  0  0  0  0  0  0999 V2000
   47.8410   34.1590   41.8930 N   0  0  0  0  0  0  0  0  0  0  0  0
   48.1620   35.4690   41.9350 C   0  0  0  0  0  0  0  0  0  0  0  0
   49.6130   35.7720   42.2250 C   0  0  0  0  0  0  0  0  0  0  0  0
   50.3330   34.6880   42.8630 N   0  0  0  0  0  0  0  0  0  0  0  0
   50.0540   33.3850   42.3750 C   0  0  0  0  0  0  0  0  0  0  0  0
   48.7030   33.0870   41.8650 C   0  0  0  0  0  0  0  0  0  0  0  0
   48.5030   31.7650   41.4570 N   0  0  0  0  0  0  0  0  0  0  0  0
   48.5080   31.2580   40.2160 N   0  0  0  0  0  0  0  0  0  0  0  0
   48.2230   29.9520   40.2440 C   0  0  0  0  0  0  0  0  0  0  0  0
   48.0230   29.5770   41.5770 C   0  0  0  0  0  0  0  0  0  0  0  0
   48.2200   30.7500   42.2940 C   0  0  0  0  0  0  0  0  0  0  0  0
   48.4320   30.5360   43.7480 C   0  0  0  0  0  0  0  0  0  0  0  0
   49.5630   29.6560   44.1170 C   0  0  0  0  0  0  0  0  0  0  0  0
   46.4350   33.8480   41.9380 C   0  0  0  0  0  0  0  0  0  0  0  0
   45.8500   34.2480   43.2490 C   0  0  0  0  0  0  0  0  0  0  0  0
   46.1160   33.4420   44.3810 C   0  0  0  0  0  0  0  0  0  0  0  0
   45.5660   33.8310   45.5930 C   0  0  0  0  0  0  0  0  0  0  0  0
   44.7980   34.9690   45.6290 N   0  0  0  0  0  0  0  0  0  0  0  0
   44.5690   35.7070   44.5370 C   0  0  0  0  0  0  0  0  0  0  0  0
   45.0860   35.3590   43.3480 N   0  0  0  0  0  0  0  0  0  0  0  0
   45.8610   33.0210   46.6920 N   0  0  0  0  0  0  0  0  0  0  0  0
   45.2820   32.9460   47.9030 C   0  0  0  0  0  0  0  0  0  0  0  0
   45.9690   31.9670   48.6330 C   0  0  0  0  0  0  0  0  0  0  0  0
   46.9430   31.4840   47.8330 N   0  0  0  0  0  0  0  0  0  0  0  0
   46.8790   32.1230   46.6530 C   0  0  0  0  0  0  0  0  0  0  0  0
   47.9115   35.9111   40.9594 H   0  0  0  0  0  0  0  0  0  0  0  0
   47.5904   35.8941   42.7732 H   0  0  0  0  0  0  0  0  0  0  0  0
   50.1132   36.0046   41.2733 H   0  0  0  0  0  0  0  0  0  0  0  0
   49.6235   36.6155   42.9310 H   0  0  0  0  0  0  0  0  0  0  0  0
   51.0065   34.8534   43.6246 H   0  0  0  0  0  0  0  0  0  0  0  0
   50.8337   32.6091   42.3772 H   0  0  0  0  0  0  0  0  0  0  0  0
   48.1571   29.2872   39.3701 H   0  0  0  0  0  0  0  0  0  0  0  0
   47.7680   28.5809   41.9678 H   0  0  0  0  0  0  0  0  0  0  0  0
   48.6055   31.5187   44.2108 H   0  0  0  0  0  0  0  0  0  0  0  0
   47.5279   30.0223   44.1066 H   0  0  0  0  0  0  0  0  0  0  0  0
   49.6391   29.5968   45.2128 H   0  0  0  0  0  0  0  0  0  0  0  0
   49.3938   28.6497   43.7063 H   0  0  0  0  0  0  0  0  0  0  0  0
   50.4968   30.0674   43.7063 H   0  0  0  0  0  0  0  0  0  0  0  0
   45.9191   34.3899   41.1317 H   0  0  0  0  0  0  0  0  0  0  0  0
   46.3080   32.7629   41.8098 H   0  0  0  0  0  0  0  0  0  0  0  0
   46.7377   32.5379   44.3023 H   0  0  0  0  0  0  0  0  0  0  0  0
   43.9483   36.6118   44.6144 H   0  0  0  0  0  0  0  0  0  0  0  0
   44.4276   33.5425   48.2554 H   0  0  0  0  0  0  0  0  0  0  0  0
   45.7547   31.6512   49.6647 H   0  0  0  0  0  0  0  0  0  0  0  0
   47.5436   31.9473   45.7943 H   0  0  0  0  0  0  0  0  0  0  0  0
  1  2  1  0
  1 14  1  0
  2  3  1  0
  3  4  1  0
  5  4  1  0
  6  1  1  0
  6  5  2  0
  7  6  1  0
  7 11  1  0
  8  9  2  0
  8  7  1  0
  9 10  1  0
 10 11  2  0
 11 12  1  0
 12 13  1  0
 14 15  1  0
 15 20  1  0
 15 16  2  0
 16 17  1  0
 17 18  2  0
 17 21  1  0
 19 18  1  0
 20 19  2  0
 21 22  1  0
 22 23  2  0
 24 23  1  0
 25 21  1  0
 25 24  2  0
  2 26  1  0
  2 27  1  0
  3 28  1  0
  3 29  1  0
  4 30  1  0
  5 31  1  0
  9 32  1  0
 10 33  1  0
 12 34  1  0
 12 35  1  0
 13 36  1  0
 13 37  1  0
 13 38  1  0
 14 39  1  0
 14 40  1  0
 16 41  1  0
 19 42  1  0
 22 43  1  0
 23 44  1  0
 25 45  1  0
M  ISO  8  26  13  27  13  28  13  29  13  31  13  32  14  33  14  34   8
M  ISO  8  35   8  36   8  37   8  38   8  39   8  40   8  41  14  42  14
M  ISO  3  43  14  44  14  45  14
M  END
>  <minimizedAffinity>  (1) 
-5.76311445

>  <minimizedRMSD>  (1) 
0.702267945

$$$$
