
     RDKit          3D

 46 50  0  0  0  0  0  0  0  0999 V2000
   47.9970   34.1740   41.7870 N   0  0  0  0  0  0  0  0  0  0  0  0
   48.2930   35.4770   41.9850 C   0  0  0  0  0  0  0  0  0  0  0  0
   49.7310   35.7660   42.3470 C   0  0  0  0  0  0  0  0  0  0  0  0
   50.4640   34.6270   42.8550 N   0  0  0  0  0  0  0  0  0  0  0  0
   50.2120   33.3910   42.2050 C   0  0  0  0  0  0  0  0  0  0  0  0
   48.8750   33.1190   41.6600 C   0  0  0  0  0  0  0  0  0  0  0  0
   48.7150   31.8410   41.1130 N   0  0  0  0  0  0  0  0  0  0  0  0
   48.5510   31.5290   39.8070 N   0  0  0  0  0  0  0  0  0  0  0  0
   48.3410   30.2230   39.6670 C   0  0  0  0  0  0  0  0  0  0  0  0
   48.3720   29.6570   40.9410 C   0  0  0  0  0  0  0  0  0  0  0  0
   48.6200   30.7130   41.8030 C   0  0  0  0  0  0  0  0  0  0  0  0
   49.0030   30.2430   43.1200 C   0  0  0  0  0  0  0  0  0  0  0  0
   50.2390   29.7990   43.5470 C   0  0  0  0  0  0  0  0  0  0  0  0
   50.1920   29.3210   44.8220 N   0  0  0  0  0  0  0  0  0  0  0  0
   48.9020   29.4530   45.2460 C   0  0  0  0  0  0  0  0  0  0  0  0
   48.2440   30.0010   44.2080 N   0  0  0  0  0  0  0  0  0  0  0  0
   46.5930   33.8420   41.7690 C   0  0  0  0  0  0  0  0  0  0  0  0
   45.9360   34.2750   43.0310 C   0  0  0  0  0  0  0  0  0  0  0  0
   46.1690   33.5170   44.2060 C   0  0  0  0  0  0  0  0  0  0  0  0
   45.5560   33.9300   45.3770 C   0  0  0  0  0  0  0  0  0  0  0  0
   44.7560   35.0480   45.3370 N   0  0  0  0  0  0  0  0  0  0  0  0
   44.5590   35.7390   44.2100 C   0  0  0  0  0  0  0  0  0  0  0  0
   45.1400   35.3660   43.0560 N   0  0  0  0  0  0  0  0  0  0  0  0
   45.8160   33.1710   46.5160 N   0  0  0  0  0  0  0  0  0  0  0  0
   45.2180   33.1390   47.7190 C   0  0  0  0  0  0  0  0  0  0  0  0
   45.8840   32.2060   48.5070 C   0  0  0  0  0  0  0  0  0  0  0  0
   46.8740   31.6950   47.7550 N   0  0  0  0  0  0  0  0  0  0  0  0
   46.8360   32.2790   46.5410 C   0  0  0  0  0  0  0  0  0  0  0  0
   48.0597   36.0228   41.0589 H   0  0  0  0  0  0  0  0  0  0  0  0
   47.6922   35.7968   42.8492 H   0  0  0  0  0  0  0  0  0  0  0  0
   50.2452   36.1308   41.4456 H   0  0  0  0  0  0  0  0  0  0  0  0
   49.7054   36.5079   43.1587 H   0  0  0  0  0  0  0  0  0  0  0  0
   51.1270   34.7080   43.6391 H   0  0  0  0  0  0  0  0  0  0  0  0
   51.0119   32.6419   42.1099 H   0  0  0  0  0  0  0  0  0  0  0  0
   48.1737   29.6880   38.7205 H   0  0  0  0  0  0  0  0  0  0  0  0
   48.2300   28.5987   41.2051 H   0  0  0  0  0  0  0  0  0  0  0  0
   51.1508   29.8278   42.9323 H   0  0  0  0  0  0  0  0  0  0  0  0
   48.4886   29.1719   46.2258 H   0  0  0  0  0  0  0  0  0  0  0  0
   47.2379   30.2189   44.2419 H   0  0  0  0  0  0  0  0  0  0  0  0
   46.1126   34.3489   40.9191 H   0  0  0  0  0  0  0  0  0  0  0  0
   46.4879   32.7514   41.6708 H   0  0  0  0  0  0  0  0  0  0  0  0
   46.8168   32.6281   44.1881 H   0  0  0  0  0  0  0  0  0  0  0  0
   43.9108   36.6276   44.2267 H   0  0  0  0  0  0  0  0  0  0  0  0
   44.3530   33.7448   48.0268 H   0  0  0  0  0  0  0  0  0  0  0  0
   45.6460   31.9377   49.5469 H   0  0  0  0  0  0  0  0  0  0  0  0
   47.5209   32.0664   45.7069 H   0  0  0  0  0  0  0  0  0  0  0  0
  1  2  1  0
  2  3  1  0
  3  4  1  0
  5  4  1  0
  6  1  1  0
  6  5  2  0
  7  6  1  0
  7 11  1  0
  8  7  1  0
  9  8  2  0
  9 10  1  0
 10 11  2  0
 11 12  1  0
 12 13  2  0
 12 16  1  0
 13 14  1  0
 14 15  2  0
 16 15  1  0
 17  1  1  0
 17 18  1  0
 18 23  1  0
 18 19  2  0
 19 20  1  0
 20 24  1  0
 21 20  2  0
 22 21  1  0
 23 22  2  0
 24 28  1  0
 24 25  1  0
 25 26  2  0
 27 26  1  0
 28 27  2  0
  2 29  1  0
  2 30  1  0
  3 31  1  0
  3 32  1  0
  4 33  1  0
  5 34  1  0
  9 35  1  0
 10 36  1  0
 13 37  1  0
 15 38  1  0
 16 39  1  0
 17 40  1  0
 17 41  1  0
 19 42  1  0
 22 43  1  0
 25 44  1  0
 26 45  1  0
 28 46  1  0
M  ISO  8  29  13  30  13  31  13  32  13  34  13  35  14  36  14  37  14
M  ISO  8  38  14  39   9  40   8  41   8  42  14  43  14  44  14  45  14
M  ISO  1  46  14
M  END
>  <minimizedAffinity>  (1) 
-5.80792046

>  <minimizedRMSD>  (1) 
1.18649018

$$$$
