
     RDKit          3D

 46 50  0  0  0  0  0  0  0  0999 V2000
   47.8230   34.1860   41.8670 N   0  0  0  0  0  0  0  0  0  0  0  0
   48.1670   35.4880   41.9570 C   0  0  0  0  0  0  0  0  0  0  0  0
   49.6330   35.7470   42.2290 C   0  0  0  0  0  0  0  0  0  0  0  0
   50.3250   34.6410   42.8630 N   0  0  0  0  0  0  0  0  0  0  0  0
   50.0220   33.3550   42.3110 C   0  0  0  0  0  0  0  0  0  0  0  0
   48.6630   33.0960   41.8010 C   0  0  0  0  0  0  0  0  0  0  0  0
   48.4400   31.7910   41.3540 N   0  0  0  0  0  0  0  0  0  0  0  0
   48.4390   31.3320   40.0860 N   0  0  0  0  0  0  0  0  0  0  0  0
   48.1250   30.0370   40.0700 C   0  0  0  0  0  0  0  0  0  0  0  0
   47.9140   29.6150   41.3840 C   0  0  0  0  0  0  0  0  0  0  0  0
   48.1340   30.7570   42.1490 C   0  0  0  0  0  0  0  0  0  0  0  0
   48.2980   30.4880   43.6010 C   0  0  0  0  0  0  0  0  0  0  0  0
   49.6340   29.9170   44.0510 C   0  0  0  0  0  0  0  0  0  0  0  0
   48.4470   29.0800   44.1290 C   0  0  0  0  0  0  0  0  0  0  0  0
   46.4100   33.9040   41.9050 C   0  0  0  0  0  0  0  0  0  0  0  0
   45.8390   34.2830   43.2320 C   0  0  0  0  0  0  0  0  0  0  0  0
   46.1170   33.4640   44.3450 C   0  0  0  0  0  0  0  0  0  0  0  0
   45.5780   33.8350   45.5720 C   0  0  0  0  0  0  0  0  0  0  0  0
   44.8090   34.9690   45.6370 N   0  0  0  0  0  0  0  0  0  0  0  0
   44.5660   35.7210   44.5580 C   0  0  0  0  0  0  0  0  0  0  0  0
   45.0720   35.3910   43.3590 N   0  0  0  0  0  0  0  0  0  0  0  0
   45.8890   33.0050   46.6550 N   0  0  0  0  0  0  0  0  0  0  0  0
   45.2910   32.8870   47.8510 C   0  0  0  0  0  0  0  0  0  0  0  0
   45.9950   31.9100   48.5670 C   0  0  0  0  0  0  0  0  0  0  0  0
   46.9980   31.4760   47.7670 N   0  0  0  0  0  0  0  0  0  0  0  0
   46.9370   32.1380   46.6060 C   0  0  0  0  0  0  0  0  0  0  0  0
   47.9052   35.9762   41.0066 H   0  0  0  0  0  0  0  0  0  0  0  0
   47.6191   35.8907   42.8216 H   0  0  0  0  0  0  0  0  0  0  0  0
   50.1291   35.9604   41.2707 H   0  0  0  0  0  0  0  0  0  0  0  0
   49.6795   36.5927   42.9309 H   0  0  0  0  0  0  0  0  0  0  0  0
   50.9810   34.7702   43.6465 H   0  0  0  0  0  0  0  0  0  0  0  0
   50.7925   32.5711   42.2680 H   0  0  0  0  0  0  0  0  0  0  0  0
   48.0454   29.4064   39.1722 H   0  0  0  0  0  0  0  0  0  0  0  0
   47.6372   28.6098   41.7346 H   0  0  0  0  0  0  0  0  0  0  0  0
   47.6447   31.3369   43.8513 H   0  0  0  0  0  0  0  0  0  0  0  0
   50.4126   29.6944   43.3066 H   0  0  0  0  0  0  0  0  0  0  0  0
   50.4053   30.2316   44.7694 H   0  0  0  0  0  0  0  0  0  0  0  0
   48.0275   28.8189   45.1118 H   0  0  0  0  0  0  0  0  0  0  0  0
   48.1833   28.0838   43.7443 H   0  0  0  0  0  0  0  0  0  0  0  0
   45.9043   34.4789   41.1153 H   0  0  0  0  0  0  0  0  0  0  0  0
   46.2567   32.8265   41.7452 H   0  0  0  0  0  0  0  0  0  0  0  0
   46.7391   32.5622   44.2463 H   0  0  0  0  0  0  0  0  0  0  0  0
   43.9429   36.6224   44.6543 H   0  0  0  0  0  0  0  0  0  0  0  0
   44.4142   33.4507   48.2024 H   0  0  0  0  0  0  0  0  0  0  0  0
   45.7747   31.5612   49.5867 H   0  0  0  0  0  0  0  0  0  0  0  0
   47.6198   32.0040   45.7541 H   0  0  0  0  0  0  0  0  0  0  0  0
  1 15  1  0
  1  2  1  0
  2  3  1  0
  3  4  1  0
  5  4  1  0
  6  1  1  0
  6  5  2  0
  7  6  1  0
  7 11  1  0
  8  7  1  0
  9  8  2  0
  9 10  1  0
 10 11  2  0
 11 12  1  0
 12 13  1  0
 12 14  1  0
 13 14  1  0
 15 16  1  0
 16 21  1  0
 16 17  2  0
 17 18  1  0
 18 19  2  0
 18 22  1  0
 20 19  1  0
 21 20  2  0
 22 23  1  0
 23 24  2  0
 25 24  1  0
 26 22  1  0
 26 25  2  0
  2 27  1  0
  2 28  1  0
  3 29  1  0
  3 30  1  0
  4 31  1  0
  5 32  1  0
  9 33  1  0
 10 34  1  0
 12 35  1  0
 13 36  1  0
 13 37  1  0
 14 38  1  0
 14 39  1  0
 15 40  1  0
 15 41  1  0
 17 42  1  0
 20 43  1  0
 23 44  1  0
 24 45  1  0
 26 46  1  0
M  ISO  8  27  13  28  13  29  13  30  13  32  13  33  14  34  14  35  13
M  ISO  8  36  13  37  13  38  13  39  13  40   8  41   8  42  14  43  14
M  ISO  3  44  14  45  14  46  14
M  END
>  <minimizedAffinity>  (1) 
-5.76216793

>  <minimizedRMSD>  (1) 
0.931856513

$$$$
