
     RDKit          3D

 52 56  0  0  0  0  0  0  0  0999 V2000
   47.7580   34.2020   41.8050 N   0  0  0  0  0  0  0  0  0  0  0  0
   48.2410   35.4470   42.0060 C   0  0  0  0  0  0  0  0  0  0  0  0
   49.7150   35.5180   42.3330 C   0  0  0  0  0  0  0  0  0  0  0  0
   50.2750   34.2790   42.8510 N   0  0  0  0  0  0  0  0  0  0  0  0
   49.8370   33.0900   42.1970 C   0  0  0  0  0  0  0  0  0  0  0  0
   48.4730   33.0290   41.6570 C   0  0  0  0  0  0  0  0  0  0  0  0
   48.1120   31.8000   41.0930 N   0  0  0  0  0  0  0  0  0  0  0  0
   48.2410   31.4180   39.8020 N   0  0  0  0  0  0  0  0  0  0  0  0
   47.7070   30.2090   39.6290 C   0  0  0  0  0  0  0  0  0  0  0  0
   47.2100   29.7790   40.8600 C   0  0  0  0  0  0  0  0  0  0  0  0
   47.5000   30.8060   41.7430 C   0  0  0  0  0  0  0  0  0  0  0  0
   47.3120   30.3120   43.1370 C   0  0  0  0  0  0  0  0  0  0  0  0
   48.6810   30.3900   43.8940 C   0  0  0  0  0  0  0  0  0  0  0  0
   49.4810   29.2070   43.4030 C   0  0  0  0  0  0  0  0  0  0  0  0
   48.4390   28.1440   43.3940 C   0  0  0  0  0  0  0  0  0  0  0  0
   47.1150   28.8470   43.2550 C   0  0  0  0  0  0  0  0  0  0  0  0
   46.3270   34.0850   41.8030 C   0  0  0  0  0  0  0  0  0  0  0  0
   45.7670   34.4500   43.1360 C   0  0  0  0  0  0  0  0  0  0  0  0
   46.0400   33.6080   44.2320 C   0  0  0  0  0  0  0  0  0  0  0  0
   45.5100   33.9670   45.4650 C   0  0  0  0  0  0  0  0  0  0  0  0
   44.7600   35.1020   45.5560 N   0  0  0  0  0  0  0  0  0  0  0  0
   44.5210   35.8760   44.4950 C   0  0  0  0  0  0  0  0  0  0  0  0
   45.0150   35.5640   43.2860 N   0  0  0  0  0  0  0  0  0  0  0  0
   45.8170   33.1070   46.5360 N   0  0  0  0  0  0  0  0  0  0  0  0
   45.2200   32.9850   47.7320 C   0  0  0  0  0  0  0  0  0  0  0  0
   45.9140   31.9760   48.4230 C   0  0  0  0  0  0  0  0  0  0  0  0
   46.9020   31.5350   47.6080 N   0  0  0  0  0  0  0  0  0  0  0  0
   46.8460   32.2200   46.4640 C   0  0  0  0  0  0  0  0  0  0  0  0
   48.0664   36.0321   41.0910 H   0  0  0  0  0  0  0  0  0  0  0  0
   47.7126   35.8421   42.8862 H   0  0  0  0  0  0  0  0  0  0  0  0
   50.2589   35.7842   41.4147 H   0  0  0  0  0  0  0  0  0  0  0  0
   49.8247   36.2695   43.1287 H   0  0  0  0  0  0  0  0  0  0  0  0
   50.9418   34.2619   43.6359 H   0  0  0  0  0  0  0  0  0  0  0  0
   50.5134   32.2282   42.0982 H   0  0  0  0  0  0  0  0  0  0  0  0
   47.6654   29.6492   38.6830 H   0  0  0  0  0  0  0  0  0  0  0  0
   46.6989   28.8304   41.0811 H   0  0  0  0  0  0  0  0  0  0  0  0
   46.4617   30.9069   43.5019 H   0  0  0  0  0  0  0  0  0  0  0  0
   49.1993   31.3304   43.6553 H   0  0  0  0  0  0  0  0  0  0  0  0
   48.5459   30.3668   44.9854 H   0  0  0  0  0  0  0  0  0  0  0  0
   49.8867   29.3836   42.3959 H   0  0  0  0  0  0  0  0  0  0  0  0
   50.3642   28.9713   44.0149 H   0  0  0  0  0  0  0  0  0  0  0  0
   48.5985   27.4622   42.5456 H   0  0  0  0  0  0  0  0  0  0  0  0
   48.4759   27.5419   44.3139 H   0  0  0  0  0  0  0  0  0  0  0  0
   46.4985   28.6353   44.1411 H   0  0  0  0  0  0  0  0  0  0  0  0
   46.6134   28.4822   42.3465 H   0  0  0  0  0  0  0  0  0  0  0  0
   45.9106   34.7586   41.0396 H   0  0  0  0  0  0  0  0  0  0  0  0
   46.0575   33.0422   41.5794 H   0  0  0  0  0  0  0  0  0  0  0  0
   46.6501   32.7001   44.1158 H   0  0  0  0  0  0  0  0  0  0  0  0
   43.9101   36.7831   44.6129 H   0  0  0  0  0  0  0  0  0  0  0  0
   44.3577   33.5609   48.0992 H   0  0  0  0  0  0  0  0  0  0  0  0
   45.6951   31.6121   49.4377 H   0  0  0  0  0  0  0  0  0  0  0  0
   47.5204   32.0891   45.6049 H   0  0  0  0  0  0  0  0  0  0  0  0
  1  2  1  0
  2  3  1  0
  3  4  1  0
  5  4  1  0
  6  1  1  0
  6  5  2  0
  7  6  1  0
  7 11  1  0
  8  7  1  0
  9  8  2  0
  9 10  1  0
 10 11  2  0
 11 12  1  0
 12 16  1  0
 12 13  1  0
 14 13  1  0
 15 14  1  0
 16 15  1  0
 17  1  1  0
 17 18  1  0
 18 23  1  0
 18 19  2  0
 19 20  1  0
 20 21  2  0
 20 24  1  0
 22 21  1  0
 23 22  2  0
 24 25  1  0
 25 26  2  0
 27 26  1  0
 28 24  1  0
 28 27  2  0
  2 29  1  0
  2 30  1  0
  3 31  1  0
  3 32  1  0
  4 33  1  0
  5 34  1  0
  9 35  1  0
 10 36  1  0
 12 37  1  0
 13 38  1  0
 13 39  1  0
 14 40  1  0
 14 41  1  0
 15 42  1  0
 15 43  1  0
 16 44  1  0
 16 45  1  0
 17 46  1  0
 17 47  1  0
 19 48  1  0
 22 49  1  0
 25 50  1  0
 26 51  1  0
 28 52  1  0
M  ISO  8  29  13  30  13  31  13  32  13  34  13  35  14  36  14  37  13
M  ISO  8  38  13  39  13  40  13  41  13  42  13  43  13  44  13  45  13
M  ISO  7  46   8  47   8  48  14  49  14  50  14  51  14  52  14
M  END
>  <minimizedAffinity>  (1) 
-5.69684505

>  <minimizedRMSD>  (1) 
1.36068952

$$$$
