
     RDKit          3D

 41 44  0  0  0  0  0  0  0  0999 V2000
   47.8450   34.1750   41.8990 N   0  0  0  0  0  0  0  0  0  0  0  0
   48.1350   35.4930   41.9060 C   0  0  0  0  0  0  0  0  0  0  0  0
   49.5870   35.8320   42.1650 C   0  0  0  0  0  0  0  0  0  0  0  0
   50.3190   34.8060   42.8840 N   0  0  0  0  0  0  0  0  0  0  0  0
   50.0800   33.4780   42.4140 C   0  0  0  0  0  0  0  0  0  0  0  0
   48.7320   33.1210   41.9090 C   0  0  0  0  0  0  0  0  0  0  0  0
   48.5710   31.7840   41.5450 N   0  0  0  0  0  0  0  0  0  0  0  0
   48.5710   31.2330   40.3270 N   0  0  0  0  0  0  0  0  0  0  0  0
   48.3500   29.9230   40.4070 C   0  0  0  0  0  0  0  0  0  0  0  0
   48.2000   29.5830   41.7500 C   0  0  0  0  0  0  0  0  0  0  0  0
   48.3550   30.7890   42.4250 C   0  0  0  0  0  0  0  0  0  0  0  0
   48.4430   30.5510   43.8480 C   0  0  0  0  0  0  0  0  0  0  0  0
   48.9680   29.5790   44.4790 O   0  0  0  0  0  0  0  0  0  0  0  0
   46.4450   33.8310   41.9460 C   0  0  0  0  0  0  0  0  0  0  0  0
   45.8480   34.2390   43.2490 C   0  0  0  0  0  0  0  0  0  0  0  0
   46.0930   33.4360   44.3810 C   0  0  0  0  0  0  0  0  0  0  0  0
   45.5430   33.8270   45.5900 C   0  0  0  0  0  0  0  0  0  0  0  0
   44.7900   34.9680   45.6300 N   0  0  0  0  0  0  0  0  0  0  0  0
   44.5740   35.7090   44.5380 C   0  0  0  0  0  0  0  0  0  0  0  0
   45.0950   35.3570   43.3520 N   0  0  0  0  0  0  0  0  0  0  0  0
   45.8390   33.0170   46.7010 N   0  0  0  0  0  0  0  0  0  0  0  0
   45.3050   32.9950   47.9350 C   0  0  0  0  0  0  0  0  0  0  0  0
   45.9770   32.0310   48.6690 C   0  0  0  0  0  0  0  0  0  0  0  0
   46.8990   31.4980   47.8530 N   0  0  0  0  0  0  0  0  0  0  0  0
   46.8290   32.0790   46.6610 C   0  0  0  0  0  0  0  0  0  0  0  0
   47.8585   35.9075   40.9253 H   0  0  0  0  0  0  0  0  0  0  0  0
   47.5666   35.9261   42.7422 H   0  0  0  0  0  0  0  0  0  0  0  0
   50.0816   35.9933   41.1958 H   0  0  0  0  0  0  0  0  0  0  0  0
   49.5931   36.7290   42.8016 H   0  0  0  0  0  0  0  0  0  0  0  0
   50.9558   35.0168   43.6656 H   0  0  0  0  0  0  0  0  0  0  0  0
   50.8860   32.7295   42.4266 H   0  0  0  0  0  0  0  0  0  0  0  0
   48.2951   29.2268   39.5571 H   0  0  0  0  0  0  0  0  0  0  0  0
   48.0040   28.5888   42.1780 H   0  0  0  0  0  0  0  0  0  0  0  0
   47.9875   31.3271   44.4806 H   0  0  0  0  0  0  0  0  0  0  0  0
   45.9184   34.3470   41.1297 H   0  0  0  0  0  0  0  0  0  0  0  0
   46.3437   32.7413   41.8353 H   0  0  0  0  0  0  0  0  0  0  0  0
   46.7039   32.5243   44.3061 H   0  0  0  0  0  0  0  0  0  0  0  0
   43.9611   36.6194   44.6126 H   0  0  0  0  0  0  0  0  0  0  0  0
   44.4820   33.6289   48.2969 H   0  0  0  0  0  0  0  0  0  0  0  0
   45.7907   31.7559   49.7176 H   0  0  0  0  0  0  0  0  0  0  0  0
   47.4603   31.8445   45.7913 H   0  0  0  0  0  0  0  0  0  0  0  0
  1  2  1  0
  1  6  1  0
  1 14  1  0
  2  3  1  0
  3  4  1  0
  5  4  1  0
  6  5  2  0
  7  6  1  0
  7 11  1  0
  8  9  2  0
  8  7  1  0
  9 10  1  0
 10 11  2  0
 11 12  1  0
 12 13  2  0
 14 15  1  0
 15 20  1  0
 15 16  2  0
 16 17  1  0
 17 18  2  0
 17 21  1  0
 19 18  1  0
 20 19  2  0
 21 22  1  0
 22 23  2  0
 24 23  1  0
 25 21  1  0
 25 24  2  0
  2 26  1  0
  2 27  1  0
  3 28  1  0
  3 29  1  0
  4 30  1  0
  5 31  1  0
  9 32  1  0
 10 33  1  0
 12 34  1  0
 14 35  1  0
 14 36  1  0
 16 37  1  0
 19 38  1  0
 22 39  1  0
 23 40  1  0
 25 41  1  0
M  ISO  8  26  13  27  13  28  13  29  13  31  13  32  14  33  14  34   6
M  ISO  7  35   8  36   8  37  14  38  14  39  14  40  14  41  14
M  END
>  <minimizedAffinity>  (1) 
-5.72733879

>  <minimizedRMSD>  (1) 
0.613539994

$$$$
