
     RDKit          3D

 32 35  0  0  0  0  0  0  0  0999 V2000
   44.4620   36.0220   44.7480 C   0  0  0  0  0  0  0  0  0  0  0  0
   45.1710   35.9580   43.5290 C   0  0  0  0  0  0  0  0  0  0  0  0
   46.0490   34.8940   43.3550 C   0  0  0  0  0  0  0  0  0  0  0  0
   46.1930   33.9660   44.3450 N   0  0  0  0  0  0  0  0  0  0  0  0
   45.4930   34.0660   45.4980 C   0  0  0  0  0  0  0  0  0  0  0  0
   44.6260   35.0840   45.7170 N   0  0  0  0  0  0  0  0  0  0  0  0
   45.7260   33.0320   46.4700 N   0  0  0  0  0  0  0  0  0  0  0  0
   45.3170   32.9460   47.7520 C   0  0  0  0  0  0  0  0  0  0  0  0
   45.7770   31.7950   48.2720 N   0  0  0  0  0  0  0  0  0  0  0  0
   46.4840   31.1310   47.3310 C   0  0  0  0  0  0  0  0  0  0  0  0
   47.1600   29.9110   47.3530 C   0  0  0  0  0  0  0  0  0  0  0  0
   47.7630   29.5590   46.2140 N   0  0  0  0  0  0  0  0  0  0  0  0
   47.7180   30.3320   45.1250 C   0  0  0  0  0  0  0  0  0  0  0  0
   47.0680   31.5290   45.0680 N   0  0  0  0  0  0  0  0  0  0  0  0
   46.4460   31.9200   46.1990 C   0  0  0  0  0  0  0  0  0  0  0  0
   46.7840   34.7900   42.1400 N   0  0  0  0  0  0  0  0  0  0  0  0
   47.9800   35.3510   42.0610 C   0  0  0  0  0  0  0  0  0  0  0  0
   48.6730   35.2390   40.8780 C   0  0  0  0  0  0  0  0  0  0  0  0
   48.0570   34.5430   39.8580 C   0  0  0  0  0  0  0  0  0  0  0  0
   48.6630   34.3570   38.5970 N   0  0  0  0  0  0  0  0  0  0  0  0
   46.8220   33.9820   39.9870 N   0  0  0  0  0  0  0  0  0  0  0  0
   46.1540   34.1060   41.1700 C   0  0  0  0  0  0  0  0  0  0  0  0
   45.0130   33.5900   41.2930 O   0  0  0  0  0  0  0  0  0  0  0  0
   43.7597   36.8515   44.9174 H   0  0  0  0  0  0  0  0  0  0  0  0
   45.0342   36.7199   42.7475 H   0  0  0  0  0  0  0  0  0  0  0  0
   44.7087   33.6928   48.2834 H   0  0  0  0  0  0  0  0  0  0  0  0
   47.1944   29.2782   48.2521 H   0  0  0  0  0  0  0  0  0  0  0  0
   48.2365   29.9815   44.2204 H   0  0  0  0  0  0  0  0  0  0  0  0
   48.4082   35.8920   42.9177 H   0  0  0  0  0  0  0  0  0  0  0  0
   49.6712   35.6833   40.7511 H   0  0  0  0  0  0  0  0  0  0  0  0
   49.5978   34.7480   38.4121 H   0  0  0  0  0  0  0  0  0  0  0  0
   48.1705   33.8302   37.8616 H   0  0  0  0  0  0  0  0  0  0  0  0
  1  6  2  0
  2  1  1  0
  3  2  2  0
  3  4  1  0
  4  5  2  0
  5  6  1  0
  5  7  1  0
  7  8  1  0
  8  9  2  0
 10 11  2  0
 10  9  1  0
 12 11  1  0
 13 12  2  0
 14 13  1  0
 14 15  2  0
 15  7  1  0
 15 10  1  0
 16  3  1  0
 17 16  1  0
 18 17  2  0
 19 21  2  0
 19 18  1  0
 20 19  1  0
 21 22  1  0
 22 23  2  0
 22 16  1  0
  1 24  1  0
  2 25  1  0
  8 26  1  0
 11 27  1  0
 13 28  1  0
 17 29  1  0
 18 30  1  0
 20 31  1  0
 20 32  1  0
M  ISO  7  24  14  25  14  26  14  27  14  28  14  29  14  30  14
M  END
>  <minimizedAffinity>  (1) 
-7.10589218

>  <minimizedRMSD>  (1) 
0.922719181

$$$$
