
     RDKit          3D

 29 32  0  0  0  0  0  0  0  0999 V2000
   44.4810   36.0310   44.7250 C   0  0  0  0  0  0  0  0  0  0  0  0
   45.1690   35.9400   43.5130 C   0  0  0  0  0  0  0  0  0  0  0  0
   46.0260   34.8580   43.3490 C   0  0  0  0  0  0  0  0  0  0  0  0
   46.1600   33.9510   44.3470 N   0  0  0  0  0  0  0  0  0  0  0  0
   45.4750   34.0750   45.5050 C   0  0  0  0  0  0  0  0  0  0  0  0
   44.6380   35.1110   45.6980 N   0  0  0  0  0  0  0  0  0  0  0  0
   45.7010   33.0490   46.4910 N   0  0  0  0  0  0  0  0  0  0  0  0
   45.2520   32.9630   47.7540 C   0  0  0  0  0  0  0  0  0  0  0  0
   45.7210   31.8250   48.2930 N   0  0  0  0  0  0  0  0  0  0  0  0
   46.4720   31.1710   47.3910 C   0  0  0  0  0  0  0  0  0  0  0  0
   47.1740   29.9670   47.4440 C   0  0  0  0  0  0  0  0  0  0  0  0
   47.8250   29.6150   46.3330 N   0  0  0  0  0  0  0  0  0  0  0  0
   47.7970   30.3880   45.2320 C   0  0  0  0  0  0  0  0  0  0  0  0
   47.1210   31.5690   45.1480 N   0  0  0  0  0  0  0  0  0  0  0  0
   46.4460   31.9570   46.2640 C   0  0  0  0  0  0  0  0  0  0  0  0
   46.7640   34.7150   42.1120 C   0  0  0  0  0  0  0  0  0  0  0  0
   47.9950   35.3290   41.9680 C   0  0  0  0  0  0  0  0  0  0  0  0
   48.6050   35.1250   40.7530 C   0  0  0  0  0  0  0  0  0  0  0  0
   48.0720   34.3920   39.7570 N   0  0  0  0  0  0  0  0  0  0  0  0
   46.8580   33.8060   39.9420 C   0  0  0  0  0  0  0  0  0  0  0  0
   46.2320   33.9830   41.1170 N   0  0  0  0  0  0  0  0  0  0  0  0
   43.7940   36.8741   44.8898 H   0  0  0  0  0  0  0  0  0  0  0  0
   45.0382   36.6928   42.7217 H   0  0  0  0  0  0  0  0  0  0  0  0
   44.6100   33.6986   48.2606 H   0  0  0  0  0  0  0  0  0  0  0  0
   47.1903   29.3430   48.3497 H   0  0  0  0  0  0  0  0  0  0  0  0
   48.3530   30.0465   44.3464 H   0  0  0  0  0  0  0  0  0  0  0  0
   48.4512   35.9345   42.7650 H   0  0  0  0  0  0  0  0  0  0  0  0
   49.5881   35.5887   40.5842 H   0  0  0  0  0  0  0  0  0  0  0  0
   46.3992   33.2004   39.1465 H   0  0  0  0  0  0  0  0  0  0  0  0
  1  6  2  0
  2  1  1  0
  3  2  2  0
  3  4  1  0
  4  5  2  0
  5  6  1  0
  5  7  1  0
  7  8  1  0
  8  9  2  0
 10 11  2  0
 10  9  1  0
 12 11  1  0
 13 12  2  0
 14 13  1  0
 14 15  2  0
 15  7  1  0
 15 10  1  0
 16  3  1  0
 17 16  2  0
 18 17  1  0
 19 20  1  0
 19 18  2  0
 20 21  2  0
 21 16  1  0
  1 22  1  0
  2 23  1  0
  8 24  1  0
 11 25  1  0
 13 26  1  0
 17 27  1  0
 18 28  1  0
 20 29  1  0
M  ISO  8  22  14  23  14  24  14  25  14  26  14  27  14  28  14  29  14
M  END
>  <minimizedAffinity>  (1) 
-6.41038465

>  <minimizedRMSD>  (1) 
0.676969111

$$$$
