
     RDKit          3D

 28 31  0  0  0  0  0  0  0  0999 V2000
   44.4970   36.0200   44.6720 C   0  0  0  0  0  0  0  0  0  0  0  0
   45.2380   35.9170   43.4930 C   0  0  0  0  0  0  0  0  0  0  0  0
   46.1100   34.8480   43.3650 C   0  0  0  0  0  0  0  0  0  0  0  0
   46.2170   33.9500   44.3720 N   0  0  0  0  0  0  0  0  0  0  0  0
   45.4750   34.0860   45.5090 C   0  0  0  0  0  0  0  0  0  0  0  0
   44.6230   35.1120   45.6570 N   0  0  0  0  0  0  0  0  0  0  0  0
   45.6700   33.0710   46.5140 N   0  0  0  0  0  0  0  0  0  0  0  0
   45.1890   32.9950   47.7710 C   0  0  0  0  0  0  0  0  0  0  0  0
   45.6440   31.8630   48.3240 N   0  0  0  0  0  0  0  0  0  0  0  0
   46.4210   31.1930   47.4370 C   0  0  0  0  0  0  0  0  0  0  0  0
   47.1190   29.9930   47.5090 C   0  0  0  0  0  0  0  0  0  0  0  0
   47.8000   29.6240   46.4140 N   0  0  0  0  0  0  0  0  0  0  0  0
   47.7980   30.3880   45.3140 C   0  0  0  0  0  0  0  0  0  0  0  0
   47.1290   31.5640   45.2090 N   0  0  0  0  0  0  0  0  0  0  0  0
   46.4250   31.9700   46.3030 C   0  0  0  0  0  0  0  0  0  0  0  0
   46.8600   34.7550   42.1580 C   0  0  0  0  0  0  0  0  0  0  0  0
   48.1280   35.3460   41.8060 C   0  0  0  0  0  0  0  0  0  0  0  0
   48.5760   35.0510   40.5430 C   0  0  0  0  0  0  0  0  0  0  0  0
   47.8340   34.2570   39.7360 C   0  0  0  0  0  0  0  0  0  0  0  0
   46.3790   33.8540   40.7620 S   0  0  0  0  0  0  0  0  0  0  0  0
   43.7971   36.8592   44.7979 H   0  0  0  0  0  0  0  0  0  0  0  0
   45.1326   36.6618   42.6904 H   0  0  0  0  0  0  0  0  0  0  0  0
   44.5361   33.7343   48.2581 H   0  0  0  0  0  0  0  0  0  0  0  0
   47.1131   29.3761   48.4197 H   0  0  0  0  0  0  0  0  0  0  0  0
   48.3734   30.0413   44.4430 H   0  0  0  0  0  0  0  0  0  0  0  0
   48.6940   35.9859   42.4989 H   0  0  0  0  0  0  0  0  0  0  0  0
   49.5342   35.4581   40.1878 H   0  0  0  0  0  0  0  0  0  0  0  0
   48.0548   33.9325   38.7084 H   0  0  0  0  0  0  0  0  0  0  0  0
  1  6  2  0
  2  1  1  0
  3  2  2  0
  3  4  1  0
  4  5  2  0
  5  6  1  0
  5  7  1  0
  7  8  1  0
  8  9  2  0
 10 11  2  0
 10  9  1  0
 12 11  1  0
 13 12  2  0
 14 13  1  0
 14 15  2  0
 15  7  1  0
 15 10  1  0
 16  3  1  0
 17 16  2  0
 18 17  1  0
 19 18  2  0
 19 20  1  0
 20 16  1  0
  1 21  1  0
  2 22  1  0
  8 23  1  0
 11 24  1  0
 13 25  1  0
 17 26  1  0
 18 27  1  0
 19 28  1  0
M  ISO  8  21  14  22  14  23  14  24  14  25  14  26  14  27  14  28  14
M  END
>  <minimizedAffinity>  (1) 
-6.43538237

>  <minimizedRMSD>  (1) 
0.649227083

$$$$
