
     RDKit          3D

 31 34  0  0  0  0  0  0  0  0999 V2000
   44.4430   35.9660   44.8510 C   0  0  0  0  0  0  0  0  0  0  0  0
   45.1150   35.9280   43.6100 C   0  0  0  0  0  0  0  0  0  0  0  0
   45.9970   34.8840   43.3820 C   0  0  0  0  0  0  0  0  0  0  0  0
   46.1760   33.9530   44.3520 N   0  0  0  0  0  0  0  0  0  0  0  0
   45.5120   34.0230   45.5310 C   0  0  0  0  0  0  0  0  0  0  0  0
   44.6490   35.0160   45.7950 N   0  0  0  0  0  0  0  0  0  0  0  0
   45.7960   32.9680   46.4730 N   0  0  0  0  0  0  0  0  0  0  0  0
   45.4220   32.8380   47.7600 C   0  0  0  0  0  0  0  0  0  0  0  0
   45.9260   31.6900   48.2320 N   0  0  0  0  0  0  0  0  0  0  0  0
   46.6260   31.0720   47.2630 C   0  0  0  0  0  0  0  0  0  0  0  0
   47.3370   29.8700   47.2340 C   0  0  0  0  0  0  0  0  0  0  0  0
   47.9300   29.5500   46.0740 N   0  0  0  0  0  0  0  0  0  0  0  0
   47.8370   30.3480   45.0070 C   0  0  0  0  0  0  0  0  0  0  0  0
   47.1520   31.5240   45.0090 N   0  0  0  0  0  0  0  0  0  0  0  0
   46.5430   31.8780   46.1560 C   0  0  0  0  0  0  0  0  0  0  0  0
   46.7400   34.7520   42.1390 C   0  0  0  0  0  0  0  0  0  0  0  0
   46.3200   34.0230   41.0500 C   0  0  0  0  0  0  0  0  0  0  0  0
   47.0300   33.9030   39.8760 C   0  0  0  0  0  0  0  0  0  0  0  0
   48.2460   34.5440   39.7490 C   0  0  0  0  0  0  0  0  0  0  0  0
   48.6900   35.2780   40.8170 C   0  0  0  0  0  0  0  0  0  0  0  0
   47.9550   35.3760   41.9740 C   0  0  0  0  0  0  0  0  0  0  0  0
   43.7371   36.7843   45.0560 H   0  0  0  0  0  0  0  0  0  0  0  0
   44.9438   36.7027   42.8481 H   0  0  0  0  0  0  0  0  0  0  0  0
   44.8074   33.5526   48.3271 H   0  0  0  0  0  0  0  0  0  0  0  0
   47.4071   29.2187   48.1177 H   0  0  0  0  0  0  0  0  0  0  0  0
   48.3399   30.0388   44.0789 H   0  0  0  0  0  0  0  0  0  0  0  0
   45.3539   33.5020   41.1219 H   0  0  0  0  0  0  0  0  0  0  0  0
   46.6313   33.3011   39.0461 H   0  0  0  0  0  0  0  0  0  0  0  0
   48.8367   34.4682   38.8242 H   0  0  0  0  0  0  0  0  0  0  0  0
   49.6556   35.8002   40.7470 H   0  0  0  0  0  0  0  0  0  0  0  0
   48.3548   35.9786   42.8029 H   0  0  0  0  0  0  0  0  0  0  0  0
  1  6  2  0
  2  1  1  0
  3  2  2  0
  3  4  1  0
  4  5  2  0
  5  6  1  0
  5  7  1  0
  7  8  1  0
  8  9  2  0
 10  9  1  0
 11 10  2  0
 12 11  1  0
 13 14  1  0
 13 12  2  0
 14 15  2  0
 15  7  1  0
 15 10  1  0
 16  3  1  0
 17 16  2  0
 18 17  1  0
 19 18  2  0
 19 20  1  0
 20 21  2  0
 21 16  1  0
  1 22  1  0
  2 23  1  0
  8 24  1  0
 11 25  1  0
 13 26  1  0
 17 27  1  0
 18 28  1  0
 19 29  1  0
 20 30  1  0
 21 31  1  0
M  ISO  8  22  14  23  14  24  14  25  14  26  14  27  14  28  14  29  14
M  ISO  2  30  14  31  14
M  END
>  <minimizedAffinity>  (1) 
-6.90702534

>  <minimizedRMSD>  (1) 
0.479255617

$$$$
