
     RDKit          3D

 36 39  0  0  0  0  0  0  0  0999 V2000
   44.5860   35.8060   44.6950 C   0  0  0  0  0  0  0  0  0  0  0  0
   45.3610   35.6360   43.5360 C   0  0  0  0  0  0  0  0  0  0  0  0
   46.2410   34.5480   43.4700 C   0  0  0  0  0  0  0  0  0  0  0  0
   46.2800   33.7160   44.5600 N   0  0  0  0  0  0  0  0  0  0  0  0
   45.5260   33.9060   45.6530 C   0  0  0  0  0  0  0  0  0  0  0  0
   44.6810   34.9440   45.7250 N   0  0  0  0  0  0  0  0  0  0  0  0
   45.6900   32.9380   46.7070 N   0  0  0  0  0  0  0  0  0  0  0  0
   45.1580   32.9250   47.9530 C   0  0  0  0  0  0  0  0  0  0  0  0
   45.5930   31.8170   48.5900 N   0  0  0  0  0  0  0  0  0  0  0  0
   46.4030   31.1170   47.7630 C   0  0  0  0  0  0  0  0  0  0  0  0
   47.0970   29.9210   47.9360 C   0  0  0  0  0  0  0  0  0  0  0  0
   47.8190   29.5040   46.8870 N   0  0  0  0  0  0  0  0  0  0  0  0
   47.8580   30.2140   45.7510 C   0  0  0  0  0  0  0  0  0  0  0  0
   47.1930   31.3800   45.5540 N   0  0  0  0  0  0  0  0  0  0  0  0
   46.4480   31.8370   46.5900 C   0  0  0  0  0  0  0  0  0  0  0  0
   47.0560   34.3160   42.3260 N   0  0  0  0  0  0  0  0  0  0  0  0
   47.8750   35.4010   41.8710 C   0  0  0  0  0  0  0  0  0  0  0  0
   48.6510   35.0820   40.6260 C   0  0  0  0  0  0  0  0  0  0  0  0
   47.7880   34.2860   39.6780 C   0  0  0  0  0  0  0  0  0  0  0  0
   47.4260   32.9590   40.2880 C   0  0  0  0  0  0  0  0  0  0  0  0
   47.0090   33.0280   41.7070 C   0  0  0  0  0  0  0  0  0  0  0  0
   43.8911   36.6560   44.7622 H   0  0  0  0  0  0  0  0  0  0  0  0
   45.2786   36.3428   42.6972 H   0  0  0  0  0  0  0  0  0  0  0  0
   44.4860   33.6874   48.3739 H   0  0  0  0  0  0  0  0  0  0  0  0
   47.0547   29.3533   48.8772 H   0  0  0  0  0  0  0  0  0  0  0  0
   48.4698   29.8256   44.9234 H   0  0  0  0  0  0  0  0  0  0  0  0
   47.2261   36.2651   41.6654 H   0  0  0  0  0  0  0  0  0  0  0  0
   48.6071   35.6099   42.6650 H   0  0  0  0  0  0  0  0  0  0  0  0
   48.9617   36.0181   40.1390 H   0  0  0  0  0  0  0  0  0  0  0  0
   49.5398   34.4912   40.8924 H   0  0  0  0  0  0  0  0  0  0  0  0
   48.3394   34.1162   38.7415 H   0  0  0  0  0  0  0  0  0  0  0  0
   46.8653   34.8498   39.4761 H   0  0  0  0  0  0  0  0  0  0  0  0
   46.5970   32.5287   39.7070 H   0  0  0  0  0  0  0  0  0  0  0  0
   48.3370   32.3431   40.2596 H   0  0  0  0  0  0  0  0  0  0  0  0
   45.9721   32.6660   41.7681 H   0  0  0  0  0  0  0  0  0  0  0  0
   47.7410   32.4161   42.2546 H   0  0  0  0  0  0  0  0  0  0  0  0
  1  6  2  0
  2  1  1  0
  3  2  2  0
  3  4  1  0
  4  5  2  0
  5  6  1  0
  5  7  1  0
  7  8  1  0
  8  9  2  0
 10 11  2  0
 10  9  1  0
 12 11  1  0
 13 12  2  0
 14 13  1  0
 14 15  2  0
 15  7  1  0
 15 10  1  0
 16  3  1  0
 17 16  1  0
 18 17  1  0
 19 20  1  0
 19 18  1  0
 20 21  1  0
 21 16  1  0
  1 22  1  0
  2 23  1  0
  8 24  1  0
 11 25  1  0
 13 26  1  0
 17 27  1  0
 17 28  1  0
 18 29  1  0
 18 30  1  0
 19 31  1  0
 19 32  1  0
 20 33  1  0
 20 34  1  0
 21 35  1  0
 21 36  1  0
M  ISO  8  22  14  23  14  24  14  25  14  26  14  27  13  28  13  29  13
M  ISO  7  30  13  31  13  32  13  33  13  34  13  35  13  36  13
M  END
>  <minimizedAffinity>  (1) 
-6.27782249

>  <minimizedRMSD>  (1) 
0.38006106

$$$$
