
     RDKit          3D

 28 31  0  0  0  0  0  0  0  0999 V2000
   44.4720   36.0420   44.7410 C   0  0  0  0  0  0  0  0  0  0  0  0
   45.1730   35.9780   43.5350 C   0  0  0  0  0  0  0  0  0  0  0  0
   46.0450   34.9130   43.3460 C   0  0  0  0  0  0  0  0  0  0  0  0
   46.1590   33.9970   44.3540 N   0  0  0  0  0  0  0  0  0  0  0  0
   45.4680   34.0900   45.5020 C   0  0  0  0  0  0  0  0  0  0  0  0
   44.6180   35.1090   45.7110 N   0  0  0  0  0  0  0  0  0  0  0  0
   45.6980   33.0490   46.4600 N   0  0  0  0  0  0  0  0  0  0  0  0
   45.2370   32.9370   47.7360 C   0  0  0  0  0  0  0  0  0  0  0  0
   45.7140   31.7920   48.2550 N   0  0  0  0  0  0  0  0  0  0  0  0
   46.4760   31.1540   47.3450 C   0  0  0  0  0  0  0  0  0  0  0  0
   47.1870   29.9560   47.3780 C   0  0  0  0  0  0  0  0  0  0  0  0
   47.8460   29.6320   46.2620 N   0  0  0  0  0  0  0  0  0  0  0  0
   47.8160   30.4240   45.1800 C   0  0  0  0  0  0  0  0  0  0  0  0
   47.1330   31.6010   45.1130 N   0  0  0  0  0  0  0  0  0  0  0  0
   46.4500   31.9630   46.2290 C   0  0  0  0  0  0  0  0  0  0  0  0
   46.8080   34.7780   42.1220 C   0  0  0  0  0  0  0  0  0  0  0  0
   46.3780   34.1200   40.9950 C   0  0  0  0  0  0  0  0  0  0  0  0
   47.3680   34.2210   40.0880 N   0  0  0  0  0  0  0  0  0  0  0  0
   48.3740   34.9220   40.6490 C   0  0  0  0  0  0  0  0  0  0  0  0
   48.0400   35.2770   41.9160 N   0  0  0  0  0  0  0  0  0  0  0  0
   43.7778   36.8787   44.9085 H   0  0  0  0  0  0  0  0  0  0  0  0
   45.0391   36.7463   42.7593 H   0  0  0  0  0  0  0  0  0  0  0  0
   44.5869   33.6583   48.2529 H   0  0  0  0  0  0  0  0  0  0  0  0
   47.2046   29.3143   48.2712 H   0  0  0  0  0  0  0  0  0  0  0  0
   48.3782   30.1031   44.2907 H   0  0  0  0  0  0  0  0  0  0  0  0
   45.4128   33.6100   40.8600 H   0  0  0  0  0  0  0  0  0  0  0  0
   49.3244   35.1695   40.1535 H   0  0  0  0  0  0  0  0  0  0  0  0
   48.6115   35.8166   42.5816 H   0  0  0  0  0  0  0  0  0  0  0  0
  1  6  2  0
  2  1  1  0
  3  2  2  0
  3  4  1  0
  4  5  2  0
  5  6  1  0
  5  7  1  0
  7  8  1  0
  8  9  2  0
 10 11  2  0
 10  9  1  0
 12 11  1  0
 13 12  2  0
 14 13  1  0
 14 15  2  0
 15  7  1  0
 15 10  1  0
 16  3  1  0
 17 16  2  0
 18 19  2  0
 18 17  1  0
 19 20  1  0
 20 16  1  0
  1 21  1  0
  2 22  1  0
  8 23  1  0
 11 24  1  0
 13 25  1  0
 17 26  1  0
 19 27  1  0
 20 28  1  0
M  ISO  8  21  14  22  14  23  14  24  14  25  14  26  14  27  14  28   9
M  END
>  <minimizedAffinity>  (1) 
-6.04721737

>  <minimizedRMSD>  (1) 
0.299595296

$$$$
