
     RDKit          3D

 29 32  0  0  0  0  0  0  0  0999 V2000
   44.4370   35.9620   44.8660 C   0  0  0  0  0  0  0  0  0  0  0  0
   45.0630   35.9500   43.6170 C   0  0  0  0  0  0  0  0  0  0  0  0
   45.9520   34.9230   43.3240 C   0  0  0  0  0  0  0  0  0  0  0  0
   46.1550   33.9780   44.2920 N   0  0  0  0  0  0  0  0  0  0  0  0
   45.5350   34.0220   45.4830 C   0  0  0  0  0  0  0  0  0  0  0  0
   44.6750   35.0050   45.7840 N   0  0  0  0  0  0  0  0  0  0  0  0
   45.8590   32.9480   46.3960 N   0  0  0  0  0  0  0  0  0  0  0  0
   45.4960   32.7940   47.6960 C   0  0  0  0  0  0  0  0  0  0  0  0
   46.0340   31.6380   48.1420 N   0  0  0  0  0  0  0  0  0  0  0  0
   46.7370   31.0470   47.1460 C   0  0  0  0  0  0  0  0  0  0  0  0
   47.4640   29.8660   47.0950 C   0  0  0  0  0  0  0  0  0  0  0  0
   48.0420   29.5870   45.9200 N   0  0  0  0  0  0  0  0  0  0  0  0
   47.9190   30.4020   44.8730 C   0  0  0  0  0  0  0  0  0  0  0  0
   47.2140   31.5680   44.8900 N   0  0  0  0  0  0  0  0  0  0  0  0
   46.6110   31.8870   46.0670 C   0  0  0  0  0  0  0  0  0  0  0  0
   46.6930   34.7490   42.0770 C   0  0  0  0  0  0  0  0  0  0  0  0
   47.9210   35.3500   41.8910 C   0  0  0  0  0  0  0  0  0  0  0  0
   48.6770   35.2300   40.7400 C   0  0  0  0  0  0  0  0  0  0  0  0
   48.1650   34.4670   39.7350 N   0  0  0  0  0  0  0  0  0  0  0  0
   46.9550   33.8830   39.9370 C   0  0  0  0  0  0  0  0  0  0  0  0
   46.2190   33.9990   41.0530 N   0  0  0  0  0  0  0  0  0  0  0  0
   43.7328   36.7724   45.1057 H   0  0  0  0  0  0  0  0  0  0  0  0
   44.8559   36.7391   42.8791 H   0  0  0  0  0  0  0  0  0  0  0  0
   44.8744   33.4875   48.2814 H   0  0  0  0  0  0  0  0  0  0  0  0
   47.5594   29.2006   47.9657 H   0  0  0  0  0  0  0  0  0  0  0  0
   48.4182   30.1154   43.9356 H   0  0  0  0  0  0  0  0  0  0  0  0
   48.3238   35.9634   42.7104 H   0  0  0  0  0  0  0  0  0  0  0  0
   49.6517   35.7301   40.6400 H   0  0  0  0  0  0  0  0  0  0  0  0
   46.5469   33.2670   39.1221 H   0  0  0  0  0  0  0  0  0  0  0  0
  1  6  2  0
  2  1  1  0
  3  2  2  0
  3  4  1  0
  4  5  2  0
  5  6  1  0
  5  7  1  0
  7  8  1  0
  8  9  2  0
 10  9  1  0
 11 10  2  0
 12 11  1  0
 13 14  1  0
 13 12  2  0
 14 15  2  0
 15  7  1  0
 15 10  1  0
 16  3  1  0
 17 16  2  0
 18 17  1  0
 19 20  1  0
 19 18  2  0
 20 21  2  0
 21 16  1  0
  1 22  1  0
  2 23  1  0
  8 24  1  0
 11 25  1  0
 13 26  1  0
 17 27  1  0
 18 28  1  0
 20 29  1  0
M  ISO  8  22  14  23  14  24  14  25  14  26  14  27  14  28  14  29  14
M  END
>  <minimizedAffinity>  (1) 
-6.28063822

>  <minimizedRMSD>  (1) 
0.52862072

$$$$
