
     RDKit          3D

 27 29  0  0  0  0  0  0  0  0999 V2000
   44.6020   36.0820   44.3490 C   0  0  0  0  0  0  0  0  0  0  0  0
   45.3570   35.9210   43.1810 C   0  0  0  0  0  0  0  0  0  0  0  0
   46.2230   34.8230   43.1010 C   0  0  0  0  0  0  0  0  0  0  0  0
   46.2900   33.9670   44.1530 N   0  0  0  0  0  0  0  0  0  0  0  0
   45.5340   34.1670   45.2680 C   0  0  0  0  0  0  0  0  0  0  0  0
   44.6930   35.2130   45.3760 N   0  0  0  0  0  0  0  0  0  0  0  0
   45.7010   33.1880   46.3100 N   0  0  0  0  0  0  0  0  0  0  0  0
   45.1980   33.1780   47.5620 C   0  0  0  0  0  0  0  0  0  0  0  0
   45.6180   32.0580   48.1880 N   0  0  0  0  0  0  0  0  0  0  0  0
   46.3890   31.3470   47.3420 C   0  0  0  0  0  0  0  0  0  0  0  0
   47.0600   30.1340   47.4850 C   0  0  0  0  0  0  0  0  0  0  0  0
   47.7510   29.7060   46.4220 N   0  0  0  0  0  0  0  0  0  0  0  0
   47.7830   30.4170   45.2880 C   0  0  0  0  0  0  0  0  0  0  0  0
   47.1400   31.5970   45.1240 N   0  0  0  0  0  0  0  0  0  0  0  0
   46.4310   32.0720   46.1660 C   0  0  0  0  0  0  0  0  0  0  0  0
   46.9940   34.6910   41.8650 C   0  0  0  0  0  0  0  0  0  0  0  0
   48.2970   35.4210   41.8930 C   0  0  0  0  0  0  0  0  0  0  0  0
   43.9173   36.9390   44.4309 H   0  0  0  0  0  0  0  0  0  0  0  0
   45.2725   36.6365   42.3498 H   0  0  0  0  0  0  0  0  0  0  0  0
   44.5527   33.9538   48.0000 H   0  0  0  0  0  0  0  0  0  0  0  0
   47.0236   29.5589   48.4220 H   0  0  0  0  0  0  0  0  0  0  0  0
   48.3641   30.0203   44.4425 H   0  0  0  0  0  0  0  0  0  0  0  0
   46.3910   35.0873   41.0348 H   0  0  0  0  0  0  0  0  0  0  0  0
   47.2250   33.6227   41.7410 H   0  0  0  0  0  0  0  0  0  0  0  0
   48.5999   35.5907   42.9368 H   0  0  0  0  0  0  0  0  0  0  0  0
   49.0643   34.8214   41.3814 H   0  0  0  0  0  0  0  0  0  0  0  0
   48.1863   36.3885   41.3814 H   0  0  0  0  0  0  0  0  0  0  0  0
  1  6  2  0
  2  1  1  0
  3  2  2  0
  3  4  1  0
  4  5  2  0
  5  6  1  0
  5  7  1  0
  7  8  1  0
  8  9  2  0
 10 11  2  0
 10  9  1  0
 12 11  1  0
 13 12  2  0
 14 13  1  0
 14 15  2  0
 15  7  1  0
 15 10  1  0
 16 17  1  0
 16  3  1  0
  1 18  1  0
  2 19  1  0
  8 20  1  0
 11 21  1  0
 13 22  1  0
 16 23  1  0
 16 24  1  0
 17 25  1  0
 17 26  1  0
 17 27  1  0
M  ISO  8  18  14  19  14  20  14  21  14  22  14  23   8  24   8  25   8
M  ISO  2  26   8  27   8
M  END
>  <minimizedAffinity>  (1) 
-5.4273262

>  <minimizedRMSD>  (1) 
0.272185385

$$$$
