
     RDKit          3D

 28 31  0  0  0  0  0  0  0  0999 V2000
   44.4450   36.0820   44.7270 C   0  0  0  0  0  0  0  0  0  0  0  0
   45.1230   35.9950   43.5090 C   0  0  0  0  0  0  0  0  0  0  0  0
   45.9940   34.9240   43.2820 C   0  0  0  0  0  0  0  0  0  0  0  0
   46.1220   34.0190   44.2930 N   0  0  0  0  0  0  0  0  0  0  0  0
   45.4590   34.1220   45.4580 C   0  0  0  0  0  0  0  0  0  0  0  0
   44.6150   35.1530   45.6880 N   0  0  0  0  0  0  0  0  0  0  0  0
   45.7080   33.0760   46.4270 N   0  0  0  0  0  0  0  0  0  0  0  0
   45.3090   33.0000   47.7160 C   0  0  0  0  0  0  0  0  0  0  0  0
   45.7780   31.8400   48.2250 N   0  0  0  0  0  0  0  0  0  0  0  0
   46.4740   31.1760   47.2660 C   0  0  0  0  0  0  0  0  0  0  0  0
   47.1450   29.9540   47.2840 C   0  0  0  0  0  0  0  0  0  0  0  0
   47.7390   29.6000   46.1220 N   0  0  0  0  0  0  0  0  0  0  0  0
   47.6750   30.3820   45.0430 C   0  0  0  0  0  0  0  0  0  0  0  0
   47.0260   31.5780   45.0010 N   0  0  0  0  0  0  0  0  0  0  0  0
   46.4190   31.9730   46.1380 C   0  0  0  0  0  0  0  0  0  0  0  0
   46.7230   34.7580   42.0720 N   0  0  0  0  0  0  0  0  0  0  0  0
   47.9880   35.2610   41.9690 C   0  0  0  0  0  0  0  0  0  0  0  0
   48.5050   34.9910   40.7270 C   0  0  0  0  0  0  0  0  0  0  0  0
   47.5350   34.3160   40.0760 N   0  0  0  0  0  0  0  0  0  0  0  0
   46.4710   34.1840   40.8970 C   0  0  0  0  0  0  0  0  0  0  0  0
   43.7599   36.9241   44.9049 H   0  0  0  0  0  0  0  0  0  0  0  0
   44.9734   36.7620   42.7349 H   0  0  0  0  0  0  0  0  0  0  0  0
   44.7095   33.7489   48.2544 H   0  0  0  0  0  0  0  0  0  0  0  0
   47.1882   29.3209   48.1825 H   0  0  0  0  0  0  0  0  0  0  0  0
   48.1793   30.0381   44.1279 H   0  0  0  0  0  0  0  0  0  0  0  0
   48.5164   35.8042   42.7664 H   0  0  0  0  0  0  0  0  0  0  0  0
   49.4987   35.2662   40.3437 H   0  0  0  0  0  0  0  0  0  0  0  0
   45.5318   33.6758   40.6333 H   0  0  0  0  0  0  0  0  0  0  0  0
  1  6  2  0
  2  1  1  0
  3  2  2  0
  3  4  1  0
  4  5  2  0
  5  6  1  0
  5  7  1  0
  7  8  1  0
  8  9  2  0
 10 11  2  0
 10  9  1  0
 12 11  1  0
 13 12  2  0
 14 13  1  0
 14 15  2  0
 15  7  1  0
 15 10  1  0
 16  3  1  0
 17 16  1  0
 18 17  2  0
 19 18  1  0
 19 20  2  0
 20 16  1  0
  1 21  1  0
  2 22  1  0
  8 23  1  0
 11 24  1  0
 13 25  1  0
 17 26  1  0
 18 27  1  0
 20 28  1  0
M  ISO  8  21  14  22  14  23  14  24  14  25  14  26  14  27  14  28  14
M  END
>  <minimizedAffinity>  (1) 
-5.97169256

>  <minimizedRMSD>  (1) 
0.47848171

$$$$
