
     RDKit          3D

 27 30  0  0  0  0  0  0  0  0999 V2000
   44.4910   36.0220   44.7090 C   0  0  0  0  0  0  0  0  0  0  0  0
   45.2190   35.9270   43.5220 C   0  0  0  0  0  0  0  0  0  0  0  0
   46.0900   34.8570   43.3610 C   0  0  0  0  0  0  0  0  0  0  0  0
   46.1890   33.9570   44.3700 N   0  0  0  0  0  0  0  0  0  0  0  0
   45.4800   34.0640   45.5060 C   0  0  0  0  0  0  0  0  0  0  0  0
   44.6360   35.0930   45.6700 N   0  0  0  0  0  0  0  0  0  0  0  0
   45.6990   33.0290   46.4780 N   0  0  0  0  0  0  0  0  0  0  0  0
   45.2140   32.9460   47.7270 C   0  0  0  0  0  0  0  0  0  0  0  0
   45.6830   31.7960   48.2840 N   0  0  0  0  0  0  0  0  0  0  0  0
   46.4580   31.1570   47.3960 C   0  0  0  0  0  0  0  0  0  0  0  0
   47.1740   29.9560   47.4500 C   0  0  0  0  0  0  0  0  0  0  0  0
   47.8600   29.6130   46.3450 N   0  0  0  0  0  0  0  0  0  0  0  0
   47.8440   30.3930   45.2610 C   0  0  0  0  0  0  0  0  0  0  0  0
   47.1600   31.5680   45.1700 N   0  0  0  0  0  0  0  0  0  0  0  0
   46.4590   31.9440   46.2630 C   0  0  0  0  0  0  0  0  0  0  0  0
   46.8770   34.7190   42.1260 C   0  0  0  0  0  0  0  0  0  0  0  0
   46.4050   33.8280   41.0570 C   0  0  0  0  0  0  0  0  0  0  0  0
   47.6650   34.0080   39.8240 S   0  0  0  0  0  0  0  0  0  0  0  0
   48.6590   35.2410   40.8790 C   0  0  0  0  0  0  0  0  0  0  0  0
   48.0050   35.3700   41.9330 N   0  0  0  0  0  0  0  0  0  0  0  0
   43.7954   36.8608   44.8589 H   0  0  0  0  0  0  0  0  0  0  0  0
   45.1055   36.6831   42.7311 H   0  0  0  0  0  0  0  0  0  0  0  0
   44.5538   33.6784   48.2145 H   0  0  0  0  0  0  0  0  0  0  0  0
   47.1758   29.3243   48.3505 H   0  0  0  0  0  0  0  0  0  0  0  0
   48.4211   30.0653   44.3837 H   0  0  0  0  0  0  0  0  0  0  0  0
   45.4981   33.2061   41.0292 H   0  0  0  0  0  0  0  0  0  0  0  0
   49.6065   35.7339   40.6158 H   0  0  0  0  0  0  0  0  0  0  0  0
  1  6  2  0
  2  1  1  0
  3  2  2  0
  3  4  1  0
  4  5  2  0
  5  6  1  0
  5  7  1  0
  7  8  1  0
  8  9  2  0
 10 11  2  0
 10  9  1  0
 12 11  1  0
 13 12  2  0
 14 13  1  0
 14 15  2  0
 15  7  1  0
 15 10  1  0
 16  3  1  0
 17 16  2  0
 18 19  1  0
 18 17  1  0
 19 20  2  0
 20 16  1  0
  1 21  1  0
  2 22  1  0
  8 23  1  0
 11 24  1  0
 13 25  1  0
 17 26  1  0
 19 27  1  0
M  ISO  7  21  14  22  14  23  14  24  14  25  14  26  14  27  14
M  END
>  <minimizedAffinity>  (1) 
-6.00119162

>  <minimizedRMSD>  (1) 
0.578587174

$$$$
