
     RDKit          3D

 24 26  0  0  0  0  0  0  0  0999 V2000
   44.5070   35.9950   44.4930 C   0  0  0  0  0  0  0  0  0  0  0  0
   45.2990   35.8910   43.3310 C   0  0  0  0  0  0  0  0  0  0  0  0
   46.2270   34.8340   43.2560 C   0  0  0  0  0  0  0  0  0  0  0  0
   46.3190   33.9630   44.3000 N   0  0  0  0  0  0  0  0  0  0  0  0
   45.5240   34.1190   45.3970 C   0  0  0  0  0  0  0  0  0  0  0  0
   44.6220   35.1180   45.5070 N   0  0  0  0  0  0  0  0  0  0  0  0
   45.7140   33.1300   46.4440 N   0  0  0  0  0  0  0  0  0  0  0  0
   45.2670   33.1170   47.7110 C   0  0  0  0  0  0  0  0  0  0  0  0
   45.7000   31.9920   48.2990 N   0  0  0  0  0  0  0  0  0  0  0  0
   46.4240   31.2740   47.4240 C   0  0  0  0  0  0  0  0  0  0  0  0
   47.0860   30.0550   47.5220 C   0  0  0  0  0  0  0  0  0  0  0  0
   47.7280   29.6220   46.4230 N   0  0  0  0  0  0  0  0  0  0  0  0
   47.7220   30.3360   45.2960 C   0  0  0  0  0  0  0  0  0  0  0  0
   47.0850   31.5380   45.1600 N   0  0  0  0  0  0  0  0  0  0  0  0
   46.4300   31.9960   46.2580 C   0  0  0  0  0  0  0  0  0  0  0  0
   47.1050   34.6430   42.0700 C   0  0  0  0  0  0  0  0  0  0  0  0
   43.7767   36.8137   44.5725 H   0  0  0  0  0  0  0  0  0  0  0  0
   45.1953   36.6134   42.5080 H   0  0  0  0  0  0  0  0  0  0  0  0
   44.6513   33.8957   48.1849 H   0  0  0  0  0  0  0  0  0  0  0  0
   47.0844   29.4723   48.4550 H   0  0  0  0  0  0  0  0  0  0  0  0
   48.2610   29.9341   44.4254 H   0  0  0  0  0  0  0  0  0  0  0  0
   48.1291   34.4202   42.4040 H   0  0  0  0  0  0  0  0  0  0  0  0
   46.7266   33.8062   41.4646 H   0  0  0  0  0  0  0  0  0  0  0  0
   47.1084   35.5614   41.4646 H   0  0  0  0  0  0  0  0  0  0  0  0
  1  6  2  0
  2  1  1  0
  3  2  2  0
  3  4  1  0
  4  5  2  0
  5  6  1  0
  5  7  1  0
  7  8  1  0
  8  9  2  0
 10 11  2  0
 10  9  1  0
 12 11  1  0
 13 12  2  0
 14 13  1  0
 14 15  2  0
 15  7  1  0
 15 10  1  0
 16  3  1  0
  1 17  1  0
  2 18  1  0
  8 19  1  0
 11 20  1  0
 13 21  1  0
 16 22  1  0
 16 23  1  0
 16 24  1  0
M  ISO  8  17  14  18  14  19  14  20  14  21  14  22   8  23   8  24   8
M  END
>  <minimizedAffinity>  (1) 
-5.10960436

>  <minimizedRMSD>  (1) 
0.0832512081

$$$$
