
     RDKit          3D

 22 24  0  0  0  0  0  0  0  0999 V2000
   44.5360   36.0150   44.4970 C   0  0  0  0  0  0  0  0  0  0  0  0
   45.2980   35.8760   43.3290 C   0  0  0  0  0  0  0  0  0  0  0  0
   46.1970   34.8000   43.2240 C   0  0  0  0  0  0  0  0  0  0  0  0
   46.2690   33.9410   44.2870 N   0  0  0  0  0  0  0  0  0  0  0  0
   45.5140   34.1090   45.4010 C   0  0  0  0  0  0  0  0  0  0  0  0
   44.6470   35.1360   45.5200 N   0  0  0  0  0  0  0  0  0  0  0  0
   45.6990   33.1230   46.4410 N   0  0  0  0  0  0  0  0  0  0  0  0
   45.2350   33.1050   47.7020 C   0  0  0  0  0  0  0  0  0  0  0  0
   45.6730   31.9730   48.2980 N   0  0  0  0  0  0  0  0  0  0  0  0
   46.4170   31.2640   47.4280 C   0  0  0  0  0  0  0  0  0  0  0  0
   47.0830   30.0500   47.5500 C   0  0  0  0  0  0  0  0  0  0  0  0
   47.7440   29.6230   46.4570 N   0  0  0  0  0  0  0  0  0  0  0  0
   47.7480   30.3480   45.3220 C   0  0  0  0  0  0  0  0  0  0  0  0
   47.1020   31.5390   45.1830 N   0  0  0  0  0  0  0  0  0  0  0  0
   46.4300   31.9910   46.2650 C   0  0  0  0  0  0  0  0  0  0  0  0
   47.0070   34.5270   42.1580 O   0  0  0  0  0  0  0  0  0  0  0  0
   43.8328   36.8564   44.5841 H   0  0  0  0  0  0  0  0  0  0  0  0
   45.1942   36.5985   42.5060 H   0  0  0  0  0  0  0  0  0  0  0  0
   44.6070   33.8780   48.1690 H   0  0  0  0  0  0  0  0  0  0  0  0
   47.0709   29.4714   48.4854 H   0  0  0  0  0  0  0  0  0  0  0  0
   48.3047   29.9559   44.4581 H   0  0  0  0  0  0  0  0  0  0  0  0
   47.6079   33.7406   42.1815 H   0  0  0  0  0  0  0  0  0  0  0  0
  1  6  2  0
  2  1  1  0
  3  2  2  0
  3  4  1  0
  4  5  2  0
  5  6  1  0
  5  7  1  0
  7  8  1  0
  8  9  2  0
 10 11  2  0
 10  9  1  0
 12 11  1  0
 13 12  2  0
 14 13  1  0
 14 15  2  0
 15  7  1  0
 15 10  1  0
 16  3  1  0
  1 17  1  0
  2 18  1  0
  8 19  1  0
 11 20  1  0
 13 21  1  0
 16 22  1  0
M  ISO  6  17  14  18  14  19  14  20  14  21  14  22   3
M  END
>  <minimizedAffinity>  (1) 
-5.00760651

>  <minimizedRMSD>  (1) 
0.0707271323

$$$$
