
     RDKit          3D

 28 31  0  0  0  0  0  0  0  0999 V2000
   44.6460   36.0730   44.3090 C   0  0  0  0  0  0  0  0  0  0  0  0
   45.4410   35.8880   43.1750 C   0  0  0  0  0  0  0  0  0  0  0  0
   46.2910   34.7900   43.1550 C   0  0  0  0  0  0  0  0  0  0  0  0
   46.3200   33.9480   44.2170 N   0  0  0  0  0  0  0  0  0  0  0  0
   45.5250   34.1680   45.3020 C   0  0  0  0  0  0  0  0  0  0  0  0
   44.6830   35.2290   45.3580 N   0  0  0  0  0  0  0  0  0  0  0  0
   45.6320   33.2170   46.3740 N   0  0  0  0  0  0  0  0  0  0  0  0
   45.0690   33.2280   47.6040 C   0  0  0  0  0  0  0  0  0  0  0  0
   45.4660   32.1130   48.2580 N   0  0  0  0  0  0  0  0  0  0  0  0
   46.2750   31.3860   47.4700 C   0  0  0  0  0  0  0  0  0  0  0  0
   46.9400   30.1770   47.6610 C   0  0  0  0  0  0  0  0  0  0  0  0
   47.6780   29.7340   46.6370 N   0  0  0  0  0  0  0  0  0  0  0  0
   47.7680   30.4290   45.4820 C   0  0  0  0  0  0  0  0  0  0  0  0
   47.1320   31.6060   45.2710 N   0  0  0  0  0  0  0  0  0  0  0  0
   46.3780   32.0850   46.2790 C   0  0  0  0  0  0  0  0  0  0  0  0
   47.1820   34.5010   41.9930 C   0  0  0  0  0  0  0  0  0  0  0  0
   48.3190   35.4470   41.7020 C   0  0  0  0  0  0  0  0  0  0  0  0
   48.5640   34.0560   42.2650 C   0  0  0  0  0  0  0  0  0  0  0  0
   43.9667   36.9374   44.3463 H   0  0  0  0  0  0  0  0  0  0  0  0
   45.3952   36.5878   42.3275 H   0  0  0  0  0  0  0  0  0  0  0  0
   44.4040   34.0082   48.0028 H   0  0  0  0  0  0  0  0  0  0  0  0
   46.8624   29.6162   48.6041 H   0  0  0  0  0  0  0  0  0  0  0  0
   48.3890   30.0183   44.6723 H   0  0  0  0  0  0  0  0  0  0  0  0
   46.3438   34.1022   41.4027 H   0  0  0  0  0  0  0  0  0  0  0  0
   48.5936   35.6807   40.6628 H   0  0  0  0  0  0  0  0  0  0  0  0
   48.5841   36.4732   41.9963 H   0  0  0  0  0  0  0  0  0  0  0  0
   48.9081   33.9366   43.3030 H   0  0  0  0  0  0  0  0  0  0  0  0
   49.1749   33.1929   41.9617 H   0  0  0  0  0  0  0  0  0  0  0  0
  1  6  2  0
  2  1  1  0
  3  2  2  0
  3  4  1  0
  4  5  2  0
  5  6  1  0
  5  7  1  0
  7  8  1  0
  8  9  2  0
 10 11  2  0
 10  9  1  0
 12 11  1  0
 13 12  2  0
 14 13  1  0
 14 15  2  0
 15  7  1  0
 15 10  1  0
 16 18  1  0
 16  3  1  0
 17 16  1  0
 17 18  1  0
  1 19  1  0
  2 20  1  0
  8 21  1  0
 11 22  1  0
 13 23  1  0
 16 24  1  0
 17 25  1  0
 17 26  1  0
 18 27  1  0
 18 28  1  0
M  ISO  8  19  14  20  14  21  14  22  14  23  14  24  13  25  13  26  13
M  ISO  2  27  13  28  13
M  END
>  <minimizedAffinity>  (1) 
-5.70811176

>  <minimizedRMSD>  (1) 
0.290638328

$$$$
