
     RDKit          3D

 44 48  0  0  1  0  0  0  0  0999 V2000
   44.6310   36.0970   44.5580 C   0  0  0  0  0  0  0  0  0  0  0  0
   45.1510   35.7990   43.3010 C   0  0  0  0  0  0  0  0  0  0  0  0
   45.7750   34.5770   43.1490 C   0  0  0  0  0  0  0  0  0  0  0  0
   45.8670   33.7160   44.1940 N   0  0  0  0  0  0  0  0  0  0  0  0
   45.3390   34.0600   45.4010 C   0  0  0  0  0  0  0  0  0  0  0  0
   44.7240   35.2420   45.5890 N   0  0  0  0  0  0  0  0  0  0  0  0
   45.4710   33.0890   46.4470 N   0  0  0  0  0  0  0  0  0  0  0  0
   45.1730   33.1800   47.7730 C   0  0  0  0  0  0  0  0  0  0  0  0
   45.4790   31.9990   48.3560 N   0  0  0  0  0  0  0  0  0  0  0  0
   45.9670   31.1490   47.4300 C   0  0  0  0  0  0  0  0  0  0  0  0
   46.4250   29.8300   47.5020 C   0  0  0  0  0  0  0  0  0  0  0  0
   46.8510   29.2820   46.3550 N   0  0  0  0  0  0  0  0  0  0  0  0
   46.8360   29.9670   45.2040 C   0  0  0  0  0  0  0  0  0  0  0  0
   46.3970   31.2350   45.1270 N   0  0  0  0  0  0  0  0  0  0  0  0
   45.9590   31.8380   46.2370 C   0  0  0  0  0  0  0  0  0  0  0  0
   46.3560   34.1230   41.8480 C   0  0  1  0  0  0  0  0  0  0  0  0
   47.4820   34.9140   41.2350 C   0  0  0  0  0  0  0  0  0  0  0  0
   47.6700   33.5220   41.7980 C   0  0  1  0  0  0  0  0  0  0  0  0
   48.7090   33.3840   42.8180 C   0  0  0  0  0  0  0  0  0  0  0  0
   50.0290   34.0440   42.5940 C   0  0  0  0  0  0  0  0  0  0  0  0
   51.1120   33.1120   42.1070 C   0  0  0  0  0  0  0  0  0  0  0  0
   50.6320   32.0820   41.1230 C   0  0  0  0  0  0  0  0  0  0  0  0
   49.4160   31.3250   41.5820 C   0  0  0  0  0  0  0  0  0  0  0  0
   49.0350   31.8740   42.9400 C   0  0  0  0  0  0  0  0  0  0  0  0
   44.1282   37.0633   44.7110 H   0  0  0  0  0  0  0  0  0  0  0  0
   45.0680   36.5079   42.4640 H   0  0  0  0  0  0  0  0  0  0  0  0
   44.7557   34.0616   48.2815 H   0  0  0  0  0  0  0  0  0  0  0  0
   46.4353   29.2714   48.4496 H   0  0  0  0  0  0  0  0  0  0  0  0
   47.1959   29.4740   44.2889 H   0  0  0  0  0  0  0  0  0  0  0  0
   45.3602   33.7986   41.5115 H   0  0  0  0  0  0  0  0  0  0  0  0
   47.8986   35.7877   41.7575 H   0  0  0  0  0  0  0  0  0  0  0  0
   47.6696   35.4132   40.2729 H   0  0  0  0  0  0  0  0  0  0  0  0
   47.9365   32.4970   41.5007 H   0  0  0  0  0  0  0  0  0  0  0  0
   48.2708   33.8834   43.6947 H   0  0  0  0  0  0  0  0  0  0  0  0
   49.8949   34.8383   41.8449 H   0  0  0  0  0  0  0  0  0  0  0  0
   50.3592   34.4298   43.5698 H   0  0  0  0  0  0  0  0  0  0  0  0
   51.8955   33.7141   41.6237 H   0  0  0  0  0  0  0  0  0  0  0  0
   51.4820   32.5651   42.9868 H   0  0  0  0  0  0  0  0  0  0  0  0
   51.4449   31.3612   40.9510 H   0  0  0  0  0  0  0  0  0  0  0  0
   50.3473   32.6214   40.2076 H   0  0  0  0  0  0  0  0  0  0  0  0
   48.5898   31.4715   40.8707 H   0  0  0  0  0  0  0  0  0  0  0  0
   49.6257   30.2468   41.6409 H   0  0  0  0  0  0  0  0  0  0  0  0
   49.8731   31.7358   43.6389 H   0  0  0  0  0  0  0  0  0  0  0  0
   48.1503   31.3386   43.3151 H   0  0  0  0  0  0  0  0  0  0  0  0
  1  6  2  0
  2  1  1  0
  3  2  2  0
  3  4  1  0
  4  5  2  0
  5  6  1  0
  5  7  1  0
  7  8  1  0
  8  9  2  0
 10 11  2  0
 10  9  1  0
 12 11  1  0
 13 12  2  0
 14 13  1  0
 14 15  2  0
 15  7  1  0
 15 10  1  0
 16  3  1  0
 17 18  1  0
 17 16  1  0
 18 16  1  0
 18 19  1  0
 19 24  1  0
 20 19  1  0
 21 20  1  0
 22 23  1  0
 22 21  1  0
 23 24  1  0
  1 25  1  0
  2 26  1  0
  8 27  1  0
 11 28  1  0
 13 29  1  0
 16 30  1  6
 17 31  1  0
 17 32  1  0
 18 33  1  6
 19 34  1  0
 20 35  1  0
 20 36  1  0
 21 37  1  0
 21 38  1  0
 22 39  1  0
 22 40  1  0
 23 41  1  0
 23 42  1  0
 24 43  1  0
 24 44  1  0
M  ISO  8  25  14  26  14  27  14  28  14  29  14  30  13  31  13  32  13
M  ISO  8  33  13  34  13  35  13  36  13  37  13  38  13  39  13  40  13
M  ISO  4  41  13  42  13  43  13  44  13
M  END
>  <minimizedAffinity>  (1) 
-6.42390251

>  <minimizedRMSD>  (1) 
0.965616167

$$$$
