
     RDKit          3D

 41 45  0  0  1  0  0  0  0  0999 V2000
   44.6880   36.1010   44.4340 C   0  0  0  0  0  0  0  0  0  0  0  0
   45.2480   35.7940   43.1940 C   0  0  0  0  0  0  0  0  0  0  0  0
   45.8830   34.5800   43.0760 C   0  0  0  0  0  0  0  0  0  0  0  0
   45.9500   33.7250   44.1370 N   0  0  0  0  0  0  0  0  0  0  0  0
   45.3880   34.0740   45.3170 C   0  0  0  0  0  0  0  0  0  0  0  0
   44.7550   35.2580   45.4780 N   0  0  0  0  0  0  0  0  0  0  0  0
   45.4910   33.1120   46.3850 N   0  0  0  0  0  0  0  0  0  0  0  0
   45.1430   33.2080   47.6880 C   0  0  0  0  0  0  0  0  0  0  0  0
   45.4380   32.0280   48.2890 N   0  0  0  0  0  0  0  0  0  0  0  0
   45.9700   31.1770   47.3990 C   0  0  0  0  0  0  0  0  0  0  0  0
   46.4360   29.8680   47.4930 C   0  0  0  0  0  0  0  0  0  0  0  0
   46.9110   29.3210   46.3640 N   0  0  0  0  0  0  0  0  0  0  0  0
   46.9350   30.0060   45.1950 C   0  0  0  0  0  0  0  0  0  0  0  0
   46.4870   31.2670   45.1000 N   0  0  0  0  0  0  0  0  0  0  0  0
   45.9990   31.8660   46.2000 C   0  0  0  0  0  0  0  0  0  0  0  0
   46.5090   34.1170   41.8010 C   0  0  1  0  0  0  0  0  0  0  0  0
   47.6140   34.9320   41.1890 C   0  0  0  0  0  0  0  0  0  0  0  0
   47.8380   33.5430   41.7860 C   0  0  1  0  0  0  0  0  0  0  0  0
   48.8660   33.5170   42.8320 C   0  0  0  0  0  0  0  0  0  0  0  0
   50.2430   33.9950   42.4420 C   0  0  0  0  0  0  0  0  0  0  0  0
   50.9770   32.8460   41.8410 C   0  0  0  0  0  0  0  0  0  0  0  0
   50.0190   31.6550   41.9030 C   0  0  0  0  0  0  0  0  0  0  0  0
   49.1890   32.0370   43.1330 C   0  0  0  0  0  0  0  0  0  0  0  0
   44.1744   37.0654   44.5614 H   0  0  0  0  0  0  0  0  0  0  0  0
   45.1844   36.4929   42.3470 H   0  0  0  0  0  0  0  0  0  0  0  0
   44.6986   34.0884   48.1753 H   0  0  0  0  0  0  0  0  0  0  0  0
   46.4157   29.3124   48.4422 H   0  0  0  0  0  0  0  0  0  0  0  0
   47.3341   29.5129   44.2963 H   0  0  0  0  0  0  0  0  0  0  0  0
   45.5295   33.7554   41.4549 H   0  0  0  0  0  0  0  0  0  0  0  0
   47.9960   35.8276   41.7008 H   0  0  0  0  0  0  0  0  0  0  0  0
   47.7989   35.4202   40.2208 H   0  0  0  0  0  0  0  0  0  0  0  0
   48.1282   32.5157   41.5204 H   0  0  0  0  0  0  0  0  0  0  0  0
   48.4379   34.1515   43.6220 H   0  0  0  0  0  0  0  0  0  0  0  0
   50.1610   34.8104   41.7082 H   0  0  0  0  0  0  0  0  0  0  0  0
   50.7805   34.3718   43.3246 H   0  0  0  0  0  0  0  0  0  0  0  0
   51.8899   32.6326   42.4163 H   0  0  0  0  0  0  0  0  0  0  0  0
   51.2858   33.0613   40.8074 H   0  0  0  0  0  0  0  0  0  0  0  0
   49.3975   31.5848   40.9981 H   0  0  0  0  0  0  0  0  0  0  0  0
   50.5089   30.6720   41.9646 H   0  0  0  0  0  0  0  0  0  0  0  0
   49.7715   31.9324   44.0602 H   0  0  0  0  0  0  0  0  0  0  0  0
   48.3024   31.4056   43.2921 H   0  0  0  0  0  0  0  0  0  0  0  0
  1  6  2  0
  2  1  1  0
  3  2  2  0
  3  4  1  0
  4  5  2  0
  5  6  1  0
  5  7  1  0
  7  8  1  0
  8  9  2  0
 10 11  2  0
 10  9  1  0
 12 11  1  0
 13 12  2  0
 14 13  1  0
 14 15  2  0
 15  7  1  0
 15 10  1  0
 16  3  1  0
 17 18  1  0
 17 16  1  0
 18 16  1  0
 18 19  1  0
 19 23  1  0
 20 19  1  0
 21 22  1  0
 21 20  1  0
 22 23  1  0
  1 24  1  0
  2 25  1  0
  8 26  1  0
 11 27  1  0
 13 28  1  0
 16 29  1  6
 17 30  1  0
 17 31  1  0
 18 32  1  6
 19 33  1  0
 20 34  1  0
 20 35  1  0
 21 36  1  0
 21 37  1  0
 22 38  1  0
 22 39  1  0
 23 40  1  0
 23 41  1  0
M  ISO  8  24  14  25  14  26  14  27  14  28  14  29  13  30  13  31  13
M  ISO  8  32  13  33  13  34  13  35  13  36  13  37  13  38  13  39  13
M  ISO  2  40  13  41  13
M  END
>  <minimizedAffinity>  (1) 
-6.14077425

>  <minimizedRMSD>  (1) 
0.789380133

$$$$
