
     RDKit          3D

 41 45  0  0  1  0  0  0  0  0999 V2000
   44.5550   36.0290   44.5370 C   0  0  0  0  0  0  0  0  0  0  0  0
   45.2940   35.8380   43.3540 C   0  0  0  0  0  0  0  0  0  0  0  0
   46.1240   34.7430   43.2880 C   0  0  0  0  0  0  0  0  0  0  0  0
   46.2120   33.8840   44.3440 N   0  0  0  0  0  0  0  0  0  0  0  0
   45.4700   34.1150   45.4760 C   0  0  0  0  0  0  0  0  0  0  0  0
   44.6450   35.1730   45.5870 N   0  0  0  0  0  0  0  0  0  0  0  0
   45.6150   33.1530   46.5200 N   0  0  0  0  0  0  0  0  0  0  0  0
   45.1400   33.1630   47.8010 C   0  0  0  0  0  0  0  0  0  0  0  0
   45.5370   32.0150   48.4070 N   0  0  0  0  0  0  0  0  0  0  0  0
   46.2560   31.2660   47.5450 C   0  0  0  0  0  0  0  0  0  0  0  0
   46.8700   30.0330   47.6850 C   0  0  0  0  0  0  0  0  0  0  0  0
   47.5160   29.5740   46.5940 N   0  0  0  0  0  0  0  0  0  0  0  0
   47.5560   30.2810   45.4460 C   0  0  0  0  0  0  0  0  0  0  0  0
   46.9610   31.4880   45.2960 N   0  0  0  0  0  0  0  0  0  0  0  0
   46.3070   31.9830   46.3540 C   0  0  0  0  0  0  0  0  0  0  0  0
   46.9200   34.4460   42.0720 C   0  0  1  0  0  0  0  0  0  0  0  0
   48.3420   34.9810   41.9950 C   0  0  0  0  0  0  0  0  0  0  0  0
   48.0290   33.5030   42.1640 C   0  0  2  0  0  0  0  0  0  0  0  0
   48.2210   32.5730   41.0940 N   0  0  0  0  0  0  0  0  0  0  0  0
   48.7870   33.2450   39.9680 C   0  0  0  0  0  0  0  0  0  0  0  0
   47.7940   34.0110   39.1510 C   0  0  0  0  0  0  0  0  0  0  0  0
   46.5160   33.5630   39.4220 O   0  0  0  0  0  0  0  0  0  0  0  0
   46.5240   32.1800   39.4500 C   0  0  0  0  0  0  0  0  0  0  0  0
   47.0950   31.7590   40.7870 C   0  0  0  0  0  0  0  0  0  0  0  0
   43.8846   36.8978   44.6129 H   0  0  0  0  0  0  0  0  0  0  0  0
   45.2106   36.5402   42.5114 H   0  0  0  0  0  0  0  0  0  0  0  0
   44.5403   33.9621   48.2612 H   0  0  0  0  0  0  0  0  0  0  0  0
   46.8332   29.4643   48.6259 H   0  0  0  0  0  0  0  0  0  0  0  0
   48.0990   29.8559   44.5890 H   0  0  0  0  0  0  0  0  0  0  0  0
   46.0286   34.5188   41.4316 H   0  0  0  0  0  0  0  0  0  0  0  0
   48.7440   35.3603   41.0439 H   0  0  0  0  0  0  0  0  0  0  0  0
   48.9371   35.7326   42.5345 H   0  0  0  0  0  0  0  0  0  0  0  0
   48.3587   32.7429   42.8876 H   0  0  0  0  0  0  0  0  0  0  0  0
   49.5499   33.9483   40.3331 H   0  0  0  0  0  0  0  0  0  0  0  0
   49.2053   32.4675   39.3118 H   0  0  0  0  0  0  0  0  0  0  0  0
   48.0121   33.8666   38.0826 H   0  0  0  0  0  0  0  0  0  0  0  0
   47.8643   35.0792   39.4041 H   0  0  0  0  0  0  0  0  0  0  0  0
   45.4992   31.7956   39.3407 H   0  0  0  0  0  0  0  0  0  0  0  0
   47.1295   31.7778   38.6244 H   0  0  0  0  0  0  0  0  0  0  0  0
   46.3299   31.8802   41.5680 H   0  0  0  0  0  0  0  0  0  0  0  0
   47.4041   30.7043   40.7404 H   0  0  0  0  0  0  0  0  0  0  0  0
  1  6  2  0
  2  1  1  0
  3  2  2  0
  3  4  1  0
  4  5  2  0
  5  6  1  0
  5  7  1  0
  7  8  1  0
  8  9  2  0
 10 11  2  0
 10  9  1  0
 12 11  1  0
 13 12  2  0
 14 13  1  0
 14 15  2  0
 15  7  1  0
 15 10  1  0
 16 18  1  0
 16  3  1  0
 17 16  1  0
 17 18  1  0
 19 18  1  0
 20 19  1  0
 21 22  1  0
 21 20  1  0
 22 23  1  0
 23 24  1  0
 24 19  1  0
  1 25  1  0
  2 26  1  0
  8 27  1  0
 11 28  1  0
 13 29  1  0
 16 30  1  6
 17 31  1  0
 17 32  1  0
 18 33  1  1
 20 34  1  0
 20 35  1  0
 21 36  1  0
 21 37  1  0
 23 38  1  0
 23 39  1  0
 24 40  1  0
 24 41  1  0
M  ISO  8  25  14  26  14  27  14  28  14  29  14  30  13  31  13  32  13
M  ISO  8  33  13  34  13  35  13  36  13  37  13  38  13  39  13  40  13
M  ISO  1  41  13
M  END
>  <minimizedAffinity>  (1) 
-6.13363218

>  <minimizedRMSD>  (1) 
0.599458456

$$$$
