
     RDKit          3D

 37 40  0  0  1  0  0  0  0  0999 V2000
   44.6440   35.9160   44.4270 C   0  0  0  0  0  0  0  0  0  0  0  0
   45.4740   35.7240   43.3120 C   0  0  0  0  0  0  0  0  0  0  0  0
   46.3370   34.6520   43.3470 C   0  0  0  0  0  0  0  0  0  0  0  0
   46.3670   33.8290   44.4240 N   0  0  0  0  0  0  0  0  0  0  0  0
   45.5400   34.0570   45.4840 C   0  0  0  0  0  0  0  0  0  0  0  0
   44.6730   35.1000   45.4960 N   0  0  0  0  0  0  0  0  0  0  0  0
   45.6260   33.1340   46.5740 N   0  0  0  0  0  0  0  0  0  0  0  0
   45.0490   33.1470   47.7970 C   0  0  0  0  0  0  0  0  0  0  0  0
   45.4250   32.0530   48.4800 N   0  0  0  0  0  0  0  0  0  0  0  0
   46.2550   31.3120   47.7120 C   0  0  0  0  0  0  0  0  0  0  0  0
   46.9230   30.1050   47.9220 C   0  0  0  0  0  0  0  0  0  0  0  0
   47.6750   29.6540   46.9220 N   0  0  0  0  0  0  0  0  0  0  0  0
   47.7840   30.3340   45.7630 C   0  0  0  0  0  0  0  0  0  0  0  0
   47.1490   31.5070   45.5260 N   0  0  0  0  0  0  0  0  0  0  0  0
   46.3760   32.0010   46.5130 C   0  0  0  0  0  0  0  0  0  0  0  0
   47.2510   34.3430   42.2110 C   0  0  1  0  0  0  0  0  0  0  0  0
   48.1830   35.4290   41.7150 C   0  0  0  0  0  0  0  0  0  0  0  0
   48.6850   34.2000   42.4690 C   0  0  2  0  0  0  0  0  0  0  0  0
   49.5640   33.2240   41.7250 C   0  0  0  0  0  0  0  0  0  0  0  0
   48.9280   31.8300   41.6960 C   0  0  0  0  0  0  0  0  0  0  0  0
   50.9600   33.1390   42.2560 C   0  0  0  0  0  0  0  0  0  0  0  0
   43.9442   36.7647   44.4269 H   0  0  0  0  0  0  0  0  0  0  0  0
   45.4366   36.4016   42.4463 H   0  0  0  0  0  0  0  0  0  0  0  0
   44.3763   33.9315   48.1740 H   0  0  0  0  0  0  0  0  0  0  0  0
   46.8320   29.5530   48.8691 H   0  0  0  0  0  0  0  0  0  0  0  0
   48.4207   29.9152   44.9697 H   0  0  0  0  0  0  0  0  0  0  0  0
   46.4913   33.7032   41.7382 H   0  0  0  0  0  0  0  0  0  0  0  0
   48.3831   35.5423   40.6393 H   0  0  0  0  0  0  0  0  0  0  0  0
   48.2634   36.5194   41.8353 H   0  0  0  0  0  0  0  0  0  0  0  0
   49.2576   33.9980   43.3862 H   0  0  0  0  0  0  0  0  0  0  0  0
   49.6432   33.6190   40.7014 H   0  0  0  0  0  0  0  0  0  0  0  0
   48.7677   31.4786   42.7260 H   0  0  0  0  0  0  0  0  0  0  0  0
   47.9628   31.8782   41.1706 H   0  0  0  0  0  0  0  0  0  0  0  0
   49.5970   31.1326   41.1706 H   0  0  0  0  0  0  0  0  0  0  0  0
   50.9347   33.1405   43.3557 H   0  0  0  0  0  0  0  0  0  0  0  0
   51.4313   32.2105   41.9014 H   0  0  0  0  0  0  0  0  0  0  0  0
   51.5405   34.0035   41.9014 H   0  0  0  0  0  0  0  0  0  0  0  0
  1  6  2  0
  2  3  2  0
  2  1  1  0
  3  4  1  0
  4  5  2  0
  5  6  1  0
  5  7  1  0
  7  8  1  0
  8  9  2  0
 10 11  2  0
 10  9  1  0
 12 11  1  0
 13 12  2  0
 14 13  1  0
 14 15  2  0
 15  7  1  0
 15 10  1  0
 16 18  1  0
 16  3  1  0
 17 16  1  0
 17 18  1  0
 19 21  1  0
 19 18  1  0
 20 19  1  0
  1 22  1  0
  2 23  1  0
  8 24  1  0
 11 25  1  0
 13 26  1  0
 16 27  1  6
 17 28  1  0
 17 29  1  0
 18 30  1  1
 19 31  1  0
 20 32  1  0
 20 33  1  0
 20 34  1  0
 21 35  1  0
 21 36  1  0
 21 37  1  0
M  ISO  8  22  14  23  14  24  14  25  14  26  14  27  13  28  13  29  13
M  ISO  8  30  13  31   8  32   8  33   8  34   8  35   8  36   8  37   8
M  END
>  <minimizedAffinity>  (1) 
-6.28199768

>  <minimizedRMSD>  (1) 
0.751666009

$$$$
