
     RDKit          3D

 35 39  0  0  1  0  0  0  0  0999 V2000
   44.5330   35.5640   44.8330 C   0  0  0  0  0  0  0  0  0  0  0  0
   44.9660   35.2100   43.5610 C   0  0  0  0  0  0  0  0  0  0  0  0
   45.6880   34.0450   43.4420 C   0  0  0  0  0  0  0  0  0  0  0  0
   45.9500   33.2970   44.5370 N   0  0  0  0  0  0  0  0  0  0  0  0
   45.5130   33.6710   45.7590 C   0  0  0  0  0  0  0  0  0  0  0  0
   44.7990   34.8130   45.9160 N   0  0  0  0  0  0  0  0  0  0  0  0
   45.8240   32.8180   46.8600 N   0  0  0  0  0  0  0  0  0  0  0  0
   45.6160   32.9770   48.1950 C   0  0  0  0  0  0  0  0  0  0  0  0
   46.0860   31.8810   48.8330 N   0  0  0  0  0  0  0  0  0  0  0  0
   46.5950   31.0180   47.9330 C   0  0  0  0  0  0  0  0  0  0  0  0
   47.1900   29.7660   48.0730 C   0  0  0  0  0  0  0  0  0  0  0  0
   47.5900   29.1700   46.9450 N   0  0  0  0  0  0  0  0  0  0  0  0
   47.4230   29.7580   45.7350 C   0  0  0  0  0  0  0  0  0  0  0  0
   46.8480   30.9720   45.5830 N   0  0  0  0  0  0  0  0  0  0  0  0
   46.4330   31.6050   46.6850 C   0  0  0  0  0  0  0  0  0  0  0  0
   46.2010   33.5450   42.1240 C   0  0  1  0  0  0  0  0  0  0  0  0
   46.1520   34.4740   40.9320 C   0  0  0  0  0  0  0  0  0  0  0  0
   47.4630   34.0720   41.6030 C   0  0  1  0  0  0  0  0  0  0  0  0
   48.1570   35.2670   42.1740 C   0  0  0  0  0  0  0  0  0  0  0  0
   49.6390   35.1060   42.4400 C   0  0  0  0  0  0  0  0  0  0  0  0
   49.1810   35.9820   41.3330 C   0  0  0  0  0  0  0  0  0  0  0  0
   43.9529   36.4902   44.9582 H   0  0  0  0  0  0  0  0  0  0  0  0
   44.7407   35.8358   42.6849 H   0  0  0  0  0  0  0  0  0  0  0  0
   45.1457   33.8485   48.6739 H   0  0  0  0  0  0  0  0  0  0  0  0
   47.3234   29.2938   49.0575 H   0  0  0  0  0  0  0  0  0  0  0  0
   47.7704   29.2242   44.8381 H   0  0  0  0  0  0  0  0  0  0  0  0
   45.8233   32.5326   42.3297 H   0  0  0  0  0  0  0  0  0  0  0  0
   45.7626   35.4972   41.0394 H   0  0  0  0  0  0  0  0  0  0  0  0
   45.7391   34.4337   39.9132 H   0  0  0  0  0  0  0  0  0  0  0  0
   48.4033   33.5465   41.3798 H   0  0  0  0  0  0  0  0  0  0  0  0
   47.2705   35.5866   42.7415 H   0  0  0  0  0  0  0  0  0  0  0  0
   50.0865   35.5492   43.3419 H   0  0  0  0  0  0  0  0  0  0  0  0
   50.3248   34.2496   42.5192 H   0  0  0  0  0  0  0  0  0  0  0  0
   49.3430   35.6753   40.2891 H   0  0  0  0  0  0  0  0  0  0  0  0
   49.3561   37.0319   41.0553 H   0  0  0  0  0  0  0  0  0  0  0  0
  1  6  2  0
  2  1  1  0
  3  2  2  0
  3  4  1  0
  4  5  2  0
  5  6  1  0
  5  7  1  0
  7  8  1  0
  8  9  2  0
 10 11  2  0
 10  9  1  0
 12 11  1  0
 13 12  2  0
 14 13  1  0
 14 15  2  0
 15  7  1  0
 15 10  1  0
 16  3  1  0
 17 18  1  0
 17 16  1  0
 18 16  1  0
 18 19  1  0
 19 20  1  0
 21 19  1  0
 21 20  1  0
  1 22  1  0
  2 23  1  0
  8 24  1  0
 11 25  1  0
 13 26  1  0
 16 27  1  6
 17 28  1  0
 17 29  1  0
 18 30  1  6
 19 31  1  0
 20 32  1  0
 20 33  1  0
 21 34  1  0
 21 35  1  0
M  ISO  8  22  14  23  14  24  14  25  14  26  14  27  13  28  13  29  13
M  ISO  6  30  13  31  13  32  13  33  13  34  13  35  13
M  END
>  <minimizedAffinity>  (1) 
-6.10234833

>  <minimizedRMSD>  (1) 
1.27253628

$$$$
