
     RDKit          3D

 40 43  0  0  1  0  0  0  0  0999 V2000
   44.6580   35.8940   44.4200 C   0  0  0  0  0  0  0  0  0  0  0  0
   45.4730   35.6620   43.3230 C   0  0  0  0  0  0  0  0  0  0  0  0
   46.3250   34.5800   43.3750 C   0  0  0  0  0  0  0  0  0  0  0  0
   46.3480   33.7800   44.4730 N   0  0  0  0  0  0  0  0  0  0  0  0
   45.5250   34.0470   45.5300 C   0  0  0  0  0  0  0  0  0  0  0  0
   44.6770   35.1010   45.5150 N   0  0  0  0  0  0  0  0  0  0  0  0
   45.6040   33.1400   46.6300 N   0  0  0  0  0  0  0  0  0  0  0  0
   44.9910   33.1870   47.8340 C   0  0  0  0  0  0  0  0  0  0  0  0
   45.3560   32.0960   48.5500 N   0  0  0  0  0  0  0  0  0  0  0  0
   46.1980   31.3480   47.8180 C   0  0  0  0  0  0  0  0  0  0  0  0
   46.8510   30.1530   48.0780 C   0  0  0  0  0  0  0  0  0  0  0  0
   47.6350   29.6760   47.1020 N   0  0  0  0  0  0  0  0  0  0  0  0
   47.7760   30.3360   45.9220 C   0  0  0  0  0  0  0  0  0  0  0  0
   47.1500   31.4970   45.6510 N   0  0  0  0  0  0  0  0  0  0  0  0
   46.3570   32.0060   46.6000 C   0  0  0  0  0  0  0  0  0  0  0  0
   47.2280   34.2300   42.2320 C   0  0  1  0  0  0  0  0  0  0  0  0
   48.2230   35.2850   41.7690 C   0  0  0  0  0  0  0  0  0  0  0  0
   48.6460   34.0080   42.4930 C   0  0  2  0  0  0  0  0  0  0  0  0
   49.3010   32.9120   41.6730 C   0  0  0  0  0  0  0  0  0  0  0  0
   48.7930   31.5940   42.2190 C   0  0  0  0  0  0  0  0  0  0  0  0
   50.7800   32.9920   41.9470 C   0  0  0  0  0  0  0  0  0  0  0  0
   48.9830   33.0150   40.2180 C   0  0  0  0  0  0  0  0  0  0  0  0
   43.9717   36.7534   44.3990 H   0  0  0  0  0  0  0  0  0  0  0  0
   45.4408   36.3189   42.4413 H   0  0  0  0  0  0  0  0  0  0  0  0
   44.3090   33.9795   48.1758 H   0  0  0  0  0  0  0  0  0  0  0  0
   46.7317   29.6244   49.0352 H   0  0  0  0  0  0  0  0  0  0  0  0
   48.4317   29.9016   45.1530 H   0  0  0  0  0  0  0  0  0  0  0  0
   46.4427   33.6354   41.7424 H   0  0  0  0  0  0  0  0  0  0  0  0
   48.4386   35.4166   40.6984 H   0  0  0  0  0  0  0  0  0  0  0  0
   48.3617   36.3659   41.9187 H   0  0  0  0  0  0  0  0  0  0  0  0
   49.2574   33.8092   43.3856 H   0  0  0  0  0  0  0  0  0  0  0  0
   48.8045   31.6238   43.3185 H   0  0  0  0  0  0  0  0  0  0  0  0
   47.7647   31.4234   41.8675 H   0  0  0  0  0  0  0  0  0  0  0  0
   49.4408   30.7774   41.8675 H   0  0  0  0  0  0  0  0  0  0  0  0
   50.9516   33.0013   43.0335 H   0  0  0  0  0  0  0  0  0  0  0  0
   51.2827   32.1197   41.5038 H   0  0  0  0  0  0  0  0  0  0  0  0
   51.1857   33.9134   41.5038 H   0  0  0  0  0  0  0  0  0  0  0  0
   47.9433   33.3518   40.0929 H   0  0  0  0  0  0  0  0  0  0  0  0
   49.6624   33.7390   39.7445 H   0  0  0  0  0  0  0  0  0  0  0  0
   49.1089   32.0301   39.7445 H   0  0  0  0  0  0  0  0  0  0  0  0
  1  6  2  0
  2  3  2  0
  2  1  1  0
  3  4  1  0
  4  5  2  0
  5  7  1  0
  6  5  1  0
  7  8  1  0
  8  9  2  0
 10 11  2  0
 10  9  1  0
 12 11  1  0
 13 12  2  0
 14 13  1  0
 14 15  2  0
 15  7  1  0
 15 10  1  0
 16 18  1  0
 16  3  1  0
 17 16  1  0
 17 18  1  0
 19 21  1  0
 19 20  1  0
 19 18  1  0
 22 19  1  0
  1 23  1  0
  2 24  1  0
  8 25  1  0
 11 26  1  0
 13 27  1  0
 16 28  1  6
 17 29  1  0
 17 30  1  0
 18 31  1  1
 20 32  1  0
 20 33  1  0
 20 34  1  0
 21 35  1  0
 21 36  1  0
 21 37  1  0
 22 38  1  0
 22 39  1  0
 22 40  1  0
M  ISO  8  23  14  24  14  25  14  26  14  27  14  28  13  29  13  30  13
M  ISO  8  31  13  32   8  33   8  34   8  35   8  36   8  37   8  38   8
M  ISO  2  39   8  40   8
M  END
>  <minimizedAffinity>  (1) 
-6.26643467

>  <minimizedRMSD>  (1) 
0.393934816

$$$$
