
     RDKit          3D

 29 32  0  0  1  0  0  0  0  0999 V2000
   45.0460   35.7720   43.6020 C   0  0  0  0  0  0  0  0  0  0  0  0
   45.7810   35.3040   42.5110 C   0  0  0  0  0  0  0  0  0  0  0  0
   46.4870   34.1330   42.6760 C   0  0  0  0  0  0  0  0  0  0  0  0
   46.4590   33.4720   43.8580 N   0  0  0  0  0  0  0  0  0  0  0  0
   45.7270   33.9650   44.8960 C   0  0  0  0  0  0  0  0  0  0  0  0
   45.0170   35.1160   44.7770 N   0  0  0  0  0  0  0  0  0  0  0  0
   45.7310   33.1970   46.1010 N   0  0  0  0  0  0  0  0  0  0  0  0
   45.1920   33.4690   47.3220 C   0  0  0  0  0  0  0  0  0  0  0  0
   45.4470   32.4220   48.1440 N   0  0  0  0  0  0  0  0  0  0  0  0
   46.1390   31.4800   47.4820 C   0  0  0  0  0  0  0  0  0  0  0  0
   46.6390   30.2390   47.8570 C   0  0  0  0  0  0  0  0  0  0  0  0
   47.2980   29.5490   46.9150 N   0  0  0  0  0  0  0  0  0  0  0  0
   47.4630   30.0440   45.6610 C   0  0  0  0  0  0  0  0  0  0  0  0
   46.9870   31.2430   45.2760 N   0  0  0  0  0  0  0  0  0  0  0  0
   46.3190   31.9700   46.1880 C   0  0  0  0  0  0  0  0  0  0  0  0
   47.2840   33.5340   41.5610 C   0  0  1  0  0  0  0  0  0  0  0  0
   47.7720   34.4610   40.4540 C   0  0  0  0  0  0  0  0  0  0  0  0
   48.7130   33.8110   41.4720 C   0  0  1  0  0  0  0  0  0  0  0  0
   49.4660   35.0020   42.5880 S   0  0  0  0  0  0  0  0  0  0  0  0
   44.4732   36.7053   43.4981 H   0  0  0  0  0  0  0  0  0  0  0  0
   45.7956   35.8498   41.5561 H   0  0  0  0  0  0  0  0  0  0  0  0
   44.6433   34.3826   47.5944 H   0  0  0  0  0  0  0  0  0  0  0  0
   46.5013   29.8431   48.8740 H   0  0  0  0  0  0  0  0  0  0  0  0
   48.0112   29.4368   44.9256 H   0  0  0  0  0  0  0  0  0  0  0  0
   46.6912   32.6079   41.5934 H   0  0  0  0  0  0  0  0  0  0  0  0
   47.5628   35.5401   40.4970 H   0  0  0  0  0  0  0  0  0  0  0  0
   47.6921   34.5007   39.3576 H   0  0  0  0  0  0  0  0  0  0  0  0
   49.5874   33.1437   41.4593 H   0  0  0  0  0  0  0  0  0  0  0  0
   49.2288   34.6267   43.8841 H   0  0  0  0  0  0  0  0  0  0  0  0
  1  6  2  0
  2  3  2  0
  2  1  1  0
  3  4  1  0
  4  5  2  0
  5  7  1  0
  6  5  1  0
  7 15  1  0
  7  8  1  0
  8  9  2  0
 10 11  2  0
 10  9  1  0
 12 11  1  0
 13 12  2  0
 14 13  1  0
 14 15  2  0
 15 10  1  0
 16  3  1  0
 17 18  1  0
 17 16  1  0
 18 16  1  0
 18 19  1  0
  1 20  1  0
  2 21  1  0
  8 22  1  0
 11 23  1  0
 13 24  1  0
 16 25  1  6
 17 26  1  0
 17 27  1  0
 18 28  1  6
 19 29  1  0
M  ISO  8  20  14  21  14  22  14  23  14  24  14  25  13  26  13  27  13
M  ISO  2  28  13  29  11
M  END
>  <minimizedAffinity>  (1) 
-5.24310064

>  <minimizedRMSD>  (1) 
0.804474413

$$$$
