
     RDKit          3D

 30 33  0  0  1  0  0  0  0  0999 V2000
   44.7610   35.6070   43.9060 C   0  0  0  0  0  0  0  0  0  0  0  0
   45.5210   35.2030   42.7950 C   0  0  0  0  0  0  0  0  0  0  0  0
   46.3410   34.1060   42.9470 C   0  0  0  0  0  0  0  0  0  0  0  0
   46.3940   33.4560   44.1420 N   0  0  0  0  0  0  0  0  0  0  0  0
   45.6440   33.8800   45.1870 C   0  0  0  0  0  0  0  0  0  0  0  0
   44.8200   34.9580   45.0820 N   0  0  0  0  0  0  0  0  0  0  0  0
   45.7480   33.1350   46.4060 N   0  0  0  0  0  0  0  0  0  0  0  0
   45.2320   33.3730   47.6410 C   0  0  0  0  0  0  0  0  0  0  0  0
   45.6120   32.3620   48.4600 N   0  0  0  0  0  0  0  0  0  0  0  0
   46.3620   31.4790   47.7740 C   0  0  0  0  0  0  0  0  0  0  0  0
   46.9840   30.2890   48.1480 C   0  0  0  0  0  0  0  0  0  0  0  0
   47.6680   29.6480   47.1820 N   0  0  0  0  0  0  0  0  0  0  0  0
   47.7410   30.1380   45.9250 C   0  0  0  0  0  0  0  0  0  0  0  0
   47.1420   31.2920   45.5440 N   0  0  0  0  0  0  0  0  0  0  0  0
   46.4520   31.9630   46.4700 C   0  0  0  0  0  0  0  0  0  0  0  0
   47.1720   33.5900   41.8310 C   0  0  1  0  0  0  0  0  0  0  0  0
   47.2590   34.3900   40.5500 C   0  0  0  0  0  0  0  0  0  0  0  0
   48.4370   34.2500   41.5120 C   0  0  1  0  0  0  0  0  0  0  0  0
   48.8220   35.5580   42.0880 C   0  0  0  0  0  0  0  0  0  0  0  0
   49.4270   36.5040   41.5640 O   0  0  0  0  0  0  0  0  0  0  0  0
   44.0984   36.4798   43.8106 H   0  0  0  0  0  0  0  0  0  0  0  0
   45.4634   35.7431   41.8384 H   0  0  0  0  0  0  0  0  0  0  0  0
   44.6132   34.2366   47.9263 H   0  0  0  0  0  0  0  0  0  0  0  0
   46.9196   29.8963   49.1735 H   0  0  0  0  0  0  0  0  0  0  0  0
   48.3141   29.5730   45.1751 H   0  0  0  0  0  0  0  0  0  0  0  0
   46.8893   32.5553   42.0748 H   0  0  0  0  0  0  0  0  0  0  0  0
   46.7284   35.3489   40.4552 H   0  0  0  0  0  0  0  0  0  0  0  0
   47.0812   34.1970   39.4818 H   0  0  0  0  0  0  0  0  0  0  0  0
   49.4649   33.8587   41.5288 H   0  0  0  0  0  0  0  0  0  0  0  0
   48.5275   35.7133   43.1364 H   0  0  0  0  0  0  0  0  0  0  0  0
  1  6  2  0
  2  3  2  0
  2  1  1  0
  3  4  1  0
  4  5  2  0
  5  7  1  0
  6  5  1  0
  7 15  1  0
  7  8  1  0
  8  9  2  0
 10 11  2  0
 10  9  1  0
 12 11  1  0
 13 12  2  0
 14 13  1  0
 14 15  2  0
 15 10  1  0
 16  3  1  0
 17 18  1  0
 17 16  1  0
 18 16  1  0
 18 19  1  0
 20 19  2  0
  1 21  1  0
  2 22  1  0
  8 23  1  0
 11 24  1  0
 13 25  1  0
 16 26  1  6
 17 27  1  0
 17 28  1  0
 18 29  1  6
 19 30  1  0
M  ISO  8  21  14  22  14  23  14  24  14  25  14  26  13  27  13  28  13
M  ISO  2  29  13  30   6
M  END
>  <minimizedAffinity>  (1) 
-5.44662857

>  <minimizedRMSD>  (1) 
1.13163948

$$$$
