
     RDKit          3D

 34 37  0  0  1  0  0  0  0  0999 V2000
   44.7870   35.6690   44.2350 C   0  0  0  0  0  0  0  0  0  0  0  0
   45.4450   35.2840   43.0770 C   0  0  0  0  0  0  0  0  0  0  0  0
   46.1760   34.1170   43.1190 C   0  0  0  0  0  0  0  0  0  0  0  0
   46.2360   33.3830   44.2660 N   0  0  0  0  0  0  0  0  0  0  0  0
   45.5710   33.8040   45.3740 C   0  0  0  0  0  0  0  0  0  0  0  0
   44.8420   34.9480   45.3700 N   0  0  0  0  0  0  0  0  0  0  0  0
   45.6730   32.9730   46.5310 N   0  0  0  0  0  0  0  0  0  0  0  0
   45.2340   33.1710   47.8080 C   0  0  0  0  0  0  0  0  0  0  0  0
   45.5700   32.0930   48.5370 N   0  0  0  0  0  0  0  0  0  0  0  0
   46.2190   31.1930   47.7690 C   0  0  0  0  0  0  0  0  0  0  0  0
   46.7610   29.9440   48.0370 C   0  0  0  0  0  0  0  0  0  0  0  0
   47.3460   29.3140   47.0120 N   0  0  0  0  0  0  0  0  0  0  0  0
   47.4000   29.8740   45.7800 C   0  0  0  0  0  0  0  0  0  0  0  0
   46.8750   31.0880   45.5090 N   0  0  0  0  0  0  0  0  0  0  0  0
   46.2790   31.7560   46.5090 C   0  0  0  0  0  0  0  0  0  0  0  0
   46.9160   33.5890   41.9310 C   0  0  1  0  0  0  0  0  0  0  0  0
   47.2510   34.5460   40.8160 C   0  0  0  0  0  0  0  0  0  0  0  0
   48.3160   33.9670   41.7500 C   0  0  1  0  0  0  0  0  0  0  0  0
   49.0300   35.0430   42.4820 C   0  0  0  0  0  0  0  0  0  0  0  0
   49.3130   36.2070   41.5240 C   0  0  0  0  0  0  0  0  0  0  0  0
   44.1982   36.5981   44.2257 H   0  0  0  0  0  0  0  0  0  0  0  0
   45.3856   35.8876   42.1593 H   0  0  0  0  0  0  0  0  0  0  0  0
   44.6984   34.0584   48.1765 H   0  0  0  0  0  0  0  0  0  0  0  0
   46.7122   29.4952   49.0401 H   0  0  0  0  0  0  0  0  0  0  0  0
   47.8911   29.3177   44.9680 H   0  0  0  0  0  0  0  0  0  0  0  0
   46.3865   32.6263   41.9847 H   0  0  0  0  0  0  0  0  0  0  0  0
   46.9648   35.6057   40.8870 H   0  0  0  0  0  0  0  0  0  0  0  0
   47.0870   34.5844   39.7290 H   0  0  0  0  0  0  0  0  0  0  0  0
   49.2087   33.3242   41.7449 H   0  0  0  0  0  0  0  0  0  0  0  0
   48.4057   35.3969   43.3157 H   0  0  0  0  0  0  0  0  0  0  0  0
   49.9792   34.6522   42.8773 H   0  0  0  0  0  0  0  0  0  0  0  0
   49.5337   37.1146   42.1049 H   0  0  0  0  0  0  0  0  0  0  0  0
   50.1769   35.9584   40.8900 H   0  0  0  0  0  0  0  0  0  0  0  0
   48.4314   36.3827   40.8900 H   0  0  0  0  0  0  0  0  0  0  0  0
  1  6  2  0
  2  3  2  0
  2  1  1  0
  3  4  1  0
  4  5  2  0
  5  7  1  0
  6  5  1  0
  7  8  1  0
  8  9  2  0
 10 11  2  0
 10  9  1  0
 12 11  1  0
 13 12  2  0
 14 13  1  0
 14 15  2  0
 15  7  1  0
 15 10  1  0
 16  3  1  0
 17 18  1  0
 17 16  1  0
 18 16  1  0
 18 19  1  0
 20 19  1  0
  1 21  1  0
  2 22  1  0
  8 23  1  0
 11 24  1  0
 13 25  1  0
 16 26  1  6
 17 27  1  0
 17 28  1  0
 18 29  1  6
 19 30  1  0
 19 31  1  0
 20 32  1  0
 20 33  1  0
 20 34  1  0
M  ISO  8  21  14  22  14  23  14  24  14  25  14  26  13  27  13  28  13
M  ISO  6  29  13  30   8  31   8  32   8  33   8  34   8
M  END
>  <minimizedAffinity>  (1) 
-5.76355457

>  <minimizedRMSD>  (1) 
0.971081972

$$$$
