
     RDKit          3D

 36 39  0  0  1  0  0  0  0  0999 V2000
   44.5920   35.9840   44.5400 C   0  0  0  0  0  0  0  0  0  0  0  0
   45.0680   35.6580   43.2790 C   0  0  0  0  0  0  0  0  0  0  0  0
   45.7160   34.4430   43.1110 C   0  0  0  0  0  0  0  0  0  0  0  0
   45.8690   33.6090   44.1660 N   0  0  0  0  0  0  0  0  0  0  0  0
   45.3840   33.9680   45.3950 C   0  0  0  0  0  0  0  0  0  0  0  0
   44.7410   35.1580   45.5910 N   0  0  0  0  0  0  0  0  0  0  0  0
   45.5890   33.0290   46.4570 N   0  0  0  0  0  0  0  0  0  0  0  0
   45.3260   33.1330   47.7910 C   0  0  0  0  0  0  0  0  0  0  0  0
   45.6910   31.9860   48.3760 N   0  0  0  0  0  0  0  0  0  0  0  0
   46.1850   31.1310   47.4700 C   0  0  0  0  0  0  0  0  0  0  0  0
   46.6880   29.8430   47.5660 C   0  0  0  0  0  0  0  0  0  0  0  0
   47.1030   29.2800   46.4220 N   0  0  0  0  0  0  0  0  0  0  0  0
   47.0330   29.9440   45.2370 C   0  0  0  0  0  0  0  0  0  0  0  0
   46.5440   31.1980   45.1380 N   0  0  0  0  0  0  0  0  0  0  0  0
   46.1170   31.7980   46.2580 C   0  0  0  0  0  0  0  0  0  0  0  0
   46.2720   33.9880   41.8110 C   0  0  1  0  0  0  0  0  0  0  0  0
   47.3900   34.7760   41.1800 C   0  0  0  0  0  0  0  0  0  0  0  0
   47.6290   33.4260   41.8000 C   0  0  1  0  0  0  0  0  0  0  0  0
   48.6090   33.4400   42.8930 C   0  0  0  0  0  0  0  0  0  0  0  0
   49.9060   34.0490   42.4190 C   0  0  0  0  0  0  0  0  0  0  0  0
   50.3000   35.2500   43.0260 N   0  0  0  0  0  0  0  0  0  0  0  0
   44.0779   36.9456   44.6849 H   0  0  0  0  0  0  0  0  0  0  0  0
   44.9349   36.3468   42.4317 H   0  0  0  0  0  0  0  0  0  0  0  0
   44.8901   34.0067   48.2976 H   0  0  0  0  0  0  0  0  0  0  0  0
   46.7437   29.3119   48.5277 H   0  0  0  0  0  0  0  0  0  0  0  0
   47.3880   29.4404   44.3258 H   0  0  0  0  0  0  0  0  0  0  0  0
   45.2843   33.6463   41.4678 H   0  0  0  0  0  0  0  0  0  0  0  0
   47.7712   35.6853   41.6676 H   0  0  0  0  0  0  0  0  0  0  0  0
   47.5727   35.2341   40.1968 H   0  0  0  0  0  0  0  0  0  0  0  0
   47.9560   32.4104   41.5322 H   0  0  0  0  0  0  0  0  0  0  0  0
   48.2125   34.0340   43.7296 H   0  0  0  0  0  0  0  0  0  0  0  0
   48.7955   32.4072   43.2226 H   0  0  0  0  0  0  0  0  0  0  0  0
   50.7031   33.3112   42.5929 H   0  0  0  0  0  0  0  0  0  0  0  0
   49.7353   34.3032   41.3625 H   0  0  0  0  0  0  0  0  0  0  0  0
   50.2654   35.1446   44.0500 H   0  0  0  0  0  0  0  0  0  0  0  0
   51.2611   35.4816   42.7369 H   0  0  0  0  0  0  0  0  0  0  0  0
  1  6  2  0
  2  1  1  0
  3  2  2  0
  3  4  1  0
  4  5  2  0
  5  6  1  0
  5  7  1  0
  7  8  1  0
  8  9  2  0
 10 11  2  0
 10  9  1  0
 12 11  1  0
 13 12  2  0
 14 13  1  0
 14 15  2  0
 15  7  1  0
 15 10  1  0
 16  3  1  0
 17 18  1  0
 17 16  1  0
 18 16  1  0
 18 19  1  0
 20 19  1  0
 20 21  1  0
  1 22  1  0
  2 23  1  0
  8 24  1  0
 11 25  1  0
 13 26  1  0
 16 27  1  6
 17 28  1  0
 17 29  1  0
 18 30  1  6
 19 31  1  0
 19 32  1  0
 20 33  1  0
 20 34  1  0
 21 35  1  0
 21 36  1  0
M  ISO  8  22  14  23  14  24  14  25  14  26  14  27  13  28  13  29  13
M  ISO  7  30  13  31   8  32   8  33   8  34   8  35   5  36   5
M  END
>  <minimizedAffinity>  (1) 
-6.1103878

>  <minimizedRMSD>  (1) 
1.07330477

$$$$
