
     RDKit          3D

 45 49  0  0  1  0  0  0  0  0999 V2000
   46.4810   33.7460   41.9870 C   0  0  1  0  0  0  0  0  0  0  0  0
   47.0120   34.7080   41.0060 C   0  0  0  0  0  0  0  0  0  0  0  0
   47.9590   33.8770   41.8400 C   0  0  1  0  0  0  0  0  0  0  0  0
   44.6350   35.7390   44.6010 C   0  0  0  0  0  0  0  0  0  0  0  0
   45.1640   35.3840   43.3570 C   0  0  0  0  0  0  0  0  0  0  0  0
   45.8760   34.1930   43.2630 C   0  0  0  0  0  0  0  0  0  0  0  0
   46.0340   33.4240   44.3590 N   0  0  0  0  0  0  0  0  0  0  0  0
   45.5050   33.8020   45.5580 C   0  0  0  0  0  0  0  0  0  0  0  0
   44.8000   34.9630   45.6920 N   0  0  0  0  0  0  0  0  0  0  0  0
   45.7410   32.9190   46.6620 N   0  0  0  0  0  0  0  0  0  0  0  0
   45.4310   33.0760   47.9840 C   0  0  0  0  0  0  0  0  0  0  0  0
   45.8550   31.9860   48.6210 N   0  0  0  0  0  0  0  0  0  0  0  0
   46.4330   31.1170   47.7670 C   0  0  0  0  0  0  0  0  0  0  0  0
   47.0140   29.8720   47.9520 C   0  0  0  0  0  0  0  0  0  0  0  0
   47.4990   29.2870   46.8390 N   0  0  0  0  0  0  0  0  0  0  0  0
   47.4140   29.8960   45.6300 C   0  0  0  0  0  0  0  0  0  0  0  0
   46.8510   31.1010   45.4520 N   0  0  0  0  0  0  0  0  0  0  0  0
   46.3540   31.7230   46.5250 C   0  0  0  0  0  0  0  0  0  0  0  0
   48.8650   34.6370   42.6930 C   0  0  0  0  0  0  0  0  0  0  0  0
   50.3000   34.1330   42.4840 C   0  0  0  0  0  0  0  0  0  0  0  0
   50.2890   33.0330   41.6400 O   0  0  0  0  0  0  0  0  0  0  0  0
   51.1400   31.9630   41.6200 C   0  0  0  0  0  0  0  0  0  0  0  0
   52.0070   31.6790   40.5850 C   0  0  0  0  0  0  0  0  0  0  0  0
   52.8510   30.5820   40.6090 C   0  0  0  0  0  0  0  0  0  0  0  0
   52.7910   29.7620   41.7340 C   0  0  0  0  0  0  0  0  0  0  0  0
   51.9360   30.0140   42.7860 C   0  0  0  0  0  0  0  0  0  0  0  0
   51.1330   31.1060   42.7030 C   0  0  0  0  0  0  0  0  0  0  0  0
   45.7448   32.9322   41.9114 H   0  0  0  0  0  0  0  0  0  0  0  0
   46.9204   35.7886   41.1900 H   0  0  0  0  0  0  0  0  0  0  0  0
   46.8697   34.8796   39.9288 H   0  0  0  0  0  0  0  0  0  0  0  0
   48.7386   33.1078   41.7370 H   0  0  0  0  0  0  0  0  0  0  0  0
   44.0683   36.6773   44.6930 H   0  0  0  0  0  0  0  0  0  0  0  0
   45.0212   36.0284   42.4771 H   0  0  0  0  0  0  0  0  0  0  0  0
   44.9255   33.9414   48.4373 H   0  0  0  0  0  0  0  0  0  0  0  0
   47.0750   29.3938   48.9407 H   0  0  0  0  0  0  0  0  0  0  0  0
   47.8268   29.3767   44.7525 H   0  0  0  0  0  0  0  0  0  0  0  0
   48.8083   35.7038   42.4310 H   0  0  0  0  0  0  0  0  0  0  0  0
   48.5775   34.5048   43.7465 H   0  0  0  0  0  0  0  0  0  0  0  0
   50.9070   34.9329   42.0348 H   0  0  0  0  0  0  0  0  0  0  0  0
   50.7304   33.8443   43.4543 H   0  0  0  0  0  0  0  0  0  0  0  0
   52.0283   32.3469   39.7112 H   0  0  0  0  0  0  0  0  0  0  0  0
   53.5382   30.3673   39.7773 H   0  0  0  0  0  0  0  0  0  0  0  0
   53.4493   28.8822   41.7847 H   0  0  0  0  0  0  0  0  0  0  0  0
   51.9053   29.3520   43.6640 H   0  0  0  0  0  0  0  0  0  0  0  0
   50.4461   31.3175   43.5358 H   0  0  0  0  0  0  0  0  0  0  0  0
  1  6  1  0
  2  3  1  0
  2  1  1  0
  3  1  1  0
  3 19  1  0
  4  9  2  0
  5  4  1  0
  6  5  2  0
  6  7  1  0
  7  8  2  0
  8  9  1  0
  8 10  1  0
 10 11  1  0
 11 12  2  0
 13 14  2  0
 13 12  1  0
 15 14  1  0
 16 15  2  0
 17 16  1  0
 17 18  2  0
 18 10  1  0
 18 13  1  0
 20 19  1  0
 21 20  1  0
 22 21  1  0
 22 27  2  0
 23 24  2  0
 23 22  1  0
 24 25  1  0
 25 26  2  0
 27 26  1  0
  1 28  1  6
  2 29  1  0
  2 30  1  0
  3 31  1  6
  4 32  1  0
  5 33  1  0
 11 34  1  0
 14 35  1  0
 16 36  1  0
 19 37  1  0
 19 38  1  0
 20 39  1  0
 20 40  1  0
 23 41  1  0
 24 42  1  0
 25 43  1  0
 26 44  1  0
 27 45  1  0
M  ISO  8  28  13  29  13  30  13  31  13  32  14  33  14  34  14  35  14
M  ISO  8  36  14  37   8  38   8  39   8  40   8  41  14  42  14  43  14
M  ISO  2  44  14  45  14
M  END
>  <minimizedAffinity>  (1) 
-5.8691473

>  <minimizedRMSD>  (1) 
2.25733328

$$$$
