
     RDKit          3D

 47 51  0  0  1  0  0  0  0  0999 V2000
   44.5620   35.6990   44.7720 C   0  0  0  0  0  0  0  0  0  0  0  0
   44.6560   35.2530   43.4520 C   0  0  0  0  0  0  0  0  0  0  0  0
   45.1110   33.9570   43.2250 C   0  0  0  0  0  0  0  0  0  0  0  0
   45.4460   33.1770   44.2640 N   0  0  0  0  0  0  0  0  0  0  0  0
   45.3440   33.6440   45.5450 C   0  0  0  0  0  0  0  0  0  0  0  0
   44.9010   34.9070   45.8130 N   0  0  0  0  0  0  0  0  0  0  0  0
   45.7380   32.7380   46.5750 N   0  0  0  0  0  0  0  0  0  0  0  0
   45.8480   32.9470   47.9170 C   0  0  0  0  0  0  0  0  0  0  0  0
   46.2580   31.8050   48.4830 N   0  0  0  0  0  0  0  0  0  0  0  0
   46.4200   30.8530   47.5430 C   0  0  0  0  0  0  0  0  0  0  0  0
   46.8220   29.5270   47.6170 C   0  0  0  0  0  0  0  0  0  0  0  0
   46.8710   28.8610   46.4420 N   0  0  0  0  0  0  0  0  0  0  0  0
   46.5440   29.4710   45.2880 C   0  0  0  0  0  0  0  0  0  0  0  0
   46.1520   30.7570   45.2080 N   0  0  0  0  0  0  0  0  0  0  0  0
   46.0880   31.4580   46.3440 C   0  0  0  0  0  0  0  0  0  0  0  0
   45.2510   33.4170   41.8510 C   0  0  1  0  0  0  0  0  0  0  0  0
   45.1140   34.2750   40.6620 C   0  0  0  0  0  0  0  0  0  0  0  0
   46.4780   33.7790   41.0850 C   0  0  1  0  0  0  0  0  0  0  0  0
   47.4480   34.8180   41.4160 C   0  0  0  0  0  0  0  0  0  0  0  0
   48.4520   34.9510   40.2640 C   0  0  0  0  0  0  0  0  0  0  0  0
   48.2960   33.8910   39.3810 O   0  0  0  0  0  0  0  0  0  0  0  0
   49.4430   33.8220   37.3230 N   0  0  0  0  0  0  0  0  0  0  0  0
   49.1030   32.6150   36.6120 C   0  0  0  0  0  0  0  0  0  0  0  0
   47.6110   32.4760   36.5840 C   0  0  0  0  0  0  0  0  0  0  0  0
   47.0780   33.6770   37.3280 C   0  0  0  0  0  0  0  0  0  0  0  0
   48.2760   34.2400   38.0540 C   0  0  1  0  0  0  0  0  0  0  0  0
   44.2032   36.7200   44.9691 H   0  0  0  0  0  0  0  0  0  0  0  0
   44.3778   35.9085   42.6136 H   0  0  0  0  0  0  0  0  0  0  0  0
   45.6368   33.8895   48.4435 H   0  0  0  0  0  0  0  0  0  0  0  0
   47.0843   29.0480   48.5719 H   0  0  0  0  0  0  0  0  0  0  0  0
   46.6000   28.8865   44.3578 H   0  0  0  0  0  0  0  0  0  0  0  0
   44.7536   32.4858   42.1599 H   0  0  0  0  0  0  0  0  0  0  0  0
   44.8549   35.3378   40.7774 H   0  0  0  0  0  0  0  0  0  0  0  0
   44.5233   34.2319   39.7351 H   0  0  0  0  0  0  0  0  0  0  0  0
   47.3086   33.1546   40.7242 H   0  0  0  0  0  0  0  0  0  0  0  0
   46.9268   35.7755   41.5630 H   0  0  0  0  0  0  0  0  0  0  0  0
   47.9785   34.5492   42.3414 H   0  0  0  0  0  0  0  0  0  0  0  0
   48.2755   35.8980   39.7329 H   0  0  0  0  0  0  0  0  0  0  0  0
   49.4745   34.9392   40.6695 H   0  0  0  0  0  0  0  0  0  0  0  0
   49.7212   34.5559   36.6560 H   0  0  0  0  0  0  0  0  0  0  0  0
   49.4887   32.6706   35.5833 H   0  0  0  0  0  0  0  0  0  0  0  0
   49.5504   31.7454   37.1157 H   0  0  0  0  0  0  0  0  0  0  0  0
   47.2449   32.4732   35.5467 H   0  0  0  0  0  0  0  0  0  0  0  0
   47.2811   31.5327   37.0437 H   0  0  0  0  0  0  0  0  0  0  0  0
   46.6666   34.4172   36.6259 H   0  0  0  0  0  0  0  0  0  0  0  0
   46.2611   33.4122   38.0154 H   0  0  0  0  0  0  0  0  0  0  0  0
   48.2377   35.3390   38.0801 H   0  0  0  0  0  0  0  0  0  0  0  0
  1  6  2  0
  2  1  1  0
  3  2  2  0
  3  4  1  0
  4  5  2  0
  5  6  1  0
  5  7  1  0
  7  8  1  0
  8  9  2  0
 10 11  2  0
 10  9  1  0
 12 11  1  0
 13 12  2  0
 14 13  1  0
 14 15  2  0
 15  7  1  0
 15 10  1  0
 16  3  1  0
 17 18  1  0
 17 16  1  0
 18 19  1  0
 18 16  1  0
 20 19  1  0
 21 20  1  0
 22 26  1  0
 23 22  1  0
 24 23  1  0
 24 25  1  0
 25 26  1  0
 26 21  1  0
  1 27  1  0
  2 28  1  0
  8 29  1  0
 11 30  1  0
 13 31  1  0
 16 32  1  6
 17 33  1  0
 17 34  1  0
 18 35  1  6
 19 36  1  0
 19 37  1  0
 20 38  1  0
 20 39  1  0
 22 40  1  0
 23 41  1  0
 23 42  1  0
 24 43  1  0
 24 44  1  0
 25 45  1  0
 25 46  1  0
 26 47  1  1
M  ISO  8  27  14  28  14  29  14  30  14  31  14  32  13  33  13  34  13
M  ISO  8  35  13  36   8  37   8  38   8  39   8  40   5  41  13  42  13
M  ISO  5  43  13  44  13  45  13  46  13  47  13
M  END
>  <minimizedAffinity>  (1) 
-5.76661587

>  <minimizedRMSD>  (1) 
1.49292195

$$$$
