
     RDKit          3D

 45 49  0  0  1  0  0  0  0  0999 V2000
   46.6630   33.7850   41.7220 C   0  0  1  0  0  0  0  0  0  0  0  0
   47.2700   34.6870   40.7250 C   0  0  0  0  0  0  0  0  0  0  0  0
   48.1480   33.8770   41.6480 C   0  0  1  0  0  0  0  0  0  0  0  0
   44.7680   35.9770   44.1350 C   0  0  0  0  0  0  0  0  0  0  0  0
   45.3570   35.5450   42.9460 C   0  0  0  0  0  0  0  0  0  0  0  0
   46.0020   34.3110   42.9390 C   0  0  0  0  0  0  0  0  0  0  0  0
   46.0400   33.5760   44.0670 N   0  0  0  0  0  0  0  0  0  0  0  0
   45.4540   34.0300   45.2130 C   0  0  0  0  0  0  0  0  0  0  0  0
   44.8120   35.2330   45.2600 N   0  0  0  0  0  0  0  0  0  0  0  0
   45.5630   33.1800   46.3530 N   0  0  0  0  0  0  0  0  0  0  0  0
   45.1660   33.4010   47.6450 C   0  0  0  0  0  0  0  0  0  0  0  0
   45.4820   32.3140   48.3550 N   0  0  0  0  0  0  0  0  0  0  0  0
   46.0750   31.3870   47.5730 C   0  0  0  0  0  0  0  0  0  0  0  0
   46.5730   30.1200   47.8420 C   0  0  0  0  0  0  0  0  0  0  0  0
   47.1050   29.4710   46.7910 N   0  0  0  0  0  0  0  0  0  0  0  0
   47.1400   30.0380   45.5580 C   0  0  0  0  0  0  0  0  0  0  0  0
   46.6570   31.2630   45.3000 N   0  0  0  0  0  0  0  0  0  0  0  0
   46.1180   31.9480   46.3100 C   0  0  0  0  0  0  0  0  0  0  0  0
   49.0300   34.6570   42.5120 C   0  0  0  0  0  0  0  0  0  0  0  0
   50.4060   33.9810   42.5730 C   0  0  0  0  0  0  0  0  0  0  0  0
   50.2540   32.6010   42.5080 O   0  0  0  0  0  0  0  0  0  0  0  0
   51.1730   31.6790   42.0570 C   0  0  0  0  0  0  0  0  0  0  0  0
   51.4840   30.6410   42.9120 C   0  0  0  0  0  0  0  0  0  0  0  0
   52.3890   29.7000   42.5150 C   0  0  0  0  0  0  0  0  0  0  0  0
   53.0020   29.7520   41.2820 C   0  0  0  0  0  0  0  0  0  0  0  0
   52.6410   30.8230   40.4740 C   0  0  0  0  0  0  0  0  0  0  0  0
   51.7430   31.8150   40.7890 C   0  0  0  0  0  0  0  0  0  0  0  0
   45.9132   32.9836   41.6472 H   0  0  0  0  0  0  0  0  0  0  0  0
   47.1960   35.7771   40.8519 H   0  0  0  0  0  0  0  0  0  0  0  0
   47.1900   34.8090   39.6347 H   0  0  0  0  0  0  0  0  0  0  0  0
   48.9120   33.0860   41.6246 H   0  0  0  0  0  0  0  0  0  0  0  0
   44.2544   36.9495   44.1558 H   0  0  0  0  0  0  0  0  0  0  0  0
   45.3129   36.1635   42.0374 H   0  0  0  0  0  0  0  0  0  0  0  0
   44.6762   34.3082   48.0284 H   0  0  0  0  0  0  0  0  0  0  0  0
   46.5352   29.6761   48.8477 H   0  0  0  0  0  0  0  0  0  0  0  0
   47.5856   29.4658   44.7309 H   0  0  0  0  0  0  0  0  0  0  0  0
   49.1375   35.6736   42.1059 H   0  0  0  0  0  0  0  0  0  0  0  0
   48.6011   34.7124   43.5234 H   0  0  0  0  0  0  0  0  0  0  0  0
   51.0185   34.3216   41.7251 H   0  0  0  0  0  0  0  0  0  0  0  0
   50.9014   34.2485   43.5180 H   0  0  0  0  0  0  0  0  0  0  0  0
   51.0081   30.5731   43.9014 H   0  0  0  0  0  0  0  0  0  0  0  0
   52.6365   28.8754   43.1996 H   0  0  0  0  0  0  0  0  0  0  0  0
   53.7305   28.9941   40.9582 H   0  0  0  0  0  0  0  0  0  0  0  0
   53.1205   30.8830   39.4858 H   0  0  0  0  0  0  0  0  0  0  0  0
   51.4959   32.6404   40.1051 H   0  0  0  0  0  0  0  0  0  0  0  0
  1  6  1  0
  2  3  1  0
  2  1  1  0
  3  1  1  0
  3 19  1  0
  4  9  2  0
  5  4  1  0
  6  5  2  0
  6  7  1  0
  7  8  2  0
  8  9  1  0
  8 10  1  0
 10 11  1  0
 11 12  2  0
 13 14  2  0
 13 12  1  0
 15 14  1  0
 16 15  2  0
 17 16  1  0
 17 18  2  0
 18 10  1  0
 18 13  1  0
 19 20  1  0
 21 20  1  0
 22 21  1  0
 22 23  2  0
 24 23  1  0
 25 24  2  0
 26 27  2  0
 26 25  1  0
 27 22  1  0
  1 28  1  6
  2 29  1  0
  2 30  1  0
  3 31  1  6
  4 32  1  0
  5 33  1  0
 11 34  1  0
 14 35  1  0
 16 36  1  0
 19 37  1  0
 19 38  1  0
 20 39  1  0
 20 40  1  0
 23 41  1  0
 24 42  1  0
 25 43  1  0
 26 44  1  0
 27 45  1  0
M  ISO  8  28  13  29  13  30  13  31  13  32  14  33  14  34  14  35  14
M  ISO  8  36  14  37   8  38   8  39   8  40   8  41  14  42  14  43  14
M  ISO  2  44  14  45  14
M  END
>  <minimizedAffinity>  (1) 
-5.73599148

>  <minimizedRMSD>  (1) 
2.39786816

$$$$
