
     RDKit          3D

 41 45  0  0  1  0  0  0  0  0999 V2000
   44.4750   35.7510   44.8130 C   0  0  0  0  0  0  0  0  0  0  0  0
   44.7840   35.3370   43.5160 C   0  0  0  0  0  0  0  0  0  0  0  0
   45.3960   34.0990   43.3500 C   0  0  0  0  0  0  0  0  0  0  0  0
   45.6730   33.3410   44.4260 N   0  0  0  0  0  0  0  0  0  0  0  0
   45.3590   33.7770   45.6800 C   0  0  0  0  0  0  0  0  0  0  0  0
   44.7570   34.9850   45.8880 N   0  0  0  0  0  0  0  0  0  0  0  0
   45.7080   32.9020   46.7590 N   0  0  0  0  0  0  0  0  0  0  0  0
   45.6040   33.1010   48.1110 C   0  0  0  0  0  0  0  0  0  0  0  0
   46.0580   32.0050   48.7110 N   0  0  0  0  0  0  0  0  0  0  0  0
   46.4600   31.0840   47.8010 C   0  0  0  0  0  0  0  0  0  0  0  0
   46.9940   29.8150   47.9340 C   0  0  0  0  0  0  0  0  0  0  0  0
   47.2800   29.1830   46.7830 N   0  0  0  0  0  0  0  0  0  0  0  0
   47.0500   29.7720   45.5810 C   0  0  0  0  0  0  0  0  0  0  0  0
   46.5310   31.0050   45.4540 N   0  0  0  0  0  0  0  0  0  0  0  0
   46.2290   31.6760   46.5680 C   0  0  0  0  0  0  0  0  0  0  0  0
   45.7660   33.5950   42.0080 C   0  0  1  0  0  0  0  0  0  0  0  0
   45.7880   34.4710   40.8270 C   0  0  0  0  0  0  0  0  0  0  0  0
   47.0870   34.0050   41.4520 C   0  0  1  0  0  0  0  0  0  0  0  0
   47.9580   35.0670   41.9430 C   0  0  0  0  0  0  0  0  0  0  0  0
   49.3620   34.4900   42.1860 C   0  0  0  0  0  0  0  0  0  0  0  0
   49.3630   33.1370   41.9440 O   0  0  0  0  0  0  0  0  0  0  0  0
   50.1240   32.4290   41.0290 C   0  0  0  0  0  0  0  0  0  0  0  0
   49.5930   31.9370   39.7390 C   0  0  0  0  0  0  0  0  0  0  0  0
   51.0680   31.1230   39.0570 S   0  0  0  0  0  0  0  0  0  0  0  0
   52.1320   31.5620   40.5690 C   0  0  0  0  0  0  0  0  0  0  0  0
   51.4050   32.1730   41.3170 N   0  0  0  0  0  0  0  0  0  0  0  0
   43.9892   36.7265   44.9627 H   0  0  0  0  0  0  0  0  0  0  0  0
   44.5499   35.9724   42.6491 H   0  0  0  0  0  0  0  0  0  0  0  0
   45.2161   34.0022   48.6084 H   0  0  0  0  0  0  0  0  0  0  0  0
   47.1727   29.3538   48.9165 H   0  0  0  0  0  0  0  0  0  0  0  0
   47.3006   29.2128   44.6675 H   0  0  0  0  0  0  0  0  0  0  0  0
   45.2548   32.6443   42.2196 H   0  0  0  0  0  0  0  0  0  0  0  0
   45.4806   35.5234   40.9166 H   0  0  0  0  0  0  0  0  0  0  0  0
   45.3503   34.4295   39.8187 H   0  0  0  0  0  0  0  0  0  0  0  0
   47.9830   33.4105   41.2199 H   0  0  0  0  0  0  0  0  0  0  0  0
   48.0145   35.8726   41.1961 H   0  0  0  0  0  0  0  0  0  0  0  0
   47.5554   35.4735   42.8825 H   0  0  0  0  0  0  0  0  0  0  0  0
   50.0792   34.9811   41.5119 H   0  0  0  0  0  0  0  0  0  0  0  0
   49.6499   34.6697   43.2323 H   0  0  0  0  0  0  0  0  0  0  0  0
   48.5846   32.0363   39.3110 H   0  0  0  0  0  0  0  0  0  0  0  0
   53.1909   31.3118   40.7303 H   0  0  0  0  0  0  0  0  0  0  0  0
  1  6  2  0
  2  1  1  0
  3  2  2  0
  3  4  1  0
  4  5  2  0
  5  6  1  0
  5  7  1  0
  7  8  1  0
  8  9  2  0
 10 11  2  0
 10  9  1  0
 12 11  1  0
 13 12  2  0
 14 13  1  0
 14 15  2  0
 15  7  1  0
 15 10  1  0
 16  3  1  0
 17 18  1  0
 17 16  1  0
 18 19  1  0
 18 16  1  0
 19 20  1  0
 21 20  1  0
 22 26  1  0
 22 21  1  0
 23 22  2  0
 24 23  1  0
 24 25  1  0
 25 26  2  0
  1 27  1  0
  2 28  1  0
  8 29  1  0
 11 30  1  0
 13 31  1  0
 16 32  1  6
 17 33  1  0
 17 34  1  0
 18 35  1  6
 19 36  1  0
 19 37  1  0
 20 38  1  0
 20 39  1  0
 23 40  1  0
 25 41  1  0
M  ISO  8  27  14  28  14  29  14  30  14  31  14  32  13  33  13  34  13
M  ISO  7  35  13  36   8  37   8  38   8  39   8  40  14  41  14
M  END
>  <minimizedAffinity>  (1) 
-5.53658962

>  <minimizedRMSD>  (1) 
1.2405498

$$$$
