
     RDKit          3D

 42 46  0  0  1  0  0  0  0  0999 V2000
   45.8820   33.5610   42.1770 C   0  0  1  0  0  0  0  0  0  0  0  0
   45.7090   34.4900   41.0480 C   0  0  0  0  0  0  0  0  0  0  0  0
   47.0940   34.1640   41.5560 C   0  0  1  0  0  0  0  0  0  0  0  0
   44.5280   35.3770   45.1780 C   0  0  0  0  0  0  0  0  0  0  0  0
   44.8010   35.0720   43.8420 C   0  0  0  0  0  0  0  0  0  0  0  0
   45.5470   33.9360   43.5620 C   0  0  0  0  0  0  0  0  0  0  0  0
   45.9840   33.1670   44.5760 N   0  0  0  0  0  0  0  0  0  0  0  0
   45.7040   33.4860   45.8650 C   0  0  0  0  0  0  0  0  0  0  0  0
   44.9770   34.5880   46.1880 N   0  0  0  0  0  0  0  0  0  0  0  0
   46.2220   32.6160   46.8760 N   0  0  0  0  0  0  0  0  0  0  0  0
   46.2030   32.7180   48.2290 C   0  0  0  0  0  0  0  0  0  0  0  0
   46.8160   31.6520   48.7440 N   0  0  0  0  0  0  0  0  0  0  0  0
   47.2420   30.8440   47.7560 C   0  0  0  0  0  0  0  0  0  0  0  0
   47.9280   29.6270   47.7630 C   0  0  0  0  0  0  0  0  0  0  0  0
   48.1970   29.0920   46.5580 N   0  0  0  0  0  0  0  0  0  0  0  0
   47.8140   29.7170   45.4140 C   0  0  0  0  0  0  0  0  0  0  0  0
   47.1550   30.8840   45.4000 N   0  0  0  0  0  0  0  0  0  0  0  0
   46.8680   31.4480   46.5700 C   0  0  0  0  0  0  0  0  0  0  0  0
   47.8570   35.3020   42.0620 C   0  0  0  0  0  0  0  0  0  0  0  0
   49.3110   34.8450   42.3190 C   0  0  0  0  0  0  0  0  0  0  0  0
   49.5540   33.6840   41.6400 O   0  0  0  0  0  0  0  0  0  0  0  0
   50.4270   32.6840   41.7230 C   0  0  0  0  0  0  0  0  0  0  0  0
   49.8950   31.7070   42.5790 C   0  0  0  0  0  0  0  0  0  0  0  0
   50.8180   30.6490   42.6670 C   0  0  0  0  0  0  0  0  0  0  0  0
   51.8560   31.0350   41.8650 N   0  0  0  0  0  0  0  0  0  0  0  0
   51.6020   32.1950   41.3440 N   0  0  0  0  0  0  0  0  0  0  0  0
   45.5121   32.5431   42.3693 H   0  0  0  0  0  0  0  0  0  0  0  0
   45.2815   35.4892   41.2180 H   0  0  0  0  0  0  0  0  0  0  0  0
   45.2071   34.4421   40.0703 H   0  0  0  0  0  0  0  0  0  0  0  0
   48.0360   33.7039   41.2229 H   0  0  0  0  0  0  0  0  0  0  0  0
   43.9377   36.2740   45.4164 H   0  0  0  0  0  0  0  0  0  0  0  0
   44.4330   35.7176   43.0309 H   0  0  0  0  0  0  0  0  0  0  0  0
   45.7565   33.5423   48.8045 H   0  0  0  0  0  0  0  0  0  0  0  0
   48.2306   29.1348   48.6990 H   0  0  0  0  0  0  0  0  0  0  0  0
   48.0567   29.2419   44.4520 H   0  0  0  0  0  0  0  0  0  0  0  0
   47.8492   36.1133   41.3192 H   0  0  0  0  0  0  0  0  0  0  0  0
   47.4079   35.6703   42.9962 H   0  0  0  0  0  0  0  0  0  0  0  0
   50.0061   35.6240   41.9725 H   0  0  0  0  0  0  0  0  0  0  0  0
   49.4553   34.6750   43.3962 H   0  0  0  0  0  0  0  0  0  0  0  0
   48.9237   31.7596   43.0926 H   0  0  0  0  0  0  0  0  0  0  0  0
   50.7255   29.7206   43.2496 H   0  0  0  0  0  0  0  0  0  0  0  0
   52.7118   30.4863   41.6994 H   0  0  0  0  0  0  0  0  0  0  0  0
  1  6  1  0
  2  3  1  0
  2  1  1  0
  3 19  1  0
  3  1  1  0
  4  9  2  0
  5  4  1  0
  6  5  2  0
  6  7  1  0
  7  8  2  0
  8  9  1  0
  8 10  1  0
 10 11  1  0
 11 12  2  0
 13 14  2  0
 13 12  1  0
 15 14  1  0
 16 15  2  0
 17 16  1  0
 17 18  2  0
 18 10  1  0
 18 13  1  0
 19 20  1  0
 21 22  1  0
 21 20  1  0
 22 23  1  0
 23 24  2  0
 25 24  1  0
 26 22  2  0
 26 25  1  0
  1 27  1  6
  2 28  1  0
  2 29  1  0
  3 30  1  6
  4 31  1  0
  5 32  1  0
 11 33  1  0
 14 34  1  0
 16 35  1  0
 19 36  1  0
 19 37  1  0
 20 38  1  0
 20 39  1  0
 23 40  1  0
 24 41  1  0
 25 42  1  0
M  ISO  8  27  13  28  13  29  13  30  13  31  14  32  14  33  14  34  14
M  ISO  8  35  14  36   8  37   8  38   8  39   8  40  14  41  14  42   9
M  END
>  <minimizedAffinity>  (1) 
-5.46445656

>  <minimizedRMSD>  (1) 
1.69733238

$$$$
