
     RDKit          3D

 42 46  0  0  1  0  0  0  0  0999 V2000
   44.5530   35.4990   45.0760 C   0  0  0  0  0  0  0  0  0  0  0  0
   44.4580   35.1970   43.7190 C   0  0  0  0  0  0  0  0  0  0  0  0
   44.9670   33.9780   43.2810 C   0  0  0  0  0  0  0  0  0  0  0  0
   45.5310   33.1300   44.1660 N   0  0  0  0  0  0  0  0  0  0  0  0
   45.6040   33.4640   45.4890 C   0  0  0  0  0  0  0  0  0  0  0  0
   45.1170   34.6500   45.9580 N   0  0  0  0  0  0  0  0  0  0  0  0
   46.2320   32.5140   46.3450 N   0  0  0  0  0  0  0  0  0  0  0  0
   46.5510   32.5990   47.6780 C   0  0  0  0  0  0  0  0  0  0  0  0
   47.1450   31.4550   48.0460 N   0  0  0  0  0  0  0  0  0  0  0  0
   47.2250   30.6170   46.9830 C   0  0  0  0  0  0  0  0  0  0  0  0
   47.7340   29.3460   46.8270 C   0  0  0  0  0  0  0  0  0  0  0  0
   47.6490   28.7920   45.6150 N   0  0  0  0  0  0  0  0  0  0  0  0
   47.0810   29.4680   44.5930 C   0  0  0  0  0  0  0  0  0  0  0  0
   46.5770   30.7130   44.7230 N   0  0  0  0  0  0  0  0  0  0  0  0
   46.6450   31.2960   45.9160 C   0  0  0  0  0  0  0  0  0  0  0  0
   44.9260   33.5780   41.8540 C   0  0  1  0  0  0  0  0  0  0  0  0
   44.7660   34.5790   40.7820 C   0  0  0  0  0  0  0  0  0  0  0  0
   46.1020   33.9110   41.0040 C   0  0  1  0  0  0  0  0  0  0  0  0
   47.2010   34.8080   41.3320 C   0  0  0  0  0  0  0  0  0  0  0  0
   48.2960   34.6980   40.2830 C   0  0  0  0  0  0  0  0  0  0  0  0
   48.3950   33.3600   39.8730 O   0  0  0  0  0  0  0  0  0  0  0  0
   48.5220   33.0680   38.4770 C   0  0  0  0  0  0  0  0  0  0  0  0
   48.2760   33.9430   37.3770 C   0  0  0  0  0  0  0  0  0  0  0  0
   48.4940   33.3440   36.1920 C   0  0  0  0  0  0  0  0  0  0  0  0
   48.8940   32.0800   36.0440 C   0  0  0  0  0  0  0  0  0  0  0  0
   49.0640   31.4010   37.7710 S   0  0  0  0  0  0  0  0  0  0  0  0
   44.1559   36.4588   45.4382 H   0  0  0  0  0  0  0  0  0  0  0  0
   43.9938   35.9022   43.0139 H   0  0  0  0  0  0  0  0  0  0  0  0
   46.3526   33.4602   48.3330 H   0  0  0  0  0  0  0  0  0  0  0  0
   48.1932   28.8079   47.6694 H   0  0  0  0  0  0  0  0  0  0  0  0
   47.0267   28.9808   43.6083 H   0  0  0  0  0  0  0  0  0  0  0  0
   44.3728   32.6638   42.1153 H   0  0  0  0  0  0  0  0  0  0  0  0
   44.6325   35.6410   41.0358 H   0  0  0  0  0  0  0  0  0  0  0  0
   44.0885   34.6998   39.9238 H   0  0  0  0  0  0  0  0  0  0  0  0
   46.8239   33.2559   40.4945 H   0  0  0  0  0  0  0  0  0  0  0  0
   46.8292   35.8428   41.3627 H   0  0  0  0  0  0  0  0  0  0  0  0
   47.6129   34.5290   42.3131 H   0  0  0  0  0  0  0  0  0  0  0  0
   48.0461   35.3320   39.4195 H   0  0  0  0  0  0  0  0  0  0  0  0
   49.2548   35.0316   40.7065 H   0  0  0  0  0  0  0  0  0  0  0  0
   47.9462   34.9868   37.4853 H   0  0  0  0  0  0  0  0  0  0  0  0
   48.3309   33.9385   35.2810 H   0  0  0  0  0  0  0  0  0  0  0  0
   49.0839   31.5492   35.0994 H   0  0  0  0  0  0  0  0  0  0  0  0
  1  6  2  0
  2  1  1  0
  3  2  2  0
  3  4  1  0
  4  5  2  0
  5  6  1  0
  5  7  1  0
  7  8  1  0
  8  9  2  0
 10  9  1  0
 11 10  2  0
 12 11  1  0
 13 14  1  0
 13 12  2  0
 14 15  2  0
 15  7  1  0
 15 10  1  0
 16  3  1  0
 17 18  1  0
 17 16  1  0
 18 19  1  0
 18 16  1  0
 20 19  1  0
 21 20  1  0
 22 21  1  0
 23 22  2  0
 24 23  1  0
 25 24  2  0
 25 26  1  0
 26 22  1  0
  1 27  1  0
  2 28  1  0
  8 29  1  0
 11 30  1  0
 13 31  1  0
 16 32  1  1
 17 33  1  0
 17 34  1  0
 18 35  1  6
 19 36  1  0
 19 37  1  0
 20 38  1  0
 20 39  1  0
 23 40  1  0
 24 41  1  0
 25 42  1  0
M  ISO  8  27  14  28  14  29  14  30  14  31  14  32  13  33  13  34  13
M  ISO  8  35  13  36   8  37   8  38   8  39   8  40  14  41  14  42  14
M  END
>  <minimizedAffinity>  (1) 
-5.15279198

>  <minimizedRMSD>  (1) 
1.72084105

$$$$
