
     RDKit          3D

 23 23  0  0  0  0  0  0  0  0999 V2000
   46.7170   34.8420   41.6630 C   0  0  0  0  0  0  0  0  0  0  0  0
   45.7080   34.1170   40.9670 C   0  0  0  0  0  0  0  0  0  0  0  0
   44.4050   34.1880   41.4360 C   0  0  0  0  0  0  0  0  0  0  0  0
   44.1280   34.9410   42.5390 N   0  0  0  0  0  0  0  0  0  0  0  0
   45.1240   35.6130   43.1650 C   0  0  0  0  0  0  0  0  0  0  0  0
   46.3900   35.5680   42.7430 N   0  0  0  0  0  0  0  0  0  0  0  0
   48.0910   34.7120   41.0920 C   0  0  0  0  0  0  0  0  0  0  0  0
   48.1170   34.4740   39.6150 C   0  0  0  0  0  0  0  0  0  0  0  0
   48.6420   33.4270   41.7240 C   0  0  0  0  0  0  0  0  0  0  0  0
   48.9960   35.8380   41.5120 C   0  0  0  0  0  0  0  0  0  0  0  0
   46.1200   33.1420   39.5250 S   0  0  0  0  0  0  0  0  0  0  0  0
   43.6007   33.6411   40.9223 H   0  0  0  0  0  0  0  0  0  0  0  0
   44.8813   36.2168   44.0519 H   0  0  0  0  0  0  0  0  0  0  0  0
   48.2345   33.3980   39.4190 H   0  0  0  0  0  0  0  0  0  0  0  0
   47.1750   34.8270   39.1701 H   0  0  0  0  0  0  0  0  0  0  0  0
   48.9606   35.0221   39.1701 H   0  0  0  0  0  0  0  0  0  0  0  0
   48.6053   33.5125   42.8201 H   0  0  0  0  0  0  0  0  0  0  0  0
   48.0324   32.5697   41.4025 H   0  0  0  0  0  0  0  0  0  0  0  0
   49.6833   33.2776   41.4025 H   0  0  0  0  0  0  0  0  0  0  0  0
   49.0352   35.8868   42.6102 H   0  0  0  0  0  0  0  0  0  0  0  0
   50.0073   35.6626   41.1164 H   0  0  0  0  0  0  0  0  0  0  0  0
   48.6072   36.7879   41.1164 H   0  0  0  0  0  0  0  0  0  0  0  0
   46.6305   31.9340   39.9212 H   0  0  0  0  0  0  0  0  0  0  0  0
  1  6  2  0
  2  3  2  0
  2  1  1  0
  3  4  1  0
  4  5  2  0
  6  5  1  0
  7 10  1  0
  7  1  1  0
  7  9  1  0
  8  7  1  0
 11  2  1  0
  3 12  1  0
  5 13  1  0
  8 14  1  0
  8 15  1  0
  8 16  1  0
  9 17  1  0
  9 18  1  0
  9 19  1  0
 10 20  1  0
 10 21  1  0
 10 22  1  0
 11 23  1  0
M  ISO  8  12  14  13  14  14   8  15   8  16   8  17   8  18   8  19   8
M  ISO  4  20   8  21   8  22   8  23  11
M  END
>  <minimizedAffinity>  (1) 
-3.82079291

>  <minimizedRMSD>  (1) 
4.6388278

$$$$
