
     RDKit          3D

 34 36  0  0  0  0  0  0  0  0999 V2000
   45.8860   34.3790   41.2350 C   0  0  0  0  0  0  0  0  0  0  0  0
   44.4760   34.3970   41.1710 C   0  0  0  0  0  0  0  0  0  0  0  0
   43.7690   35.1050   42.1270 C   0  0  0  0  0  0  0  0  0  0  0  0
   44.4630   35.7660   43.1110 N   0  0  0  0  0  0  0  0  0  0  0  0
   45.8120   35.7180   43.1290 C   0  0  0  0  0  0  0  0  0  0  0  0
   46.5150   35.0480   42.2230 N   0  0  0  0  0  0  0  0  0  0  0  0
   46.5490   33.5880   40.1450 C   0  0  0  0  0  0  0  0  0  0  0  0
   45.6800   33.2250   39.0090 C   0  0  0  0  0  0  0  0  0  0  0  0
   46.9630   32.2910   40.8490 C   0  0  0  0  0  0  0  0  0  0  0  0
   47.8600   34.2400   39.7310 C   0  0  0  0  0  0  0  0  0  0  0  0
   43.6150   33.4950   39.9170 S   0  0  0  0  0  0  0  0  0  0  0  0
   38.9610   33.0360   41.4620 N   0  0  0  0  0  0  0  0  0  0  0  0
   39.8380   32.1630   42.0020 C   0  0  0  0  0  0  0  0  0  0  0  0
   41.0580   32.4100   41.4870 N   0  0  0  0  0  0  0  0  0  0  0  0
   40.9490   33.4350   40.6260 C   0  0  0  0  0  0  0  0  0  0  0  0
   41.9380   34.0290   39.8680 C   0  0  0  0  0  0  0  0  0  0  0  0
   41.5370   35.0600   39.0740 N   0  0  0  0  0  0  0  0  0  0  0  0
   40.2260   35.4410   39.0670 C   0  0  0  0  0  0  0  0  0  0  0  0
   39.2540   34.8650   39.8050 N   0  0  0  0  0  0  0  0  0  0  0  0
   39.6260   33.8330   40.6070 C   0  0  0  0  0  0  0  0  0  0  0  0
   42.6698   35.1379   42.0994 H   0  0  0  0  0  0  0  0  0  0  0  0
   46.3497   36.2545   43.9247 H   0  0  0  0  0  0  0  0  0  0  0  0
   44.7274   32.8271   39.3886 H   0  0  0  0  0  0  0  0  0  0  0  0
   45.4862   34.1174   38.3958 H   0  0  0  0  0  0  0  0  0  0  0  0
   46.1786   32.4599   38.3958 H   0  0  0  0  0  0  0  0  0  0  0  0
   46.9172   32.4345   41.9386 H   0  0  0  0  0  0  0  0  0  0  0  0
   46.2789   31.4807   40.5568 H   0  0  0  0  0  0  0  0  0  0  0  0
   47.9901   32.0269   40.5568 H   0  0  0  0  0  0  0  0  0  0  0  0
   48.4286   34.5228   40.6292 H   0  0  0  0  0  0  0  0  0  0  0  0
   48.4495   33.5301   39.1323 H   0  0  0  0  0  0  0  0  0  0  0  0
   47.6497   35.1385   39.1323 H   0  0  0  0  0  0  0  0  0  0  0  0
   37.9533   33.0835   41.6697 H   0  0  0  0  0  0  0  0  0  0  0  0
   39.5970   31.3820   42.7381 H   0  0  0  0  0  0  0  0  0  0  0  0
   39.9414   36.2780   38.4125 H   0  0  0  0  0  0  0  0  0  0  0  0
  1  6  2  0
  2  1  1  0
  2  3  2  0
  3  4  1  0
  4  5  2  0
  6  5  1  0
  7  9  1  0
  7  1  1  0
  8  7  1  0
 10  7  1  0
 11  2  1  0
 12 13  1  0
 14 13  2  0
 15 14  1  0
 16 11  1  0
 16 15  2  0
 17 16  1  0
 18 17  2  0
 18 19  1  0
 19 20  2  0
 20 15  1  0
 20 12  1  0
  3 21  1  0
  5 22  1  0
  8 23  1  0
  8 24  1  0
  8 25  1  0
  9 26  1  0
  9 27  1  0
  9 28  1  0
 10 29  1  0
 10 30  1  0
 10 31  1  0
 12 32  1  0
 13 33  1  0
 18 34  1  0
M  ISO  8  21  14  22  14  23   8  24   8  25   8  26   8  27   8  28   8
M  ISO  6  29   8  30   8  31   8  32   9  33  14  34  14
M  END
>  <minimizedAffinity>  (1) 
-5.21802855

>  <minimizedRMSD>  (1) 
2.95092154

$$$$
