
     RDKit          3D

 30 31  0  0  0  0  0  0  0  0999 V2000
   46.3390   34.6320   43.1740 C   0  0  0  0  0  0  0  0  0  0  0  0
   46.0610   34.0010   44.4030 C   0  0  0  0  0  0  0  0  0  0  0  0
   45.1340   34.6030   45.2660 C   0  0  0  0  0  0  0  0  0  0  0  0
   44.5320   35.7810   44.8900 N   0  0  0  0  0  0  0  0  0  0  0  0
   44.8450   36.3290   43.7010 C   0  0  0  0  0  0  0  0  0  0  0  0
   45.7200   35.7810   42.8610 N   0  0  0  0  0  0  0  0  0  0  0  0
   47.3450   33.9380   42.3400 C   0  0  0  0  0  0  0  0  0  0  0  0
   47.3070   32.4460   42.4140 C   0  0  0  0  0  0  0  0  0  0  0  0
   48.6910   34.3440   42.9280 C   0  0  0  0  0  0  0  0  0  0  0  0
   47.3260   34.4530   40.9150 C   0  0  0  0  0  0  0  0  0  0  0  0
   46.8960   32.5510   44.9350 S   0  0  0  0  0  0  0  0  0  0  0  0
   44.9320   29.9960   46.8610 N   0  0  0  0  0  0  0  0  0  0  0  0
   45.5230   30.5930   45.8360 N   0  0  0  0  0  0  0  0  0  0  0  0
   46.0800   31.7410   46.3190 C   0  0  0  0  0  0  0  0  0  0  0  0
   45.7920   31.7940   47.6610 C   0  0  0  0  0  0  0  0  0  0  0  0
   45.0610   30.6820   48.0070 C   0  0  0  0  0  0  0  0  0  0  0  0
   44.8910   34.1382   46.2329 H   0  0  0  0  0  0  0  0  0  0  0  0
   44.3563   37.2708   43.4109 H   0  0  0  0  0  0  0  0  0  0  0  0
   47.2990   32.1312   43.4680 H   0  0  0  0  0  0  0  0  0  0  0  0
   46.3992   32.0771   41.9142 H   0  0  0  0  0  0  0  0  0  0  0  0
   48.1949   32.0314   41.9142 H   0  0  0  0  0  0  0  0  0  0  0  0
   48.6317   34.3261   44.0263 H   0  0  0  0  0  0  0  0  0  0  0  0
   49.4658   33.6396   42.5911 H   0  0  0  0  0  0  0  0  0  0  0  0
   48.9470   35.3593   42.5911 H   0  0  0  0  0  0  0  0  0  0  0  0
   47.2854   35.5522   40.9229 H   0  0  0  0  0  0  0  0  0  0  0  0
   48.2369   34.1234   40.3938 H   0  0  0  0  0  0  0  0  0  0  0  0
   46.4418   34.0572   40.3938 H   0  0  0  0  0  0  0  0  0  0  0  0
   44.4276   29.1011   46.7860 H   0  0  0  0  0  0  0  0  0  0  0  0
   46.0971   32.5968   48.3483 H   0  0  0  0  0  0  0  0  0  0  0  0
   44.6699   30.4149   48.9998 H   0  0  0  0  0  0  0  0  0  0  0  0
  1  2  2  0
  2 11  1  0
  2  3  1  0
  4  3  2  0
  5  4  1  0
  6  1  1  0
  6  5  2  0
  7  8  1  0
  7  9  1  0
  7  1  1  0
 10  7  1  0
 11 14  1  0
 12 16  1  0
 13 14  2  0
 13 12  1  0
 14 15  1  0
 15 16  2  0
  3 17  1  0
  5 18  1  0
  8 19  1  0
  8 20  1  0
  8 21  1  0
  9 22  1  0
  9 23  1  0
  9 24  1  0
 10 25  1  0
 10 26  1  0
 10 27  1  0
 12 28  1  0
 15 29  1  0
 16 30  1  0
M  ISO  8  17  14  18  14  19   8  20   8  21   8  22   8  23   8  24   8
M  ISO  6  25   8  26   8  27   8  28   9  29  14  30  14
M  END
>  <minimizedAffinity>  (1) 
-4.66109085

>  <minimizedRMSD>  (1) 
6.36646461

$$$$
