
     RDKit          3D

 31 32  0  0  0  0  0  0  0  0999 V2000
   46.1960   34.4780   43.4060 C   0  0  0  0  0  0  0  0  0  0  0  0
   46.1500   33.7650   44.6180 C   0  0  0  0  0  0  0  0  0  0  0  0
   45.3190   34.2410   45.6380 C   0  0  0  0  0  0  0  0  0  0  0  0
   44.5810   35.3830   45.4190 N   0  0  0  0  0  0  0  0  0  0  0  0
   44.6740   36.0180   44.2260 C   0  0  0  0  0  0  0  0  0  0  0  0
   45.4560   35.5880   43.2350 N   0  0  0  0  0  0  0  0  0  0  0  0
   47.1290   33.8950   42.4120 C   0  0  0  0  0  0  0  0  0  0  0  0
   47.2870   32.4320   42.4360 C   0  0  0  0  0  0  0  0  0  0  0  0
   48.5100   34.4850   42.7710 C   0  0  0  0  0  0  0  0  0  0  0  0
   46.8520   34.4440   41.0190 C   0  0  0  0  0  0  0  0  0  0  0  0
   47.1340   32.3380   44.9270 S   0  0  0  0  0  0  0  0  0  0  0  0
   46.1420   31.1630   45.8400 C   0  0  0  0  0  0  0  0  0  0  0  0
   45.9770   31.2190   47.2120 C   0  0  0  0  0  0  0  0  0  0  0  0
   45.2070   30.3020   47.9000 C   0  0  0  0  0  0  0  0  0  0  0  0
   44.6030   29.3200   47.1700 N   0  0  0  0  0  0  0  0  0  0  0  0
   44.7540   29.2530   45.8430 C   0  0  0  0  0  0  0  0  0  0  0  0
   45.5140   30.1580   45.1630 N   0  0  0  0  0  0  0  0  0  0  0  0
   45.2561   33.7113   46.6000 H   0  0  0  0  0  0  0  0  0  0  0  0
   44.0780   36.9289   44.0676 H   0  0  0  0  0  0  0  0  0  0  0  0
   47.3245   32.0843   43.4789 H   0  0  0  0  0  0  0  0  0  0  0  0
   46.4343   31.9627   41.9235 H   0  0  0  0  0  0  0  0  0  0  0  0
   48.2202   32.1555   41.9235 H   0  0  0  0  0  0  0  0  0  0  0  0
   48.6162   34.5304   43.8649 H   0  0  0  0  0  0  0  0  0  0  0  0
   49.3017   33.8465   42.3519 H   0  0  0  0  0  0  0  0  0  0  0  0
   48.5960   35.4984   42.3519 H   0  0  0  0  0  0  0  0  0  0  0  0
   46.3579   35.4232   41.1024 H   0  0  0  0  0  0  0  0  0  0  0  0
   47.8008   34.5573   40.4742 H   0  0  0  0  0  0  0  0  0  0  0  0
   46.1971   33.7481   40.4742 H   0  0  0  0  0  0  0  0  0  0  0  0
   46.4763   32.0216   47.7746 H   0  0  0  0  0  0  0  0  0  0  0  0
   45.0855   30.3608   48.9917 H   0  0  0  0  0  0  0  0  0  0  0  0
   44.2526   28.4477   45.2862 H   0  0  0  0  0  0  0  0  0  0  0  0
  1  2  2  0
  2 11  1  0
  2  3  1  0
  4  3  2  0
  5  4  1  0
  6  1  1  0
  6  5  2  0
  7  8  1  0
  7  9  1  0
  7  1  1  0
 10  7  1  0
 11 12  1  0
 12 13  2  0
 13 14  1  0
 15 14  2  0
 16 15  1  0
 17 12  1  0
 17 16  2  0
  3 18  1  0
  5 19  1  0
  8 20  1  0
  8 21  1  0
  8 22  1  0
  9 23  1  0
  9 24  1  0
  9 25  1  0
 10 26  1  0
 10 27  1  0
 10 28  1  0
 13 29  1  0
 14 30  1  0
 16 31  1  0
M  ISO  8  18  14  19  14  20   8  21   8  22   8  23   8  24   8  25   8
M  ISO  6  26   8  27   8  28   8  29  14  30  14  31  14
M  END
>  <minimizedAffinity>  (1) 
-4.59155321

>  <minimizedRMSD>  (1) 
6.87893248

$$$$
