
     RDKit          3D

 38 39  0  0  0  0  0  0  0  0999 V2000
   46.7780   34.8290   41.6070 C   0  0  0  0  0  0  0  0  0  0  0  0
   45.8050   34.0860   40.8830 C   0  0  0  0  0  0  0  0  0  0  0  0
   44.4850   34.1260   41.3350 C   0  0  0  0  0  0  0  0  0  0  0  0
   44.1790   34.8680   42.4480 N   0  0  0  0  0  0  0  0  0  0  0  0
   45.1470   35.5500   43.0920 C   0  0  0  0  0  0  0  0  0  0  0  0
   46.4150   35.5290   42.6800 N   0  0  0  0  0  0  0  0  0  0  0  0
   48.1620   34.7280   41.0360 C   0  0  0  0  0  0  0  0  0  0  0  0
   48.2180   34.5690   39.5550 C   0  0  0  0  0  0  0  0  0  0  0  0
   48.7320   33.4650   41.6570 C   0  0  0  0  0  0  0  0  0  0  0  0
   49.0200   35.8790   41.5360 C   0  0  0  0  0  0  0  0  0  0  0  0
   46.2070   33.1440   39.4610 S   0  0  0  0  0  0  0  0  0  0  0  0
   46.4990   31.1630   36.5040 N   0  0  0  0  0  0  0  0  0  0  0  0
   45.1590   30.8060   36.8740 C   0  0  0  0  0  0  0  0  0  0  0  0
   44.6690   31.4150   38.1450 C   0  0  0  0  0  0  0  0  0  0  0  0
   44.9610   32.9210   38.2330 C   0  0  0  0  0  0  0  0  0  0  0  0
   45.4940   33.2860   36.8430 C   0  0  0  0  0  0  0  0  0  0  0  0
   46.8140   32.5530   36.7270 C   0  0  0  0  0  0  0  0  0  0  0  0
   43.6986   33.5688   40.8048 H   0  0  0  0  0  0  0  0  0  0  0  0
   44.8836   36.1402   43.9821 H   0  0  0  0  0  0  0  0  0  0  0  0
   48.5741   33.5580   39.3080 H   0  0  0  0  0  0  0  0  0  0  0  0
   47.2135   34.7175   39.1320 H   0  0  0  0  0  0  0  0  0  0  0  0
   48.9078   35.3142   39.1320 H   0  0  0  0  0  0  0  0  0  0  0  0
   48.6952   33.5466   42.7533 H   0  0  0  0  0  0  0  0  0  0  0  0
   48.1382   32.5973   41.3338 H   0  0  0  0  0  0  0  0  0  0  0  0
   49.7755   33.3362   41.3338 H   0  0  0  0  0  0  0  0  0  0  0  0
   49.0231   35.8831   42.6360 H   0  0  0  0  0  0  0  0  0  0  0  0
   50.0490   35.7566   41.1669 H   0  0  0  0  0  0  0  0  0  0  0  0
   48.6088   36.8301   41.1669 H   0  0  0  0  0  0  0  0  0  0  0  0
   46.6248   30.9582   35.5024 H   0  0  0  0  0  0  0  0  0  0  0  0
   44.4861   31.1221   36.0633 H   0  0  0  0  0  0  0  0  0  0  0  0
   45.1665   29.7184   37.0387 H   0  0  0  0  0  0  0  0  0  0  0  0
   43.5816   31.2630   38.2116 H   0  0  0  0  0  0  0  0  0  0  0  0
   45.2001   30.9249   38.9743 H   0  0  0  0  0  0  0  0  0  0  0  0
   44.0923   33.5397   38.5022 H   0  0  0  0  0  0  0  0  0  0  0  0
   44.7960   32.9524   36.0610 H   0  0  0  0  0  0  0  0  0  0  0  0
   45.6111   34.3724   36.7166 H   0  0  0  0  0  0  0  0  0  0  0  0
   47.3931   32.6661   37.6553 H   0  0  0  0  0  0  0  0  0  0  0  0
   47.4201   32.9581   35.9032 H   0  0  0  0  0  0  0  0  0  0  0  0
  1  6  2  0
  2  3  2  0
  2  1  1  0
  3  4  1  0
  4  5  2  0
  6  5  1  0
  7 10  1  0
  7  1  1  0
  7  9  1  0
  8  7  1  0
 11  2  1  0
 12 17  1  0
 12 13  1  0
 13 14  1  0
 14 15  1  0
 15 11  1  0
 16 15  1  0
 17 16  1  0
  3 18  1  0
  5 19  1  0
  8 20  1  0
  8 21  1  0
  8 22  1  0
  9 23  1  0
  9 24  1  0
  9 25  1  0
 10 26  1  0
 10 27  1  0
 10 28  1  0
 12 29  1  0
 13 30  1  0
 13 31  1  0
 14 32  1  0
 14 33  1  0
 15 34  1  0
 16 35  1  0
 16 36  1  0
 17 37  1  0
 17 38  1  0
M  ISO  8  18  14  19  14  20   8  21   8  22   8  23   8  24   8  25   8
M  ISO  8  26   8  27   8  28   8  29   5  30  13  31  13  32  13  33  13
M  ISO  5  34  13  35  13  36  13  37  13  38  13
M  END
>  <minimizedAffinity>  (1) 
-4.27853966

>  <minimizedRMSD>  (1) 
1.7944808

$$$$
