
     RDKit          3D

 36 37  0  0  0  0  0  0  0  0999 V2000
   46.7390   34.7870   41.5940 C   0  0  0  0  0  0  0  0  0  0  0  0
   45.7460   34.0280   40.8940 C   0  0  0  0  0  0  0  0  0  0  0  0
   44.4360   34.0940   41.3490 C   0  0  0  0  0  0  0  0  0  0  0  0
   44.1410   34.8740   42.4390 N   0  0  0  0  0  0  0  0  0  0  0  0
   45.1180   35.5670   43.0570 C   0  0  0  0  0  0  0  0  0  0  0  0
   46.3870   35.5240   42.6440 N   0  0  0  0  0  0  0  0  0  0  0  0
   48.1220   34.6600   41.0150 C   0  0  0  0  0  0  0  0  0  0  0  0
   48.1570   34.4680   39.5350 C   0  0  0  0  0  0  0  0  0  0  0  0
   48.6850   33.4070   41.6570 C   0  0  0  0  0  0  0  0  0  0  0  0
   48.9860   35.8200   41.4800 C   0  0  0  0  0  0  0  0  0  0  0  0
   46.1570   33.0410   39.4970 S   0  0  0  0  0  0  0  0  0  0  0  0
   44.9290   32.9550   38.2120 C   0  0  0  0  0  0  0  0  0  0  0  0
   44.6610   31.4640   37.9520 C   0  0  0  0  0  0  0  0  0  0  0  0
   45.9450   31.0390   37.2750 C   0  0  0  0  0  0  0  0  0  0  0  0
   46.4720   32.2740   36.5520 C   0  0  0  0  0  0  0  0  0  0  0  0
   45.4750   33.3450   36.8550 C   0  0  0  0  0  0  0  0  0  0  0  0
   43.6423   33.5267   40.8409 H   0  0  0  0  0  0  0  0  0  0  0  0
   44.8619   36.1872   43.9286 H   0  0  0  0  0  0  0  0  0  0  0  0
   48.3500   33.4093   39.3071 H   0  0  0  0  0  0  0  0  0  0  0  0
   47.1898   34.7655   39.1037 H   0  0  0  0  0  0  0  0  0  0  0  0
   48.9570   35.0877   39.1037 H   0  0  0  0  0  0  0  0  0  0  0  0
   48.6412   33.5045   42.7518 H   0  0  0  0  0  0  0  0  0  0  0  0
   48.0919   32.5356   41.3425 H   0  0  0  0  0  0  0  0  0  0  0  0
   49.7304   33.2718   41.3425 H   0  0  0  0  0  0  0  0  0  0  0  0
   49.0049   35.8454   42.5795 H   0  0  0  0  0  0  0  0  0  0  0  0
   50.0096   35.6907   41.0986 H   0  0  0  0  0  0  0  0  0  0  0  0
   48.5690   36.7637   41.0986 H   0  0  0  0  0  0  0  0  0  0  0  0
   44.0921   33.5891   38.5400 H   0  0  0  0  0  0  0  0  0  0  0  0
   44.5016   30.9148   38.8917 H   0  0  0  0  0  0  0  0  0  0  0  0
   43.7557   31.2684   37.3586 H   0  0  0  0  0  0  0  0  0  0  0  0
   46.6745   30.6942   38.0226 H   0  0  0  0  0  0  0  0  0  0  0  0
   45.7739   30.2071   36.5760 H   0  0  0  0  0  0  0  0  0  0  0  0
   46.5305   32.0937   35.4684 H   0  0  0  0  0  0  0  0  0  0  0  0
   47.4869   32.5458   36.8779 H   0  0  0  0  0  0  0  0  0  0  0  0
   45.9597   34.3316   36.8962 H   0  0  0  0  0  0  0  0  0  0  0  0
   44.6909   33.4263   36.0878 H   0  0  0  0  0  0  0  0  0  0  0  0
  1  6  2  0
  2  3  2  0
  2  1  1  0
  3  4  1  0
  4  5  2  0
  6  5  1  0
  7 10  1  0
  7  1  1  0
  7  9  1  0
  8  7  1  0
 11  2  1  0
 12 11  1  0
 13 12  1  0
 14 13  1  0
 15 16  1  0
 15 14  1  0
 16 12  1  0
  3 17  1  0
  5 18  1  0
  8 19  1  0
  8 20  1  0
  8 21  1  0
  9 22  1  0
  9 23  1  0
  9 24  1  0
 10 25  1  0
 10 26  1  0
 10 27  1  0
 12 28  1  0
 13 29  1  0
 13 30  1  0
 14 31  1  0
 14 32  1  0
 15 33  1  0
 15 34  1  0
 16 35  1  0
 16 36  1  0
M  ISO  8  17  14  18  14  19   8  20   8  21   8  22   8  23   8  24   8
M  ISO  8  25   8  26   8  27   8  28  13  29  13  30  13  31  13  32  13
M  ISO  4  33  13  34  13  35  13  36  13
M  END
>  <minimizedAffinity>  (1) 
-4.14745378

>  <minimizedRMSD>  (1) 
1.95652187

$$$$
