
     RDKit          3D

 37 39  0  0  0  0  0  0  0  0999 V2000
   46.1880   34.7160   41.6710 C   0  0  0  0  0  0  0  0  0  0  0  0
   44.9100   34.3570   41.1600 C   0  0  0  0  0  0  0  0  0  0  0  0
   43.7930   34.8020   41.8580 C   0  0  0  0  0  0  0  0  0  0  0  0
   43.9460   35.5490   42.9840 N   0  0  0  0  0  0  0  0  0  0  0  0
   45.1810   35.8580   43.4210 C   0  0  0  0  0  0  0  0  0  0  0  0
   46.2920   35.4600   42.7920 N   0  0  0  0  0  0  0  0  0  0  0  0
   47.3350   34.2080   40.8420 C   0  0  0  0  0  0  0  0  0  0  0  0
   46.9850   33.7570   39.4820 C   0  0  0  0  0  0  0  0  0  0  0  0
   47.8320   32.9930   41.6270 C   0  0  0  0  0  0  0  0  0  0  0  0
   48.4940   35.1940   40.8870 C   0  0  0  0  0  0  0  0  0  0  0  0
   44.7350   33.3950   39.6990 S   0  0  0  0  0  0  0  0  0  0  0  0
   43.0950   32.9060   39.2920 C   0  0  0  0  0  0  0  0  0  0  0  0
   42.2860   31.8060   39.3580 C   0  0  0  0  0  0  0  0  0  0  0  0
   41.0520   32.0260   38.8740 N   0  0  0  0  0  0  0  0  0  0  0  0
   41.0290   33.3090   38.4720 C   0  0  0  0  0  0  0  0  0  0  0  0
   39.9590   33.9410   37.9180 C   0  0  0  0  0  0  0  0  0  0  0  0
   40.0780   35.2650   37.5520 C   0  0  0  0  0  0  0  0  0  0  0  0
   41.2870   35.8860   37.7670 C   0  0  0  0  0  0  0  0  0  0  0  0
   42.3490   35.2150   38.3310 C   0  0  0  0  0  0  0  0  0  0  0  0
   42.2780   33.8890   38.7140 C   0  0  0  0  0  0  0  0  0  0  0  0
   42.7843   34.5496   41.4990 H   0  0  0  0  0  0  0  0  0  0  0  0
   45.2806   36.4634   44.3340 H   0  0  0  0  0  0  0  0  0  0  0  0
   46.3117   32.8894   39.5453 H   0  0  0  0  0  0  0  0  0  0  0  0
   46.4816   34.5733   38.9432 H   0  0  0  0  0  0  0  0  0  0  0  0
   47.9007   33.4720   38.9432 H   0  0  0  0  0  0  0  0  0  0  0  0
   47.7496   33.1944   42.7053 H   0  0  0  0  0  0  0  0  0  0  0  0
   47.2206   32.1154   41.3701 H   0  0  0  0  0  0  0  0  0  0  0  0
   48.8832   32.7955   41.3701 H   0  0  0  0  0  0  0  0  0  0  0  0
   48.7498   35.4116   41.9345 H   0  0  0  0  0  0  0  0  0  0  0  0
   49.3668   34.7573   40.3795 H   0  0  0  0  0  0  0  0  0  0  0  0
   48.2029   36.1255   40.3795 H   0  0  0  0  0  0  0  0  0  0  0  0
   42.6124   30.8381   39.7663 H   0  0  0  0  0  0  0  0  0  0  0  0
   40.2786   31.3478   38.8214 H   0  0  0  0  0  0  0  0  0  0  0  0
   39.0119   33.4030   37.7642 H   0  0  0  0  0  0  0  0  0  0  0  0
   39.2333   35.8076   37.1024 H   0  0  0  0  0  0  0  0  0  0  0  0
   41.4077   36.9416   37.4821 H   0  0  0  0  0  0  0  0  0  0  0  0
   43.2938   35.7573   38.4831 H   0  0  0  0  0  0  0  0  0  0  0  0
  1  6  2  0
  2  1  1  0
  2  3  2  0
  3  4  1  0
  4  5  2  0
  6  5  1  0
  7 10  1  0
  7  9  1  0
  7  1  1  0
  8  7  1  0
 11  2  1  0
 12 13  2  0
 12 11  1  0
 14 13  1  0
 15 20  2  0
 15 14  1  0
 16 15  1  0
 17 18  1  0
 17 16  2  0
 18 19  2  0
 19 20  1  0
 20 12  1  0
  3 21  1  0
  5 22  1  0
  8 23  1  0
  8 24  1  0
  8 25  1  0
  9 26  1  0
  9 27  1  0
  9 28  1  0
 10 29  1  0
 10 30  1  0
 10 31  1  0
 13 32  1  0
 14 33  1  0
 16 34  1  0
 17 35  1  0
 18 36  1  0
 19 37  1  0
M  ISO  8  21  14  22  14  23   8  24   8  25   8  26   8  27   8  28   8
M  ISO  8  29   8  30   8  31   8  32  14  33   9  34  14  35  14  36  14
M  ISO  1  37  14
M  END
>  <minimizedAffinity>  (1) 
-5.42372799

>  <minimizedRMSD>  (1) 
4.51080132

$$$$
