
     RDKit          3D

 30 31  0  0  0  0  0  0  0  0999 V2000
   48.1620   34.7010   41.0070 C   0  0  0  0  0  0  0  0  0  0  0  0
   46.7780   34.7710   41.5870 C   0  0  0  0  0  0  0  0  0  0  0  0
   45.8290   33.9620   40.9050 C   0  0  0  0  0  0  0  0  0  0  0  0
   44.5250   33.9690   41.3760 C   0  0  0  0  0  0  0  0  0  0  0  0
   44.1990   34.7390   42.4630 N   0  0  0  0  0  0  0  0  0  0  0  0
   45.1440   35.4810   43.0640 C   0  0  0  0  0  0  0  0  0  0  0  0
   46.4070   35.4970   42.6370 N   0  0  0  0  0  0  0  0  0  0  0  0
   46.2780   32.9760   39.5150 S   0  0  0  0  0  0  0  0  0  0  0  0
   45.1350   32.9750   38.1560 C   0  0  0  0  0  0  0  0  0  0  0  0
   45.4600   33.2240   36.7600 C   0  0  0  0  0  0  0  0  0  0  0  0
   45.3190   31.7680   37.2090 C   0  0  0  0  0  0  0  0  0  0  0  0
   48.2250   34.5450   39.5320 C   0  0  0  0  0  0  0  0  0  0  0  0
   48.7770   33.4480   41.6040 C   0  0  0  0  0  0  0  0  0  0  0  0
   49.0000   35.8710   41.5040 C   0  0  0  0  0  0  0  0  0  0  0  0
   43.7552   33.3596   40.8799 H   0  0  0  0  0  0  0  0  0  0  0  0
   44.8675   36.0938   43.9346 H   0  0  0  0  0  0  0  0  0  0  0  0
   44.3671   33.4496   38.7845 H   0  0  0  0  0  0  0  0  0  0  0  0
   46.4524   33.6173   36.4948 H   0  0  0  0  0  0  0  0  0  0  0  0
   44.9983   33.8262   35.9636 H   0  0  0  0  0  0  0  0  0  0  0  0
   44.4533   31.1667   36.8942 H   0  0  0  0  0  0  0  0  0  0  0  0
   45.9412   30.8613   37.1836 H   0  0  0  0  0  0  0  0  0  0  0  0
   48.6264   33.5510   39.2852 H   0  0  0  0  0  0  0  0  0  0  0  0
   47.2148   34.6479   39.1089 H   0  0  0  0  0  0  0  0  0  0  0  0
   48.8804   35.3205   39.1089 H   0  0  0  0  0  0  0  0  0  0  0  0
   48.7458   33.5115   42.7017 H   0  0  0  0  0  0  0  0  0  0  0  0
   48.2091   32.5666   41.2714 H   0  0  0  0  0  0  0  0  0  0  0  0
   49.8217   33.3580   41.2714 H   0  0  0  0  0  0  0  0  0  0  0  0
   49.0047   35.8775   42.6040 H   0  0  0  0  0  0  0  0  0  0  0  0
   50.0305   35.7674   41.1335 H   0  0  0  0  0  0  0  0  0  0  0  0
   48.5702   36.8134   41.1335 H   0  0  0  0  0  0  0  0  0  0  0  0
  1 14  1  0
  1  2  1  0
  1 13  1  0
  2  7  2  0
  3  4  2  0
  3  2  1  0
  4  5  1  0
  5  6  2  0
  7  6  1  0
  8  3  1  0
  9  8  1  0
 10 11  1  0
 10  9  1  0
 11  9  1  0
 12  1  1  0
  4 15  1  0
  6 16  1  0
  9 17  1  0
 10 18  1  0
 10 19  1  0
 11 20  1  0
 11 21  1  0
 12 22  1  0
 12 23  1  0
 12 24  1  0
 13 25  1  0
 13 26  1  0
 13 27  1  0
 14 28  1  0
 14 29  1  0
 14 30  1  0
M  ISO  8  15  14  16  14  17  13  18  13  19  13  20  13  21  13  22   8
M  ISO  8  23   8  24   8  25   8  26   8  27   8  28   8  29   8  30   8
M  END
>  <minimizedAffinity>  (1) 
-3.90007424

>  <minimizedRMSD>  (1) 
1.67769694

$$$$
