
     RDKit          3D

 30 31  0  0  0  0  0  0  0  0999 V2000
   46.6880   34.8780   41.6970 C   0  0  0  0  0  0  0  0  0  0  0  0
   45.6520   34.2050   40.9760 C   0  0  0  0  0  0  0  0  0  0  0  0
   44.3530   34.3340   41.4500 C   0  0  0  0  0  0  0  0  0  0  0  0
   44.1180   35.0810   42.5620 N   0  0  0  0  0  0  0  0  0  0  0  0
   45.1270   35.6940   43.2050 C   0  0  0  0  0  0  0  0  0  0  0  0
   46.3930   35.5950   42.7800 N   0  0  0  0  0  0  0  0  0  0  0  0
   48.0600   34.6880   41.1190 C   0  0  0  0  0  0  0  0  0  0  0  0
   48.0900   34.4370   39.6490 C   0  0  0  0  0  0  0  0  0  0  0  0
   48.5830   33.4390   41.8060 C   0  0  0  0  0  0  0  0  0  0  0  0
   48.9820   35.8240   41.5330 C   0  0  0  0  0  0  0  0  0  0  0  0
   46.0120   33.2360   39.5540 S   0  0  0  0  0  0  0  0  0  0  0  0
   44.8810   31.8810   39.2970 C   0  0  0  0  0  0  0  0  0  0  0  0
   45.1590   30.7680   40.0980 C   0  0  0  0  0  0  0  0  0  0  0  0
   44.1950   29.8140   39.7760 C   0  0  0  0  0  0  0  0  0  0  0  0
   43.3940   30.3880   38.8130 C   0  0  0  0  0  0  0  0  0  0  0  0
   43.8310   31.5950   38.5640 O   0  0  0  0  0  0  0  0  0  0  0  0
   43.5211   33.8361   40.9304 H   0  0  0  0  0  0  0  0  0  0  0  0
   44.9073   36.2915   44.1021 H   0  0  0  0  0  0  0  0  0  0  0  0
   48.2187   33.3604   39.4634 H   0  0  0  0  0  0  0  0  0  0  0  0
   47.1449   34.7761   39.1998 H   0  0  0  0  0  0  0  0  0  0  0  0
   48.9285   34.9893   39.1998 H   0  0  0  0  0  0  0  0  0  0  0  0
   48.5281   33.5702   42.8968 H   0  0  0  0  0  0  0  0  0  0  0  0
   47.9715   32.5741   41.5095 H   0  0  0  0  0  0  0  0  0  0  0  0
   49.6284   33.2679   41.5095 H   0  0  0  0  0  0  0  0  0  0  0  0
   49.0264   35.8787   42.6307 H   0  0  0  0  0  0  0  0  0  0  0  0
   49.9907   35.6416   41.1339 H   0  0  0  0  0  0  0  0  0  0  0  0
   48.5959   36.7736   41.1339 H   0  0  0  0  0  0  0  0  0  0  0  0
   45.9721   30.6665   40.8319 H   0  0  0  0  0  0  0  0  0  0  0  0
   44.0941   28.8059   40.2044 H   0  0  0  0  0  0  0  0  0  0  0  0
   42.5283   29.9091   38.3322 H   0  0  0  0  0  0  0  0  0  0  0  0
  1  6  2  0
  2  3  2  0
  2  1  1  0
  3  4  1  0
  4  5  2  0
  6  5  1  0
  7 10  1  0
  7  1  1  0
  7  9  1  0
  8  7  1  0
 11  2  1  0
 12 11  1  0
 12 13  2  0
 14 13  1  0
 15 14  2  0
 16 15  1  0
 16 12  1  0
  3 17  1  0
  5 18  1  0
  8 19  1  0
  8 20  1  0
  8 21  1  0
  9 22  1  0
  9 23  1  0
  9 24  1  0
 10 25  1  0
 10 26  1  0
 10 27  1  0
 13 28  1  0
 14 29  1  0
 15 30  1  0
M  ISO  8  17  14  18  14  19   8  20   8  21   8  22   8  23   8  24   8
M  ISO  6  25   8  26   8  27   8  28  14  29  14  30  14
M  END
>  <minimizedAffinity>  (1) 
-3.7402277

>  <minimizedRMSD>  (1) 
1.72030759

$$$$
