
     RDKit          3D

 44 48  0  0  1  0  0  0  0  0999 V2000
   45.8230   30.6120   47.4860 C   0  0  2  0  0  0  0  0  0  0  0  0
   44.7470   34.5820   46.3320 C   0  0  0  0  0  0  0  0  0  0  0  0
   44.6720   35.2990   45.1400 C   0  0  0  0  0  0  0  0  0  0  0  0
   45.3110   34.7770   44.0050 C   0  0  0  0  0  0  0  0  0  0  0  0
   45.9690   33.6020   44.1190 N   0  0  0  0  0  0  0  0  0  0  0  0
   46.0340   32.9090   45.2960 C   0  0  0  0  0  0  0  0  0  0  0  0
   45.4210   33.4140   46.3760 N   0  0  0  0  0  0  0  0  0  0  0  0
   46.7200   31.6880   45.4370 N   0  0  0  0  0  0  0  0  0  0  0  0
   47.6450   31.4140   44.4690 C   0  0  0  0  0  0  0  0  0  0  0  0
   48.1960   30.1670   44.8330 C   0  0  0  0  0  0  0  0  0  0  0  0
   47.5920   29.7480   45.9830 N   0  0  0  0  0  0  0  0  0  0  0  0
   46.6990   30.6890   46.3270 C   0  0  0  0  0  0  0  0  0  0  0  0
   46.5870   31.3130   48.6500 C   0  0  0  0  0  0  0  0  0  0  0  0
   45.5770   29.2020   47.9090 C   0  0  0  0  0  0  0  0  0  0  0  0
   44.6490   28.5130   47.0880 N   0  0  0  0  0  0  0  0  0  0  0  0
   44.1030   28.9880   45.9580 N   0  0  0  0  0  0  0  0  0  0  0  0
   43.2720   28.0300   45.4730 C   0  0  0  0  0  0  0  0  0  0  0  0
   43.2870   26.9300   46.3020 C   0  0  0  0  0  0  0  0  0  0  0  0
   44.1780   27.2560   47.3380 C   0  0  0  0  0  0  0  0  0  0  0  0
   44.5610   26.4590   48.4710 N   0  0  0  0  0  0  0  0  0  0  0  0
   44.0380   26.3570   49.7210 C   0  0  0  0  0  0  0  0  0  0  0  0
   44.7800   25.4590   50.3990 N   0  0  0  0  0  0  0  0  0  0  0  0
   45.7570   24.9980   49.5990 C   0  0  0  0  0  0  0  0  0  0  0  0
   46.7430   24.0700   49.8760 C   0  0  0  0  0  0  0  0  0  0  0  0
   47.6200   23.7790   48.8710 N   0  0  0  0  0  0  0  0  0  0  0  0
   47.4570   24.4160   47.6870 C   0  0  0  0  0  0  0  0  0  0  0  0
   46.5110   25.3270   47.3720 N   0  0  0  0  0  0  0  0  0  0  0  0
   45.6300   25.6250   48.3720 C   0  0  0  0  0  0  0  0  0  0  0  0
   44.8547   31.0736   47.2422 H   0  0  0  0  0  0  0  0  0  0  0  0
   44.2565   34.9682   47.2377 H   0  0  0  0  0  0  0  0  0  0  0  0
   44.1248   36.2519   45.0897 H   0  0  0  0  0  0  0  0  0  0  0  0
   45.2771   35.3119   43.0444 H   0  0  0  0  0  0  0  0  0  0  0  0
   47.9037   32.0313   43.5960 H   0  0  0  0  0  0  0  0  0  0  0  0
   48.9793   29.6246   44.2833 H   0  0  0  0  0  0  0  0  0  0  0  0
   46.1961   30.9543   49.6136 H   0  0  0  0  0  0  0  0  0  0  0  0
   47.6592   31.0779   48.5789 H   0  0  0  0  0  0  0  0  0  0  0  0
   46.4448   32.4014   48.5789 H   0  0  0  0  0  0  0  0  0  0  0  0
   46.5336   28.6597   47.8820 H   0  0  0  0  0  0  0  0  0  0  0  0
   45.1442   29.2410   48.9195 H   0  0  0  0  0  0  0  0  0  0  0  0
   42.6748   28.1192   44.5536 H   0  0  0  0  0  0  0  0  0  0  0  0
   42.7213   25.9947   46.1789 H   0  0  0  0  0  0  0  0  0  0  0  0
   43.1678   26.9070   50.1088 H   0  0  0  0  0  0  0  0  0  0  0  0
   46.8178   23.5876   50.8618 H   0  0  0  0  0  0  0  0  0  0  0  0
   48.1753   24.1632   46.8932 H   0  0  0  0  0  0  0  0  0  0  0  0
  1 14  1  0
  1 13  1  0
  2  7  2  0
  3  2  1  0
  4  5  1  0
  4  3  2  0
  5  6  2  0
  6  8  1  0
  6  7  1  0
  8 12  1  0
  9 10  2  0
  9  8  1  0
 10 11  1  0
 11 12  2  0
 12  1  1  0
 15 19  1  0
 15 14  1  0
 16 15  1  0
 17 16  2  0
 17 18  1  0
 18 19  2  0
 19 20  1  0
 20 21  1  0
 21 22  2  0
 23 24  2  0
 23 22  1  0
 25 24  1  0
 26 25  2  0
 27 26  1  0
 27 28  2  0
 28 20  1  0
 28 23  1  0
  1 29  1  6
  2 30  1  0
  3 31  1  0
  4 32  1  0
  9 33  1  0
 10 34  1  0
 13 35  1  0
 13 36  1  0
 13 37  1  0
 14 38  1  0
 14 39  1  0
 17 40  1  0
 18 41  1  0
 21 42  1  0
 24 43  1  0
 26 44  1  0
M  ISO  8  29   8  30  14  31  14  32  14  33  14  34  14  35   8  36   8
M  ISO  8  37   8  38   8  39   8  40  14  41  14  42  14  43  14  44  14
M  END
>  <minimizedAffinity>  (1) 
-5.32020092

>  <minimizedRMSD>  (1) 
2.28697062

$$$$
