
     RDKit          3D

 31 31  0  0  0  0  0  0  0  0999 V2000
   46.5870   34.7230   41.7490 C   0  0  0  0  0  0  0  0  0  0  0  0
   45.4970   34.1390   41.0680 C   0  0  0  0  0  0  0  0  0  0  0  0
   44.2100   34.4810   41.4520 C   0  0  0  0  0  0  0  0  0  0  0  0
   44.0160   35.3550   42.4590 N   0  0  0  0  0  0  0  0  0  0  0  0
   45.0890   35.9030   43.1000 C   0  0  0  0  0  0  0  0  0  0  0  0
   46.3300   35.5940   42.7510 N   0  0  0  0  0  0  0  0  0  0  0  0
   47.9260   34.2950   41.2460 C   0  0  0  0  0  0  0  0  0  0  0  0
   48.1310   34.3940   39.8040 C   0  0  0  0  0  0  0  0  0  0  0  0
   48.0380   32.8500   41.6930 C   0  0  0  0  0  0  0  0  0  0  0  0
   49.0110   35.0130   42.0660 C   0  0  0  0  0  0  0  0  0  0  0  0
   49.2350   36.3420   41.6000 N   0  0  0  0  0  0  0  0  0  0  0  0
   45.7350   32.9890   39.7710 S   0  0  0  0  0  0  0  0  0  0  0  0
   44.4840   33.1960   38.4730 C   0  0  0  0  0  0  0  0  0  0  0  0
   45.1530   33.1070   37.1210 C   0  0  0  0  0  0  0  0  0  0  0  0
   43.3462   34.0386   40.9343 H   0  0  0  0  0  0  0  0  0  0  0  0
   44.9209   36.6146   43.9218 H   0  0  0  0  0  0  0  0  0  0  0  0
   49.1050   34.8643   39.6035 H   0  0  0  0  0  0  0  0  0  0  0  0
   48.1118   33.3874   39.3610 H   0  0  0  0  0  0  0  0  0  0  0  0
   47.3307   35.0049   39.3610 H   0  0  0  0  0  0  0  0  0  0  0  0
   48.0415   32.8054   42.7921 H   0  0  0  0  0  0  0  0  0  0  0  0
   47.1814   32.2789   41.3056 H   0  0  0  0  0  0  0  0  0  0  0  0
   48.9723   32.4177   41.3056 H   0  0  0  0  0  0  0  0  0  0  0  0
   48.6934   35.0536   43.1184 H   0  0  0  0  0  0  0  0  0  0  0  0
   49.9498   34.4501   41.9575 H   0  0  0  0  0  0  0  0  0  0  0  0
   49.3417   36.9749   42.4056 H   0  0  0  0  0  0  0  0  0  0  0  0
   50.0919   36.3657   41.0289 H   0  0  0  0  0  0  0  0  0  0  0  0
   43.7267   32.4032   38.5619 H   0  0  0  0  0  0  0  0  0  0  0  0
   43.9973   34.1765   38.5812 H   0  0  0  0  0  0  0  0  0  0  0  0
   46.2351   32.9630   37.2561 H   0  0  0  0  0  0  0  0  0  0  0  0
   44.7370   32.2563   36.5613 H   0  0  0  0  0  0  0  0  0  0  0  0
   44.9739   34.0369   36.5613 H   0  0  0  0  0  0  0  0  0  0  0  0
  1  6  2  0
  2  3  2  0
  2  1  1  0
  3  4  1  0
  4  5  2  0
  6  5  1  0
  7  9  1  0
  7  1  1  0
  7 10  1  0
  8  7  1  0
 11 10  1  0
 12  2  1  0
 13 12  1  0
 14 13  1  0
  3 15  1  0
  5 16  1  0
  8 17  1  0
  8 18  1  0
  8 19  1  0
  9 20  1  0
  9 21  1  0
  9 22  1  0
 10 23  1  0
 10 24  1  0
 11 25  1  0
 11 26  1  0
 13 27  1  0
 13 28  1  0
 14 29  1  0
 14 30  1  0
 14 31  1  0
M  ISO  8  15  14  16  14  17   8  18   8  19   8  20   8  21   8  22   8
M  ISO  8  23   8  24   8  25   5  26   5  27   8  28   8  29   8  30   8
M  ISO  1  31   8
M  END
>  <minimizedAffinity>  (1) 
-3.5629375

>  <minimizedRMSD>  (1) 
0.55783391

$$$$
