
     RDKit          3D

 51 53  0  0  1  0  0  0  0  0999 V2000
   46.4500   35.1610   41.6180 C   0  0  0  0  0  0  0  0  0  0  0  0
   47.1810   34.4080   40.6510 N   0  0  0  0  0  0  0  0  0  0  0  0
   48.5480   34.3060   41.0680 C   0  0  0  0  0  0  0  0  0  0  0  0
   49.1250   32.9500   41.1320 C   0  0  0  0  0  0  0  0  0  0  0  0
   48.1030   32.1300   41.6440 O   0  0  0  0  0  0  0  0  0  0  0  0
   47.2440   31.9700   40.5650 C   0  0  0  0  0  0  0  0  0  0  0  0
   46.6670   33.2800   40.0490 C   0  0  2  0  0  0  0  0  0  0  0  0
   47.0850   33.3620   38.5740 C   0  0  0  0  0  0  0  0  0  0  0  0
   45.1160   34.6020   41.9880 C   0  0  1  0  0  0  0  0  0  0  0  0
   44.5710   35.4520   44.3320 C   0  0  0  0  0  0  0  0  0  0  0  0
   45.1100   34.4600   43.4660 C   0  0  0  0  0  0  0  0  0  0  0  0
   45.6530   33.3320   44.1110 C   0  0  0  0  0  0  0  0  0  0  0  0
   45.6200   33.2870   45.4620 N   0  0  0  0  0  0  0  0  0  0  0  0
   45.1010   34.2480   46.2390 C   0  0  0  0  0  0  0  0  0  0  0  0
   44.5540   35.3730   45.6590 N   0  0  0  0  0  0  0  0  0  0  0  0
   43.9600   35.3550   41.5440 C   0  0  0  0  0  0  0  0  0  0  0  0
   42.7360   34.8260   40.9810 C   0  0  0  0  0  0  0  0  0  0  0  0
   41.5640   35.4040   41.7530 C   0  0  0  0  0  0  0  0  0  0  0  0
   40.6270   36.2320   40.9100 C   0  0  0  0  0  0  0  0  0  0  0  0
   39.9760   35.2950   39.9110 C   0  0  0  0  0  0  0  0  0  0  0  0
   41.0550   34.6130   39.1470 C   0  0  0  0  0  0  0  0  0  0  0  0
   42.4470   35.1520   39.5270 C   0  0  0  0  0  0  0  0  0  0  0  0
   46.2943   36.1722   41.2140 H   0  0  0  0  0  0  0  0  0  0  0  0
   47.0532   35.1411   42.5376 H   0  0  0  0  0  0  0  0  0  0  0  0
   49.1554   34.8931   40.3634 H   0  0  0  0  0  0  0  0  0  0  0  0
   48.5605   34.6731   42.1049 H   0  0  0  0  0  0  0  0  0  0  0  0
   49.4231   32.6114   40.1288 H   0  0  0  0  0  0  0  0  0  0  0  0
   50.0264   32.9196   41.7617 H   0  0  0  0  0  0  0  0  0  0  0  0
   47.7989   31.4877   39.7468 H   0  0  0  0  0  0  0  0  0  0  0  0
   46.3982   31.3586   40.9127 H   0  0  0  0  0  0  0  0  0  0  0  0
   45.5845   33.2683   40.2442 H   0  0  0  0  0  0  0  0  0  0  0  0
   48.1626   33.5734   38.5095 H   0  0  0  0  0  0  0  0  0  0  0  0
   46.8689   32.4043   38.0779 H   0  0  0  0  0  0  0  0  0  0  0  0
   46.5231   34.1670   38.0779 H   0  0  0  0  0  0  0  0  0  0  0  0
   45.0058   33.6441   41.4586 H   0  0  0  0  0  0  0  0  0  0  0  0
   44.1364   36.3504   43.8695 H   0  0  0  0  0  0  0  0  0  0  0  0
   46.0931   32.5080   43.5302 H   0  0  0  0  0  0  0  0  0  0  0  0
   45.1114   34.1397   47.3336 H   0  0  0  0  0  0  0  0  0  0  0  0
   43.6404   35.9287   42.4264 H   0  0  0  0  0  0  0  0  0  0  0  0
   44.3859   35.8122   40.6387 H   0  0  0  0  0  0  0  0  0  0  0  0
   42.8686   33.7362   41.0494 H   0  0  0  0  0  0  0  0  0  0  0  0
   40.9929   34.5718   42.1903 H   0  0  0  0  0  0  0  0  0  0  0  0
   41.9840   36.0748   42.5170 H   0  0  0  0  0  0  0  0  0  0  0  0
   39.8594   36.6972   41.5459 H   0  0  0  0  0  0  0  0  0  0  0  0
   41.1730   37.0352   40.3936 H   0  0  0  0  0  0  0  0  0  0  0  0
   39.3662   34.5491   40.4418 H   0  0  0  0  0  0  0  0  0  0  0  0
   39.3233   35.8590   39.2284 H   0  0  0  0  0  0  0  0  0  0  0  0
   40.8898   34.7775   38.0720 H   0  0  0  0  0  0  0  0  0  0  0  0
   41.0234   33.5406   39.3900 H   0  0  0  0  0  0  0  0  0  0  0  0
   43.2091   34.6827   38.8875 H   0  0  0  0  0  0  0  0  0  0  0  0
   42.4696   36.2425   39.3842 H   0  0  0  0  0  0  0  0  0  0  0  0
  1  9  1  0
  2  3  1  0
  2  1  1  0
  3  4  1  0
  4  5  1  0
  6  5  1  0
  7  6  1  0
  7  2  1  0
  8  7  1  0
  9 11  1  0
 10 15  2  0
 11 12  2  0
 11 10  1  0
 12 13  1  0
 13 14  2  0
 15 14  1  0
 16  9  1  0
 17 16  1  0
 17 18  1  0
 19 18  1  0
 20 19  1  0
 21 22  1  0
 21 20  1  0
 22 17  1  0
  1 23  1  0
  1 24  1  0
  3 25  1  0
  3 26  1  0
  4 27  1  0
  4 28  1  0
  6 29  1  0
  6 30  1  0
  7 31  1  6
  8 32  1  0
  8 33  1  0
  8 34  1  0
  9 35  1  6
 10 36  1  0
 12 37  1  0
 14 38  1  0
 16 39  1  0
 16 40  1  0
 17 41  1  0
 18 42  1  0
 18 43  1  0
 19 44  1  0
 19 45  1  0
 20 46  1  0
 20 47  1  0
 21 48  1  0
 21 49  1  0
 22 50  1  0
 22 51  1  0
M  ISO  8  23   8  24   8  25  13  26  13  27  13  28  13  29  13  30  13
M  ISO  8  31  13  32   8  33   8  34   8  35   8  36  14  37  14  38  14
M  ISO  8  39   8  40   8  41  13  42  13  43  13  44  13  45  13  46  13
M  ISO  5  47  13  48  13  49  13  50  13  51  13
M  END
>  <minimizedAffinity>  (1) 
-5.48885345

>  <minimizedRMSD>  (1) 
2.73874235

$$$$
