
     RDKit          3D

 38 39  0  0  0  0  0  0  0  0999 V2000
   46.2760   34.4900   41.5050 C   0  0  0  0  0  0  0  0  0  0  0  0
   44.9900   34.1540   41.0270 C   0  0  0  0  0  0  0  0  0  0  0  0
   43.8850   34.7510   41.6130 C   0  0  0  0  0  0  0  0  0  0  0  0
   44.0470   35.6330   42.6200 N   0  0  0  0  0  0  0  0  0  0  0  0
   45.3020   35.9340   43.0590 C   0  0  0  0  0  0  0  0  0  0  0  0
   46.3680   35.3820   42.5180 N   0  0  0  0  0  0  0  0  0  0  0  0
   47.3890   33.7920   40.8060 C   0  0  0  0  0  0  0  0  0  0  0  0
   47.2980   33.7730   39.3380 C   0  0  0  0  0  0  0  0  0  0  0  0
   47.3600   32.3900   41.3540 C   0  0  0  0  0  0  0  0  0  0  0  0
   48.7270   34.3760   41.3010 C   0  0  0  0  0  0  0  0  0  0  0  0
   48.9990   35.6590   40.7440 N   0  0  0  0  0  0  0  0  0  0  0  0
   44.7730   33.0150   39.7250 S   0  0  0  0  0  0  0  0  0  0  0  0
   43.7680   33.7290   38.3890 C   0  0  0  0  0  0  0  0  0  0  0  0
   42.3170   33.5060   38.6910 C   0  0  0  0  0  0  0  0  0  0  0  0
   41.5850   34.8140   38.4650 C   0  0  0  0  0  0  0  0  0  0  0  0
   40.4680   35.2440   39.3160 C   0  0  0  0  0  0  0  0  0  0  0  0
   40.1800   34.7820   37.9370 C   0  0  0  0  0  0  0  0  0  0  0  0
   42.8741   34.5049   41.2560 H   0  0  0  0  0  0  0  0  0  0  0  0
   45.4267   36.6529   43.8822 H   0  0  0  0  0  0  0  0  0  0  0  0
   46.2621   33.5567   39.0376 H   0  0  0  0  0  0  0  0  0  0  0  0
   47.5983   34.7532   38.9393 H   0  0  0  0  0  0  0  0  0  0  0  0
   47.9655   32.9948   38.9393 H   0  0  0  0  0  0  0  0  0  0  0  0
   47.3607   32.4260   42.4534 H   0  0  0  0  0  0  0  0  0  0  0  0
   46.4511   31.8784   41.0045 H   0  0  0  0  0  0  0  0  0  0  0  0
   48.2470   31.8413   41.0045 H   0  0  0  0  0  0  0  0  0  0  0  0
   48.6888   34.4674   42.3965 H   0  0  0  0  0  0  0  0  0  0  0  0
   49.5291   33.6946   40.9811 H   0  0  0  0  0  0  0  0  0  0  0  0
   49.1433   36.3395   41.5036 H   0  0  0  0  0  0  0  0  0  0  0  0
   49.8479   35.6081   40.1629 H   0  0  0  0  0  0  0  0  0  0  0  0
   44.0243   33.2433   37.4359 H   0  0  0  0  0  0  0  0  0  0  0  0
   43.9680   34.8079   38.3122 H   0  0  0  0  0  0  0  0  0  0  0  0
   41.9116   32.7312   38.0236 H   0  0  0  0  0  0  0  0  0  0  0  0
   42.1902   33.1720   39.7314 H   0  0  0  0  0  0  0  0  0  0  0  0
   42.5374   35.2781   38.1692 H   0  0  0  0  0  0  0  0  0  0  0  0
   40.1650   34.6261   40.1741 H   0  0  0  0  0  0  0  0  0  0  0  0
   40.2404   36.1564   39.8867 H   0  0  0  0  0  0  0  0  0  0  0  0
   39.8619   35.5014   37.1681 H   0  0  0  0  0  0  0  0  0  0  0  0
   39.5293   34.0183   37.4860 H   0  0  0  0  0  0  0  0  0  0  0  0
  1  6  2  0
  2  1  1  0
  2  3  2  0
  3  4  1  0
  4  5  2  0
  6  5  1  0
  7 10  1  0
  7  9  1  0
  7  1  1  0
  8  7  1  0
 11 10  1  0
 12  2  1  0
 13 14  1  0
 13 12  1  0
 15 14  1  0
 15 16  1  0
 17 15  1  0
 17 16  1  0
  3 18  1  0
  5 19  1  0
  8 20  1  0
  8 21  1  0
  8 22  1  0
  9 23  1  0
  9 24  1  0
  9 25  1  0
 10 26  1  0
 10 27  1  0
 11 28  1  0
 11 29  1  0
 13 30  1  0
 13 31  1  0
 14 32  1  0
 14 33  1  0
 15 34  1  0
 16 35  1  0
 16 36  1  0
 17 37  1  0
 17 38  1  0
M  ISO  8  18  14  19  14  20   8  21   8  22   8  23   8  24   8  25   8
M  ISO  8  26   8  27   8  28   5  29   5  30   8  31   8  32   8  33   8
M  ISO  5  34  13  35  13  36  13  37  13  38  13
M  END
>  <minimizedAffinity>  (1) 
-4.2267375

>  <minimizedRMSD>  (1) 
2.13496399

$$$$
