
     RDKit          3D

 46 47  0  0  0  0  0  0  0  0999 V2000
   46.5360   34.5610   41.5370 C   0  0  0  0  0  0  0  0  0  0  0  0
   45.4560   33.9040   40.8930 C   0  0  0  0  0  0  0  0  0  0  0  0
   44.1650   34.2260   41.2840 C   0  0  0  0  0  0  0  0  0  0  0  0
   43.9570   35.1340   42.2480 N   0  0  0  0  0  0  0  0  0  0  0  0
   45.0200   35.7510   42.8500 C   0  0  0  0  0  0  0  0  0  0  0  0
   46.2660   35.4640   42.4960 N   0  0  0  0  0  0  0  0  0  0  0  0
   47.8800   34.1360   41.0360 C   0  0  0  0  0  0  0  0  0  0  0  0
   48.0860   34.2540   39.5910 C   0  0  0  0  0  0  0  0  0  0  0  0
   48.0190   32.7060   41.4700 C   0  0  0  0  0  0  0  0  0  0  0  0
   48.9530   34.8920   41.8440 C   0  0  0  0  0  0  0  0  0  0  0  0
   49.2560   36.1670   41.2930 N   0  0  0  0  0  0  0  0  0  0  0  0
   45.7040   32.7130   39.6330 S   0  0  0  0  0  0  0  0  0  0  0  0
   44.6540   33.0520   38.2040 C   0  0  0  0  0  0  0  0  0  0  0  0
   45.5410   33.4050   37.0240 C   0  0  0  0  0  0  0  0  0  0  0  0
   45.9490   32.2790   36.2660 N   0  0  0  0  0  0  0  0  0  0  0  0
   47.3060   31.8420   36.4670 C   0  0  0  0  0  0  0  0  0  0  0  0
   48.1810   32.6930   35.5730 C   0  0  0  0  0  0  0  0  0  0  0  0
   47.9430   32.1680   34.1690 C   0  0  0  0  0  0  0  0  0  0  0  0
   46.5690   31.5350   34.0510 C   0  0  0  0  0  0  0  0  0  0  0  0
   45.5490   32.2050   34.9110 C   0  0  0  0  0  0  0  0  0  0  0  0
   43.3078   33.7341   40.8009 H   0  0  0  0  0  0  0  0  0  0  0  0
   44.8386   36.4958   43.6389 H   0  0  0  0  0  0  0  0  0  0  0  0
   49.0256   34.7922   39.3973 H   0  0  0  0  0  0  0  0  0  0  0  0
   48.1400   33.2499   39.1451 H   0  0  0  0  0  0  0  0  0  0  0  0
   47.2472   34.8086   39.1451 H   0  0  0  0  0  0  0  0  0  0  0  0
   48.0239   32.6551   42.5688 H   0  0  0  0  0  0  0  0  0  0  0  0
   47.1735   32.1205   41.0796 H   0  0  0  0  0  0  0  0  0  0  0  0
   48.9614   32.2943   41.0796 H   0  0  0  0  0  0  0  0  0  0  0  0
   48.5871   35.0306   42.8720 H   0  0  0  0  0  0  0  0  0  0  0  0
   49.8739   34.2910   41.8183 H   0  0  0  0  0  0  0  0  0  0  0  0
   49.4162   36.8411   42.0551 H   0  0  0  0  0  0  0  0  0  0  0  0
   50.1039   36.0974   40.7123 H   0  0  0  0  0  0  0  0  0  0  0  0
   44.0555   32.1608   37.9642 H   0  0  0  0  0  0  0  0  0  0  0  0
   43.9747   33.8880   38.4268 H   0  0  0  0  0  0  0  0  0  0  0  0
   44.9859   34.0870   36.3631 H   0  0  0  0  0  0  0  0  0  0  0  0
   46.4520   33.8679   37.4313 H   0  0  0  0  0  0  0  0  0  0  0  0
   47.5950   31.9787   37.5195 H   0  0  0  0  0  0  0  0  0  0  0  0
   47.4153   30.7750   36.2231 H   0  0  0  0  0  0  0  0  0  0  0  0
   47.8908   33.7517   35.6435 H   0  0  0  0  0  0  0  0  0  0  0  0
   49.2414   32.6356   35.8597 H   0  0  0  0  0  0  0  0  0  0  0  0
   48.0173   33.0020   33.4556 H   0  0  0  0  0  0  0  0  0  0  0  0
   48.7016   31.4029   33.9476 H   0  0  0  0  0  0  0  0  0  0  0  0
   46.2415   31.5982   33.0028 H   0  0  0  0  0  0  0  0  0  0  0  0
   46.6542   30.4917   34.3890 H   0  0  0  0  0  0  0  0  0  0  0  0
   45.3856   33.2257   34.5349 H   0  0  0  0  0  0  0  0  0  0  0  0
   44.6275   31.6059   34.8661 H   0  0  0  0  0  0  0  0  0  0  0  0
  1  6  2  0
  2  3  2  0
  2  1  1  0
  3  4  1  0
  4  5  2  0
  6  5  1  0
  7  9  1  0
  7  1  1  0
  7 10  1  0
  8  7  1  0
 11 10  1  0
 12  2  1  0
 13 12  1  0
 14 13  1  0
 15 16  1  0
 15 14  1  0
 17 16  1  0
 18 17  1  0
 19 18  1  0
 19 20  1  0
 20 15  1  0
  3 21  1  0
  5 22  1  0
  8 23  1  0
  8 24  1  0
  8 25  1  0
  9 26  1  0
  9 27  1  0
  9 28  1  0
 10 29  1  0
 10 30  1  0
 11 31  1  0
 11 32  1  0
 13 33  1  0
 13 34  1  0
 14 35  1  0
 14 36  1  0
 16 37  1  0
 16 38  1  0
 17 39  1  0
 17 40  1  0
 18 41  1  0
 18 42  1  0
 19 43  1  0
 19 44  1  0
 20 45  1  0
 20 46  1  0
M  ISO  8  21  14  22  14  23   8  24   8  25   8  26   8  27   8  28   8
M  ISO  8  29   8  30   8  31   5  32   5  33   8  34   8  35   8  36   8
M  ISO  8  37  13  38  13  39  13  40  13  41  13  42  13  43  13  44  13
M  ISO  2  45  13  46  13
M  END
>  <minimizedAffinity>  (1) 
-4.17298174

>  <minimizedRMSD>  (1) 
0.941034317

$$$$
