
     RDKit          3D

 33 33  0  0  0  0  0  0  0  0999 V2000
   46.5970   34.7310   41.7530 C   0  0  0  0  0  0  0  0  0  0  0  0
   45.5070   34.1650   41.0630 C   0  0  0  0  0  0  0  0  0  0  0  0
   44.2240   34.4990   41.4320 C   0  0  0  0  0  0  0  0  0  0  0  0
   44.0250   35.3660   42.4540 N   0  0  0  0  0  0  0  0  0  0  0  0
   45.0970   35.9010   43.1080 C   0  0  0  0  0  0  0  0  0  0  0  0
   46.3280   35.5880   42.7630 N   0  0  0  0  0  0  0  0  0  0  0  0
   47.9440   34.2900   41.2580 C   0  0  0  0  0  0  0  0  0  0  0  0
   48.1580   34.4330   39.8160 C   0  0  0  0  0  0  0  0  0  0  0  0
   48.0410   32.8500   41.6720 C   0  0  0  0  0  0  0  0  0  0  0  0
   49.0160   35.0210   42.0890 C   0  0  0  0  0  0  0  0  0  0  0  0
   49.2470   36.3510   41.6170 N   0  0  0  0  0  0  0  0  0  0  0  0
   45.7400   33.0460   39.7430 S   0  0  0  0  0  0  0  0  0  0  0  0
   44.4570   33.1890   38.4900 C   0  0  0  0  0  0  0  0  0  0  0  0
   45.0320   32.9060   37.1340 C   0  0  0  0  0  0  0  0  0  0  0  0
   46.0670   33.8740   36.8600 N   0  0  0  0  0  0  0  0  0  0  0  0
   43.3647   34.0645   40.9001 H   0  0  0  0  0  0  0  0  0  0  0  0
   44.9294   36.6049   43.9365 H   0  0  0  0  0  0  0  0  0  0  0  0
   49.0604   35.0360   39.6373 H   0  0  0  0  0  0  0  0  0  0  0  0
   48.2861   33.4384   39.3639 H   0  0  0  0  0  0  0  0  0  0  0  0
   47.2881   34.9319   39.3639 H   0  0  0  0  0  0  0  0  0  0  0  0
   48.0455   32.7837   42.7700 H   0  0  0  0  0  0  0  0  0  0  0  0
   47.1782   32.2953   41.2747 H   0  0  0  0  0  0  0  0  0  0  0  0
   48.9704   32.4160   41.2747 H   0  0  0  0  0  0  0  0  0  0  0  0
   48.6818   35.0690   43.1359 H   0  0  0  0  0  0  0  0  0  0  0  0
   49.9577   34.4600   41.9965 H   0  0  0  0  0  0  0  0  0  0  0  0
   49.3573   36.9861   42.4204 H   0  0  0  0  0  0  0  0  0  0  0  0
   50.1036   36.3685   41.0453 H   0  0  0  0  0  0  0  0  0  0  0  0
   43.6560   32.4662   38.7043 H   0  0  0  0  0  0  0  0  0  0  0  0
   44.0502   34.2109   38.5041 H   0  0  0  0  0  0  0  0  0  0  0  0
   45.4590   31.8924   37.1170 H   0  0  0  0  0  0  0  0  0  0  0  0
   44.2432   32.9739   36.3704 H   0  0  0  0  0  0  0  0  0  0  0  0
   46.4478   34.2302   37.7483 H   0  0  0  0  0  0  0  0  0  0  0  0
   46.8203   33.4271   36.3181 H   0  0  0  0  0  0  0  0  0  0  0  0
  1  6  2  0
  2  3  2  0
  2  1  1  0
  3  4  1  0
  4  5  2  0
  6  5  1  0
  7  9  1  0
  7  1  1  0
  7 10  1  0
  8  7  1  0
 11 10  1  0
 12  2  1  0
 13 12  1  0
 14 13  1  0
 15 14  1  0
  3 16  1  0
  5 17  1  0
  8 18  1  0
  8 19  1  0
  8 20  1  0
  9 21  1  0
  9 22  1  0
  9 23  1  0
 10 24  1  0
 10 25  1  0
 11 26  1  0
 11 27  1  0
 13 28  1  0
 13 29  1  0
 14 30  1  0
 14 31  1  0
 15 32  1  0
 15 33  1  0
M  ISO  8  16  14  17  14  18   8  19   8  20   8  21   8  22   8  23   8
M  ISO  8  24   8  25   8  26   5  27   5  28   8  29   8  30   8  31   8
M  ISO  2  32   5  33   5
M  END
>  <minimizedAffinity>  (1) 
-3.92435241

>  <minimizedRMSD>  (1) 
0.109325893

$$$$
