
     RDKit          3D

 44 46  0  0  1  0  0  0  0  0999 V2000
   45.5770   34.9010   42.5980 C   0  0  2  0  0  0  0  0  0  0  0  0
   44.6820   35.2340   44.9920 C   0  0  0  0  0  0  0  0  0  0  0  0
   45.4640   34.5030   44.0340 C   0  0  0  0  0  0  0  0  0  0  0  0
   46.1200   33.3670   44.5510 C   0  0  0  0  0  0  0  0  0  0  0  0
   45.9570   33.0780   45.8600 N   0  0  0  0  0  0  0  0  0  0  0  0
   45.2200   33.7850   46.7140 C   0  0  0  0  0  0  0  0  0  0  0  0
   44.5610   34.8990   46.2650 N   0  0  0  0  0  0  0  0  0  0  0  0
   46.8800   35.6350   42.4790 C   0  0  0  0  0  0  0  0  0  0  0  0
   47.8190   35.0630   41.5700 N   0  0  0  0  0  0  0  0  0  0  0  0
   49.1370   35.1570   42.1200 C   0  0  0  0  0  0  0  0  0  0  0  0
   49.9310   33.9240   42.1880 C   0  0  0  0  0  0  0  0  0  0  0  0
   49.0130   32.9090   42.5590 O   0  0  0  0  0  0  0  0  0  0  0  0
   48.2880   32.6700   41.4030 C   0  0  0  0  0  0  0  0  0  0  0  0
   47.5590   33.8880   40.8950 C   0  0  2  0  0  0  0  0  0  0  0  0
   48.0730   34.1130   39.4650 C   0  0  0  0  0  0  0  0  0  0  0  0
   44.4140   35.6670   42.1980 C   0  0  0  0  0  0  0  0  0  0  0  0
   43.3730   35.3000   41.3030 C   0  0  0  0  0  0  0  0  0  0  0  0
   43.1500   34.8450   40.0400 C   0  0  0  0  0  0  0  0  0  0  0  0
   41.9870   34.5810   39.3740 C   0  0  0  0  0  0  0  0  0  0  0  0
   40.8650   34.8260   40.1280 C   0  0  0  0  0  0  0  0  0  0  0  0
   40.9730   35.2890   41.4150 C   0  0  0  0  0  0  0  0  0  0  0  0
   42.1690   35.5020   41.9380 N   0  0  0  0  0  0  0  0  0  0  0  0
   45.5881   34.0444   41.9079 H   0  0  0  0  0  0  0  0  0  0  0  0
   44.1491   36.1310   44.6435 H   0  0  0  0  0  0  0  0  0  0  0  0
   46.7470   32.7339   43.9061 H   0  0  0  0  0  0  0  0  0  0  0  0
   45.1411   33.4784   47.7675 H   0  0  0  0  0  0  0  0  0  0  0  0
   46.6636   36.6602   42.1443 H   0  0  0  0  0  0  0  0  0  0  0  0
   47.3492   35.5868   43.4728 H   0  0  0  0  0  0  0  0  0  0  0  0
   49.6991   35.8779   41.5081 H   0  0  0  0  0  0  0  0  0  0  0  0
   48.9834   35.4505   43.1689 H   0  0  0  0  0  0  0  0  0  0  0  0
   50.3789   33.6995   41.2087 H   0  0  0  0  0  0  0  0  0  0  0  0
   50.7608   34.0091   42.9051 H   0  0  0  0  0  0  0  0  0  0  0  0
   48.9809   32.3261   40.6209 H   0  0  0  0  0  0  0  0  0  0  0  0
   47.5282   31.9124   41.6452 H   0  0  0  0  0  0  0  0  0  0  0  0
   46.4837   33.6849   41.0069 H   0  0  0  0  0  0  0  0  0  0  0  0
   49.0801   34.5539   39.5025 H   0  0  0  0  0  0  0  0  0  0  0  0
   48.1136   33.1504   38.9343 H   0  0  0  0  0  0  0  0  0  0  0  0
   47.3933   34.7959   38.9343 H   0  0  0  0  0  0  0  0  0  0  0  0
   43.8973   35.8953   43.1419 H   0  0  0  0  0  0  0  0  0  0  0  0
   44.9217   36.4031   41.5573 H   0  0  0  0  0  0  0  0  0  0  0  0
   44.0627   34.6577   39.4552 H   0  0  0  0  0  0  0  0  0  0  0  0
   41.9523   34.2099   38.3391 H   0  0  0  0  0  0  0  0  0  0  0  0
   39.8693   34.6491   39.6952 H   0  0  0  0  0  0  0  0  0  0  0  0
   40.0681   35.4824   42.0098 H   0  0  0  0  0  0  0  0  0  0  0  0
  1  3  1  0
  2  7  2  0
  3  4  2  0
  3  2  1  0
  4  5  1  0
  5  6  2  0
  7  6  1  0
  8  1  1  0
  9 10  1  0
  9  8  1  0
 10 11  1  0
 11 12  1  0
 13 12  1  0
 14 13  1  0
 14  9  1  0
 15 14  1  0
 16  1  1  0
 17 22  1  0
 17 16  1  0
 18 17  2  0
 19 18  1  0
 19 20  2  0
 20 21  1  0
 21 22  2  0
  1 23  1  6
  2 24  1  0
  4 25  1  0
  6 26  1  0
  8 27  1  0
  8 28  1  0
 10 29  1  0
 10 30  1  0
 11 31  1  0
 11 32  1  0
 13 33  1  0
 13 34  1  0
 14 35  1  6
 15 36  1  0
 15 37  1  0
 15 38  1  0
 16 39  1  0
 16 40  1  0
 18 41  1  0
 19 42  1  0
 20 43  1  0
 21 44  1  0
M  ISO  8  23   8  24  14  25  14  26  14  27   8  28   8  29  13  30  13
M  ISO  8  31  13  32  13  33  13  34  13  35  13  36   8  37   8  38   8
M  ISO  6  39   8  40   8  41  14  42  14  43  14  44  14
M  END
>  <minimizedAffinity>  (1) 
-5.29675055

>  <minimizedRMSD>  (1) 
2.3383708

$$$$
