
     RDKit          3D

 34 36  0  0  1  0  0  0  0  0999 V2000
   43.8180   35.2740   42.5990 C   0  0  0  0  0  0  0  0  0  0  0  0
   43.2360   34.7020   41.4680 C   0  0  0  0  0  0  0  0  0  0  0  0
   44.0980   34.0610   40.5380 C   0  0  0  0  0  0  0  0  0  0  0  0
   45.4330   34.0400   40.7980 N   0  0  0  0  0  0  0  0  0  0  0  0
   45.9600   34.6100   41.9100 C   0  0  0  0  0  0  0  0  0  0  0  0
   45.1500   35.2240   42.8070 N   0  0  0  0  0  0  0  0  0  0  0  0
   41.7840   34.8040   41.2860 C   0  0  2  0  0  0  0  0  0  0  0  0
   41.1810   33.4190   41.2810 C   0  0  0  0  0  0  0  0  0  0  0  0
   39.8820   33.2700   40.6660 C   0  0  0  0  0  0  0  0  0  0  0  0
   39.2050   34.4260   40.0780 C   0  0  0  0  0  0  0  0  0  0  0  0
   39.8650   35.7370   40.1930 C   0  0  0  0  0  0  0  0  0  0  0  0
   41.3610   35.5890   40.0850 C   0  0  0  0  0  0  0  0  0  0  0  0
   47.4060   34.5360   42.1020 C   0  0  0  0  0  0  0  0  0  0  0  0
   47.9900   33.3780   42.5720 C   0  0  0  0  0  0  0  0  0  0  0  0
   49.3610   33.3900   42.7250 C   0  0  0  0  0  0  0  0  0  0  0  0
   50.1380   34.5090   42.4250 C   0  0  0  0  0  0  0  0  0  0  0  0
   49.5220   35.6730   41.9500 C   0  0  0  0  0  0  0  0  0  0  0  0
   48.1380   35.6640   41.7930 C   0  0  0  0  0  0  0  0  0  0  0  0
   43.1768   35.7770   43.3378 H   0  0  0  0  0  0  0  0  0  0  0  0
   43.6948   33.5923   39.6282 H   0  0  0  0  0  0  0  0  0  0  0  0
   41.3989   35.3815   42.1393 H   0  0  0  0  0  0  0  0  0  0  0  0
   41.7075   32.5618   41.7259 H   0  0  0  0  0  0  0  0  0  0  0  0
   39.3994   32.2819   40.6398 H   0  0  0  0  0  0  0  0  0  0  0  0
   38.2202   34.5105   40.5606 H   0  0  0  0  0  0  0  0  0  0  0  0
   39.1865   34.2178   38.9980 H   0  0  0  0  0  0  0  0  0  0  0  0
   39.5075   36.3937   39.3862 H   0  0  0  0  0  0  0  0  0  0  0  0
   39.6215   36.1718   41.1736 H   0  0  0  0  0  0  0  0  0  0  0  0
   41.6265   35.0506   39.1632 H   0  0  0  0  0  0  0  0  0  0  0  0
   41.8615   36.5678   40.0459 H   0  0  0  0  0  0  0  0  0  0  0  0
   47.3911   32.4875   42.8133 H   0  0  0  0  0  0  0  0  0  0  0  0
   49.8601   32.4833   43.0975 H   0  0  0  0  0  0  0  0  0  0  0  0
   51.2291   34.4770   42.5609 H   0  0  0  0  0  0  0  0  0  0  0  0
   50.1135   36.5683   41.7079 H   0  0  0  0  0  0  0  0  0  0  0  0
   47.6249   36.5627   41.4200 H   0  0  0  0  0  0  0  0  0  0  0  0
  1  6  2  0
  2  1  1  0
  3  4  1  0
  3  2  2  0
  4  5  2  0
  5 13  1  0
  5  6  1  0
  7  2  1  0
  8  7  1  0
  9  8  2  0
 10 11  1  0
 10  9  1  0
 12 11  1  0
 12  7  1  0
 13 14  2  0
 14 15  1  0
 16 15  2  0
 17 16  1  0
 18 17  2  0
 18 13  1  0
  1 19  1  0
  3 20  1  0
  7 21  1  1
  8 22  1  0
  9 23  1  0
 10 24  1  0
 10 25  1  0
 11 26  1  0
 11 27  1  0
 12 28  1  0
 12 29  1  0
 14 30  1  0
 15 31  1  0
 16 32  1  0
 17 33  1  0
 18 34  1  0
M  ISO  8  19  14  20  14  21  13  22  13  23  13  24  13  25  13  26  13
M  ISO  8  27  13  28  13  29  13  30  14  31  14  32  14  33  14  34  14
M  END
>  <minimizedAffinity>  (1) 
-5.87506294

>  <minimizedRMSD>  (1) 
7.99104166

$$$$
