
     RDKit          3D

 35 37  0  0  1  0  0  0  0  0999 V2000
   44.0250   35.4910   42.5430 C   0  0  0  0  0  0  0  0  0  0  0  0
   43.4900   34.6710   41.5500 C   0  0  0  0  0  0  0  0  0  0  0  0
   43.7220   33.2710   41.6290 C   0  0  0  0  0  0  0  0  0  0  0  0
   44.4550   32.8000   42.6690 N   0  0  0  0  0  0  0  0  0  0  0  0
   44.9560   33.6390   43.6090 C   0  0  0  0  0  0  0  0  0  0  0  0
   44.7400   34.9740   43.5430 N   0  0  0  0  0  0  0  0  0  0  0  0
   45.7090   33.0000   44.6470 N   0  0  0  0  0  0  0  0  0  0  0  0
   46.4750   31.9140   44.4310 C   0  0  0  0  0  0  0  0  0  0  0  0
   47.1590   31.3840   45.5150 C   0  0  0  0  0  0  0  0  0  0  0  0
   47.0700   31.9340   46.7780 C   0  0  0  0  0  0  0  0  0  0  0  0
   47.8150   31.3080   47.8190 N   0  0  0  0  0  0  0  0  0  0  0  0
   46.2930   33.0120   46.9330 N   0  0  0  0  0  0  0  0  0  0  0  0
   45.6140   33.5480   45.8780 C   0  0  0  0  0  0  0  0  0  0  0  0
   44.9320   34.5570   46.2000 O   0  0  0  0  0  0  0  0  0  0  0  0
   42.7070   35.2790   40.4450 C   0  0  2  0  0  0  0  0  0  0  0  0
   41.2640   35.4180   40.8830 C   0  0  0  0  0  0  0  0  0  0  0  0
   40.2380   35.4850   39.8610 C   0  0  0  0  0  0  0  0  0  0  0  0
   40.6250   35.4120   38.4610 C   0  0  0  0  0  0  0  0  0  0  0  0
   42.0600   35.4030   38.1480 C   0  0  0  0  0  0  0  0  0  0  0  0
   42.7940   34.5420   39.1490 C   0  0  0  0  0  0  0  0  0  0  0  0
   43.8553   36.5770   42.5010 H   0  0  0  0  0  0  0  0  0  0  0  0
   43.3181   32.5877   40.8674 H   0  0  0  0  0  0  0  0  0  0  0  0
   46.5555   31.4633   43.4308 H   0  0  0  0  0  0  0  0  0  0  0  0
   47.7923   30.4975   45.3635 H   0  0  0  0  0  0  0  0  0  0  0  0
   47.7781   31.6848   48.7769 H   0  0  0  0  0  0  0  0  0  0  0  0
   48.3904   30.4788   47.6135 H   0  0  0  0  0  0  0  0  0  0  0  0
   43.1529   36.2642   40.2437 H   0  0  0  0  0  0  0  0  0  0  0  0
   41.0009   35.4669   41.9500 H   0  0  0  0  0  0  0  0  0  0  0  0
   39.1794   35.5898   40.1411 H   0  0  0  0  0  0  0  0  0  0  0  0
   40.1932   34.4881   38.0487 H   0  0  0  0  0  0  0  0  0  0  0  0
   40.2506   36.3478   38.0204 H   0  0  0  0  0  0  0  0  0  0  0  0
   42.2111   34.9976   37.1367 H   0  0  0  0  0  0  0  0  0  0  0  0
   42.4498   36.4305   38.1961 H   0  0  0  0  0  0  0  0  0  0  0  0
   42.3137   33.5560   39.2339 H   0  0  0  0  0  0  0  0  0  0  0  0
   43.8372   34.3643   38.8486 H   0  0  0  0  0  0  0  0  0  0  0  0
  1  6  2  0
  2  3  2  0
  2  1  1  0
  3  4  1  0
  4  5  2  0
  5  7  1  0
  6  5  1  0
  7 13  1  0
  8  7  1  0
  8  9  2  0
  9 10  1  0
 10 12  2  0
 10 11  1  0
 13 14  2  0
 13 12  1  0
 15 16  1  0
 15  2  1  0
 17 16  2  0
 18 17  1  0
 19 18  1  0
 19 20  1  0
 20 15  1  0
  1 21  1  0
  3 22  1  0
  8 23  1  0
  9 24  1  0
 11 25  1  0
 11 26  1  0
 15 27  1  6
 16 28  1  0
 17 29  1  0
 18 30  1  0
 18 31  1  0
 19 32  1  0
 19 33  1  0
 20 34  1  0
 20 35  1  0
M  ISO  8  21  14  22  14  23  14  24  14  27  13  28  13  29  13  30  13
M  ISO  5  31  13  32  13  33  13  34  13  35  13
M  END
>  <minimizedAffinity>  (1) 
-6.07598209

>  <minimizedRMSD>  (1) 
5.8597455

$$$$
