
     RDKit          3D

 29 31  0  0  1  0  0  0  0  0999 V2000
   47.2190   34.6290   42.7420 C   0  0  2  0  0  0  0  0  0  0  0  0
   46.5930   33.9740   41.5320 C   0  0  0  0  0  0  0  0  0  0  0  0
   47.2440   34.1730   40.2570 C   0  0  0  0  0  0  0  0  0  0  0  0
   48.4600   34.9830   40.1480 C   0  0  0  0  0  0  0  0  0  0  0  0
   48.9090   35.6710   41.3900 C   0  0  0  0  0  0  0  0  0  0  0  0
   48.6960   34.7830   42.5770 C   0  0  0  0  0  0  0  0  0  0  0  0
   45.8440   34.4230   44.7950 C   0  0  0  0  0  0  0  0  0  0  0  0
   46.8250   33.8860   43.9610 C   0  0  0  0  0  0  0  0  0  0  0  0
   47.4120   32.6450   44.3270 C   0  0  0  0  0  0  0  0  0  0  0  0
   46.9860   32.0460   45.4710 N   0  0  0  0  0  0  0  0  0  0  0  0
   46.0260   32.6140   46.2460 C   0  0  0  0  0  0  0  0  0  0  0  0
   45.4570   33.7980   45.9090 N   0  0  0  0  0  0  0  0  0  0  0  0
   45.6690   31.8580   47.4430 C   0  0  0  0  0  0  0  0  0  0  0  0
   45.7580   32.4410   48.6530 N   0  0  0  0  0  0  0  0  0  0  0  0
   45.4010   31.6210   49.5940 O   0  0  0  0  0  0  0  0  0  0  0  0
   45.0730   30.4870   49.0000 C   0  0  0  0  0  0  0  0  0  0  0  0
   45.2320   30.6070   47.6540 N   0  0  0  0  0  0  0  0  0  0  0  0
   46.8386   35.6554   42.8503 H   0  0  0  0  0  0  0  0  0  0  0  0
   45.6780   33.3697   41.6184 H   0  0  0  0  0  0  0  0  0  0  0  0
   46.8198   33.7090   39.3543 H   0  0  0  0  0  0  0  0  0  0  0  0
   49.2747   34.3215   39.8183 H   0  0  0  0  0  0  0  0  0  0  0  0
   48.2132   35.7880   39.4401 H   0  0  0  0  0  0  0  0  0  0  0  0
   49.9785   35.9139   41.3048 H   0  0  0  0  0  0  0  0  0  0  0  0
   48.3245   36.5935   41.5215 H   0  0  0  0  0  0  0  0  0  0  0  0
   49.1620   33.8017   42.4042 H   0  0  0  0  0  0  0  0  0  0  0  0
   49.1508   35.2159   43.4802 H   0  0  0  0  0  0  0  0  0  0  0  0
   45.3788   35.3835   44.5284 H   0  0  0  0  0  0  0  0  0  0  0  0
   48.1897   32.1815   43.7021 H   0  0  0  0  0  0  0  0  0  0  0  0
   44.7235   29.5810   49.5167 H   0  0  0  0  0  0  0  0  0  0  0  0
  1  8  1  0
  2  1  1  0
  3  2  2  0
  4  3  1  0
  4  5  1  0
  5  6  1  0
  6  1  1  0
  7 12  2  0
  8  9  2  0
  8  7  1  0
  9 10  1  0
 10 11  2  0
 11 13  1  0
 12 11  1  0
 13 17  1  0
 13 14  2  0
 14 15  1  0
 16 15  1  0
 17 16  2  0
  1 18  1  1
  2 19  1  0
  3 20  1  0
  4 21  1  0
  4 22  1  0
  5 23  1  0
  5 24  1  0
  6 25  1  0
  6 26  1  0
  7 27  1  0
  9 28  1  0
 16 29  1  0
M  ISO  8  18  13  19  13  20  13  21  13  22  13  23  13  24  13  25  13
M  ISO  4  26  13  27  14  28  14  29  14
M  END
>  <minimizedAffinity>  (1) 
-5.79702234

>  <minimizedRMSD>  (1) 
3.33740854

$$$$
