
     RDKit          3D

 40 43  0  0  1  0  0  0  0  0999 V2000
   45.9550   31.8970   46.4240 C   0  0  0  0  0  0  0  0  0  0  0  0
   46.3470   31.9160   45.0870 C   0  0  0  0  0  0  0  0  0  0  0  0
   46.2400   30.6930   44.3830 C   0  0  0  0  0  0  0  0  0  0  0  0
   45.7690   29.6090   45.0570 N   0  0  0  0  0  0  0  0  0  0  0  0
   45.4020   29.6250   46.3350 C   0  0  0  0  0  0  0  0  0  0  0  0
   45.5080   30.7680   46.9740 N   0  0  0  0  0  0  0  0  0  0  0  0
   46.8520   33.1520   44.4650 C   0  0  2  0  0  0  0  0  0  0  0  0
   45.6730   34.0350   44.1060 C   0  0  0  0  0  0  0  0  0  0  0  0
   45.8670   35.0170   43.0610 C   0  0  0  0  0  0  0  0  0  0  0  0
   47.1630   35.1260   42.3960 C   0  0  0  0  0  0  0  0  0  0  0  0
   48.2650   34.2980   42.9140 C   0  0  0  0  0  0  0  0  0  0  0  0
   47.7460   32.9300   43.2850 C   0  0  0  0  0  0  0  0  0  0  0  0
   44.9410   28.3110   46.7670 C   0  0  0  0  0  0  0  0  0  0  0  0
   45.6890   27.4820   47.5760 C   0  0  0  0  0  0  0  0  0  0  0  0
   45.3070   26.2500   48.0060 C   0  0  0  0  0  0  0  0  0  0  0  0
   44.0900   25.7400   47.6330 C   0  0  0  0  0  0  0  0  0  0  0  0
   43.2950   26.5180   46.8240 C   0  0  0  0  0  0  0  0  0  0  0  0
   42.0780   25.9810   46.4660 C   0  0  0  0  0  0  0  0  0  0  0  0
   41.2160   26.6860   45.6590 C   0  0  0  0  0  0  0  0  0  0  0  0
   41.6430   27.9370   45.2440 C   0  0  0  0  0  0  0  0  0  0  0  0
   42.8580   28.4280   45.6250 C   0  0  0  0  0  0  0  0  0  0  0  0
   43.7360   27.7560   46.4230 C   0  0  0  0  0  0  0  0  0  0  0  0
   46.0145   32.8153   47.0267 H   0  0  0  0  0  0  0  0  0  0  0  0
   46.5286   30.6210   43.3240 H   0  0  0  0  0  0  0  0  0  0  0  0
   47.4951   33.6497   45.2058 H   0  0  0  0  0  0  0  0  0  0  0  0
   44.7062   33.9330   44.6207 H   0  0  0  0  0  0  0  0  0  0  0  0
   45.0399   35.6803   42.7679 H   0  0  0  0  0  0  0  0  0  0  0  0
   47.4806   36.1770   42.4637 H   0  0  0  0  0  0  0  0  0  0  0  0
   46.9870   34.7522   41.3765 H   0  0  0  0  0  0  0  0  0  0  0  0
   49.0406   34.1969   42.1405 H   0  0  0  0  0  0  0  0  0  0  0  0
   48.6920   34.7788   43.8065 H   0  0  0  0  0  0  0  0  0  0  0  0
   47.1794   32.4934   42.4493 H   0  0  0  0  0  0  0  0  0  0  0  0
   48.5631   32.2307   43.5160 H   0  0  0  0  0  0  0  0  0  0  0  0
   46.6749   27.8470   47.8998 H   0  0  0  0  0  0  0  0  0  0  0  0
   45.9744   25.6622   48.6533 H   0  0  0  0  0  0  0  0  0  0  0  0
   43.7616   24.7452   47.9685 H   0  0  0  0  0  0  0  0  0  0  0  0
   41.7938   24.9819   46.8279 H   0  0  0  0  0  0  0  0  0  0  0  0
   40.2394   26.2783   45.3589 H   0  0  0  0  0  0  0  0  0  0  0  0
   40.9925   28.5440   44.5972 H   0  0  0  0  0  0  0  0  0  0  0  0
   43.1467   29.4270   45.2664 H   0  0  0  0  0  0  0  0  0  0  0  0
  1  6  2  0
  2  1  1  0
  3  4  1  0
  3  2  2  0
  4  5  2  0
  5 13  1  0
  5  6  1  0
  7  2  1  0
  8  7  1  0
  9  8  2  0
 10 11  1  0
 10  9  1  0
 11 12  1  0
 12  7  1  0
 13 14  2  0
 14 15  1  0
 16 15  2  0
 17 16  1  0
 18 17  2  0
 19 18  1  0
 20 21  1  0
 20 19  2  0
 21 22  2  0
 22 13  1  0
 22 17  1  0
  1 23  1  0
  3 24  1  0
  7 25  1  1
  8 26  1  0
  9 27  1  0
 10 28  1  0
 10 29  1  0
 11 30  1  0
 11 31  1  0
 12 32  1  0
 12 33  1  0
 14 34  1  0
 15 35  1  0
 16 36  1  0
 18 37  1  0
 19 38  1  0
 20 39  1  0
 21 40  1  0
M  ISO  8  23  14  24  14  25  13  26  13  27  13  28  13  29  13  30  13
M  ISO  8  31  13  32  13  33  13  34  14  35  14  36  14  37  14  38  14
M  ISO  2  39  14  40  14
M  END
>  <minimizedAffinity>  (1) 
-5.48573828

>  <minimizedRMSD>  (1) 
2.63847852

$$$$
