
     RDKit          3D

 27 28  0  0  1  0  0  0  0  0999 V2000
   46.0000   34.0200   44.8020 C   0  0  2  0  0  0  0  0  0  0  0  0
   44.9380   34.9850   45.2780 C   0  0  0  0  0  0  0  0  0  0  0  0
   44.5520   36.0480   44.3740 C   0  0  0  0  0  0  0  0  0  0  0  0
   45.1790   36.1630   43.0580 C   0  0  0  0  0  0  0  0  0  0  0  0
   46.2570   35.2140   42.7330 C   0  0  0  0  0  0  0  0  0  0  0  0
   45.9540   33.8580   43.3150 C   0  0  0  0  0  0  0  0  0  0  0  0
   45.6960   32.8090   46.9290 C   0  0  0  0  0  0  0  0  0  0  0  0
   45.8820   32.7510   45.5480 C   0  0  0  0  0  0  0  0  0  0  0  0
   45.9630   31.4740   44.9250 C   0  0  0  0  0  0  0  0  0  0  0  0
   45.8540   30.3690   45.7120 N   0  0  0  0  0  0  0  0  0  0  0  0
   45.6730   30.4670   47.0540 C   0  0  0  0  0  0  0  0  0  0  0  0
   45.5940   31.6760   47.6610 N   0  0  0  0  0  0  0  0  0  0  0  0
   45.5560   29.2820   47.8980 C   0  0  0  0  0  0  0  0  0  0  0  0
   45.8380   28.1240   47.5070 O   0  0  0  0  0  0  0  0  0  0  0  0
   45.1150   29.3700   49.2100 O   0  0  0  0  0  0  0  0  0  0  0  0
   47.0002   34.4250   45.0156 H   0  0  0  0  0  0  0  0  0  0  0  0
   44.4769   34.8835   46.2715 H   0  0  0  0  0  0  0  0  0  0  0  0
   43.7829   36.7730   44.6788 H   0  0  0  0  0  0  0  0  0  0  0  0
   44.3884   36.0343   42.3040 H   0  0  0  0  0  0  0  0  0  0  0  0
   45.6666   37.1490   43.0652 H   0  0  0  0  0  0  0  0  0  0  0  0
   46.3470   35.1278   41.6401 H   0  0  0  0  0  0  0  0  0  0  0  0
   47.2002   35.5841   43.1612 H   0  0  0  0  0  0  0  0  0  0  0  0
   44.9553   33.5223   42.9990 H   0  0  0  0  0  0  0  0  0  0  0  0
   46.6784   33.1045   42.9721 H   0  0  0  0  0  0  0  0  0  0  0  0
   45.6315   33.7869   47.4285 H   0  0  0  0  0  0  0  0  0  0  0  0
   46.1095   31.3827   43.8386 H   0  0  0  0  0  0  0  0  0  0  0  0
   45.0435   28.5527   49.7641 H   0  0  0  0  0  0  0  0  0  0  0  0
  1  2  1  0
  1  8  1  0
  3  2  2  0
  4  3  1  0
  5  4  1  0
  5  6  1  0
  6  1  1  0
  7 12  2  0
  8  7  1  0
  9  8  2  0
  9 10  1  0
 10 11  2  0
 11 12  1  0
 11 13  1  0
 13 15  1  0
 14 13  2  0
  1 16  1  6
  2 17  1  0
  3 18  1  0
  4 19  1  0
  4 20  1  0
  5 21  1  0
  5 22  1  0
  6 23  1  0
  6 24  1  0
  7 25  1  0
  9 26  1  0
 15 27  1  0
M  ISO  8  16  13  17  13  18  13  19  13  20  13  21  13  22  13  23  13
M  ISO  4  24  13  25  14  26  14  27   3
M  END
>  <minimizedAffinity>  (1) 
-4.67444324

>  <minimizedRMSD>  (1) 
1.02659726

$$$$
