
     RDKit          3D

 45 47  0  0  1  0  0  0  0  0999 V2000
   45.7170   34.8300   42.7270 C   0  0  2  0  0  0  0  0  0  0  0  0
   44.8510   34.8930   45.1250 C   0  0  0  0  0  0  0  0  0  0  0  0
   45.6720   34.3180   44.1050 C   0  0  0  0  0  0  0  0  0  0  0  0
   46.4520   33.2240   44.5150 C   0  0  0  0  0  0  0  0  0  0  0  0
   46.3660   32.8160   45.8030 N   0  0  0  0  0  0  0  0  0  0  0  0
   45.5780   33.3880   46.7310 C   0  0  0  0  0  0  0  0  0  0  0  0
   44.7970   34.4600   46.3810 N   0  0  0  0  0  0  0  0  0  0  0  0
   47.0040   35.6010   42.5830 C   0  0  0  0  0  0  0  0  0  0  0  0
   47.9220   35.0990   41.6180 N   0  0  0  0  0  0  0  0  0  0  0  0
   49.2630   35.1560   42.1430 C   0  0  0  0  0  0  0  0  0  0  0  0
   50.0420   33.9060   42.1160 C   0  0  0  0  0  0  0  0  0  0  0  0
   49.1440   32.8810   42.4320 O   0  0  0  0  0  0  0  0  0  0  0  0
   48.3900   32.7200   41.2820 C   0  0  0  0  0  0  0  0  0  0  0  0
   47.6430   33.9740   40.8670 C   0  0  2  0  0  0  0  0  0  0  0  0
   48.1420   34.3090   39.4480 C   0  0  0  0  0  0  0  0  0  0  0  0
   44.5280   35.6120   42.4040 C   0  0  0  0  0  0  0  0  0  0  0  0
   43.6310   35.1570   41.3560 C   0  0  0  0  0  0  0  0  0  0  0  0
   42.3020   35.5780   41.3870 C   0  0  0  0  0  0  0  0  0  0  0  0
   41.3180   35.2540   40.4780 C   0  0  0  0  0  0  0  0  0  0  0  0
   41.6620   34.4320   39.4240 C   0  0  0  0  0  0  0  0  0  0  0  0
   42.9600   33.9780   39.3330 C   0  0  0  0  0  0  0  0  0  0  0  0
   43.9000   34.3400   40.2760 C   0  0  0  0  0  0  0  0  0  0  0  0
   45.7069   34.0070   41.9972 H   0  0  0  0  0  0  0  0  0  0  0  0
   44.2210   35.7524   44.8518 H   0  0  0  0  0  0  0  0  0  0  0  0
   47.1176   32.7105   43.8056 H   0  0  0  0  0  0  0  0  0  0  0  0
   45.5601   33.0000   47.7602 H   0  0  0  0  0  0  0  0  0  0  0  0
   46.7493   36.6334   42.3015 H   0  0  0  0  0  0  0  0  0  0  0  0
   47.5141   35.5150   43.5538 H   0  0  0  0  0  0  0  0  0  0  0  0
   49.8171   35.9057   41.5591 H   0  0  0  0  0  0  0  0  0  0  0  0
   49.1438   35.3971   43.2096 H   0  0  0  0  0  0  0  0  0  0  0  0
   50.4690   33.7441   41.1153 H   0  0  0  0  0  0  0  0  0  0  0  0
   50.8796   33.9396   42.8283 H   0  0  0  0  0  0  0  0  0  0  0  0
   49.0632   32.4285   40.4623 H   0  0  0  0  0  0  0  0  0  0  0  0
   47.6346   31.9495   41.4958 H   0  0  0  0  0  0  0  0  0  0  0  0
   46.5701   33.7573   40.9761 H   0  0  0  0  0  0  0  0  0  0  0  0
   49.0536   34.9210   39.5149 H   0  0  0  0  0  0  0  0  0  0  0  0
   48.3649   33.3769   38.9081 H   0  0  0  0  0  0  0  0  0  0  0  0
   47.3637   34.8683   38.9081 H   0  0  0  0  0  0  0  0  0  0  0  0
   43.9321   35.6822   43.3259 H   0  0  0  0  0  0  0  0  0  0  0  0
   44.9392   36.5492   42.0007 H   0  0  0  0  0  0  0  0  0  0  0  0
   42.0098   36.2342   42.2201 H   0  0  0  0  0  0  0  0  0  0  0  0
   40.2930   35.6376   40.5888 H   0  0  0  0  0  0  0  0  0  0  0  0
   40.9139   34.1446   38.6705 H   0  0  0  0  0  0  0  0  0  0  0  0
   43.2496   33.3204   38.5002 H   0  0  0  0  0  0  0  0  0  0  0  0
   44.9239   33.9550   40.1605 H   0  0  0  0  0  0  0  0  0  0  0  0
  1  3  1  0
  2  7  2  0
  3  4  2  0
  3  2  1  0
  4  5  1  0
  5  6  2  0
  7  6  1  0
  8  1  1  0
  9 10  1  0
  9  8  1  0
 11 10  1  0
 11 12  1  0
 13 12  1  0
 14 13  1  0
 14  9  1  0
 15 14  1  0
 16  1  1  0
 17 18  2  0
 17 16  1  0
 19 18  1  0
 20 19  2  0
 21 20  1  0
 21 22  2  0
 22 17  1  0
  1 23  1  6
  2 24  1  0
  4 25  1  0
  6 26  1  0
  8 27  1  0
  8 28  1  0
 10 29  1  0
 10 30  1  0
 11 31  1  0
 11 32  1  0
 13 33  1  0
 13 34  1  0
 14 35  1  6
 15 36  1  0
 15 37  1  0
 15 38  1  0
 16 39  1  0
 16 40  1  0
 18 41  1  0
 19 42  1  0
 20 43  1  0
 21 44  1  0
 22 45  1  0
M  ISO  8  23   8  24  14  25  14  26  14  27   8  28   8  29  13  30  13
M  ISO  8  31  13  32  13  33  13  34  13  35  13  36   8  37   8  38   8
M  ISO  7  39   8  40   8  41  14  42  14  43  14  44  14  45  14
M  END
>  <minimizedAffinity>  (1) 
-5.28211308

>  <minimizedRMSD>  (1) 
2.3642261

$$$$
