
     RDKit          3D

 34 36  0  0  1  0  0  0  0  0999 V2000
   46.0190   32.2820   46.5970 C   0  0  0  0  0  0  0  0  0  0  0  0
   45.9320   32.4740   45.2180 C   0  0  0  0  0  0  0  0  0  0  0  0
   45.8280   31.3180   44.4170 C   0  0  0  0  0  0  0  0  0  0  0  0
   45.8180   30.0930   45.0010 N   0  0  0  0  0  0  0  0  0  0  0  0
   45.9060   29.9580   46.3470 C   0  0  0  0  0  0  0  0  0  0  0  0
   46.0060   31.0530   47.1380 N   0  0  0  0  0  0  0  0  0  0  0  0
   45.9660   33.8320   44.6680 C   0  0  2  0  0  0  0  0  0  0  0  0
   45.0000   34.7050   45.4350 C   0  0  0  0  0  0  0  0  0  0  0  0
   44.5520   35.9170   44.7730 C   0  0  0  0  0  0  0  0  0  0  0  0
   45.0260   36.2530   43.4320 C   0  0  0  0  0  0  0  0  0  0  0  0
   46.0460   35.3510   42.8280 C   0  0  0  0  0  0  0  0  0  0  0  0
   45.7040   33.9270   43.1950 C   0  0  0  0  0  0  0  0  0  0  0  0
   45.8970   28.6490   46.9890 C   0  0  0  0  0  0  0  0  0  0  0  0
   47.0200   27.8490   46.9900 C   0  0  0  0  0  0  0  0  0  0  0  0
   47.0680   26.5950   47.5850 C   0  0  0  0  0  0  0  0  0  0  0  0
   45.8960   26.1590   48.2040 C   0  0  0  0  0  0  0  0  0  0  0  0
   44.7320   26.9150   48.2400 C   0  0  0  0  0  0  0  0  0  0  0  0
   44.7880   28.1340   47.6250 C   0  0  0  0  0  0  0  0  0  0  0  0
   46.1002   33.1583   47.2570 H   0  0  0  0  0  0  0  0  0  0  0  0
   45.7553   31.4089   43.3232 H   0  0  0  0  0  0  0  0  0  0  0  0
   47.0006   34.1848   44.7912 H   0  0  0  0  0  0  0  0  0  0  0  0
   44.6538   34.4358   46.4438 H   0  0  0  0  0  0  0  0  0  0  0  0
   43.8486   36.5893   45.2860 H   0  0  0  0  0  0  0  0  0  0  0  0
   44.1524   36.2601   42.7637 H   0  0  0  0  0  0  0  0  0  0  0  0
   45.5334   37.2226   43.5437 H   0  0  0  0  0  0  0  0  0  0  0  0
   47.0430   35.6052   43.2171 H   0  0  0  0  0  0  0  0  0  0  0  0
   46.0514   35.4673   41.7342 H   0  0  0  0  0  0  0  0  0  0  0  0
   44.6472   33.7145   42.9758 H   0  0  0  0  0  0  0  0  0  0  0  0
   46.2972   33.1990   42.6222 H   0  0  0  0  0  0  0  0  0  0  0  0
   47.9267   28.2242   46.4928 H   0  0  0  0  0  0  0  0  0  0  0  0
   47.9796   25.9795   47.5691 H   0  0  0  0  0  0  0  0  0  0  0  0
   45.8941   25.1702   48.6860 H   0  0  0  0  0  0  0  0  0  0  0  0
   43.8183   26.5538   48.7346 H   0  0  0  0  0  0  0  0  0  0  0  0
   43.8780   28.7518   47.6386 H   0  0  0  0  0  0  0  0  0  0  0  0
  1  6  2  0
  2  1  1  0
  3  4  1  0
  3  2  2  0
  4  5  2  0
  5 13  1  0
  5  6  1  0
  7  2  1  0
  7  8  1  0
  9  8  2  0
 10  9  1  0
 11 12  1  0
 11 10  1  0
 12  7  1  0
 13 14  2  0
 13 18  1  0
 14 15  1  0
 15 16  2  0
 16 17  1  0
 18 17  2  0
  1 19  1  0
  3 20  1  0
  7 21  1  6
  8 22  1  0
  9 23  1  0
 10 24  1  0
 10 25  1  0
 11 26  1  0
 11 27  1  0
 12 28  1  0
 12 29  1  0
 14 30  1  0
 15 31  1  0
 16 32  1  0
 17 33  1  0
 18 34  1  0
M  ISO  8  19  14  20  14  21  13  22  13  23  13  24  13  25  13  26  13
M  ISO  8  27  13  28  13  29  13  30  14  31  14  32  14  33  14  34  14
M  END
>  <minimizedAffinity>  (1) 
-4.70692921

>  <minimizedRMSD>  (1) 
1.98153281

$$$$
