
     RDKit          3D

 37 39  0  0  1  0  0  0  0  0999 V2000
   46.0660   33.9300   44.6710 C   0  0  2  0  0  0  0  0  0  0  0  0
   45.0110   34.7970   45.3180 C   0  0  0  0  0  0  0  0  0  0  0  0
   44.5190   35.9220   44.5560 C   0  0  0  0  0  0  0  0  0  0  0  0
   45.0390   36.1890   43.2130 C   0  0  0  0  0  0  0  0  0  0  0  0
   46.1300   35.3250   42.7220 C   0  0  0  0  0  0  0  0  0  0  0  0
   45.9150   33.9050   43.1810 C   0  0  0  0  0  0  0  0  0  0  0  0
   46.0940   32.5210   46.7000 C   0  0  0  0  0  0  0  0  0  0  0  0
   46.0680   32.6120   45.3080 C   0  0  0  0  0  0  0  0  0  0  0  0
   46.0620   31.3970   44.5830 C   0  0  0  0  0  0  0  0  0  0  0  0
   46.0790   30.2200   45.2650 N   0  0  0  0  0  0  0  0  0  0  0  0
   46.1040   30.1800   46.6160 C   0  0  0  0  0  0  0  0  0  0  0  0
   46.1110   31.3300   47.3300 N   0  0  0  0  0  0  0  0  0  0  0  0
   46.1230   28.9340   47.3020 N   0  0  0  0  0  0  0  0  0  0  0  0
   44.9680   28.3810   47.9820 C   0  0  0  0  0  0  0  0  0  0  0  0
   45.1030   26.8600   47.8280 C   0  0  0  0  0  0  0  0  0  0  0  0
   45.6530   26.6340   46.5480 O   0  0  0  0  0  0  0  0  0  0  0  0
   47.0350   26.8230   46.6900 C   0  0  0  0  0  0  0  0  0  0  0  0
   47.3470   28.1560   47.3380 C   0  0  0  0  0  0  0  0  0  0  0  0
   47.0650   34.3600   44.8356 H   0  0  0  0  0  0  0  0  0  0  0  0
   44.6328   34.5806   46.3280 H   0  0  0  0  0  0  0  0  0  0  0  0
   43.7505   36.5808   44.9865 H   0  0  0  0  0  0  0  0  0  0  0  0
   44.1994   36.0921   42.5090 H   0  0  0  0  0  0  0  0  0  0  0  0
   45.4836   37.1930   43.2785 H   0  0  0  0  0  0  0  0  0  0  0  0
   47.0895   35.6926   43.1146 H   0  0  0  0  0  0  0  0  0  0  0  0
   46.1406   35.3495   41.6223 H   0  0  0  0  0  0  0  0  0  0  0  0
   44.9075   33.5613   42.9039 H   0  0  0  0  0  0  0  0  0  0  0  0
   46.6329   33.2153   42.7130 H   0  0  0  0  0  0  0  0  0  0  0  0
   46.1008   33.4443   47.2979 H   0  0  0  0  0  0  0  0  0  0  0  0
   46.0438   31.4040   43.4832 H   0  0  0  0  0  0  0  0  0  0  0  0
   44.9740   28.6635   49.0451 H   0  0  0  0  0  0  0  0  0  0  0  0
   44.0235   28.7555   47.5606 H   0  0  0  0  0  0  0  0  0  0  0  0
   45.7697   26.4571   48.6046 H   0  0  0  0  0  0  0  0  0  0  0  0
   44.1285   26.3612   47.9359 H   0  0  0  0  0  0  0  0  0  0  0  0
   47.4440   26.0163   47.3160 H   0  0  0  0  0  0  0  0  0  0  0  0
   47.4908   26.8097   45.6890 H   0  0  0  0  0  0  0  0  0  0  0  0
   48.1411   28.6726   46.7789 H   0  0  0  0  0  0  0  0  0  0  0  0
   47.6994   28.0207   48.3712 H   0  0  0  0  0  0  0  0  0  0  0  0
  1  8  1  0
  1  2  1  0
  3  2  2  0
  4  3  1  0
  5  6  1  0
  5  4  1  0
  6  1  1  0
  7 12  2  0
  8  7  1  0
  9 10  1  0
  9  8  2  0
 10 11  2  0
 11 13  1  0
 11 12  1  0
 13 18  1  0
 13 14  1  0
 15 14  1  0
 16 17  1  0
 16 15  1  0
 17 18  1  0
  1 19  1  6
  2 20  1  0
  3 21  1  0
  4 22  1  0
  4 23  1  0
  5 24  1  0
  5 25  1  0
  6 26  1  0
  6 27  1  0
  7 28  1  0
  9 29  1  0
 14 30  1  0
 14 31  1  0
 15 32  1  0
 15 33  1  0
 17 34  1  0
 17 35  1  0
 18 36  1  0
 18 37  1  0
M  ISO  8  19  13  20  13  21  13  22  13  23  13  24  13  25  13  26  13
M  ISO  8  27  13  28  14  29  14  30  13  31  13  32  13  33  13  34  13
M  ISO  3  35  13  36  13  37  13
M  END
>  <minimizedAffinity>  (1) 
-4.75516367

>  <minimizedRMSD>  (1) 
1.53055918

$$$$
