
     RDKit          3D

 31 33  0  0  1  0  0  0  0  0999 V2000
   46.0150   33.8600   44.6230 C   0  0  2  0  0  0  0  0  0  0  0  0
   45.0190   34.7770   45.2840 C   0  0  0  0  0  0  0  0  0  0  0  0
   44.5770   35.9470   44.5610 C   0  0  0  0  0  0  0  0  0  0  0  0
   45.0990   36.2060   43.2220 C   0  0  0  0  0  0  0  0  0  0  0  0
   46.1650   35.3260   42.7230 C   0  0  0  0  0  0  0  0  0  0  0  0
   45.8910   33.9020   43.1370 C   0  0  0  0  0  0  0  0  0  0  0  0
   45.9810   32.3870   46.6080 C   0  0  0  0  0  0  0  0  0  0  0  0
   45.9480   32.5260   45.2220 C   0  0  0  0  0  0  0  0  0  0  0  0
   45.8650   31.3610   44.4470 C   0  0  0  0  0  0  0  0  0  0  0  0
   45.8220   30.1570   45.0720 N   0  0  0  0  0  0  0  0  0  0  0  0
   45.8560   30.0590   46.4230 C   0  0  0  0  0  0  0  0  0  0  0  0
   45.9360   31.1740   47.1900 N   0  0  0  0  0  0  0  0  0  0  0  0
   45.8050   28.6880   47.0430 C   0  0  0  0  0  0  0  0  0  0  0  0
   44.8350   28.0300   47.6580 C   0  0  0  0  0  0  0  0  0  0  0  0
   45.0670   26.7920   48.1250 C   0  0  0  0  0  0  0  0  0  0  0  0
   46.4330   26.2800   47.8930 C   0  0  0  0  0  0  0  0  0  0  0  0
   47.2180   27.7490   46.9840 S   0  0  0  0  0  0  0  0  0  0  0  0
   47.0381   34.2155   44.8149 H   0  0  0  0  0  0  0  0  0  0  0  0
   44.6375   34.5608   46.2928 H   0  0  0  0  0  0  0  0  0  0  0  0
   43.8522   36.6381   45.0160 H   0  0  0  0  0  0  0  0  0  0  0  0
   44.2553   36.1308   42.5202 H   0  0  0  0  0  0  0  0  0  0  0  0
   45.5680   37.1985   43.2933 H   0  0  0  0  0  0  0  0  0  0  0  0
   47.1298   35.6483   43.1416 H   0  0  0  0  0  0  0  0  0  0  0  0
   46.1981   35.3839   41.6250 H   0  0  0  0  0  0  0  0  0  0  0  0
   44.8763   33.6065   42.8321 H   0  0  0  0  0  0  0  0  0  0  0  0
   46.5973   33.2067   42.6597 H   0  0  0  0  0  0  0  0  0  0  0  0
   46.0451   33.2859   47.2388 H   0  0  0  0  0  0  0  0  0  0  0  0
   45.8352   31.4216   43.3491 H   0  0  0  0  0  0  0  0  0  0  0  0
   43.8457   28.4937   47.7858 H   0  0  0  0  0  0  0  0  0  0  0  0
   44.2959   26.2025   48.6425 H   0  0  0  0  0  0  0  0  0  0  0  0
   46.8745   25.3117   48.1712 H   0  0  0  0  0  0  0  0  0  0  0  0
  1  8  1  0
  1  2  1  0
  3  2  2  0
  4  3  1  0
  5  6  1  0
  5  4  1  0
  6  1  1  0
  7 12  2  0
  8  7  1  0
  9 10  1  0
  9  8  2  0
 10 11  2  0
 11 13  1  0
 11 12  1  0
 13 14  2  0
 14 15  1  0
 16 15  2  0
 17 13  1  0
 17 16  1  0
  1 18  1  6
  2 19  1  0
  3 20  1  0
  4 21  1  0
  4 22  1  0
  5 23  1  0
  5 24  1  0
  6 25  1  0
  6 26  1  0
  7 27  1  0
  9 28  1  0
 14 29  1  0
 15 30  1  0
 16 31  1  0
M  ISO  8  18  13  19  13  20  13  21  13  22  13  23  13  24  13  25  13
M  ISO  6  26  13  27  14  28  14  29  14  30  14  31  14
M  END
>  <minimizedAffinity>  (1) 
-4.56968451

>  <minimizedRMSD>  (1) 
1.68692195

$$$$
