
     RDKit          3D

 33 34  0  0  1  0  0  0  0  0999 V2000
   45.9990   33.9710   44.7080 C   0  0  2  0  0  0  0  0  0  0  0  0
   44.9560   34.8870   45.3080 C   0  0  0  0  0  0  0  0  0  0  0  0
   44.5110   35.9940   44.4860 C   0  0  0  0  0  0  0  0  0  0  0  0
   45.0540   36.2020   43.1410 C   0  0  0  0  0  0  0  0  0  0  0  0
   46.1720   35.3030   42.7300 C   0  0  0  0  0  0  0  0  0  0  0  0
   45.8550   33.9090   43.2170 C   0  0  0  0  0  0  0  0  0  0  0  0
   45.9370   32.6220   46.7790 C   0  0  0  0  0  0  0  0  0  0  0  0
   45.9540   32.6710   45.3860 C   0  0  0  0  0  0  0  0  0  0  0  0
   45.9450   31.4390   44.7020 C   0  0  0  0  0  0  0  0  0  0  0  0
   45.9200   30.2780   45.4050 N   0  0  0  0  0  0  0  0  0  0  0  0
   45.9040   30.2790   46.7600 C   0  0  0  0  0  0  0  0  0  0  0  0
   45.9120   31.4490   47.4390 N   0  0  0  0  0  0  0  0  0  0  0  0
   45.8770   29.0240   47.5730 C   0  0  0  0  0  0  0  0  0  0  0  0
   44.7310   28.1250   47.1730 C   0  0  0  0  0  0  0  0  0  0  0  0
   47.1660   28.2610   47.3560 C   0  0  0  0  0  0  0  0  0  0  0  0
   47.0103   34.3697   44.8759 H   0  0  0  0  0  0  0  0  0  0  0  0
   44.5549   34.7210   46.3187 H   0  0  0  0  0  0  0  0  0  0  0  0
   43.7538   36.6891   44.8777 H   0  0  0  0  0  0  0  0  0  0  0  0
   44.2321   36.0634   42.4232 H   0  0  0  0  0  0  0  0  0  0  0  0
   45.4830   37.2148   43.1527 H   0  0  0  0  0  0  0  0  0  0  0  0
   46.2668   35.3027   41.6341 H   0  0  0  0  0  0  0  0  0  0  0  0
   47.1210   35.6519   43.1632 H   0  0  0  0  0  0  0  0  0  0  0  0
   44.8282   33.6279   42.9400 H   0  0  0  0  0  0  0  0  0  0  0  0
   46.5214   33.1562   42.7707 H   0  0  0  0  0  0  0  0  0  0  0  0
   45.9442   33.5616   47.3510 H   0  0  0  0  0  0  0  0  0  0  0  0
   45.9582   31.4182   43.6023 H   0  0  0  0  0  0  0  0  0  0  0  0
   45.7540   29.3122   48.6274 H   0  0  0  0  0  0  0  0  0  0  0  0
   44.2367   27.7373   48.0760 H   0  0  0  0  0  0  0  0  0  0  0  0
   44.0065   28.6982   46.5759 H   0  0  0  0  0  0  0  0  0  0  0  0
   45.1152   27.2849   46.5759 H   0  0  0  0  0  0  0  0  0  0  0  0
   47.6062   28.0004   48.3298 H   0  0  0  0  0  0  0  0  0  0  0  0
   46.9568   27.3411   46.7902 H   0  0  0  0  0  0  0  0  0  0  0  0
   47.8718   28.8869   46.7902 H   0  0  0  0  0  0  0  0  0  0  0  0
  1  2  1  0
  1  8  1  0
  3  2  2  0
  4  3  1  0
  5  4  1  0
  5  6  1  0
  6  1  1  0
  7 12  2  0
  8  7  1  0
  9  8  2  0
  9 10  1  0
 10 11  2  0
 11 12  1  0
 11 13  1  0
 14 13  1  0
 15 13  1  0
  1 16  1  6
  2 17  1  0
  3 18  1  0
  4 19  1  0
  4 20  1  0
  5 21  1  0
  5 22  1  0
  6 23  1  0
  6 24  1  0
  7 25  1  0
  9 26  1  0
 13 27  1  0
 14 28  1  0
 14 29  1  0
 14 30  1  0
 15 31  1  0
 15 32  1  0
 15 33  1  0
M  ISO  8  16  13  17  13  18  13  19  13  20  13  21  13  22  13  23  13
M  ISO  8  24  13  25  14  26  14  27   8  28   8  29   8  30   8  31   8
M  ISO  2  32   8  33   8
M  END
>  <minimizedAffinity>  (1) 
-4.34801388

>  <minimizedRMSD>  (1) 
1.25032365

$$$$
