
     RDKit          3D

 26 27  0  0  1  0  0  0  0  0999 V2000
   45.9260   34.0610   45.0640 C   0  0  2  0  0  0  0  0  0  0  0  0
   44.8450   35.0790   45.3500 C   0  0  0  0  0  0  0  0  0  0  0  0
   44.5610   36.0410   44.3080 C   0  0  0  0  0  0  0  0  0  0  0  0
   45.2990   36.0090   43.0460 C   0  0  0  0  0  0  0  0  0  0  0  0
   46.3690   35.0090   42.9030 C   0  0  0  0  0  0  0  0  0  0  0  0
   46.0050   33.7290   43.6070 C   0  0  0  0  0  0  0  0  0  0  0  0
   45.2930   33.1010   47.2450 C   0  0  0  0  0  0  0  0  0  0  0  0
   45.7490   32.8960   45.9430 C   0  0  0  0  0  0  0  0  0  0  0  0
   46.0360   31.5740   45.5340 C   0  0  0  0  0  0  0  0  0  0  0  0
   45.8550   30.5610   46.4220 N   0  0  0  0  0  0  0  0  0  0  0  0
   45.4100   30.7950   47.6820 C   0  0  0  0  0  0  0  0  0  0  0  0
   45.1310   32.0540   48.0900 N   0  0  0  0  0  0  0  0  0  0  0  0
   45.2270   29.6890   48.6080 C   0  0  0  0  0  0  0  0  0  0  0  0
   44.9990   28.5310   48.1730 O   0  0  0  0  0  0  0  0  0  0  0  0
   46.9111   34.4905   45.2989 H   0  0  0  0  0  0  0  0  0  0  0  0
   44.3003   35.0875   46.3056 H   0  0  0  0  0  0  0  0  0  0  0  0
   43.7835   36.8029   44.4661 H   0  0  0  0  0  0  0  0  0  0  0  0
   44.5692   35.8259   42.2435 H   0  0  0  0  0  0  0  0  0  0  0  0
   45.8176   36.9782   43.0033 H   0  0  0  0  0  0  0  0  0  0  0  0
   46.5265   34.8002   41.8345 H   0  0  0  0  0  0  0  0  0  0  0  0
   47.2879   35.4101   43.3554 H   0  0  0  0  0  0  0  0  0  0  0  0
   45.0336   33.3589   43.2471 H   0  0  0  0  0  0  0  0  0  0  0  0
   46.7483   32.9411   43.4154 H   0  0  0  0  0  0  0  0  0  0  0  0
   45.0631   34.1203   47.5886 H   0  0  0  0  0  0  0  0  0  0  0  0
   46.3990   31.3687   44.5161 H   0  0  0  0  0  0  0  0  0  0  0  0
   45.2881   29.8655   49.6920 H   0  0  0  0  0  0  0  0  0  0  0  0
  1  2  1  0
  1  8  1  0
  3  2  2  0
  4  3  1  0
  5  4  1  0
  5  6  1  0
  6  1  1  0
  7 12  2  0
  8  7  1  0
  9  8  2  0
  9 10  1  0
 10 11  2  0
 11 12  1  0
 11 13  1  0
 14 13  2  0
  1 15  1  1
  2 16  1  0
  3 17  1  0
  4 18  1  0
  4 19  1  0
  5 20  1  0
  5 21  1  0
  6 22  1  0
  6 23  1  0
  7 24  1  0
  9 25  1  0
 13 26  1  0
M  ISO  8  15  13  16  13  17  13  18  13  19  13  20  13  21  13  22  13
M  ISO  4  23  13  24  14  25  14  26   6
M  END
>  <minimizedAffinity>  (1) 
-4.27777195

>  <minimizedRMSD>  (1) 
0.300199002

$$$$
