
     RDKit          3D

 42 44  0  0  1  0  0  0  0  0999 V2000
   47.1520   35.6320   42.6630 C   0  0  0  0  0  0  0  0  0  0  0  0
   47.9980   35.0870   41.6580 N   0  0  0  0  0  0  0  0  0  0  0  0
   49.3600   35.0760   42.1330 C   0  0  0  0  0  0  0  0  0  0  0  0
   50.0760   33.7840   42.0660 C   0  0  0  0  0  0  0  0  0  0  0  0
   49.1350   32.8100   42.4240 O   0  0  0  0  0  0  0  0  0  0  0  0
   48.3340   32.6920   41.2990 C   0  0  0  0  0  0  0  0  0  0  0  0
   47.6310   33.9780   40.9200 C   0  0  2  0  0  0  0  0  0  0  0  0
   48.0960   34.2990   39.4780 C   0  0  0  0  0  0  0  0  0  0  0  0
   45.7870   34.9830   42.7840 C   0  0  1  0  0  0  0  0  0  0  0  0
   44.8960   34.9200   45.1790 C   0  0  0  0  0  0  0  0  0  0  0  0
   45.7170   34.3940   44.1250 C   0  0  0  0  0  0  0  0  0  0  0  0
   46.4660   33.2640   44.4700 C   0  0  0  0  0  0  0  0  0  0  0  0
   46.3600   32.7720   45.7340 N   0  0  0  0  0  0  0  0  0  0  0  0
   45.5770   33.2980   46.6880 C   0  0  0  0  0  0  0  0  0  0  0  0
   44.8150   34.4130   46.4030 N   0  0  0  0  0  0  0  0  0  0  0  0
   44.6910   35.9270   42.5490 C   0  0  0  0  0  0  0  0  0  0  0  0
   43.5180   35.4440   41.8170 C   0  0  0  0  0  0  0  0  0  0  0  0
   43.3230   34.8740   40.5580 C   0  0  0  0  0  0  0  0  0  0  0  0
   42.0150   34.6120   40.3840 N   0  0  0  0  0  0  0  0  0  0  0  0
   41.3510   34.9850   41.4680 C   0  0  0  0  0  0  0  0  0  0  0  0
   42.2560   35.4820   42.3240 N   0  0  0  0  0  0  0  0  0  0  0  0
   47.0024   36.6986   42.4394 H   0  0  0  0  0  0  0  0  0  0  0  0
   47.6613   35.4493   43.6207 H   0  0  0  0  0  0  0  0  0  0  0  0
   49.9278   35.8032   41.5341 H   0  0  0  0  0  0  0  0  0  0  0  0
   49.2944   35.3151   43.2047 H   0  0  0  0  0  0  0  0  0  0  0  0
   50.4461   33.6031   41.0461 H   0  0  0  0  0  0  0  0  0  0  0  0
   50.9499   33.7691   42.7339 H   0  0  0  0  0  0  0  0  0  0  0  0
   48.9646   32.3780   40.4541 H   0  0  0  0  0  0  0  0  0  0  0  0
   47.5531   31.9538   41.5341 H   0  0  0  0  0  0  0  0  0  0  0  0
   46.5547   33.8105   41.0732 H   0  0  0  0  0  0  0  0  0  0  0  0
   49.0007   34.9236   39.5150 H   0  0  0  0  0  0  0  0  0  0  0  0
   48.3190   33.3616   38.9474 H   0  0  0  0  0  0  0  0  0  0  0  0
   47.2985   34.8398   38.9474 H   0  0  0  0  0  0  0  0  0  0  0  0
   45.6667   34.2121   42.0086 H   0  0  0  0  0  0  0  0  0  0  0  0
   44.2888   35.8096   44.9554 H   0  0  0  0  0  0  0  0  0  0  0  0
   47.1273   32.7830   43.7342 H   0  0  0  0  0  0  0  0  0  0  0  0
   45.5426   32.8442   47.6895 H   0  0  0  0  0  0  0  0  0  0  0  0
   44.3429   36.2768   43.5321 H   0  0  0  0  0  0  0  0  0  0  0  0
   45.1257   36.6988   41.8968 H   0  0  0  0  0  0  0  0  0  0  0  0
   44.1154   34.6707   39.8226 H   0  0  0  0  0  0  0  0  0  0  0  0
   40.2667   34.9029   41.6340 H   0  0  0  0  0  0  0  0  0  0  0  0
   42.0226   35.8499   43.2573 H   0  0  0  0  0  0  0  0  0  0  0  0
  1  9  1  0
  2  3  1  0
  2  1  1  0
  4  3  1  0
  4  5  1  0
  6  5  1  0
  7  6  1  0
  7  2  1  0
  8  7  1  0
  9 11  1  0
 10 15  2  0
 11 12  2  0
 11 10  1  0
 12 13  1  0
 13 14  2  0
 15 14  1  0
 16  9  1  0
 17 21  1  0
 17 16  1  0
 18 17  2  0
 19 18  1  0
 19 20  2  0
 20 21  1  0
  1 22  1  0
  1 23  1  0
  3 24  1  0
  3 25  1  0
  4 26  1  0
  4 27  1  0
  6 28  1  0
  6 29  1  0
  7 30  1  6
  8 31  1  0
  8 32  1  0
  8 33  1  0
  9 34  1  6
 10 35  1  0
 12 36  1  0
 14 37  1  0
 16 38  1  0
 16 39  1  0
 18 40  1  0
 20 41  1  0
 21 42  1  0
M  ISO  8  22   8  23   8  24  13  25  13  26  13  27  13  28  13  29  13
M  ISO  8  30  13  31   8  32   8  33   8  34   8  35  14  36  14  37  14
M  ISO  5  38   8  39   8  40  14  41  14  42   9
M  END
>  <minimizedAffinity>  (1) 
-5.22069168

>  <minimizedRMSD>  (1) 
2.52652836

$$$$
