
     RDKit          3D

 30 32  0  0  1  0  0  0  0  0999 V2000
   46.0360   33.8210   44.5670 C   0  0  2  0  0  0  0  0  0  0  0  0
   45.0390   34.6890   45.3020 C   0  0  0  0  0  0  0  0  0  0  0  0
   44.5780   35.8810   44.6210 C   0  0  0  0  0  0  0  0  0  0  0  0
   45.0660   36.2190   43.2830 C   0  0  0  0  0  0  0  0  0  0  0  0
   46.1310   35.3500   42.7210 C   0  0  0  0  0  0  0  0  0  0  0  0
   45.8580   33.9150   43.0840 C   0  0  0  0  0  0  0  0  0  0  0  0
   46.1130   32.2630   46.4770 C   0  0  0  0  0  0  0  0  0  0  0  0
   45.9760   32.4470   45.1010 C   0  0  0  0  0  0  0  0  0  0  0  0
   45.8000   31.3030   44.2790 C   0  0  0  0  0  0  0  0  0  0  0  0
   45.7730   30.0850   44.8700 N   0  0  0  0  0  0  0  0  0  0  0  0
   45.9080   29.9380   46.2110 C   0  0  0  0  0  0  0  0  0  0  0  0
   46.0770   31.0180   47.0040 N   0  0  0  0  0  0  0  0  0  0  0  0
   45.8730   28.5860   46.8270 C   0  0  0  0  0  0  0  0  0  0  0  0
   46.9450   27.7020   47.3320 C   0  0  0  0  0  0  0  0  0  0  0  0
   45.8970   26.2970   47.8760 S   0  0  0  0  0  0  0  0  0  0  0  0
   44.3670   27.0340   47.3940 C   0  0  0  0  0  0  0  0  0  0  0  0
   44.5680   28.2970   46.8350 N   0  0  0  0  0  0  0  0  0  0  0  0
   47.0573   34.1885   44.7454 H   0  0  0  0  0  0  0  0  0  0  0  0
   44.6803   34.4267   46.3083 H   0  0  0  0  0  0  0  0  0  0  0  0
   43.8510   36.5416   45.1161 H   0  0  0  0  0  0  0  0  0  0  0  0
   44.2078   36.1807   42.5960 H   0  0  0  0  0  0  0  0  0  0  0  0
   45.5284   37.2117   43.3868 H   0  0  0  0  0  0  0  0  0  0  0  0
   47.1051   35.6525   43.1328 H   0  0  0  0  0  0  0  0  0  0  0  0
   46.1453   35.4527   41.6259 H   0  0  0  0  0  0  0  0  0  0  0  0
   44.8304   33.6394   42.8046 H   0  0  0  0  0  0  0  0  0  0  0  0
   46.5361   33.2303   42.5536 H   0  0  0  0  0  0  0  0  0  0  0  0
   46.2507   33.1333   47.1355 H   0  0  0  0  0  0  0  0  0  0  0  0
   45.6884   31.4035   43.1893 H   0  0  0  0  0  0  0  0  0  0  0  0
   48.0353   27.8430   47.3700 H   0  0  0  0  0  0  0  0  0  0  0  0
   43.3825   26.5592   47.5182 H   0  0  0  0  0  0  0  0  0  0  0  0
  1  8  1  0
  1  2  1  0
  3  2  2  0
  4  3  1  0
  5  6  1  0
  5  4  1  0
  6  1  1  0
  7 12  2  0
  8  7  1  0
  9 10  1  0
  9  8  2  0
 10 11  2  0
 11 13  1  0
 11 12  1  0
 13 17  1  0
 13 14  2  0
 14 15  1  0
 16 15  1  0
 17 16  2  0
  1 18  1  6
  2 19  1  0
  3 20  1  0
  4 21  1  0
  4 22  1  0
  5 23  1  0
  5 24  1  0
  6 25  1  0
  6 26  1  0
  7 27  1  0
  9 28  1  0
 14 29  1  0
 16 30  1  0
M  ISO  8  18  13  19  13  20  13  21  13  22  13  23  13  24  13  25  13
M  ISO  5  26  13  27  14  28  14  29  14  30  14
M  END
>  <minimizedAffinity>  (1) 
-4.36424923

>  <minimizedRMSD>  (1) 
1.79596031

$$$$
