
     RDKit          3D

 43 47  0  0  1  0  0  0  0  0999 V2000
   46.0930   31.7010   45.9080 C   0  0  0  0  0  0  0  0  0  0  0  0
   46.4820   32.2460   44.6970 C   0  0  0  0  0  0  0  0  0  0  0  0
   47.0950   31.3960   43.7220 C   0  0  0  0  0  0  0  0  0  0  0  0
   47.2680   30.0880   44.0280 N   0  0  0  0  0  0  0  0  0  0  0  0
   46.8660   29.5880   45.2400 C   0  0  0  0  0  0  0  0  0  0  0  0
   46.2930   30.3860   46.1500 N   0  0  0  0  0  0  0  0  0  0  0  0
   46.2660   33.6840   44.4600 C   0  0  2  0  0  0  0  0  0  0  0  0
   45.3330   34.2170   45.5540 C   0  0  0  0  0  0  0  0  0  0  0  0
   44.6200   35.4400   45.2740 C   0  0  0  0  0  0  0  0  0  0  0  0
   44.7870   36.1220   44.0020 C   0  0  0  0  0  0  0  0  0  0  0  0
   45.7340   35.5370   43.0370 C   0  0  0  0  0  0  0  0  0  0  0  0
   45.7500   34.0440   43.1210 C   0  0  0  0  0  0  0  0  0  0  0  0
   47.0570   28.1360   45.5400 C   0  0  0  0  0  0  0  0  0  0  0  0
   47.8020   27.0960   44.7980 C   0  0  0  0  0  0  0  0  0  0  0  0
   47.4080   25.7040   45.9110 S   0  0  0  0  0  0  0  0  0  0  0  0
   46.4310   26.6300   47.0500 C   0  0  0  0  0  0  0  0  0  0  0  0
   46.3700   27.9670   46.6450 N   0  0  0  0  0  0  0  0  0  0  0  0
   45.7870   26.0090   48.2600 N   0  0  0  0  0  0  0  0  0  0  0  0
   44.5450   26.2860   48.6500 C   0  0  0  0  0  0  0  0  0  0  0  0
   44.3250   25.5390   49.7680 N   0  0  0  0  0  0  0  0  0  0  0  0
   45.4220   24.8200   50.0470 C   0  0  0  0  0  0  0  0  0  0  0  0
   45.8320   23.9100   51.0000 C   0  0  0  0  0  0  0  0  0  0  0  0
   47.0660   23.3530   50.9840 N   0  0  0  0  0  0  0  0  0  0  0  0
   47.9630   23.6590   50.0360 C   0  0  0  0  0  0  0  0  0  0  0  0
   47.5670   24.5470   49.1060 N   0  0  0  0  0  0  0  0  0  0  0  0
   46.3550   25.1270   49.0780 C   0  0  0  0  0  0  0  0  0  0  0  0
   44.9030   23.5630   52.0210 N   0  0  0  0  0  0  0  0  0  0  0  0
   45.6219   32.3365   46.6723 H   0  0  0  0  0  0  0  0  0  0  0  0
   47.4174   31.7950   42.7489 H   0  0  0  0  0  0  0  0  0  0  0  0
   47.2590   34.1558   44.4977 H   0  0  0  0  0  0  0  0  0  0  0  0
   45.2123   33.6894   46.5117 H   0  0  0  0  0  0  0  0  0  0  0  0
   43.9427   35.8605   46.0319 H   0  0  0  0  0  0  0  0  0  0  0  0
   43.8011   36.1586   43.5156 H   0  0  0  0  0  0  0  0  0  0  0  0
   45.2192   37.0995   44.2622 H   0  0  0  0  0  0  0  0  0  0  0  0
   46.7435   35.9179   43.2511 H   0  0  0  0  0  0  0  0  0  0  0  0
   45.4146   35.8222   42.0238 H   0  0  0  0  0  0  0  0  0  0  0  0
   44.7317   33.6488   42.9913 H   0  0  0  0  0  0  0  0  0  0  0  0
   46.3850   33.6164   42.3311 H   0  0  0  0  0  0  0  0  0  0  0  0
   48.3992   27.1453   43.8756 H   0  0  0  0  0  0  0  0  0  0  0  0
   43.8391   26.9779   48.1674 H   0  0  0  0  0  0  0  0  0  0  0  0
   48.9667   23.2092   50.0193 H   0  0  0  0  0  0  0  0  0  0  0  0
   45.1692   22.8875   52.7516 H   0  0  0  0  0  0  0  0  0  0  0  0
   43.9645   23.9874   52.0293 H   0  0  0  0  0  0  0  0  0  0  0  0
  1  6  2  0
  2  1  1  0
  3  4  1  0
  3  2  2  0
  4  5  2  0
  5 13  1  0
  5  6  1  0
  7  2  1  0
  7  8  1  0
  9  8  2  0
 10  9  1  0
 11 12  1  0
 11 10  1  0
 12  7  1  0
 13 17  1  0
 14 13  2  0
 14 15  1  0
 15 16  1  0
 16 18  1  0
 17 16  2  0
 18 19  1  0
 18 26  1  0
 19 20  2  0
 20 21  1  0
 21 22  2  0
 22 27  1  0
 23 22  1  0
 24 23  2  0
 25 24  1  0
 26 25  2  0
 26 21  1  0
  1 28  1  0
  3 29  1  0
  7 30  1  1
  8 31  1  0
  9 32  1  0
 10 33  1  0
 10 34  1  0
 11 35  1  0
 11 36  1  0
 12 37  1  0
 12 38  1  0
 14 39  1  0
 19 40  1  0
 24 41  1  0
 27 42  1  0
 27 43  1  0
M  ISO  8  28  14  29  14  30  13  31  13  32  13  33  13  34  13  35  13
M  ISO  6  36  13  37  13  38  13  39  14  40  14  41  14
M  END
>  <minimizedAffinity>  (1) 
-6.36743307

>  <minimizedRMSD>  (1) 
3.04848504

$$$$
