
     RDKit          3D

 43 45  0  0  1  0  0  0  0  0999 V2000
   45.6450   34.9220   42.6660 C   0  0  2  0  0  0  0  0  0  0  0  0
   44.7150   35.1870   45.0140 C   0  0  0  0  0  0  0  0  0  0  0  0
   45.5120   34.5000   44.0630 C   0  0  0  0  0  0  0  0  0  0  0  0
   46.1920   33.3710   44.5580 C   0  0  0  0  0  0  0  0  0  0  0  0
   46.0410   33.0360   45.8630 N   0  0  0  0  0  0  0  0  0  0  0  0
   45.2700   33.7240   46.7240 C   0  0  0  0  0  0  0  0  0  0  0  0
   44.5830   34.8380   46.2880 N   0  0  0  0  0  0  0  0  0  0  0  0
   46.9460   35.6620   42.5340 C   0  0  0  0  0  0  0  0  0  0  0  0
   47.8740   35.1220   41.5980 N   0  0  0  0  0  0  0  0  0  0  0  0
   49.2030   35.1600   42.1580 C   0  0  0  0  0  0  0  0  0  0  0  0
   49.9620   33.8960   42.1580 C   0  0  0  0  0  0  0  0  0  0  0  0
   49.0320   32.8960   42.4890 O   0  0  0  0  0  0  0  0  0  0  0  0
   48.3020   32.7260   41.3220 C   0  0  0  0  0  0  0  0  0  0  0  0
   47.5970   33.9850   40.8700 C   0  0  2  0  0  0  0  0  0  0  0  0
   48.1310   34.2810   39.4510 C   0  0  0  0  0  0  0  0  0  0  0  0
   44.4980   35.7260   42.2440 C   0  0  0  0  0  0  0  0  0  0  0  0
   43.4800   35.1150   41.3730 C   0  0  0  0  0  0  0  0  0  0  0  0
   43.6140   34.3740   40.2170 C   0  0  0  0  0  0  0  0  0  0  0  0
   42.5140   33.8950   39.5410 C   0  0  0  0  0  0  0  0  0  0  0  0
   41.2460   34.1090   39.9490 N   0  0  0  0  0  0  0  0  0  0  0  0
   41.1310   34.8370   41.0860 C   0  0  0  0  0  0  0  0  0  0  0  0
   42.1850   35.3190   41.7690 N   0  0  0  0  0  0  0  0  0  0  0  0
   45.6554   34.0484   41.9976 H   0  0  0  0  0  0  0  0  0  0  0  0
   44.1651   36.0755   44.6702 H   0  0  0  0  0  0  0  0  0  0  0  0
   46.8349   32.7709   43.8972 H   0  0  0  0  0  0  0  0  0  0  0  0
   45.1876   33.3996   47.7718 H   0  0  0  0  0  0  0  0  0  0  0  0
   46.7180   36.6933   42.2266 H   0  0  0  0  0  0  0  0  0  0  0  0
   47.4342   35.5857   43.5168 H   0  0  0  0  0  0  0  0  0  0  0  0
   49.7845   35.8970   41.5847 H   0  0  0  0  0  0  0  0  0  0  0  0
   49.0603   35.4094   43.2198 H   0  0  0  0  0  0  0  0  0  0  0  0
   50.3918   33.7064   41.1634 H   0  0  0  0  0  0  0  0  0  0  0  0
   50.7995   33.9245   42.8706 H   0  0  0  0  0  0  0  0  0  0  0  0
   48.9880   32.4043   40.5246 H   0  0  0  0  0  0  0  0  0  0  0  0
   47.5263   31.9741   41.5290 H   0  0  0  0  0  0  0  0  0  0  0  0
   46.5190   33.7892   40.9673 H   0  0  0  0  0  0  0  0  0  0  0  0
   49.0910   34.8131   39.5241 H   0  0  0  0  0  0  0  0  0  0  0  0
   48.2766   33.3348   38.9092 H   0  0  0  0  0  0  0  0  0  0  0  0
   47.4057   34.9059   38.9092 H   0  0  0  0  0  0  0  0  0  0  0  0
   43.9833   36.0579   43.1577 H   0  0  0  0  0  0  0  0  0  0  0  0
   44.9434   36.5129   41.6176 H   0  0  0  0  0  0  0  0  0  0  0  0
   44.6204   34.1614   39.8272 H   0  0  0  0  0  0  0  0  0  0  0  0
   42.6771   33.3096   38.6241 H   0  0  0  0  0  0  0  0  0  0  0  0
   40.1218   35.0450   41.4712 H   0  0  0  0  0  0  0  0  0  0  0  0
  1  3  1  0
  2  7  2  0
  3  4  2  0
  3  2  1  0
  4  5  1  0
  5  6  2  0
  7  6  1  0
  8  1  1  0
  9 10  1  0
  9  8  1  0
 11 10  1  0
 11 12  1  0
 13 12  1  0
 14 13  1  0
 14  9  1  0
 15 14  1  0
 16  1  1  0
 17 22  1  0
 17 16  1  0
 18 17  2  0
 19 20  2  0
 19 18  1  0
 20 21  1  0
 21 22  2  0
  1 23  1  6
  2 24  1  0
  4 25  1  0
  6 26  1  0
  8 27  1  0
  8 28  1  0
 10 29  1  0
 10 30  1  0
 11 31  1  0
 11 32  1  0
 13 33  1  0
 13 34  1  0
 14 35  1  6
 15 36  1  0
 15 37  1  0
 15 38  1  0
 16 39  1  0
 16 40  1  0
 18 41  1  0
 19 42  1  0
 21 43  1  0
M  ISO  8  23   8  24  14  25  14  26  14  27   8  28   8  29  13  30  13
M  ISO  8  31  13  32  13  33  13  34  13  35  13  36   8  37   8  38   8
M  ISO  5  39   8  40   8  41  14  42  14  43  14
M  END
>  <minimizedAffinity>  (1) 
-5.13446856

>  <minimizedRMSD>  (1) 
2.41014457

$$$$
