
     RDKit          3D

 37 39  0  0  1  0  0  0  0  0999 V2000
   46.7100   32.0940   46.5880 C   0  0  0  0  0  0  0  0  0  0  0  0
   46.1980   32.3080   45.3220 C   0  0  0  0  0  0  0  0  0  0  0  0
   45.7860   31.1750   44.5530 C   0  0  0  0  0  0  0  0  0  0  0  0
   45.9180   29.9450   45.1010 N   0  0  0  0  0  0  0  0  0  0  0  0
   46.4310   29.7830   46.3580 C   0  0  0  0  0  0  0  0  0  0  0  0
   46.8160   30.8390   47.0790 N   0  0  0  0  0  0  0  0  0  0  0  0
   46.1160   33.6820   44.8010 C   0  0  2  0  0  0  0  0  0  0  0  0
   45.1050   34.4610   45.6470 C   0  0  0  0  0  0  0  0  0  0  0  0
   44.5470   35.6380   45.0360 C   0  0  0  0  0  0  0  0  0  0  0  0
   44.9220   36.0570   43.6960 C   0  0  0  0  0  0  0  0  0  0  0  0
   45.9320   35.2470   42.9950 C   0  0  0  0  0  0  0  0  0  0  0  0
   45.8210   33.7970   43.3540 C   0  0  0  0  0  0  0  0  0  0  0  0
   46.5540   28.4060   46.9270 C   0  0  0  0  0  0  0  0  0  0  0  0
   47.6530   27.4330   46.8920 C   0  0  0  0  0  0  0  0  0  0  0  0
   46.8220   26.0990   47.8160 S   0  0  0  0  0  0  0  0  0  0  0  0
   45.3030   26.9520   48.0800 C   0  0  0  0  0  0  0  0  0  0  0  0
   45.3860   28.2150   47.4980 N   0  0  0  0  0  0  0  0  0  0  0  0
   44.1210   26.4580   48.7850 N   0  0  0  0  0  0  0  0  0  0  0  0
   44.2910   25.7770   50.0050 C   0  0  0  0  0  0  0  0  0  0  0  0
   45.2380   24.9470   50.1430 N   0  0  0  0  0  0  0  0  0  0  0  0
   43.3590   26.0540   51.0530 N   0  0  0  0  0  0  0  0  0  0  0  0
   45.9150   24.7200   49.4130 H   0  0  0  0  0  0  0  0  0  0  0  0
   47.0329   32.9496   47.1993 H   0  0  0  0  0  0  0  0  0  0  0  0
   45.3722   31.3003   43.5415 H   0  0  0  0  0  0  0  0  0  0  0  0
   47.1225   34.1168   44.8892 H   0  0  0  0  0  0  0  0  0  0  0  0
   44.8224   34.1402   46.6605 H   0  0  0  0  0  0  0  0  0  0  0  0
   43.8162   36.2374   45.5988 H   0  0  0  0  0  0  0  0  0  0  0  0
   44.0100   36.0534   43.0809 H   0  0  0  0  0  0  0  0  0  0  0  0
   45.3917   37.0428   43.8285 H   0  0  0  0  0  0  0  0  0  0  0  0
   46.9337   35.6077   43.2715 H   0  0  0  0  0  0  0  0  0  0  0  0
   45.7635   35.3477   41.9127 H   0  0  0  0  0  0  0  0  0  0  0  0
   44.8036   33.4338   43.1464 H   0  0  0  0  0  0  0  0  0  0  0  0
   46.5241   33.1925   42.7622 H   0  0  0  0  0  0  0  0  0  0  0  0
   48.6582   27.4906   46.4491 H   0  0  0  0  0  0  0  0  0  0  0  0
   43.1792   26.6060   48.3951 H   0  0  0  0  0  0  0  0  0  0  0  0
   43.4485   25.5766   51.9613 H   0  0  0  0  0  0  0  0  0  0  0  0
   42.5980   26.7310   50.8998 H   0  0  0  0  0  0  0  0  0  0  0  0
  1  6  2  0
  2  1  1  0
  3  4  1  0
  3  2  2  0
  4  5  2  0
  5 13  1  0
  5  6  1  0
  7  2  1  0
  7  8  1  0
  9  8  2  0
 10  9  1  0
 11 12  1  0
 11 10  1  0
 12  7  1  0
 13 17  1  0
 14 13  2  0
 14 15  1  0
 15 16  1  0
 16 18  1  0
 17 16  2  0
 18 19  1  0
 19 20  2  0
 19 21  1  0
 22 20  1  0
  1 23  1  0
  3 24  1  0
  7 25  1  6
  8 26  1  0
  9 27  1  0
 10 28  1  0
 10 29  1  0
 11 30  1  0
 11 31  1  0
 12 32  1  0
 12 33  1  0
 14 34  1  0
 18 35  1  0
 21 36  1  0
 21 37  1  0
M  ISO  8  23  14  24  14  25  13  26  13  27  13  28  13  29  13  30  13
M  ISO  4  31  13  32  13  33  13  34  14
M  END
>  <minimizedAffinity>  (1) 
-5.82652378

>  <minimizedRMSD>  (1) 
1.08738041

$$$$
