
     RDKit          3D

 43 45  0  0  1  0  0  0  0  0999 V2000
   45.6300   34.9520   42.6750 C   0  0  2  0  0  0  0  0  0  0  0  0
   44.7000   35.2070   45.0430 C   0  0  0  0  0  0  0  0  0  0  0  0
   45.5040   34.5180   44.0810 C   0  0  0  0  0  0  0  0  0  0  0  0
   46.1800   33.3860   44.5690 C   0  0  0  0  0  0  0  0  0  0  0  0
   46.0170   33.0510   45.8690 N   0  0  0  0  0  0  0  0  0  0  0  0
   45.2480   33.7290   46.7400 C   0  0  0  0  0  0  0  0  0  0  0  0
   44.5750   34.8340   46.3110 N   0  0  0  0  0  0  0  0  0  0  0  0
   46.9450   35.6640   42.5550 C   0  0  0  0  0  0  0  0  0  0  0  0
   47.8590   35.1140   41.6130 N   0  0  0  0  0  0  0  0  0  0  0  0
   49.1950   35.1610   42.1500 C   0  0  0  0  0  0  0  0  0  0  0  0
   49.9480   33.8950   42.1730 C   0  0  0  0  0  0  0  0  0  0  0  0
   49.0220   32.9010   42.5150 O   0  0  0  0  0  0  0  0  0  0  0  0
   48.2830   32.7150   41.3600 C   0  0  0  0  0  0  0  0  0  0  0  0
   47.5610   33.9610   40.8950 C   0  0  2  0  0  0  0  0  0  0  0  0
   48.0860   34.2450   39.4670 C   0  0  0  0  0  0  0  0  0  0  0  0
   44.4710   35.7430   42.2620 C   0  0  0  0  0  0  0  0  0  0  0  0
   43.4740   35.1170   41.3730 C   0  0  0  0  0  0  0  0  0  0  0  0
   43.6390   34.3710   40.2230 C   0  0  0  0  0  0  0  0  0  0  0  0
   42.5330   33.8900   39.5530 C   0  0  0  0  0  0  0  0  0  0  0  0
   41.2570   34.1050   39.9590 N   0  0  0  0  0  0  0  0  0  0  0  0
   41.1330   34.8350   41.0820 C   0  0  0  0  0  0  0  0  0  0  0  0
   42.1800   35.3250   41.7700 N   0  0  0  0  0  0  0  0  0  0  0  0
   45.6313   34.1003   41.9789 H   0  0  0  0  0  0  0  0  0  0  0  0
   44.1515   36.1010   44.7116 H   0  0  0  0  0  0  0  0  0  0  0  0
   46.8257   32.7875   43.9096 H   0  0  0  0  0  0  0  0  0  0  0  0
   45.1634   33.3960   47.7850 H   0  0  0  0  0  0  0  0  0  0  0  0
   46.7409   36.7041   42.2608 H   0  0  0  0  0  0  0  0  0  0  0  0
   47.4305   35.5663   43.5372 H   0  0  0  0  0  0  0  0  0  0  0  0
   49.7704   35.8792   41.5475 H   0  0  0  0  0  0  0  0  0  0  0  0
   49.0702   35.4401   43.2066 H   0  0  0  0  0  0  0  0  0  0  0  0
   50.3808   33.6897   41.1828 H   0  0  0  0  0  0  0  0  0  0  0  0
   50.7804   33.9344   42.8910 H   0  0  0  0  0  0  0  0  0  0  0  0
   48.9641   32.3889   40.5602 H   0  0  0  0  0  0  0  0  0  0  0  0
   47.5136   31.9624   41.5872 H   0  0  0  0  0  0  0  0  0  0  0  0
   46.4839   33.7632   40.9985 H   0  0  0  0  0  0  0  0  0  0  0  0
   49.0520   34.7676   39.5287 H   0  0  0  0  0  0  0  0  0  0  0  0
   48.2169   33.2947   38.9287 H   0  0  0  0  0  0  0  0  0  0  0  0
   47.3622   34.8746   38.9287 H   0  0  0  0  0  0  0  0  0  0  0  0
   43.9435   36.0490   43.1775 H   0  0  0  0  0  0  0  0  0  0  0  0
   44.9002   36.5551   41.6568 H   0  0  0  0  0  0  0  0  0  0  0  0
   44.6493   34.1608   39.8421 H   0  0  0  0  0  0  0  0  0  0  0  0
   42.6951   33.2996   38.6391 H   0  0  0  0  0  0  0  0  0  0  0  0
   40.1204   35.0426   41.4582 H   0  0  0  0  0  0  0  0  0  0  0  0
  1  3  1  0
  2  7  2  0
  3  4  2  0
  3  2  1  0
  4  5  1  0
  5  6  2  0
  7  6  1  0
  8  1  1  0
  9 10  1  0
  9  8  1  0
 10 11  1  0
 11 12  1  0
 13 12  1  0
 14 13  1  0
 14  9  1  0
 15 14  1  0
 16  1  1  0
 17 22  1  0
 17 16  1  0
 18 17  2  0
 19 20  2  0
 19 18  1  0
 20 21  1  0
 21 22  2  0
  1 23  1  6
  2 24  1  0
  4 25  1  0
  6 26  1  0
  8 27  1  0
  8 28  1  0
 10 29  1  0
 10 30  1  0
 11 31  1  0
 11 32  1  0
 13 33  1  0
 13 34  1  0
 14 35  1  6
 15 36  1  0
 15 37  1  0
 15 38  1  0
 16 39  1  0
 16 40  1  0
 18 41  1  0
 19 42  1  0
 21 43  1  0
M  ISO  8  23   8  24  14  25  14  26  14  27   8  28   8  29  13  30  13
M  ISO  8  31  13  32  13  33  13  34  13  35  13  36   8  37   8  38   8
M  ISO  5  39   8  40   8  41  14  42  14  43  14
M  END
>  <minimizedAffinity>  (1) 
-5.13206577

>  <minimizedRMSD>  (1) 
2.40429139

$$$$
