
     RDKit          3D

 44 48  0  0  1  0  0  0  0  0999 V2000
   46.9750   32.2020   46.2900 C   0  0  0  0  0  0  0  0  0  0  0  0
   46.3410   32.4130   45.0800 C   0  0  0  0  0  0  0  0  0  0  0  0
   45.8460   31.2890   44.3460 C   0  0  0  0  0  0  0  0  0  0  0  0
   46.0250   30.0590   44.8800 N   0  0  0  0  0  0  0  0  0  0  0  0
   46.6460   29.8730   46.0620 C   0  0  0  0  0  0  0  0  0  0  0  0
   47.1170   30.9440   46.7600 N   0  0  0  0  0  0  0  0  0  0  0  0
   46.2080   33.7860   44.5630 C   0  0  2  0  0  0  0  0  0  0  0  0
   45.1710   34.5260   45.4040 C   0  0  0  0  0  0  0  0  0  0  0  0
   44.5440   35.6810   44.8050 C   0  0  0  0  0  0  0  0  0  0  0  0
   44.8940   36.1000   43.4610 C   0  0  0  0  0  0  0  0  0  0  0  0
   45.9750   35.3720   42.7770 C   0  0  0  0  0  0  0  0  0  0  0  0
   45.9360   33.9110   43.1150 C   0  0  0  0  0  0  0  0  0  0  0  0
   46.8340   28.5210   46.6370 C   0  0  0  0  0  0  0  0  0  0  0  0
   47.8230   27.9580   47.5520 C   0  0  0  0  0  0  0  0  0  0  0  0
   47.1750   26.2670   47.6450 S   0  0  0  0  0  0  0  0  0  0  0  0
   45.8130   26.5210   46.5580 C   0  0  0  0  0  0  0  0  0  0  0  0
   45.8440   27.8400   46.1370 N   0  0  0  0  0  0  0  0  0  0  0  0
   44.8790   25.3760   46.2560 C   0  0  0  0  0  0  0  0  0  0  0  0
   45.3920   24.1510   46.1280 N   0  0  0  0  0  0  0  0  0  0  0  0
   44.6050   23.1080   45.8610 C   0  0  0  0  0  0  0  0  0  0  0  0
   43.2560   23.2340   45.7080 N   0  0  0  0  0  0  0  0  0  0  0  0
   42.6830   24.4640   45.8300 C   0  0  0  0  0  0  0  0  0  0  0  0
   41.3420   24.6210   45.6840 C   0  0  0  0  0  0  0  0  0  0  0  0
   40.7370   25.8710   45.8080 C   0  0  0  0  0  0  0  0  0  0  0  0
   41.6160   26.9120   46.0850 C   0  0  0  0  0  0  0  0  0  0  0  0
   42.9670   26.7340   46.2280 C   0  0  0  0  0  0  0  0  0  0  0  0
   43.5440   25.4970   46.1050 C   0  0  0  0  0  0  0  0  0  0  0  0
   47.3620   33.0546   46.8673 H   0  0  0  0  0  0  0  0  0  0  0  0
   45.3369   31.4206   43.3798 H   0  0  0  0  0  0  0  0  0  0  0  0
   47.1997   34.2514   44.6623 H   0  0  0  0  0  0  0  0  0  0  0  0
   44.9129   34.1945   46.4206 H   0  0  0  0  0  0  0  0  0  0  0  0
   43.7931   36.2489   45.3739 H   0  0  0  0  0  0  0  0  0  0  0  0
   43.9902   36.0044   42.8413 H   0  0  0  0  0  0  0  0  0  0  0  0
   45.2801   37.1231   43.5805 H   0  0  0  0  0  0  0  0  0  0  0  0
   46.9437   35.7882   43.0907 H   0  0  0  0  0  0  0  0  0  0  0  0
   45.8411   35.4845   41.6910 H   0  0  0  0  0  0  0  0  0  0  0  0
   44.9439   33.4972   42.8815 H   0  0  0  0  0  0  0  0  0  0  0  0
   46.6839   33.3563   42.5295 H   0  0  0  0  0  0  0  0  0  0  0  0
   48.6957   28.4194   48.0373 H   0  0  0  0  0  0  0  0  0  0  0  0
   45.0599   22.1115   45.7607 H   0  0  0  0  0  0  0  0  0  0  0  0
   40.7189   23.7419   45.4629 H   0  0  0  0  0  0  0  0  0  0  0  0
   39.6531   26.0213   45.6959 H   0  0  0  0  0  0  0  0  0  0  0  0
   41.2072   27.9273   46.1946 H   0  0  0  0  0  0  0  0  0  0  0  0
   43.6033   27.6042   46.4466 H   0  0  0  0  0  0  0  0  0  0  0  0
  1  6  2  0
  2  1  1  0
  3  4  1  0
  3  2  2  0
  4  5  2  0
  5 13  1  0
  5  6  1  0
  7  2  1  0
  7  8  1  0
  9  8  2  0
 10  9  1  0
 11 12  1  0
 11 10  1  0
 12  7  1  0
 13 14  2  0
 14 15  1  0
 16 15  1  0
 17 16  2  0
 17 13  1  0
 18 16  1  0
 19 18  2  0
 20 19  1  0
 21 22  1  0
 21 20  2  0
 22 27  2  0
 23 24  2  0
 23 22  1  0
 24 25  1  0
 25 26  2  0
 27 26  1  0
 27 18  1  0
  1 28  1  0
  3 29  1  0
  7 30  1  6
  8 31  1  0
  9 32  1  0
 10 33  1  0
 10 34  1  0
 11 35  1  0
 11 36  1  0
 12 37  1  0
 12 38  1  0
 14 39  1  0
 20 40  1  0
 23 41  1  0
 24 42  1  0
 25 43  1  0
 26 44  1  0
M  ISO  8  28  14  29  14  30  13  31  13  32  13  33  13  34  13  35  13
M  ISO  8  36  13  37  13  38  13  39  14  40  14  41  14  42  14  43  14
M  ISO  1  44  14
M  END
>  <minimizedAffinity>  (1) 
-5.42451096

>  <minimizedRMSD>  (1) 
2.62053227

$$$$
