
     RDKit          3D

 45 48  0  0  1  0  0  0  0  0999 V2000
   46.0100   32.2150   46.2980 C   0  0  0  0  0  0  0  0  0  0  0  0
   45.8480   32.4460   44.9440 C   0  0  0  0  0  0  0  0  0  0  0  0
   45.5720   31.3460   44.0740 C   0  0  0  0  0  0  0  0  0  0  0  0
   45.4790   30.1120   44.6230 N   0  0  0  0  0  0  0  0  0  0  0  0
   45.6400   29.9110   45.9450 C   0  0  0  0  0  0  0  0  0  0  0  0
   45.9050   30.9550   46.7780 N   0  0  0  0  0  0  0  0  0  0  0  0
   45.9890   33.8230   44.4300 C   0  0  2  0  0  0  0  0  0  0  0  0
   45.0230   34.7280   45.1870 C   0  0  0  0  0  0  0  0  0  0  0  0
   44.6400   35.9670   44.5420 C   0  0  0  0  0  0  0  0  0  0  0  0
   45.1590   36.3070   43.2280 C   0  0  0  0  0  0  0  0  0  0  0  0
   46.1720   35.4090   42.6420 C   0  0  0  0  0  0  0  0  0  0  0  0
   45.8590   33.9790   42.9650 C   0  0  0  0  0  0  0  0  0  0  0  0
   45.5310   28.5420   46.5350 C   0  0  0  0  0  0  0  0  0  0  0  0
   46.4340   27.7870   47.4180 C   0  0  0  0  0  0  0  0  0  0  0  0
   45.4260   26.2860   47.5760 S   0  0  0  0  0  0  0  0  0  0  0  0
   44.1050   26.8380   46.5520 C   0  0  0  0  0  0  0  0  0  0  0  0
   44.3710   28.1220   46.0780 N   0  0  0  0  0  0  0  0  0  0  0  0
   42.9150   25.9900   46.2850 N   0  0  0  0  0  0  0  0  0  0  0  0
   41.7010   26.6990   46.0540 C   0  0  0  0  0  0  0  0  0  0  0  0
   40.5870   25.6780   46.3220 C   0  0  0  0  0  0  0  0  0  0  0  0
   40.8040   24.5940   45.2680 C   0  0  0  0  0  0  0  0  0  0  0  0
   42.0650   23.8140   45.5240 C   0  0  0  0  0  0  0  0  0  0  0  0
   43.1020   24.5750   46.2840 C   0  0  0  0  0  0  0  0  0  0  0  0
   46.2230   33.0511   46.9804 H   0  0  0  0  0  0  0  0  0  0  0  0
   45.4394   31.4973   42.9926 H   0  0  0  0  0  0  0  0  0  0  0  0
   47.0313   34.1211   44.6163 H   0  0  0  0  0  0  0  0  0  0  0  0
   44.6345   34.4522   46.1785 H   0  0  0  0  0  0  0  0  0  0  0  0
   43.9504   36.6564   45.0511 H   0  0  0  0  0  0  0  0  0  0  0  0
   44.3056   36.3378   42.5346 H   0  0  0  0  0  0  0  0  0  0  0  0
   45.6828   37.2634   43.3728 H   0  0  0  0  0  0  0  0  0  0  0  0
   47.1609   35.6639   43.0507 H   0  0  0  0  0  0  0  0  0  0  0  0
   46.1681   35.5349   41.5492 H   0  0  0  0  0  0  0  0  0  0  0  0
   44.8332   33.7372   42.6498 H   0  0  0  0  0  0  0  0  0  0  0  0
   46.5454   33.3003   42.4376 H   0  0  0  0  0  0  0  0  0  0  0  0
   47.4121   28.0496   47.8472 H   0  0  0  0  0  0  0  0  0  0  0  0
   41.6157   27.5535   46.7414 H   0  0  0  0  0  0  0  0  0  0  0  0
   41.6494   27.1084   45.0343 H   0  0  0  0  0  0  0  0  0  0  0  0
   40.6780   25.2596   47.3352 H   0  0  0  0  0  0  0  0  0  0  0  0
   39.5842   26.1261   46.2625 H   0  0  0  0  0  0  0  0  0  0  0  0
   40.8728   25.0681   44.2778 H   0  0  0  0  0  0  0  0  0  0  0  0
   39.9543   23.8969   45.3128 H   0  0  0  0  0  0  0  0  0  0  0  0
   41.8047   22.9134   46.0995 H   0  0  0  0  0  0  0  0  0  0  0  0
   42.4988   23.5757   44.5417 H   0  0  0  0  0  0  0  0  0  0  0  0
   43.0889   24.2259   47.3270 H   0  0  0  0  0  0  0  0  0  0  0  0
   44.0611   24.3863   45.7796 H   0  0  0  0  0  0  0  0  0  0  0  0
  1  6  2  0
  2  1  1  0
  3  4  1  0
  3  2  2  0
  4  5  2  0
  5 13  1  0
  5  6  1  0
  7  2  1  0
  7  8  1  0
  9  8  2  0
 10  9  1  0
 11 12  1  0
 11 10  1  0
 12  7  1  0
 13 14  2  0
 14 15  1  0
 16 15  1  0
 17 13  1  0
 17 16  2  0
 18 16  1  0
 19 18  1  0
 19 20  1  0
 21 22  1  0
 21 20  1  0
 22 23  1  0
 23 18  1  0
  1 24  1  0
  3 25  1  0
  7 26  1  1
  8 27  1  0
  9 28  1  0
 10 29  1  0
 10 30  1  0
 11 31  1  0
 11 32  1  0
 12 33  1  0
 12 34  1  0
 14 35  1  0
 19 36  1  0
 19 37  1  0
 20 38  1  0
 20 39  1  0
 21 40  1  0
 21 41  1  0
 22 42  1  0
 22 43  1  0
 23 44  1  0
 23 45  1  0
M  ISO  8  24  14  25  14  26  13  27  13  28  13  29  13  30  13  31  13
M  ISO  8  32  13  33  13  34  13  35  14  36  13  37  13  38  13  39  13
M  ISO  6  40  13  41  13  42  13  43  13  44  13  45  13
M  END
>  <minimizedAffinity>  (1) 
-5.50259638

>  <minimizedRMSD>  (1) 
1.02104783

$$$$
