
     RDKit          3D

 44 48  0  0  1  0  0  0  0  0999 V2000
   45.8670   32.1510   46.3400 C   0  0  0  0  0  0  0  0  0  0  0  0
   45.7620   32.3660   44.9760 C   0  0  0  0  0  0  0  0  0  0  0  0
   45.4580   31.2620   44.1200 C   0  0  0  0  0  0  0  0  0  0  0  0
   45.2850   30.0430   44.6860 N   0  0  0  0  0  0  0  0  0  0  0  0
   45.3960   29.8720   46.0400 C   0  0  0  0  0  0  0  0  0  0  0  0
   45.6800   30.9090   46.8390 N   0  0  0  0  0  0  0  0  0  0  0  0
   45.9840   33.7280   44.4530 C   0  0  2  0  0  0  0  0  0  0  0  0
   45.0200   34.6840   45.1530 C   0  0  0  0  0  0  0  0  0  0  0  0
   44.7120   35.9280   44.4920 C   0  0  0  0  0  0  0  0  0  0  0  0
   45.3070   36.2410   43.2020 C   0  0  0  0  0  0  0  0  0  0  0  0
   46.2790   35.2810   42.6490 C   0  0  0  0  0  0  0  0  0  0  0  0
   45.8990   33.8740   42.9850 C   0  0  0  0  0  0  0  0  0  0  0  0
   45.1790   28.5150   46.6340 C   0  0  0  0  0  0  0  0  0  0  0  0
   46.0190   27.7100   47.5260 C   0  0  0  0  0  0  0  0  0  0  0  0
   44.9240   26.2560   47.6330 S   0  0  0  0  0  0  0  0  0  0  0  0
   43.6550   26.8840   46.5860 C   0  0  0  0  0  0  0  0  0  0  0  0
   44.0030   28.1610   46.1380 N   0  0  0  0  0  0  0  0  0  0  0  0
   42.3330   26.1950   46.1770 C   0  0  0  0  0  0  0  0  0  0  0  0
   41.0910   26.7950   46.1190 C   0  0  0  0  0  0  0  0  0  0  0  0
   40.2880   25.7970   45.7200 N   0  0  0  0  0  0  0  0  0  0  0  0
   40.9770   24.6530   45.5440 C   0  0  0  0  0  0  0  0  0  0  0  0
   40.5180   23.4160   45.1420 C   0  0  0  0  0  0  0  0  0  0  0  0
   41.4080   22.3680   45.0240 C   0  0  0  0  0  0  0  0  0  0  0  0
   42.7380   22.5790   45.3090 C   0  0  0  0  0  0  0  0  0  0  0  0
   43.1810   23.8320   45.7110 C   0  0  0  0  0  0  0  0  0  0  0  0
   42.3060   24.8880   45.8340 C   0  0  0  0  0  0  0  0  0  0  0  0
   46.1016   32.9876   47.0145 H   0  0  0  0  0  0  0  0  0  0  0  0
   45.3671   31.3983   43.0323 H   0  0  0  0  0  0  0  0  0  0  0  0
   47.0317   33.9756   44.6787 H   0  0  0  0  0  0  0  0  0  0  0  0
   44.5762   34.4322   46.1275 H   0  0  0  0  0  0  0  0  0  0  0  0
   44.0238   36.6437   44.9655 H   0  0  0  0  0  0  0  0  0  0  0  0
   44.4867   36.3348   42.4751 H   0  0  0  0  0  0  0  0  0  0  0  0
   45.8884   37.1582   43.3772 H   0  0  0  0  0  0  0  0  0  0  0  0
   47.2730   35.4944   43.0689 H   0  0  0  0  0  0  0  0  0  0  0  0
   46.2900   35.3873   41.5542 H   0  0  0  0  0  0  0  0  0  0  0  0
   44.8721   33.6715   42.6465 H   0  0  0  0  0  0  0  0  0  0  0  0
   46.5724   33.1617   42.4858 H   0  0  0  0  0  0  0  0  0  0  0  0
   46.9973   27.9170   47.9843 H   0  0  0  0  0  0  0  0  0  0  0  0
   40.8245   27.8380   46.3450 H   0  0  0  0  0  0  0  0  0  0  0  0
   39.2739   25.8933   45.5677 H   0  0  0  0  0  0  0  0  0  0  0  0
   39.4517   23.2661   44.9174 H   0  0  0  0  0  0  0  0  0  0  0  0
   41.0584   21.3748   44.7056 H   0  0  0  0  0  0  0  0  0  0  0  0
   43.4546   21.7495   45.2177 H   0  0  0  0  0  0  0  0  0  0  0  0
   44.2473   23.9834   45.9346 H   0  0  0  0  0  0  0  0  0  0  0  0
  1  6  2  0
  2  1  1  0
  3  4  1  0
  3  2  2  0
  4  5  2  0
  5 13  1  0
  5  6  1  0
  7  2  1  0
  7  8  1  0
  9  8  2  0
 10  9  1  0
 11 12  1  0
 11 10  1  0
 12  7  1  0
 13 14  2  0
 14 15  1  0
 16 15  1  0
 17 16  2  0
 17 13  1  0
 18 16  1  0
 19 18  2  0
 20 19  1  0
 21 20  1  0
 21 26  2  0
 22 21  1  0
 23 22  2  0
 23 24  1  0
 24 25  2  0
 25 26  1  0
 26 18  1  0
  1 27  1  0
  3 28  1  0
  7 29  1  1
  8 30  1  0
  9 31  1  0
 10 32  1  0
 10 33  1  0
 11 34  1  0
 11 35  1  0
 12 36  1  0
 12 37  1  0
 14 38  1  0
 19 39  1  0
 20 40  1  0
 22 41  1  0
 23 42  1  0
 24 43  1  0
 25 44  1  0
M  ISO  8  27  14  28  14  29  13  30  13  31  13  32  13  33  13  34  13
M  ISO  8  35  13  36  13  37  13  38  14  39  14  40   9  41  14  42  14
M  ISO  2  43  14  44  14
M  END
>  <minimizedAffinity>  (1) 
-5.74708509

>  <minimizedRMSD>  (1) 
1.04715848

$$$$
