
     RDKit          3D

 39 42  0  0  1  0  0  0  0  0999 V2000
   46.0360   32.2120   46.3060 C   0  0  0  0  0  0  0  0  0  0  0  0
   45.8720   32.4400   44.9510 C   0  0  0  0  0  0  0  0  0  0  0  0
   45.6150   31.3180   44.1000 C   0  0  0  0  0  0  0  0  0  0  0  0
   45.5450   30.0890   44.6610 N   0  0  0  0  0  0  0  0  0  0  0  0
   45.7140   29.9130   46.0060 C   0  0  0  0  0  0  0  0  0  0  0  0
   45.9540   30.9590   46.8060 N   0  0  0  0  0  0  0  0  0  0  0  0
   45.9910   33.8070   44.4350 C   0  0  2  0  0  0  0  0  0  0  0  0
   45.0240   34.7050   45.1880 C   0  0  0  0  0  0  0  0  0  0  0  0
   44.6310   35.9350   44.5610 C   0  0  0  0  0  0  0  0  0  0  0  0
   45.1480   36.2950   43.2500 C   0  0  0  0  0  0  0  0  0  0  0  0
   46.1390   35.3880   42.6400 C   0  0  0  0  0  0  0  0  0  0  0  0
   45.8390   33.9560   42.9700 C   0  0  0  0  0  0  0  0  0  0  0  0
   45.6210   28.5370   46.5860 C   0  0  0  0  0  0  0  0  0  0  0  0
   46.5420   27.7860   47.4500 C   0  0  0  0  0  0  0  0  0  0  0  0
   45.5690   26.2580   47.5810 S   0  0  0  0  0  0  0  0  0  0  0  0
   44.2310   26.8030   46.5740 C   0  0  0  0  0  0  0  0  0  0  0  0
   44.4670   28.1010   46.1250 N   0  0  0  0  0  0  0  0  0  0  0  0
   42.9680   25.9940   46.2210 C   0  0  0  0  0  0  0  0  0  0  0  0
   41.6990   26.5260   46.3260 C   0  0  0  0  0  0  0  0  0  0  0  0
   40.6760   25.6680   45.9700 C   0  0  0  0  0  0  0  0  0  0  0  0
   40.9500   24.3760   45.5440 C   0  0  0  0  0  0  0  0  0  0  0  0
   42.2370   23.8860   45.4540 C   0  0  0  0  0  0  0  0  0  0  0  0
   43.2200   24.7550   45.8120 N   0  0  0  0  0  0  0  0  0  0  0  0
   46.2347   33.0572   46.9815 H   0  0  0  0  0  0  0  0  0  0  0  0
   45.4778   31.4518   43.0168 H   0  0  0  0  0  0  0  0  0  0  0  0
   47.0322   34.1126   44.6153 H   0  0  0  0  0  0  0  0  0  0  0  0
   44.6386   34.4225   46.1788 H   0  0  0  0  0  0  0  0  0  0  0  0
   43.9329   36.6111   45.0764 H   0  0  0  0  0  0  0  0  0  0  0  0
   44.2912   36.3580   42.5630 H   0  0  0  0  0  0  0  0  0  0  0  0
   45.6903   37.2385   43.4101 H   0  0  0  0  0  0  0  0  0  0  0  0
   47.1395   35.6418   43.0202 H   0  0  0  0  0  0  0  0  0  0  0  0
   46.0968   35.5099   41.5476 H   0  0  0  0  0  0  0  0  0  0  0  0
   44.8105   33.7069   42.6699 H   0  0  0  0  0  0  0  0  0  0  0  0
   46.5209   33.2792   42.4343 H   0  0  0  0  0  0  0  0  0  0  0  0
   47.5152   28.0624   47.8819 H   0  0  0  0  0  0  0  0  0  0  0  0
   41.5157   27.5555   46.6674 H   0  0  0  0  0  0  0  0  0  0  0  0
   39.6329   26.0129   46.0249 H   0  0  0  0  0  0  0  0  0  0  0  0
   40.1117   23.7192   45.2683 H   0  0  0  0  0  0  0  0  0  0  0  0
   42.4531   22.8619   45.1156 H   0  0  0  0  0  0  0  0  0  0  0  0
  1  6  2  0
  2  1  1  0
  3  4  1  0
  3  2  2  0
  4  5  2  0
  5 13  1  0
  5  6  1  0
  7  2  1  0
  7  8  1  0
  9  8  2  0
 10  9  1  0
 11 12  1  0
 11 10  1  0
 12  7  1  0
 13 14  2  0
 14 15  1  0
 16 15  1  0
 17 16  2  0
 17 13  1  0
 18 19  2  0
 18 16  1  0
 20 19  1  0
 21 20  2  0
 22 21  1  0
 22 23  2  0
 23 18  1  0
  1 24  1  0
  3 25  1  0
  7 26  1  1
  8 27  1  0
  9 28  1  0
 10 29  1  0
 10 30  1  0
 11 31  1  0
 11 32  1  0
 12 33  1  0
 12 34  1  0
 14 35  1  0
 19 36  1  0
 20 37  1  0
 21 38  1  0
 22 39  1  0
M  ISO  8  24  14  25  14  26  13  27  13  28  13  29  13  30  13  31  13
M  ISO  8  32  13  33  13  34  13  35  14  36  14  37  14  38  14  39  14
M  END
>  <minimizedAffinity>  (1) 
-5.12789917

>  <minimizedRMSD>  (1) 
1.05044055

$$$$
