
     RDKit          3D

 36 39  0  0  1  0  0  0  0  0999 V2000
   46.3380   33.5170   44.7580 C   0  0  0  0  0  0  0  0  0  0  0  0
   47.2470   33.2360   43.7540 C   0  0  0  0  0  0  0  0  0  0  0  0
   47.7530   31.9010   43.6370 C   0  0  0  0  0  0  0  0  0  0  0  0
   47.3150   30.9750   44.5210 N   0  0  0  0  0  0  0  0  0  0  0  0
   46.4150   31.2960   45.4990 C   0  0  0  0  0  0  0  0  0  0  0  0
   45.9430   32.5420   45.6070 N   0  0  0  0  0  0  0  0  0  0  0  0
   47.6770   34.3160   42.8520 C   0  0  2  0  0  0  0  0  0  0  0  0
   47.1220   34.0320   41.4530 C   0  0  0  0  0  0  0  0  0  0  0  0
   47.7790   34.6810   40.3500 C   0  0  0  0  0  0  0  0  0  0  0  0
   48.9150   35.5610   40.5660 C   0  0  0  0  0  0  0  0  0  0  0  0
   49.3630   35.7680   41.9530 C   0  0  0  0  0  0  0  0  0  0  0  0
   49.1360   34.5580   42.7950 C   0  0  0  0  0  0  0  0  0  0  0  0
   45.9550   30.2380   46.4490 C   0  0  0  0  0  0  0  0  0  0  0  0
   46.4050   29.8930   47.8070 C   0  0  0  0  0  0  0  0  0  0  0  0
   45.2640   28.4830   48.0710 S   0  0  0  0  0  0  0  0  0  0  0  0
   44.4670   28.5740   46.5110 C   0  0  0  0  0  0  0  0  0  0  0  0
   45.0120   29.6270   45.7670 N   0  0  0  0  0  0  0  0  0  0  0  0
   43.3620   27.6300   46.0870 C   0  0  0  0  0  0  0  0  0  0  0  0
   42.6080   27.9540   45.0590 C   0  0  0  0  0  0  0  0  0  0  0  0
   41.4260   26.4800   44.9600 S   0  0  0  0  0  0  0  0  0  0  0  0
   42.3060   25.7200   46.4510 C   0  0  0  0  0  0  0  0  0  0  0  0
   43.1020   26.4900   46.6870 N   0  0  0  0  0  0  0  0  0  0  0  0
   45.9360   34.5352   44.8657 H   0  0  0  0  0  0  0  0  0  0  0  0
   48.4763   31.6364   42.8516 H   0  0  0  0  0  0  0  0  0  0  0  0
   47.2687   35.2480   43.2698 H   0  0  0  0  0  0  0  0  0  0  0  0
   46.2620   33.3636   41.2990 H   0  0  0  0  0  0  0  0  0  0  0  0
   47.4155   34.5083   39.3263 H   0  0  0  0  0  0  0  0  0  0  0  0
   49.7646   35.1454   40.0043 H   0  0  0  0  0  0  0  0  0  0  0  0
   48.5686   36.5508   40.2338 H   0  0  0  0  0  0  0  0  0  0  0  0
   50.4378   36.0023   41.9488 H   0  0  0  0  0  0  0  0  0  0  0  0
   48.7793   36.5965   42.3807 H   0  0  0  0  0  0  0  0  0  0  0  0
   49.6424   33.6900   42.3476 H   0  0  0  0  0  0  0  0  0  0  0  0
   49.5407   34.7112   43.8063 H   0  0  0  0  0  0  0  0  0  0  0  0
   47.1760   30.3372   48.4538 H   0  0  0  0  0  0  0  0  0  0  0  0
   42.6530   28.8497   44.4220 H   0  0  0  0  0  0  0  0  0  0  0  0
   42.0970   24.7682   46.9613 H   0  0  0  0  0  0  0  0  0  0  0  0
  1  6  2  0
  2  1  1  0
  3  2  2  0
  3  4  1  0
  4  5  2  0
  5  6  1  0
  5 13  1  0
  7  2  1  0
  8  7  1  0
  9 10  1  0
  9  8  2  0
 10 11  1  0
 11 12  1  0
 12  7  1  0
 13 14  2  0
 14 15  1  0
 16 15  1  0
 17 13  1  0
 17 16  2  0
 18 16  1  0
 18 22  1  0
 19 18  2  0
 20 19  1  0
 20 21  1  0
 21 22  2  0
  1 23  1  0
  3 24  1  0
  7 25  1  1
  8 26  1  0
  9 27  1  0
 10 28  1  0
 10 29  1  0
 11 30  1  0
 11 31  1  0
 12 32  1  0
 12 33  1  0
 14 34  1  0
 19 35  1  0
 21 36  1  0
M  ISO  8  23  14  24  14  25  13  26  13  27  13  28  13  29  13  30  13
M  ISO  6  31  13  32  13  33  13  34  14  35  14  36  14
M  END
>  <minimizedAffinity>  (1) 
-5.12163401

>  <minimizedRMSD>  (1) 
2.8582809

$$$$
