
     RDKit          3D

 33 35  0  0  1  0  0  0  0  0999 V2000
   46.0400   32.0830   46.5980 C   0  0  0  0  0  0  0  0  0  0  0  0
   46.0210   32.2810   45.2280 C   0  0  0  0  0  0  0  0  0  0  0  0
   46.0010   31.1300   44.3750 C   0  0  0  0  0  0  0  0  0  0  0  0
   46.0000   29.9080   44.9520 N   0  0  0  0  0  0  0  0  0  0  0  0
   46.0190   29.7570   46.3110 C   0  0  0  0  0  0  0  0  0  0  0  0
   46.0390   30.8310   47.1120 N   0  0  0  0  0  0  0  0  0  0  0  0
   46.0460   33.6550   44.7040 C   0  0  2  0  0  0  0  0  0  0  0  0
   45.0710   34.5050   45.5230 C   0  0  0  0  0  0  0  0  0  0  0  0
   44.5780   35.7030   44.9000 C   0  0  0  0  0  0  0  0  0  0  0  0
   44.9920   36.0830   43.5520 C   0  0  0  0  0  0  0  0  0  0  0  0
   46.0010   35.2290   42.8990 C   0  0  0  0  0  0  0  0  0  0  0  0
   45.7970   33.7860   43.2520 C   0  0  0  0  0  0  0  0  0  0  0  0
   46.0110   28.3840   46.8980 C   0  0  0  0  0  0  0  0  0  0  0  0
   47.1010   27.5470   47.4240 C   0  0  0  0  0  0  0  0  0  0  0  0
   46.1060   26.0970   47.8720 S   0  0  0  0  0  0  0  0  0  0  0  0
   44.5620   26.7600   47.3480 C   0  0  0  0  0  0  0  0  0  0  0  0
   44.7400   28.0500   46.8360 N   0  0  0  0  0  0  0  0  0  0  0  0
   43.3090   25.8870   47.5160 C   0  0  0  0  0  0  0  0  0  0  0  0
   43.0840   25.9240   48.8940 F   0  0  0  0  0  0  0  0  0  0  0  0
   43.5900   24.6030   47.1200 F   0  0  0  0  0  0  0  0  0  0  0  0
   42.2750   26.4690   46.8500 F   0  0  0  0  0  0  0  0  0  0  0  0
   46.0560   32.9503   47.2744 H   0  0  0  0  0  0  0  0  0  0  0  0
   45.9868   31.2381   43.2804 H   0  0  0  0  0  0  0  0  0  0  0  0
   47.0776   34.0194   44.8176 H   0  0  0  0  0  0  0  0  0  0  0  0
   44.7630   34.2134   46.5379 H   0  0  0  0  0  0  0  0  0  0  0  0
   43.8750   36.3463   45.4495 H   0  0  0  0  0  0  0  0  0  0  0  0
   44.0944   36.0826   42.9161 H   0  0  0  0  0  0  0  0  0  0  0  0
   45.4768   37.0638   43.6664 H   0  0  0  0  0  0  0  0  0  0  0  0
   47.0031   35.5411   43.2281 H   0  0  0  0  0  0  0  0  0  0  0  0
   45.9000   35.3397   41.8093 H   0  0  0  0  0  0  0  0  0  0  0  0
   44.7664   33.4819   43.0168 H   0  0  0  0  0  0  0  0  0  0  0  0
   46.4791   33.1419   42.6777 H   0  0  0  0  0  0  0  0  0  0  0  0
   48.1800   27.7397   47.5166 H   0  0  0  0  0  0  0  0  0  0  0  0
  1  6  2  0
  2  1  1  0
  3  4  1  0
  3  2  2  0
  4  5  2  0
  5 13  1  0
  5  6  1  0
  7  2  1  0
  7  8  1  0
  9  8  2  0
 10  9  1  0
 11 12  1  0
 11 10  1  0
 12  7  1  0
 13 14  2  0
 14 15  1  0
 16 18  1  0
 16 15  1  0
 17 13  1  0
 17 16  2  0
 18 19  1  0
 20 18  1  0
 21 18  1  0
  1 22  1  0
  3 23  1  0
  7 24  1  6
  8 25  1  0
  9 26  1  0
 10 27  1  0
 10 28  1  0
 11 29  1  0
 11 30  1  0
 12 31  1  0
 12 32  1  0
 14 33  1  0
M  ISO  8  22  14  23  14  24  13  25  13  26  13  27  13  28  13  29  13
M  ISO  4  30  13  31  13  32  13  33  14
M  END
>  <minimizedAffinity>  (1) 
-5.12227201

>  <minimizedRMSD>  (1) 
0.52739054

$$$$
