
     RDKit          3D

 48 50  0  0  1  0  0  0  0  0999 V2000
   45.5160   34.8150   42.4360 C   0  0  2  0  0  0  0  0  0  0  0  0
   44.5950   35.4040   44.7480 C   0  0  0  0  0  0  0  0  0  0  0  0
   45.3650   34.5570   43.8800 C   0  0  0  0  0  0  0  0  0  0  0  0
   45.9780   33.4610   44.5070 C   0  0  0  0  0  0  0  0  0  0  0  0
   45.7980   33.2960   45.8370 N   0  0  0  0  0  0  0  0  0  0  0  0
   45.0650   34.1150   46.6150 C   0  0  0  0  0  0  0  0  0  0  0  0
   44.4510   35.1920   46.0540 N   0  0  0  0  0  0  0  0  0  0  0  0
   46.8070   35.5690   42.2590 C   0  0  0  0  0  0  0  0  0  0  0  0
   47.7910   34.9230   41.4610 N   0  0  0  0  0  0  0  0  0  0  0  0
   49.1010   35.2000   41.9870 C   0  0  0  0  0  0  0  0  0  0  0  0
   49.9660   34.0430   42.2770 C   0  0  0  0  0  0  0  0  0  0  0  0
   49.1220   33.0580   42.8120 O   0  0  0  0  0  0  0  0  0  0  0  0
   48.4340   32.5720   41.7120 C   0  0  0  0  0  0  0  0  0  0  0  0
   47.6160   33.6260   40.9970 C   0  0  2  0  0  0  0  0  0  0  0  0
   48.1460   33.6600   39.5440 C   0  0  0  0  0  0  0  0  0  0  0  0
   44.3480   35.5060   41.8940 C   0  0  0  0  0  0  0  0  0  0  0  0
   42.0300   33.2390   39.0530 C   0  0  0  0  0  0  0  0  0  0  0  0
   42.9610   32.6400   39.8740 C   0  0  0  0  0  0  0  0  0  0  0  0
   43.6610   33.4390   40.7520 C   0  0  0  0  0  0  0  0  0  0  0  0
   43.5170   34.8260   40.8940 C   0  0  0  0  0  0  0  0  0  0  0  0
   42.5730   35.3580   40.0460 C   0  0  0  0  0  0  0  0  0  0  0  0
   41.8480   34.5990   39.1520 C   0  0  0  0  0  0  0  0  0  0  0  0
   41.1470   32.2390   37.9480 S   0  0  0  0  0  0  0  0  0  0  0  0
   41.8460   30.8970   37.8970 O   0  0  0  0  0  0  0  0  0  0  0  0
   39.7570   31.9750   38.4380 O   0  0  0  0  0  0  0  0  0  0  0  0
   45.5677   33.8788   41.8608 H   0  0  0  0  0  0  0  0  0  0  0  0
   44.0951   36.2792   44.3074 H   0  0  0  0  0  0  0  0  0  0  0  0
   46.5906   32.7527   43.9299 H   0  0  0  0  0  0  0  0  0  0  0  0
   44.9637   33.9156   47.6920 H   0  0  0  0  0  0  0  0  0  0  0  0
   46.5726   36.5362   41.7903 H   0  0  0  0  0  0  0  0  0  0  0  0
   47.2447   35.6567   43.2643 H   0  0  0  0  0  0  0  0  0  0  0  0
   49.6258   35.8307   41.2543 H   0  0  0  0  0  0  0  0  0  0  0  0
   48.9214   35.6731   42.9637 H   0  0  0  0  0  0  0  0  0  0  0  0
   50.4415   33.6796   41.3541 H   0  0  0  0  0  0  0  0  0  0  0  0
   50.7735   34.3068   42.9759 H   0  0  0  0  0  0  0  0  0  0  0  0
   49.1632   32.1559   41.0013 H   0  0  0  0  0  0  0  0  0  0  0  0
   47.7300   31.8115   42.0810 H   0  0  0  0  0  0  0  0  0  0  0  0
   46.5593   33.3540   41.1360 H   0  0  0  0  0  0  0  0  0  0  0  0
   49.2437   33.7304   39.5557 H   0  0  0  0  0  0  0  0  0  0  0  0
   47.8431   32.7406   39.0216 H   0  0  0  0  0  0  0  0  0  0  0  0
   47.7281   34.5332   39.0216 H   0  0  0  0  0  0  0  0  0  0  0  0
   43.6941   35.7487   42.7446 H   0  0  0  0  0  0  0  0  0  0  0  0
   44.7776   36.3564   41.3442 H   0  0  0  0  0  0  0  0  0  0  0  0
   43.1401   31.5556   39.8297 H   0  0  0  0  0  0  0  0  0  0  0  0
   44.3993   32.9436   41.3997 H   0  0  0  0  0  0  0  0  0  0  0  0
   42.3877   36.4416   40.0831 H   0  0  0  0  0  0  0  0  0  0  0  0
   41.1081   35.0915   38.5039 H   0  0  0  0  0  0  0  0  0  0  0  0
   41.0908   32.8716   36.7341 H   0  0  0  0  0  0  0  0  0  0  0  0
  1  3  1  0
  2  7  2  0
  3  4  2  0
  3  2  1  0
  4  5  1  0
  5  6  2  0
  7  6  1  0
  8  1  1  0
  9 10  1  0
  9  8  1  0
 10 11  1  0
 11 12  1  0
 13 12  1  0
 14  9  1  0
 14 13  1  0
 15 14  1  0
 16  1  1  0
 17 22  2  0
 17 18  1  0
 18 19  2  0
 19 20  1  0
 20 16  1  0
 21 20  2  0
 22 21  1  0
 23 25  2  0
 23 17  1  0
 24 23  2  0
  1 26  1  6
  2 27  1  0
  4 28  1  0
  6 29  1  0
  8 30  1  0
  8 31  1  0
 10 32  1  0
 10 33  1  0
 11 34  1  0
 11 35  1  0
 13 36  1  0
 13 37  1  0
 14 38  1  6
 15 39  1  0
 15 40  1  0
 15 41  1  0
 16 42  1  0
 16 43  1  0
 18 44  1  0
 19 45  1  0
 21 46  1  0
 22 47  1  0
 23 48  1  0
M  ISO  8  26   8  27  14  28  14  29  14  30   8  31   8  32  13  33  13
M  ISO  8  34  13  35  13  36  13  37  13  38  13  39   8  40   8  41   8
M  ISO  7  42   8  43   8  44  14  45  14  46  14  47  14  48  11
M  END
>  <minimizedAffinity>  (1) 
-5.08323431

>  <minimizedRMSD>  (1) 
3.21019125

$$$$
