
     RDKit          3D

 37 40  0  0  1  0  0  0  0  0999 V2000
   45.8880   32.2460   46.3220 C   0  0  0  0  0  0  0  0  0  0  0  0
   45.7920   32.4740   44.9620 C   0  0  0  0  0  0  0  0  0  0  0  0
   45.5370   31.3640   44.0960 C   0  0  0  0  0  0  0  0  0  0  0  0
   45.4020   30.1410   44.6580 N   0  0  0  0  0  0  0  0  0  0  0  0
   45.5040   29.9570   46.0090 C   0  0  0  0  0  0  0  0  0  0  0  0
   45.7430   30.9960   46.8170 N   0  0  0  0  0  0  0  0  0  0  0  0
   45.9760   33.8410   44.4510 C   0  0  2  0  0  0  0  0  0  0  0  0
   45.0030   34.7690   45.1760 C   0  0  0  0  0  0  0  0  0  0  0  0
   44.6680   36.0070   44.5190 C   0  0  0  0  0  0  0  0  0  0  0  0
   45.2340   36.3480   43.2230 C   0  0  0  0  0  0  0  0  0  0  0  0
   46.2260   35.4160   42.6580 C   0  0  0  0  0  0  0  0  0  0  0  0
   45.8830   33.9970   42.9820 C   0  0  0  0  0  0  0  0  0  0  0  0
   45.3480   28.5830   46.5730 C   0  0  0  0  0  0  0  0  0  0  0  0
   46.2090   27.8110   47.4940 C   0  0  0  0  0  0  0  0  0  0  0  0
   45.1990   26.2960   47.5300 S   0  0  0  0  0  0  0  0  0  0  0  0
   43.9380   26.8670   46.4440 C   0  0  0  0  0  0  0  0  0  0  0  0
   44.2250   28.1750   46.0290 N   0  0  0  0  0  0  0  0  0  0  0  0
   42.8560   25.9360   46.1690 N   0  0  0  0  0  0  0  0  0  0  0  0
   41.6020   26.2770   46.4550 N   0  0  0  0  0  0  0  0  0  0  0  0
   40.7640   25.2650   46.1180 C   0  0  0  0  0  0  0  0  0  0  0  0
   41.5800   24.2760   45.6040 C   0  0  0  0  0  0  0  0  0  0  0  0
   42.9160   24.6870   45.6290 C   0  0  0  0  0  0  0  0  0  0  0  0
   46.0834   33.0858   47.0051 H   0  0  0  0  0  0  0  0  0  0  0  0
   45.4534   31.5008   43.0077 H   0  0  0  0  0  0  0  0  0  0  0  0
   47.0193   34.1148   44.6666 H   0  0  0  0  0  0  0  0  0  0  0  0
   44.5774   34.5042   46.1552 H   0  0  0  0  0  0  0  0  0  0  0  0
   43.9723   36.7063   45.0059 H   0  0  0  0  0  0  0  0  0  0  0  0
   44.4022   36.4209   42.5069 H   0  0  0  0  0  0  0  0  0  0  0  0
   45.7863   37.2844   43.3909 H   0  0  0  0  0  0  0  0  0  0  0  0
   47.2163   35.6498   43.0758 H   0  0  0  0  0  0  0  0  0  0  0  0
   46.2285   35.5320   41.5641 H   0  0  0  0  0  0  0  0  0  0  0  0
   44.8607   33.7712   42.6443 H   0  0  0  0  0  0  0  0  0  0  0  0
   46.5725   33.3062   42.4746 H   0  0  0  0  0  0  0  0  0  0  0  0
   47.1538   28.0683   47.9952 H   0  0  0  0  0  0  0  0  0  0  0  0
   39.6700   25.2377   46.2299 H   0  0  0  0  0  0  0  0  0  0  0  0
   41.2286   23.3036   45.2285 H   0  0  0  0  0  0  0  0  0  0  0  0
   43.8048   24.1331   45.2924 H   0  0  0  0  0  0  0  0  0  0  0  0
  1  6  2  0
  2  1  1  0
  3  4  1  0
  3  2  2  0
  4  5  2  0
  5 13  1  0
  5  6  1  0
  7  2  1  0
  7  8  1  0
  9  8  2  0
 10  9  1  0
 11 12  1  0
 11 10  1  0
 12  7  1  0
 13 14  2  0
 14 15  1  0
 16 15  1  0
 17 16  2  0
 17 13  1  0
 18 16  1  0
 18 19  1  0
 20 19  2  0
 21 22  2  0
 21 20  1  0
 22 18  1  0
  1 23  1  0
  3 24  1  0
  7 25  1  1
  8 26  1  0
  9 27  1  0
 10 28  1  0
 10 29  1  0
 11 30  1  0
 11 31  1  0
 12 32  1  0
 12 33  1  0
 14 34  1  0
 20 35  1  0
 21 36  1  0
 22 37  1  0
M  ISO  8  23  14  24  14  25  13  26  13  27  13  28  13  29  13  30  13
M  ISO  7  31  13  32  13  33  13  34  14  35  14  36  14  37  14
M  END
>  <minimizedAffinity>  (1) 
-5.00214911

>  <minimizedRMSD>  (1) 
1.05854166

$$$$
