
     RDKit          3D

 24 25  0  0  0  0  0  0  0  0999 V2000
   46.9660   34.7950   42.0900 C   0  0  0  0  0  0  0  0  0  0  0  0
   48.2530   35.2550   41.9170 C   0  0  0  0  0  0  0  0  0  0  0  0
   48.5240   34.9550   40.5790 C   0  0  0  0  0  0  0  0  0  0  0  0
   47.4050   34.3420   40.0310 C   0  0  0  0  0  0  0  0  0  0  0  0
   46.5020   34.2740   40.9930 O   0  0  0  0  0  0  0  0  0  0  0  0
   44.5050   35.9120   44.6570 C   0  0  0  0  0  0  0  0  0  0  0  0
   45.2560   35.8770   43.4570 C   0  0  0  0  0  0  0  0  0  0  0  0
   46.1780   34.8540   43.3210 C   0  0  0  0  0  0  0  0  0  0  0  0
   46.3430   33.9300   44.3110 N   0  0  0  0  0  0  0  0  0  0  0  0
   45.5950   34.0070   45.4500 C   0  0  0  0  0  0  0  0  0  0  0  0
   44.6810   34.9950   45.6190 N   0  0  0  0  0  0  0  0  0  0  0  0
   47.2440   33.8710   38.7000 N   0  0  0  0  0  0  0  0  0  0  0  0
   48.2870   33.9730   37.7470 C   0  0  0  0  0  0  0  0  0  0  0  0
   49.0370   35.0460   37.7920 N   0  0  0  0  0  0  0  0  0  0  0  0
   48.4660   32.9080   36.7940 N   0  0  0  0  0  0  0  0  0  0  0  0
   49.7950   35.1070   37.0900 H   0  0  0  0  0  0  0  0  0  0  0  0
   48.9091   35.7411   42.6540 H   0  0  0  0  0  0  0  0  0  0  0  0
   49.4644   35.1684   40.0498 H   0  0  0  0  0  0  0  0  0  0  0  0
   43.7610   36.7090   44.8030 H   0  0  0  0  0  0  0  0  0  0  0  0
   45.1128   36.6297   42.6678 H   0  0  0  0  0  0  0  0  0  0  0  0
   45.7353   33.2571   46.2424 H   0  0  0  0  0  0  0  0  0  0  0  0
   46.3482   33.4456   38.4218 H   0  0  0  0  0  0  0  0  0  0  0  0
   47.8405   32.0899   36.8125 H   0  0  0  0  0  0  0  0  0  0  0  0
   49.2195   32.9645   36.0940 H   0  0  0  0  0  0  0  0  0  0  0  0
  1  8  1  0
  2  1  2  0
  3  2  1  0
  4  3  2  0
  4  5  1  0
  5  1  1  0
  6 11  2  0
  7  6  1  0
  8  7  2  0
  8  9  1  0
  9 10  2  0
 10 11  1  0
 12  4  1  0
 13 14  2  0
 13 12  1  0
 15 13  1  0
 16 14  1  0
  2 17  1  0
  3 18  1  0
  6 19  1  0
  7 20  1  0
 10 21  1  0
 12 22  1  0
 15 23  1  0
 15 24  1  0
M  ISO  5  17  14  18  14  19  14  20  14  21  14
M  END
>  <minimizedAffinity>  (1) 
-5.62134266

>  <minimizedRMSD>  (1) 
0.215873569

$$$$
