
     RDKit          3D

 31 33  0  0  1  0  0  0  0  0999 V2000
   46.0970   32.2460   46.5100 C   0  0  0  0  0  0  0  0  0  0  0  0
   45.9600   32.4470   45.1470 C   0  0  0  0  0  0  0  0  0  0  0  0
   45.8040   31.2990   44.3060 C   0  0  0  0  0  0  0  0  0  0  0  0
   45.7990   30.0740   44.8840 N   0  0  0  0  0  0  0  0  0  0  0  0
   45.9390   29.9240   46.2360 C   0  0  0  0  0  0  0  0  0  0  0  0
   46.0830   30.9960   47.0220 N   0  0  0  0  0  0  0  0  0  0  0  0
   46.0040   33.8170   44.6130 C   0  0  2  0  0  0  0  0  0  0  0  0
   45.0120   34.6710   45.4070 C   0  0  0  0  0  0  0  0  0  0  0  0
   44.5620   35.8750   44.7660 C   0  0  0  0  0  0  0  0  0  0  0  0
   45.0210   36.2590   43.4400 C   0  0  0  0  0  0  0  0  0  0  0  0
   46.0110   35.3650   42.7860 C   0  0  0  0  0  0  0  0  0  0  0  0
   45.7640   33.9370   43.1570 C   0  0  0  0  0  0  0  0  0  0  0  0
   45.9310   28.5540   46.8270 C   0  0  0  0  0  0  0  0  0  0  0  0
   47.0460   27.7400   47.3840 C   0  0  0  0  0  0  0  0  0  0  0  0
   46.0510   26.2700   47.8010 S   0  0  0  0  0  0  0  0  0  0  0  0
   44.5080   26.9060   47.2370 C   0  0  0  0  0  0  0  0  0  0  0  0
   44.6700   28.1970   46.7310 N   0  0  0  0  0  0  0  0  0  0  0  0
   43.0700   25.7940   47.4210 S   0  0  0  0  0  0  0  0  0  0  0  0
   46.2180   33.1097   47.1803 H   0  0  0  0  0  0  0  0  0  0  0  0
   45.6910   31.4090   43.2174 H   0  0  0  0  0  0  0  0  0  0  0  0
   47.0361   34.1763   44.7381 H   0  0  0  0  0  0  0  0  0  0  0  0
   44.6644   34.3797   46.4092 H   0  0  0  0  0  0  0  0  0  0  0  0
   43.8492   36.5260   45.2933 H   0  0  0  0  0  0  0  0  0  0  0  0
   44.1385   36.3126   42.7855 H   0  0  0  0  0  0  0  0  0  0  0  0
   45.5483   37.2135   43.5845 H   0  0  0  0  0  0  0  0  0  0  0  0
   47.0232   35.6513   43.1078 H   0  0  0  0  0  0  0  0  0  0  0  0
   45.9124   35.4679   41.6953 H   0  0  0  0  0  0  0  0  0  0  0  0
   44.7257   33.6604   42.9218 H   0  0  0  0  0  0  0  0  0  0  0  0
   46.4294   33.2658   42.5942 H   0  0  0  0  0  0  0  0  0  0  0  0
   48.1181   27.9548   47.5045 H   0  0  0  0  0  0  0  0  0  0  0  0
   42.8135   25.5956   48.7521 H   0  0  0  0  0  0  0  0  0  0  0  0
  1  6  2  0
  2  1  1  0
  3  4  1  0
  3  2  2  0
  4  5  2  0
  5 13  1  0
  5  6  1  0
  7  2  1  0
  7  8  1  0
  9  8  2  0
 10  9  1  0
 11 12  1  0
 11 10  1  0
 12  7  1  0
 13 14  2  0
 14 15  1  0
 16 18  1  0
 16 15  1  0
 17 13  1  0
 17 16  2  0
  1 19  1  0
  3 20  1  0
  7 21  1  6
  8 22  1  0
  9 23  1  0
 10 24  1  0
 10 25  1  0
 11 26  1  0
 11 27  1  0
 12 28  1  0
 12 29  1  0
 14 30  1  0
 18 31  1  0
M  ISO  8  19  14  20  14  21  13  22  13  23  13  24  13  25  13  26  13
M  ISO  5  27  13  28  13  29  13  30  14  31  11
M  END
>  <minimizedAffinity>  (1) 
-4.586411

>  <minimizedRMSD>  (1) 
0.152170703

$$$$
