
     RDKit          3D

 37 40  0  0  1  0  0  0  0  0999 V2000
   45.9050   32.2400   46.3310 C   0  0  0  0  0  0  0  0  0  0  0  0
   45.8000   32.4600   44.9710 C   0  0  0  0  0  0  0  0  0  0  0  0
   45.5620   31.3500   44.0990 C   0  0  0  0  0  0  0  0  0  0  0  0
   45.4500   30.1180   44.6500 N   0  0  0  0  0  0  0  0  0  0  0  0
   45.5570   29.9320   45.9850 C   0  0  0  0  0  0  0  0  0  0  0  0
   45.7830   30.9850   46.8160 N   0  0  0  0  0  0  0  0  0  0  0  0
   45.9640   33.8270   44.4430 C   0  0  2  0  0  0  0  0  0  0  0  0
   44.9940   34.7470   45.1850 C   0  0  0  0  0  0  0  0  0  0  0  0
   44.6590   35.9900   44.5330 C   0  0  0  0  0  0  0  0  0  0  0  0
   45.2160   36.3310   43.2350 C   0  0  0  0  0  0  0  0  0  0  0  0
   46.1870   35.3960   42.6420 C   0  0  0  0  0  0  0  0  0  0  0  0
   45.8460   33.9770   42.9770 C   0  0  0  0  0  0  0  0  0  0  0  0
   45.4260   28.5670   46.5790 C   0  0  0  0  0  0  0  0  0  0  0  0
   46.3070   27.8040   47.4750 C   0  0  0  0  0  0  0  0  0  0  0  0
   45.2820   26.3170   47.6240 S   0  0  0  0  0  0  0  0  0  0  0  0
   43.9830   26.8800   46.5800 C   0  0  0  0  0  0  0  0  0  0  0  0
   44.2640   28.1570   46.1050 N   0  0  0  0  0  0  0  0  0  0  0  0
   42.7110   26.0460   46.2540 C   0  0  0  0  0  0  0  0  0  0  0  0
   42.7410   24.7250   45.9760 C   0  0  0  0  0  0  0  0  0  0  0  0
   41.4710   24.3970   45.7570 N   0  0  0  0  0  0  0  0  0  0  0  0
   40.7440   25.5080   45.9080 C   0  0  0  0  0  0  0  0  0  0  0  0
   41.5040   26.5940   46.2290 N   0  0  0  0  0  0  0  0  0  0  0  0
   46.0869   33.0820   47.0150 H   0  0  0  0  0  0  0  0  0  0  0  0
   45.4726   31.4937   43.0121 H   0  0  0  0  0  0  0  0  0  0  0  0
   47.0100   34.1107   44.6309 H   0  0  0  0  0  0  0  0  0  0  0  0
   44.5735   34.4756   46.1646 H   0  0  0  0  0  0  0  0  0  0  0  0
   43.9703   36.6912   45.0270 H   0  0  0  0  0  0  0  0  0  0  0  0
   44.3761   36.4236   42.5307 H   0  0  0  0  0  0  0  0  0  0  0  0
   45.7886   37.2536   43.4108 H   0  0  0  0  0  0  0  0  0  0  0  0
   47.1899   35.6255   43.0312 H   0  0  0  0  0  0  0  0  0  0  0  0
   46.1595   35.5121   41.5485 H   0  0  0  0  0  0  0  0  0  0  0  0
   44.8176   33.7523   42.6578 H   0  0  0  0  0  0  0  0  0  0  0  0
   46.5247   33.2826   42.4601 H   0  0  0  0  0  0  0  0  0  0  0  0
   47.2824   28.0565   47.9165 H   0  0  0  0  0  0  0  0  0  0  0  0
   43.6210   24.0661   45.9389 H   0  0  0  0  0  0  0  0  0  0  0  0
   39.6513   25.5429   45.7866 H   0  0  0  0  0  0  0  0  0  0  0  0
   41.2195   27.5684   46.4034 H   0  0  0  0  0  0  0  0  0  0  0  0
  1  6  2  0
  2  1  1  0
  3  4  1  0
  3  2  2  0
  4  5  2  0
  5 13  1  0
  5  6  1  0
  7  2  1  0
  7  8  1  0
  9  8  2  0
 10  9  1  0
 11 12  1  0
 11 10  1  0
 12  7  1  0
 13 14  2  0
 14 15  1  0
 16 15  1  0
 17 13  1  0
 17 16  2  0
 18 16  1  0
 19 18  2  0
 20 21  2  0
 20 19  1  0
 21 22  1  0
 22 18  1  0
  1 23  1  0
  3 24  1  0
  7 25  1  1
  8 26  1  0
  9 27  1  0
 10 28  1  0
 10 29  1  0
 11 30  1  0
 11 31  1  0
 12 32  1  0
 12 33  1  0
 14 34  1  0
 19 35  1  0
 21 36  1  0
 22 37  1  0
M  ISO  8  23  14  24  14  25  13  26  13  27  13  28  13  29  13  30  13
M  ISO  7  31  13  32  13  33  13  34  14  35  14  36  14  37   9
M  END
>  <minimizedAffinity>  (1) 
-4.79264164

>  <minimizedRMSD>  (1) 
0.937256396

$$$$
