
     RDKit          3D

 40 43  0  0  0  0  0  0  0  0999 V2000
   44.4730   36.0200   44.5780 C   0  0  0  0  0  0  0  0  0  0  0  0
   45.2450   35.9630   43.3860 C   0  0  0  0  0  0  0  0  0  0  0  0
   46.1320   34.9290   43.3100 C   0  0  0  0  0  0  0  0  0  0  0  0
   46.2120   34.0610   44.3320 N   0  0  0  0  0  0  0  0  0  0  0  0
   45.4790   34.1180   45.4600 C   0  0  0  0  0  0  0  0  0  0  0  0
   44.6020   35.1250   45.5530 N   0  0  0  0  0  0  0  0  0  0  0  0
   45.8070   33.0290   46.3710 C   0  0  0  0  0  0  0  0  0  0  0  0
   45.3470   32.9810   47.6560 C   0  0  0  0  0  0  0  0  0  0  0  0
   45.6280   31.9830   48.5460 C   0  0  0  0  0  0  0  0  0  0  0  0
   46.4230   30.9260   48.1780 C   0  0  0  0  0  0  0  0  0  0  0  0
   46.9170   30.9190   46.8920 C   0  0  0  0  0  0  0  0  0  0  0  0
   47.7150   29.8540   46.5310 C   0  0  0  0  0  0  0  0  0  0  0  0
   48.2450   29.7760   45.2620 C   0  0  0  0  0  0  0  0  0  0  0  0
   47.9310   30.8210   44.3840 C   0  0  0  0  0  0  0  0  0  0  0  0
   47.1350   31.8540   44.7970 C   0  0  0  0  0  0  0  0  0  0  0  0
   46.5990   31.9530   46.0440 C   0  0  0  0  0  0  0  0  0  0  0  0
   46.9690   34.7850   42.1150 C   0  0  0  0  0  0  0  0  0  0  0  0
   48.3010   35.0570   41.9850 C   0  0  0  0  0  0  0  0  0  0  0  0
   48.5710   34.7390   40.6460 C   0  0  0  0  0  0  0  0  0  0  0  0
   47.3990   34.2980   40.0510 C   0  0  0  0  0  0  0  0  0  0  0  0
   46.4760   34.3480   40.9820 O   0  0  0  0  0  0  0  0  0  0  0  0
   47.2470   33.8820   38.7110 N   0  0  0  0  0  0  0  0  0  0  0  0
   48.2760   34.0140   37.7520 C   0  0  0  0  0  0  0  0  0  0  0  0
   49.0330   35.0870   37.8360 N   0  0  0  0  0  0  0  0  0  0  0  0
   48.4280   32.9770   36.7600 N   0  0  0  0  0  0  0  0  0  0  0  0
   49.8130   35.1150   37.1410 H   0  0  0  0  0  0  0  0  0  0  0  0
   43.7426   36.8337   44.6983 H   0  0  0  0  0  0  0  0  0  0  0  0
   45.1348   36.7026   42.5792 H   0  0  0  0  0  0  0  0  0  0  0  0
   44.7041   33.8050   47.9992 H   0  0  0  0  0  0  0  0  0  0  0  0
   45.2144   32.0268   49.5643 H   0  0  0  0  0  0  0  0  0  0  0  0
   46.6568   30.1151   48.8835 H   0  0  0  0  0  0  0  0  0  0  0  0
   47.9300   29.0606   47.2620 H   0  0  0  0  0  0  0  0  0  0  0  0
   48.8831   28.9348   44.9535 H   0  0  0  0  0  0  0  0  0  0  0  0
   48.3263   30.8110   43.3575 H   0  0  0  0  0  0  0  0  0  0  0  0
   46.9143   32.6549   44.0760 H   0  0  0  0  0  0  0  0  0  0  0  0
   48.9965   35.4354   42.7486 H   0  0  0  0  0  0  0  0  0  0  0  0
   49.5493   34.8251   40.1506 H   0  0  0  0  0  0  0  0  0  0  0  0
   46.3506   33.4658   38.4208 H   0  0  0  0  0  0  0  0  0  0  0  0
   47.7930   32.1660   36.7613 H   0  0  0  0  0  0  0  0  0  0  0  0
   49.1715   33.0478   36.0507 H   0  0  0  0  0  0  0  0  0  0  0  0
  1  6  2  0
  2  1  1  0
  3  2  2  0
  3  4  1  0
  4  5  2  0
  5  6  1  0
  5  7  1  0
  7  8  2  0
  8  9  1  0
 10  9  2  0
 11 10  1  0
 12 11  2  0
 13 12  1  0
 14 15  1  0
 14 13  2  0
 15 16  2  0
 16  7  1  0
 16 11  1  0
 17  3  1  0
 18 17  2  0
 19 18  1  0
 20 19  2  0
 20 21  1  0
 21 17  1  0
 22 20  1  0
 23 24  2  0
 23 22  1  0
 25 23  1  0
 26 24  1  0
  1 27  1  0
  2 28  1  0
  8 29  1  0
  9 30  1  0
 10 31  1  0
 12 32  1  0
 13 33  1  0
 14 34  1  0
 15 35  1  0
 18 36  1  0
 19 37  1  0
 22 38  1  0
 25 39  1  0
 25 40  1  0
M  ISO  8  27  14  28  14  29  14  30  14  31  14  32  14  33  14  34  14
M  ISO  3  35  14  36  14  37  14
M  END
>  <minimizedAffinity>  (1) 
-7.67478848

>  <minimizedRMSD>  (1) 
0.238295853

$$$$
