
     RDKit          3D

 38 41  0  0  0  0  0  0  0  0999 V2000
   44.6130   35.4720   44.8680 C   0  0  0  0  0  0  0  0  0  0  0  0
   45.3080   35.5630   43.6470 C   0  0  0  0  0  0  0  0  0  0  0  0
   46.3000   34.6550   43.4120 C   0  0  0  0  0  0  0  0  0  0  0  0
   46.5390   33.7440   44.3550 N   0  0  0  0  0  0  0  0  0  0  0  0
   45.9050   33.6220   45.5260 C   0  0  0  0  0  0  0  0  0  0  0  0
   44.9130   34.5270   45.7690 N   0  0  0  0  0  0  0  0  0  0  0  0
   46.1090   32.6630   46.6140 C   0  0  0  0  0  0  0  0  0  0  0  0
   45.5870   32.9350   47.7930 N   0  0  0  0  0  0  0  0  0  0  0  0
   45.6440   32.2250   48.9170 C   0  0  0  0  0  0  0  0  0  0  0  0
   46.3220   31.0680   48.8540 N   0  0  0  0  0  0  0  0  0  0  0  0
   46.9020   30.6740   47.7050 C   0  0  0  0  0  0  0  0  0  0  0  0
   47.6160   29.5060   47.5470 C   0  0  0  0  0  0  0  0  0  0  0  0
   48.2200   29.0830   46.3880 C   0  0  0  0  0  0  0  0  0  0  0  0
   48.0700   29.9350   45.3140 C   0  0  0  0  0  0  0  0  0  0  0  0
   47.3780   31.1260   45.3530 C   0  0  0  0  0  0  0  0  0  0  0  0
   46.8040   31.4740   46.5540 C   0  0  0  0  0  0  0  0  0  0  0  0
   47.0350   34.7020   42.1580 C   0  0  0  0  0  0  0  0  0  0  0  0
   48.2570   35.2750   41.9380 C   0  0  0  0  0  0  0  0  0  0  0  0
   48.4800   35.0300   40.5710 C   0  0  0  0  0  0  0  0  0  0  0  0
   47.4030   34.3390   40.0580 C   0  0  0  0  0  0  0  0  0  0  0  0
   46.5630   34.1700   41.0580 O   0  0  0  0  0  0  0  0  0  0  0  0
   47.2380   33.9020   38.7250 N   0  0  0  0  0  0  0  0  0  0  0  0
   48.2740   33.9900   37.7670 C   0  0  0  0  0  0  0  0  0  0  0  0
   49.0350   35.0600   37.8230 N   0  0  0  0  0  0  0  0  0  0  0  0
   48.4300   32.9230   36.8060 N   0  0  0  0  0  0  0  0  0  0  0  0
   49.7840   35.1120   37.1050 H   0  0  0  0  0  0  0  0  0  0  0  0
   43.8088   36.1901   45.0862 H   0  0  0  0  0  0  0  0  0  0  0  0
   45.0602   36.3390   42.9078 H   0  0  0  0  0  0  0  0  0  0  0  0
   45.1628   32.5668   49.8453 H   0  0  0  0  0  0  0  0  0  0  0  0
   47.7108   28.8540   48.4279 H   0  0  0  0  0  0  0  0  0  0  0  0
   48.7797   28.1383   46.3217 H   0  0  0  0  0  0  0  0  0  0  0  0
   48.5348   29.6438   44.3605 H   0  0  0  0  0  0  0  0  0  0  0  0
   47.2886   31.7689   44.4649 H   0  0  0  0  0  0  0  0  0  0  0  0
   48.9065   35.7991   42.6546 H   0  0  0  0  0  0  0  0  0  0  0  0
   49.3698   35.3396   40.0032 H   0  0  0  0  0  0  0  0  0  0  0  0
   46.3309   33.5052   38.4409 H   0  0  0  0  0  0  0  0  0  0  0  0
   47.7921   32.1146   36.8260 H   0  0  0  0  0  0  0  0  0  0  0  0
   49.1792   32.9706   36.1007 H   0  0  0  0  0  0  0  0  0  0  0  0
  1  6  2  0
  2  1  1  0
  3  2  2  0
  3  4  1  0
  4  5  2  0
  5  6  1  0
  5  7  1  0
  7  8  2  0
  8  9  1  0
 10  9  2  0
 11 10  1  0
 12 11  2  0
 13 12  1  0
 14 15  1  0
 14 13  2  0
 15 16  2  0
 16  7  1  0
 16 11  1  0
 17  3  1  0
 18 17  2  0
 19 18  1  0
 20 19  2  0
 20 21  1  0
 21 17  1  0
 22 20  1  0
 23 24  2  0
 23 22  1  0
 25 23  1  0
 26 24  1  0
  1 27  1  0
  2 28  1  0
  9 29  1  0
 12 30  1  0
 13 31  1  0
 14 32  1  0
 15 33  1  0
 18 34  1  0
 19 35  1  0
 22 36  1  0
 25 37  1  0
 25 38  1  0
M  ISO  8  27  14  28  14  29  14  30  14  31  14  32  14  33  14  34  14
M  ISO  1  35  14
M  END
>  <minimizedAffinity>  (1) 
-7.46491003

>  <minimizedRMSD>  (1) 
1.33693528

$$$$
