
     RDKit          3D

 37 39  0  0  0  0  0  0  0  0999 V2000
   46.9870   34.7610   42.1000 C   0  0  0  0  0  0  0  0  0  0  0  0
   48.2660   35.2650   41.9000 C   0  0  0  0  0  0  0  0  0  0  0  0
   48.5130   34.9760   40.5510 C   0  0  0  0  0  0  0  0  0  0  0  0
   47.4110   34.3390   40.0270 C   0  0  0  0  0  0  0  0  0  0  0  0
   46.5370   34.2430   41.0080 O   0  0  0  0  0  0  0  0  0  0  0  0
   44.5300   35.7330   44.7090 C   0  0  0  0  0  0  0  0  0  0  0  0
   45.2440   35.7360   43.4870 C   0  0  0  0  0  0  0  0  0  0  0  0
   46.2300   34.7930   43.3380 C   0  0  0  0  0  0  0  0  0  0  0  0
   46.4950   33.8960   44.3410 N   0  0  0  0  0  0  0  0  0  0  0  0
   45.7890   33.9230   45.5030 C   0  0  0  0  0  0  0  0  0  0  0  0
   44.8090   34.8390   45.6850 N   0  0  0  0  0  0  0  0  0  0  0  0
   46.1440   32.9220   46.5220 C   0  0  0  0  0  0  0  0  0  0  0  0
   46.0520   31.4950   46.0210 C   0  0  0  0  0  0  0  0  0  0  0  0
   46.0960   30.6950   47.2810 C   0  0  0  0  0  0  0  0  0  0  0  0
   45.6690   31.6290   48.4050 C   0  0  0  0  0  0  0  0  0  0  0  0
   45.1570   32.8840   47.6860 C   0  0  0  0  0  0  0  0  0  0  0  0
   47.2510   33.8780   38.7000 N   0  0  0  0  0  0  0  0  0  0  0  0
   48.2830   33.9690   37.7390 C   0  0  0  0  0  0  0  0  0  0  0  0
   49.0460   35.0350   37.7790 N   0  0  0  0  0  0  0  0  0  0  0  0
   48.4400   32.9000   36.7820 N   0  0  0  0  0  0  0  0  0  0  0  0
   49.8300   35.0500   37.0970 H   0  0  0  0  0  0  0  0  0  0  0  0
   48.9242   35.7681   42.6237 H   0  0  0  0  0  0  0  0  0  0  0  0
   49.4349   35.2181   40.0019 H   0  0  0  0  0  0  0  0  0  0  0  0
   43.7318   36.4729   44.8683 H   0  0  0  0  0  0  0  0  0  0  0  0
   45.0187   36.4620   42.6919 H   0  0  0  0  0  0  0  0  0  0  0  0
   47.1624   33.2297   46.8017 H   0  0  0  0  0  0  0  0  0  0  0  0
   45.1104   31.3263   45.4779 H   0  0  0  0  0  0  0  0  0  0  0  0
   46.8502   31.2317   45.3114 H   0  0  0  0  0  0  0  0  0  0  0  0
   45.4048   29.8420   47.2132 H   0  0  0  0  0  0  0  0  0  0  0  0
   47.1042   30.2934   47.4607 H   0  0  0  0  0  0  0  0  0  0  0  0
   44.8699   31.1726   49.0077 H   0  0  0  0  0  0  0  0  0  0  0  0
   46.4918   31.8510   49.1005 H   0  0  0  0  0  0  0  0  0  0  0  0
   45.2332   33.7804   48.3190 H   0  0  0  0  0  0  0  0  0  0  0  0
   44.0948   32.8619   47.4010 H   0  0  0  0  0  0  0  0  0  0  0  0
   46.3505   33.4611   38.4240 H   0  0  0  0  0  0  0  0  0  0  0  0
   47.8048   32.0895   36.8064 H   0  0  0  0  0  0  0  0  0  0  0  0
   49.1872   32.9476   36.0747 H   0  0  0  0  0  0  0  0  0  0  0  0
  1  8  1  0
  2  1  2  0
  3  2  1  0
  4  3  2  0
  4  5  1  0
  5  1  1  0
  6 11  2  0
  7  6  1  0
  8  7  2  0
  8  9  1  0
  9 10  2  0
 10 11  1  0
 10 12  1  0
 12 16  1  0
 13 12  1  0
 13 14  1  0
 14 15  1  0
 16 15  1  0
 17  4  1  0
 18 19  2  0
 18 17  1  0
 20 18  1  0
 21 19  1  0
  2 22  1  0
  3 23  1  0
  6 24  1  0
  7 25  1  0
 12 26  1  0
 13 27  1  0
 13 28  1  0
 14 29  1  0
 14 30  1  0
 15 31  1  0
 15 32  1  0
 16 33  1  0
 16 34  1  0
 17 35  1  0
 20 36  1  0
 20 37  1  0
M  ISO  8  22  14  23  14  24  14  25  14  26  13  27  13  28  13  29  13
M  ISO  5  30  13  31  13  32  13  33  13  34  13
M  END
>  <minimizedAffinity>  (1) 
-6.76881504

>  <minimizedRMSD>  (1) 
0.302939206

$$$$
