
     RDKit          3D

 32 34  0  0  0  0  0  0  0  0999 V2000
   46.9790   34.7880   42.1030 C   0  0  0  0  0  0  0  0  0  0  0  0
   48.2580   35.2540   41.9150 C   0  0  0  0  0  0  0  0  0  0  0  0
   48.5170   34.9520   40.5660 C   0  0  0  0  0  0  0  0  0  0  0  0
   47.4040   34.3370   40.0310 C   0  0  0  0  0  0  0  0  0  0  0  0
   46.5270   34.2740   41.0100 O   0  0  0  0  0  0  0  0  0  0  0  0
   44.5060   35.8100   44.6820 C   0  0  0  0  0  0  0  0  0  0  0  0
   45.2350   35.8060   43.4640 C   0  0  0  0  0  0  0  0  0  0  0  0
   46.2020   34.8390   43.3280 C   0  0  0  0  0  0  0  0  0  0  0  0
   46.4290   33.9350   44.3380 N   0  0  0  0  0  0  0  0  0  0  0  0
   45.7040   33.9810   45.4850 C   0  0  0  0  0  0  0  0  0  0  0  0
   44.7470   34.9110   45.6600 N   0  0  0  0  0  0  0  0  0  0  0  0
   45.9710   33.0060   46.5370 C   0  0  0  0  0  0  0  0  0  0  0  0
   47.0270   32.1340   46.4280 C   0  0  0  0  0  0  0  0  0  0  0  0
   47.2960   31.2050   47.4110 C   0  0  0  0  0  0  0  0  0  0  0  0
   46.4740   31.1830   48.5000 N   0  0  0  0  0  0  0  0  0  0  0  0
   45.4360   32.0320   48.6180 C   0  0  0  0  0  0  0  0  0  0  0  0
   45.1920   32.9410   47.6300 N   0  0  0  0  0  0  0  0  0  0  0  0
   47.2480   33.8740   38.7080 N   0  0  0  0  0  0  0  0  0  0  0  0
   48.2810   33.9690   37.7430 C   0  0  0  0  0  0  0  0  0  0  0  0
   49.0370   35.0440   37.7910 N   0  0  0  0  0  0  0  0  0  0  0  0
   48.4300   32.8950   36.7900 N   0  0  0  0  0  0  0  0  0  0  0  0
   49.8130   35.0620   37.0990 H   0  0  0  0  0  0  0  0  0  0  0  0
   48.9197   35.7449   42.6438 H   0  0  0  0  0  0  0  0  0  0  0  0
   49.4511   35.1698   40.0274 H   0  0  0  0  0  0  0  0  0  0  0  0
   43.7225   36.5671   44.8333 H   0  0  0  0  0  0  0  0  0  0  0  0
   45.0360   36.5399   42.6691 H   0  0  0  0  0  0  0  0  0  0  0  0
   47.6716   32.1778   45.5377 H   0  0  0  0  0  0  0  0  0  0  0  0
   48.1418   30.5076   47.3206 H   0  0  0  0  0  0  0  0  0  0  0  0
   44.7880   31.9932   49.5061 H   0  0  0  0  0  0  0  0  0  0  0  0
   46.3499   33.4512   38.4332 H   0  0  0  0  0  0  0  0  0  0  0  0
   47.7932   32.0861   36.8219 H   0  0  0  0  0  0  0  0  0  0  0  0
   49.1732   32.9376   36.0781 H   0  0  0  0  0  0  0  0  0  0  0  0
  1  8  1  0
  2  1  2  0
  3  2  1  0
  4  3  2  0
  4  5  1  0
  5  1  1  0
  6 11  2  0
  7  6  1  0
  8  7  2  0
  8  9  1  0
  9 10  2  0
 10 11  1  0
 10 12  1  0
 12 17  1  0
 13 12  2  0
 13 14  1  0
 14 15  2  0
 15 16  1  0
 17 16  2  0
 18  4  1  0
 19 20  2  0
 19 18  1  0
 21 19  1  0
 22 20  1  0
  2 23  1  0
  3 24  1  0
  6 25  1  0
  7 26  1  0
 13 27  1  0
 14 28  1  0
 16 29  1  0
 18 30  1  0
 21 31  1  0
 21 32  1  0
M  ISO  7  23  14  24  14  25  14  26  14  27  14  28  14  29  14
M  END
>  <minimizedAffinity>  (1) 
-7.00128698

>  <minimizedRMSD>  (1) 
0.247048065

$$$$
