
     RDKit          3D

 31 33  0  0  0  0  0  0  0  0999 V2000
   46.9660   34.8130   42.1010 C   0  0  0  0  0  0  0  0  0  0  0  0
   48.2660   35.2330   41.9300 C   0  0  0  0  0  0  0  0  0  0  0  0
   48.5350   34.9130   40.5880 C   0  0  0  0  0  0  0  0  0  0  0  0
   47.4110   34.3330   40.0400 C   0  0  0  0  0  0  0  0  0  0  0  0
   46.5150   34.3080   41.0050 O   0  0  0  0  0  0  0  0  0  0  0  0
   44.4610   35.9300   44.6110 C   0  0  0  0  0  0  0  0  0  0  0  0
   45.2130   35.8840   43.4130 C   0  0  0  0  0  0  0  0  0  0  0  0
   46.1660   34.9000   43.3150 C   0  0  0  0  0  0  0  0  0  0  0  0
   46.3660   34.0080   44.3400 N   0  0  0  0  0  0  0  0  0  0  0  0
   45.6060   34.1010   45.4780 C   0  0  0  0  0  0  0  0  0  0  0  0
   44.6590   35.0590   45.6090 N   0  0  0  0  0  0  0  0  0  0  0  0
   45.9660   33.0660   46.4530 C   0  0  0  0  0  0  0  0  0  0  0  0
   46.9160   32.0790   46.6230 C   0  0  0  0  0  0  0  0  0  0  0  0
   46.6260   31.4730   47.8210 C   0  0  0  0  0  0  0  0  0  0  0  0
   45.5480   32.0680   48.3540 N   0  0  0  0  0  0  0  0  0  0  0  0
   45.1380   33.0370   47.5320 N   0  0  0  0  0  0  0  0  0  0  0  0
   47.2580   33.8650   38.7180 N   0  0  0  0  0  0  0  0  0  0  0  0
   48.2840   33.9800   37.7480 C   0  0  0  0  0  0  0  0  0  0  0  0
   49.0330   35.0430   37.7940 N   0  0  0  0  0  0  0  0  0  0  0  0
   48.4230   32.9160   36.7840 N   0  0  0  0  0  0  0  0  0  0  0  0
   49.8110   35.0780   37.1030 H   0  0  0  0  0  0  0  0  0  0  0  0
   48.9332   35.7051   42.6661 H   0  0  0  0  0  0  0  0  0  0  0  0
   49.4842   35.0951   40.0627 H   0  0  0  0  0  0  0  0  0  0  0  0
   43.6895   36.7056   44.7262 H   0  0  0  0  0  0  0  0  0  0  0  0
   45.0421   36.6030   42.5982 H   0  0  0  0  0  0  0  0  0  0  0  0
   47.7390   31.8284   45.9375 H   0  0  0  0  0  0  0  0  0  0  0  0
   47.1849   30.6383   48.2692 H   0  0  0  0  0  0  0  0  0  0  0  0
   45.1083   31.8180   49.2512 H   0  0  0  0  0  0  0  0  0  0  0  0
   46.3675   33.4234   38.4481 H   0  0  0  0  0  0  0  0  0  0  0  0
   47.7876   32.1060   36.8158 H   0  0  0  0  0  0  0  0  0  0  0  0
   49.1577   32.9662   36.0639 H   0  0  0  0  0  0  0  0  0  0  0  0
  1  8  1  0
  2  1  2  0
  3  2  1  0
  4  3  2  0
  4  5  1  0
  5  1  1  0
  6 11  2  0
  7  6  1  0
  8  7  2  0
  8  9  1  0
  9 10  2  0
 10 11  1  0
 10 12  1  0
 12 13  1  0
 12 16  2  0
 13 14  2  0
 14 15  1  0
 16 15  1  0
 17  4  1  0
 18 19  2  0
 18 17  1  0
 20 18  1  0
 21 19  1  0
  2 22  1  0
  3 23  1  0
  6 24  1  0
  7 25  1  0
 13 26  1  0
 14 27  1  0
 15 28  1  0
 17 29  1  0
 20 30  1  0
 20 31  1  0
M  ISO  7  22  14  23  14  24  14  25  14  26  14  27  14  28   9
M  END
>  <minimizedAffinity>  (1) 
-6.72882938

>  <minimizedRMSD>  (1) 
0.155893743

$$$$
