
     RDKit          3D

 27 28  0  0  0  0  0  0  0  0999 V2000
   46.9540   34.7950   42.0870 C   0  0  0  0  0  0  0  0  0  0  0  0
   48.2500   35.2570   41.9020 C   0  0  0  0  0  0  0  0  0  0  0  0
   48.5220   34.9570   40.5630 C   0  0  0  0  0  0  0  0  0  0  0  0
   47.4080   34.3470   40.0280 C   0  0  0  0  0  0  0  0  0  0  0  0
   46.5070   34.2810   40.9930 O   0  0  0  0  0  0  0  0  0  0  0  0
   44.5000   35.9000   44.6480 C   0  0  0  0  0  0  0  0  0  0  0  0
   45.2460   35.8600   43.4410 C   0  0  0  0  0  0  0  0  0  0  0  0
   46.1760   34.8580   43.3140 C   0  0  0  0  0  0  0  0  0  0  0  0
   46.3720   33.9380   44.3170 N   0  0  0  0  0  0  0  0  0  0  0  0
   45.6350   34.0140   45.4560 C   0  0  0  0  0  0  0  0  0  0  0  0
   44.7050   34.9870   45.6220 N   0  0  0  0  0  0  0  0  0  0  0  0
   45.9210   32.9730   46.4800 C   0  0  0  0  0  0  0  0  0  0  0  0
   47.2500   33.8750   38.6980 N   0  0  0  0  0  0  0  0  0  0  0  0
   48.2910   33.9700   37.7460 C   0  0  0  0  0  0  0  0  0  0  0  0
   49.0380   35.0410   37.7850 N   0  0  0  0  0  0  0  0  0  0  0  0
   48.4670   32.8940   36.7990 N   0  0  0  0  0  0  0  0  0  0  0  0
   49.8330   35.0560   37.1080 H   0  0  0  0  0  0  0  0  0  0  0  0
   48.9084   35.7445   42.6360 H   0  0  0  0  0  0  0  0  0  0  0  0
   49.4605   35.1705   40.0305 H   0  0  0  0  0  0  0  0  0  0  0  0
   43.7440   36.6859   44.7922 H   0  0  0  0  0  0  0  0  0  0  0  0
   45.0860   36.5994   42.6424 H   0  0  0  0  0  0  0  0  0  0  0  0
   45.8024   33.4047   47.4848 H   0  0  0  0  0  0  0  0  0  0  0  0
   45.2200   32.1344   46.3561 H   0  0  0  0  0  0  0  0  0  0  0  0
   46.9521   32.6103   46.3561 H   0  0  0  0  0  0  0  0  0  0  0  0
   46.3531   33.4521   38.4194 H   0  0  0  0  0  0  0  0  0  0  0  0
   47.8401   32.0772   36.8252 H   0  0  0  0  0  0  0  0  0  0  0  0
   49.2194   32.9434   36.0973 H   0  0  0  0  0  0  0  0  0  0  0  0
  1  8  1  0
  2  1  2  0
  3  2  1  0
  4  3  2  0
  4  5  1  0
  5  1  1  0
  6 11  2  0
  7  6  1  0
  8  7  2  0
  8  9  1  0
  9 10  2  0
 10 11  1  0
 10 12  1  0
 13  4  1  0
 14 15  2  0
 14 13  1  0
 16 14  1  0
 17 15  1  0
  2 18  1  0
  3 19  1  0
  6 20  1  0
  7 21  1  0
 12 22  1  0
 12 23  1  0
 12 24  1  0
 13 25  1  0
 16 26  1  0
 16 27  1  0
M  ISO  7  18  14  19  14  20  14  21  14  22   8  23   8  24   8
M  END
>  <minimizedAffinity>  (1) 
-5.96882629

>  <minimizedRMSD>  (1) 
0.0261623636

$$$$
