
     RDKit          3D

 26 27  0  0  0  0  0  0  0  0999 V2000
   46.9500   34.7960   42.0940 C   0  0  0  0  0  0  0  0  0  0  0  0
   48.2460   35.2540   41.9120 C   0  0  0  0  0  0  0  0  0  0  0  0
   48.5130   34.9450   40.5680 C   0  0  0  0  0  0  0  0  0  0  0  0
   47.3990   34.3390   40.0300 C   0  0  0  0  0  0  0  0  0  0  0  0
   46.5050   34.2820   40.9980 O   0  0  0  0  0  0  0  0  0  0  0  0
   44.5020   35.8950   44.6590 C   0  0  0  0  0  0  0  0  0  0  0  0
   45.2430   35.8680   43.4450 C   0  0  0  0  0  0  0  0  0  0  0  0
   46.1700   34.8640   43.3160 C   0  0  0  0  0  0  0  0  0  0  0  0
   46.3630   33.9400   44.3140 N   0  0  0  0  0  0  0  0  0  0  0  0
   45.6220   34.0150   45.4610 C   0  0  0  0  0  0  0  0  0  0  0  0
   44.7030   34.9820   45.6310 N   0  0  0  0  0  0  0  0  0  0  0  0
   45.8880   32.9980   46.4730 C   0  0  0  0  0  0  0  0  0  0  0  0
   45.1700   32.9980   47.5020 O   0  0  0  0  0  0  0  0  0  0  0  0
   47.2510   33.8710   38.7050 N   0  0  0  0  0  0  0  0  0  0  0  0
   48.2850   33.9670   37.7510 C   0  0  0  0  0  0  0  0  0  0  0  0
   49.0410   35.0490   37.7880 N   0  0  0  0  0  0  0  0  0  0  0  0
   48.4500   32.8870   36.8030 N   0  0  0  0  0  0  0  0  0  0  0  0
   49.8280   35.0510   37.1040 H   0  0  0  0  0  0  0  0  0  0  0  0
   48.9063   35.7420   42.6441 H   0  0  0  0  0  0  0  0  0  0  0  0
   49.4528   35.1519   40.0352 H   0  0  0  0  0  0  0  0  0  0  0  0
   43.7462   36.6801   44.8087 H   0  0  0  0  0  0  0  0  0  0  0  0
   45.0816   36.6125   42.6515 H   0  0  0  0  0  0  0  0  0  0  0  0
   46.6900   32.2572   46.3385 H   0  0  0  0  0  0  0  0  0  0  0  0
   46.3559   33.4445   38.4260 H   0  0  0  0  0  0  0  0  0  0  0  0
   47.8202   32.0726   36.8354 H   0  0  0  0  0  0  0  0  0  0  0  0
   49.1973   32.9323   36.0956 H   0  0  0  0  0  0  0  0  0  0  0  0
  1  8  1  0
  2  1  2  0
  3  2  1  0
  4  3  2  0
  4  5  1  0
  5  1  1  0
  6 11  2  0
  7  6  1  0
  8  7  2  0
  8  9  1  0
  9 10  2  0
 10 11  1  0
 10 12  1  0
 12 13  2  0
 14  4  1  0
 15 16  2  0
 15 14  1  0
 17 15  1  0
 18 16  1  0
  2 19  1  0
  3 20  1  0
  6 21  1  0
  7 22  1  0
 12 23  1  0
 14 24  1  0
 17 25  1  0
 17 26  1  0
M  ISO  5  19  14  20  14  21  14  22  14  23   6
M  END
>  <minimizedAffinity>  (1) 
-5.98104477

>  <minimizedRMSD>  (1) 
0.0722075328

$$$$
