
     RDKit          3D

 40 42  0  0  1  0  0  0  0  0999 V2000
   44.9520   34.7230   45.4340 C   0  0  0  0  0  0  0  0  0  0  0  0
   45.4950   34.9600   44.1440 C   0  0  0  0  0  0  0  0  0  0  0  0
   46.5410   34.1660   43.7730 C   0  0  0  0  0  0  0  0  0  0  0  0
   47.0080   33.2080   44.6280 N   0  0  0  0  0  0  0  0  0  0  0  0
   46.4600   33.0150   45.8530 C   0  0  0  0  0  0  0  0  0  0  0  0
   45.4270   33.7830   46.2470 N   0  0  0  0  0  0  0  0  0  0  0  0
   46.9880   32.0010   46.7090 N   0  0  0  0  0  0  0  0  0  0  0  0
   48.0920   31.1950   46.2480 C   0  0  0  0  0  0  0  0  0  0  0  0
   47.8690   29.7740   46.6490 C   0  0  0  0  0  0  0  0  0  0  0  0
   47.3740   29.5910   47.9280 O   0  0  0  0  0  0  0  0  0  0  0  0
   47.3300   30.7420   48.6780 C   0  0  0  0  0  0  0  0  0  0  0  0
   46.4290   31.7940   48.0060 C   0  0  2  0  0  0  0  0  0  0  0  0
   47.1480   34.3530   42.4640 C   0  0  0  0  0  0  0  0  0  0  0  0
   48.3710   34.9570   42.1970 C   0  0  0  0  0  0  0  0  0  0  0  0
   48.4710   34.8720   40.7990 C   0  0  0  0  0  0  0  0  0  0  0  0
   47.3400   34.2420   40.3120 C   0  0  0  0  0  0  0  0  0  0  0  0
   46.6030   33.9650   41.3730 O   0  0  0  0  0  0  0  0  0  0  0  0
   47.0540   33.9640   38.9680 N   0  0  0  0  0  0  0  0  0  0  0  0
   48.0370   34.0450   37.9520 C   0  0  0  0  0  0  0  0  0  0  0  0
   48.9150   35.0320   38.0530 N   0  0  0  0  0  0  0  0  0  0  0  0
   47.9940   33.0450   36.8970 N   0  0  0  0  0  0  0  0  0  0  0  0
   49.6550   35.0110   37.3040 H   0  0  0  0  0  0  0  0  0  0  0  0
   45.0590   31.2130   48.0560 C   0  0  0  0  0  0  0  0  0  0  0  0
   44.8200   30.4270   46.9470 F   0  0  0  0  0  0  0  0  0  0  0  0
   45.0590   30.3120   49.1320 F   0  0  0  0  0  0  0  0  0  0  0  0
   44.0420   32.0900   48.2900 F   0  0  0  0  0  0  0  0  0  0  0  0
   44.1069   35.3396   45.7742 H   0  0  0  0  0  0  0  0  0  0  0  0
   45.0948   35.7405   43.4802 H   0  0  0  0  0  0  0  0  0  0  0  0
   49.0268   31.5610   46.6977 H   0  0  0  0  0  0  0  0  0  0  0  0
   48.1633   31.2611   45.1523 H   0  0  0  0  0  0  0  0  0  0  0  0
   47.1540   29.3294   45.9411 H   0  0  0  0  0  0  0  0  0  0  0  0
   48.8592   29.2951   46.6348 H   0  0  0  0  0  0  0  0  0  0  0  0
   46.9301   30.5081   49.6757 H   0  0  0  0  0  0  0  0  0  0  0  0
   48.3484   31.1494   48.7615 H   0  0  0  0  0  0  0  0  0  0  0  0
   46.3683   32.7871   48.4751 H   0  0  0  0  0  0  0  0  0  0  0  0
   49.0867   35.3952   42.9081 H   0  0  0  0  0  0  0  0  0  0  0  0
   49.3094   35.2445   40.1920 H   0  0  0  0  0  0  0  0  0  0  0  0
   46.0948   33.6911   38.7104 H   0  0  0  0  0  0  0  0  0  0  0  0
   47.2676   32.3148   36.9088 H   0  0  0  0  0  0  0  0  0  0  0  0
   48.6899   33.0669   36.1380 H   0  0  0  0  0  0  0  0  0  0  0  0
  1  6  2  0
  2  1  1  0
  3  2  2  0
  3  4  1  0
  4  5  2  0
  5  6  1  0
  5  7  1  0
  7 12  1  0
  8  9  1  0
  8  7  1  0
  9 10  1  0
 10 11  1  0
 12 23  1  0
 12 11  1  0
 13  3  1  0
 14 13  2  0
 15 14  1  0
 16 15  2  0
 16 17  1  0
 17 13  1  0
 18 16  1  0
 19 20  2  0
 19 18  1  0
 21 19  1  0
 22 20  1  0
 23 26  1  0
 23 25  1  0
 24 23  1  0
  1 27  1  0
  2 28  1  0
  8 29  1  0
  8 30  1  0
  9 31  1  0
  9 32  1  0
 11 33  1  0
 11 34  1  0
 12 35  1  1
 14 36  1  0
 15 37  1  0
 18 38  1  0
 21 39  1  0
 21 40  1  0
M  ISO  8  27  14  28  14  29  13  30  13  31  13  32  13  33  13  34  13
M  ISO  3  35  13  36  14  37  14
M  END
>  <minimizedAffinity>  (1) 
-6.73545837

>  <minimizedRMSD>  (1) 
1.45144308

$$$$
