
     RDKit          3D

 20 21  0  0  0  0  0  0  0  0999 V2000
   45.1270   34.3220   45.4650 C   0  0  0  0  0  0  0  0  0  0  0  0
   45.5860   34.6300   44.1570 C   0  0  0  0  0  0  0  0  0  0  0  0
   46.7110   33.9640   43.6980 C   0  0  0  0  0  0  0  0  0  0  0  0
   47.3060   33.0630   44.5130 N   0  0  0  0  0  0  0  0  0  0  0  0
   46.8460   32.7880   45.7590 C   0  0  0  0  0  0  0  0  0  0  0  0
   45.7540   33.4220   46.2270 N   0  0  0  0  0  0  0  0  0  0  0  0
   47.1990   34.2630   42.3650 C   0  0  0  0  0  0  0  0  0  0  0  0
   48.2110   35.1580   42.0510 C   0  0  0  0  0  0  0  0  0  0  0  0
   48.3130   35.0960   40.6770 C   0  0  0  0  0  0  0  0  0  0  0  0
   47.3550   34.1630   40.2350 C   0  0  0  0  0  0  0  0  0  0  0  0
   46.7180   33.6980   41.2990 O   0  0  0  0  0  0  0  0  0  0  0  0
   44.8810   35.6370   43.3100 C   0  0  0  0  0  0  0  0  0  0  0  0
   45.7570   36.6940   43.0810 F   0  0  0  0  0  0  0  0  0  0  0  0
   43.7260   36.0470   43.9510 F   0  0  0  0  0  0  0  0  0  0  0  0
   44.5600   35.0640   42.0730 F   0  0  0  0  0  0  0  0  0  0  0  0
   44.2371   34.8350   45.8586 H   0  0  0  0  0  0  0  0  0  0  0  0
   47.3643   32.0480   46.3865 H   0  0  0  0  0  0  0  0  0  0  0  0
   48.8001   35.7781   42.7427 H   0  0  0  0  0  0  0  0  0  0  0  0
   49.0102   35.6669   40.0461 H   0  0  0  0  0  0  0  0  0  0  0  0
   47.1688   33.8720   39.1907 H   0  0  0  0  0  0  0  0  0  0  0  0
  1  6  2  0
  2  1  1  0
  3  2  2  0
  3  4  1  0
  4  5  2  0
  5  6  1  0
  7  3  1  0
  8  7  2  0
  9  8  1  0
 10  9  2  0
 10 11  1  0
 11  7  1  0
 12 14  1  0
 12  2  1  0
 13 12  1  0
 15 12  1  0
  1 16  1  0
  5 17  1  0
  8 18  1  0
  9 19  1  0
 10 20  1  0
M  ISO  5  16  14  17  14  18  14  19  14  20  14
M  END
>  <minimizedAffinity>  (1) 
-4.73245716

>  <minimizedRMSD>  (1) 
1.50106752

$$$$
