
     RDKit          3D

 47 49  0  0  1  0  0  0  0  0999 V2000
   46.8770   35.6240   42.4690 C   0  0  0  0  0  0  0  0  0  0  0  0
   47.8160   35.0780   41.5570 N   0  0  0  0  0  0  0  0  0  0  0  0
   49.1370   35.1750   42.1110 C   0  0  0  0  0  0  0  0  0  0  0  0
   49.9360   33.9500   42.2090 C   0  0  0  0  0  0  0  0  0  0  0  0
   49.0330   32.9260   42.5690 O   0  0  0  0  0  0  0  0  0  0  0  0
   48.3110   32.6740   41.4050 C   0  0  0  0  0  0  0  0  0  0  0  0
   47.5690   33.8870   40.8850 C   0  0  2  0  0  0  0  0  0  0  0  0
   48.0870   34.1120   39.4570 C   0  0  0  0  0  0  0  0  0  0  0  0
   45.5940   34.8900   42.6190 C   0  0  1  0  0  0  0  0  0  0  0  0
   44.6820   35.2380   44.9740 C   0  0  0  0  0  0  0  0  0  0  0  0
   45.4640   34.4980   44.0390 C   0  0  0  0  0  0  0  0  0  0  0  0
   46.1200   33.3690   44.5650 C   0  0  0  0  0  0  0  0  0  0  0  0
   45.9620   33.0820   45.8740 N   0  0  0  0  0  0  0  0  0  0  0  0
   45.2130   33.8080   46.7200 C   0  0  0  0  0  0  0  0  0  0  0  0
   44.5560   34.9190   46.2560 N   0  0  0  0  0  0  0  0  0  0  0  0
   44.3890   35.5800   42.1500 C   0  0  0  0  0  0  0  0  0  0  0  0
   43.3940   34.9490   41.4410 N   0  0  0  0  0  0  0  0  0  0  0  0
   43.5100   34.4030   40.1600 C   0  0  0  0  0  0  0  0  0  0  0  0
   42.2700   34.8950   39.3730 C   0  0  0  0  0  0  0  0  0  0  0  0
   41.2540   35.0460   40.4520 C   0  0  0  0  0  0  0  0  0  0  0  0
   42.0710   35.3890   41.6840 C   0  0  0  0  0  0  0  0  0  0  0  0
   46.6407   36.6448   42.1342 H   0  0  0  0  0  0  0  0  0  0  0  0
   47.3618   35.5669   43.4548 H   0  0  0  0  0  0  0  0  0  0  0  0
   49.7014   35.8841   41.4876 H   0  0  0  0  0  0  0  0  0  0  0  0
   48.9742   35.4799   43.1553 H   0  0  0  0  0  0  0  0  0  0  0  0
   50.4069   33.7220   41.2414 H   0  0  0  0  0  0  0  0  0  0  0  0
   50.7443   34.0534   42.9479 H   0  0  0  0  0  0  0  0  0  0  0  0
   49.0104   32.3329   40.6275 H   0  0  0  0  0  0  0  0  0  0  0  0
   47.5570   31.9110   41.6485 H   0  0  0  0  0  0  0  0  0  0  0  0
   46.4960   33.6709   40.9948 H   0  0  0  0  0  0  0  0  0  0  0  0
   49.0952   34.5499   39.4974 H   0  0  0  0  0  0  0  0  0  0  0  0
   48.1262   33.1498   38.9253 H   0  0  0  0  0  0  0  0  0  0  0  0
   47.4106   34.7974   38.9253 H   0  0  0  0  0  0  0  0  0  0  0  0
   45.6518   34.0199   41.9485 H   0  0  0  0  0  0  0  0  0  0  0  0
   44.1498   36.1291   44.6098 H   0  0  0  0  0  0  0  0  0  0  0  0
   46.7480   32.7343   43.9226 H   0  0  0  0  0  0  0  0  0  0  0  0
   45.1271   33.5140   47.7765 H   0  0  0  0  0  0  0  0  0  0  0  0
   43.9065   35.9923   43.0485 H   0  0  0  0  0  0  0  0  0  0  0  0
   44.8048   36.2584   41.3905 H   0  0  0  0  0  0  0  0  0  0  0  0
   44.4336   34.7544   39.6768 H   0  0  0  0  0  0  0  0  0  0  0  0
   43.5570   33.3045   40.1927 H   0  0  0  0  0  0  0  0  0  0  0  0
   42.4688   35.8553   38.8747 H   0  0  0  0  0  0  0  0  0  0  0  0
   41.9601   34.2149   38.5659 H   0  0  0  0  0  0  0  0  0  0  0  0
   40.5484   35.8555   40.2135 H   0  0  0  0  0  0  0  0  0  0  0  0
   40.6447   34.1403   40.5881 H   0  0  0  0  0  0  0  0  0  0  0  0
   41.6585   34.8760   42.5653 H   0  0  0  0  0  0  0  0  0  0  0  0
   42.0479   36.4710   41.8807 H   0  0  0  0  0  0  0  0  0  0  0  0
  1  9  1  0
  2  3  1  0
  2  1  1  0
  3  4  1  0
  4  5  1  0
  6  5  1  0
  7  6  1  0
  7  2  1  0
  8  7  1  0
  9 11  1  0
 10 15  2  0
 11 12  2  0
 11 10  1  0
 12 13  1  0
 13 14  2  0
 15 14  1  0
 16  9  1  0
 17 21  1  0
 17 16  1  0
 18 17  1  0
 19 18  1  0
 19 20  1  0
 20 21  1  0
  1 22  1  0
  1 23  1  0
  3 24  1  0
  3 25  1  0
  4 26  1  0
  4 27  1  0
  6 28  1  0
  6 29  1  0
  7 30  1  6
  8 31  1  0
  8 32  1  0
  8 33  1  0
  9 34  1  6
 10 35  1  0
 12 36  1  0
 14 37  1  0
 16 38  1  0
 16 39  1  0
 18 40  1  0
 18 41  1  0
 19 42  1  0
 19 43  1  0
 20 44  1  0
 20 45  1  0
 21 46  1  0
 21 47  1  0
M  ISO  8  22   8  23   8  24  13  25  13  26  13  27  13  28  13  29  13
M  ISO  8  30  13  31   8  32   8  33   8  34   8  35  14  36  14  37  14
M  ISO  8  38   8  39   8  40  13  41  13  42  13  43  13  44  13  45  13
M  ISO  2  46  13  47  13
M  END
>  <minimizedAffinity>  (1) 
-4.90196943

>  <minimizedRMSD>  (1) 
2.00056148

$$$$
