
     RDKit          3D

 25 27  0  0  0  0  0  0  0  0999 V2000
   45.2450   36.0980   43.1460 C   0  0  0  0  0  0  0  0  0  0  0  0
   45.8340   34.8140   42.9210 C   0  0  0  0  0  0  0  0  0  0  0  0
   45.7660   33.9280   43.9920 C   0  0  0  0  0  0  0  0  0  0  0  0
   45.1690   34.3020   45.1530 N   0  0  0  0  0  0  0  0  0  0  0  0
   44.6260   35.5390   45.3060 C   0  0  0  0  0  0  0  0  0  0  0  0
   44.6650   36.4260   44.3100 N   0  0  0  0  0  0  0  0  0  0  0  0
   46.3590   32.6110   43.8190 C   0  0  0  0  0  0  0  0  0  0  0  0
   47.6800   32.2620   44.0490 C   0  0  0  0  0  0  0  0  0  0  0  0
   47.7260   30.9120   43.7390 C   0  0  0  0  0  0  0  0  0  0  0  0
   46.4550   30.5160   43.3430 C   0  0  0  0  0  0  0  0  0  0  0  0
   45.6600   31.5890   43.4100 O   0  0  0  0  0  0  0  0  0  0  0  0
   46.4500   34.4770   41.6440 C   0  0  0  0  0  0  0  0  0  0  0  0
   47.7230   34.8050   41.2470 C   0  0  0  0  0  0  0  0  0  0  0  0
   48.1710   34.4320   40.0030 C   0  0  0  0  0  0  0  0  0  0  0  0
   47.3790   33.7450   39.1520 N   0  0  0  0  0  0  0  0  0  0  0  0
   46.1400   33.4340   39.5540 C   0  0  0  0  0  0  0  0  0  0  0  0
   45.6830   33.7790   40.7470 N   0  0  0  0  0  0  0  0  0  0  0  0
   45.2686   36.8422   42.3363 H   0  0  0  0  0  0  0  0  0  0  0  0
   44.1501   35.8111   46.2597 H   0  0  0  0  0  0  0  0  0  0  0  0
   48.5010   32.9063   44.3967 H   0  0  0  0  0  0  0  0  0  0  0  0
   48.6147   30.2663   43.7966 H   0  0  0  0  0  0  0  0  0  0  0  0
   46.1568   29.5042   43.0311 H   0  0  0  0  0  0  0  0  0  0  0  0
   48.3835   35.3660   41.9245 H   0  0  0  0  0  0  0  0  0  0  0  0
   49.1929   34.6977   39.6947 H   0  0  0  0  0  0  0  0  0  0  0  0
   45.4824   32.8750   38.8720 H   0  0  0  0  0  0  0  0  0  0  0  0
  1  6  2  0
  2  1  1  0
  2  3  2  0
  3  4  1  0
  4  5  2  0
  6  5  1  0
  7  3  1  0
  7  8  2  0
  9  8  1  0
 10 11  1  0
 10  9  2  0
 11  7  1  0
 12  2  1  0
 13 12  2  0
 14 13  1  0
 15 16  1  0
 15 14  2  0
 16 17  2  0
 17 12  1  0
  1 18  1  0
  5 19  1  0
  8 20  1  0
  9 21  1  0
 10 22  1  0
 13 23  1  0
 14 24  1  0
 16 25  1  0
M  ISO  8  18  14  19  14  20  14  21  14  22  14  23  14  24  14  25  14
M  END
>  <minimizedAffinity>  (1) 
-4.47340631

>  <minimizedRMSD>  (1) 
3.64502335

$$$$
