
     RDKit          3D

 40 42  0  0  1  0  0  0  0  0999 V2000
   47.0220   35.6130   42.5880 C   0  0  0  0  0  0  0  0  0  0  0  0
   47.9440   35.0960   41.6310 N   0  0  0  0  0  0  0  0  0  0  0  0
   49.2830   35.1520   42.1580 C   0  0  0  0  0  0  0  0  0  0  0  0
   50.0580   33.9010   42.1250 C   0  0  0  0  0  0  0  0  0  0  0  0
   49.1550   32.8790   42.4560 O   0  0  0  0  0  0  0  0  0  0  0  0
   48.4020   32.7240   41.2950 C   0  0  0  0  0  0  0  0  0  0  0  0
   47.6590   33.9720   40.8840 C   0  0  2  0  0  0  0  0  0  0  0  0
   48.1470   34.3100   39.4570 C   0  0  0  0  0  0  0  0  0  0  0  0
   45.7200   34.8380   42.7260 C   0  0  1  0  0  0  0  0  0  0  0  0
   44.8600   34.8940   45.1240 C   0  0  0  0  0  0  0  0  0  0  0  0
   45.6810   34.3190   44.0920 C   0  0  0  0  0  0  0  0  0  0  0  0
   46.4480   33.2240   44.4930 C   0  0  0  0  0  0  0  0  0  0  0  0
   46.3640   32.8000   45.7830 N   0  0  0  0  0  0  0  0  0  0  0  0
   45.5840   33.3670   46.7180 C   0  0  0  0  0  0  0  0  0  0  0  0
   44.8040   34.4520   46.3780 N   0  0  0  0  0  0  0  0  0  0  0  0
   44.5520   35.6560   42.4280 C   0  0  0  0  0  0  0  0  0  0  0  0
   43.6750   35.2230   41.3370 C   0  0  0  0  0  0  0  0  0  0  0  0
   42.3900   35.5290   41.0100 N   0  0  0  0  0  0  0  0  0  0  0  0
   42.0110   34.9090   39.9490 O   0  0  0  0  0  0  0  0  0  0  0  0
   43.0070   34.1870   39.5470 C   0  0  0  0  0  0  0  0  0  0  0  0
   44.0470   34.3530   40.3740 N   0  0  0  0  0  0  0  0  0  0  0  0
   46.7736   36.6443   42.2970 H   0  0  0  0  0  0  0  0  0  0  0  0
   47.5242   35.5372   43.5637 H   0  0  0  0  0  0  0  0  0  0  0  0
   49.8385   35.9039   41.5782 H   0  0  0  0  0  0  0  0  0  0  0  0
   49.1645   35.3912   43.2251 H   0  0  0  0  0  0  0  0  0  0  0  0
   50.4725   33.7343   41.1198 H   0  0  0  0  0  0  0  0  0  0  0  0
   50.9055   33.9329   42.8255 H   0  0  0  0  0  0  0  0  0  0  0  0
   49.0795   32.4376   40.4770 H   0  0  0  0  0  0  0  0  0  0  0  0
   47.6458   31.9526   41.5023 H   0  0  0  0  0  0  0  0  0  0  0  0
   46.5871   33.7535   40.9996 H   0  0  0  0  0  0  0  0  0  0  0  0
   49.0499   34.9354   39.5168 H   0  0  0  0  0  0  0  0  0  0  0  0
   48.3806   33.3792   38.9193 H   0  0  0  0  0  0  0  0  0  0  0  0
   47.3578   34.8559   38.9193 H   0  0  0  0  0  0  0  0  0  0  0  0
   45.6887   34.0178   41.9936 H   0  0  0  0  0  0  0  0  0  0  0  0
   44.2350   35.7593   44.8580 H   0  0  0  0  0  0  0  0  0  0  0  0
   47.1092   32.7125   43.7781 H   0  0  0  0  0  0  0  0  0  0  0  0
   45.5677   32.9701   47.7438 H   0  0  0  0  0  0  0  0  0  0  0  0
   43.9412   35.7010   43.3417 H   0  0  0  0  0  0  0  0  0  0  0  0
   44.9661   36.6160   42.0861 H   0  0  0  0  0  0  0  0  0  0  0  0
   43.0003   33.5358   38.6605 H   0  0  0  0  0  0  0  0  0  0  0  0
  1  9  1  0
  2  3  1  0
  2  1  1  0
  4  3  1  0
  4  5  1  0
  6  5  1  0
  7  6  1  0
  7  2  1  0
  8  7  1  0
  9 11  1  0
 10 15  2  0
 11 12  2  0
 11 10  1  0
 12 13  1  0
 13 14  2  0
 15 14  1  0
 16  9  1  0
 17 16  1  0
 18 17  2  0
 19 18  1  0
 20 19  1  0
 20 21  2  0
 21 17  1  0
  1 22  1  0
  1 23  1  0
  3 24  1  0
  3 25  1  0
  4 26  1  0
  4 27  1  0
  6 28  1  0
  6 29  1  0
  7 30  1  6
  8 31  1  0
  8 32  1  0
  8 33  1  0
  9 34  1  6
 10 35  1  0
 12 36  1  0
 14 37  1  0
 16 38  1  0
 16 39  1  0
 20 40  1  0
M  ISO  8  22   8  23   8  24  13  25  13  26  13  27  13  28  13  29  13
M  ISO  8  30  13  31   8  32   8  33   8  34   8  35  14  36  14  37  14
M  ISO  3  38   8  39   8  40  14
M  END
>  <minimizedAffinity>  (1) 
-4.87647486

>  <minimizedRMSD>  (1) 
2.13450623

$$$$
