
     RDKit          3D

 30 32  0  0  0  0  0  0  0  0999 V2000
   45.2600   33.3750   44.7260 C   0  0  0  0  0  0  0  0  0  0  0  0
   45.5460   33.5730   43.3550 C   0  0  0  0  0  0  0  0  0  0  0  0
   46.8280   33.2960   42.9120 C   0  0  0  0  0  0  0  0  0  0  0  0
   47.7300   32.8540   43.8080 N   0  0  0  0  0  0  0  0  0  0  0  0
   47.4450   32.6670   45.1220 C   0  0  0  0  0  0  0  0  0  0  0  0
   46.1930   32.9330   45.5730 N   0  0  0  0  0  0  0  0  0  0  0  0
   44.5040   34.0470   42.5010 N   0  0  0  0  0  0  0  0  0  0  0  0
   43.6540   33.2830   41.7890 C   0  0  0  0  0  0  0  0  0  0  0  0
   42.6950   33.8910   41.0040 C   0  0  0  0  0  0  0  0  0  0  0  0
   41.7590   33.0530   40.2190 C   0  0  0  0  0  0  0  0  0  0  0  0
   42.5800   35.2710   40.9260 C   0  0  0  0  0  0  0  0  0  0  0  0
   41.6690   35.7620   40.1790 O   0  0  0  0  0  0  0  0  0  0  0  0
   43.4570   36.0070   41.6600 N   0  0  0  0  0  0  0  0  0  0  0  0
   44.3800   35.3840   42.4150 C   0  0  0  0  0  0  0  0  0  0  0  0
   45.1310   36.2010   43.0460 O   0  0  0  0  0  0  0  0  0  0  0  0
   47.1390   33.4920   41.5130 C   0  0  0  0  0  0  0  0  0  0  0  0
   47.7450   34.6020   40.9480 C   0  0  0  0  0  0  0  0  0  0  0  0
   47.8160   34.2990   39.5990 C   0  0  0  0  0  0  0  0  0  0  0  0
   47.2560   33.0330   39.4170 C   0  0  0  0  0  0  0  0  0  0  0  0
   46.8600   32.5820   40.5960 O   0  0  0  0  0  0  0  0  0  0  0  0
   44.2488   33.5894   45.1021 H   0  0  0  0  0  0  0  0  0  0  0  0
   48.2199   32.3041   45.8132 H   0  0  0  0  0  0  0  0  0  0  0  0
   43.7231   32.1860   41.8324 H   0  0  0  0  0  0  0  0  0  0  0  0
   41.1179   32.4790   40.9042 H   0  0  0  0  0  0  0  0  0  0  0  0
   41.1330   33.6980   39.5849 H   0  0  0  0  0  0  0  0  0  0  0  0
   42.3311   32.3597   39.5849 H   0  0  0  0  0  0  0  0  0  0  0  0
   43.4148   37.0359   41.6380 H   0  0  0  0  0  0  0  0  0  0  0  0
   48.0906   35.5150   41.4549 H   0  0  0  0  0  0  0  0  0  0  0  0
   48.2380   34.9407   38.8115 H   0  0  0  0  0  0  0  0  0  0  0  0
   47.1605   32.5020   38.4584 H   0  0  0  0  0  0  0  0  0  0  0  0
  1  6  2  0
  2  1  1  0
  3  2  2  0
  3  4  1  0
  4  5  2  0
  5  6  1  0
  7  2  1  0
  8  7  1  0
  9  8  2  0
 10  9  1  0
 11  9  1  0
 11 13  1  0
 12 11  2  0
 13 14  1  0
 14  7  1  0
 14 15  2  0
 16  3  1  0
 17 16  2  0
 18 17  1  0
 19 18  2  0
 19 20  1  0
 20 16  1  0
  1 21  1  0
  5 22  1  0
  8 23  1  0
 10 24  1  0
 10 25  1  0
 10 26  1  0
 13 27  1  0
 17 28  1  0
 18 29  1  0
 19 30  1  0
M  ISO  8  21  14  22  14  23  14  24   8  25   8  26   8  27   9  28  14
M  ISO  2  29  14  30  14
M  END
>  <minimizedAffinity>  (1) 
-4.56138706

>  <minimizedRMSD>  (1) 
3.06257033

$$$$
