
     RDKit          3D

 25 27  0  0  0  0  0  0  0  0999 V2000
   45.2510   36.1170   43.1440 C   0  0  0  0  0  0  0  0  0  0  0  0
   45.8420   34.8370   42.9330 C   0  0  0  0  0  0  0  0  0  0  0  0
   45.7780   33.9300   43.9960 C   0  0  0  0  0  0  0  0  0  0  0  0
   45.1710   34.3080   45.1460 N   0  0  0  0  0  0  0  0  0  0  0  0
   44.6200   35.5330   45.3140 C   0  0  0  0  0  0  0  0  0  0  0  0
   44.6620   36.4320   44.3140 N   0  0  0  0  0  0  0  0  0  0  0  0
   46.3690   32.6170   43.8110 C   0  0  0  0  0  0  0  0  0  0  0  0
   47.6830   32.2820   44.0380 C   0  0  0  0  0  0  0  0  0  0  0  0
   47.7440   30.9330   43.7180 C   0  0  0  0  0  0  0  0  0  0  0  0
   46.4750   30.5340   43.3190 C   0  0  0  0  0  0  0  0  0  0  0  0
   45.6650   31.5930   43.3910 O   0  0  0  0  0  0  0  0  0  0  0  0
   46.4780   34.5130   41.6590 C   0  0  0  0  0  0  0  0  0  0  0  0
   47.7720   34.8020   41.2260 C   0  0  0  0  0  0  0  0  0  0  0  0
   48.1550   34.3900   39.9670 C   0  0  0  0  0  0  0  0  0  0  0  0
   47.3250   33.7190   39.1410 N   0  0  0  0  0  0  0  0  0  0  0  0
   46.0660   33.4480   39.5830 C   0  0  0  0  0  0  0  0  0  0  0  0
   45.6690   33.8350   40.7990 N   0  0  0  0  0  0  0  0  0  0  0  0
   45.2764   36.8623   42.3354 H   0  0  0  0  0  0  0  0  0  0  0  0
   44.1380   35.7933   46.2679 H   0  0  0  0  0  0  0  0  0  0  0  0
   48.4969   32.9322   44.3912 H   0  0  0  0  0  0  0  0  0  0  0  0
   48.6378   30.2940   43.7709 H   0  0  0  0  0  0  0  0  0  0  0  0
   46.1872   29.5216   42.9993 H   0  0  0  0  0  0  0  0  0  0  0  0
   48.4726   35.3473   41.8755 H   0  0  0  0  0  0  0  0  0  0  0  0
   49.1750   34.6167   39.6231 H   0  0  0  0  0  0  0  0  0  0  0  0
   45.3669   32.9037   38.9311 H   0  0  0  0  0  0  0  0  0  0  0  0
  1  6  2  0
  2  1  1  0
  2  3  2  0
  3  4  1  0
  4  5  2  0
  6  5  1  0
  7  3  1  0
  7  8  2  0
  9  8  1  0
 10 11  1  0
 10  9  2  0
 11  7  1  0
 12  2  1  0
 13 12  2  0
 14 13  1  0
 15 16  1  0
 15 14  2  0
 16 17  2  0
 17 12  1  0
  1 18  1  0
  5 19  1  0
  8 20  1  0
  9 21  1  0
 10 22  1  0
 13 23  1  0
 14 24  1  0
 16 25  1  0
M  ISO  8  18  14  19  14  20  14  21  14  22  14  23  14  24  14  25  14
M  END
>  <minimizedAffinity>  (1) 
-4.48173714

>  <minimizedRMSD>  (1) 
3.61031961

$$$$
