
     RDKit          3D

 31 34  0  0  0  0  0  0  0  0999 V2000
   45.0600   34.0500   44.4850 C   0  0  0  0  0  0  0  0  0  0  0  0
   45.4920   34.1250   43.1350 C   0  0  0  0  0  0  0  0  0  0  0  0
   46.7670   33.6790   42.8470 C   0  0  0  0  0  0  0  0  0  0  0  0
   47.5460   33.1920   43.8590 N   0  0  0  0  0  0  0  0  0  0  0  0
   47.0910   33.1380   45.1380 C   0  0  0  0  0  0  0  0  0  0  0  0
   45.8440   33.5710   45.4420 N   0  0  0  0  0  0  0  0  0  0  0  0
   44.5730   34.6560   42.1620 C   0  0  0  0  0  0  0  0  0  0  0  0
   44.2990   35.8940   41.5950 C   0  0  0  0  0  0  0  0  0  0  0  0
   43.2850   35.7730   40.7050 N   0  0  0  0  0  0  0  0  0  0  0  0
   42.8880   34.4730   40.6760 C   0  0  0  0  0  0  0  0  0  0  0  0
   41.8910   33.9130   39.9150 C   0  0  0  0  0  0  0  0  0  0  0  0
   41.6220   32.5770   40.0140 C   0  0  0  0  0  0  0  0  0  0  0  0
   42.3800   31.8410   40.8920 C   0  0  0  0  0  0  0  0  0  0  0  0
   43.3770   32.4110   41.6510 C   0  0  0  0  0  0  0  0  0  0  0  0
   43.6700   33.7690   41.5680 C   0  0  0  0  0  0  0  0  0  0  0  0
   47.2370   33.7420   41.4780 C   0  0  0  0  0  0  0  0  0  0  0  0
   47.9640   34.7820   40.9060 C   0  0  0  0  0  0  0  0  0  0  0  0
   48.1550   34.3480   39.5990 C   0  0  0  0  0  0  0  0  0  0  0  0
   47.5490   33.1030   39.4520 C   0  0  0  0  0  0  0  0  0  0  0  0
   47.0100   32.7830   40.6150 O   0  0  0  0  0  0  0  0  0  0  0  0
   44.0492   34.3980   44.7443 H   0  0  0  0  0  0  0  0  0  0  0  0
   47.7397   32.7399   45.9322 H   0  0  0  0  0  0  0  0  0  0  0  0
   44.8253   36.8302   41.8325 H   0  0  0  0  0  0  0  0  0  0  0  0
   42.8823   36.5375   40.1444 H   0  0  0  0  0  0  0  0  0  0  0  0
   41.3083   34.5409   39.2249 H   0  0  0  0  0  0  0  0  0  0  0  0
   40.8285   32.1085   39.4133 H   0  0  0  0  0  0  0  0  0  0  0  0
   42.1843   30.7631   40.9916 H   0  0  0  0  0  0  0  0  0  0  0  0
   43.9559   31.7780   42.3396 H   0  0  0  0  0  0  0  0  0  0  0  0
   48.3041   35.7179   41.3734 H   0  0  0  0  0  0  0  0  0  0  0  0
   48.6945   34.8964   38.8127 H   0  0  0  0  0  0  0  0  0  0  0  0
   47.5237   32.4964   38.5347 H   0  0  0  0  0  0  0  0  0  0  0  0
  1  6  2  0
  2  1  1  0
  3  2  2  0
  3  4  1  0
  4  5  2  0
  5  6  1  0
  7  2  1  0
  8  7  2  0
  9  8  1  0
 10  9  1  0
 10 15  2  0
 11 12  2  0
 11 10  1  0
 12 13  1  0
 13 14  2  0
 15 14  1  0
 15  7  1  0
 16  3  1  0
 17 16  2  0
 18 17  1  0
 19 18  2  0
 19 20  1  0
 20 16  1  0
  1 21  1  0
  5 22  1  0
  8 23  1  0
  9 24  1  0
 11 25  1  0
 12 26  1  0
 13 27  1  0
 14 28  1  0
 17 29  1  0
 18 30  1  0
 19 31  1  0
M  ISO  8  21  14  22  14  23  14  24   9  25  14  26  14  27  14  28  14
M  ISO  3  29  14  30  14  31  14
M  END
>  <minimizedAffinity>  (1) 
-4.41603136

>  <minimizedRMSD>  (1) 
2.69397664

$$$$
