
     RDKit          3D

 30 32  0  0  0  0  0  0  0  0999 V2000
   45.1070   34.1920   45.3700 C   0  0  0  0  0  0  0  0  0  0  0  0
   45.8930   34.0390   44.2010 C   0  0  0  0  0  0  0  0  0  0  0  0
   47.0360   33.2340   44.3310 C   0  0  0  0  0  0  0  0  0  0  0  0
   47.3360   32.6520   45.5270 N   0  0  0  0  0  0  0  0  0  0  0  0
   46.5350   32.8420   46.6140 C   0  0  0  0  0  0  0  0  0  0  0  0
   45.4210   33.6150   46.5240 N   0  0  0  0  0  0  0  0  0  0  0  0
   47.8800   33.0450   43.1440 C   0  0  0  0  0  0  0  0  0  0  0  0
   48.9250   33.8440   42.7600 C   0  0  0  0  0  0  0  0  0  0  0  0
   49.3810   33.2400   41.5920 C   0  0  0  0  0  0  0  0  0  0  0  0
   48.5860   32.1250   41.3490 C   0  0  0  0  0  0  0  0  0  0  0  0
   47.6890   32.0530   42.3250 O   0  0  0  0  0  0  0  0  0  0  0  0
   45.6210   34.6370   42.8900 C   0  0  0  0  0  0  0  0  0  0  0  0
   44.9630   35.9960   42.9440 C   0  0  0  0  0  0  0  0  0  0  0  0
   43.8670   35.9940   41.8970 C   0  0  0  0  0  0  0  0  0  0  0  0
   44.2910   34.8420   41.0080 C   0  0  0  0  0  0  0  0  0  0  0  0
   44.6520   33.8160   42.1020 C   0  0  0  0  0  0  0  0  0  0  0  0
   44.2007   34.8134   45.3195 H   0  0  0  0  0  0  0  0  0  0  0  0
   46.7927   32.3657   47.5715 H   0  0  0  0  0  0  0  0  0  0  0  0
   49.3110   34.7467   43.2561 H   0  0  0  0  0  0  0  0  0  0  0  0
   50.2214   33.5836   40.9710 H   0  0  0  0  0  0  0  0  0  0  0  0
   48.6828   31.4295   40.5023 H   0  0  0  0  0  0  0  0  0  0  0  0
   46.6231   34.7013   42.4409 H   0  0  0  0  0  0  0  0  0  0  0  0
   44.5333   36.1693   43.9417 H   0  0  0  0  0  0  0  0  0  0  0  0
   45.6928   36.7958   42.7498 H   0  0  0  0  0  0  0  0  0  0  0  0
   42.8813   35.8095   42.3491 H   0  0  0  0  0  0  0  0  0  0  0  0
   43.7568   36.9505   41.3651 H   0  0  0  0  0  0  0  0  0  0  0  0
   43.4687   34.4905   40.3676 H   0  0  0  0  0  0  0  0  0  0  0  0
   45.0913   35.0686   40.2882 H   0  0  0  0  0  0  0  0  0  0  0  0
   43.7755   33.5270   42.7005 H   0  0  0  0  0  0  0  0  0  0  0  0
   45.0389   32.8536   41.7358 H   0  0  0  0  0  0  0  0  0  0  0  0
  1  6  2  0
  2  3  2  0
  2  1  1  0
  3  4  1  0
  4  5  2  0
  6  5  1  0
  7  3  1  0
  8  7  2  0
  9  8  1  0
 10  9  2  0
 10 11  1  0
 11  7  1  0
 12 13  1  0
 12  2  1  0
 14 13  1  0
 15 14  1  0
 15 16  1  0
 16 12  1  0
  1 17  1  0
  5 18  1  0
  8 19  1  0
  9 20  1  0
 10 21  1  0
 12 22  1  0
 13 23  1  0
 13 24  1  0
 14 25  1  0
 14 26  1  0
 15 27  1  0
 15 28  1  0
 16 29  1  0
 16 30  1  0
M  ISO  8  17  14  18  14  19  14  20  14  21  14  22  13  23  13  24  13
M  ISO  6  25  13  26  13  27  13  28  13  29  13  30  13
M  END
>  <minimizedAffinity>  (1) 
-4.09487534

>  <minimizedRMSD>  (1) 
2.36145067

$$$$
