
     RDKit          3D

 24 26  0  0  0  0  0  0  0  0999 V2000
   45.6190   32.8360   47.1150 C   0  0  0  0  0  0  0  0  0  0  0  0
   45.9730   32.9990   45.7490 C   0  0  0  0  0  0  0  0  0  0  0  0
   46.9200   32.1290   45.2220 C   0  0  0  0  0  0  0  0  0  0  0  0
   47.4560   31.1780   46.0170 N   0  0  0  0  0  0  0  0  0  0  0  0
   47.0890   31.0550   47.3290 C   0  0  0  0  0  0  0  0  0  0  0  0
   46.1730   31.8870   47.8630 N   0  0  0  0  0  0  0  0  0  0  0  0
   47.3020   32.2710   43.8230 C   0  0  0  0  0  0  0  0  0  0  0  0
   48.2670   33.1370   43.3280 C   0  0  0  0  0  0  0  0  0  0  0  0
   48.2380   32.8800   41.9530 C   0  0  0  0  0  0  0  0  0  0  0  0
   47.2800   31.9000   41.7150 C   0  0  0  0  0  0  0  0  0  0  0  0
   46.7450   31.5680   42.8760 O   0  0  0  0  0  0  0  0  0  0  0  0
   45.3450   34.0500   44.9600 C   0  0  0  0  0  0  0  0  0  0  0  0
   44.9400   34.2560   43.6430 C   0  0  0  0  0  0  0  0  0  0  0  0
   44.4100   35.5090   43.5940 N   0  0  0  0  0  0  0  0  0  0  0  0
   44.4800   36.0630   44.8280 C   0  0  0  0  0  0  0  0  0  0  0  0
   45.0510   35.1700   45.6550 N   0  0  0  0  0  0  0  0  0  0  0  0
   44.8720   33.5081   47.5625 H   0  0  0  0  0  0  0  0  0  0  0  0
   47.5446   30.2716   47.9525 H   0  0  0  0  0  0  0  0  0  0  0  0
   48.8982   33.8490   43.8799 H   0  0  0  0  0  0  0  0  0  0  0  0
   48.8643   33.3684   41.1920 H   0  0  0  0  0  0  0  0  0  0  0  0
   47.0152   31.4770   40.7347 H   0  0  0  0  0  0  0  0  0  0  0  0
   45.0306   33.5462   42.8075 H   0  0  0  0  0  0  0  0  0  0  0  0
   44.1305   37.0685   45.1052 H   0  0  0  0  0  0  0  0  0  0  0  0
   45.2348   35.3165   46.6578 H   0  0  0  0  0  0  0  0  0  0  0  0
  1  6  2  0
  2  1  1  0
  3  2  2  0
  3  4  1  0
  4  5  2  0
  5  6  1  0
  7  3  1  0
  8  7  2  0
  9  8  1  0
 10  9  2  0
 10 11  1  0
 11  7  1  0
 12 16  1  0
 12  2  1  0
 13 12  2  0
 14 13  1  0
 14 15  2  0
 15 16  1  0
  1 17  1  0
  5 18  1  0
  8 19  1  0
  9 20  1  0
 10 21  1  0
 13 22  1  0
 15 23  1  0
 16 24  1  0
M  ISO  8  17  14  18  14  19  14  20  14  21  14  22  14  23  14  24   9
M  END
>  <minimizedAffinity>  (1) 
-4.06975746

>  <minimizedRMSD>  (1) 
3.69496846

$$$$
