
     RDKit          3D

 23 24  0  0  0  0  0  0  0  0999 V2000
   44.9940   34.6260   45.4230 C   0  0  0  0  0  0  0  0  0  0  0  0
   45.5180   34.8710   44.1300 C   0  0  0  0  0  0  0  0  0  0  0  0
   46.5980   34.0930   43.7090 C   0  0  0  0  0  0  0  0  0  0  0  0
   47.1010   33.1440   44.5390 N   0  0  0  0  0  0  0  0  0  0  0  0
   46.5620   32.9460   45.7760 C   0  0  0  0  0  0  0  0  0  0  0  0
   45.5140   33.6830   46.2160 N   0  0  0  0  0  0  0  0  0  0  0  0
   47.1420   34.3370   42.3830 C   0  0  0  0  0  0  0  0  0  0  0  0
   48.2610   35.1010   42.0790 C   0  0  0  0  0  0  0  0  0  0  0  0
   48.3670   35.0280   40.7150 C   0  0  0  0  0  0  0  0  0  0  0  0
   47.3220   34.2350   40.2570 C   0  0  0  0  0  0  0  0  0  0  0  0
   46.6040   33.8380   41.3050 O   0  0  0  0  0  0  0  0  0  0  0  0
   44.9770   35.8720   43.2720 C   0  0  0  0  0  0  0  0  0  0  0  0
   43.8990   35.6470   42.6990 O   0  0  0  0  0  0  0  0  0  0  0  0
   45.6180   37.0790   43.0620 O   0  0  0  0  0  0  0  0  0  0  0  0
   45.2840   38.1940   43.8500 C   0  0  0  0  0  0  0  0  0  0  0  0
   45.3970   39.3680   43.4530 O   0  0  0  0  0  0  0  0  0  0  0  0
   44.8000   37.9630   45.1500 O   0  0  0  0  0  0  0  0  0  0  0  0
   44.1427   35.2231   45.7819 H   0  0  0  0  0  0  0  0  0  0  0  0
   46.9874   32.1711   46.4306 H   0  0  0  0  0  0  0  0  0  0  0  0
   48.9157   35.6434   42.7770 H   0  0  0  0  0  0  0  0  0  0  0  0
   49.1383   35.5092   40.0957 H   0  0  0  0  0  0  0  0  0  0  0  0
   47.1220   33.9787   39.2061 H   0  0  0  0  0  0  0  0  0  0  0  0
   44.5559   38.7270   45.7303 H   0  0  0  0  0  0  0  0  0  0  0  0
  1  6  2  0
  2  1  1  0
  3  2  2  0
  3  4  1  0
  4  5  2  0
  5  6  1  0
  7  3  1  0
  8  7  2  0
  9  8  1  0
 10  9  2  0
 10 11  1  0
 11  7  1  0
 12  2  1  0
 13 12  2  0
 14 12  1  0
 14 15  1  0
 15 17  1  0
 16 15  2  0
  1 18  1  0
  5 19  1  0
  8 20  1  0
  9 21  1  0
 10 22  1  0
 17 23  1  0
M  ISO  6  18  14  19  14  20  14  21  14  22  14  23   3
M  END
>  <minimizedAffinity>  (1) 
-4.63647461

>  <minimizedRMSD>  (1) 
1.09778512

$$$$
