
     RDKit          3D

 24 25  0  0  0  0  0  0  0  0999 V2000
   45.0850   34.4540   45.5320 C   0  0  0  0  0  0  0  0  0  0  0  0
   45.5890   34.7310   44.2320 C   0  0  0  0  0  0  0  0  0  0  0  0
   46.6580   33.9900   43.7730 C   0  0  0  0  0  0  0  0  0  0  0  0
   47.1870   33.0310   44.5690 N   0  0  0  0  0  0  0  0  0  0  0  0
   46.6880   32.7850   45.8100 C   0  0  0  0  0  0  0  0  0  0  0  0
   45.6410   33.4950   46.2850 N   0  0  0  0  0  0  0  0  0  0  0  0
   47.1720   34.2720   42.4470 C   0  0  0  0  0  0  0  0  0  0  0  0
   48.3080   35.0140   42.1470 C   0  0  0  0  0  0  0  0  0  0  0  0
   48.3600   34.9860   40.7620 C   0  0  0  0  0  0  0  0  0  0  0  0
   47.2810   34.2490   40.3070 C   0  0  0  0  0  0  0  0  0  0  0  0
   46.5990   33.8440   41.3630 O   0  0  0  0  0  0  0  0  0  0  0  0
   45.0020   35.7590   43.4100 C   0  0  0  0  0  0  0  0  0  0  0  0
   43.8680   35.5710   42.9560 O   0  0  0  0  0  0  0  0  0  0  0  0
   45.6660   36.9320   43.1240 O   0  0  0  0  0  0  0  0  0  0  0  0
   45.2940   38.0770   43.8150 C   0  0  0  0  0  0  0  0  0  0  0  0
   44.7560   37.8970   45.1170 N   0  0  0  0  0  0  0  0  0  0  0  0
   45.3950   39.2530   43.3800 O   0  0  0  0  0  0  0  0  0  0  0  0
   44.2333   35.0304   45.9223 H   0  0  0  0  0  0  0  0  0  0  0  0
   47.1413   32.0002   46.4334 H   0  0  0  0  0  0  0  0  0  0  0  0
   49.0019   35.5070   42.8438 H   0  0  0  0  0  0  0  0  0  0  0  0
   49.1254   35.4659   40.1344 H   0  0  0  0  0  0  0  0  0  0  0  0
   47.0355   34.0384   39.2556 H   0  0  0  0  0  0  0  0  0  0  0  0
   44.4646   38.7147   45.6714 H   0  0  0  0  0  0  0  0  0  0  0  0
   44.6572   36.9488   45.5069 H   0  0  0  0  0  0  0  0  0  0  0  0
  1  6  2  0
  2  1  1  0
  3  2  2  0
  3  4  1  0
  4  5  2  0
  5  6  1  0
  7  3  1  0
  8  7  2  0
  9  8  1  0
 10  9  2  0
 10 11  1  0
 11  7  1  0
 12  2  1  0
 13 12  2  0
 14 12  1  0
 14 15  1  0
 15 16  1  0
 17 15  2  0
  1 18  1  0
  5 19  1  0
  8 20  1  0
  9 21  1  0
 10 22  1  0
 16 23  1  0
 16 24  1  0
M  ISO  5  18  14  19  14  20  14  21  14  22  14
M  END
>  <minimizedAffinity>  (1) 
-4.36842203

>  <minimizedRMSD>  (1) 
1.10119843

$$$$
