
     RDKit          3D

 26 27  0  0  0  0  0  0  0  0999 V2000
   44.9620   34.7350   45.5260 C   0  0  0  0  0  0  0  0  0  0  0  0
   45.5190   34.9570   44.2390 C   0  0  0  0  0  0  0  0  0  0  0  0
   46.5360   34.1030   43.8020 C   0  0  0  0  0  0  0  0  0  0  0  0
   46.9450   33.1050   44.6220 N   0  0  0  0  0  0  0  0  0  0  0  0
   46.3900   32.9190   45.8520 C   0  0  0  0  0  0  0  0  0  0  0  0
   45.4090   33.7280   46.2950 N   0  0  0  0  0  0  0  0  0  0  0  0
   47.1020   34.3290   42.4930 C   0  0  0  0  0  0  0  0  0  0  0  0
   48.2740   34.9900   42.1870 C   0  0  0  0  0  0  0  0  0  0  0  0
   48.3740   34.9390   40.8320 C   0  0  0  0  0  0  0  0  0  0  0  0
   47.2710   34.2560   40.3620 C   0  0  0  0  0  0  0  0  0  0  0  0
   46.5350   33.9090   41.4030 O   0  0  0  0  0  0  0  0  0  0  0  0
   45.0630   36.0200   43.3990 C   0  0  0  0  0  0  0  0  0  0  0  0
   43.9610   35.9010   42.8320 O   0  0  0  0  0  0  0  0  0  0  0  0
   45.8210   37.1640   43.2100 O   0  0  0  0  0  0  0  0  0  0  0  0
   45.3090   38.4080   43.5990 C   0  0  0  0  0  0  0  0  0  0  0  0
   45.0990   39.3370   42.7870 O   0  0  0  0  0  0  0  0  0  0  0  0
   45.0240   38.6060   44.9510 O   0  0  0  0  0  0  0  0  0  0  0  0
   45.2740   39.8590   45.5640 C   0  0  0  0  0  0  0  0  0  0  0  0
   46.6620   40.0240   45.4970 F   0  0  0  0  0  0  0  0  0  0  0  0
   44.9590   39.7960   46.9160 F   0  0  0  0  0  0  0  0  0  0  0  0
   44.6420   40.9100   44.9390 F   0  0  0  0  0  0  0  0  0  0  0  0
   44.1601   35.3910   45.8955 H   0  0  0  0  0  0  0  0  0  0  0  0
   46.7475   32.0981   46.4910 H   0  0  0  0  0  0  0  0  0  0  0  0
   48.9781   35.4588   42.8902 H   0  0  0  0  0  0  0  0  0  0  0  0
   49.1851   35.3641   40.2225 H   0  0  0  0  0  0  0  0  0  0  0  0
   47.0446   34.0389   39.3077 H   0  0  0  0  0  0  0  0  0  0  0  0
  1  6  2  0
  2  1  1  0
  3  2  2  0
  3  4  1  0
  4  5  2  0
  5  6  1  0
  7  3  1  0
  8  7  2  0
  9  8  1  0
 10  9  2  0
 10 11  1  0
 11  7  1  0
 12  2  1  0
 13 12  2  0
 14 12  1  0
 14 15  1  0
 15 17  1  0
 16 15  2  0
 17 18  1  0
 18 20  1  0
 19 18  1  0
 21 18  1  0
  1 22  1  0
  5 23  1  0
  8 24  1  0
  9 25  1  0
 10 26  1  0
M  ISO  5  22  14  23  14  24  14  25  14  26  14
M  END
>  <minimizedAffinity>  (1) 
-4.46515322

>  <minimizedRMSD>  (1) 
0.80665642

$$$$
