
     RDKit          3D

 30 32  0  0  0  0  0  0  0  0999 V2000
   44.6730   35.3380   45.4120 C   0  0  0  0  0  0  0  0  0  0  0  0
   45.3320   35.4160   44.1620 C   0  0  0  0  0  0  0  0  0  0  0  0
   46.2200   34.4050   43.8130 C   0  0  0  0  0  0  0  0  0  0  0  0
   46.4190   33.3820   44.6920 N   0  0  0  0  0  0  0  0  0  0  0  0
   45.7670   33.3480   45.8790 C   0  0  0  0  0  0  0  0  0  0  0  0
   44.9000   34.3170   46.2420 N   0  0  0  0  0  0  0  0  0  0  0  0
   46.8950   34.4860   42.5280 C   0  0  0  0  0  0  0  0  0  0  0  0
   48.1630   34.9930   42.2980 C   0  0  0  0  0  0  0  0  0  0  0  0
   48.3410   34.8510   40.9470 C   0  0  0  0  0  0  0  0  0  0  0  0
   47.1950   34.2770   40.4330 C   0  0  0  0  0  0  0  0  0  0  0  0
   46.3500   34.0770   41.4300 O   0  0  0  0  0  0  0  0  0  0  0  0
   45.0990   36.5070   43.2600 C   0  0  0  0  0  0  0  0  0  0  0  0
   44.1170   36.4470   42.4880 O   0  0  0  0  0  0  0  0  0  0  0  0
   45.9370   37.6110   43.2360 O   0  0  0  0  0  0  0  0  0  0  0  0
   45.4620   38.8540   43.6760 C   0  0  0  0  0  0  0  0  0  0  0  0
   45.2420   39.8100   42.9160 O   0  0  0  0  0  0  0  0  0  0  0  0
   45.2240   39.0140   45.0550 O   0  0  0  0  0  0  0  0  0  0  0  0
   44.8480   40.2340   45.5990 C   0  0  0  0  0  0  0  0  0  0  0  0
   44.8100   40.6540   46.9110 C   0  0  0  0  0  0  0  0  0  0  0  0
   44.3710   41.9230   46.8980 N   0  0  0  0  0  0  0  0  0  0  0  0
   44.1480   42.2590   45.6020 C   0  0  0  0  0  0  0  0  0  0  0  0
   44.4400   41.2190   44.7700 N   0  0  0  0  0  0  0  0  0  0  0  0
   43.9652   36.1280   45.7033 H   0  0  0  0  0  0  0  0  0  0  0  0
   45.9490   32.5081   46.5656 H   0  0  0  0  0  0  0  0  0  0  0  0
   48.8662   35.4134   43.0319 H   0  0  0  0  0  0  0  0  0  0  0  0
   49.2348   35.1415   40.3754 H   0  0  0  0  0  0  0  0  0  0  0  0
   47.0160   34.0290   39.3764 H   0  0  0  0  0  0  0  0  0  0  0  0
   45.0859   40.0639   47.7974 H   0  0  0  0  0  0  0  0  0  0  0  0
   43.7804   43.2402   45.2673 H   0  0  0  0  0  0  0  0  0  0  0  0
   44.3662   41.1910   43.7430 H   0  0  0  0  0  0  0  0  0  0  0  0
  1  6  2  0
  2  1  1  0
  3  2  2  0
  3  4  1  0
  4  5  2  0
  5  6  1  0
  7  3  1  0
  8  7  2  0
  9  8  1  0
 10  9  2  0
 10 11  1  0
 11  7  1  0
 12  2  1  0
 13 12  2  0
 14 12  1  0
 14 15  1  0
 15 17  1  0
 16 15  2  0
 17 18  1  0
 18 19  2  0
 20 19  1  0
 21 20  2  0
 22 18  1  0
 22 21  1  0
  1 23  1  0
  5 24  1  0
  8 25  1  0
  9 26  1  0
 10 27  1  0
 19 28  1  0
 21 29  1  0
 22 30  1  0
M  ISO  8  23  14  24  14  25  14  26  14  27  14  28  14  29  14  30   9
M  END
>  <minimizedAffinity>  (1) 
-4.65485096

>  <minimizedRMSD>  (1) 
0.998824537

$$$$
