
     RDKit          3D

 37 40  0  0  0  0  0  0  0  0999 V2000
   45.2760   33.9720   44.5030 C   0  0  0  0  0  0  0  0  0  0  0  0
   45.3460   32.7100   43.8830 C   0  0  0  0  0  0  0  0  0  0  0  0
   45.7640   31.6210   44.6510 C   0  0  0  0  0  0  0  0  0  0  0  0
   46.0850   31.8180   45.9560 N   0  0  0  0  0  0  0  0  0  0  0  0
   46.0020   33.0670   46.5170 C   0  0  0  0  0  0  0  0  0  0  0  0
   45.6010   34.1330   45.7940 N   0  0  0  0  0  0  0  0  0  0  0  0
   45.8370   30.3220   44.0170 C   0  0  0  0  0  0  0  0  0  0  0  0
   46.9860   29.7170   43.5040 C   0  0  0  0  0  0  0  0  0  0  0  0
   46.5600   28.5170   43.0150 C   0  0  0  0  0  0  0  0  0  0  0  0
   45.1990   28.4440   43.2440 C   0  0  0  0  0  0  0  0  0  0  0  0
   44.7910   29.5570   43.8550 O   0  0  0  0  0  0  0  0  0  0  0  0
   45.0030   32.5200   42.5070 C   0  0  0  0  0  0  0  0  0  0  0  0
   43.8040   32.4570   42.2050 O   0  0  0  0  0  0  0  0  0  0  0  0
   45.9720   32.4090   41.5190 O   0  0  0  0  0  0  0  0  0  0  0  0
   46.0390   33.3850   40.5100 C   0  0  0  0  0  0  0  0  0  0  0  0
   45.4280   33.3000   39.4370 O   0  0  0  0  0  0  0  0  0  0  0  0
   46.8430   34.5200   40.7350 O   0  0  0  0  0  0  0  0  0  0  0  0
   48.0100   34.3070   41.4680 C   0  0  0  0  0  0  0  0  0  0  0  0
   48.4040   34.9230   42.6280 C   0  0  0  0  0  0  0  0  0  0  0  0
   49.6070   34.4500   43.0460 N   0  0  0  0  0  0  0  0  0  0  0  0
   50.0040   33.5200   42.1570 C   0  0  0  0  0  0  0  0  0  0  0  0
   51.1550   32.7530   42.1420 C   0  0  0  0  0  0  0  0  0  0  0  0
   51.3560   31.8450   41.1120 C   0  0  0  0  0  0  0  0  0  0  0  0
   50.3840   31.7370   40.1240 C   0  0  0  0  0  0  0  0  0  0  0  0
   49.2280   32.5050   40.1350 C   0  0  0  0  0  0  0  0  0  0  0  0
   49.0400   33.4130   41.1760 C   0  0  0  0  0  0  0  0  0  0  0  0
   44.9482   34.8432   43.9169 H   0  0  0  0  0  0  0  0  0  0  0  0
   46.2673   33.2019   47.5760 H   0  0  0  0  0  0  0  0  0  0  0  0
   48.0097   30.1195   43.4959 H   0  0  0  0  0  0  0  0  0  0  0  0
   47.1828   27.7512   42.5295 H   0  0  0  0  0  0  0  0  0  0  0  0
   44.5524   27.5988   42.9654 H   0  0  0  0  0  0  0  0  0  0  0  0
   47.8232   35.6973   43.1507 H   0  0  0  0  0  0  0  0  0  0  0  0
   50.1206   34.7479   43.8877 H   0  0  0  0  0  0  0  0  0  0  0  0
   51.9046   32.8619   42.9397 H   0  0  0  0  0  0  0  0  0  0  0  0
   52.2638   31.2248   41.0781 H   0  0  0  0  0  0  0  0  0  0  0  0
   50.5363   31.0182   39.3054 H   0  0  0  0  0  0  0  0  0  0  0  0
   48.4760   32.3995   39.3391 H   0  0  0  0  0  0  0  0  0  0  0  0
  1  6  2  0
  2  1  1  0
  2  3  2  0
  3  4  1  0
  4  5  2  0
  6  5  1  0
  7  3  1  0
  8  7  2  0
  9 10  2  0
  9  8  1  0
 10 11  1  0
 11  7  1  0
 12  2  1  0
 13 12  2  0
 14 12  1  0
 15 17  1  0
 15 14  1  0
 16 15  2  0
 17 18  1  0
 18 19  2  0
 19 20  1  0
 21 20  1  0
 22 21  2  0
 23 22  1  0
 24 25  1  0
 24 23  2  0
 25 26  2  0
 26 18  1  0
 26 21  1  0
  1 27  1  0
  5 28  1  0
  8 29  1  0
  9 30  1  0
 10 31  1  0
 19 32  1  0
 20 33  1  0
 22 34  1  0
 23 35  1  0
 24 36  1  0
 25 37  1  0
M  ISO  8  27  14  28  14  29  14  30  14  31  14  32  14  33   9  34  14
M  ISO  3  35  14  36  14  37  14
M  END
>  <minimizedAffinity>  (1) 
-4.4700799

>  <minimizedRMSD>  (1) 
7.4905467

$$$$
