
     RDKit          3D

 30 32  0  0  0  0  0  0  0  0999 V2000
   44.6360   35.4060   45.3800 C   0  0  0  0  0  0  0  0  0  0  0  0
   45.2970   35.4800   44.1380 C   0  0  0  0  0  0  0  0  0  0  0  0
   46.1940   34.4640   43.8190 C   0  0  0  0  0  0  0  0  0  0  0  0
   46.4000   33.4540   44.6930 N   0  0  0  0  0  0  0  0  0  0  0  0
   45.7400   33.4200   45.8840 C   0  0  0  0  0  0  0  0  0  0  0  0
   44.8650   34.3890   46.2240 N   0  0  0  0  0  0  0  0  0  0  0  0
   46.8850   34.5340   42.5310 C   0  0  0  0  0  0  0  0  0  0  0  0
   48.1460   35.0460   42.2970 C   0  0  0  0  0  0  0  0  0  0  0  0
   48.3440   34.8880   40.9550 C   0  0  0  0  0  0  0  0  0  0  0  0
   47.1990   34.2890   40.4290 C   0  0  0  0  0  0  0  0  0  0  0  0
   46.3530   34.0980   41.4250 O   0  0  0  0  0  0  0  0  0  0  0  0
   45.0720   36.5510   43.2200 C   0  0  0  0  0  0  0  0  0  0  0  0
   44.1150   36.4810   42.4380 O   0  0  0  0  0  0  0  0  0  0  0  0
   45.8720   37.6650   43.1590 O   0  0  0  0  0  0  0  0  0  0  0  0
   45.4530   38.8740   43.7550 C   0  0  0  0  0  0  0  0  0  0  0  0
   45.2500   39.9150   43.1140 O   0  0  0  0  0  0  0  0  0  0  0  0
   45.2610   38.8840   45.1420 O   0  0  0  0  0  0  0  0  0  0  0  0
   44.9150   40.0830   45.7580 C   0  0  0  0  0  0  0  0  0  0  0  0
   44.6330   41.1940   44.9890 C   0  0  0  0  0  0  0  0  0  0  0  0
   44.3240   42.2350   45.8720 C   0  0  0  0  0  0  0  0  0  0  0  0
   44.4300   41.7160   47.1300 N   0  0  0  0  0  0  0  0  0  0  0  0
   44.7850   40.4260   47.0530 N   0  0  0  0  0  0  0  0  0  0  0  0
   43.9217   36.1937   45.6616 H   0  0  0  0  0  0  0  0  0  0  0  0
   45.9235   32.5885   46.5804 H   0  0  0  0  0  0  0  0  0  0  0  0
   48.8387   35.4847   43.0303 H   0  0  0  0  0  0  0  0  0  0  0  0
   49.2425   35.1798   40.3915 H   0  0  0  0  0  0  0  0  0  0  0  0
   47.0311   34.0236   39.3748 H   0  0  0  0  0  0  0  0  0  0  0  0
   44.6482   41.2505   43.8906 H   0  0  0  0  0  0  0  0  0  0  0  0
   44.0501   43.2664   45.6052 H   0  0  0  0  0  0  0  0  0  0  0  0
   44.2630   42.2356   48.0035 H   0  0  0  0  0  0  0  0  0  0  0  0
  1  6  2  0
  2  1  1  0
  3  2  2  0
  3  4  1  0
  4  5  2  0
  5  6  1  0
  7  3  1  0
  8  7  2  0
  9  8  1  0
 10  9  2  0
 10 11  1  0
 11  7  1  0
 12  2  1  0
 13 12  2  0
 14 12  1  0
 14 15  1  0
 15 17  1  0
 16 15  2  0
 17 18  1  0
 18 22  2  0
 19 18  1  0
 19 20  2  0
 20 21  1  0
 22 21  1  0
  1 23  1  0
  5 24  1  0
  8 25  1  0
  9 26  1  0
 10 27  1  0
 19 28  1  0
 20 29  1  0
 21 30  1  0
M  ISO  8  23  14  24  14  25  14  26  14  27  14  28  14  29  14  30   9
M  END
>  <minimizedAffinity>  (1) 
-4.78234529

>  <minimizedRMSD>  (1) 
0.900948644

$$$$
