
     RDKit          3D

 42 44  0  0  1  0  0  0  0  0999 V2000
   47.0340   35.6240   42.6010 C   0  0  0  0  0  0  0  0  0  0  0  0
   47.9460   35.1120   41.6360 N   0  0  0  0  0  0  0  0  0  0  0  0
   49.2850   35.1540   42.1460 C   0  0  0  0  0  0  0  0  0  0  0  0
   50.0530   33.9030   42.1210 C   0  0  0  0  0  0  0  0  0  0  0  0
   49.1420   32.8840   42.4560 O   0  0  0  0  0  0  0  0  0  0  0  0
   48.3830   32.7260   41.3030 C   0  0  0  0  0  0  0  0  0  0  0  0
   47.6450   33.9790   40.8890 C   0  0  2  0  0  0  0  0  0  0  0  0
   48.1340   34.3020   39.4600 C   0  0  0  0  0  0  0  0  0  0  0  0
   45.7190   34.8700   42.7240 C   0  0  1  0  0  0  0  0  0  0  0  0
   44.8530   34.9150   45.1330 C   0  0  0  0  0  0  0  0  0  0  0  0
   45.6690   34.3350   44.1010 C   0  0  0  0  0  0  0  0  0  0  0  0
   46.4340   33.2270   44.4660 C   0  0  0  0  0  0  0  0  0  0  0  0
   46.3510   32.7870   45.7500 N   0  0  0  0  0  0  0  0  0  0  0  0
   45.5820   33.3450   46.6960 C   0  0  0  0  0  0  0  0  0  0  0  0
   44.8090   34.4420   46.3780 N   0  0  0  0  0  0  0  0  0  0  0  0
   44.5600   35.7220   42.4340 C   0  0  0  0  0  0  0  0  0  0  0  0
   43.5950   35.2320   41.5040 N   0  0  0  0  0  0  0  0  0  0  0  0
   43.9520   34.3420   40.5310 C   0  0  0  0  0  0  0  0  0  0  0  0
   42.8770   34.0170   39.7660 C   0  0  0  0  0  0  0  0  0  0  0  0
   41.8290   34.7050   40.2570 N   0  0  0  0  0  0  0  0  0  0  0  0
   42.2800   35.4230   41.2920 C   0  0  0  0  0  0  0  0  0  0  0  0
   46.8037   36.6651   42.3307 H   0  0  0  0  0  0  0  0  0  0  0  0
   47.5345   35.5190   43.5749 H   0  0  0  0  0  0  0  0  0  0  0  0
   49.8413   35.8955   41.5538 H   0  0  0  0  0  0  0  0  0  0  0  0
   49.1740   35.3968   43.2131 H   0  0  0  0  0  0  0  0  0  0  0  0
   50.4691   33.7295   41.1176 H   0  0  0  0  0  0  0  0  0  0  0  0
   50.8993   33.9347   42.8230 H   0  0  0  0  0  0  0  0  0  0  0  0
   49.0536   32.4301   40.4828 H   0  0  0  0  0  0  0  0  0  0  0  0
   47.6235   31.9601   41.5186 H   0  0  0  0  0  0  0  0  0  0  0  0
   46.5711   33.7734   41.0089 H   0  0  0  0  0  0  0  0  0  0  0  0
   49.0507   34.9075   39.5143 H   0  0  0  0  0  0  0  0  0  0  0  0
   48.3448   33.3648   38.9240 H   0  0  0  0  0  0  0  0  0  0  0  0
   47.3548   34.8637   38.9240 H   0  0  0  0  0  0  0  0  0  0  0  0
   45.6724   34.0588   41.9825 H   0  0  0  0  0  0  0  0  0  0  0  0
   44.2359   35.7906   44.8830 H   0  0  0  0  0  0  0  0  0  0  0  0
   47.0855   32.7238   43.7363 H   0  0  0  0  0  0  0  0  0  0  0  0
   45.5678   32.9320   47.7154 H   0  0  0  0  0  0  0  0  0  0  0  0
   44.0380   35.9022   43.3853 H   0  0  0  0  0  0  0  0  0  0  0  0
   44.9840   36.6150   41.9515 H   0  0  0  0  0  0  0  0  0  0  0  0
   44.9674   33.9442   40.3870 H   0  0  0  0  0  0  0  0  0  0  0  0
   42.8653   33.3254   38.9107 H   0  0  0  0  0  0  0  0  0  0  0  0
   41.6501   36.0907   41.8981 H   0  0  0  0  0  0  0  0  0  0  0  0
  1  9  1  0
  2  3  1  0
  2  1  1  0
  4  3  1  0
  4  5  1  0
  6  5  1  0
  7  6  1  0
  7  2  1  0
  8  7  1  0
  9 11  1  0
 10 15  2  0
 11 12  2  0
 11 10  1  0
 12 13  1  0
 13 14  2  0
 15 14  1  0
 16  9  1  0
 17 16  1  0
 18 17  1  0
 19 20  1  0
 19 18  2  0
 20 21  2  0
 21 17  1  0
  1 22  1  0
  1 23  1  0
  3 24  1  0
  3 25  1  0
  4 26  1  0
  4 27  1  0
  6 28  1  0
  6 29  1  0
  7 30  1  6
  8 31  1  0
  8 32  1  0
  8 33  1  0
  9 34  1  6
 10 35  1  0
 12 36  1  0
 14 37  1  0
 16 38  1  0
 16 39  1  0
 18 40  1  0
 19 41  1  0
 21 42  1  0
M  ISO  8  22   8  23   8  24  13  25  13  26  13  27  13  28  13  29  13
M  ISO  8  30  13  31   8  32   8  33   8  34   8  35  14  36  14  37  14
M  ISO  5  38   8  39   8  40  14  41  14  42  14
M  END
>  <minimizedAffinity>  (1) 
-4.77219963

>  <minimizedRMSD>  (1) 
1.56968999

$$$$
