
     RDKit          3D

 32 34  0  0  0  0  0  0  0  0999 V2000
   45.9930   32.6980   44.2010 C   0  0  0  0  0  0  0  0  0  0  0  0
   45.3290   33.5750   43.3220 C   0  0  0  0  0  0  0  0  0  0  0  0
   44.3280   33.0420   42.4890 C   0  0  0  0  0  0  0  0  0  0  0  0
   44.0400   31.7230   42.5590 N   0  0  0  0  0  0  0  0  0  0  0  0
   44.7110   30.9010   43.4310 C   0  0  0  0  0  0  0  0  0  0  0  0
   45.6810   31.3940   44.2440 N   0  0  0  0  0  0  0  0  0  0  0  0
   43.6400   33.9420   41.5810 C   0  0  0  0  0  0  0  0  0  0  0  0
   43.8550   34.0790   40.2220 C   0  0  0  0  0  0  0  0  0  0  0  0
   42.9760   35.0380   39.8070 C   0  0  0  0  0  0  0  0  0  0  0  0
   42.2720   35.4390   40.9140 C   0  0  0  0  0  0  0  0  0  0  0  0
   42.7000   34.7510   41.9820 O   0  0  0  0  0  0  0  0  0  0  0  0
   45.6400   34.9600   43.2540 C   0  0  0  0  0  0  0  0  0  0  0  0
   45.0090   35.7440   43.9760 O   0  0  0  0  0  0  0  0  0  0  0  0
   46.6180   35.4730   42.4180 O   0  0  0  0  0  0  0  0  0  0  0  0
   47.3500   34.5990   41.6160 C   0  0  0  0  0  0  0  0  0  0  0  0
   47.1570   34.4590   40.3830 O   0  0  0  0  0  0  0  0  0  0  0  0
   48.3720   33.8210   42.2150 O   0  0  0  0  0  0  0  0  0  0  0  0
   48.7420   32.6950   41.5120 C   0  0  0  0  0  0  0  0  0  0  0  0
   47.8590   31.6550   41.3500 C   0  0  0  0  0  0  0  0  0  0  0  0
   48.8720   30.4130   40.3290 S   0  0  0  0  0  0  0  0  0  0  0  0
   50.3340   31.6400   40.3520 C   0  0  0  0  0  0  0  0  0  0  0  0
   49.9010   32.4950   40.9480 N   0  0  0  0  0  0  0  0  0  0  0  0
   51.6850   31.3950   39.6910 C   0  0  0  0  0  0  0  0  0  0  0  0
   52.6390   31.9330   40.5330 F   0  0  0  0  0  0  0  0  0  0  0  0
   51.7320   31.9260   38.4300 F   0  0  0  0  0  0  0  0  0  0  0  0
   51.8350   30.0360   39.7460 F   0  0  0  0  0  0  0  0  0  0  0  0
   46.7801   33.0883   44.8629 H   0  0  0  0  0  0  0  0  0  0  0  0
   44.4599   29.8308   43.4715 H   0  0  0  0  0  0  0  0  0  0  0  0
   44.5817   33.5305   39.6047 H   0  0  0  0  0  0  0  0  0  0  0  0
   42.8555   35.4166   38.7813 H   0  0  0  0  0  0  0  0  0  0  0  0
   41.4815   36.2039   40.9238 H   0  0  0  0  0  0  0  0  0  0  0  0
   46.8265   31.5642   41.7183 H   0  0  0  0  0  0  0  0  0  0  0  0
  1  6  2  0
  2  1  1  0
  3  4  1  0
  3  2  2  0
  4  5  2  0
  5  6  1  0
  7 11  1  0
  7  3  1  0
  8  7  2  0
  9  8  1  0
  9 10  2  0
 10 11  1  0
 12  2  1  0
 12 13  2  0
 14 12  1  0
 15 17  1  0
 15 14  1  0
 16 15  2  0
 18 17  1  0
 19 18  2  0
 20 21  1  0
 20 19  1  0
 21 22  2  0
 22 18  1  0
 23 26  1  0
 23 21  1  0
 23 24  1  0
 25 23  1  0
  1 27  1  0
  5 28  1  0
  8 29  1  0
  9 30  1  0
 10 31  1  0
 19 32  1  0
M  ISO  6  27  14  28  14  29  14  30  14  31  14  32  14
M  END
>  <minimizedAffinity>  (1) 
-4.32199192

>  <minimizedRMSD>  (1) 
1.50866127

$$$$
