
     RDKit          3D

 36 39  0  0  0  0  0  0  0  0999 V2000
   45.3780   34.8600   43.3490 C   0  0  0  0  0  0  0  0  0  0  0  0
   44.6530   35.5990   44.0260 O   0  0  0  0  0  0  0  0  0  0  0  0
   45.7260   32.5500   44.1860 C   0  0  0  0  0  0  0  0  0  0  0  0
   45.0930   33.4670   43.3200 C   0  0  0  0  0  0  0  0  0  0  0  0
   44.1490   32.9670   42.4010 C   0  0  0  0  0  0  0  0  0  0  0  0
   43.8880   31.6350   42.3850 N   0  0  0  0  0  0  0  0  0  0  0  0
   44.5250   30.7780   43.2420 C   0  0  0  0  0  0  0  0  0  0  0  0
   45.4370   31.2400   44.1340 N   0  0  0  0  0  0  0  0  0  0  0  0
   43.4960   33.9000   41.5110 C   0  0  0  0  0  0  0  0  0  0  0  0
   43.7930   34.1260   40.1710 C   0  0  0  0  0  0  0  0  0  0  0  0
   42.9160   35.0860   39.7580 C   0  0  0  0  0  0  0  0  0  0  0  0
   42.1320   35.4020   40.8420 C   0  0  0  0  0  0  0  0  0  0  0  0
   42.5070   34.6610   41.9020 O   0  0  0  0  0  0  0  0  0  0  0  0
   46.4350   35.4220   42.6520 O   0  0  0  0  0  0  0  0  0  0  0  0
   47.1780   34.6210   41.7850 C   0  0  0  0  0  0  0  0  0  0  0  0
   47.0270   34.6300   40.5390 O   0  0  0  0  0  0  0  0  0  0  0  0
   48.1540   33.7510   42.3230 O   0  0  0  0  0  0  0  0  0  0  0  0
   48.5200   32.6980   41.5100 C   0  0  0  0  0  0  0  0  0  0  0  0
   47.6110   31.7160   41.1990 C   0  0  0  0  0  0  0  0  0  0  0  0
   48.6370   30.5610   40.0850 S   0  0  0  0  0  0  0  0  0  0  0  0
   50.1360   31.7280   40.3070 C   0  0  0  0  0  0  0  0  0  0  0  0
   49.7000   32.5260   40.9790 N   0  0  0  0  0  0  0  0  0  0  0  0
   51.3880   31.4530   39.6820 N   0  0  0  0  0  0  0  0  0  0  0  0
   52.6200   31.5760   40.1490 N   0  0  0  0  0  0  0  0  0  0  0  0
   53.5030   31.1950   39.1900 C   0  0  0  0  0  0  0  0  0  0  0  0
   52.7380   30.8270   38.1000 C   0  0  0  0  0  0  0  0  0  0  0  0
   51.4140   30.9910   38.4150 C   0  0  0  0  0  0  0  0  0  0  0  0
   46.4664   32.9136   44.9137 H   0  0  0  0  0  0  0  0  0  0  0  0
   44.2948   29.7029   43.2069 H   0  0  0  0  0  0  0  0  0  0  0  0
   44.5719   33.6338   39.5701 H   0  0  0  0  0  0  0  0  0  0  0  0
   42.8491   35.5232   38.7509 H   0  0  0  0  0  0  0  0  0  0  0  0
   41.3221   36.1464   40.8433 H   0  0  0  0  0  0  0  0  0  0  0  0
   46.5609   31.6212   41.5126 H   0  0  0  0  0  0  0  0  0  0  0  0
   54.6003   31.1821   39.2655 H   0  0  0  0  0  0  0  0  0  0  0  0
   53.1272   30.4625   37.1379 H   0  0  0  0  0  0  0  0  0  0  0  0
   50.5490   30.7873   37.7667 H   0  0  0  0  0  0  0  0  0  0  0  0
  1  2  2  0
  4  1  1  0
  4  3  2  0
  5  4  1  0
  6  5  2  0
  6  7  1  0
  7  8  2  0
  8  3  1  0
  9 13  1  0
  9  5  1  0
 10  9  2  0
 11 10  1  0
 11 12  2  0
 12 13  1  0
 14  1  1  0
 15 17  1  0
 15 14  1  0
 16 15  2  0
 18 17  1  0
 19 18  2  0
 20 21  1  0
 20 19  1  0
 21 22  2  0
 22 18  1  0
 23 24  1  0
 23 21  1  0
 25 24  2  0
 26 27  2  0
 26 25  1  0
 27 23  1  0
  3 28  1  0
  7 29  1  0
 10 30  1  0
 11 31  1  0
 12 32  1  0
 19 33  1  0
 25 34  1  0
 26 35  1  0
 27 36  1  0
M  ISO  8  28  14  29  14  30  14  31  14  32  14  33  14  34  14  35  14
M  ISO  1  36  14
M  END
>  <minimizedAffinity>  (1) 
-4.64201641

>  <minimizedRMSD>  (1) 
1.68848753

$$$$
