
     RDKit          3D

 30 32  0  0  0  0  0  0  0  0999 V2000
   46.0100   32.7840   44.2760 C   0  0  0  0  0  0  0  0  0  0  0  0
   45.3520   33.6460   43.3870 C   0  0  0  0  0  0  0  0  0  0  0  0
   44.3650   33.0900   42.5410 C   0  0  0  0  0  0  0  0  0  0  0  0
   44.0930   31.7690   42.6140 N   0  0  0  0  0  0  0  0  0  0  0  0
   44.7660   30.9640   43.5030 C   0  0  0  0  0  0  0  0  0  0  0  0
   45.7170   31.4770   44.3250 N   0  0  0  0  0  0  0  0  0  0  0  0
   43.6760   33.9750   41.6160 C   0  0  0  0  0  0  0  0  0  0  0  0
   43.8870   34.0990   40.2620 C   0  0  0  0  0  0  0  0  0  0  0  0
   43.0060   35.0470   39.8350 C   0  0  0  0  0  0  0  0  0  0  0  0
   42.2970   35.4620   40.9400 C   0  0  0  0  0  0  0  0  0  0  0  0
   42.7290   34.7850   42.0180 O   0  0  0  0  0  0  0  0  0  0  0  0
   45.6410   35.0370   43.3100 C   0  0  0  0  0  0  0  0  0  0  0  0
   45.0310   35.8100   44.0670 O   0  0  0  0  0  0  0  0  0  0  0  0
   46.5720   35.5640   42.4300 O   0  0  0  0  0  0  0  0  0  0  0  0
   47.3670   34.6950   41.6860 C   0  0  0  0  0  0  0  0  0  0  0  0
   47.2030   34.4850   40.4610 O   0  0  0  0  0  0  0  0  0  0  0  0
   48.4180   34.0040   42.3390 O   0  0  0  0  0  0  0  0  0  0  0  0
   48.8300   32.8410   41.7260 C   0  0  0  0  0  0  0  0  0  0  0  0
   47.9310   31.8300   41.4930 C   0  0  0  0  0  0  0  0  0  0  0  0
   49.0060   30.5060   40.6510 S   0  0  0  0  0  0  0  0  0  0  0  0
   50.5040   31.6810   40.8150 C   0  0  0  0  0  0  0  0  0  0  0  0
   50.0420   32.5750   41.3210 N   0  0  0  0  0  0  0  0  0  0  0  0
   52.3210   31.4730   40.2880 S   0  0  0  0  0  0  0  0  0  0  0  0
   46.7823   33.1886   44.9467 H   0  0  0  0  0  0  0  0  0  0  0  0
   44.5307   29.8904   43.5487 H   0  0  0  0  0  0  0  0  0  0  0  0
   44.6161   33.5470   39.6506 H   0  0  0  0  0  0  0  0  0  0  0  0
   42.8845   35.4112   38.8042 H   0  0  0  0  0  0  0  0  0  0  0  0
   41.5045   36.2249   40.9406 H   0  0  0  0  0  0  0  0  0  0  0  0
   46.8581   31.7945   41.7330 H   0  0  0  0  0  0  0  0  0  0  0  0
   53.1123   31.3824   41.4027 H   0  0  0  0  0  0  0  0  0  0  0  0
  1  6  2  0
  2  1  1  0
  3  4  1  0
  3  2  2  0
  4  5  2  0
  5  6  1  0
  7 11  1  0
  7  3  1  0
  8  7  2  0
  9  8  1  0
  9 10  2  0
 10 11  1  0
 12  2  1  0
 12 13  2  0
 14 12  1  0
 15 17  1  0
 15 14  1  0
 16 15  2  0
 18 17  1  0
 19 18  2  0
 20 21  1  0
 20 19  1  0
 21 22  2  0
 22 18  1  0
 23 21  1  0
  1 24  1  0
  5 25  1  0
  8 26  1  0
  9 27  1  0
 10 28  1  0
 19 29  1  0
 23 30  1  0
M  ISO  7  24  14  25  14  26  14  27  14  28  14  29  14  30  11
M  END
>  <minimizedAffinity>  (1) 
-4.11189604

>  <minimizedRMSD>  (1) 
1.01612556

$$$$
