
     RDKit          3D

 36 37  0  0  1  0  0  0  0  0999 V2000
   46.3680   34.3630   40.9850 C   0  0  0  0  0  0  0  0  0  0  0  0
   47.7570   34.0740   40.8670 N   0  0  0  0  0  0  0  0  0  0  0  0
   48.5210   35.2560   41.1600 C   0  0  0  0  0  0  0  0  0  0  0  0
   49.5720   35.1330   42.1910 C   0  0  0  0  0  0  0  0  0  0  0  0
   49.0410   34.2980   43.1820 O   0  0  0  0  0  0  0  0  0  0  0  0
   49.1040   33.0330   42.6240 C   0  0  0  0  0  0  0  0  0  0  0  0
   48.3040   32.8930   41.3470 C   0  0  2  0  0  0  0  0  0  0  0  0
   49.3240   32.4710   40.2590 C   0  0  0  0  0  0  0  0  0  0  0  0
   45.5820   33.3620   41.8110 C   0  0  1  0  0  0  0  0  0  0  0  0
   44.6110   35.3060   43.1790 C   0  0  0  0  0  0  0  0  0  0  0  0
   45.2720   34.0330   43.0930 C   0  0  0  0  0  0  0  0  0  0  0  0
   45.6160   33.4590   44.3180 C   0  0  0  0  0  0  0  0  0  0  0  0
   45.3100   34.1260   45.4560 N   0  0  0  0  0  0  0  0  0  0  0  0
   44.6920   35.3110   45.4930 C   0  0  0  0  0  0  0  0  0  0  0  0
   44.3290   35.9250   44.3120 N   0  0  0  0  0  0  0  0  0  0  0  0
   44.3610   32.9350   41.1340 C   0  0  0  0  0  0  0  0  0  0  0  0
   44.2990   33.2070   39.3520 S   0  0  0  0  0  0  0  0  0  0  0  0
   45.9357   34.3879   39.9738 H   0  0  0  0  0  0  0  0  0  0  0  0
   46.2938   35.3267   41.5101 H   0  0  0  0  0  0  0  0  0  0  0  0
   49.0066   35.5778   40.2269 H   0  0  0  0  0  0  0  0  0  0  0  0
   47.7953   35.9718   41.5736 H   0  0  0  0  0  0  0  0  0  0  0  0
   50.4802   34.6862   41.7603 H   0  0  0  0  0  0  0  0  0  0  0  0
   49.8549   36.1147   42.5987 H   0  0  0  0  0  0  0  0  0  0  0  0
   50.1565   32.8030   42.4019 H   0  0  0  0  0  0  0  0  0  0  0  0
   48.6685   32.3361   43.3552 H   0  0  0  0  0  0  0  0  0  0  0  0
   47.4806   32.1952   41.5592 H   0  0  0  0  0  0  0  0  0  0  0  0
   50.2380   32.0928   40.7402 H   0  0  0  0  0  0  0  0  0  0  0  0
   48.8856   31.6804   39.6323 H   0  0  0  0  0  0  0  0  0  0  0  0
   49.5723   33.3402   39.6323 H   0  0  0  0  0  0  0  0  0  0  0  0
   46.1708   32.4464   41.9692 H   0  0  0  0  0  0  0  0  0  0  0  0
   44.3204   35.7980   42.2391 H   0  0  0  0  0  0  0  0  0  0  0  0
   46.1252   32.4848   44.3581 H   0  0  0  0  0  0  0  0  0  0  0  0
   44.4746   35.7928   46.4577 H   0  0  0  0  0  0  0  0  0  0  0  0
   44.2380   31.8566   41.3130 H   0  0  0  0  0  0  0  0  0  0  0  0
   43.5587   33.5593   41.5543 H   0  0  0  0  0  0  0  0  0  0  0  0
   43.9997   34.5201   39.1006 H   0  0  0  0  0  0  0  0  0  0  0  0
  1  9  1  0
  2  1  1  0
  2  3  1  0
  2  7  1  0
  3  4  1  0
  4  5  1  0
  6  5  1  0
  7  6  1  0
  8  7  1  0
  9 11  1  0
 10 15  2  0
 11 10  1  0
 11 12  2  0
 12 13  1  0
 13 14  2  0
 15 14  1  0
 16  9  1  0
 17 16  1  0
  1 18  1  0
  1 19  1  0
  3 20  1  0
  3 21  1  0
  4 22  1  0
  4 23  1  0
  6 24  1  0
  6 25  1  0
  7 26  1  1
  8 27  1  0
  8 28  1  0
  8 29  1  0
  9 30  1  1
 10 31  1  0
 12 32  1  0
 14 33  1  0
 16 34  1  0
 16 35  1  0
 17 36  1  0
M  ISO  8  18   8  19   8  20  13  21  13  22  13  23  13  24  13  25  13
M  ISO  8  26  13  27   8  28   8  29   8  30   8  31  14  32  14  33  14
M  ISO  3  34   8  35   8  36  11
M  END
>  <minimizedAffinity>  (1) 
-4.09601688

>  <minimizedRMSD>  (1) 
1.10514426

$$$$
