
     RDKit          3D

 35 37  0  0  0  0  0  0  0  0999 V2000
   45.8550   32.7030   44.3620 C   0  0  0  0  0  0  0  0  0  0  0  0
   45.2250   33.5790   43.4670 C   0  0  0  0  0  0  0  0  0  0  0  0
   44.3030   33.0460   42.5420 C   0  0  0  0  0  0  0  0  0  0  0  0
   44.0650   31.7070   42.5600 N   0  0  0  0  0  0  0  0  0  0  0  0
   44.7010   30.8870   43.4490 C   0  0  0  0  0  0  0  0  0  0  0  0
   45.5920   31.3890   44.3460 N   0  0  0  0  0  0  0  0  0  0  0  0
   43.6490   33.9440   41.6160 C   0  0  0  0  0  0  0  0  0  0  0  0
   43.9080   34.0940   40.2710 C   0  0  0  0  0  0  0  0  0  0  0  0
   43.0420   35.0520   39.8310 C   0  0  0  0  0  0  0  0  0  0  0  0
   42.2990   35.4410   40.9220 C   0  0  0  0  0  0  0  0  0  0  0  0
   42.6920   34.7460   42.0000 O   0  0  0  0  0  0  0  0  0  0  0  0
   45.4900   34.9780   43.4640 C   0  0  0  0  0  0  0  0  0  0  0  0
   44.8970   35.6970   44.2850 O   0  0  0  0  0  0  0  0  0  0  0  0
   46.3780   35.5720   42.5830 O   0  0  0  0  0  0  0  0  0  0  0  0
   47.2990   34.7690   41.9060 C   0  0  0  0  0  0  0  0  0  0  0  0
   47.2580   34.5670   40.6700 O   0  0  0  0  0  0  0  0  0  0  0  0
   48.3320   34.1470   42.6370 O   0  0  0  0  0  0  0  0  0  0  0  0
   48.8630   33.0090   42.0640 C   0  0  0  0  0  0  0  0  0  0  0  0
   48.0730   31.9030   41.8550 C   0  0  0  0  0  0  0  0  0  0  0  0
   49.3070   30.6860   41.0650 S   0  0  0  0  0  0  0  0  0  0  0  0
   50.6680   32.0100   41.2040 C   0  0  0  0  0  0  0  0  0  0  0  0
   50.1040   32.8670   41.6790 N   0  0  0  0  0  0  0  0  0  0  0  0
   52.0600   31.7490   40.7330 C   0  0  0  0  0  0  0  0  0  0  0  0
   51.9340   31.3450   39.2840 C   0  0  0  0  0  0  0  0  0  0  0  0
   46.5775   33.1009   45.0898 H   0  0  0  0  0  0  0  0  0  0  0  0
   44.4899   29.8075   43.4392 H   0  0  0  0  0  0  0  0  0  0  0  0
   44.6580   33.5531   39.6752 H   0  0  0  0  0  0  0  0  0  0  0  0
   42.9547   35.4380   38.8047 H   0  0  0  0  0  0  0  0  0  0  0  0
   41.5061   36.2033   40.9117 H   0  0  0  0  0  0  0  0  0  0  0  0
   47.0069   31.7588   42.0842 H   0  0  0  0  0  0  0  0  0  0  0  0
   52.6726   32.6579   40.8255 H   0  0  0  0  0  0  0  0  0  0  0  0
   52.5500   30.9663   41.3308 H   0  0  0  0  0  0  0  0  0  0  0  0
   51.6070   30.2965   39.2228 H   0  0  0  0  0  0  0  0  0  0  0  0
   51.1942   31.9895   38.7867 H   0  0  0  0  0  0  0  0  0  0  0  0
   52.9090   31.4546   38.7867 H   0  0  0  0  0  0  0  0  0  0  0  0
  2  1  2  0
  3  4  2  0
  3  2  1  0
  4  5  1  0
  5  6  2  0
  6  1  1  0
  7 11  1  0
  7  3  1  0
  8  7  2  0
  9  8  1  0
  9 10  2  0
 10 11  1  0
 12  2  1  0
 12 13  2  0
 14 12  1  0
 15 14  1  0
 15 17  1  0
 16 15  2  0
 18 17  1  0
 19 18  2  0
 20 21  1  0
 20 19  1  0
 21 22  2  0
 22 18  1  0
 23 21  1  0
 24 23  1  0
  1 25  1  0
  5 26  1  0
  8 27  1  0
  9 28  1  0
 10 29  1  0
 19 30  1  0
 23 31  1  0
 23 32  1  0
 24 33  1  0
 24 34  1  0
 24 35  1  0
M  ISO  8  25  14  26  14  27  14  28  14  29  14  30  14  31   8  32   8
M  ISO  3  33   8  34   8  35   8
M  END
>  <minimizedAffinity>  (1) 
-4.22884846

>  <minimizedRMSD>  (1) 
0.817036569

$$$$
