
     RDKit          3D

 38 40  0  0  0  0  0  0  0  0999 V2000
   45.8770   32.7090   44.3510 C   0  0  0  0  0  0  0  0  0  0  0  0
   45.2410   33.5870   43.4590 C   0  0  0  0  0  0  0  0  0  0  0  0
   44.3080   33.0470   42.5500 C   0  0  0  0  0  0  0  0  0  0  0  0
   44.0650   31.7110   42.5760 N   0  0  0  0  0  0  0  0  0  0  0  0
   44.7070   30.8930   43.4600 C   0  0  0  0  0  0  0  0  0  0  0  0
   45.6100   31.3950   44.3450 N   0  0  0  0  0  0  0  0  0  0  0  0
   43.6500   33.9440   41.6290 C   0  0  0  0  0  0  0  0  0  0  0  0
   43.8970   34.0800   40.2690 C   0  0  0  0  0  0  0  0  0  0  0  0
   43.0360   35.0420   39.8280 C   0  0  0  0  0  0  0  0  0  0  0  0
   42.3070   35.4500   40.9230 C   0  0  0  0  0  0  0  0  0  0  0  0
   42.7080   34.7610   41.9940 O   0  0  0  0  0  0  0  0  0  0  0  0
   45.5100   34.9830   43.4480 C   0  0  0  0  0  0  0  0  0  0  0  0
   44.9150   35.7110   44.2500 O   0  0  0  0  0  0  0  0  0  0  0  0
   46.4130   35.5640   42.5740 O   0  0  0  0  0  0  0  0  0  0  0  0
   47.3020   34.7510   41.8710 C   0  0  0  0  0  0  0  0  0  0  0  0
   47.2180   34.5340   40.6430 O   0  0  0  0  0  0  0  0  0  0  0  0
   48.3590   34.1310   42.5740 O   0  0  0  0  0  0  0  0  0  0  0  0
   48.8570   32.9780   42.0000 C   0  0  0  0  0  0  0  0  0  0  0  0
   48.0450   31.8820   41.8250 C   0  0  0  0  0  0  0  0  0  0  0  0
   49.2330   30.6320   41.0130 S   0  0  0  0  0  0  0  0  0  0  0  0
   50.6240   31.9410   41.0990 C   0  0  0  0  0  0  0  0  0  0  0  0
   50.0850   32.8190   41.5830 N   0  0  0  0  0  0  0  0  0  0  0  0
   52.0100   31.6740   40.5960 C   0  0  0  0  0  0  0  0  0  0  0  0
   51.9770   31.4580   39.0910 C   0  0  0  0  0  0  0  0  0  0  0  0
   52.5810   30.4110   41.2130 C   0  0  0  0  0  0  0  0  0  0  0  0
   46.6090   33.1070   45.0692 H   0  0  0  0  0  0  0  0  0  0  0  0
   44.4916   29.8143   43.4568 H   0  0  0  0  0  0  0  0  0  0  0  0
   44.6351   33.5259   39.6705 H   0  0  0  0  0  0  0  0  0  0  0  0
   42.9423   35.4184   38.7987 H   0  0  0  0  0  0  0  0  0  0  0  0
   41.5210   36.2195   40.9162 H   0  0  0  0  0  0  0  0  0  0  0  0
   46.9836   31.7585   42.0862 H   0  0  0  0  0  0  0  0  0  0  0  0
   52.6310   32.5411   40.8653 H   0  0  0  0  0  0  0  0  0  0  0  0
   51.8140   30.3914   38.8772 H   0  0  0  0  0  0  0  0  0  0  0  0
   51.1587   32.0488   38.6536 H   0  0  0  0  0  0  0  0  0  0  0  0
   52.9344   31.7776   38.6536 H   0  0  0  0  0  0  0  0  0  0  0  0
   52.5453   30.4901   42.3096 H   0  0  0  0  0  0  0  0  0  0  0  0
   51.9875   29.5436   40.8884 H   0  0  0  0  0  0  0  0  0  0  0  0
   53.6243   30.2836   40.8884 H   0  0  0  0  0  0  0  0  0  0  0  0
  2  1  2  0
  3  4  2  0
  3  2  1  0
  4  5  1  0
  5  6  2  0
  6  1  1  0
  7 11  1  0
  7  3  1  0
  8  7  2  0
  9  8  1  0
  9 10  2  0
 10 11  1  0
 12  2  1  0
 12 13  2  0
 14 12  1  0
 15 17  1  0
 15 14  1  0
 16 15  2  0
 18 17  1  0
 19 18  2  0
 20 21  1  0
 20 19  1  0
 21 22  2  0
 22 18  1  0
 23 21  1  0
 23 25  1  0
 24 23  1  0
  1 26  1  0
  5 27  1  0
  8 28  1  0
  9 29  1  0
 10 30  1  0
 19 31  1  0
 23 32  1  0
 24 33  1  0
 24 34  1  0
 24 35  1  0
 25 36  1  0
 25 37  1  0
 25 38  1  0
M  ISO  8  26  14  27  14  28  14  29  14  30  14  31  14  32   8  33   8
M  ISO  5  34   8  35   8  36   8  37   8  38   8
M  END
>  <minimizedAffinity>  (1) 
-4.30448818

>  <minimizedRMSD>  (1) 
0.946064413

$$$$
