
     RDKit          3D

 30 32  0  0  0  0  0  0  0  0999 V2000
   43.5540   35.2230   42.2490 C   0  0  0  0  0  0  0  0  0  0  0  0
   43.0770   34.6310   41.0560 C   0  0  0  0  0  0  0  0  0  0  0  0
   44.0070   33.9900   40.2220 C   0  0  0  0  0  0  0  0  0  0  0  0
   45.3100   33.9740   40.6030 N   0  0  0  0  0  0  0  0  0  0  0  0
   45.7260   34.5520   41.7490 C   0  0  0  0  0  0  0  0  0  0  0  0
   44.8440   35.1810   42.5810 N   0  0  0  0  0  0  0  0  0  0  0  0
   47.1320   34.4340   41.9820 N   0  0  0  0  0  0  0  0  0  0  0  0
   47.9260   35.3550   41.4080 C   0  0  0  0  0  0  0  0  0  0  0  0
   49.2810   35.2300   41.6400 C   0  0  0  0  0  0  0  0  0  0  0  0
   49.6950   34.1880   42.4280 C   0  0  0  0  0  0  0  0  0  0  0  0
   51.0710   33.9840   42.7190 N   0  0  0  0  0  0  0  0  0  0  0  0
   48.8390   33.2980   42.9750 N   0  0  0  0  0  0  0  0  0  0  0  0
   47.5120   33.4040   42.7580 C   0  0  0  0  0  0  0  0  0  0  0  0
   46.6710   32.6030   43.2420 O   0  0  0  0  0  0  0  0  0  0  0  0
   41.7190   34.7360   40.8180 N   0  0  0  0  0  0  0  0  0  0  0  0
   41.0350   35.6770   40.1430 C   0  0  0  0  0  0  0  0  0  0  0  0
   39.6700   35.3140   40.1970 C   0  0  0  0  0  0  0  0  0  0  0  0
   39.5670   34.1760   40.8970 N   0  0  0  0  0  0  0  0  0  0  0  0
   40.8190   33.8270   41.2730 C   0  0  0  0  0  0  0  0  0  0  0  0
   40.8850   32.6260   42.0340 N   0  0  0  0  0  0  0  0  0  0  0  0
   42.8434   35.7299   42.9184 H   0  0  0  0  0  0  0  0  0  0  0  0
   43.6880   33.5128   39.2836 H   0  0  0  0  0  0  0  0  0  0  0  0
   47.5173   36.1653   40.7864 H   0  0  0  0  0  0  0  0  0  0  0  0
   50.0016   35.9403   41.2085 H   0  0  0  0  0  0  0  0  0  0  0  0
   51.3601   33.1942   43.3136 H   0  0  0  0  0  0  0  0  0  0  0  0
   51.7792   34.6259   42.3353 H   0  0  0  0  0  0  0  0  0  0  0  0
   41.4577   36.5613   39.6437 H   0  0  0  0  0  0  0  0  0  0  0  0
   38.8363   35.8697   39.7429 H   0  0  0  0  0  0  0  0  0  0  0  0
   40.0230   32.1054   42.2504 H   0  0  0  0  0  0  0  0  0  0  0  0
   41.7948   32.2775   42.3683 H   0  0  0  0  0  0  0  0  0  0  0  0
  1  6  2  0
  2  1  1  0
  3  4  1  0
  3  2  2  0
  4  5  2  0
  5  7  1  0
  5  6  1  0
  7 13  1  0
  8  9  2  0
  8  7  1  0
  9 10  1  0
 10 11  1  0
 10 12  2  0
 13 12  1  0
 13 14  2  0
 15  2  1  0
 15 19  1  0
 16 17  2  0
 16 15  1  0
 17 18  1  0
 18 19  2  0
 19 20  1  0
  1 21  1  0
  3 22  1  0
  8 23  1  0
  9 24  1  0
 11 25  1  0
 11 26  1  0
 16 27  1  0
 17 28  1  0
 20 29  1  0
 20 30  1  0
M  ISO  6  21  14  22  14  23  14  24  14  27  14  28  14
M  END
>  <minimizedAffinity>  (1) 
-6.08053493

>  <minimizedRMSD>  (1) 
4.09106207

$$$$
