
     RDKit          3D

 29 31  0  0  0  0  0  0  0  0999 V2000
   43.1670   35.5190   41.6460 C   0  0  0  0  0  0  0  0  0  0  0  0
   42.7470   34.4550   40.8080 C   0  0  0  0  0  0  0  0  0  0  0  0
   43.1640   33.1550   41.1280 C   0  0  0  0  0  0  0  0  0  0  0  0
   43.9540   32.9880   42.2340 N   0  0  0  0  0  0  0  0  0  0  0  0
   44.3250   34.0470   43.0000 C   0  0  0  0  0  0  0  0  0  0  0  0
   43.9320   35.3290   42.7120 N   0  0  0  0  0  0  0  0  0  0  0  0
   45.1420   33.5650   44.0770 N   0  0  0  0  0  0  0  0  0  0  0  0
   45.8080   32.3900   43.9140 C   0  0  0  0  0  0  0  0  0  0  0  0
   46.6000   31.9170   44.9500 C   0  0  0  0  0  0  0  0  0  0  0  0
   46.6240   32.7230   46.0660 C   0  0  0  0  0  0  0  0  0  0  0  0
   47.3470   32.3090   47.0360 O   0  0  0  0  0  0  0  0  0  0  0  0
   45.9820   33.8880   46.2620 N   0  0  0  0  0  0  0  0  0  0  0  0
   45.2180   34.3040   45.2130 C   0  0  0  0  0  0  0  0  0  0  0  0
   44.5930   35.3850   45.3310 O   0  0  0  0  0  0  0  0  0  0  0  0
   41.9440   34.7960   39.7200 N   0  0  0  0  0  0  0  0  0  0  0  0
   42.2760   35.3310   38.5430 C   0  0  0  0  0  0  0  0  0  0  0  0
   41.0900   35.4780   37.7970 C   0  0  0  0  0  0  0  0  0  0  0  0
   40.0790   35.0320   38.5380 N   0  0  0  0  0  0  0  0  0  0  0  0
   40.5820   34.6070   39.7290 C   0  0  0  0  0  0  0  0  0  0  0  0
   39.6440   34.0930   40.6540 N   0  0  0  0  0  0  0  0  0  0  0  0
   42.8454   36.5423   41.4020 H   0  0  0  0  0  0  0  0  0  0  0  0
   42.8657   32.2957   40.5095 H   0  0  0  0  0  0  0  0  0  0  0  0
   45.7198   31.8237   42.9751 H   0  0  0  0  0  0  0  0  0  0  0  0
   47.1632   30.9744   44.8852 H   0  0  0  0  0  0  0  0  0  0  0  0
   46.0615   34.4247   47.1375 H   0  0  0  0  0  0  0  0  0  0  0  0
   43.2894   35.6065   38.2157 H   0  0  0  0  0  0  0  0  0  0  0  0
   41.0133   35.8895   36.7798 H   0  0  0  0  0  0  0  0  0  0  0  0
   38.6442   34.0595   40.4088 H   0  0  0  0  0  0  0  0  0  0  0  0
   39.9606   33.7522   41.5730 H   0  0  0  0  0  0  0  0  0  0  0  0
  1  6  2  0
  2  3  2  0
  2  1  1  0
  3  4  1  0
  4  5  2  0
  5  7  1  0
  6  5  1  0
  7 13  1  0
  8  7  1  0
  8  9  2  0
  9 10  1  0
 10 12  1  0
 10 11  2  0
 13 14  2  0
 13 12  1  0
 15 19  1  0
 15  2  1  0
 16 15  1  0
 17 18  1  0
 17 16  2  0
 18 19  2  0
 19 20  1  0
  1 21  1  0
  3 22  1  0
  8 23  1  0
  9 24  1  0
 12 25  1  0
 16 26  1  0
 17 27  1  0
 20 28  1  0
 20 29  1  0
M  ISO  7  21  14  22  14  23  14  24  14  25   9  26  14  27  14
M  END
>  <minimizedAffinity>  (1) 
-5.7500453

>  <minimizedRMSD>  (1) 
2.37189555

$$$$
