
     RDKit          3D

 34 36  0  0  0  0  0  0  0  0999 V2000
   42.9110   33.3410   40.2460 C   0  0  0  0  0  0  0  0  0  0  0  0
   42.0560   34.4370   40.5060 C   0  0  0  0  0  0  0  0  0  0  0  0
   42.5940   35.5630   41.1650 C   0  0  0  0  0  0  0  0  0  0  0  0
   43.9130   35.5280   41.5150 N   0  0  0  0  0  0  0  0  0  0  0  0
   44.6900   34.4600   41.2460 C   0  0  0  0  0  0  0  0  0  0  0  0
   44.1920   33.3680   40.6140 N   0  0  0  0  0  0  0  0  0  0  0  0
   46.0540   34.5070   41.6460 N   0  0  0  0  0  0  0  0  0  0  0  0
   47.0920   34.3930   40.6650 C   0  0  0  0  0  0  0  0  0  0  0  0
   48.3270   35.1150   41.1530 C   0  0  0  0  0  0  0  0  0  0  0  0
   48.8130   34.6120   42.4710 C   0  0  0  0  0  0  0  0  0  0  0  0
   47.7530   34.0460   43.3630 C   0  0  0  0  0  0  0  0  0  0  0  0
   46.4290   34.6710   43.0390 C   0  0  0  0  0  0  0  0  0  0  0  0
   40.7410   34.3130   40.0850 N   0  0  0  0  0  0  0  0  0  0  0  0
   39.6550   33.8960   40.7300 C   0  0  0  0  0  0  0  0  0  0  0  0
   38.5630   33.9580   39.8530 C   0  0  0  0  0  0  0  0  0  0  0  0
   39.0230   34.4200   38.6740 N   0  0  0  0  0  0  0  0  0  0  0  0
   40.3480   34.6370   38.8130 C   0  0  0  0  0  0  0  0  0  0  0  0
   40.9920   35.1340   37.6380 N   0  0  0  0  0  0  0  0  0  0  0  0
   42.5132   32.4532   39.7326 H   0  0  0  0  0  0  0  0  0  0  0  0
   41.9704   36.4409   41.3895 H   0  0  0  0  0  0  0  0  0  0  0  0
   46.7541   34.8423   39.7195 H   0  0  0  0  0  0  0  0  0  0  0  0
   47.3280   33.3310   40.5022 H   0  0  0  0  0  0  0  0  0  0  0  0
   49.1274   34.9821   40.4102 H   0  0  0  0  0  0  0  0  0  0  0  0
   48.0596   36.1741   41.2830 H   0  0  0  0  0  0  0  0  0  0  0  0
   49.5565   33.8236   42.2821 H   0  0  0  0  0  0  0  0  0  0  0  0
   49.2252   35.4843   42.9994 H   0  0  0  0  0  0  0  0  0  0  0  0
   47.6903   32.9584   43.2109 H   0  0  0  0  0  0  0  0  0  0  0  0
   48.0085   34.2597   44.4113 H   0  0  0  0  0  0  0  0  0  0  0  0
   46.4839   35.7464   43.2637 H   0  0  0  0  0  0  0  0  0  0  0  0
   45.6662   34.1645   43.6486 H   0  0  0  0  0  0  0  0  0  0  0  0
   39.6196   33.5589   41.7765 H   0  0  0  0  0  0  0  0  0  0  0  0
   37.5239   33.6810   40.0844 H   0  0  0  0  0  0  0  0  0  0  0  0
   42.0032   35.3297   37.6486 H   0  0  0  0  0  0  0  0  0  0  0  0
   40.4450   35.2965   36.7805 H   0  0  0  0  0  0  0  0  0  0  0  0
  1  2  2  0
  1  6  1  0
  2  3  1  0
  3  4  2  0
  5  4  1  0
  5  7  1  0
  6  5  2  0
  7 12  1  0
  8  9  1  0
  8  7  1  0
  9 10  1  0
 10 11  1  0
 12 11  1  0
 13  2  1  0
 13 14  1  0
 15 14  2  0
 16 17  2  0
 16 15  1  0
 17 13  1  0
 18 17  1  0
  1 19  1  0
  3 20  1  0
  8 21  1  0
  8 22  1  0
  9 23  1  0
  9 24  1  0
 10 25  1  0
 10 26  1  0
 11 27  1  0
 11 28  1  0
 12 29  1  0
 12 30  1  0
 14 31  1  0
 15 32  1  0
 18 33  1  0
 18 34  1  0
M  ISO  8  19  14  20  14  21  13  22  13  23  13  24  13  25  13  26  13
M  ISO  6  27  13  28  13  29  13  30  13  31  14  32  14
M  END
>  <minimizedAffinity>  (1) 
-5.74695492

>  <minimizedRMSD>  (1) 
4.54782867

$$$$
