
     RDKit          3D

 32 35  0  0  0  0  0  0  0  0999 V2000
   44.4770   34.5450   43.0080 C   0  0  0  0  0  0  0  0  0  0  0  0
   43.9580   33.6330   42.0550 C   0  0  0  0  0  0  0  0  0  0  0  0
   44.1440   32.2640   42.2690 C   0  0  0  0  0  0  0  0  0  0  0  0
   44.8270   31.8900   43.4040 N   0  0  0  0  0  0  0  0  0  0  0  0
   45.3010   32.7990   44.2780 C   0  0  0  0  0  0  0  0  0  0  0  0
   45.1280   34.1290   44.0840 N   0  0  0  0  0  0  0  0  0  0  0  0
   46.0030   32.3810   45.4410 N   0  0  0  0  0  0  0  0  0  0  0  0
   46.7680   33.1370   46.2440 C   0  0  0  0  0  0  0  0  0  0  0  0
   47.2890   32.4250   47.2610 N   0  0  0  0  0  0  0  0  0  0  0  0
   46.8640   31.1740   47.1330 C   0  0  0  0  0  0  0  0  0  0  0  0
   47.0950   30.0480   47.8960 C   0  0  0  0  0  0  0  0  0  0  0  0
   46.5040   28.9040   47.4900 N   0  0  0  0  0  0  0  0  0  0  0  0
   45.7200   28.8930   46.3740 C   0  0  0  0  0  0  0  0  0  0  0  0
   45.4970   29.9950   45.6340 N   0  0  0  0  0  0  0  0  0  0  0  0
   46.0670   31.1570   46.0030 C   0  0  0  0  0  0  0  0  0  0  0  0
   43.2880   34.1870   40.9590 N   0  0  0  0  0  0  0  0  0  0  0  0
   43.5260   34.0760   39.6580 C   0  0  0  0  0  0  0  0  0  0  0  0
   42.5610   34.8300   38.9780 C   0  0  0  0  0  0  0  0  0  0  0  0
   41.7450   35.3920   39.8950 N   0  0  0  0  0  0  0  0  0  0  0  0
   42.1900   34.9980   41.1130 C   0  0  0  0  0  0  0  0  0  0  0  0
   41.4410   35.5000   42.2200 N   0  0  0  0  0  0  0  0  0  0  0  0
   47.9210   30.1430   49.0390 N   0  0  0  0  0  0  0  0  0  0  0  0
   44.3357   35.6244   42.8502 H   0  0  0  0  0  0  0  0  0  0  0  0
   43.7602   31.5163   41.5593 H   0  0  0  0  0  0  0  0  0  0  0  0
   46.9480   34.2111   46.0895 H   0  0  0  0  0  0  0  0  0  0  0  0
   45.2516   27.9464   46.0666 H   0  0  0  0  0  0  0  0  0  0  0  0
   44.3374   33.4948   39.1956 H   0  0  0  0  0  0  0  0  0  0  0  0
   42.4819   34.9443   37.8868 H   0  0  0  0  0  0  0  0  0  0  0  0
   40.6297   36.1134   42.0572 H   0  0  0  0  0  0  0  0  0  0  0  0
   41.7119   35.2488   43.1815 H   0  0  0  0  0  0  0  0  0  0  0  0
   48.1001   29.3086   49.6157 H   0  0  0  0  0  0  0  0  0  0  0  0
   48.3438   31.0466   49.2952 H   0  0  0  0  0  0  0  0  0  0  0  0
  1  6  2  0
  2  3  2  0
  2  1  1  0
  3  4  1  0
  4  5  2  0
  5  7  1  0
  6  5  1  0
  7 15  1  0
  7  8  1  0
  8  9  2  0
 10  9  1  0
 10 11  2  0
 11 22  1  0
 12 11  1  0
 13 12  2  0
 14 15  2  0
 14 13  1  0
 15 10  1  0
 16 20  1  0
 16  2  1  0
 17 16  1  0
 18 17  2  0
 18 19  1  0
 19 20  2  0
 20 21  1  0
  1 23  1  0
  3 24  1  0
  8 25  1  0
 13 26  1  0
 17 27  1  0
 18 28  1  0
 21 29  1  0
 21 30  1  0
 22 31  1  0
 22 32  1  0
M  ISO  6  23  14  24  14  25  14  26  14  27  14  28  14
M  END
>  <minimizedAffinity>  (1) 
-5.50791979

>  <minimizedRMSD>  (1) 
1.74566436

$$$$
