
     RDKit          3D

 35 38  0  0  0  0  0  0  0  0999 V2000
   46.1580   34.1630   43.9950 C   0  0  0  0  0  0  0  0  0  0  0  0
   47.2780   33.6060   43.3710 C   0  0  0  0  0  0  0  0  0  0  0  0
   47.8870   32.4840   43.9530 C   0  0  0  0  0  0  0  0  0  0  0  0
   47.3230   32.0100   45.1150 N   0  0  0  0  0  0  0  0  0  0  0  0
   46.2440   32.5740   45.6860 C   0  0  0  0  0  0  0  0  0  0  0  0
   45.6890   33.6340   45.1140 N   0  0  0  0  0  0  0  0  0  0  0  0
   47.7170   34.2090   42.1820 N   0  0  0  0  0  0  0  0  0  0  0  0
   48.5760   35.1930   41.9750 C   0  0  0  0  0  0  0  0  0  0  0  0
   48.6510   35.4050   40.5850 C   0  0  0  0  0  0  0  0  0  0  0  0
   47.8340   34.5410   39.9880 N   0  0  0  0  0  0  0  0  0  0  0  0
   47.2480   33.7930   40.9570 C   0  0  0  0  0  0  0  0  0  0  0  0
   46.3270   32.8030   40.4880 N   0  0  0  0  0  0  0  0  0  0  0  0
   45.8810   31.8530   46.9000 C   0  0  0  0  0  0  0  0  0  0  0  0
   45.8930   32.4450   48.1460 C   0  0  0  0  0  0  0  0  0  0  0  0
   45.5610   31.8200   49.3290 C   0  0  0  0  0  0  0  0  0  0  0  0
   45.1800   30.4980   49.3130 C   0  0  0  0  0  0  0  0  0  0  0  0
   45.1480   29.8520   48.1010 C   0  0  0  0  0  0  0  0  0  0  0  0
   44.7650   28.5390   48.1200 C   0  0  0  0  0  0  0  0  0  0  0  0
   44.7020   27.8080   46.9580 C   0  0  0  0  0  0  0  0  0  0  0  0
   45.0460   28.4770   45.7820 C   0  0  0  0  0  0  0  0  0  0  0  0
   45.4240   29.8010   45.8200 C   0  0  0  0  0  0  0  0  0  0  0  0
   45.4930   30.5440   46.9700 C   0  0  0  0  0  0  0  0  0  0  0  0
   45.6654   35.0427   43.5552 H   0  0  0  0  0  0  0  0  0  0  0  0
   48.7705   32.0075   43.5031 H   0  0  0  0  0  0  0  0  0  0  0  0
   49.1308   35.7452   42.7478 H   0  0  0  0  0  0  0  0  0  0  0  0
   49.2770   36.1554   40.0799 H   0  0  0  0  0  0  0  0  0  0  0  0
   45.8397   32.1934   41.1602 H   0  0  0  0  0  0  0  0  0  0  0  0
   46.1515   32.7001   39.4783 H   0  0  0  0  0  0  0  0  0  0  0  0
   46.1919   33.5022   48.2000 H   0  0  0  0  0  0  0  0  0  0  0  0
   45.6004   32.3740   50.2785 H   0  0  0  0  0  0  0  0  0  0  0  0
   44.9094   29.9746   50.2419 H   0  0  0  0  0  0  0  0  0  0  0  0
   44.5044   28.0626   49.0766 H   0  0  0  0  0  0  0  0  0  0  0  0
   44.3966   26.7513   46.9547 H   0  0  0  0  0  0  0  0  0  0  0  0
   45.0150   27.9441   44.8202 H   0  0  0  0  0  0  0  0  0  0  0  0
   45.6862   30.2914   44.8709 H   0  0  0  0  0  0  0  0  0  0  0  0
  1  6  2  0
  2  3  2  0
  2  1  1  0
  3  4  1  0
  4  5  2  0
  5 13  1  0
  6  5  1  0
  7  2  1  0
  8  7  1  0
  9  8  2  0
 10  9  1  0
 10 11  2  0
 11  7  1  0
 12 11  1  0
 13 22  1  0
 13 14  2  0
 14 15  1  0
 16 15  2  0
 17 18  2  0
 17 16  1  0
 19 18  1  0
 20 21  1  0
 20 19  2  0
 21 22  2  0
 22 17  1  0
  1 23  1  0
  3 24  1  0
  8 25  1  0
  9 26  1  0
 12 27  1  0
 12 28  1  0
 14 29  1  0
 15 30  1  0
 16 31  1  0
 18 32  1  0
 19 33  1  0
 20 34  1  0
 21 35  1  0
M  ISO  8  23  14  24  14  25  14  26  14  29  14  30  14  31  14  32  14
M  ISO  3  33  14  34  14  35  14
M  END
>  <minimizedAffinity>  (1) 
-5.66251612

>  <minimizedRMSD>  (1) 
3.87683892

$$$$
