
     RDKit          3D

 22 23  0  0  0  0  0  0  0  0999 V2000
   42.2380   33.1850   41.2980 C   0  0  0  0  0  0  0  0  0  0  0  0
   42.6370   34.5340   41.4890 C   0  0  0  0  0  0  0  0  0  0  0  0
   41.6740   35.5340   41.3120 C   0  0  0  0  0  0  0  0  0  0  0  0
   40.4100   35.1740   40.9680 N   0  0  0  0  0  0  0  0  0  0  0  0
   40.0760   33.8630   40.7960 C   0  0  0  0  0  0  0  0  0  0  0  0
   40.9890   32.8740   40.9600 N   0  0  0  0  0  0  0  0  0  0  0  0
   43.9610   34.7480   41.8390 N   0  0  0  0  0  0  0  0  0  0  0  0
   45.0800   34.5090   41.1590 C   0  0  0  0  0  0  0  0  0  0  0  0
   46.1560   34.9150   41.9810 C   0  0  0  0  0  0  0  0  0  0  0  0
   45.6720   35.3870   43.1270 N   0  0  0  0  0  0  0  0  0  0  0  0
   44.3100   35.2890   43.0510 C   0  0  0  0  0  0  0  0  0  0  0  0
   43.6170   35.7550   44.2090 N   0  0  0  0  0  0  0  0  0  0  0  0
   38.7310   33.4620   40.4270 C   0  0  0  0  0  0  0  0  0  0  0  0
   38.1170   33.9290   39.4340 O   0  0  0  0  0  0  0  0  0  0  0  0
   38.0210   32.5130   41.1680 O   0  0  0  0  0  0  0  0  0  0  0  0
   42.9762   32.3806   41.4321 H   0  0  0  0  0  0  0  0  0  0  0  0
   41.9361   36.5935   41.4491 H   0  0  0  0  0  0  0  0  0  0  0  0
   45.1535   34.0777   40.1497 H   0  0  0  0  0  0  0  0  0  0  0  0
   47.2217   34.8510   41.7159 H   0  0  0  0  0  0  0  0  0  0  0  0
   44.1458   36.1276   45.0105 H   0  0  0  0  0  0  0  0  0  0  0  0
   42.5882   35.7186   44.2429 H   0  0  0  0  0  0  0  0  0  0  0  0
   37.1045   32.2566   40.8952 H   0  0  0  0  0  0  0  0  0  0  0  0
  1  2  2  0
  2  7  1  0
  3  2  1  0
  4  3  2  0
  5  6  2  0
  5  4  1  0
  6  1  1  0
  7 11  1  0
  8  7  1  0
  8  9  2  0
  9 10  1  0
 11 10  2  0
 11 12  1  0
 13  5  1  0
 13 15  1  0
 14 13  2  0
  1 16  1  0
  3 17  1  0
  8 18  1  0
  9 19  1  0
 12 20  1  0
 12 21  1  0
 15 22  1  0
M  ISO  5  16  14  17  14  18  14  19  14  22   3
M  END
>  <minimizedAffinity>  (1) 
-5.15795565

>  <minimizedRMSD>  (1) 
6.0583725

$$$$
