
     RDKit          3D

 26 28  0  0  0  0  0  0  0  0999 V2000
   43.7620   33.0880   41.5640 C   0  0  0  0  0  0  0  0  0  0  0  0
   44.3430   34.3600   41.5420 C   0  0  0  0  0  0  0  0  0  0  0  0
   43.5210   35.4560   41.2340 C   0  0  0  0  0  0  0  0  0  0  0  0
   42.2070   35.2120   40.9760 N   0  0  0  0  0  0  0  0  0  0  0  0
   41.6890   33.9670   41.0090 C   0  0  0  0  0  0  0  0  0  0  0  0
   42.4680   32.8990   41.3040 N   0  0  0  0  0  0  0  0  0  0  0  0
   45.7110   34.4320   41.8320 N   0  0  0  0  0  0  0  0  0  0  0  0
   46.7560   34.4400   40.9910 C   0  0  0  0  0  0  0  0  0  0  0  0
   47.9200   34.5260   41.7950 C   0  0  0  0  0  0  0  0  0  0  0  0
   47.5320   34.5660   43.0820 N   0  0  0  0  0  0  0  0  0  0  0  0
   46.1820   34.5080   43.1060 C   0  0  0  0  0  0  0  0  0  0  0  0
   45.6020   34.5410   44.4030 N   0  0  0  0  0  0  0  0  0  0  0  0
   40.2730   33.7670   40.7230 C   0  0  0  0  0  0  0  0  0  0  0  0
   39.5480   34.3790   39.7230 C   0  0  0  0  0  0  0  0  0  0  0  0
   38.2820   33.8760   39.8540 C   0  0  0  0  0  0  0  0  0  0  0  0
   38.2190   33.0020   40.8750 N   0  0  0  0  0  0  0  0  0  0  0  0
   39.4370   32.9540   41.3840 N   0  0  0  0  0  0  0  0  0  0  0  0
   44.3911   32.2179   41.8028 H   0  0  0  0  0  0  0  0  0  0  0  0
   43.9257   36.4783   41.2023 H   0  0  0  0  0  0  0  0  0  0  0  0
   46.7171   34.3897   39.8928 H   0  0  0  0  0  0  0  0  0  0  0  0
   48.9575   34.5549   41.4307 H   0  0  0  0  0  0  0  0  0  0  0  0
   46.2053   34.6030   45.2355 H   0  0  0  0  0  0  0  0  0  0  0  0
   44.5783   34.5029   44.5105 H   0  0  0  0  0  0  0  0  0  0  0  0
   39.9074   35.1098   38.9835 H   0  0  0  0  0  0  0  0  0  0  0  0
   37.4316   34.1491   39.2119 H   0  0  0  0  0  0  0  0  0  0  0  0
   37.3915   32.4782   41.1940 H   0  0  0  0  0  0  0  0  0  0  0  0
  2  1  2  0
  2  7  1  0
  3  2  1  0
  4  5  1  0
  4  3  2  0
  5  6  2  0
  6  1  1  0
  7 11  1  0
  8  9  2  0
  8  7  1  0
  9 10  1  0
 10 11  2  0
 11 12  1  0
 13  5  1  0
 13 17  2  0
 14 15  2  0
 14 13  1  0
 15 16  1  0
 16 17  1  0
  1 18  1  0
  3 19  1  0
  8 20  1  0
  9 21  1  0
 12 22  1  0
 12 23  1  0
 14 24  1  0
 15 25  1  0
 16 26  1  0
M  ISO  7  18  14  19  14  20  14  21  14  24  14  25  14  26   9
M  END
>  <minimizedAffinity>  (1) 
-5.10487175

>  <minimizedRMSD>  (1) 
6.76217413

$$$$
