
     RDKit          3D

 36 37  0  0  1  0  0  0  0  0999 V2000
   46.7260   34.8390   41.0920 C   0  0  0  0  0  0  0  0  0  0  0  0
   47.9960   34.2140   40.9010 N   0  0  0  0  0  0  0  0  0  0  0  0
   49.0260   34.9840   41.5190 C   0  0  0  0  0  0  0  0  0  0  0  0
   49.9110   34.2850   42.4730 C   0  0  0  0  0  0  0  0  0  0  0  0
   49.0840   33.4090   43.1960 O   0  0  0  0  0  0  0  0  0  0  0  0
   48.8360   32.3810   42.2910 C   0  0  0  0  0  0  0  0  0  0  0  0
   48.1490   32.8390   41.0300 C   0  0  2  0  0  0  0  0  0  0  0  0
   49.0790   32.4260   39.8690 C   0  0  0  0  0  0  0  0  0  0  0  0
   45.6200   33.9300   41.5990 C   0  0  1  0  0  0  0  0  0  0  0  0
   44.7480   35.6120   43.3020 C   0  0  0  0  0  0  0  0  0  0  0  0
   45.3260   34.3450   42.9670 C   0  0  0  0  0  0  0  0  0  0  0  0
   45.5970   33.5190   44.0610 C   0  0  0  0  0  0  0  0  0  0  0  0
   45.3010   33.9630   45.3080 N   0  0  0  0  0  0  0  0  0  0  0  0
   44.7560   35.1620   45.5790 C   0  0  0  0  0  0  0  0  0  0  0  0
   44.4690   36.0170   44.5390 N   0  0  0  0  0  0  0  0  0  0  0  0
   44.4230   33.9630   40.7490 C   0  0  0  0  0  0  0  0  0  0  0  0
   43.4270   33.0460   41.1570 O   0  0  0  0  0  0  0  0  0  0  0  0
   46.4053   35.2570   40.1264 H   0  0  0  0  0  0  0  0  0  0  0  0
   46.8769   35.5969   41.8748 H   0  0  0  0  0  0  0  0  0  0  0  0
   49.6597   35.3925   40.7180 H   0  0  0  0  0  0  0  0  0  0  0  0
   48.4953   35.7351   42.1225 H   0  0  0  0  0  0  0  0  0  0  0  0
   50.6860   33.7212   41.9331 H   0  0  0  0  0  0  0  0  0  0  0  0
   50.4273   34.9933   43.1377 H   0  0  0  0  0  0  0  0  0  0  0  0
   49.7965   31.9207   42.0161 H   0  0  0  0  0  0  0  0  0  0  0  0
   48.1583   31.6710   42.7876 H   0  0  0  0  0  0  0  0  0  0  0  0
   47.1426   32.3951   41.0388 H   0  0  0  0  0  0  0  0  0  0  0  0
   50.0127   32.0114   40.2768 H   0  0  0  0  0  0  0  0  0  0  0  0
   48.5790   31.6653   39.2515 H   0  0  0  0  0  0  0  0  0  0  0  0
   49.3080   33.3070   39.2515 H   0  0  0  0  0  0  0  0  0  0  0  0
   45.9537   32.8822   41.5705 H   0  0  0  0  0  0  0  0  0  0  0  0
   44.5177   36.3012   42.4762 H   0  0  0  0  0  0  0  0  0  0  0  0
   46.0433   32.5245   43.9133 H   0  0  0  0  0  0  0  0  0  0  0  0
   44.5424   35.4556   46.6174 H   0  0  0  0  0  0  0  0  0  0  0  0
   44.7194   33.7218   39.7175 H   0  0  0  0  0  0  0  0  0  0  0  0
   43.9921   34.9719   40.8287 H   0  0  0  0  0  0  0  0  0  0  0  0
   43.3927   33.0144   42.1459 H   0  0  0  0  0  0  0  0  0  0  0  0
  1  9  1  0
  2  7  1  0
  2  1  1  0
  2  3  1  0
  3  4  1  0
  4  5  1  0
  6  5  1  0
  7  6  1  0
  8  7  1  0
  9 11  1  0
 10 15  2  0
 11 10  1  0
 11 12  2  0
 12 13  1  0
 13 14  2  0
 15 14  1  0
 16 17  1  0
 16  9  1  0
  1 18  1  0
  1 19  1  0
  3 20  1  0
  3 21  1  0
  4 22  1  0
  4 23  1  0
  6 24  1  0
  6 25  1  0
  7 26  1  6
  8 27  1  0
  8 28  1  0
  8 29  1  0
  9 30  1  1
 10 31  1  0
 12 32  1  0
 14 33  1  0
 16 34  1  0
 16 35  1  0
 17 36  1  0
M  ISO  8  18   8  19   8  20  13  21  13  22  13  23  13  24  13  25  13
M  ISO  8  26  13  27   8  28   8  29   8  30   8  31  14  32  14  33  14
M  ISO  3  34   8  35   8  36   3
M  END
>  <minimizedAffinity>  (1) 
-3.87073874

>  <minimizedRMSD>  (1) 
0.579247415

$$$$
