
     RDKit          3D

 35 37  0  0  0  0  0  0  0  0999 V2000
   44.6140   35.0690   43.6180 C   0  0  0  0  0  0  0  0  0  0  0  0
   44.3390   34.0320   42.7090 C   0  0  0  0  0  0  0  0  0  0  0  0
   44.7440   32.7360   43.0440 C   0  0  0  0  0  0  0  0  0  0  0  0
   45.3830   32.5420   44.2300 N   0  0  0  0  0  0  0  0  0  0  0  0
   45.6270   33.5690   45.0770 C   0  0  0  0  0  0  0  0  0  0  0  0
   45.2380   34.8510   44.7680 N   0  0  0  0  0  0  0  0  0  0  0  0
   43.6770   34.3990   41.5380 N   0  0  0  0  0  0  0  0  0  0  0  0
   44.0260   34.2060   40.2630 C   0  0  0  0  0  0  0  0  0  0  0  0
   43.0060   34.7700   39.4680 C   0  0  0  0  0  0  0  0  0  0  0  0
   42.0680   35.2870   40.2790 N   0  0  0  0  0  0  0  0  0  0  0  0
   42.4800   35.0590   41.5490 C   0  0  0  0  0  0  0  0  0  0  0  0
   41.5930   35.5490   42.5580 N   0  0  0  0  0  0  0  0  0  0  0  0
   46.3360   33.1850   46.3330 C   0  0  0  0  0  0  0  0  0  0  0  0
   47.0140   31.8680   46.1010 C   0  0  0  0  0  0  0  0  0  0  0  0
   47.5040   31.1820   47.3300 C   0  0  0  0  0  0  0  0  0  0  0  0
   46.8790   31.7100   48.6010 C   0  0  0  0  0  0  0  0  0  0  0  0
   45.4310   32.0110   48.3720 C   0  0  0  0  0  0  0  0  0  0  0  0
   45.3130   33.1670   47.4300 C   0  0  0  0  0  0  0  0  0  0  0  0
   44.3017   36.0935   43.3674 H   0  0  0  0  0  0  0  0  0  0  0  0
   44.5506   31.8928   42.3646 H   0  0  0  0  0  0  0  0  0  0  0  0
   44.9353   33.7032   39.9019 H   0  0  0  0  0  0  0  0  0  0  0  0
   42.9827   34.7841   38.3683 H   0  0  0  0  0  0  0  0  0  0  0  0
   40.7222   36.0289   42.2893 H   0  0  0  0  0  0  0  0  0  0  0  0
   41.8250   35.4220   43.5535 H   0  0  0  0  0  0  0  0  0  0  0  0
   47.1241   33.8929   46.6293 H   0  0  0  0  0  0  0  0  0  0  0  0
   46.2976   31.1997   45.6008 H   0  0  0  0  0  0  0  0  0  0  0  0
   47.9067   32.0862   45.4964 H   0  0  0  0  0  0  0  0  0  0  0  0
   47.2726   30.1098   47.2468 H   0  0  0  0  0  0  0  0  0  0  0  0
   48.5858   31.3695   47.3975 H   0  0  0  0  0  0  0  0  0  0  0  0
   46.9730   30.9541   49.3946 H   0  0  0  0  0  0  0  0  0  0  0  0
   47.3967   32.6328   48.9019 H   0  0  0  0  0  0  0  0  0  0  0  0
   44.9361   31.1300   47.9374 H   0  0  0  0  0  0  0  0  0  0  0  0
   44.9496   32.2625   49.3285 H   0  0  0  0  0  0  0  0  0  0  0  0
   45.4166   34.0952   48.0111 H   0  0  0  0  0  0  0  0  0  0  0  0
   44.3325   33.0718   46.9406 H   0  0  0  0  0  0  0  0  0  0  0  0
  1  6  2  0
  2  3  2  0
  2  1  1  0
  3  4  1  0
  4  5  2  0
  5 13  1  0
  6  5  1  0
  7 11  1  0
  7  2  1  0
  8  7  1  0
  9  8  2  0
  9 10  1  0
 10 11  2  0
 11 12  1  0
 13 18  1  0
 14 13  1  0
 14 15  1  0
 15 16  1  0
 17 16  1  0
 18 17  1  0
  1 19  1  0
  3 20  1  0
  8 21  1  0
  9 22  1  0
 12 23  1  0
 12 24  1  0
 13 25  1  0
 14 26  1  0
 14 27  1  0
 15 28  1  0
 15 29  1  0
 16 30  1  0
 16 31  1  0
 17 32  1  0
 17 33  1  0
 18 34  1  0
 18 35  1  0
M  ISO  8  19  14  20  14  21  14  22  14  25  13  26  13  27  13  28  13
M  ISO  7  29  13  30  13  31  13  32  13  33  13  34  13  35  13
M  END
>  <minimizedAffinity>  (1) 
-5.21719599

>  <minimizedRMSD>  (1) 
0.584003329

$$$$
