
     RDKit          3D

 26 28  0  0  0  0  0  0  0  0999 V2000
   45.3950   33.9320   41.3940 C   0  0  0  0  0  0  0  0  0  0  0  0
   46.2020   34.5890   42.3410 C   0  0  0  0  0  0  0  0  0  0  0  0
   47.5070   34.9390   41.9620 C   0  0  0  0  0  0  0  0  0  0  0  0
   47.9130   34.6240   40.7070 N   0  0  0  0  0  0  0  0  0  0  0  0
   47.1050   33.9920   39.8310 C   0  0  0  0  0  0  0  0  0  0  0  0
   45.8340   33.6420   40.1750 N   0  0  0  0  0  0  0  0  0  0  0  0
   47.7590   33.7680   38.5700 N   0  0  0  0  0  0  0  0  0  0  0  0
   48.3690   34.4660   37.6030 C   0  0  0  0  0  0  0  0  0  0  0  0
   48.7880   33.5730   36.6240 C   0  0  0  0  0  0  0  0  0  0  0  0
   48.4120   32.3280   37.0350 N   0  0  0  0  0  0  0  0  0  0  0  0
   47.7780   32.4500   38.2330 C   0  0  0  0  0  0  0  0  0  0  0  0
   45.6280   34.8390   43.5880 N   0  0  0  0  0  0  0  0  0  0  0  0
   45.5090   34.0380   44.6530 C   0  0  0  0  0  0  0  0  0  0  0  0
   44.8510   34.7610   45.6620 C   0  0  0  0  0  0  0  0  0  0  0  0
   44.5900   35.9840   45.1790 N   0  0  0  0  0  0  0  0  0  0  0  0
   45.0620   36.0380   43.9090 C   0  0  0  0  0  0  0  0  0  0  0  0
   44.8660   37.2730   43.2430 N   0  0  0  0  0  0  0  0  0  0  0  0
   44.3688   33.6499   41.6721 H   0  0  0  0  0  0  0  0  0  0  0  0
   48.1810   35.4539   42.6625 H   0  0  0  0  0  0  0  0  0  0  0  0
   48.5132   35.5564   37.5866 H   0  0  0  0  0  0  0  0  0  0  0  0
   49.3212   33.8227   35.6948 H   0  0  0  0  0  0  0  0  0  0  0  0
   47.3544   31.6260   38.8260 H   0  0  0  0  0  0  0  0  0  0  0  0
   45.8631   32.9991   44.7256 H   0  0  0  0  0  0  0  0  0  0  0  0
   44.5962   34.3908   46.6660 H   0  0  0  0  0  0  0  0  0  0  0  0
   44.3924   38.0494   43.7266 H   0  0  0  0  0  0  0  0  0  0  0  0
   45.1971   37.3945   42.2752 H   0  0  0  0  0  0  0  0  0  0  0  0
  1  2  2  0
  2 12  1  0
  3  2  1  0
  4  3  2  0
  5  6  2  0
  5  4  1  0
  6  1  1  0
  7  5  1  0
  8  7  1  0
  9 10  1  0
  9  8  2  0
 10 11  2  0
 11  7  1  0
 12 16  1  0
 12 13  1  0
 13 14  2  0
 15 14  1  0
 16 15  2  0
 17 16  1  0
  1 18  1  0
  3 19  1  0
  8 20  1  0
  9 21  1  0
 11 22  1  0
 13 23  1  0
 14 24  1  0
 17 25  1  0
 17 26  1  0
M  ISO  7  18  14  19  14  20  14  21  14  22  14  23  14  24  14
M  END
>  <minimizedAffinity>  (1) 
-5.20605803

>  <minimizedRMSD>  (1) 
6.42596817

$$$$
