
     RDKit          3D

 26 28  0  0  0  0  0  0  0  0999 V2000
   45.1470   35.4620   42.1490 C   0  0  0  0  0  0  0  0  0  0  0  0
   45.9560   34.5070   41.5140 C   0  0  0  0  0  0  0  0  0  0  0  0
   45.3600   33.7130   40.5300 C   0  0  0  0  0  0  0  0  0  0  0  0
   44.0440   33.8940   40.2310 N   0  0  0  0  0  0  0  0  0  0  0  0
   43.3060   34.8420   40.8840 C   0  0  0  0  0  0  0  0  0  0  0  0
   43.8710   35.6330   41.8550 N   0  0  0  0  0  0  0  0  0  0  0  0
   41.9410   34.9180   40.4670 N   0  0  0  0  0  0  0  0  0  0  0  0
   41.7880   35.3760   39.2350 N   0  0  0  0  0  0  0  0  0  0  0  0
   40.4750   35.4080   38.9430 C   0  0  0  0  0  0  0  0  0  0  0  0
   39.8190   34.9520   40.0450 C   0  0  0  0  0  0  0  0  0  0  0  0
   40.7670   34.6400   41.0190 C   0  0  0  0  0  0  0  0  0  0  0  0
   47.2780   34.4330   41.9190 N   0  0  0  0  0  0  0  0  0  0  0  0
   47.7890   34.1540   43.1280 C   0  0  0  0  0  0  0  0  0  0  0  0
   49.2000   34.2080   42.9930 C   0  0  0  0  0  0  0  0  0  0  0  0
   49.4960   34.5110   41.7310 N   0  0  0  0  0  0  0  0  0  0  0  0
   48.3190   34.6540   41.0510 C   0  0  0  0  0  0  0  0  0  0  0  0
   48.4460   34.9800   39.6830 N   0  0  0  0  0  0  0  0  0  0  0  0
   45.5962   36.0969   42.9269 H   0  0  0  0  0  0  0  0  0  0  0  0
   45.9489   32.9487   40.0018 H   0  0  0  0  0  0  0  0  0  0  0  0
   40.0201   35.7384   37.9975 H   0  0  0  0  0  0  0  0  0  0  0  0
   38.7289   34.8476   40.1493 H   0  0  0  0  0  0  0  0  0  0  0  0
   40.5811   34.2472   42.0295 H   0  0  0  0  0  0  0  0  0  0  0  0
   47.2242   33.9277   44.0444 H   0  0  0  0  0  0  0  0  0  0  0  0
   49.9286   34.0292   43.7975 H   0  0  0  0  0  0  0  0  0  0  0  0
   47.6040   35.1045   39.1029 H   0  0  0  0  0  0  0  0  0  0  0  0
   49.3806   35.0933   39.2652 H   0  0  0  0  0  0  0  0  0  0  0  0
  2 12  1  0
  2  1  2  0
  3  2  1  0
  4  3  2  0
  4  5  1  0
  5  6  2  0
  6  1  1  0
  7  5  1  0
  7 11  1  0
  8  7  1  0
  9  8  2  0
  9 10  1  0
 10 11  2  0
 12 13  1  0
 14 13  2  0
 15 14  1  0
 16 15  2  0
 16 12  1  0
 17 16  1  0
  1 18  1  0
  3 19  1  0
  9 20  1  0
 10 21  1  0
 11 22  1  0
 13 23  1  0
 14 24  1  0
 17 25  1  0
 17 26  1  0
M  ISO  7  18  14  19  14  20  14  21  14  22  14  23  14  24  14
M  END
>  <minimizedAffinity>  (1) 
-4.97177649

>  <minimizedRMSD>  (1) 
6.74302006

$$$$
