
     RDKit          3D

 26 28  0  0  0  0  0  0  0  0999 V2000
   44.9300   34.6330   43.5240 C   0  0  0  0  0  0  0  0  0  0  0  0
   44.4090   33.7180   42.6030 C   0  0  0  0  0  0  0  0  0  0  0  0
   44.6120   32.3580   42.8600 C   0  0  0  0  0  0  0  0  0  0  0  0
   45.2930   31.9920   43.9760 N   0  0  0  0  0  0  0  0  0  0  0  0
   45.7790   32.9330   44.8410 C   0  0  0  0  0  0  0  0  0  0  0  0
   45.5940   34.2550   44.6100 N   0  0  0  0  0  0  0  0  0  0  0  0
   43.7360   34.2370   41.5110 N   0  0  0  0  0  0  0  0  0  0  0  0
   43.9570   34.0690   40.1990 C   0  0  0  0  0  0  0  0  0  0  0  0
   42.9770   34.8220   39.5150 C   0  0  0  0  0  0  0  0  0  0  0  0
   42.1970   35.4200   40.4110 N   0  0  0  0  0  0  0  0  0  0  0  0
   42.6530   35.0690   41.6410 C   0  0  0  0  0  0  0  0  0  0  0  0
   41.9310   35.6220   42.7460 N   0  0  0  0  0  0  0  0  0  0  0  0
   46.5080   32.5130   46.0320 C   0  0  0  0  0  0  0  0  0  0  0  0
   46.9300   31.2280   46.3040 C   0  0  0  0  0  0  0  0  0  0  0  0
   47.5680   31.2520   47.5040 N   0  0  0  0  0  0  0  0  0  0  0  0
   47.5230   32.5250   47.9300 C   0  0  0  0  0  0  0  0  0  0  0  0
   46.8880   33.3020   47.0580 N   0  0  0  0  0  0  0  0  0  0  0  0
   44.7839   35.7078   43.3414 H   0  0  0  0  0  0  0  0  0  0  0  0
   44.2253   31.5958   42.1676 H   0  0  0  0  0  0  0  0  0  0  0  0
   44.7510   33.4601   39.7420 H   0  0  0  0  0  0  0  0  0  0  0  0
   42.8758   34.9007   38.4225 H   0  0  0  0  0  0  0  0  0  0  0  0
   41.1255   36.2412   42.5768 H   0  0  0  0  0  0  0  0  0  0  0  0
   42.2169   35.4008   43.7105 H   0  0  0  0  0  0  0  0  0  0  0  0
   46.7779   30.3449   45.6660 H   0  0  0  0  0  0  0  0  0  0  0  0
   47.9555   32.8788   48.8775 H   0  0  0  0  0  0  0  0  0  0  0  0
   46.7184   34.3139   47.1486 H   0  0  0  0  0  0  0  0  0  0  0  0
  1  6  2  0
  2  3  2  0
  2  1  1  0
  3  4  1  0
  4  5  2  0
  5 13  1  0
  6  5  1  0
  7 11  1  0
  7  2  1  0
  8  7  1  0
  9  8  2  0
  9 10  1  0
 10 11  2  0
 11 12  1  0
 13 14  2  0
 13 17  1  0
 14 15  1  0
 15 16  2  0
 17 16  1  0
  1 18  1  0
  3 19  1  0
  8 20  1  0
  9 21  1  0
 12 22  1  0
 12 23  1  0
 14 24  1  0
 16 25  1  0
 17 26  1  0
M  ISO  7  18  14  19  14  20  14  21  14  24  14  25  14  26   9
M  END
>  <minimizedAffinity>  (1) 
-4.94214153

>  <minimizedRMSD>  (1) 
1.22079849

$$$$
