
     RDKit          3D

 20 21  0  0  0  0  0  0  0  0999 V2000
   43.4650   34.3440   41.3390 N   0  0  0  0  0  0  0  0  0  0  0  0
   43.7010   34.1770   40.0260 C   0  0  0  0  0  0  0  0  0  0  0  0
   42.6460   34.8310   39.3430 C   0  0  0  0  0  0  0  0  0  0  0  0
   41.8250   35.3610   40.2460 N   0  0  0  0  0  0  0  0  0  0  0  0
   42.3180   35.0680   41.4870 C   0  0  0  0  0  0  0  0  0  0  0  0
   41.5680   35.5560   42.5770 N   0  0  0  0  0  0  0  0  0  0  0  0
   44.7320   34.8780   43.2830 C   0  0  0  0  0  0  0  0  0  0  0  0
   44.2100   33.8910   42.4330 C   0  0  0  0  0  0  0  0  0  0  0  0
   44.4660   32.5460   42.7360 C   0  0  0  0  0  0  0  0  0  0  0  0
   45.2090   32.2800   43.8410 N   0  0  0  0  0  0  0  0  0  0  0  0
   45.6950   33.2580   44.6330 C   0  0  0  0  0  0  0  0  0  0  0  0
   45.4540   34.5780   44.3540 N   0  0  0  0  0  0  0  0  0  0  0  0
   46.6630   32.8590   46.0710 S   0  0  0  0  0  0  0  0  0  0  0  0
   44.5461   33.6390   39.5718 H   0  0  0  0  0  0  0  0  0  0  0  0
   42.5260   34.8905   38.2512 H   0  0  0  0  0  0  0  0  0  0  0  0
   40.7068   36.0955   42.4092 H   0  0  0  0  0  0  0  0  0  0  0  0
   41.8814   35.3729   43.5409 H   0  0  0  0  0  0  0  0  0  0  0  0
   44.5357   35.9357   43.0532 H   0  0  0  0  0  0  0  0  0  0  0  0
   44.0788   31.7354   42.1012 H   0  0  0  0  0  0  0  0  0  0  0  0
   45.9461   33.1545   47.2005 H   0  0  0  0  0  0  0  0  0  0  0  0
  1  5  1  0
  1  8  1  0
  2  1  1  0
  3  2  2  0
  3  4  1  0
  4  5  2  0
  5  6  1  0
  7 12  2  0
  8  9  2  0
  8  7  1  0
  9 10  1  0
 10 11  2  0
 11 13  1  0
 12 11  1  0
  2 14  1  0
  3 15  1  0
  6 16  1  0
  6 17  1  0
  7 18  1  0
  9 19  1  0
 13 20  1  0
M  ISO  5  14  14  15  14  18  14  19  14  20  11
M  END
>  <minimizedAffinity>  (1) 
-3.79789948

>  <minimizedRMSD>  (1) 
0.606765926

$$$$
