
     RDKit          3D

 25 26  0  0  0  0  0  0  0  0999 V2000
   41.4350   33.5040   40.2260 C   0  0  0  0  0  0  0  0  0  0  0  0
   42.4190   34.4710   39.9100 C   0  0  0  0  0  0  0  0  0  0  0  0
   42.1610   35.3230   38.8240 C   0  0  0  0  0  0  0  0  0  0  0  0
   40.9930   35.1740   38.1410 N   0  0  0  0  0  0  0  0  0  0  0  0
   40.0860   34.2270   38.4900 C   0  0  0  0  0  0  0  0  0  0  0  0
   40.3110   33.3930   39.5350 N   0  0  0  0  0  0  0  0  0  0  0  0
   43.5550   34.4970   40.7000 N   0  0  0  0  0  0  0  0  0  0  0  0
   44.7930   34.0780   40.4570 C   0  0  0  0  0  0  0  0  0  0  0  0
   45.5760   34.3360   41.5930 C   0  0  0  0  0  0  0  0  0  0  0  0
   44.7920   34.9080   42.5070 N   0  0  0  0  0  0  0  0  0  0  0  0
   43.5500   35.0130   41.9680 C   0  0  0  0  0  0  0  0  0  0  0  0
   42.5710   35.6100   42.8200 N   0  0  0  0  0  0  0  0  0  0  0  0
   38.8590   34.1780   37.6600 C   0  0  0  0  0  0  0  0  0  0  0  0
   38.2360   32.8110   37.8460 C   0  0  0  0  0  0  0  0  0  0  0  0
   41.6095   32.8233   41.0723 H   0  0  0  0  0  0  0  0  0  0  0  0
   42.8879   36.0950   38.5312 H   0  0  0  0  0  0  0  0  0  0  0  0
   45.1436   33.6095   39.5255 H   0  0  0  0  0  0  0  0  0  0  0  0
   46.6457   34.1071   41.7085 H   0  0  0  0  0  0  0  0  0  0  0  0
   42.8340   35.9259   43.7644 H   0  0  0  0  0  0  0  0  0  0  0  0
   41.6021   35.7246   42.4899 H   0  0  0  0  0  0  0  0  0  0  0  0
   39.1155   34.3326   36.6016 H   0  0  0  0  0  0  0  0  0  0  0  0
   38.1557   34.9679   37.9625 H   0  0  0  0  0  0  0  0  0  0  0  0
   38.1379   32.5958   38.9203 H   0  0  0  0  0  0  0  0  0  0  0  0
   37.2414   32.7944   37.3764 H   0  0  0  0  0  0  0  0  0  0  0  0
   38.8759   32.0494   37.3764 H   0  0  0  0  0  0  0  0  0  0  0  0
  2  1  2  0
  2  7  1  0
  3  2  1  0
  4  5  1  0
  4  3  2  0
  5  6  2  0
  6  1  1  0
  7 11  1  0
  8  7  1  0
  8  9  2  0
  9 10  1  0
 11 10  2  0
 11 12  1  0
 13 14  1  0
 13  5  1  0
  1 15  1  0
  3 16  1  0
  8 17  1  0
  9 18  1  0
 12 19  1  0
 12 20  1  0
 13 21  1  0
 13 22  1  0
 14 23  1  0
 14 24  1  0
 14 25  1  0
M  ISO  8  15  14  16  14  17  14  18  14  21   8  22   8  23   8  24   8
M  ISO  1  25   8
M  END
>  <minimizedAffinity>  (1) 
-4.40884924

>  <minimizedRMSD>  (1) 
6.34864807

$$$$
