
     RDKit          3D

 20 21  0  0  0  0  0  0  0  0999 V2000
   43.5650   34.5090   41.5310 N   0  0  0  0  0  0  0  0  0  0  0  0
   43.8490   34.3030   40.2470 C   0  0  0  0  0  0  0  0  0  0  0  0
   42.7740   34.7780   39.4810 C   0  0  0  0  0  0  0  0  0  0  0  0
   41.8530   35.2650   40.3230 N   0  0  0  0  0  0  0  0  0  0  0  0
   42.3270   35.1050   41.5840 C   0  0  0  0  0  0  0  0  0  0  0  0
   41.4680   35.5730   42.6230 N   0  0  0  0  0  0  0  0  0  0  0  0
   44.5810   35.2910   43.5300 C   0  0  0  0  0  0  0  0  0  0  0  0
   44.2910   34.2220   42.6730 C   0  0  0  0  0  0  0  0  0  0  0  0
   44.7580   32.9450   43.0350 C   0  0  0  0  0  0  0  0  0  0  0  0
   45.4610   32.8010   44.1860 N   0  0  0  0  0  0  0  0  0  0  0  0
   45.7200   33.8770   44.9900 C   0  0  0  0  0  0  0  0  0  0  0  0
   45.2750   35.1280   44.6570 N   0  0  0  0  0  0  0  0  0  0  0  0
   46.4380   33.7560   46.1730 O   0  0  0  0  0  0  0  0  0  0  0  0
   44.7669   33.8408   39.8548 H   0  0  0  0  0  0  0  0  0  0  0  0
   42.7004   34.7547   38.3837 H   0  0  0  0  0  0  0  0  0  0  0  0
   40.5587   35.9959   42.3881 H   0  0  0  0  0  0  0  0  0  0  0  0
   41.7573   35.4879   43.6079 H   0  0  0  0  0  0  0  0  0  0  0  0
   44.2249   36.2974   43.2650 H   0  0  0  0  0  0  0  0  0  0  0  0
   44.5556   32.0750   42.3930 H   0  0  0  0  0  0  0  0  0  0  0  0
   46.6084   34.5547   46.7325 H   0  0  0  0  0  0  0  0  0  0  0  0
  1  5  1  0
  1  8  1  0
  2  1  1  0
  3  2  2  0
  3  4  1  0
  4  5  2  0
  5  6  1  0
  7 12  2  0
  8  9  2  0
  8  7  1  0
  9 10  1  0
 10 11  2  0
 11 13  1  0
 12 11  1  0
  2 14  1  0
  3 15  1  0
  6 16  1  0
  6 17  1  0
  7 18  1  0
  9 19  1  0
 13 20  1  0
M  ISO  5  14  14  15  14  18  14  19  14  20   3
M  END
>  <minimizedAffinity>  (1) 
-4.19983196

>  <minimizedRMSD>  (1) 
0.235570773

$$$$
