
     RDKit          3D

 45 48  0  0  0  0  0  0  0  0999 V2000
   46.1680   33.2860   44.0220 C   0  0  0  0  0  0  0  0  0  0  0  0
   43.5120   35.0530   42.2570 C   0  0  0  0  0  0  0  0  0  0  0  0
   42.8630   34.0460   41.5490 C   0  0  0  0  0  0  0  0  0  0  0  0
   43.3340   32.7230   41.6720 C   0  0  0  0  0  0  0  0  0  0  0  0
   44.4120   32.5400   42.4940 N   0  0  0  0  0  0  0  0  0  0  0  0
   45.0070   33.5380   43.1570 C   0  0  0  0  0  0  0  0  0  0  0  0
   44.5580   34.8040   43.0410 N   0  0  0  0  0  0  0  0  0  0  0  0
   41.7760   34.4260   40.7570 N   0  0  0  0  0  0  0  0  0  0  0  0
   41.7520   34.9370   39.5220 C   0  0  0  0  0  0  0  0  0  0  0  0
   40.4070   35.1420   39.1870 C   0  0  0  0  0  0  0  0  0  0  0  0
   39.6470   34.7520   40.2220 N   0  0  0  0  0  0  0  0  0  0  0  0
   40.4850   34.3140   41.1840 C   0  0  0  0  0  0  0  0  0  0  0  0
   39.8460   33.8550   42.3710 N   0  0  0  0  0  0  0  0  0  0  0  0
   47.3600   34.1470   43.5960 C   0  0  0  0  0  0  0  0  0  0  0  0
   45.7530   33.7220   45.4400 C   0  0  0  0  0  0  0  0  0  0  0  0
   46.6500   31.8750   44.0260 C   0  0  0  0  0  0  0  0  0  0  0  0
   45.9140   30.9100   44.7530 N   0  0  0  0  0  0  0  0  0  0  0  0
   44.9420   30.0250   44.5600 C   0  0  0  0  0  0  0  0  0  0  0  0
   44.6520   29.3180   45.6890 N   0  0  0  0  0  0  0  0  0  0  0  0
   45.4770   29.7630   46.6720 C   0  0  0  0  0  0  0  0  0  0  0  0
   45.5310   29.3270   47.9670 C   0  0  0  0  0  0  0  0  0  0  0  0
   44.7860   28.4340   48.3970 O   0  0  0  0  0  0  0  0  0  0  0  0
   46.4420   29.9260   48.7530 N   0  0  0  0  0  0  0  0  0  0  0  0
   47.2240   30.8890   48.2340 C   0  0  0  0  0  0  0  0  0  0  0  0
   48.2040   31.5350   49.0730 N   0  0  0  0  0  0  0  0  0  0  0  0
   47.1320   31.2800   46.9550 N   0  0  0  0  0  0  0  0  0  0  0  0
   46.2480   30.7470   46.0670 C   0  0  0  0  0  0  0  0  0  0  0  0
   43.1489   36.0873   42.1657 H   0  0  0  0  0  0  0  0  0  0  0  0
   42.8616   31.8856   41.1375 H   0  0  0  0  0  0  0  0  0  0  0  0
   42.6240   35.1554   38.8881 H   0  0  0  0  0  0  0  0  0  0  0  0
   40.0366   35.5531   38.2363 H   0  0  0  0  0  0  0  0  0  0  0  0
   38.8188   33.8762   42.4441 H   0  0  0  0  0  0  0  0  0  0  0  0
   40.4110   33.5018   43.1565 H   0  0  0  0  0  0  0  0  0  0  0  0
   47.8794   34.5222   44.4901 H   0  0  0  0  0  0  0  0  0  0  0  0
   48.0544   33.5407   42.9959 H   0  0  0  0  0  0  0  0  0  0  0  0
   47.0026   34.9968   42.9959 H   0  0  0  0  0  0  0  0  0  0  0  0
   46.3124   33.1343   46.1828 H   0  0  0  0  0  0  0  0  0  0  0  0
   45.9757   34.7907   45.5749 H   0  0  0  0  0  0  0  0  0  0  0  0
   44.6746   33.5523   45.5749 H   0  0  0  0  0  0  0  0  0  0  0  0
   46.6791   31.5393   42.9789 H   0  0  0  0  0  0  0  0  0  0  0  0
   47.6172   31.9235   44.5477 H   0  0  0  0  0  0  0  0  0  0  0  0
   44.4291   29.8792   43.5979 H   0  0  0  0  0  0  0  0  0  0  0  0
   46.5399   29.6508   49.7407 H   0  0  0  0  0  0  0  0  0  0  0  0
   48.8077   32.2737   48.6847 H   0  0  0  0  0  0  0  0  0  0  0  0
   48.3000   31.2574   50.0602 H   0  0  0  0  0  0  0  0  0  0  0  0
  1 16  1  0
  1 15  1  0
  2  7  2  0
  3  4  2  0
  3  2  1  0
  4  5  1  0
  5  6  2  0
  6  1  1  0
  7  6  1  0
  8 12  1  0
  8  3  1  0
  9  8  1  0
 10  9  2  0
 10 11  1  0
 11 12  2  0
 12 13  1  0
 14  1  1  0
 16 17  1  0
 17 27  1  0
 18 17  1  0
 18 19  2  0
 19 20  1  0
 20 21  1  0
 21 22  2  0
 21 23  1  0
 24 23  1  0
 24 25  1  0
 26 24  2  0
 27 20  2  0
 27 26  1  0
  2 28  1  0
  4 29  1  0
  9 30  1  0
 10 31  1  0
 13 32  1  0
 13 33  1  0
 14 34  1  0
 14 35  1  0
 14 36  1  0
 15 37  1  0
 15 38  1  0
 15 39  1  0
 16 40  1  0
 16 41  1  0
 18 42  1  0
 23 43  1  0
 25 44  1  0
 25 45  1  0
M  ISO  8  28  14  29  14  30  14  31  14  34   8  35   8  36   8  37   8
M  ISO  6  38   8  39   8  40   8  41   8  42  14  43   9
M  END
>  <minimizedAffinity>  (1) 
-6.20117426

>  <minimizedRMSD>  (1) 
0.659629762

$$$$
