
     RDKit          3D

 28 28  0  0  0  0  0  0  0  0999 V2000
   45.9690   34.9040   43.2910 C   0  0  0  0  0  0  0  0  0  0  0  0
   46.4960   33.8320   44.0320 C   0  0  0  0  0  0  0  0  0  0  0  0
   46.0260   33.6210   45.3500 C   0  0  0  0  0  0  0  0  0  0  0  0
   45.0850   34.4780   45.8190 N   0  0  0  0  0  0  0  0  0  0  0  0
   44.5920   35.4910   45.1090 C   0  0  0  0  0  0  0  0  0  0  0  0
   45.0300   35.7020   43.8550 N   0  0  0  0  0  0  0  0  0  0  0  0
   46.3750   35.2200   41.9120 C   0  0  0  0  0  0  0  0  0  0  0  0
   47.8790   35.1700   41.8160 C   0  0  0  0  0  0  0  0  0  0  0  0
   45.8520   34.0810   41.0170 C   0  0  0  0  0  0  0  0  0  0  0  0
   47.5200   32.9530   43.4560 C   0  0  0  0  0  0  0  0  0  0  0  0
   46.9810   32.0050   42.4570 C   0  0  0  0  0  0  0  0  0  0  0  0
   48.7090   33.7480   43.0320 C   0  0  0  0  0  0  0  0  0  0  0  0
   46.4081   32.7958   45.9688 H   0  0  0  0  0  0  0  0  0  0  0  0
   43.8297   36.1525   45.5463 H   0  0  0  0  0  0  0  0  0  0  0  0
   45.9924   36.2090   41.6194 H   0  0  0  0  0  0  0  0  0  0  0  0
   48.3107   35.1556   42.8276 H   0  0  0  0  0  0  0  0  0  0  0  0
   48.1819   34.2613   41.2752 H   0  0  0  0  0  0  0  0  0  0  0  0
   48.2416   36.0566   41.2752 H   0  0  0  0  0  0  0  0  0  0  0  0
   45.4760   33.2621   41.6479 H   0  0  0  0  0  0  0  0  0  0  0  0
   45.0370   34.4585   40.3819 H   0  0  0  0  0  0  0  0  0  0  0  0
   46.6694   33.7089   40.3819 H   0  0  0  0  0  0  0  0  0  0  0  0
   47.8868   32.2743   44.2401 H   0  0  0  0  0  0  0  0  0  0  0  0
   46.5011   31.1610   42.9740 H   0  0  0  0  0  0  0  0  0  0  0  0
   46.2397   32.5184   41.8270 H   0  0  0  0  0  0  0  0  0  0  0  0
   47.8013   31.6305   41.8270 H   0  0  0  0  0  0  0  0  0  0  0  0
   49.2463   34.1072   43.9221 H   0  0  0  0  0  0  0  0  0  0  0  0
   49.3779   33.1149   42.4306 H   0  0  0  0  0  0  0  0  0  0  0  0
   48.3795   34.6081   42.4306 H   0  0  0  0  0  0  0  0  0  0  0  0
  1  6  2  0
  1  2  1  0
  2  3  2  0
  3  4  1  0
  5  4  2  0
  6  5  1  0
  7  1  1  0
  8  7  1  0
  9  7  1  0
 10  2  1  0
 11 10  1  0
 12 10  1  0
  3 13  1  0
  5 14  1  0
  7 15  1  0
  8 16  1  0
  8 17  1  0
  8 18  1  0
  9 19  1  0
  9 20  1  0
  9 21  1  0
 10 22  1  0
 11 23  1  0
 11 24  1  0
 11 25  1  0
 12 26  1  0
 12 27  1  0
 12 28  1  0
M  ISO  8  13  14  14  14  15   8  16   8  17   8  18   8  19   8  20   8
M  ISO  8  21   8  22   8  23   8  24   8  25   8  26   8  27   8  28   8
M  END
>  <minimizedAffinity>  (1) 
-3.88352728

>  <minimizedRMSD>  (1) 
1.76253307

$$$$
