
     RDKit          3D

 44 46  0  0  0  0  0  0  0  0999 V2000
   47.7170   33.3620   42.0550 C   0  0  0  0  0  0  0  0  0  0  0  0
   44.6750   35.3130   41.5850 C   0  0  0  0  0  0  0  0  0  0  0  0
   43.8700   34.4640   40.7960 C   0  0  0  0  0  0  0  0  0  0  0  0
   44.3790   33.2030   40.4230 C   0  0  0  0  0  0  0  0  0  0  0  0
   45.6360   32.9110   40.8700 N   0  0  0  0  0  0  0  0  0  0  0  0
   46.3680   33.7420   41.6140 C   0  0  0  0  0  0  0  0  0  0  0  0
   45.8960   34.9470   41.9760 N   0  0  0  0  0  0  0  0  0  0  0  0
   42.6100   34.9570   40.4460 N   0  0  0  0  0  0  0  0  0  0  0  0
   42.0270   35.0400   39.2480 C   0  0  0  0  0  0  0  0  0  0  0  0
   40.7590   35.6100   39.4330 C   0  0  0  0  0  0  0  0  0  0  0  0
   40.6110   35.8610   40.7600 N   0  0  0  0  0  0  0  0  0  0  0  0
   41.7440   35.4600   41.3750 C   0  0  0  0  0  0  0  0  0  0  0  0
   41.7600   35.6500   42.7780 N   0  0  0  0  0  0  0  0  0  0  0  0
   48.6180   33.0560   40.8550 C   0  0  0  0  0  0  0  0  0  0  0  0
   48.3140   34.6000   42.7550 C   0  0  0  0  0  0  0  0  0  0  0  0
   47.7990   32.1910   42.9530 C   0  0  0  0  0  0  0  0  0  0  0  0
   45.8400   31.7800   46.7370 C   0  0  0  0  0  0  0  0  0  0  0  0
   46.0750   33.0500   46.2690 C   0  0  0  0  0  0  0  0  0  0  0  0
   46.6870   33.1970   45.0690 C   0  0  0  0  0  0  0  0  0  0  0  0
   47.1190   32.1950   44.2280 C   0  0  0  0  0  0  0  0  0  0  0  0
   46.8560   30.9200   44.7500 C   0  0  0  0  0  0  0  0  0  0  0  0
   46.2370   30.7130   45.9640 C   0  0  0  0  0  0  0  0  0  0  0  0
   45.0540   31.5950   48.2780 S   0  0  0  0  0  0  0  0  0  0  0  0
   44.9820   30.1490   48.6950 O   0  0  0  0  0  0  0  0  0  0  0  0
   45.8270   32.3570   49.3290 O   0  0  0  0  0  0  0  0  0  0  0  0
   44.2868   36.2979   41.8839 H   0  0  0  0  0  0  0  0  0  0  0  0
   43.7991   32.4977   39.8096 H   0  0  0  0  0  0  0  0  0  0  0  0
   42.4621   34.7196   38.2898 H   0  0  0  0  0  0  0  0  0  0  0  0
   40.0185   35.8164   38.6462 H   0  0  0  0  0  0  0  0  0  0  0  0
   40.9453   36.0669   43.2506 H   0  0  0  0  0  0  0  0  0  0  0  0
   42.5864   35.3713   43.3260 H   0  0  0  0  0  0  0  0  0  0  0  0
   49.6032   32.7214   41.2121 H   0  0  0  0  0  0  0  0  0  0  0  0
   48.1602   32.2630   40.2455 H   0  0  0  0  0  0  0  0  0  0  0  0
   48.7378   33.9638   40.2455 H   0  0  0  0  0  0  0  0  0  0  0  0
   48.2515   34.4703   43.8455 H   0  0  0  0  0  0  0  0  0  0  0  0
   49.3671   34.7162   42.4593 H   0  0  0  0  0  0  0  0  0  0  0  0
   47.7491   35.4964   42.4593 H   0  0  0  0  0  0  0  0  0  0  0  0
   47.4051   31.3329   42.3886 H   0  0  0  0  0  0  0  0  0  0  0  0
   48.8609   32.1730   43.2393 H   0  0  0  0  0  0  0  0  0  0  0  0
   45.7726   33.9295   46.8563 H   0  0  0  0  0  0  0  0  0  0  0  0
   46.8575   34.2292   44.7292 H   0  0  0  0  0  0  0  0  0  0  0  0
   47.1588   30.0416   44.1612 H   0  0  0  0  0  0  0  0  0  0  0  0
   46.0589   29.6868   46.3177 H   0  0  0  0  0  0  0  0  0  0  0  0
   43.7788   32.0811   48.1574 H   0  0  0  0  0  0  0  0  0  0  0  0
  1 15  1  0
  1 16  1  0
  2  7  2  0
  3  2  1  0
  4  3  2  0
  4  5  1  0
  5  6  2  0
  6  7  1  0
  6  1  1  0
  8  3  1  0
  8 12  1  0
  9 10  2  0
  9  8  1  0
 10 11  1  0
 11 12  2  0
 12 13  1  0
 14  1  1  0
 16 20  1  0
 17 23  1  0
 18 17  2  0
 19 18  1  0
 20 21  1  0
 20 19  2  0
 21 22  2  0
 22 17  1  0
 23 24  2  0
 23 25  2  0
  2 26  1  0
  4 27  1  0
  9 28  1  0
 10 29  1  0
 13 30  1  0
 13 31  1  0
 14 32  1  0
 14 33  1  0
 14 34  1  0
 15 35  1  0
 15 36  1  0
 15 37  1  0
 16 38  1  0
 16 39  1  0
 18 40  1  0
 19 41  1  0
 21 42  1  0
 22 43  1  0
 23 44  1  0
M  ISO  8  26  14  27  14  28  14  29  14  32   8  33   8  34   8  35   8
M  ISO  8  36   8  37   8  38   8  39   8  40  14  41  14  42  14  43  14
M  ISO  1  44  11
M  END
>  <minimizedAffinity>  (1) 
-5.83851242

>  <minimizedRMSD>  (1) 
2.85207939

$$$$
