
     RDKit          3D

 39 41  0  0  0  0  0  0  0  0999 V2000
   45.4520   33.8760   43.7120 C   0  0  0  0  0  0  0  0  0  0  0  0
   42.8800   33.2340   41.2110 C   0  0  0  0  0  0  0  0  0  0  0  0
   42.5180   34.5220   40.7830 C   0  0  0  0  0  0  0  0  0  0  0  0
   43.1670   35.6460   41.3590 C   0  0  0  0  0  0  0  0  0  0  0  0
   44.1140   35.3760   42.3070 N   0  0  0  0  0  0  0  0  0  0  0  0
   44.4270   34.1270   42.6850 C   0  0  0  0  0  0  0  0  0  0  0  0
   43.8140   33.0520   42.1410 N   0  0  0  0  0  0  0  0  0  0  0  0
   41.5280   34.6030   39.8030 N   0  0  0  0  0  0  0  0  0  0  0  0
   40.2100   34.3760   39.9030 C   0  0  0  0  0  0  0  0  0  0  0  0
   39.6490   34.5910   38.6360 C   0  0  0  0  0  0  0  0  0  0  0  0
   40.6460   34.9440   37.8040 N   0  0  0  0  0  0  0  0  0  0  0  0
   41.7970   34.9510   38.5190 C   0  0  0  0  0  0  0  0  0  0  0  0
   42.9570   35.3040   37.7910 N   0  0  0  0  0  0  0  0  0  0  0  0
   46.8290   34.3270   43.2430 C   0  0  0  0  0  0  0  0  0  0  0  0
   45.0630   34.7240   44.9350 C   0  0  0  0  0  0  0  0  0  0  0  0
   45.5740   32.4440   44.1240 C   0  0  0  0  0  0  0  0  0  0  0  0
   46.2780   32.1920   45.3820 C   0  0  0  0  0  0  0  0  0  0  0  0
   46.8770   30.9280   45.4670 C   0  0  0  0  0  0  0  0  0  0  0  0
   47.5850   30.5180   46.5850 C   0  0  0  0  0  0  0  0  0  0  0  0
   47.6870   31.3810   47.6120 N   0  0  0  0  0  0  0  0  0  0  0  0
   47.1150   32.5900   47.5330 C   0  0  0  0  0  0  0  0  0  0  0  0
   46.4320   32.9880   46.4550 N   0  0  0  0  0  0  0  0  0  0  0  0
   42.3816   32.3588   40.7687 H   0  0  0  0  0  0  0  0  0  0  0  0
   42.9216   36.6755   41.0593 H   0  0  0  0  0  0  0  0  0  0  0  0
   39.6684   34.0761   40.8122 H   0  0  0  0  0  0  0  0  0  0  0  0
   38.5864   34.4895   38.3703 H   0  0  0  0  0  0  0  0  0  0  0  0
   43.8722   35.3327   38.2627 H   0  0  0  0  0  0  0  0  0  0  0  0
   42.8866   35.5324   36.7891 H   0  0  0  0  0  0  0  0  0  0  0  0
   47.4640   34.5350   44.1168 H   0  0  0  0  0  0  0  0  0  0  0  0
   47.2883   33.5323   42.6367 H   0  0  0  0  0  0  0  0  0  0  0  0
   46.7292   35.2394   42.6367 H   0  0  0  0  0  0  0  0  0  0  0  0
   45.3141   34.1767   45.8555 H   0  0  0  0  0  0  0  0  0  0  0  0
   45.6147   35.6754   44.9120 H   0  0  0  0  0  0  0  0  0  0  0  0
   43.9820   34.9264   44.9120 H   0  0  0  0  0  0  0  0  0  0  0  0
   44.5576   32.0346   44.2202 H   0  0  0  0  0  0  0  0  0  0  0  0
   46.1832   31.9639   43.3441 H   0  0  0  0  0  0  0  0  0  0  0  0
   46.7817   30.2372   44.6163 H   0  0  0  0  0  0  0  0  0  0  0  0
   48.0478   29.5212   46.6314 H   0  0  0  0  0  0  0  0  0  0  0  0
   47.2108   33.2792   48.3850 H   0  0  0  0  0  0  0  0  0  0  0  0
  1 16  1  0
  1 15  1  0
  2  7  2  0
  3  2  1  0
  3  4  2  0
  4  5  1  0
  5  6  2  0
  6  1  1  0
  7  6  1  0
  8  9  1  0
  8  3  1  0
 10  9  2  0
 11 12  2  0
 11 10  1  0
 12  8  1  0
 13 12  1  0
 14  1  1  0
 16 17  1  0
 17 18  2  0
 17 22  1  0
 18 19  1  0
 19 20  2  0
 21 20  1  0
 22 21  2  0
  2 23  1  0
  4 24  1  0
  9 25  1  0
 10 26  1  0
 13 27  1  0
 13 28  1  0
 14 29  1  0
 14 30  1  0
 14 31  1  0
 15 32  1  0
 15 33  1  0
 15 34  1  0
 16 35  1  0
 16 36  1  0
 18 37  1  0
 19 38  1  0
 21 39  1  0
M  ISO  8  23  14  24  14  25  14  26  14  29   8  30   8  31   8  32   8
M  ISO  7  33   8  34   8  35   8  36   8  37  14  38  14  39  14
M  END
>  <minimizedAffinity>  (1) 
-5.47652197

>  <minimizedRMSD>  (1) 
2.87055635

$$$$
