
     RDKit          3D

 41 43  0  0  0  0  0  0  0  0999 V2000
   45.3700   34.1750   43.5450 C   0  0  0  0  0  0  0  0  0  0  0  0
   42.8260   33.3470   41.0700 C   0  0  0  0  0  0  0  0  0  0  0  0
   42.3520   34.6110   40.6630 C   0  0  0  0  0  0  0  0  0  0  0  0
   42.9150   35.7690   41.2470 C   0  0  0  0  0  0  0  0  0  0  0  0
   43.8930   35.5510   42.1750 N   0  0  0  0  0  0  0  0  0  0  0  0
   44.3150   34.3360   42.5340 C   0  0  0  0  0  0  0  0  0  0  0  0
   43.7870   33.2260   41.9860 N   0  0  0  0  0  0  0  0  0  0  0  0
   41.3440   34.6090   39.6980 N   0  0  0  0  0  0  0  0  0  0  0  0
   40.0640   34.2300   39.7930 C   0  0  0  0  0  0  0  0  0  0  0  0
   39.4750   34.4260   38.5320 C   0  0  0  0  0  0  0  0  0  0  0  0
   40.4290   34.9240   37.7030 N   0  0  0  0  0  0  0  0  0  0  0  0
   41.5700   35.0350   38.4140 C   0  0  0  0  0  0  0  0  0  0  0  0
   42.6730   35.5420   37.6950 N   0  0  0  0  0  0  0  0  0  0  0  0
   44.9810   34.8590   44.8570 C   0  0  0  0  0  0  0  0  0  0  0  0
   45.4810   32.6640   43.8250 C   0  0  0  0  0  0  0  0  0  0  0  0
   46.7010   34.7150   43.1640 C   0  0  0  0  0  0  0  0  0  0  0  0
   47.4840   34.0070   42.1740 C   0  0  0  0  0  0  0  0  0  0  0  0
   48.4510   33.0290   42.2070 C   0  0  0  0  0  0  0  0  0  0  0  0
   49.0940   32.5170   41.1030 C   0  0  0  0  0  0  0  0  0  0  0  0
   48.7760   32.9900   39.8530 C   0  0  0  0  0  0  0  0  0  0  0  0
   47.8160   33.9700   39.7400 C   0  0  0  0  0  0  0  0  0  0  0  0
   47.1840   34.4670   40.8820 C   0  0  0  0  0  0  0  0  0  0  0  0
   42.3932   32.4405   40.6217 H   0  0  0  0  0  0  0  0  0  0  0  0
   42.5860   36.7818   40.9713 H   0  0  0  0  0  0  0  0  0  0  0  0
   39.5653   33.8377   40.6916 H   0  0  0  0  0  0  0  0  0  0  0  0
   38.4293   34.2142   38.2644 H   0  0  0  0  0  0  0  0  0  0  0  0
   43.5831   35.6587   38.1629 H   0  0  0  0  0  0  0  0  0  0  0  0
   42.5681   35.7954   36.7022 H   0  0  0  0  0  0  0  0  0  0  0  0
   45.3274   34.2498   45.7049 H   0  0  0  0  0  0  0  0  0  0  0  0
   45.4486   35.8535   44.9047 H   0  0  0  0  0  0  0  0  0  0  0  0
   43.8872   34.9655   44.9047 H   0  0  0  0  0  0  0  0  0  0  0  0
   45.4936   32.4924   44.9115 H   0  0  0  0  0  0  0  0  0  0  0  0
   44.6186   32.1446   43.3817 H   0  0  0  0  0  0  0  0  0  0  0  0
   46.4101   32.2762   43.3817 H   0  0  0  0  0  0  0  0  0  0  0  0
   46.5389   35.7330   42.7801 H   0  0  0  0  0  0  0  0  0  0  0  0
   47.2963   34.6286   44.0850 H   0  0  0  0  0  0  0  0  0  0  0  0
   48.7318   32.6253   43.1910 H   0  0  0  0  0  0  0  0  0  0  0  0
   49.8576   31.7341   41.2208 H   0  0  0  0  0  0  0  0  0  0  0  0
   49.2792   32.5930   38.9590 H   0  0  0  0  0  0  0  0  0  0  0  0
   47.5461   34.3624   38.7484 H   0  0  0  0  0  0  0  0  0  0  0  0
   46.4206   35.2502   40.7644 H   0  0  0  0  0  0  0  0  0  0  0  0
  1 15  1  0
  1 14  1  0
  2  7  2  0
  3  2  1  0
  3  4  2  0
  4  5  1  0
  5  6  2  0
  6  1  1  0
  7  6  1  0
  8  9  1  0
  8  3  1  0
 10  9  2  0
 11 12  2  0
 11 10  1  0
 12  8  1  0
 13 12  1  0
 16  1  1  0
 17 18  2  0
 17 16  1  0
 19 18  1  0
 20 19  2  0
 21 20  1  0
 21 22  2  0
 22 17  1  0
  2 23  1  0
  4 24  1  0
  9 25  1  0
 10 26  1  0
 13 27  1  0
 13 28  1  0
 14 29  1  0
 14 30  1  0
 14 31  1  0
 15 32  1  0
 15 33  1  0
 15 34  1  0
 16 35  1  0
 16 36  1  0
 18 37  1  0
 19 38  1  0
 20 39  1  0
 21 40  1  0
 22 41  1  0
M  ISO  8  23  14  24  14  25  14  26  14  29   8  30   8  31   8  32   8
M  ISO  8  33   8  34   8  35   8  36   8  37  14  38  14  39  14  40  14
M  ISO  1  41  14
M  END
>  <minimizedAffinity>  (1) 
-5.60990906

>  <minimizedRMSD>  (1) 
4.07993746

$$$$
