
     RDKit          3D

 38 40  0  0  0  0  0  0  0  0999 V2000
   43.4490   34.6620   41.7500 C   0  0  0  0  0  0  0  0  0  0  0  0
   42.5950   33.6740   41.2680 C   0  0  0  0  0  0  0  0  0  0  0  0
   42.9480   32.3160   41.4730 C   0  0  0  0  0  0  0  0  0  0  0  0
   44.1220   32.0930   42.1400 N   0  0  0  0  0  0  0  0  0  0  0  0
   44.9090   33.0800   42.5850 C   0  0  0  0  0  0  0  0  0  0  0  0
   44.5740   34.3650   42.3910 N   0  0  0  0  0  0  0  0  0  0  0  0
   41.4380   34.0930   40.6100 N   0  0  0  0  0  0  0  0  0  0  0  0
   41.2860   34.5710   39.3720 C   0  0  0  0  0  0  0  0  0  0  0  0
   39.9130   34.8400   39.2070 C   0  0  0  0  0  0  0  0  0  0  0  0
   39.2770   34.5200   40.3400 N   0  0  0  0  0  0  0  0  0  0  0  0
   40.2070   34.0610   41.2040 C   0  0  0  0  0  0  0  0  0  0  0  0
   39.7020   33.6730   42.4700 N   0  0  0  0  0  0  0  0  0  0  0  0
   46.1570   32.7960   43.3050 C   0  0  0  0  0  0  0  0  0  0  0  0
   46.5040   33.9470   44.2520 C   0  0  0  0  0  0  0  0  0  0  0  0
   45.9250   31.5390   44.1450 C   0  0  0  0  0  0  0  0  0  0  0  0
   47.3490   32.6040   42.4250 C   0  0  0  0  0  0  0  0  0  0  0  0
   48.2050   33.7210   42.2360 N   0  0  0  0  0  0  0  0  0  0  0  0
   47.9590   34.6030   41.2160 C   0  0  0  0  0  0  0  0  0  0  0  0
   48.8520   35.6410   41.1710 C   0  0  0  0  0  0  0  0  0  0  0  0
   49.6980   35.4000   42.2140 N   0  0  0  0  0  0  0  0  0  0  0  0
   49.2870   34.2770   42.8050 C   0  0  0  0  0  0  0  0  0  0  0  0
   43.1848   35.7186   41.5957 H   0  0  0  0  0  0  0  0  0  0  0  0
   42.3151   31.4899   41.1167 H   0  0  0  0  0  0  0  0  0  0  0  0
   42.0794   34.7248   38.6257 H   0  0  0  0  0  0  0  0  0  0  0  0
   39.4426   35.2452   38.2990 H   0  0  0  0  0  0  0  0  0  0  0  0
   38.6945   33.7522   42.6689 H   0  0  0  0  0  0  0  0  0  0  0  0
   40.3425   33.3118   43.1913 H   0  0  0  0  0  0  0  0  0  0  0  0
   46.4019   33.6083   45.2936 H   0  0  0  0  0  0  0  0  0  0  0  0
   47.5397   34.2708   44.0716 H   0  0  0  0  0  0  0  0  0  0  0  0
   45.8198   34.7892   44.0716 H   0  0  0  0  0  0  0  0  0  0  0  0
   45.9728   31.7978   45.2131 H   0  0  0  0  0  0  0  0  0  0  0  0
   44.9345   31.1206   43.9130 H   0  0  0  0  0  0  0  0  0  0  0  0
   46.7009   30.7946   43.9130 H   0  0  0  0  0  0  0  0  0  0  0  0
   47.9535   31.7941   42.8594 H   0  0  0  0  0  0  0  0  0  0  0  0
   46.9336   32.3944   41.4282 H   0  0  0  0  0  0  0  0  0  0  0  0
   47.1277   34.4888   40.5047 H   0  0  0  0  0  0  0  0  0  0  0  0
   48.8805   36.4775   40.4572 H   0  0  0  0  0  0  0  0  0  0  0  0
   49.7904   33.8441   43.6820 H   0  0  0  0  0  0  0  0  0  0  0  0
  1  6  2  0
  2  3  2  0
  2  1  1  0
  3  4  1  0
  4  5  2  0
  5 13  1  0
  6  5  1  0
  7 11  1  0
  7  2  1  0
  8  7  1  0
  9  8  2  0
  9 10  1  0
 10 11  2  0
 11 12  1  0
 13 15  1  0
 13 14  1  0
 16 13  1  0
 17 16  1  0
 17 21  1  0
 18 17  1  0
 19 18  2  0
 19 20  1  0
 20 21  2  0
  1 22  1  0
  3 23  1  0
  8 24  1  0
  9 25  1  0
 12 26  1  0
 12 27  1  0
 14 28  1  0
 14 29  1  0
 14 30  1  0
 15 31  1  0
 15 32  1  0
 15 33  1  0
 16 34  1  0
 16 35  1  0
 18 36  1  0
 19 37  1  0
 21 38  1  0
M  ISO  8  22  14  23  14  24  14  25  14  28   8  29   8  30   8  31   8
M  ISO  7  32   8  33   8  34   8  35   8  36  14  37  14  38  14
M  END
>  <minimizedAffinity>  (1) 
-5.09943295

>  <minimizedRMSD>  (1) 
2.32127929

$$$$
