
     RDKit          3D

 46 48  0  0  0  0  0  0  0  0999 V2000
   45.6960   34.1040   43.0780 C   0  0  0  0  0  0  0  0  0  0  0  0
   43.1050   33.3870   40.6060 C   0  0  0  0  0  0  0  0  0  0  0  0
   42.4720   34.6150   40.4180 C   0  0  0  0  0  0  0  0  0  0  0  0
   42.9380   35.7160   41.1500 C   0  0  0  0  0  0  0  0  0  0  0  0
   43.9840   35.5360   42.0070 N   0  0  0  0  0  0  0  0  0  0  0  0
   44.5640   34.3230   42.1520 C   0  0  0  0  0  0  0  0  0  0  0  0
   44.1240   33.2460   41.4500 N   0  0  0  0  0  0  0  0  0  0  0  0
   41.4150   34.6370   39.5050 N   0  0  0  0  0  0  0  0  0  0  0  0
   40.1710   34.1820   39.6300 C   0  0  0  0  0  0  0  0  0  0  0  0
   39.4870   34.4360   38.4370 C   0  0  0  0  0  0  0  0  0  0  0  0
   40.3570   35.0540   37.6050 N   0  0  0  0  0  0  0  0  0  0  0  0
   41.5360   35.1750   38.2620 C   0  0  0  0  0  0  0  0  0  0  0  0
   42.5630   35.8020   37.5300 N   0  0  0  0  0  0  0  0  0  0  0  0
   46.8380   35.0270   42.7720 C   0  0  0  0  0  0  0  0  0  0  0  0
   45.1580   34.4610   44.4890 C   0  0  0  0  0  0  0  0  0  0  0  0
   46.1530   32.6860   43.1080 C   0  0  0  0  0  0  0  0  0  0  0  0
   47.3710   32.3410   42.5190 N   0  0  0  0  0  0  0  0  0  0  0  0
   47.3550   32.0670   41.1250 C   0  0  0  0  0  0  0  0  0  0  0  0
   48.4530   32.8550   40.3850 C   0  0  0  0  0  0  0  0  0  0  0  0
   49.7990   32.4330   40.9130 C   0  0  0  0  0  0  0  0  0  0  0  0
   49.8060   32.5630   42.4040 C   0  0  0  0  0  0  0  0  0  0  0  0
   48.4950   33.1710   42.8490 C   0  0  0  0  0  0  0  0  0  0  0  0
   42.7525   32.5112   40.0414 H   0  0  0  0  0  0  0  0  0  0  0  0
   42.4698   36.7048   41.0357 H   0  0  0  0  0  0  0  0  0  0  0  0
   39.7519   33.6899   40.5201 H   0  0  0  0  0  0  0  0  0  0  0  0
   38.4398   34.1815   38.2166 H   0  0  0  0  0  0  0  0  0  0  0  0
   43.4917   35.9342   37.9553 H   0  0  0  0  0  0  0  0  0  0  0  0
   42.3853   36.1283   36.5694 H   0  0  0  0  0  0  0  0  0  0  0  0
   47.2817   35.3856   43.7125 H   0  0  0  0  0  0  0  0  0  0  0  0
   47.5995   34.4876   42.1896 H   0  0  0  0  0  0  0  0  0  0  0  0
   46.4703   35.8847   42.1896 H   0  0  0  0  0  0  0  0  0  0  0  0
   45.8167   34.0239   45.2539 H   0  0  0  0  0  0  0  0  0  0  0  0
   45.1346   35.5544   44.6066 H   0  0  0  0  0  0  0  0  0  0  0  0
   44.1414   34.0577   44.6066 H   0  0  0  0  0  0  0  0  0  0  0  0
   46.2157   32.3930   44.1664 H   0  0  0  0  0  0  0  0  0  0  0  0
   45.4102   32.1634   42.4874 H   0  0  0  0  0  0  0  0  0  0  0  0
   47.5205   30.9907   40.9698 H   0  0  0  0  0  0  0  0  0  0  0  0
   46.3780   32.3734   40.7229 H   0  0  0  0  0  0  0  0  0  0  0  0
   48.3116   33.9326   40.5545 H   0  0  0  0  0  0  0  0  0  0  0  0
   48.3955   32.6490   39.3060 H   0  0  0  0  0  0  0  0  0  0  0  0
   49.9919   31.3866   40.6341 H   0  0  0  0  0  0  0  0  0  0  0  0
   50.5823   33.0743   40.4826 H   0  0  0  0  0  0  0  0  0  0  0  0
   49.9261   31.5695   42.8607 H   0  0  0  0  0  0  0  0  0  0  0  0
   50.6409   33.2067   42.7180 H   0  0  0  0  0  0  0  0  0  0  0  0
   48.3717   34.1464   42.3557 H   0  0  0  0  0  0  0  0  0  0  0  0
   48.5265   33.2762   43.9435 H   0  0  0  0  0  0  0  0  0  0  0  0
  1 16  1  0
  1 15  1  0
  2  7  2  0
  3  2  1  0
  3  4  2  0
  4  5  1  0
  5  6  2  0
  6  1  1  0
  7  6  1  0
  8  9  1  0
  8  3  1  0
 10  9  2  0
 11 12  2  0
 11 10  1  0
 12  8  1  0
 13 12  1  0
 14  1  1  0
 17 22  1  0
 17 16  1  0
 18 17  1  0
 19 20  1  0
 19 18  1  0
 20 21  1  0
 21 22  1  0
  2 23  1  0
  4 24  1  0
  9 25  1  0
 10 26  1  0
 13 27  1  0
 13 28  1  0
 14 29  1  0
 14 30  1  0
 14 31  1  0
 15 32  1  0
 15 33  1  0
 15 34  1  0
 16 35  1  0
 16 36  1  0
 18 37  1  0
 18 38  1  0
 19 39  1  0
 19 40  1  0
 20 41  1  0
 20 42  1  0
 21 43  1  0
 21 44  1  0
 22 45  1  0
 22 46  1  0
M  ISO  8  23  14  24  14  25  14  26  14  29   8  30   8  31   8  32   8
M  ISO  8  33   8  34   8  35   8  36   8  37  13  38  13  39  13  40  13
M  ISO  6  41  13  42  13  43  13  44  13  45  13  46  13
M  END
>  <minimizedAffinity>  (1) 
-5.10728884

>  <minimizedRMSD>  (1) 
2.83931017

$$$$
