
     RDKit          3D

 44 46  0  0  0  0  0  0  0  0999 V2000
   43.7010   35.1620   42.1600 C   0  0  0  0  0  0  0  0  0  0  0  0
   42.9520   34.1620   41.5390 C   0  0  0  0  0  0  0  0  0  0  0  0
   43.3460   32.8200   41.7120 C   0  0  0  0  0  0  0  0  0  0  0  0
   44.4400   32.5800   42.4800 N   0  0  0  0  0  0  0  0  0  0  0  0
   45.1320   33.5730   43.0600 C   0  0  0  0  0  0  0  0  0  0  0  0
   44.7610   34.8730   42.9000 N   0  0  0  0  0  0  0  0  0  0  0  0
   41.8520   34.5730   40.7750 N   0  0  0  0  0  0  0  0  0  0  0  0
   41.8180   35.1240   39.5540 C   0  0  0  0  0  0  0  0  0  0  0  0
   40.4640   35.3470   39.2430 C   0  0  0  0  0  0  0  0  0  0  0  0
   39.7230   34.9260   40.2810 N   0  0  0  0  0  0  0  0  0  0  0  0
   40.5730   34.4510   41.2200 C   0  0  0  0  0  0  0  0  0  0  0  0
   39.9500   33.9670   42.3870 N   0  0  0  0  0  0  0  0  0  0  0  0
   46.3400   33.3230   43.8880 C   0  0  0  0  0  0  0  0  0  0  0  0
   46.0680   33.5330   45.3450 C   0  0  0  0  0  0  0  0  0  0  0  0
   46.6970   31.8310   43.6680 C   0  0  0  0  0  0  0  0  0  0  0  0
   47.5040   34.1500   43.4540 C   0  0  0  0  0  0  0  0  0  0  0  0
   48.1860   33.8020   42.2780 N   0  0  0  0  0  0  0  0  0  0  0  0
   48.1390   32.4770   41.7910 C   0  0  0  0  0  0  0  0  0  0  0  0
   48.7560   32.4910   40.3770 C   0  0  0  0  0  0  0  0  0  0  0  0
   48.0210   33.2140   39.4780 O   0  0  0  0  0  0  0  0  0  0  0  0
   47.2330   34.1390   40.1120 C   0  0  0  0  0  0  0  0  0  0  0  0
   48.0280   34.7810   41.2270 C   0  0  0  0  0  0  0  0  0  0  0  0
   43.4047   36.2136   42.0323 H   0  0  0  0  0  0  0  0  0  0  0  0
   42.7877   31.9969   41.2421 H   0  0  0  0  0  0  0  0  0  0  0  0
   42.6835   35.3574   38.9165 H   0  0  0  0  0  0  0  0  0  0  0  0
   40.0794   35.7891   38.3120 H   0  0  0  0  0  0  0  0  0  0  0  0
   38.9237   33.9912   42.4708 H   0  0  0  0  0  0  0  0  0  0  0  0
   40.5208   33.5889   43.1565 H   0  0  0  0  0  0  0  0  0  0  0  0
   46.8004   32.9676   45.9399 H   0  0  0  0  0  0  0  0  0  0  0  0
   46.1508   34.6038   45.5828 H   0  0  0  0  0  0  0  0  0  0  0  0
   45.0530   33.1819   45.5828 H   0  0  0  0  0  0  0  0  0  0  0  0
   46.8157   31.3348   44.6425 H   0  0  0  0  0  0  0  0  0  0  0  0
   45.8908   31.3406   43.1027 H   0  0  0  0  0  0  0  0  0  0  0  0
   47.6378   31.7586   43.1027 H   0  0  0  0  0  0  0  0  0  0  0  0
   47.1369   35.1784   43.3212 H   0  0  0  0  0  0  0  0  0  0  0  0
   48.2495   33.9923   44.2473 H   0  0  0  0  0  0  0  0  0  0  0  0
   48.7183   31.8125   42.4489 H   0  0  0  0  0  0  0  0  0  0  0  0
   47.1035   32.1069   41.7626 H   0  0  0  0  0  0  0  0  0  0  0  0
   49.7630   32.9292   40.4388 H   0  0  0  0  0  0  0  0  0  0  0  0
   48.7806   31.4510   40.0196 H   0  0  0  0  0  0  0  0  0  0  0  0
   46.9174   34.9094   39.3931 H   0  0  0  0  0  0  0  0  0  0  0  0
   46.3416   33.6460   40.5271 H   0  0  0  0  0  0  0  0  0  0  0  0
   49.0149   35.0904   40.8526 H   0  0  0  0  0  0  0  0  0  0  0  0
   47.5061   35.6716   41.6071 H   0  0  0  0  0  0  0  0  0  0  0  0
  1  6  2  0
  2  3  2  0
  2  1  1  0
  3  4  1  0
  4  5  2  0
  5 13  1  0
  6  5  1  0
  7 11  1  0
  7  2  1  0
  8  7  1  0
  9  8  2  0
  9 10  1  0
 10 11  2  0
 11 12  1  0
 13 14  1  0
 15 13  1  0
 16 13  1  0
 17 16  1  0
 18 17  1  0
 19 18  1  0
 20 21  1  0
 20 19  1  0
 21 22  1  0
 22 17  1  0
  1 23  1  0
  3 24  1  0
  8 25  1  0
  9 26  1  0
 12 27  1  0
 12 28  1  0
 14 29  1  0
 14 30  1  0
 14 31  1  0
 15 32  1  0
 15 33  1  0
 15 34  1  0
 16 35  1  0
 16 36  1  0
 18 37  1  0
 18 38  1  0
 19 39  1  0
 19 40  1  0
 21 41  1  0
 21 42  1  0
 22 43  1  0
 22 44  1  0
M  ISO  8  23  14  24  14  25  14  26  14  29   8  30   8  31   8  32   8
M  ISO  8  33   8  34   8  35   8  36   8  37  13  38  13  39  13  40  13
M  ISO  4  41  13  42  13  43  13  44  13
M  END
>  <minimizedAffinity>  (1) 
-5.2575593

>  <minimizedRMSD>  (1) 
1.82185256

$$$$
