
     RDKit          3D

 38 40  0  0  0  0  0  0  0  0999 V2000
   41.8900   35.3000   40.6920 C   0  0  0  0  0  0  0  0  0  0  0  0
   41.4430   34.0250   40.2920 C   0  0  0  0  0  0  0  0  0  0  0  0
   42.1270   32.8900   40.7500 C   0  0  0  0  0  0  0  0  0  0  0  0
   43.2020   33.0780   41.5670 N   0  0  0  0  0  0  0  0  0  0  0  0
   43.5960   34.3290   41.9270 C   0  0  0  0  0  0  0  0  0  0  0  0
   42.9460   35.4380   41.4940 N   0  0  0  0  0  0  0  0  0  0  0  0
   40.3260   33.9960   39.4500 N   0  0  0  0  0  0  0  0  0  0  0  0
   40.2050   34.3330   38.1730 C   0  0  0  0  0  0  0  0  0  0  0  0
   38.8860   34.1270   37.7800 C   0  0  0  0  0  0  0  0  0  0  0  0
   38.2240   33.6600   38.8490 N   0  0  0  0  0  0  0  0  0  0  0  0
   39.1080   33.5780   39.8760 C   0  0  0  0  0  0  0  0  0  0  0  0
   38.5670   33.0970   41.1010 N   0  0  0  0  0  0  0  0  0  0  0  0
   44.7580   34.5630   42.8120 C   0  0  0  0  0  0  0  0  0  0  0  0
   46.0100   34.8660   42.0210 C   0  0  0  0  0  0  0  0  0  0  0  0
   44.4130   35.7320   43.7160 C   0  0  0  0  0  0  0  0  0  0  0  0
   45.0670   33.3490   43.6740 C   0  0  0  0  0  0  0  0  0  0  0  0
   46.1030   33.7120   44.7000 C   0  0  0  0  0  0  0  0  0  0  0  0
   45.8870   33.3500   46.1290 C   0  0  0  0  0  0  0  0  0  0  0  0
   46.9450   32.6570   45.3420 C   0  0  0  0  0  0  0  0  0  0  0  0
   41.3593   36.1957   40.3369 H   0  0  0  0  0  0  0  0  0  0  0  0
   41.8061   31.8789   40.4590 H   0  0  0  0  0  0  0  0  0  0  0  0
   41.0134   34.7125   37.5308 H   0  0  0  0  0  0  0  0  0  0  0  0
   38.4654   34.3123   36.7806 H   0  0  0  0  0  0  0  0  0  0  0  0
   37.5716   32.8384   41.1581 H   0  0  0  0  0  0  0  0  0  0  0  0
   39.1708   33.0074   41.9307 H   0  0  0  0  0  0  0  0  0  0  0  0
   46.8412   35.0671   42.7129 H   0  0  0  0  0  0  0  0  0  0  0  0
   46.2612   34.0027   41.3872 H   0  0  0  0  0  0  0  0  0  0  0  0
   45.8387   35.7486   41.3872 H   0  0  0  0  0  0  0  0  0  0  0  0
   44.5045   35.4219   44.7674 H   0  0  0  0  0  0  0  0  0  0  0  0
   45.1036   36.5650   43.5179 H   0  0  0  0  0  0  0  0  0  0  0  0
   43.3808   36.0565   43.5179 H   0  0  0  0  0  0  0  0  0  0  0  0
   44.1493   33.0169   44.1815 H   0  0  0  0  0  0  0  0  0  0  0  0
   45.4499   32.5368   43.0386 H   0  0  0  0  0  0  0  0  0  0  0  0
   46.3145   34.6405   44.1494 H   0  0  0  0  0  0  0  0  0  0  0  0
   46.1676   34.0573   46.9234 H   0  0  0  0  0  0  0  0  0  0  0  0
   45.0224   33.0224   46.7249 H   0  0  0  0  0  0  0  0  0  0  0  0
   46.8172   31.6022   45.0574 H   0  0  0  0  0  0  0  0  0  0  0  0
   48.0254   32.4921   45.4663 H   0  0  0  0  0  0  0  0  0  0  0  0
  1  6  2  0
  2  1  1  0
  2  3  2  0
  3  4  1  0
  4  5  2  0
  5 13  1  0
  6  5  1  0
  7 11  1  0
  7  2  1  0
  8  7  1  0
  9  8  2  0
  9 10  1  0
 10 11  2  0
 11 12  1  0
 13 16  1  0
 13 15  1  0
 14 13  1  0
 16 17  1  0
 17 19  1  0
 17 18  1  0
 19 18  1  0
  1 20  1  0
  3 21  1  0
  8 22  1  0
  9 23  1  0
 12 24  1  0
 12 25  1  0
 14 26  1  0
 14 27  1  0
 14 28  1  0
 15 29  1  0
 15 30  1  0
 15 31  1  0
 16 32  1  0
 16 33  1  0
 17 34  1  0
 18 35  1  0
 18 36  1  0
 19 37  1  0
 19 38  1  0
M  ISO  8  20  14  21  14  22  14  23  14  26   8  27   8  28   8  29   8
M  ISO  8  30   8  31   8  32   8  33   8  34  13  35  13  36  13  37  13
M  ISO  1  38  13
M  END
>  <minimizedAffinity>  (1) 
-5.15802765

>  <minimizedRMSD>  (1) 
2.29785633

$$$$
