
     RDKit          3D

 27 28  0  0  1  0  0  0  0  0999 V2000
   45.6960   33.7910   42.4420 C   0  0  2  0  0  0  0  0  0  0  0  0
   44.9870   35.2270   42.4430 C   0  0  0  0  0  0  0  0  0  0  0  0
   44.6020   35.7410   43.7350 C   0  0  0  0  0  0  0  0  0  0  0  0
   44.9670   34.9590   44.9480 C   0  0  0  0  0  0  0  0  0  0  0  0
   45.9230   33.8580   44.8240 C   0  0  0  0  0  0  0  0  0  0  0  0
   46.6620   33.8370   43.5330 C   0  0  0  0  0  0  0  0  0  0  0  0
   47.5270   34.4460   40.9620 C   0  0  0  0  0  0  0  0  0  0  0  0
   46.3110   33.7080   41.0870 C   0  0  0  0  0  0  0  0  0  0  0  0
   45.7070   32.9960   39.9520 C   0  0  0  0  0  0  0  0  0  0  0  0
   46.3630   33.0700   38.7750 N   0  0  0  0  0  0  0  0  0  0  0  0
   47.5270   33.7750   38.6790 C   0  0  0  0  0  0  0  0  0  0  0  0
   48.0780   34.4320   39.7340 N   0  0  0  0  0  0  0  0  0  0  0  0
   48.2250   35.3220   41.8790 C   0  0  0  0  0  0  0  0  0  0  0  0
   47.2890   36.1980   42.4750 F   0  0  0  0  0  0  0  0  0  0  0  0
   49.3410   35.9630   41.5920 F   0  0  0  0  0  0  0  0  0  0  0  0
   48.6040   34.5680   43.0510 F   0  0  0  0  0  0  0  0  0  0  0  0
   45.0574   32.9101   42.6038 H   0  0  0  0  0  0  0  0  0  0  0  0
   44.8045   35.7878   41.5144 H   0  0  0  0  0  0  0  0  0  0  0  0
   44.0512   36.6892   43.8218 H   0  0  0  0  0  0  0  0  0  0  0  0
   45.3872   35.6698   45.6748 H   0  0  0  0  0  0  0  0  0  0  0  0
   44.0282   34.4610   45.2318 H   0  0  0  0  0  0  0  0  0  0  0  0
   46.6557   33.9433   45.6400 H   0  0  0  0  0  0  0  0  0  0  0  0
   45.3408   32.9259   44.8711 H   0  0  0  0  0  0  0  0  0  0  0  0
   47.3096   32.9488   43.4916 H   0  0  0  0  0  0  0  0  0  0  0  0
   47.2857   34.7387   43.4435 H   0  0  0  0  0  0  0  0  0  0  0  0
   44.7685   32.4318   40.0565 H   0  0  0  0  0  0  0  0  0  0  0  0
   48.0412   33.8135   37.7074 H   0  0  0  0  0  0  0  0  0  0  0  0
  1  2  1  0
  1  6  1  0
  2  3  2  0
  3  4  1  0
  5  4  1  0
  6  5  1  0
  7  8  2  0
  7 13  1  0
  8  1  1  0
  9  8  1  0
 10  9  2  0
 11 10  1  0
 11 12  2  0
 12  7  1  0
 13 14  1  0
 13 16  1  0
 15 13  1  0
  1 17  1  1
  2 18  1  0
  3 19  1  0
  4 20  1  0
  4 21  1  0
  5 22  1  0
  5 23  1  0
  6 24  1  0
  6 25  1  0
  9 26  1  0
 11 27  1  0
M  ISO  8  17  13  18  13  19  13  20  13  21  13  22  13  23  13  24  13
M  ISO  3  25  13  26  14  27  14
M  END
>  <minimizedAffinity>  (1) 
-4.87411022

>  <minimizedRMSD>  (1) 
6.10044956

$$$$
