
     RDKit          3D

 32 33  0  0  0  0  0  0  0  0999 V2000
   43.5660   35.1880   42.1480 C   0  0  0  0  0  0  0  0  0  0  0  0
   42.8370   34.1620   41.5160 C   0  0  0  0  0  0  0  0  0  0  0  0
   43.2440   32.8380   41.7080 C   0  0  0  0  0  0  0  0  0  0  0  0
   44.3360   32.5910   42.5040 N   0  0  0  0  0  0  0  0  0  0  0  0
   44.9990   33.6120   43.0870 C   0  0  0  0  0  0  0  0  0  0  0  0
   44.6190   34.9040   42.9120 N   0  0  0  0  0  0  0  0  0  0  0  0
   41.7580   34.5630   40.7420 N   0  0  0  0  0  0  0  0  0  0  0  0
   41.7100   35.1080   39.5310 C   0  0  0  0  0  0  0  0  0  0  0  0
   40.3650   35.3230   39.2010 C   0  0  0  0  0  0  0  0  0  0  0  0
   39.6150   34.8970   40.2400 N   0  0  0  0  0  0  0  0  0  0  0  0
   40.4640   34.4350   41.1740 C   0  0  0  0  0  0  0  0  0  0  0  0
   39.8300   33.9400   42.3540 N   0  0  0  0  0  0  0  0  0  0  0  0
   46.1790   33.3960   43.9520 C   0  0  0  0  0  0  0  0  0  0  0  0
   47.3960   34.1260   43.4270 C   0  0  0  0  0  0  0  0  0  0  0  0
   45.8230   33.9010   45.3370 C   0  0  0  0  0  0  0  0  0  0  0  0
   46.5470   31.9230   44.0450 C   0  0  0  0  0  0  0  0  0  0  0  0
   46.2270   31.3850   45.7500 S   0  0  0  0  0  0  0  0  0  0  0  0
   43.2620   36.2360   42.0089 H   0  0  0  0  0  0  0  0  0  0  0  0
   42.6999   32.0098   41.2305 H   0  0  0  0  0  0  0  0  0  0  0  0
   42.5762   35.3488   38.8972 H   0  0  0  0  0  0  0  0  0  0  0  0
   39.9882   35.7600   38.2645 H   0  0  0  0  0  0  0  0  0  0  0  0
   38.8031   33.9564   42.4324 H   0  0  0  0  0  0  0  0  0  0  0  0
   40.3996   33.5665   43.1266 H   0  0  0  0  0  0  0  0  0  0  0  0
   47.9995   34.4880   44.2725 H   0  0  0  0  0  0  0  0  0  0  0  0
   47.9986   33.4401   42.8134 H   0  0  0  0  0  0  0  0  0  0  0  0
   47.0746   34.9806   42.8134 H   0  0  0  0  0  0  0  0  0  0  0  0
   46.2826   33.2490   46.0944 H   0  0  0  0  0  0  0  0  0  0  0  0
   46.1982   34.9276   45.4606 H   0  0  0  0  0  0  0  0  0  0  0  0
   44.7300   33.8927   45.4606 H   0  0  0  0  0  0  0  0  0  0  0  0
   45.9324   31.3377   43.3452 H   0  0  0  0  0  0  0  0  0  0  0  0
   47.6047   31.7713   43.7836 H   0  0  0  0  0  0  0  0  0  0  0  0
   46.7664   32.2918   46.6238 H   0  0  0  0  0  0  0  0  0  0  0  0
  1  6  2  0
  2  3  2  0
  2  1  1  0
  3  4  1  0
  4  5  2  0
  5 13  1  0
  6  5  1  0
  7 11  1  0
  7  2  1  0
  8  7  1  0
  9  8  2  0
  9 10  1  0
 10 11  2  0
 11 12  1  0
 13 16  1  0
 13 15  1  0
 14 13  1  0
 16 17  1  0
  1 18  1  0
  3 19  1  0
  8 20  1  0
  9 21  1  0
 12 22  1  0
 12 23  1  0
 14 24  1  0
 14 25  1  0
 14 26  1  0
 15 27  1  0
 15 28  1  0
 15 29  1  0
 16 30  1  0
 16 31  1  0
 17 32  1  0
M  ISO  8  18  14  19  14  20  14  21  14  24   8  25   8  26   8  27   8
M  ISO  5  28   8  29   8  30   8  31   8  32  11
M  END
>  <minimizedAffinity>  (1) 
-4.59273052

>  <minimizedRMSD>  (1) 
0.399125099

$$$$
