
     RDKit          3D

 20 20  0  0  0  0  0  0  0  0999 V2000
   45.0760   35.6860   43.7390 C   0  0  0  0  0  0  0  0  0  0  0  0
   45.9040   34.5640   43.4680 C   0  0  0  0  0  0  0  0  0  0  0  0
   46.0830   33.6610   44.5140 C   0  0  0  0  0  0  0  0  0  0  0  0
   45.4750   33.8870   45.7090 N   0  0  0  0  0  0  0  0  0  0  0  0
   44.6920   34.9680   45.9300 C   0  0  0  0  0  0  0  0  0  0  0  0
   44.5000   35.8600   44.9370 N   0  0  0  0  0  0  0  0  0  0  0  0
   46.5500   34.3380   42.1750 C   0  0  0  0  0  0  0  0  0  0  0  0
   45.5750   34.3910   41.0530 C   0  0  0  0  0  0  0  0  0  0  0  0
   47.6850   35.3350   42.0320 C   0  0  0  0  0  0  0  0  0  0  0  0
   44.8740   36.6050   42.7260 O   0  0  0  0  0  0  0  0  0  0  0  0
   46.7128   32.7701   44.3737 H   0  0  0  0  0  0  0  0  0  0  0  0
   44.2165   35.1179   46.9105 H   0  0  0  0  0  0  0  0  0  0  0  0
   46.9688   33.3217   42.1327 H   0  0  0  0  0  0  0  0  0  0  0  0
   44.5535   34.4465   41.4572 H   0  0  0  0  0  0  0  0  0  0  0  0
   45.7740   35.2797   40.4360 H   0  0  0  0  0  0  0  0  0  0  0  0
   45.6765   33.4860   40.4360 H   0  0  0  0  0  0  0  0  0  0  0  0
   48.0327   35.6404   43.0299 H   0  0  0  0  0  0  0  0  0  0  0  0
   48.5153   34.8689   41.4812 H   0  0  0  0  0  0  0  0  0  0  0  0
   47.3298   36.2184   41.4812 H   0  0  0  0  0  0  0  0  0  0  0  0
   45.3021   36.4710   41.8435 H   0  0  0  0  0  0  0  0  0  0  0  0
  1  6  2  0
  2  1  1  0
  2  3  2  0
  3  4  1  0
  4  5  2  0
  6  5  1  0
  7  2  1  0
  8  7  1  0
  9  7  1  0
 10  1  1  0
  3 11  1  0
  5 12  1  0
  7 13  1  0
  8 14  1  0
  8 15  1  0
  8 16  1  0
  9 17  1  0
  9 18  1  0
  9 19  1  0
 10 20  1  0
M  ISO  8  11  14  12  14  13   8  14   8  15   8  16   8  17   8  18   8
M  ISO  2  19   8  20   3
M  END
>  <minimizedAffinity>  (1) 
-3.76269031

>  <minimizedRMSD>  (1) 
0.702438593

$$$$
