
     RDKit          3D

 32 33  0  0  0  0  0  0  0  0999 V2000
   43.5460   35.1880   42.2340 C   0  0  0  0  0  0  0  0  0  0  0  0
   42.8420   34.1760   41.5520 C   0  0  0  0  0  0  0  0  0  0  0  0
   43.2400   32.8340   41.7280 C   0  0  0  0  0  0  0  0  0  0  0  0
   44.2950   32.5880   42.5580 N   0  0  0  0  0  0  0  0  0  0  0  0
   44.9430   33.5950   43.1930 C   0  0  0  0  0  0  0  0  0  0  0  0
   44.5730   34.8840   43.0340 N   0  0  0  0  0  0  0  0  0  0  0  0
   41.7910   34.5970   40.7450 N   0  0  0  0  0  0  0  0  0  0  0  0
   41.7870   35.1590   39.5510 C   0  0  0  0  0  0  0  0  0  0  0  0
   40.4610   35.3880   39.1720 C   0  0  0  0  0  0  0  0  0  0  0  0
   39.6650   34.9450   40.1800 N   0  0  0  0  0  0  0  0  0  0  0  0
   40.4790   34.4630   41.1390 C   0  0  0  0  0  0  0  0  0  0  0  0
   39.8040   33.9520   42.2810 N   0  0  0  0  0  0  0  0  0  0  0  0
   46.0860   33.3560   44.0940 C   0  0  0  0  0  0  0  0  0  0  0  0
   47.3610   33.9630   43.5480 C   0  0  0  0  0  0  0  0  0  0  0  0
   45.7350   33.9580   45.4440 C   0  0  0  0  0  0  0  0  0  0  0  0
   46.3620   31.8760   44.2670 C   0  0  0  0  0  0  0  0  0  0  0  0
   45.3930   31.3810   45.1410 O   0  0  0  0  0  0  0  0  0  0  0  0
   43.2475   36.2391   42.1069 H   0  0  0  0  0  0  0  0  0  0  0  0
   42.7177   32.0138   41.2137 H   0  0  0  0  0  0  0  0  0  0  0  0
   42.6775   35.4058   38.9542 H   0  0  0  0  0  0  0  0  0  0  0  0
   40.1236   35.8438   38.2294 H   0  0  0  0  0  0  0  0  0  0  0  0
   38.7751   33.9725   42.3231 H   0  0  0  0  0  0  0  0  0  0  0  0
   40.3439   33.5612   43.0663 H   0  0  0  0  0  0  0  0  0  0  0  0
   48.0075   34.2708   44.3831 H   0  0  0  0  0  0  0  0  0  0  0  0
   47.8870   33.2187   42.9321 H   0  0  0  0  0  0  0  0  0  0  0  0
   47.1149   34.8406   42.9321 H   0  0  0  0  0  0  0  0  0  0  0  0
   46.1145   33.3072   46.2455 H   0  0  0  0  0  0  0  0  0  0  0  0
   46.1941   34.9537   45.5320 H   0  0  0  0  0  0  0  0  0  0  0  0
   44.6423   34.0490   45.5320 H   0  0  0  0  0  0  0  0  0  0  0  0
   46.2934   31.3627   43.2965 H   0  0  0  0  0  0  0  0  0  0  0  0
   47.3734   31.7087   44.6658 H   0  0  0  0  0  0  0  0  0  0  0  0
   45.6844   31.5299   46.0754 H   0  0  0  0  0  0  0  0  0  0  0  0
  1  6  2  0
  2  3  2  0
  2  1  1  0
  3  4  1  0
  4  5  2  0
  5 13  1  0
  6  5  1  0
  7 11  1  0
  7  2  1  0
  8  7  1  0
  9  8  2  0
  9 10  1  0
 10 11  2  0
 11 12  1  0
 13 16  1  0
 13 15  1  0
 14 13  1  0
 16 17  1  0
  1 18  1  0
  3 19  1  0
  8 20  1  0
  9 21  1  0
 12 22  1  0
 12 23  1  0
 14 24  1  0
 14 25  1  0
 14 26  1  0
 15 27  1  0
 15 28  1  0
 15 29  1  0
 16 30  1  0
 16 31  1  0
 17 32  1  0
M  ISO  8  18  14  19  14  20  14  21  14  24   8  25   8  26   8  27   8
M  ISO  5  28   8  29   8  30   8  31   8  32   3
M  END
>  <minimizedAffinity>  (1) 
-4.76294661

>  <minimizedRMSD>  (1) 
0.227488548

$$$$
