
     RDKit          3D

 26 27  0  0  1  0  0  0  0  0999 V2000
   46.4530   33.3490   45.4160 C   0  0  2  0  0  0  0  0  0  0  0  0
   45.1140   33.9970   44.8830 C   0  0  0  0  0  0  0  0  0  0  0  0
   45.2010   34.7220   43.6350 C   0  0  0  0  0  0  0  0  0  0  0  0
   46.4850   34.7800   42.9280 C   0  0  0  0  0  0  0  0  0  0  0  0
   47.6420   34.0820   43.4840 C   0  0  0  0  0  0  0  0  0  0  0  0
   47.2590   32.8950   44.3000 C   0  0  0  0  0  0  0  0  0  0  0  0
   45.1770   32.7160   47.4200 C   0  0  0  0  0  0  0  0  0  0  0  0
   46.0060   32.2860   46.3610 C   0  0  0  0  0  0  0  0  0  0  0  0
   46.4780   30.9190   46.2920 C   0  0  0  0  0  0  0  0  0  0  0  0
   46.0810   30.0890   47.2950 N   0  0  0  0  0  0  0  0  0  0  0  0
   45.2750   30.5340   48.3080 C   0  0  0  0  0  0  0  0  0  0  0  0
   44.8340   31.8220   48.3660 N   0  0  0  0  0  0  0  0  0  0  0  0
   44.7070   34.0450   47.5140 N   0  0  0  0  0  0  0  0  0  0  0  0
   47.1191   34.0432   45.9493 H   0  0  0  0  0  0  0  0  0  0  0  0
   44.1658   33.9016   45.4324 H   0  0  0  0  0  0  0  0  0  0  0  0
   44.3145   35.2243   43.2205 H   0  0  0  0  0  0  0  0  0  0  0  0
   46.7594   35.8423   42.8485 H   0  0  0  0  0  0  0  0  0  0  0  0
   46.2874   34.2459   41.9869 H   0  0  0  0  0  0  0  0  0  0  0  0
   48.2831   33.7474   42.6551 H   0  0  0  0  0  0  0  0  0  0  0  0
   48.1681   34.7853   44.1463 H   0  0  0  0  0  0  0  0  0  0  0  0
   46.6788   32.1921   43.6841 H   0  0  0  0  0  0  0  0  0  0  0  0
   48.1599   32.3821   44.6678 H   0  0  0  0  0  0  0  0  0  0  0  0
   47.1232   30.5697   45.4724 H   0  0  0  0  0  0  0  0  0  0  0  0
   44.9744   29.8309   49.0987 H   0  0  0  0  0  0  0  0  0  0  0  0
   44.9652   34.7347   46.7939 H   0  0  0  0  0  0  0  0  0  0  0  0
   44.1061   34.3242   48.3026 H   0  0  0  0  0  0  0  0  0  0  0  0
  1  8  1  0
  2  1  1  0
  3  2  2  0
  4  5  1  0
  4  3  1  0
  5  6  1  0
  6  1  1  0
  7 13  1  0
  7 12  2  0
  8  7  1  0
  9  8  2  0
  9 10  1  0
 10 11  2  0
 11 12  1  0
  1 14  1  1
  2 15  1  0
  3 16  1  0
  4 17  1  0
  4 18  1  0
  5 19  1  0
  5 20  1  0
  6 21  1  0
  6 22  1  0
  9 23  1  0
 11 24  1  0
 13 25  1  0
 13 26  1  0
M  ISO  8  14  13  15  13  16  13  17  13  18  13  19  13  20  13  21  13
M  ISO  3  22  13  23  14  24  14
M  END
>  <minimizedAffinity>  (1) 
-4.55707836

>  <minimizedRMSD>  (1) 
0.986710191

$$$$
