
     RDKit          3D

 34 36  0  0  1  0  0  0  0  0999 V2000
   47.0450   34.2590   41.2970 C   0  0  0  0  0  0  0  0  0  0  0  0
   45.8500   33.5600   41.5910 C   0  0  0  0  0  0  0  0  0  0  0  0
   45.1500   32.7300   40.6140 C   0  0  0  0  0  0  0  0  0  0  0  0
   45.7000   32.6520   39.3940 N   0  0  0  0  0  0  0  0  0  0  0  0
   46.8540   33.3240   39.1100 C   0  0  0  0  0  0  0  0  0  0  0  0
   47.4900   34.0960   40.0450 N   0  0  0  0  0  0  0  0  0  0  0  0
   45.4290   33.8130   43.0000 C   0  0  2  0  0  0  0  0  0  0  0  0
   44.6580   35.2110   42.8880 C   0  0  0  0  0  0  0  0  0  0  0  0
   44.3730   35.8470   44.1490 C   0  0  0  0  0  0  0  0  0  0  0  0
   44.7860   35.1890   45.3970 C   0  0  0  0  0  0  0  0  0  0  0  0
   45.5090   33.9210   45.2300 C   0  0  0  0  0  0  0  0  0  0  0  0
   46.4160   33.9020   44.0070 C   0  0  0  0  0  0  0  0  0  0  0  0
   47.3890   33.1830   37.7590 C   0  0  0  0  0  0  0  0  0  0  0  0
   48.4460   33.8840   37.2690 C   0  0  0  0  0  0  0  0  0  0  0  0
   48.5990   33.4490   35.9980 N   0  0  0  0  0  0  0  0  0  0  0  0
   47.6500   32.5060   35.7340 C   0  0  0  0  0  0  0  0  0  0  0  0
   46.8930   32.3410   36.8380 N   0  0  0  0  0  0  0  0  0  0  0  0
   47.8350   35.1710   42.0820 C   0  0  0  0  0  0  0  0  0  0  0  0
   46.9760   36.2250   42.4980 F   0  0  0  0  0  0  0  0  0  0  0  0
   48.9700   35.7070   41.6790 F   0  0  0  0  0  0  0  0  0  0  0  0
   48.2290   34.5850   43.2800 F   0  0  0  0  0  0  0  0  0  0  0  0
   44.2211   32.1974   40.8659 H   0  0  0  0  0  0  0  0  0  0  0  0
   44.8593   32.9373   43.3443 H   0  0  0  0  0  0  0  0  0  0  0  0
   44.3681   35.6522   41.9229 H   0  0  0  0  0  0  0  0  0  0  0  0
   43.8516   36.8152   44.1776 H   0  0  0  0  0  0  0  0  0  0  0  0
   45.4393   35.8826   45.9466 H   0  0  0  0  0  0  0  0  0  0  0  0
   43.8570   34.9408   45.9313 H   0  0  0  0  0  0  0  0  0  0  0  0
   46.1256   33.7501   46.1248 H   0  0  0  0  0  0  0  0  0  0  0  0
   44.7554   33.1321   45.0894 H   0  0  0  0  0  0  0  0  0  0  0  0
   47.0870   33.0304   44.0048 H   0  0  0  0  0  0  0  0  0  0  0  0
   47.1070   34.7532   43.9177 H   0  0  0  0  0  0  0  0  0  0  0  0
   49.0469   34.6415   37.7934 H   0  0  0  0  0  0  0  0  0  0  0  0
   47.5233   31.9704   34.7816 H   0  0  0  0  0  0  0  0  0  0  0  0
   46.0957   31.6990   36.9517 H   0  0  0  0  0  0  0  0  0  0  0  0
  1  2  2  0
  1 18  1  0
  2  7  1  0
  3  2  1  0
  4  3  2  0
  5  4  1  0
  5  6  2  0
  6  1  1  0
  7 12  1  0
  8  7  1  0
  8  9  2  0
  9 10  1  0
 11 10  1  0
 12 11  1  0
 13  5  1  0
 14 13  2  0
 15 14  1  0
 16 15  2  0
 16 17  1  0
 17 13  1  0
 18 19  1  0
 18 21  1  0
 20 18  1  0
  3 22  1  0
  7 23  1  1
  8 24  1  0
  9 25  1  0
 10 26  1  0
 10 27  1  0
 11 28  1  0
 11 29  1  0
 12 30  1  0
 12 31  1  0
 14 32  1  0
 16 33  1  0
 17 34  1  0
M  ISO  8  22  14  23  13  24  13  25  13  26  13  27  13  28  13  29  13
M  ISO  5  30  13  31  13  32  14  33  14  34   9
M  END
>  <minimizedAffinity>  (1) 
-5.48857689

>  <minimizedRMSD>  (1) 
0.826489151

$$$$
