
     RDKit          3D

 25 25  0  0  0  0  0  0  0  0999 V2000
   45.7030   34.7260   43.6780 C   0  0  0  0  0  0  0  0  0  0  0  0
   46.8210   34.0050   43.1900 C   0  0  0  0  0  0  0  0  0  0  0  0
   47.4000   33.0750   44.0550 C   0  0  0  0  0  0  0  0  0  0  0  0
   46.8700   32.9140   45.2920 N   0  0  0  0  0  0  0  0  0  0  0  0
   45.8180   33.5990   45.7370 C   0  0  0  0  0  0  0  0  0  0  0  0
   45.2470   34.5010   44.9170 N   0  0  0  0  0  0  0  0  0  0  0  0
   47.3640   34.2010   41.8420 C   0  0  0  0  0  0  0  0  0  0  0  0
   46.3080   34.1650   40.7960 C   0  0  0  0  0  0  0  0  0  0  0  0
   48.2230   35.4250   41.8220 C   0  0  0  0  0  0  0  0  0  0  0  0
   45.0490   35.7160   42.8230 C   0  0  0  0  0  0  0  0  0  0  0  0
   45.1780   37.1110   43.4600 C   0  0  0  0  0  0  0  0  0  0  0  0
   48.2713   32.4830   43.7382 H   0  0  0  0  0  0  0  0  0  0  0  0
   45.4250   33.4316   46.7507 H   0  0  0  0  0  0  0  0  0  0  0  0
   48.0141   33.3526   41.5821 H   0  0  0  0  0  0  0  0  0  0  0  0
   45.3184   34.1313   41.2751 H   0  0  0  0  0  0  0  0  0  0  0  0
   46.3816   35.0662   40.1695 H   0  0  0  0  0  0  0  0  0  0  0  0
   46.4428   33.2709   40.1695 H   0  0  0  0  0  0  0  0  0  0  0  0
   48.4416   35.7365   42.8541 H   0  0  0  0  0  0  0  0  0  0  0  0
   49.1648   35.2035   41.2986 H   0  0  0  0  0  0  0  0  0  0  0  0
   47.6945   36.2354   41.2986 H   0  0  0  0  0  0  0  0  0  0  0  0
   43.9848   35.4600   42.7138 H   0  0  0  0  0  0  0  0  0  0  0  0
   45.5293   35.7195   41.8334 H   0  0  0  0  0  0  0  0  0  0  0  0
   45.1692   37.0159   44.5558 H   0  0  0  0  0  0  0  0  0  0  0  0
   46.1228   37.5744   43.1397 H   0  0  0  0  0  0  0  0  0  0  0  0
   44.3342   37.7398   43.1397 H   0  0  0  0  0  0  0  0  0  0  0  0
  1  6  2  0
  2  1  1  0
  2  3  2  0
  3  4  1  0
  4  5  2  0
  6  5  1  0
  7  2  1  0
  8  7  1  0
  9  7  1  0
 10 11  1  0
 10  1  1  0
  3 12  1  0
  5 13  1  0
  7 14  1  0
  8 15  1  0
  8 16  1  0
  8 17  1  0
  9 18  1  0
  9 19  1  0
  9 20  1  0
 10 21  1  0
 10 22  1  0
 11 23  1  0
 11 24  1  0
 11 25  1  0
M  ISO  8  12  14  13  14  14   8  15   8  16   8  17   8  18   8  19   8
M  ISO  6  20   8  21   8  22   8  23   8  24   8  25   8
M  END
>  <minimizedAffinity>  (1) 
-3.60011888

>  <minimizedRMSD>  (1) 
1.43975675

$$$$
