
     RDKit          3D

 32 34  0  0  0  0  0  0  0  0999 V2000
   47.7500   34.0110   42.4610 C   0  0  0  0  0  0  0  0  0  0  0  0
   48.5730   35.1200   42.5610 C   0  0  0  0  0  0  0  0  0  0  0  0
   49.0690   35.7910   41.4670 C   0  0  0  0  0  0  0  0  0  0  0  0
   48.7070   35.3080   40.2280 C   0  0  0  0  0  0  0  0  0  0  0  0
   47.8780   34.1930   40.1030 C   0  0  0  0  0  0  0  0  0  0  0  0
   47.4220   33.5750   41.2260 N   0  0  0  0  0  0  0  0  0  0  0  0
   47.5500   33.7570   38.7900 N   0  0  0  0  0  0  0  0  0  0  0  0
   48.3960   34.0510   37.7860 C   0  0  0  0  0  0  0  0  0  0  0  0
   48.0550   33.6160   36.5220 C   0  0  0  0  0  0  0  0  0  0  0  0
   46.8720   32.9150   36.3940 C   0  0  0  0  0  0  0  0  0  0  0  0
   46.5470   32.4810   35.0780 N   0  0  0  0  0  0  0  0  0  0  0  0
   46.0570   32.6490   37.4460 N   0  0  0  0  0  0  0  0  0  0  0  0
   46.3960   33.0770   38.6780 C   0  0  0  0  0  0  0  0  0  0  0  0
   45.6570   32.8420   39.6700 O   0  0  0  0  0  0  0  0  0  0  0  0
   47.2500   33.3350   43.6520 C   0  0  0  0  0  0  0  0  0  0  0  0
   47.7210   32.1980   43.9200 O   0  0  0  0  0  0  0  0  0  0  0  0
   46.2450   33.9860   44.4720 C   0  0  0  0  0  0  0  0  0  0  0  0
   46.0560   33.4800   45.7670 C   0  0  0  0  0  0  0  0  0  0  0  0
   45.1020   34.0910   46.5580 C   0  0  0  0  0  0  0  0  0  0  0  0
   44.4140   35.1370   46.0320 N   0  0  0  0  0  0  0  0  0  0  0  0
   44.6100   35.6040   44.7920 C   0  0  0  0  0  0  0  0  0  0  0  0
   45.5270   35.0290   44.0080 N   0  0  0  0  0  0  0  0  0  0  0  0
   48.8434   35.4822   43.5638 H   0  0  0  0  0  0  0  0  0  0  0  0
   49.7221   36.6694   41.5759 H   0  0  0  0  0  0  0  0  0  0  0  0
   49.0780   35.8102   39.3224 H   0  0  0  0  0  0  0  0  0  0  0  0
   49.3227   34.6157   37.9658 H   0  0  0  0  0  0  0  0  0  0  0  0
   48.6981   33.8189   35.6529 H   0  0  0  0  0  0  0  0  0  0  0  0
   45.6790   31.9526   34.9096 H   0  0  0  0  0  0  0  0  0  0  0  0
   47.1798   32.6953   34.2941 H   0  0  0  0  0  0  0  0  0  0  0  0
   46.6453   32.6287   46.1386 H   0  0  0  0  0  0  0  0  0  0  0  0
   44.9059   33.7409   47.5822 H   0  0  0  0  0  0  0  0  0  0  0  0
   44.0201   36.4552   44.4214 H   0  0  0  0  0  0  0  0  0  0  0  0
  1  2  2  0
  1 15  1  0
  3  2  1  0
  4  3  2  0
  5  4  1  0
  5  6  2  0
  6  1  1  0
  7  5  1  0
  8  7  1  0
  9  8  2  0
 10  9  1  0
 10 12  2  0
 11 10  1  0
 12 13  1  0
 13  7  1  0
 13 14  2  0
 15 16  2  0
 15 17  1  0
 17 18  2  0
 18 19  1  0
 20 19  2  0
 21 20  1  0
 22 17  1  0
 22 21  2  0
  2 23  1  0
  3 24  1  0
  4 25  1  0
  8 26  1  0
  9 27  1  0
 11 28  1  0
 11 29  1  0
 18 30  1  0
 19 31  1  0
 21 32  1  0
M  ISO  8  23  14  24  14  25  14  26  14  27  14  30  14  31  14  32  14
M  END
>  <minimizedAffinity>  (1) 
-6.0304184

>  <minimizedRMSD>  (1) 
1.12426126

$$$$
