
     RDKit          3D

 34 36  0  0  0  0  0  0  0  0999 V2000
   47.6860   34.0640   42.2640 C   0  0  0  0  0  0  0  0  0  0  0  0
   48.5070   35.1660   42.4640 C   0  0  0  0  0  0  0  0  0  0  0  0
   49.0980   35.8760   41.4380 C   0  0  0  0  0  0  0  0  0  0  0  0
   48.8350   35.4370   40.1610 C   0  0  0  0  0  0  0  0  0  0  0  0
   48.0100   34.3260   39.9260 C   0  0  0  0  0  0  0  0  0  0  0  0
   47.4580   33.6710   40.9820 N   0  0  0  0  0  0  0  0  0  0  0  0
   47.6940   33.8130   38.5830 C   0  0  0  0  0  0  0  0  0  0  0  0
   48.4190   34.4950   37.4630 C   0  0  0  0  0  0  0  0  0  0  0  0
   48.5270   33.4230   36.3720 C   0  0  0  0  0  0  0  0  0  0  0  0
   48.0890   32.1270   37.0170 C   0  0  0  0  0  0  0  0  0  0  0  0
   48.3060   32.4080   38.5080 C   0  0  0  0  0  0  0  0  0  0  0  0
   47.0950   33.3590   43.3850 C   0  0  0  0  0  0  0  0  0  0  0  0
   47.4420   32.1520   43.5570 O   0  0  0  0  0  0  0  0  0  0  0  0
   46.1600   34.0420   44.2390 C   0  0  0  0  0  0  0  0  0  0  0  0
   46.0060   33.5280   45.5380 C   0  0  0  0  0  0  0  0  0  0  0  0
   45.1120   34.1610   46.3880 C   0  0  0  0  0  0  0  0  0  0  0  0
   44.4400   35.2460   45.9050 N   0  0  0  0  0  0  0  0  0  0  0  0
   44.6090   35.7200   44.6480 C   0  0  0  0  0  0  0  0  0  0  0  0
   45.4650   35.1140   43.8320 N   0  0  0  0  0  0  0  0  0  0  0  0
   48.6970   35.4913   43.4975 H   0  0  0  0  0  0  0  0  0  0  0  0
   49.7439   36.7452   41.6310 H   0  0  0  0  0  0  0  0  0  0  0  0
   49.2804   35.9676   39.3065 H   0  0  0  0  0  0  0  0  0  0  0  0
   46.6057   33.9241   38.4679 H   0  0  0  0  0  0  0  0  0  0  0  0
   47.8484   35.3630   37.1011 H   0  0  0  0  0  0  0  0  0  0  0  0
   49.4019   34.8801   37.7720 H   0  0  0  0  0  0  0  0  0  0  0  0
   49.5651   33.3418   36.0173 H   0  0  0  0  0  0  0  0  0  0  0  0
   47.9032   33.6705   35.5004 H   0  0  0  0  0  0  0  0  0  0  0  0
   47.0314   31.9139   36.8025 H   0  0  0  0  0  0  0  0  0  0  0  0
   48.6399   31.2476   36.6520 H   0  0  0  0  0  0  0  0  0  0  0  0
   47.7684   31.6901   39.1449 H   0  0  0  0  0  0  0  0  0  0  0  0
   49.3462   32.3274   38.8566 H   0  0  0  0  0  0  0  0  0  0  0  0
   46.5780   32.6492   45.8706 H   0  0  0  0  0  0  0  0  0  0  0  0
   44.9502   33.8015   47.4149 H   0  0  0  0  0  0  0  0  0  0  0  0
   44.0429   36.5987   44.3054 H   0  0  0  0  0  0  0  0  0  0  0  0
  1  2  2  0
  1 12  1  0
  3  2  1  0
  4  3  2  0
  5  4  1  0
  5  6  2  0
  6  1  1  0
  7  5  1  0
  8  7  1  0
  9 10  1  0
  9  8  1  0
 10 11  1  0
 11  7  1  0
 12 13  2  0
 12 14  1  0
 14 15  2  0
 15 16  1  0
 17 16  2  0
 18 17  1  0
 19 14  1  0
 19 18  2  0
  2 20  1  0
  3 21  1  0
  4 22  1  0
  7 23  1  0
  8 24  1  0
  8 25  1  0
  9 26  1  0
  9 27  1  0
 10 28  1  0
 10 29  1  0
 11 30  1  0
 11 31  1  0
 15 32  1  0
 16 33  1  0
 18 34  1  0
M  ISO  8  20  14  21  14  22  14  23  13  24  13  25  13  26  13  27  13
M  ISO  7  28  13  29  13  30  13  31  13  32  14  33  14  34  14
M  END
>  <minimizedAffinity>  (1) 
-5.44164705

>  <minimizedRMSD>  (1) 
1.89345896

$$$$
