
     RDKit          3D

 29 31  0  0  0  0  0  0  0  0999 V2000
   47.7380   34.0510   42.2790 C   0  0  0  0  0  0  0  0  0  0  0  0
   48.5410   35.1850   42.4210 C   0  0  0  0  0  0  0  0  0  0  0  0
   49.0620   35.8420   41.3110 C   0  0  0  0  0  0  0  0  0  0  0  0
   48.7630   35.3390   40.0540 C   0  0  0  0  0  0  0  0  0  0  0  0
   47.9660   34.2120   39.9300 C   0  0  0  0  0  0  0  0  0  0  0  0
   47.4650   33.5840   41.0210 N   0  0  0  0  0  0  0  0  0  0  0  0
   47.6710   33.7090   38.5900 C   0  0  0  0  0  0  0  0  0  0  0  0
   48.5960   33.8520   37.5750 C   0  0  0  0  0  0  0  0  0  0  0  0
   48.2500   33.3510   36.3280 C   0  0  0  0  0  0  0  0  0  0  0  0
   47.0510   32.7540   36.1400 N   0  0  0  0  0  0  0  0  0  0  0  0
   46.1620   32.6260   37.1450 C   0  0  0  0  0  0  0  0  0  0  0  0
   46.4830   33.1110   38.3790 N   0  0  0  0  0  0  0  0  0  0  0  0
   47.1980   33.3720   43.4540 C   0  0  0  0  0  0  0  0  0  0  0  0
   47.6220   32.2080   43.6900 O   0  0  0  0  0  0  0  0  0  0  0  0
   46.2260   34.0450   44.2740 C   0  0  0  0  0  0  0  0  0  0  0  0
   46.0390   33.5420   45.5730 C   0  0  0  0  0  0  0  0  0  0  0  0
   45.1120   34.1740   46.3760 C   0  0  0  0  0  0  0  0  0  0  0  0
   44.4400   35.2380   45.8660 N   0  0  0  0  0  0  0  0  0  0  0  0
   44.6350   35.7060   44.6170 C   0  0  0  0  0  0  0  0  0  0  0  0
   45.5250   35.1110   43.8230 N   0  0  0  0  0  0  0  0  0  0  0  0
   48.7654   35.5653   43.4285 H   0  0  0  0  0  0  0  0  0  0  0  0
   49.6933   36.7353   41.4272 H   0  0  0  0  0  0  0  0  0  0  0  0
   49.1584   35.8345   39.1551 H   0  0  0  0  0  0  0  0  0  0  0  0
   49.5656   34.3420   37.7474 H   0  0  0  0  0  0  0  0  0  0  0  0
   48.9546   33.4399   35.4880 H   0  0  0  0  0  0  0  0  0  0  0  0
   45.1916   32.1375   36.9726 H   0  0  0  0  0  0  0  0  0  0  0  0
   46.6111   32.6756   45.9364 H   0  0  0  0  0  0  0  0  0  0  0  0
   44.9224   33.8253   47.4019 H   0  0  0  0  0  0  0  0  0  0  0  0
   44.0633   36.5734   44.2554 H   0  0  0  0  0  0  0  0  0  0  0  0
  1  2  2  0
  1 13  1  0
  3  2  1  0
  4  3  2  0
  5  4  1  0
  5  6  2  0
  6  1  1  0
  7  5  1  0
  8  7  2  0
  9  8  1  0
 10  9  2  0
 10 11  1  0
 11 12  2  0
 12  7  1  0
 13 14  2  0
 13 15  1  0
 15 16  2  0
 16 17  1  0
 18 17  2  0
 19 18  1  0
 20 15  1  0
 20 19  2  0
  2 21  1  0
  3 22  1  0
  4 23  1  0
  8 24  1  0
  9 25  1  0
 11 26  1  0
 16 27  1  0
 17 28  1  0
 19 29  1  0
M  ISO  8  21  14  22  14  23  14  24  14  25  14  26  14  27  14  28  14
M  ISO  1  29  14
M  END
>  <minimizedAffinity>  (1) 
-5.35567474

>  <minimizedRMSD>  (1) 
1.28937542

$$$$
