
     RDKit          3D

 34 36  0  0  0  0  0  0  0  0999 V2000
   47.7010   33.9860   42.2040 C   0  0  0  0  0  0  0  0  0  0  0  0
   48.4740   35.1360   42.3060 C   0  0  0  0  0  0  0  0  0  0  0  0
   49.0020   35.7910   41.2030 C   0  0  0  0  0  0  0  0  0  0  0  0
   48.7220   35.2380   39.9570 C   0  0  0  0  0  0  0  0  0  0  0  0
   47.9510   34.0900   39.8520 C   0  0  0  0  0  0  0  0  0  0  0  0
   47.4570   33.4860   40.9590 N   0  0  0  0  0  0  0  0  0  0  0  0
   47.6920   33.5610   38.5560 N   0  0  0  0  0  0  0  0  0  0  0  0
   48.7550   33.4570   37.6020 C   0  0  0  0  0  0  0  0  0  0  0  0
   48.2970   33.2300   36.2000 C   0  0  0  0  0  0  0  0  0  0  0  0
   47.1800   32.4600   36.0480 O   0  0  0  0  0  0  0  0  0  0  0  0
   46.5730   31.9900   37.1780 C   0  0  0  0  0  0  0  0  0  0  0  0
   46.3810   33.1210   38.1600 C   0  0  0  0  0  0  0  0  0  0  0  0
   47.1650   33.3320   43.3980 C   0  0  0  0  0  0  0  0  0  0  0  0
   47.5830   32.1680   43.6430 O   0  0  0  0  0  0  0  0  0  0  0  0
   46.2090   34.0390   44.2100 C   0  0  0  0  0  0  0  0  0  0  0  0
   46.0230   33.5430   45.5180 C   0  0  0  0  0  0  0  0  0  0  0  0
   45.1120   34.2000   46.3230 C   0  0  0  0  0  0  0  0  0  0  0  0
   44.4580   35.2750   45.8030 N   0  0  0  0  0  0  0  0  0  0  0  0
   44.6570   35.7240   44.5530 C   0  0  0  0  0  0  0  0  0  0  0  0
   45.5280   35.1070   43.7620 N   0  0  0  0  0  0  0  0  0  0  0  0
   48.6765   35.5456   43.3066 H   0  0  0  0  0  0  0  0  0  0  0  0
   49.6109   36.7011   41.3079 H   0  0  0  0  0  0  0  0  0  0  0  0
   49.1156   35.7156   39.0476 H   0  0  0  0  0  0  0  0  0  0  0  0
   49.3353   34.3911   37.6286 H   0  0  0  0  0  0  0  0  0  0  0  0
   49.3511   32.5774   37.8867 H   0  0  0  0  0  0  0  0  0  0  0  0
   48.0908   34.2128   35.7510 H   0  0  0  0  0  0  0  0  0  0  0  0
   49.1088   32.6706   35.7121 H   0  0  0  0  0  0  0  0  0  0  0  0
   45.5938   31.5626   36.9164 H   0  0  0  0  0  0  0  0  0  0  0  0
   47.2044   31.2138   37.6350 H   0  0  0  0  0  0  0  0  0  0  0  0
   45.8335   33.9470   37.6826 H   0  0  0  0  0  0  0  0  0  0  0  0
   45.7982   32.7892   39.0319 H   0  0  0  0  0  0  0  0  0  0  0  0
   46.5811   32.6680   45.8824 H   0  0  0  0  0  0  0  0  0  0  0  0
   44.9209   33.8645   47.3530 H   0  0  0  0  0  0  0  0  0  0  0  0
   44.1010   36.5992   44.1856 H   0  0  0  0  0  0  0  0  0  0  0  0
  1  2  2  0
  1 13  1  0
  3  2  1  0
  4  3  2  0
  5  4  1  0
  5  6  2  0
  6  1  1  0
  7  5  1  0
  8  7  1  0
  9  8  1  0
 10  9  1  0
 10 11  1  0
 11 12  1  0
 12  7  1  0
 13 14  2  0
 13 15  1  0
 15 16  2  0
 16 17  1  0
 18 17  2  0
 19 18  1  0
 20 15  1  0
 20 19  2  0
  2 21  1  0
  3 22  1  0
  4 23  1  0
  8 24  1  0
  8 25  1  0
  9 26  1  0
  9 27  1  0
 11 28  1  0
 11 29  1  0
 12 30  1  0
 12 31  1  0
 16 32  1  0
 17 33  1  0
 19 34  1  0
M  ISO  8  21  14  22  14  23  14  24  13  25  13  26  13  27  13  28  13
M  ISO  6  29  13  30  13  31  13  32  14  33  14  34  14
M  END
>  <minimizedAffinity>  (1) 
-5.51533461

>  <minimizedRMSD>  (1) 
1.31575692

$$$$
