
     RDKit          3D

 28 30  0  0  0  0  0  0  0  0999 V2000
   47.6620   34.0570   42.2320 C   0  0  0  0  0  0  0  0  0  0  0  0
   48.4970   35.1510   42.4410 C   0  0  0  0  0  0  0  0  0  0  0  0
   49.0830   35.8430   41.3940 C   0  0  0  0  0  0  0  0  0  0  0  0
   48.8050   35.4030   40.1100 C   0  0  0  0  0  0  0  0  0  0  0  0
   47.9730   34.3140   39.8960 C   0  0  0  0  0  0  0  0  0  0  0  0
   47.4160   33.6600   40.9540 N   0  0  0  0  0  0  0  0  0  0  0  0
   47.6600   33.8280   38.5970 N   0  0  0  0  0  0  0  0  0  0  0  0
   48.5720   34.0530   37.6230 C   0  0  0  0  0  0  0  0  0  0  0  0
   48.0570   33.4950   36.4540 C   0  0  0  0  0  0  0  0  0  0  0  0
   46.8680   32.9540   36.7380 N   0  0  0  0  0  0  0  0  0  0  0  0
   46.6260   33.1610   38.0630 C   0  0  0  0  0  0  0  0  0  0  0  0
   47.0620   33.3530   43.3580 C   0  0  0  0  0  0  0  0  0  0  0  0
   47.3960   32.1400   43.5240 O   0  0  0  0  0  0  0  0  0  0  0  0
   46.1290   34.0540   44.2200 C   0  0  0  0  0  0  0  0  0  0  0  0
   45.9850   33.5330   45.5210 C   0  0  0  0  0  0  0  0  0  0  0  0
   45.1040   34.1870   46.3530 C   0  0  0  0  0  0  0  0  0  0  0  0
   44.4460   35.2660   45.8830 N   0  0  0  0  0  0  0  0  0  0  0  0
   44.6090   35.7390   44.6290 C   0  0  0  0  0  0  0  0  0  0  0  0
   45.4480   35.1390   43.7950 N   0  0  0  0  0  0  0  0  0  0  0  0
   48.6982   35.4768   43.4722 H   0  0  0  0  0  0  0  0  0  0  0  0
   49.7414   36.7056   41.5743 H   0  0  0  0  0  0  0  0  0  0  0  0
   49.2498   35.9239   39.2493 H   0  0  0  0  0  0  0  0  0  0  0  0
   49.5339   34.5753   37.7325 H   0  0  0  0  0  0  0  0  0  0  0  0
   48.5448   33.4991   35.4681 H   0  0  0  0  0  0  0  0  0  0  0  0
   45.7276   32.8339   38.6069 H   0  0  0  0  0  0  0  0  0  0  0  0
   46.5477   32.6488   45.8551 H   0  0  0  0  0  0  0  0  0  0  0  0
   44.9400   33.8356   47.3824 H   0  0  0  0  0  0  0  0  0  0  0  0
   44.0450   36.6236   44.2983 H   0  0  0  0  0  0  0  0  0  0  0  0
  1  2  2  0
  1 12  1  0
  3  2  1  0
  4  3  2  0
  5  4  1  0
  5  6  2  0
  6  1  1  0
  7  5  1  0
  8  7  1  0
  9 10  1  0
  9  8  2  0
 10 11  2  0
 11  7  1  0
 12 13  2  0
 12 14  1  0
 14 15  2  0
 15 16  1  0
 17 16  2  0
 18 17  1  0
 19 14  1  0
 19 18  2  0
  2 20  1  0
  3 21  1  0
  4 22  1  0
  8 23  1  0
  9 24  1  0
 11 25  1  0
 15 26  1  0
 16 27  1  0
 18 28  1  0
M  ISO  8  20  14  21  14  22  14  23  14  24  14  25  14  26  14  27  14
M  ISO  1  28  14
M  END
>  <minimizedAffinity>  (1) 
-5.4882431

>  <minimizedRMSD>  (1) 
1.16371512

$$$$
