
     RDKit          3D

 33 35  0  0  0  0  0  0  0  0999 V2000
   47.6570   34.0770   42.2550 C   0  0  0  0  0  0  0  0  0  0  0  0
   48.4780   35.1600   42.4730 C   0  0  0  0  0  0  0  0  0  0  0  0
   49.0880   35.8670   41.4490 C   0  0  0  0  0  0  0  0  0  0  0  0
   48.8360   35.4360   40.1630 C   0  0  0  0  0  0  0  0  0  0  0  0
   48.0110   34.3470   39.9210 C   0  0  0  0  0  0  0  0  0  0  0  0
   47.4420   33.6930   40.9600 N   0  0  0  0  0  0  0  0  0  0  0  0
   47.7760   33.9340   38.5800 N   0  0  0  0  0  0  0  0  0  0  0  0
   48.5390   34.3380   37.4400 C   0  0  0  0  0  0  0  0  0  0  0  0
   48.1460   33.4080   36.3140 C   0  0  0  0  0  0  0  0  0  0  0  0
   47.1330   32.4440   36.8430 C   0  0  0  0  0  0  0  0  0  0  0  0
   46.7230   33.0350   38.1450 C   0  0  0  0  0  0  0  0  0  0  0  0
   47.0330   33.3580   43.3580 C   0  0  0  0  0  0  0  0  0  0  0  0
   47.3410   32.1350   43.4980 O   0  0  0  0  0  0  0  0  0  0  0  0
   46.1130   34.0600   44.2210 C   0  0  0  0  0  0  0  0  0  0  0  0
   45.9680   33.5370   45.5290 C   0  0  0  0  0  0  0  0  0  0  0  0
   45.0880   34.1980   46.3690 C   0  0  0  0  0  0  0  0  0  0  0  0
   44.4350   35.2840   45.8950 N   0  0  0  0  0  0  0  0  0  0  0  0
   44.5970   35.7540   44.6430 C   0  0  0  0  0  0  0  0  0  0  0  0
   45.4310   35.1460   43.8120 N   0  0  0  0  0  0  0  0  0  0  0  0
   48.6586   35.4797   43.5099 H   0  0  0  0  0  0  0  0  0  0  0  0
   49.7407   36.7290   41.6516 H   0  0  0  0  0  0  0  0  0  0  0  0
   49.2968   35.9644   39.3154 H   0  0  0  0  0  0  0  0  0  0  0  0
   48.3036   35.3790   37.1737 H   0  0  0  0  0  0  0  0  0  0  0  0
   49.6188   34.2856   37.6430 H   0  0  0  0  0  0  0  0  0  0  0  0
   49.0305   32.8609   35.9558 H   0  0  0  0  0  0  0  0  0  0  0  0
   47.7260   33.9810   35.4742 H   0  0  0  0  0  0  0  0  0  0  0  0
   46.2737   32.3656   36.1608 H   0  0  0  0  0  0  0  0  0  0  0  0
   47.5315   31.4240   36.9467 H   0  0  0  0  0  0  0  0  0  0  0  0
   45.7828   33.5927   38.0224 H   0  0  0  0  0  0  0  0  0  0  0  0
   46.5639   32.2428   38.8914 H   0  0  0  0  0  0  0  0  0  0  0  0
   46.5268   32.6496   45.8612 H   0  0  0  0  0  0  0  0  0  0  0  0
   44.9234   33.8480   47.3988 H   0  0  0  0  0  0  0  0  0  0  0  0
   44.0378   36.6412   44.3110 H   0  0  0  0  0  0  0  0  0  0  0  0
  1  2  2  0
  1 12  1  0
  3  2  1  0
  4  3  2  0
  5  4  1  0
  5  6  2  0
  6  1  1  0
  7  5  1  0
  8  7  1  0
  9 10  1  0
  9  8  1  0
 10 11  1  0
 11  7  1  0
 12 13  2  0
 12 14  1  0
 14 15  2  0
 15 16  1  0
 17 16  2  0
 18 17  1  0
 19 14  1  0
 19 18  2  0
  2 20  1  0
  3 21  1  0
  4 22  1  0
  8 23  1  0
  8 24  1  0
  9 25  1  0
  9 26  1  0
 10 27  1  0
 10 28  1  0
 11 29  1  0
 11 30  1  0
 15 31  1  0
 16 32  1  0
 18 33  1  0
M  ISO  8  20  14  21  14  22  14  23  13  24  13  25  13  26  13  27  13
M  ISO  6  28  13  29  13  30  13  31  14  32  14  33  14
M  END
>  <minimizedAffinity>  (1) 
-5.575881

>  <minimizedRMSD>  (1) 
1.19210398

$$$$
