
     RDKit          3D

 26 28  0  0  0  0  0  0  0  0999 V2000
   47.8650   34.0060   42.4330 C   0  0  0  0  0  0  0  0  0  0  0  0
   48.6500   35.1430   42.6440 C   0  0  0  0  0  0  0  0  0  0  0  0
   49.1520   35.8890   41.5970 C   0  0  0  0  0  0  0  0  0  0  0  0
   48.8520   35.4750   40.3150 C   0  0  0  0  0  0  0  0  0  0  0  0
   48.0740   34.3470   40.1050 C   0  0  0  0  0  0  0  0  0  0  0  0
   47.5910   33.6300   41.1610 N   0  0  0  0  0  0  0  0  0  0  0  0
   47.7870   33.9530   38.7280 C   0  0  0  0  0  0  0  0  0  0  0  0
   48.4270   34.5030   37.6820 N   0  0  0  0  0  0  0  0  0  0  0  0
   47.9790   33.9730   36.6050 O   0  0  0  0  0  0  0  0  0  0  0  0
   47.0680   33.0970   36.8940 C   0  0  0  0  0  0  0  0  0  0  0  0
   46.9220   33.0580   38.2240 N   0  0  0  0  0  0  0  0  0  0  0  0
   47.3520   33.2420   43.5660 C   0  0  0  0  0  0  0  0  0  0  0  0
   47.8140   32.0780   43.7290 O   0  0  0  0  0  0  0  0  0  0  0  0
   46.3570   33.8400   44.4370 C   0  0  0  0  0  0  0  0  0  0  0  0
   46.2490   33.2970   45.7250 C   0  0  0  0  0  0  0  0  0  0  0  0
   45.3120   33.8480   46.5710 C   0  0  0  0  0  0  0  0  0  0  0  0
   44.5550   34.8780   46.0980 N   0  0  0  0  0  0  0  0  0  0  0  0
   44.6840   35.3750   44.8520 C   0  0  0  0  0  0  0  0  0  0  0  0
   45.5790   34.8580   44.0320 N   0  0  0  0  0  0  0  0  0  0  0  0
   48.8744   35.4525   43.6754 H   0  0  0  0  0  0  0  0  0  0  0  0
   49.7691   36.7815   41.7778 H   0  0  0  0  0  0  0  0  0  0  0  0
   49.2328   36.0440   39.4540 H   0  0  0  0  0  0  0  0  0  0  0  0
   46.5090   32.4881   36.1682 H   0  0  0  0  0  0  0  0  0  0  0  0
   46.8885   32.4623   46.0479 H   0  0  0  0  0  0  0  0  0  0  0  0
   45.1790   33.4691   47.5951 H   0  0  0  0  0  0  0  0  0  0  0  0
   44.0462   36.2076   44.5203 H   0  0  0  0  0  0  0  0  0  0  0  0
  1  2  2  0
  1 12  1  0
  3  2  1  0
  4  3  2  0
  5  4  1  0
  5  6  2  0
  6  1  1  0
  7  5  1  0
  8  7  2  0
  9 10  1  0
  9  8  1  0
 10 11  2  0
 11  7  1  0
 12 13  2  0
 12 14  1  0
 14 15  2  0
 15 16  1  0
 17 16  2  0
 18 17  1  0
 19 14  1  0
 19 18  2  0
  2 20  1  0
  3 21  1  0
  4 22  1  0
 10 23  1  0
 15 24  1  0
 16 25  1  0
 18 26  1  0
M  ISO  7  20  14  21  14  22  14  23  14  24  14  25  14  26  14
M  END
>  <minimizedAffinity>  (1) 
-5.24240685

>  <minimizedRMSD>  (1) 
0.961103499

$$$$
