
     RDKit          3D

 30 31  0  0  0  0  0  0  0  0999 V2000
   47.6520   34.0350   42.2050 C   0  0  0  0  0  0  0  0  0  0  0  0
   48.4840   35.1140   42.3990 C   0  0  0  0  0  0  0  0  0  0  0  0
   49.0750   35.8090   41.3570 C   0  0  0  0  0  0  0  0  0  0  0  0
   48.7960   35.3740   40.0800 C   0  0  0  0  0  0  0  0  0  0  0  0
   47.9580   34.2870   39.8700 C   0  0  0  0  0  0  0  0  0  0  0  0
   47.4040   33.6400   40.9210 N   0  0  0  0  0  0  0  0  0  0  0  0
   47.6500   33.8100   38.4990 C   0  0  0  0  0  0  0  0  0  0  0  0
   48.4530   34.5510   37.4660 C   0  0  0  0  0  0  0  0  0  0  0  0
   47.9320   32.3310   38.3790 C   0  0  0  0  0  0  0  0  0  0  0  0
   47.0480   33.3280   43.3280 C   0  0  0  0  0  0  0  0  0  0  0  0
   47.3620   32.1160   43.4870 O   0  0  0  0  0  0  0  0  0  0  0  0
   46.1300   34.0330   44.1960 C   0  0  0  0  0  0  0  0  0  0  0  0
   45.9810   33.5240   45.5050 C   0  0  0  0  0  0  0  0  0  0  0  0
   45.1110   34.1830   46.3440 C   0  0  0  0  0  0  0  0  0  0  0  0
   44.4590   35.2710   45.8640 N   0  0  0  0  0  0  0  0  0  0  0  0
   44.6150   35.7360   44.6180 C   0  0  0  0  0  0  0  0  0  0  0  0
   45.4500   35.1160   43.7900 N   0  0  0  0  0  0  0  0  0  0  0  0
   48.6891   35.4395   43.4295 H   0  0  0  0  0  0  0  0  0  0  0  0
   49.7365   36.6685   41.5405 H   0  0  0  0  0  0  0  0  0  0  0  0
   49.2414   35.8928   39.2184 H   0  0  0  0  0  0  0  0  0  0  0  0
   46.5818   33.9998   38.3178 H   0  0  0  0  0  0  0  0  0  0  0  0
   49.1724   35.2149   37.9677 H   0  0  0  0  0  0  0  0  0  0  0  0
   48.9961   33.8301   36.8373 H   0  0  0  0  0  0  0  0  0  0  0  0
   47.7779   35.1502   36.8373 H   0  0  0  0  0  0  0  0  0  0  0  0
   48.0159   31.8910   39.3837 H   0  0  0  0  0  0  0  0  0  0  0  0
   47.1105   31.8442   37.8330 H   0  0  0  0  0  0  0  0  0  0  0  0
   48.8750   32.1806   37.8330 H   0  0  0  0  0  0  0  0  0  0  0  0
   46.5378   32.6367   45.8406 H   0  0  0  0  0  0  0  0  0  0  0  0
   44.9491   33.8366   47.3754 H   0  0  0  0  0  0  0  0  0  0  0  0
   44.0573   36.6229   44.2827 H   0  0  0  0  0  0  0  0  0  0  0  0
  1  2  2  0
  1 10  1  0
  3  2  1  0
  4  3  2  0
  5  4  1  0
  5  6  2  0
  6  1  1  0
  7  5  1  0
  8  7  1  0
  9  7  1  0
 10 11  2  0
 10 12  1  0
 12 13  2  0
 13 14  1  0
 15 14  2  0
 16 15  1  0
 17 12  1  0
 17 16  2  0
  2 18  1  0
  3 19  1  0
  4 20  1  0
  7 21  1  0
  8 22  1  0
  8 23  1  0
  8 24  1  0
  9 25  1  0
  9 26  1  0
  9 27  1  0
 13 28  1  0
 14 29  1  0
 16 30  1  0
M  ISO  8  18  14  19  14  20  14  21   8  22   8  23   8  24   8  25   8
M  ISO  5  26   8  27   8  28  14  29  14  30  14
M  END
>  <minimizedAffinity>  (1) 
-5.04022026

>  <minimizedRMSD>  (1) 
1.1440202

$$$$
