
     RDKit          3D

 23 24  0  0  0  0  0  0  0  0999 V2000
   48.0900   33.7540   42.4300 C   0  0  0  0  0  0  0  0  0  0  0  0
   48.9050   34.8370   42.6780 C   0  0  0  0  0  0  0  0  0  0  0  0
   49.2750   35.7430   41.7020 C   0  0  0  0  0  0  0  0  0  0  0  0
   48.7860   35.5220   40.4220 C   0  0  0  0  0  0  0  0  0  0  0  0
   47.9640   34.4370   40.1560 C   0  0  0  0  0  0  0  0  0  0  0  0
   47.6280   33.5710   41.1550 N   0  0  0  0  0  0  0  0  0  0  0  0
   47.3950   34.0890   38.9100 N   0  0  0  0  0  0  0  0  0  0  0  0
   47.7300   32.8310   43.4930 C   0  0  0  0  0  0  0  0  0  0  0  0
   48.2650   31.6860   43.4720 O   0  0  0  0  0  0  0  0  0  0  0  0
   46.7960   33.2570   44.5050 C   0  0  0  0  0  0  0  0  0  0  0  0
   46.8410   32.5620   45.7230 C   0  0  0  0  0  0  0  0  0  0  0  0
   45.9600   32.9310   46.7240 C   0  0  0  0  0  0  0  0  0  0  0  0
   45.1020   33.9590   46.4440 N   0  0  0  0  0  0  0  0  0  0  0  0
   45.0790   34.6110   45.2670 C   0  0  0  0  0  0  0  0  0  0  0  0
   45.9210   34.2560   44.3130 N   0  0  0  0  0  0  0  0  0  0  0  0
   49.2790   34.9877   43.7015 H   0  0  0  0  0  0  0  0  0  0  0  0
   49.9268   36.5995   41.9292 H   0  0  0  0  0  0  0  0  0  0  0  0
   49.0531   36.2145   39.6101 H   0  0  0  0  0  0  0  0  0  0  0  0
   46.7962   33.2545   38.8324 H   0  0  0  0  0  0  0  0  0  0  0  0
   47.5791   34.6698   38.0796 H   0  0  0  0  0  0  0  0  0  0  0  0
   47.5593   31.7435   45.8783 H   0  0  0  0  0  0  0  0  0  0  0  0
   45.9500   32.4218   47.6990 H   0  0  0  0  0  0  0  0  0  0  0  0
   44.3658   35.4318   45.1009 H   0  0  0  0  0  0  0  0  0  0  0  0
  1  2  2  0
  1  8  1  0
  3  2  1  0
  4  3  2  0
  5  4  1  0
  5  6  2  0
  6  1  1  0
  7  5  1  0
  8 10  1  0
  9  8  2  0
 10 11  2  0
 11 12  1  0
 13 12  2  0
 14 13  1  0
 15 10  1  0
 15 14  2  0
  2 16  1  0
  3 17  1  0
  4 18  1  0
  7 19  1  0
  7 20  1  0
 11 21  1  0
 12 22  1  0
 14 23  1  0
M  ISO  6  16  14  17  14  18  14  21  14  22  14  23  14
M  END
>  <minimizedAffinity>  (1) 
-4.64563608

>  <minimizedRMSD>  (1) 
0.248022303

$$$$
