
     RDKit          3D

 37 39  0  0  0  0  0  0  0  0999 V2000
   47.8280   33.9400   42.2500 C   0  0  0  0  0  0  0  0  0  0  0  0
   48.4140   35.1930   42.2900 C   0  0  0  0  0  0  0  0  0  0  0  0
   48.9110   35.8220   41.1690 C   0  0  0  0  0  0  0  0  0  0  0  0
   48.8110   35.1670   39.9780 C   0  0  0  0  0  0  0  0  0  0  0  0
   48.2190   33.8960   39.9160 C   0  0  0  0  0  0  0  0  0  0  0  0
   47.7540   33.3380   41.0530 N   0  0  0  0  0  0  0  0  0  0  0  0
   47.3170   33.3120   43.4570 C   0  0  0  0  0  0  0  0  0  0  0  0
   47.7750   32.1840   43.7710 O   0  0  0  0  0  0  0  0  0  0  0  0
   46.3120   34.0030   44.2400 C   0  0  0  0  0  0  0  0  0  0  0  0
   46.0960   33.5300   45.5420 C   0  0  0  0  0  0  0  0  0  0  0  0
   45.1400   34.1720   46.3130 C   0  0  0  0  0  0  0  0  0  0  0  0
   44.4800   35.2170   45.7540 N   0  0  0  0  0  0  0  0  0  0  0  0
   44.7050   35.6550   44.5000 C   0  0  0  0  0  0  0  0  0  0  0  0
   45.6140   35.0450   43.7610 N   0  0  0  0  0  0  0  0  0  0  0  0
   48.0550   33.1260   38.7850 O   0  0  0  0  0  0  0  0  0  0  0  0
   45.3320   32.9960   35.6460 N   0  0  0  0  0  0  0  0  0  0  0  0
   44.8650   33.3010   36.9490 C   0  0  0  0  0  0  0  0  0  0  0  0
   45.7590   32.8290   38.0630 C   0  0  0  0  0  0  0  0  0  0  0  0
   47.1490   33.3700   37.7480 C   0  0  0  0  0  0  0  0  0  0  0  0
   47.6230   32.6360   36.5250 C   0  0  0  0  0  0  0  0  0  0  0  0
   46.5480   32.2650   35.5600 C   0  0  0  0  0  0  0  0  0  0  0  0
   48.4863   35.7094   43.2586 H   0  0  0  0  0  0  0  0  0  0  0  0
   49.3725   36.8184   41.2333 H   0  0  0  0  0  0  0  0  0  0  0  0
   49.1961   35.6368   39.0609 H   0  0  0  0  0  0  0  0  0  0  0  0
   46.6666   32.6773   45.9386 H   0  0  0  0  0  0  0  0  0  0  0  0
   44.9242   33.8460   47.3412 H   0  0  0  0  0  0  0  0  0  0  0  0
   44.1398   36.5084   44.0973 H   0  0  0  0  0  0  0  0  0  0  0  0
   44.6017   32.4442   35.1736 H   0  0  0  0  0  0  0  0  0  0  0  0
   44.7641   34.3934   37.0300 H   0  0  0  0  0  0  0  0  0  0  0  0
   43.9101   32.7684   37.0697 H   0  0  0  0  0  0  0  0  0  0  0  0
   45.4062   33.2218   39.0280 H   0  0  0  0  0  0  0  0  0  0  0  0
   45.7625   31.7315   38.1378 H   0  0  0  0  0  0  0  0  0  0  0  0
   47.0940   34.4592   37.6041 H   0  0  0  0  0  0  0  0  0  0  0  0
   48.3467   33.2772   36.0006 H   0  0  0  0  0  0  0  0  0  0  0  0
   48.0577   31.6905   36.8815 H   0  0  0  0  0  0  0  0  0  0  0  0
   46.3101   31.2028   35.7184 H   0  0  0  0  0  0  0  0  0  0  0  0
   46.9574   32.5014   34.5668 H   0  0  0  0  0  0  0  0  0  0  0  0
  1  2  2  0
  1  7  1  0
  3  2  1  0
  4  3  2  0
  5  4  1  0
  5  6  2  0
  6  1  1  0
  7  8  2  0
  7  9  1  0
  9 10  2  0
 10 11  1  0
 12 11  2  0
 13 12  1  0
 14  9  1  0
 14 13  2  0
 15  5  1  0
 16 17  1  0
 17 18  1  0
 19 18  1  0
 19 15  1  0
 20 19  1  0
 21 16  1  0
 21 20  1  0
  2 22  1  0
  3 23  1  0
  4 24  1  0
 10 25  1  0
 11 26  1  0
 13 27  1  0
 16 28  1  0
 17 29  1  0
 17 30  1  0
 18 31  1  0
 18 32  1  0
 19 33  1  0
 20 34  1  0
 20 35  1  0
 21 36  1  0
 21 37  1  0
M  ISO  8  22  14  23  14  24  14  25  14  26  14  27  14  28   5  29  13
M  ISO  8  30  13  31  13  32  13  33  13  34  13  35  13  36  13  37  13
M  END
>  <minimizedAffinity>  (1) 
-5.24583054

>  <minimizedRMSD>  (1) 
1.93830526

$$$$
