
     RDKit          3D

 29 31  0  0  0  0  0  0  0  0999 V2000
   47.7270   34.0580   42.4020 C   0  0  0  0  0  0  0  0  0  0  0  0
   48.6330   35.0860   42.5130 C   0  0  0  0  0  0  0  0  0  0  0  0
   49.1300   35.7590   41.4250 C   0  0  0  0  0  0  0  0  0  0  0  0
   48.6710   35.3540   40.1840 C   0  0  0  0  0  0  0  0  0  0  0  0
   47.7490   34.3120   40.0530 C   0  0  0  0  0  0  0  0  0  0  0  0
   47.3020   33.6920   41.1630 N   0  0  0  0  0  0  0  0  0  0  0  0
   47.2290   33.3630   43.5940 C   0  0  0  0  0  0  0  0  0  0  0  0
   47.7060   32.2060   43.8370 O   0  0  0  0  0  0  0  0  0  0  0  0
   46.2370   34.0020   44.4270 C   0  0  0  0  0  0  0  0  0  0  0  0
   46.0850   33.4500   45.7190 C   0  0  0  0  0  0  0  0  0  0  0  0
   45.1340   34.0510   46.5400 C   0  0  0  0  0  0  0  0  0  0  0  0
   44.4320   35.1180   46.0300 N   0  0  0  0  0  0  0  0  0  0  0  0
   44.6140   35.6110   44.7870 C   0  0  0  0  0  0  0  0  0  0  0  0
   45.5160   35.0430   44.0010 N   0  0  0  0  0  0  0  0  0  0  0  0
   47.2360   33.8350   38.8900 O   0  0  0  0  0  0  0  0  0  0  0  0
   47.1430   32.8520   35.6870 N   0  0  0  0  0  0  0  0  0  0  0  0
   46.7180   33.1790   36.9120 N   0  0  0  0  0  0  0  0  0  0  0  0
   47.7870   33.5300   37.6940 C   0  0  0  0  0  0  0  0  0  0  0  0
   48.8790   33.3910   36.8630 C   0  0  0  0  0  0  0  0  0  0  0  0
   48.4810   32.9690   35.6140 C   0  0  0  0  0  0  0  0  0  0  0  0
   48.9740   35.3816   43.5162 H   0  0  0  0  0  0  0  0  0  0  0  0
   49.8559   36.5783   41.5339 H   0  0  0  0  0  0  0  0  0  0  0  0
   49.0397   35.8631   39.2813 H   0  0  0  0  0  0  0  0  0  0  0  0
   46.6850   32.5925   46.0577 H   0  0  0  0  0  0  0  0  0  0  0  0
   44.9507   33.6849   47.5610 H   0  0  0  0  0  0  0  0  0  0  0  0
   44.0238   36.4691   44.4330 H   0  0  0  0  0  0  0  0  0  0  0  0
   46.5340   32.5538   34.9117 H   0  0  0  0  0  0  0  0  0  0  0  0
   49.9205   33.5892   37.1564 H   0  0  0  0  0  0  0  0  0  0  0  0
   49.1212   32.7699   34.7420 H   0  0  0  0  0  0  0  0  0  0  0  0
  1  2  2  0
  1  7  1  0
  3  2  1  0
  4  3  2  0
  5  4  1  0
  5  6  2  0
  6  1  1  0
  7  8  2  0
  7  9  1  0
  9 10  2  0
 10 11  1  0
 12 11  2  0
 13 12  1  0
 14  9  1  0
 14 13  2  0
 15  5  1  0
 16 17  1  0
 17 18  2  0
 18 15  1  0
 19 18  1  0
 20 16  1  0
 20 19  2  0
  2 21  1  0
  3 22  1  0
  4 23  1  0
 10 24  1  0
 11 25  1  0
 13 26  1  0
 16 27  1  0
 19 28  1  0
 20 29  1  0
M  ISO  8  21  14  22  14  23  14  24  14  25  14  26  14  27   9  28  14
M  ISO  1  29  14
M  END
>  <minimizedAffinity>  (1) 
-5.35822678

>  <minimizedRMSD>  (1) 
1.45136833

$$$$
