
     RDKit          3D

 33 36  0  0  0  0  0  0  0  0999 V2000
   47.6610   33.9660   42.3030 C   0  0  0  0  0  0  0  0  0  0  0  0
   48.5510   35.0100   42.3030 C   0  0  0  0  0  0  0  0  0  0  0  0
   48.9850   35.6180   41.1490 C   0  0  0  0  0  0  0  0  0  0  0  0
   48.4790   35.1290   39.9590 C   0  0  0  0  0  0  0  0  0  0  0  0
   47.5760   34.0720   39.9320 C   0  0  0  0  0  0  0  0  0  0  0  0
   47.1960   33.5250   41.1130 N   0  0  0  0  0  0  0  0  0  0  0  0
   47.2320   33.3540   43.5610 C   0  0  0  0  0  0  0  0  0  0  0  0
   47.7560   32.2540   43.8870 O   0  0  0  0  0  0  0  0  0  0  0  0
   46.2270   34.0390   44.3690 C   0  0  0  0  0  0  0  0  0  0  0  0
   46.0510   33.5070   45.6680 C   0  0  0  0  0  0  0  0  0  0  0  0
   45.1050   34.1290   46.4680 C   0  0  0  0  0  0  0  0  0  0  0  0
   44.4290   35.2010   45.9350 N   0  0  0  0  0  0  0  0  0  0  0  0
   44.6330   35.6670   44.6970 C   0  0  0  0  0  0  0  0  0  0  0  0
   45.5290   35.0850   43.9220 N   0  0  0  0  0  0  0  0  0  0  0  0
   47.0020   33.4960   38.8370 O   0  0  0  0  0  0  0  0  0  0  0  0
   46.5100   32.1510   34.5300 N   0  0  0  0  0  0  0  0  0  0  0  0
   45.3880   32.5940   35.1160 C   0  0  0  0  0  0  0  0  0  0  0  0
   45.5810   32.9760   36.3710 N   0  0  0  0  0  0  0  0  0  0  0  0
   46.8980   32.7940   36.6880 C   0  0  0  0  0  0  0  0  0  0  0  0
   47.7380   32.9850   37.8010 C   0  0  0  0  0  0  0  0  0  0  0  0
   49.0180   32.6410   37.6120 N   0  0  0  0  0  0  0  0  0  0  0  0
   49.5450   32.1470   36.4880 C   0  0  0  0  0  0  0  0  0  0  0  0
   48.7510   31.9610   35.4200 N   0  0  0  0  0  0  0  0  0  0  0  0
   47.4290   32.2770   35.5000 C   0  0  0  0  0  0  0  0  0  0  0  0
   48.9335   35.3761   43.2672 H   0  0  0  0  0  0  0  0  0  0  0  0
   49.7004   36.4533   41.1714 H   0  0  0  0  0  0  0  0  0  0  0  0
   48.7983   35.5869   39.0112 H   0  0  0  0  0  0  0  0  0  0  0  0
   46.6341   32.6451   46.0245 H   0  0  0  0  0  0  0  0  0  0  0  0
   44.9028   33.7781   47.4907 H   0  0  0  0  0  0  0  0  0  0  0  0
   44.0579   36.5290   44.3280 H   0  0  0  0  0  0  0  0  0  0  0  0
   46.6358   31.7998   33.5699 H   0  0  0  0  0  0  0  0  0  0  0  0
   44.4123   32.6360   34.6098 H   0  0  0  0  0  0  0  0  0  0  0  0
   50.6148   31.8959   36.4376 H   0  0  0  0  0  0  0  0  0  0  0  0
  1  7  1  0
  2  1  2  0
  3  2  1  0
  4  3  2  0
  5  4  1  0
  5  6  2  0
  6  1  1  0
  7  8  2  0
  7  9  1  0
  9 10  2  0
 10 11  1  0
 12 11  2  0
 13 12  1  0
 14  9  1  0
 14 13  2  0
 15  5  1  0
 16 17  1  0
 16 24  1  0
 17 18  2  0
 18 19  1  0
 19 20  2  0
 20 15  1  0
 21 20  1  0
 22 21  2  0
 23 24  2  0
 23 22  1  0
 24 19  1  0
  2 25  1  0
  3 26  1  0
  4 27  1  0
 10 28  1  0
 11 29  1  0
 13 30  1  0
 16 31  1  0
 17 32  1  0
 22 33  1  0
M  ISO  8  25  14  26  14  27  14  28  14  29  14  30  14  31   9  32  14
M  ISO  1  33  14
M  END
>  <minimizedAffinity>  (1) 
-5.60745335

>  <minimizedRMSD>  (1) 
2.15757322

$$$$
