
     RDKit          3D

 30 32  0  0  0  0  0  0  0  0999 V2000
   47.6060   33.9350   42.3230 C   0  0  0  0  0  0  0  0  0  0  0  0
   48.5790   34.9280   42.2700 C   0  0  0  0  0  0  0  0  0  0  0  0
   48.9780   35.5190   41.1020 C   0  0  0  0  0  0  0  0  0  0  0  0
   48.3790   35.0970   39.9520 C   0  0  0  0  0  0  0  0  0  0  0  0
   47.3870   34.0930   39.9670 C   0  0  0  0  0  0  0  0  0  0  0  0
   47.0430   33.5530   41.1600 N   0  0  0  0  0  0  0  0  0  0  0  0
   47.2220   33.3420   43.5970 C   0  0  0  0  0  0  0  0  0  0  0  0
   47.7820   32.2560   43.9290 O   0  0  0  0  0  0  0  0  0  0  0  0
   46.2310   34.0060   44.4190 C   0  0  0  0  0  0  0  0  0  0  0  0
   46.0520   33.4730   45.7110 C   0  0  0  0  0  0  0  0  0  0  0  0
   45.1060   34.0920   46.5220 C   0  0  0  0  0  0  0  0  0  0  0  0
   44.4310   35.1580   46.0070 N   0  0  0  0  0  0  0  0  0  0  0  0
   44.6280   35.6390   44.7640 C   0  0  0  0  0  0  0  0  0  0  0  0
   45.5220   35.0670   43.9760 N   0  0  0  0  0  0  0  0  0  0  0  0
   46.6980   33.5680   38.9010 O   0  0  0  0  0  0  0  0  0  0  0  0
   47.2040   33.2170   37.6800 C   0  0  0  0  0  0  0  0  0  0  0  0
   46.2470   32.6450   36.8490 C   0  0  0  0  0  0  0  0  0  0  0  0
   46.5250   32.2130   35.5670 C   0  0  0  0  0  0  0  0  0  0  0  0
   47.7950   32.3520   35.0910 N   0  0  0  0  0  0  0  0  0  0  0  0
   48.7250   32.9090   35.9030 C   0  0  0  0  0  0  0  0  0  0  0  0
   48.4270   33.3130   37.1280 N   0  0  0  0  0  0  0  0  0  0  0  0
   49.0491   35.2529   43.2099 H   0  0  0  0  0  0  0  0  0  0  0  0
   49.7502   36.3023   41.0913 H   0  0  0  0  0  0  0  0  0  0  0  0
   48.6748   35.5481   38.9933 H   0  0  0  0  0  0  0  0  0  0  0  0
   46.6332   32.6076   46.0622 H   0  0  0  0  0  0  0  0  0  0  0  0
   44.9098   33.7335   47.5432 H   0  0  0  0  0  0  0  0  0  0  0  0
   44.0482   36.5029   44.4069 H   0  0  0  0  0  0  0  0  0  0  0  0
   45.2214   32.5314   37.2302 H   0  0  0  0  0  0  0  0  0  0  0  0
   45.7376   31.7658   34.9425 H   0  0  0  0  0  0  0  0  0  0  0  0
   49.7547   33.0288   35.5350 H   0  0  0  0  0  0  0  0  0  0  0  0
  1  7  1  0
  2  1  2  0
  3  2  1  0
  4  5  1  0
  4  3  2  0
  5  6  2  0
  6  1  1  0
  7  8  2  0
  7  9  1  0
  9 10  2  0
 10 11  1  0
 12 11  2  0
 13 12  1  0
 14  9  1  0
 14 13  2  0
 15  5  1  0
 16 15  1  0
 17 16  2  0
 18 17  1  0
 19 18  2  0
 19 20  1  0
 20 21  2  0
 21 16  1  0
  2 22  1  0
  3 23  1  0
  4 24  1  0
 10 25  1  0
 11 26  1  0
 13 27  1  0
 17 28  1  0
 18 29  1  0
 20 30  1  0
M  ISO  8  22  14  23  14  24  14  25  14  26  14  27  14  28  14  29  14
M  ISO  1  30  14
M  END
>  <minimizedAffinity>  (1) 
-5.1604085

>  <minimizedRMSD>  (1) 
1.76644373

$$$$
