
     RDKit          3D

 35 37  0  0  0  0  0  0  0  0999 V2000
   47.6920   33.9020   42.4290 C   0  0  0  0  0  0  0  0  0  0  0  0
   48.6000   34.9570   42.4660 C   0  0  0  0  0  0  0  0  0  0  0  0
   49.0200   35.6220   41.3430 C   0  0  0  0  0  0  0  0  0  0  0  0
   48.4970   35.1980   40.1360 C   0  0  0  0  0  0  0  0  0  0  0  0
   47.5860   34.1440   40.0720 C   0  0  0  0  0  0  0  0  0  0  0  0
   47.2070   33.5230   41.2220 N   0  0  0  0  0  0  0  0  0  0  0  0
   47.2850   33.2360   43.6570 C   0  0  0  0  0  0  0  0  0  0  0  0
   47.8330   32.1220   43.9220 O   0  0  0  0  0  0  0  0  0  0  0  0
   46.2920   33.8650   44.5050 C   0  0  0  0  0  0  0  0  0  0  0  0
   46.1710   33.3180   45.8010 C   0  0  0  0  0  0  0  0  0  0  0  0
   45.2370   33.8880   46.6420 C   0  0  0  0  0  0  0  0  0  0  0  0
   44.5030   34.9340   46.1530 N   0  0  0  0  0  0  0  0  0  0  0  0
   44.6470   35.4290   44.9070 C   0  0  0  0  0  0  0  0  0  0  0  0
   45.5390   34.8890   44.0960 N   0  0  0  0  0  0  0  0  0  0  0  0
   46.9890   33.6190   38.9530 O   0  0  0  0  0  0  0  0  0  0  0  0
   47.5120   33.6540   37.6650 C   0  0  0  0  0  0  0  0  0  0  0  0
   46.5060   33.0170   36.7010 C   0  0  0  0  0  0  0  0  0  0  0  0
   47.3120   32.3210   35.6380 C   0  0  0  0  0  0  0  0  0  0  0  0
   48.7760   32.6170   35.9850 C   0  0  0  0  0  0  0  0  0  0  0  0
   48.6670   32.6580   37.5090 C   0  0  0  0  0  0  0  0  0  0  0  0
   48.9989   35.2715   43.4417 H   0  0  0  0  0  0  0  0  0  0  0  0
   49.7386   36.4529   41.3999 H   0  0  0  0  0  0  0  0  0  0  0  0
   48.8053   35.7016   39.2079 H   0  0  0  0  0  0  0  0  0  0  0  0
   46.7951   32.4728   46.1268 H   0  0  0  0  0  0  0  0  0  0  0  0
   45.0883   33.5156   47.6663 H   0  0  0  0  0  0  0  0  0  0  0  0
   44.0282   36.2735   44.5695 H   0  0  0  0  0  0  0  0  0  0  0  0
   47.7809   34.7039   37.4770 H   0  0  0  0  0  0  0  0  0  0  0  0
   45.8752   32.2913   37.2353 H   0  0  0  0  0  0  0  0  0  0  0  0
   45.8413   33.7758   36.2623 H   0  0  0  0  0  0  0  0  0  0  0  0
   47.0634   32.7188   34.6430 H   0  0  0  0  0  0  0  0  0  0  0  0
   47.1070   31.2407   35.6080 H   0  0  0  0  0  0  0  0  0  0  0  0
   49.4492   31.8173   35.6426 H   0  0  0  0  0  0  0  0  0  0  0  0
   49.1952   33.5213   35.5198 H   0  0  0  0  0  0  0  0  0  0  0  0
   48.4156   31.6722   37.9272 H   0  0  0  0  0  0  0  0  0  0  0  0
   49.5933   32.9361   38.0330 H   0  0  0  0  0  0  0  0  0  0  0  0
  1  2  2  0
  1  7  1  0
  3  2  1  0
  4  3  2  0
  5  4  1  0
  5  6  2  0
  6  1  1  0
  7  8  2  0
  7  9  1  0
  9 10  2  0
 10 11  1  0
 12 11  2  0
 13 12  1  0
 14  9  1  0
 14 13  2  0
 15  5  1  0
 16 15  1  0
 17 16  1  0
 18 19  1  0
 18 17  1  0
 19 20  1  0
 20 16  1  0
  2 21  1  0
  3 22  1  0
  4 23  1  0
 10 24  1  0
 11 25  1  0
 13 26  1  0
 16 27  1  0
 17 28  1  0
 17 29  1  0
 18 30  1  0
 18 31  1  0
 19 32  1  0
 19 33  1  0
 20 34  1  0
 20 35  1  0
M  ISO  8  21  14  22  14  23  14  24  14  25  14  26  14  27  13  28  13
M  ISO  7  29  13  30  13  31  13  32  13  33  13  34  13  35  13
M  END
>  <minimizedAffinity>  (1) 
-5.00698614

>  <minimizedRMSD>  (1) 
1.31075406

$$$$
