
     RDKit          3D

 24 25  0  0  0  0  0  0  0  0999 V2000
   47.6460   33.9880   42.2040 C   0  0  0  0  0  0  0  0  0  0  0  0
   48.5390   35.0420   42.2920 C   0  0  0  0  0  0  0  0  0  0  0  0
   49.0330   35.6810   41.1770 C   0  0  0  0  0  0  0  0  0  0  0  0
   48.6190   35.2500   39.9440 C   0  0  0  0  0  0  0  0  0  0  0  0
   47.7150   34.1830   39.8510 C   0  0  0  0  0  0  0  0  0  0  0  0
   47.2580   33.5870   40.9820 N   0  0  0  0  0  0  0  0  0  0  0  0
   47.1500   33.3420   43.4080 C   0  0  0  0  0  0  0  0  0  0  0  0
   47.5830   32.1890   43.6740 O   0  0  0  0  0  0  0  0  0  0  0  0
   46.1830   34.0510   44.2450 C   0  0  0  0  0  0  0  0  0  0  0  0
   46.0110   33.5380   45.5410 C   0  0  0  0  0  0  0  0  0  0  0  0
   45.1060   34.1770   46.3680 C   0  0  0  0  0  0  0  0  0  0  0  0
   44.4460   35.2640   45.8570 N   0  0  0  0  0  0  0  0  0  0  0  0
   44.6420   35.7250   44.6010 C   0  0  0  0  0  0  0  0  0  0  0  0
   45.5000   35.1210   43.8150 N   0  0  0  0  0  0  0  0  0  0  0  0
   47.2080   33.6380   38.6760 O   0  0  0  0  0  0  0  0  0  0  0  0
   45.9460   33.0220   38.7040 C   0  0  0  0  0  0  0  0  0  0  0  0
   45.0270   33.1050   37.8220 O   0  0  0  0  0  0  0  0  0  0  0  0
   48.8650   35.3805   43.2865 H   0  0  0  0  0  0  0  0  0  0  0  0
   49.7421   36.5164   41.2736 H   0  0  0  0  0  0  0  0  0  0  0  0
   48.9939   35.7385   39.0325 H   0  0  0  0  0  0  0  0  0  0  0  0
   46.5760   32.6594   45.8857 H   0  0  0  0  0  0  0  0  0  0  0  0
   44.9230   33.8271   47.3947 H   0  0  0  0  0  0  0  0  0  0  0  0
   44.0845   36.6021   44.2407 H   0  0  0  0  0  0  0  0  0  0  0  0
   45.7252   32.3991   39.5833 H   0  0  0  0  0  0  0  0  0  0  0  0
  1  2  2  0
  1  7  1  0
  3  2  1  0
  4  3  2  0
  5  4  1  0
  5  6  2  0
  6  1  1  0
  7  8  2  0
  7  9  1  0
  9 10  2  0
 10 11  1  0
 12 11  2  0
 13 12  1  0
 14  9  1  0
 14 13  2  0
 15 16  1  0
 15  5  1  0
 17 16  2  0
  2 18  1  0
  3 19  1  0
  4 20  1  0
 10 21  1  0
 11 22  1  0
 13 23  1  0
 16 24  1  0
M  ISO  7  18  14  19  14  20  14  21  14  22  14  23  14  24   6
M  END
>  <minimizedAffinity>  (1) 
-4.4542098

>  <minimizedRMSD>  (1) 
1.17032027

$$$$
