
     RDKit          3D

 31 32  0  0  0  0  0  0  0  0999 V2000
   47.7260   33.9350   42.2110 C   0  0  0  0  0  0  0  0  0  0  0  0
   48.4520   35.0980   42.2120 C   0  0  0  0  0  0  0  0  0  0  0  0
   48.9070   35.6910   41.0570 C   0  0  0  0  0  0  0  0  0  0  0  0
   48.6100   35.0750   39.8790 C   0  0  0  0  0  0  0  0  0  0  0  0
   47.8680   33.8800   39.8460 C   0  0  0  0  0  0  0  0  0  0  0  0
   47.4520   33.3540   41.0240 N   0  0  0  0  0  0  0  0  0  0  0  0
   47.2660   33.3470   43.4660 C   0  0  0  0  0  0  0  0  0  0  0  0
   47.7650   32.2440   43.8150 O   0  0  0  0  0  0  0  0  0  0  0  0
   46.2580   34.0590   44.2510 C   0  0  0  0  0  0  0  0  0  0  0  0
   46.0570   33.5530   45.5530 C   0  0  0  0  0  0  0  0  0  0  0  0
   45.1000   34.2080   46.3340 C   0  0  0  0  0  0  0  0  0  0  0  0
   44.4540   35.2660   45.7700 N   0  0  0  0  0  0  0  0  0  0  0  0
   44.6800   35.7110   44.5240 C   0  0  0  0  0  0  0  0  0  0  0  0
   45.5750   35.1100   43.7750 N   0  0  0  0  0  0  0  0  0  0  0  0
   47.5000   33.1590   38.7450 O   0  0  0  0  0  0  0  0  0  0  0  0
   47.3170   33.7400   37.4940 C   0  0  0  0  0  0  0  0  0  0  0  0
   46.0280   33.2350   36.8740 C   0  0  0  0  0  0  0  0  0  0  0  0
   48.5180   33.3600   36.6440 C   0  0  0  0  0  0  0  0  0  0  0  0
   48.6800   35.5766   43.1758 H   0  0  0  0  0  0  0  0  0  0  0  0
   49.4873   36.6251   41.0837 H   0  0  0  0  0  0  0  0  0  0  0  0
   48.9570   35.5205   38.9350 H   0  0  0  0  0  0  0  0  0  0  0  0
   46.6229   32.6896   45.9330 H   0  0  0  0  0  0  0  0  0  0  0  0
   44.8781   33.8824   47.3610 H   0  0  0  0  0  0  0  0  0  0  0  0
   44.1193   36.5730   44.1334 H   0  0  0  0  0  0  0  0  0  0  0  0
   47.2382   34.8346   37.5695 H   0  0  0  0  0  0  0  0  0  0  0  0
   45.3217   32.9583   37.6706 H   0  0  0  0  0  0  0  0  0  0  0  0
   45.5861   34.0265   36.2509 H   0  0  0  0  0  0  0  0  0  0  0  0
   46.2414   32.3540   36.2509 H   0  0  0  0  0  0  0  0  0  0  0  0
   49.3608   33.0933   37.2986 H   0  0  0  0  0  0  0  0  0  0  0  0
   48.2603   32.4995   36.0091 H   0  0  0  0  0  0  0  0  0  0  0  0
   48.8022   34.2121   36.0091 H   0  0  0  0  0  0  0  0  0  0  0  0
  1  2  2  0
  1  7  1  0
  3  2  1  0
  4  3  2  0
  5  4  1  0
  5  6  2  0
  6  1  1  0
  7  8  2  0
  7  9  1  0
  9 10  2  0
 10 11  1  0
 12 11  2  0
 13 12  1  0
 14  9  1  0
 14 13  2  0
 15  5  1  0
 16 15  1  0
 17 16  1  0
 18 16  1  0
  2 19  1  0
  3 20  1  0
  4 21  1  0
 10 22  1  0
 11 23  1  0
 13 24  1  0
 16 25  1  0
 17 26  1  0
 17 27  1  0
 17 28  1  0
 18 29  1  0
 18 30  1  0
 18 31  1  0
M  ISO  8  19  14  20  14  21  14  22  14  23  14  24  14  25   8  26   8
M  ISO  5  27   8  28   8  29   8  30   8  31   8
M  END
>  <minimizedAffinity>  (1) 
-4.78276348

>  <minimizedRMSD>  (1) 
1.16025639

$$$$
