
     RDKit          3D

 43 47  0  0  1  0  0  0  0  0999 V2000
   47.6870   33.9310   42.2140 C   0  0  0  0  0  0  0  0  0  0  0  0
   48.4420   35.0860   42.1790 C   0  0  0  0  0  0  0  0  0  0  0  0
   48.8930   35.6650   41.0150 C   0  0  0  0  0  0  0  0  0  0  0  0
   48.5660   35.0450   39.8420 C   0  0  0  0  0  0  0  0  0  0  0  0
   47.8120   33.8850   39.8470 C   0  0  0  0  0  0  0  0  0  0  0  0
   47.3990   33.3710   41.0320 N   0  0  0  0  0  0  0  0  0  0  0  0
   47.2460   33.3660   43.4780 C   0  0  0  0  0  0  0  0  0  0  0  0
   47.7770   32.2590   43.8340 O   0  0  0  0  0  0  0  0  0  0  0  0
   46.2480   34.0680   44.2580 C   0  0  0  0  0  0  0  0  0  0  0  0
   46.0390   33.5650   45.5650 C   0  0  0  0  0  0  0  0  0  0  0  0
   45.0850   34.2230   46.3360 C   0  0  0  0  0  0  0  0  0  0  0  0
   44.4410   35.2830   45.7790 N   0  0  0  0  0  0  0  0  0  0  0  0
   44.6740   35.7230   44.5320 C   0  0  0  0  0  0  0  0  0  0  0  0
   45.5740   35.1160   43.7820 N   0  0  0  0  0  0  0  0  0  0  0  0
   47.3930   33.1230   38.7700 O   0  0  0  0  0  0  0  0  0  0  0  0
   47.9310   33.1910   37.4690 C   0  0  1  0  0  0  0  0  0  0  0  0
   49.2210   32.3470   37.3820 C   0  0  0  0  0  0  0  0  0  0  0  0
   47.9510   32.0050   36.6100 C   0  0  2  0  0  0  0  0  0  0  0  0
   47.9050   32.2130   35.1480 C   0  0  0  0  0  0  0  0  0  0  0  0
   46.6970   32.7150   34.6450 C   0  0  0  0  0  0  0  0  0  0  0  0
   46.8110   32.8310   33.2960 N   0  0  0  0  0  0  0  0  0  0  0  0
   48.0340   32.4290   32.8930 C   0  0  0  0  0  0  0  0  0  0  0  0
   48.7530   32.3050   31.7220 C   0  0  0  0  0  0  0  0  0  0  0  0
   50.0410   31.8330   31.7360 C   0  0  0  0  0  0  0  0  0  0  0  0
   50.6950   31.4570   32.9140 C   0  0  0  0  0  0  0  0  0  0  0  0
   49.9880   31.5750   34.0930 C   0  0  0  0  0  0  0  0  0  0  0  0
   48.6960   32.0520   34.0320 C   0  0  0  0  0  0  0  0  0  0  0  0
   48.6970   35.5699   43.1334 H   0  0  0  0  0  0  0  0  0  0  0  0
   49.4914   36.5879   41.0282 H   0  0  0  0  0  0  0  0  0  0  0  0
   48.9049   35.4715   38.8864 H   0  0  0  0  0  0  0  0  0  0  0  0
   46.6002   32.7009   45.9503 H   0  0  0  0  0  0  0  0  0  0  0  0
   44.8596   33.8962   47.3619 H   0  0  0  0  0  0  0  0  0  0  0  0
   44.1171   36.5856   44.1374 H   0  0  0  0  0  0  0  0  0  0  0  0
   47.5897   34.2165   37.2645 H   0  0  0  0  0  0  0  0  0  0  0  0
   50.1066   32.7337   36.8564 H   0  0  0  0  0  0  0  0  0  0  0  0
   49.8826   31.8305   38.0930 H   0  0  0  0  0  0  0  0  0  0  0  0
   47.3399   31.0939   36.5300 H   0  0  0  0  0  0  0  0  0  0  0  0
   45.8084   32.9713   35.2406 H   0  0  0  0  0  0  0  0  0  0  0  0
   46.0694   33.1766   32.6703 H   0  0  0  0  0  0  0  0  0  0  0  0
   48.2881   32.5879   30.7661 H   0  0  0  0  0  0  0  0  0  0  0  0
   50.5816   31.7467   30.7819 H   0  0  0  0  0  0  0  0  0  0  0  0
   51.7294   31.0830   32.9010 H   0  0  0  0  0  0  0  0  0  0  0  0
   50.4427   31.2962   35.0550 H   0  0  0  0  0  0  0  0  0  0  0  0
  1  7  1  0
  2  1  2  0
  3  2  1  0
  4  5  1  0
  4  3  2  0
  5  6  2  0
  6  1  1  0
  7  8  2  0
  7  9  1  0
  9 10  2  0
 10 11  1  0
 12 11  2  0
 13 12  1  0
 14  9  1  0
 14 13  2  0
 15  5  1  0
 16 15  1  0
 17 16  1  0
 18 17  1  0
 18 16  1  0
 19 18  1  0
 20 19  2  0
 21 20  1  0
 22 21  1  0
 22 27  2  0
 23 24  2  0
 23 22  1  0
 24 25  1  0
 25 26  2  0
 27 26  1  0
 27 19  1  0
  2 28  1  0
  3 29  1  0
  4 30  1  0
 10 31  1  0
 11 32  1  0
 13 33  1  0
 16 34  1  6
 17 35  1  0
 17 36  1  0
 18 37  1  1
 20 38  1  0
 21 39  1  0
 23 40  1  0
 24 41  1  0
 25 42  1  0
 26 43  1  0
M  ISO  8  28  14  29  14  30  14  31  14  32  14  33  14  34  13  35  13
M  ISO  8  36  13  37  13  38  14  39   9  40  14  41  14  42  14  43  14
M  END
>  <minimizedAffinity>  (1) 
-6.39451647

>  <minimizedRMSD>  (1) 
1.20517564

$$$$
