
     RDKit          3D

 45 49  0  0  1  0  0  0  0  0999 V2000
   47.2970   34.0260   41.8320 C   0  0  0  0  0  0  0  0  0  0  0  0
   48.2030   34.9740   42.2530 C   0  0  0  0  0  0  0  0  0  0  0  0
   49.0020   35.6920   41.3950 C   0  0  0  0  0  0  0  0  0  0  0  0
   48.8770   35.4350   40.0610 C   0  0  0  0  0  0  0  0  0  0  0  0
   47.9760   34.4870   39.6070 C   0  0  0  0  0  0  0  0  0  0  0  0
   47.2170   33.8160   40.5090 N   0  0  0  0  0  0  0  0  0  0  0  0
   46.4840   33.2940   42.7900 C   0  0  0  0  0  0  0  0  0  0  0  0
   46.4240   32.0240   42.6530 O   0  0  0  0  0  0  0  0  0  0  0  0
   45.7940   34.0130   43.8330 C   0  0  0  0  0  0  0  0  0  0  0  0
   45.8710   33.4530   45.1280 C   0  0  0  0  0  0  0  0  0  0  0  0
   45.2140   34.1320   46.1450 C   0  0  0  0  0  0  0  0  0  0  0  0
   44.5510   35.2770   45.8190 N   0  0  0  0  0  0  0  0  0  0  0  0
   44.5060   35.7680   44.5800 C   0  0  0  0  0  0  0  0  0  0  0  0
   45.1190   35.1470   43.5920 N   0  0  0  0  0  0  0  0  0  0  0  0
   47.7140   34.0890   38.3090 O   0  0  0  0  0  0  0  0  0  0  0  0
   48.2570   32.9490   37.6850 C   0  0  1  0  0  0  0  0  0  0  0  0
   47.1430   32.1500   36.9740 C   0  0  0  0  0  0  0  0  0  0  0  0
   48.2600   32.8410   36.2240 C   0  0  2  0  0  0  0  0  0  0  0  0
   49.2820   32.0190   35.5340 C   0  0  0  0  0  0  0  0  0  0  0  0
   50.1380   31.2130   36.2740 C   0  0  0  0  0  0  0  0  0  0  0  0
   51.0610   30.4780   35.5620 C   0  0  0  0  0  0  0  0  0  0  0  0
   51.2010   30.4780   34.1860 C   0  0  0  0  0  0  0  0  0  0  0  0
   50.3340   31.2910   33.4710 C   0  0  0  0  0  0  0  0  0  0  0  0
   50.4330   31.3280   32.0840 C   0  0  0  0  0  0  0  0  0  0  0  0
   49.5880   32.1240   31.3460 C   0  0  0  0  0  0  0  0  0  0  0  0
   48.6410   32.8850   31.9910 C   0  0  0  0  0  0  0  0  0  0  0  0
   48.5620   32.8300   33.3820 C   0  0  0  0  0  0  0  0  0  0  0  0
   49.3970   32.0410   34.1460 C   0  0  0  0  0  0  0  0  0  0  0  0
   48.2920   35.1668   43.3323 H   0  0  0  0  0  0  0  0  0  0  0  0
   49.7132   36.4432   41.7689 H   0  0  0  0  0  0  0  0  0  0  0  0
   49.4979   35.9862   39.3394 H   0  0  0  0  0  0  0  0  0  0  0  0
   46.4255   32.5228   45.3212 H   0  0  0  0  0  0  0  0  0  0  0  0
   45.2281   33.7583   47.1795 H   0  0  0  0  0  0  0  0  0  0  0  0
   43.9533   36.6980   44.3810 H   0  0  0  0  0  0  0  0  0  0  0  0
   49.0587   32.7906   38.4213 H   0  0  0  0  0  0  0  0  0  0  0  0
   47.1134   31.0526   37.0429 H   0  0  0  0  0  0  0  0  0  0  0  0
   46.0433   32.1680   36.9531 H   0  0  0  0  0  0  0  0  0  0  0  0
   48.3003   33.5820   35.4121 H   0  0  0  0  0  0  0  0  0  0  0  0
   50.0819   31.1640   37.3715 H   0  0  0  0  0  0  0  0  0  0  0  0
   51.7448   29.8365   36.1372 H   0  0  0  0  0  0  0  0  0  0  0  0
   51.9624   29.8635   33.6834 H   0  0  0  0  0  0  0  0  0  0  0  0
   51.1920   30.7167   31.5739 H   0  0  0  0  0  0  0  0  0  0  0  0
   49.6689   32.1517   30.2493 H   0  0  0  0  0  0  0  0  0  0  0  0
   47.9562   33.5274   31.4180 H   0  0  0  0  0  0  0  0  0  0  0  0
   47.8023   33.4411   33.8914 H   0  0  0  0  0  0  0  0  0  0  0  0
  1  2  2  0
  1  7  1  0
  3  2  1  0
  4  3  2  0
  5  4  1  0
  5  6  2  0
  6  1  1  0
  7  9  1  0
  8  7  2  0
  9 10  2  0
 10 11  1  0
 12 11  2  0
 13 12  1  0
 14  9  1  0
 14 13  2  0
 15  5  1  0
 16 15  1  0
 17 16  1  0
 18 17  1  0
 18 16  1  0
 19 18  1  0
 19 20  2  0
 21 20  1  0
 22 21  2  0
 23 28  2  0
 23 22  1  0
 24 23  1  0
 25 26  1  0
 25 24  2  0
 26 27  2  0
 27 28  1  0
 28 19  1  0
  2 29  1  0
  3 30  1  0
  4 31  1  0
 10 32  1  0
 11 33  1  0
 13 34  1  0
 16 35  1  1
 17 36  1  0
 17 37  1  0
 18 38  1  6
 20 39  1  0
 21 40  1  0
 22 41  1  0
 24 42  1  0
 25 43  1  0
 26 44  1  0
 27 45  1  0
M  ISO  8  29  14  30  14  31  14  32  14  33  14  34  14  35  13  36  13
M  ISO  8  37  13  38  13  39  14  40  14  41  14  42  14  43  14  44  14
M  ISO  1  45  14
M  END
>  <minimizedAffinity>  (1) 
-6.48396873

>  <minimizedRMSD>  (1) 
2.85868859

$$$$
