
     RDKit          3D

 42 45  0  0  1  0  0  0  0  0999 V2000
   46.7940   34.0460   41.3910 C   0  0  0  0  0  0  0  0  0  0  0  0
   47.7440   34.8930   41.9340 C   0  0  0  0  0  0  0  0  0  0  0  0
   48.7430   35.4840   41.1980 C   0  0  0  0  0  0  0  0  0  0  0  0
   48.7790   35.2060   39.8700 C   0  0  0  0  0  0  0  0  0  0  0  0
   47.8480   34.3640   39.2900 C   0  0  0  0  0  0  0  0  0  0  0  0
   46.8880   33.8160   40.0770 N   0  0  0  0  0  0  0  0  0  0  0  0
   45.7670   33.4500   42.2240 C   0  0  0  0  0  0  0  0  0  0  0  0
   45.2720   32.3440   41.8330 O   0  0  0  0  0  0  0  0  0  0  0  0
   45.3580   34.1220   43.4370 C   0  0  0  0  0  0  0  0  0  0  0  0
   45.6850   33.4550   44.6430 C   0  0  0  0  0  0  0  0  0  0  0  0
   45.3030   34.0890   45.8240 C   0  0  0  0  0  0  0  0  0  0  0  0
   44.6550   35.2840   45.7280 N   0  0  0  0  0  0  0  0  0  0  0  0
   44.3710   35.8710   44.5590 C   0  0  0  0  0  0  0  0  0  0  0  0
   44.7170   35.2980   43.4290 N   0  0  0  0  0  0  0  0  0  0  0  0
   47.7380   33.9670   37.9700 O   0  0  0  0  0  0  0  0  0  0  0  0
   48.8120   33.7220   37.1000 C   0  0  1  0  0  0  0  0  0  0  0  0
   49.2120   32.2270   37.1530 C   0  0  0  0  0  0  0  0  0  0  0  0
   48.6510   32.8870   35.9130 C   0  0  1  0  0  0  0  0  0  0  0  0
   47.3460   32.3710   35.5210 N   0  0  0  0  0  0  0  0  0  0  0  0
   46.3980   32.0050   36.4130 C   0  0  0  0  0  0  0  0  0  0  0  0
   45.1860   31.5260   35.9470 C   0  0  0  0  0  0  0  0  0  0  0  0
   44.1310   31.1190   36.9310 C   0  0  0  0  0  0  0  0  0  0  0  0
   44.8910   31.4010   34.6050 C   0  0  0  0  0  0  0  0  0  0  0  0
   43.7730   30.9600   34.2480 O   0  0  0  0  0  0  0  0  0  0  0  0
   45.8790   31.7830   33.7650 N   0  0  0  0  0  0  0  0  0  0  0  0
   47.0650   32.2510   34.1970 C   0  0  0  0  0  0  0  0  0  0  0  0
   47.8900   32.5690   33.2790 O   0  0  0  0  0  0  0  0  0  0  0  0
   47.6971   35.1046   43.0124 H   0  0  0  0  0  0  0  0  0  0  0  0
   49.4810   36.1530   41.6647 H   0  0  0  0  0  0  0  0  0  0  0  0
   49.5624   35.6584   39.2442 H   0  0  0  0  0  0  0  0  0  0  0  0
   46.2117   32.4893   44.6473 H   0  0  0  0  0  0  0  0  0  0  0  0
   45.5181   33.6383   46.8041 H   0  0  0  0  0  0  0  0  0  0  0  0
   43.8456   36.8373   44.5447 H   0  0  0  0  0  0  0  0  0  0  0  0
   49.2632   34.7185   37.2162 H   0  0  0  0  0  0  0  0  0  0  0  0
   50.2712   31.9338   37.1987 H   0  0  0  0  0  0  0  0  0  0  0  0
   48.9562   31.3570   37.7756 H   0  0  0  0  0  0  0  0  0  0  0  0
   48.9672   33.0538   34.8727 H   0  0  0  0  0  0  0  0  0  0  0  0
   46.5873   32.0868   37.4935 H   0  0  0  0  0  0  0  0  0  0  0  0
   44.5081   31.2645   37.9540 H   0  0  0  0  0  0  0  0  0  0  0  0
   43.2321   31.7349   36.7805 H   0  0  0  0  0  0  0  0  0  0  0  0
   43.8786   30.0590   36.7805 H   0  0  0  0  0  0  0  0  0  0  0  0
   45.7173   31.7129   32.7502 H   0  0  0  0  0  0  0  0  0  0  0  0
  1  2  2  0
  1  7  1  0
  3  2  1  0
  4  3  2  0
  5  4  1  0
  5  6  2  0
  6  1  1  0
  7  9  1  0
  8  7  2  0
  9 10  2  0
 10 11  1  0
 12 11  2  0
 13 12  1  0
 14  9  1  0
 14 13  2  0
 15  5  1  0
 16 17  1  0
 16 15  1  0
 18 16  1  0
 18 17  1  0
 19 18  1  0
 19 20  1  0
 21 20  2  0
 21 22  1  0
 23 21  1  0
 24 23  2  0
 25 26  1  0
 25 23  1  0
 26 19  1  0
 27 26  2  0
  2 28  1  0
  3 29  1  0
  4 30  1  0
 10 31  1  0
 11 32  1  0
 13 33  1  0
 16 34  1  6
 17 35  1  0
 17 36  1  0
 18 37  1  6
 20 38  1  0
 22 39  1  0
 22 40  1  0
 22 41  1  0
 25 42  1  0
M  ISO  8  28  14  29  14  30  14  31  14  32  14  33  14  34  13  35  13
M  ISO  7  36  13  37  13  38  14  39   8  40   8  41   8  42   9
M  END
>  <minimizedAffinity>  (1) 
-6.16749907

>  <minimizedRMSD>  (1) 
1.52893198

$$$$
