
     RDKit          3D

 40 44  0  0  1  0  0  0  0  0999 V2000
   47.5240   33.9180   42.1220 C   0  0  0  0  0  0  0  0  0  0  0  0
   48.4510   34.9410   42.0690 C   0  0  0  0  0  0  0  0  0  0  0  0
   48.9050   35.4940   40.8930 C   0  0  0  0  0  0  0  0  0  0  0  0
   48.4000   34.9910   39.7330 C   0  0  0  0  0  0  0  0  0  0  0  0
   47.4710   33.9680   39.7500 C   0  0  0  0  0  0  0  0  0  0  0  0
   47.0680   33.4700   40.9460 N   0  0  0  0  0  0  0  0  0  0  0  0
   47.0880   33.3750   43.3940 C   0  0  0  0  0  0  0  0  0  0  0  0
   47.5770   32.2470   43.7420 O   0  0  0  0  0  0  0  0  0  0  0  0
   46.1400   34.1130   44.1970 C   0  0  0  0  0  0  0  0  0  0  0  0
   45.9190   33.6200   45.5020 C   0  0  0  0  0  0  0  0  0  0  0  0
   45.0160   34.3080   46.2950 C   0  0  0  0  0  0  0  0  0  0  0  0
   44.4120   35.4050   45.7560 N   0  0  0  0  0  0  0  0  0  0  0  0
   44.6510   35.8360   44.5130 C   0  0  0  0  0  0  0  0  0  0  0  0
   45.5050   35.2010   43.7380 N   0  0  0  0  0  0  0  0  0  0  0  0
   46.8580   33.3290   38.6850 O   0  0  0  0  0  0  0  0  0  0  0  0
   47.5270   32.6400   37.6590 C   0  0  1  0  0  0  0  0  0  0  0  0
   46.9020   31.2400   37.4600 C   0  0  0  0  0  0  0  0  0  0  0  0
   46.8530   32.3280   36.4000 C   0  0  2  0  0  0  0  0  0  0  0  0
   47.6120   32.1420   35.1710 N   0  0  0  0  0  0  0  0  0  0  0  0
   48.7570   32.7340   34.7820 C   0  0  0  0  0  0  0  0  0  0  0  0
   49.0940   32.2470   33.5580 N   0  0  0  0  0  0  0  0  0  0  0  0
   48.1560   31.3680   33.2120 C   0  0  0  0  0  0  0  0  0  0  0  0
   47.9200   30.5420   32.1080 C   0  0  0  0  0  0  0  0  0  0  0  0
   46.8580   29.7260   32.0190 N   0  0  0  0  0  0  0  0  0  0  0  0
   45.9740   29.6760   33.0040 C   0  0  0  0  0  0  0  0  0  0  0  0
   46.1630   30.4540   34.0850 N   0  0  0  0  0  0  0  0  0  0  0  0
   47.2140   31.2860   34.2120 C   0  0  0  0  0  0  0  0  0  0  0  0
   48.8473   35.3345   43.0167 H   0  0  0  0  0  0  0  0  0  0  0  0
   49.6447   36.3081   40.8906 H   0  0  0  0  0  0  0  0  0  0  0  0
   48.7356   35.4040   38.7703 H   0  0  0  0  0  0  0  0  0  0  0  0
   46.4425   32.7265   45.8731 H   0  0  0  0  0  0  0  0  0  0  0  0
   44.7942   33.9815   47.3218 H   0  0  0  0  0  0  0  0  0  0  0  0
   44.1300   36.7280   44.1351 H   0  0  0  0  0  0  0  0  0  0  0  0
   48.5080   33.0998   37.8491 H   0  0  0  0  0  0  0  0  0  0  0  0
   47.5432   30.3566   37.3240 H   0  0  0  0  0  0  0  0  0  0  0  0
   46.1703   30.6130   37.9905 H   0  0  0  0  0  0  0  0  0  0  0  0
   46.0513   32.8260   35.8350 H   0  0  0  0  0  0  0  0  0  0  0  0
   49.3226   33.4829   35.3558 H   0  0  0  0  0  0  0  0  0  0  0  0
   48.6377   30.5621   31.2746 H   0  0  0  0  0  0  0  0  0  0  0  0
   45.1008   29.0101   32.9393 H   0  0  0  0  0  0  0  0  0  0  0  0
  1  7  1  0
  2  1  2  0
  3  2  1  0
  4  5  1  0
  4  3  2  0
  5  6  2  0
  6  1  1  0
  7  8  2  0
  7  9  1  0
  9 10  2  0
 10 11  1  0
 12 11  2  0
 13 12  1  0
 14  9  1  0
 14 13  2  0
 15  5  1  0
 16 15  1  0
 17 16  1  0
 18 17  1  0
 18 16  1  0
 19 18  1  0
 20 19  1  0
 21 20  2  0
 22 21  1  0
 22 27  2  0
 23 22  1  0
 24 23  2  0
 24 25  1  0
 25 26  2  0
 26 27  1  0
 27 19  1  0
  2 28  1  0
  3 29  1  0
  4 30  1  0
 10 31  1  0
 11 32  1  0
 13 33  1  0
 16 34  1  6
 17 35  1  0
 17 36  1  0
 18 37  1  6
 20 38  1  0
 23 39  1  0
 25 40  1  0
M  ISO  8  28  14  29  14  30  14  31  14  32  14  33  14  34  13  35  13
M  ISO  5  36  13  37  13  38  14  39  14  40  14
M  END
>  <minimizedAffinity>  (1) 
-5.98141193

>  <minimizedRMSD>  (1) 
1.79661214

$$$$
