
     RDKit          3D

 37 40  0  0  1  0  0  0  0  0999 V2000
   47.4740   34.0140   41.9530 C   0  0  0  0  0  0  0  0  0  0  0  0
   48.3740   35.0090   42.2670 C   0  0  0  0  0  0  0  0  0  0  0  0
   49.0690   35.7240   41.3240 C   0  0  0  0  0  0  0  0  0  0  0  0
   48.8440   35.4200   40.0150 C   0  0  0  0  0  0  0  0  0  0  0  0
   47.9470   34.4240   39.6670 C   0  0  0  0  0  0  0  0  0  0  0  0
   47.2920   33.7580   40.6510 N   0  0  0  0  0  0  0  0  0  0  0  0
   46.7720   33.2880   43.0000 C   0  0  0  0  0  0  0  0  0  0  0  0
   46.9120   32.0180   43.0140 O   0  0  0  0  0  0  0  0  0  0  0  0
   45.9690   34.0220   43.9540 C   0  0  0  0  0  0  0  0  0  0  0  0
   45.9390   33.4800   45.2610 C   0  0  0  0  0  0  0  0  0  0  0  0
   45.1720   34.1700   46.1990 C   0  0  0  0  0  0  0  0  0  0  0  0
   44.5240   35.2850   45.7920 N   0  0  0  0  0  0  0  0  0  0  0  0
   44.5830   35.7630   44.5370 C   0  0  0  0  0  0  0  0  0  0  0  0
   45.3030   35.1290   43.6300 N   0  0  0  0  0  0  0  0  0  0  0  0
   47.5940   33.9740   38.4050 O   0  0  0  0  0  0  0  0  0  0  0  0
   48.3780   33.1290   37.5980 C   0  0  1  0  0  0  0  0  0  0  0  0
   47.8790   31.6720   37.7070 C   0  0  0  0  0  0  0  0  0  0  0  0
   47.7990   32.4620   36.4280 C   0  0  2  0  0  0  0  0  0  0  0  0
   48.7630   32.1590   35.3340 C   0  0  0  0  0  0  0  0  0  0  0  0
   49.7740   31.2050   35.3860 C   0  0  0  0  0  0  0  0  0  0  0  0
   50.6070   31.0150   34.3010 C   0  0  0  0  0  0  0  0  0  0  0  0
   50.4750   31.7370   33.1690 N   0  0  0  0  0  0  0  0  0  0  0  0
   49.4920   32.6540   33.1400 C   0  0  0  0  0  0  0  0  0  0  0  0
   48.6510   32.8740   34.1770 N   0  0  0  0  0  0  0  0  0  0  0  0
   48.5442   35.2423   43.3284 H   0  0  0  0  0  0  0  0  0  0  0  0
   49.7800   36.5118   41.6137 H   0  0  0  0  0  0  0  0  0  0  0  0
   49.3796   35.9706   39.2277 H   0  0  0  0  0  0  0  0  0  0  0  0
   46.4904   32.5648   45.5225 H   0  0  0  0  0  0  0  0  0  0  0  0
   45.0963   33.8181   47.2384 H   0  0  0  0  0  0  0  0  0  0  0  0
   44.0344   36.6774   44.2672 H   0  0  0  0  0  0  0  0  0  0  0  0
   49.3056   33.7095   37.7100 H   0  0  0  0  0  0  0  0  0  0  0  0
   48.5960   30.8437   37.8061 H   0  0  0  0  0  0  0  0  0  0  0  0
   47.1709   31.1225   38.3446 H   0  0  0  0  0  0  0  0  0  0  0  0
   46.9692   32.6690   35.7363 H   0  0  0  0  0  0  0  0  0  0  0  0
   49.9105   30.5999   36.2944 H   0  0  0  0  0  0  0  0  0  0  0  0
   51.3995   30.2545   34.3614 H   0  0  0  0  0  0  0  0  0  0  0  0
   49.3652   33.2554   32.2277 H   0  0  0  0  0  0  0  0  0  0  0  0
  1  2  2  0
  1  7  1  0
  3  2  1  0
  4  3  2  0
  5  4  1  0
  5  6  2  0
  6  1  1  0
  7  8  2  0
  7  9  1  0
  9 10  2  0
 10 11  1  0
 12 11  2  0
 13 12  1  0
 14  9  1  0
 14 13  2  0
 15  5  1  0
 16 17  1  0
 16 15  1  0
 18 16  1  0
 18 17  1  0
 19 20  2  0
 19 18  1  0
 21 20  1  0
 22 21  2  0
 23 22  1  0
 23 24  2  0
 24 19  1  0
  2 25  1  0
  3 26  1  0
  4 27  1  0
 10 28  1  0
 11 29  1  0
 13 30  1  0
 16 31  1  6
 17 32  1  0
 17 33  1  0
 18 34  1  6
 20 35  1  0
 21 36  1  0
 23 37  1  0
M  ISO  8  25  14  26  14  27  14  28  14  29  14  30  14  31  13  32  13
M  ISO  5  33  13  34  13  35  14  36  14  37  14
M  END
>  <minimizedAffinity>  (1) 
-5.56604147

>  <minimizedRMSD>  (1) 
1.6396234

$$$$
