
     RDKit          3D

 39 42  0  0  1  0  0  0  0  0999 V2000
   47.3500   34.0690   41.8730 C   0  0  0  0  0  0  0  0  0  0  0  0
   48.2450   35.0340   42.2950 C   0  0  0  0  0  0  0  0  0  0  0  0
   49.0310   35.7630   41.4350 C   0  0  0  0  0  0  0  0  0  0  0  0
   48.9080   35.5040   40.1030 C   0  0  0  0  0  0  0  0  0  0  0  0
   48.0210   34.5410   39.6560 C   0  0  0  0  0  0  0  0  0  0  0  0
   47.2700   33.8560   40.5530 N   0  0  0  0  0  0  0  0  0  0  0  0
   46.5500   33.3270   42.8310 C   0  0  0  0  0  0  0  0  0  0  0  0
   46.5270   32.0560   42.7030 O   0  0  0  0  0  0  0  0  0  0  0  0
   45.8320   34.0370   43.8630 C   0  0  0  0  0  0  0  0  0  0  0  0
   45.8860   33.4740   45.1570 C   0  0  0  0  0  0  0  0  0  0  0  0
   45.2060   34.1350   46.1640 C   0  0  0  0  0  0  0  0  0  0  0  0
   44.5400   35.2710   45.8320 N   0  0  0  0  0  0  0  0  0  0  0  0
   44.5120   35.7760   44.5880 C   0  0  0  0  0  0  0  0  0  0  0  0
   45.1520   35.1650   43.6130 N   0  0  0  0  0  0  0  0  0  0  0  0
   47.7730   34.1420   38.3520 O   0  0  0  0  0  0  0  0  0  0  0  0
   48.7300   33.9400   37.3530 C   0  0  1  0  0  0  0  0  0  0  0  0
   49.2080   32.4690   37.3460 C   0  0  0  0  0  0  0  0  0  0  0  0
   48.4710   33.1100   36.1850 C   0  0  1  0  0  0  0  0  0  0  0  0
   47.1540   32.4770   35.9260 C   0  0  0  0  0  0  0  0  0  0  0  0
   46.8330   32.1410   34.6110 C   0  0  0  0  0  0  0  0  0  0  0  0
   45.6110   31.5410   34.2900 C   0  0  0  0  0  0  0  0  0  0  0  0
   44.6870   31.2610   35.2460 C   0  0  0  0  0  0  0  0  0  0  0  0
   44.9960   31.5900   36.5490 C   0  0  0  0  0  0  0  0  0  0  0  0
   46.1930   32.1790   36.8700 C   0  0  0  0  0  0  0  0  0  0  0  0
   48.3327   35.2284   43.3741 H   0  0  0  0  0  0  0  0  0  0  0  0
   49.7314   36.5251   41.8072 H   0  0  0  0  0  0  0  0  0  0  0  0
   49.5177   36.0640   39.3786 H   0  0  0  0  0  0  0  0  0  0  0  0
   46.4457   32.5481   45.3559 H   0  0  0  0  0  0  0  0  0  0  0  0
   45.2047   33.7544   47.1961 H   0  0  0  0  0  0  0  0  0  0  0  0
   43.9536   36.7014   44.3833 H   0  0  0  0  0  0  0  0  0  0  0  0
   49.1395   34.9587   37.4212 H   0  0  0  0  0  0  0  0  0  0  0  0
   50.2786   32.2297   37.2646 H   0  0  0  0  0  0  0  0  0  0  0  0
   49.0714   31.5841   37.9850 H   0  0  0  0  0  0  0  0  0  0  0  0
   48.6422   33.3234   35.1196 H   0  0  0  0  0  0  0  0  0  0  0  0
   47.5561   32.3523   33.8094 H   0  0  0  0  0  0  0  0  0  0  0  0
   45.3934   31.2905   33.2412 H   0  0  0  0  0  0  0  0  0  0  0  0
   43.7271   30.7889   34.9898 H   0  0  0  0  0  0  0  0  0  0  0  0
   44.2690   31.3762   37.3463 H   0  0  0  0  0  0  0  0  0  0  0  0
   46.3947   32.4237   37.9233 H   0  0  0  0  0  0  0  0  0  0  0  0
  1  2  2  0
  1  7  1  0
  3  2  1  0
  4  3  2  0
  5  4  1  0
  5  6  2  0
  6  1  1  0
  7  9  1  0
  8  7  2  0
  9 10  2  0
 10 11  1  0
 12 11  2  0
 13 12  1  0
 14  9  1  0
 14 13  2  0
 15  5  1  0
 16 15  1  0
 17 16  1  0
 18 17  1  0
 18 16  1  0
 19 18  1  0
 19 24  1  0
 20 19  2  0
 21 20  1  0
 21 22  2  0
 22 23  1  0
 23 24  2  0
  2 25  1  0
  3 26  1  0
  4 27  1  0
 10 28  1  0
 11 29  1  0
 13 30  1  0
 16 31  1  6
 17 32  1  0
 17 33  1  0
 18 34  1  6
 20 35  1  0
 21 36  1  0
 22 37  1  0
 23 38  1  0
 24 39  1  0
M  ISO  8  25  14  26  14  27  14  28  14  29  14  30  14  31  13  32  13
M  ISO  7  33  13  34  13  35  14  36  14  37  14  38  14  39  14
M  END
>  <minimizedAffinity>  (1) 
-5.5099206

>  <minimizedRMSD>  (1) 
0.940758467

$$$$
