
     RDKit          3D

 39 42  0  0  1  0  0  0  0  0999 V2000
   47.3500   34.0000   41.8370 C   0  0  0  0  0  0  0  0  0  0  0  0
   48.2370   34.9830   42.2150 C   0  0  0  0  0  0  0  0  0  0  0  0
   49.0010   35.7010   41.3210 C   0  0  0  0  0  0  0  0  0  0  0  0
   48.8550   35.4060   39.9980 C   0  0  0  0  0  0  0  0  0  0  0  0
   47.9710   34.4240   39.5860 C   0  0  0  0  0  0  0  0  0  0  0  0
   47.2510   33.7580   40.5240 N   0  0  0  0  0  0  0  0  0  0  0  0
   46.5740   33.2700   42.8280 C   0  0  0  0  0  0  0  0  0  0  0  0
   46.5770   31.9940   42.7410 O   0  0  0  0  0  0  0  0  0  0  0  0
   45.8500   34.0050   43.8440 C   0  0  0  0  0  0  0  0  0  0  0  0
   45.9080   33.4510   45.1460 C   0  0  0  0  0  0  0  0  0  0  0  0
   45.2190   34.1420   46.1410 C   0  0  0  0  0  0  0  0  0  0  0  0
   44.5550   35.2790   45.7830 N   0  0  0  0  0  0  0  0  0  0  0  0
   44.5320   35.7600   44.5330 C   0  0  0  0  0  0  0  0  0  0  0  0
   45.1780   35.1240   43.5720 N   0  0  0  0  0  0  0  0  0  0  0  0
   47.6930   33.9850   38.3030 O   0  0  0  0  0  0  0  0  0  0  0  0
   48.5660   33.2230   37.5040 C   0  0  1  0  0  0  0  0  0  0  0  0
   48.3010   31.7150   37.6980 C   0  0  0  0  0  0  0  0  0  0  0  0
   48.0450   32.4270   36.3890 C   0  0  2  0  0  0  0  0  0  0  0  0
   48.9500   32.1190   35.2350 C   0  0  0  0  0  0  0  0  0  0  0  0
   49.9460   31.1630   35.3830 C   0  0  0  0  0  0  0  0  0  0  0  0
   50.7550   30.9260   34.2650 C   0  0  0  0  0  0  0  0  0  0  0  0
   50.5470   31.6290   33.0820 C   0  0  0  0  0  0  0  0  0  0  0  0
   49.5380   32.5750   32.9900 C   0  0  0  0  0  0  0  0  0  0  0  0
   48.7120   32.8380   34.0810 C   0  0  0  0  0  0  0  0  0  0  0  0
   48.3411   35.2068   43.2869 H   0  0  0  0  0  0  0  0  0  0  0  0
   49.6997   36.4798   41.6606 H   0  0  0  0  0  0  0  0  0  0  0  0
   49.4462   35.9544   39.2499 H   0  0  0  0  0  0  0  0  0  0  0  0
   46.4655   32.5272   45.3599 H   0  0  0  0  0  0  0  0  0  0  0  0
   45.2107   33.7827   47.1806 H   0  0  0  0  0  0  0  0  0  0  0  0
   43.9766   36.6823   44.3073 H   0  0  0  0  0  0  0  0  0  0  0  0
   49.4020   33.9362   37.5531 H   0  0  0  0  0  0  0  0  0  0  0  0
   49.1396   31.0097   37.7940 H   0  0  0  0  0  0  0  0  0  0  0  0
   47.7139   31.0957   38.3921 H   0  0  0  0  0  0  0  0  0  0  0  0
   47.1726   32.5301   35.7270 H   0  0  0  0  0  0  0  0  0  0  0  0
   50.0918   30.6204   36.3287 H   0  0  0  0  0  0  0  0  0  0  0  0
   51.5605   30.1790   34.3221 H   0  0  0  0  0  0  0  0  0  0  0  0
   51.1897   31.4320   32.2113 H   0  0  0  0  0  0  0  0  0  0  0  0
   49.3881   33.1227   32.0479 H   0  0  0  0  0  0  0  0  0  0  0  0
   47.9065   33.5850   34.0251 H   0  0  0  0  0  0  0  0  0  0  0  0
  1  2  2  0
  1  7  1  0
  3  2  1  0
  4  3  2  0
  5  4  1  0
  5  6  2  0
  6  1  1  0
  7  9  1  0
  8  7  2  0
  9 10  2  0
 10 11  1  0
 12 11  2  0
 13 12  1  0
 14  9  1  0
 14 13  2  0
 15  5  1  0
 16 17  1  0
 16 15  1  0
 18 16  1  0
 18 17  1  0
 19 20  2  0
 19 18  1  0
 21 20  1  0
 22 21  2  0
 23 22  1  0
 23 24  2  0
 24 19  1  0
  2 25  1  0
  3 26  1  0
  4 27  1  0
 10 28  1  0
 11 29  1  0
 13 30  1  0
 16 31  1  6
 17 32  1  0
 17 33  1  0
 18 34  1  6
 20 35  1  0
 21 36  1  0
 22 37  1  0
 23 38  1  0
 24 39  1  0
M  ISO  8  25  14  26  14  27  14  28  14  29  14  30  14  31  13  32  13
M  ISO  7  33  13  34  13  35  14  36  14  37  14  38  14  39  14
M  END
>  <minimizedAffinity>  (1) 
-5.65651655

>  <minimizedRMSD>  (1) 
1.55750585

$$$$
