
     RDKit          3D

 42 45  0  0  1  0  0  0  0  0999 V2000
   47.3420   34.0480   41.9060 C   0  0  0  0  0  0  0  0  0  0  0  0
   48.2290   35.0260   42.3140 C   0  0  0  0  0  0  0  0  0  0  0  0
   49.0090   35.7510   41.4430 C   0  0  0  0  0  0  0  0  0  0  0  0
   48.8820   35.4730   40.1110 C   0  0  0  0  0  0  0  0  0  0  0  0
   48.0030   34.4990   39.6730 C   0  0  0  0  0  0  0  0  0  0  0  0
   47.2630   33.8210   40.5870 N   0  0  0  0  0  0  0  0  0  0  0  0
   46.5490   33.3110   42.8750 C   0  0  0  0  0  0  0  0  0  0  0  0
   46.5350   32.0380   42.7670 O   0  0  0  0  0  0  0  0  0  0  0  0
   45.8250   34.0320   43.8970 C   0  0  0  0  0  0  0  0  0  0  0  0
   45.8700   33.4690   45.1950 C   0  0  0  0  0  0  0  0  0  0  0  0
   45.1810   34.1500   46.1930 C   0  0  0  0  0  0  0  0  0  0  0  0
   44.5240   35.2950   45.8440 N   0  0  0  0  0  0  0  0  0  0  0  0
   44.5130   35.7860   44.6030 C   0  0  0  0  0  0  0  0  0  0  0  0
   45.1550   35.1630   43.6370 N   0  0  0  0  0  0  0  0  0  0  0  0
   47.7480   34.0790   38.3800 O   0  0  0  0  0  0  0  0  0  0  0  0
   48.6940   34.0480   37.3400 C   0  0  1  0  0  0  0  0  0  0  0  0
   49.4280   32.6910   37.3160 C   0  0  0  0  0  0  0  0  0  0  0  0
   48.5330   33.1490   36.1930 C   0  0  1  0  0  0  0  0  0  0  0  0
   47.3130   32.4680   35.8780 N   0  0  0  0  0  0  0  0  0  0  0  0
   47.3100   32.2110   34.4420 C   0  0  0  0  0  0  0  0  0  0  0  0
   46.2320   31.2160   34.0700 C   0  0  0  0  0  0  0  0  0  0  0  0
   46.2910   30.0750   34.8350 O   0  0  0  0  0  0  0  0  0  0  0  0
   45.9700   30.4450   36.1630 C   0  0  0  0  0  0  0  0  0  0  0  0
   47.1680   31.2640   36.6330 C   0  0  0  0  0  0  0  0  0  0  0  0
   48.3158   35.2355   43.3904 H   0  0  0  0  0  0  0  0  0  0  0  0
   49.7057   36.5221   41.8036 H   0  0  0  0  0  0  0  0  0  0  0  0
   49.4855   36.0300   39.3791 H   0  0  0  0  0  0  0  0  0  0  0  0
   46.4216   32.5405   45.4037 H   0  0  0  0  0  0  0  0  0  0  0  0
   45.1659   33.7788   47.2284 H   0  0  0  0  0  0  0  0  0  0  0  0
   43.9653   36.7150   44.3864 H   0  0  0  0  0  0  0  0  0  0  0  0
   48.9185   35.1240   37.3826 H   0  0  0  0  0  0  0  0  0  0  0  0
   50.5185   32.6500   37.1777 H   0  0  0  0  0  0  0  0  0  0  0  0
   49.4880   31.8107   37.9729 H   0  0  0  0  0  0  0  0  0  0  0  0
   48.6559   33.2868   35.1086 H   0  0  0  0  0  0  0  0  0  0  0  0
   47.1273   33.1553   33.9082 H   0  0  0  0  0  0  0  0  0  0  0  0
   48.2866   31.7907   34.1597 H   0  0  0  0  0  0  0  0  0  0  0  0
   45.2491   31.6884   34.2140 H   0  0  0  0  0  0  0  0  0  0  0  0
   46.3876   30.9267   33.0202 H   0  0  0  0  0  0  0  0  0  0  0  0
   45.0520   31.0506   36.1865 H   0  0  0  0  0  0  0  0  0  0  0  0
   45.7824   29.5724   36.8060 H   0  0  0  0  0  0  0  0  0  0  0  0
   48.0800   30.6596   36.5190 H   0  0  0  0  0  0  0  0  0  0  0  0
   47.0053   31.5368   37.6862 H   0  0  0  0  0  0  0  0  0  0  0  0
  1  2  2  0
  1  7  1  0
  3  2  1  0
  4  3  2  0
  5  4  1  0
  5  6  2  0
  6  1  1  0
  7  9  1  0
  8  7  2  0
  9 10  2  0
 10 11  1  0
 12 11  2  0
 13 12  1  0
 14  9  1  0
 14 13  2  0
 15  5  1  0
 16 15  1  0
 17 16  1  0
 18 17  1  0
 18 16  1  0
 19 18  1  0
 19 24  1  0
 20 19  1  0
 21 20  1  0
 21 22  1  0
 22 23  1  0
 23 24  1  0
  2 25  1  0
  3 26  1  0
  4 27  1  0
 10 28  1  0
 11 29  1  0
 13 30  1  0
 16 31  1  6
 17 32  1  0
 17 33  1  0
 18 34  1  6
 20 35  1  0
 20 36  1  0
 21 37  1  0
 21 38  1  0
 23 39  1  0
 23 40  1  0
 24 41  1  0
 24 42  1  0
M  ISO  8  25  14  26  14  27  14  28  14  29  14  30  14  31  13  32  13
M  ISO  8  33  13  34  13  35  13  36  13  37  13  38  13  39  13  40  13
M  ISO  2  41  13  42  13
M  END
>  <minimizedAffinity>  (1) 
-5.46164179

>  <minimizedRMSD>  (1) 
0.925055265

$$$$
