
     RDKit          3D

 36 39  0  0  1  0  0  0  0  0999 V2000
   47.4440   33.9610   41.9310 C   0  0  0  0  0  0  0  0  0  0  0  0
   48.3050   35.0120   42.1870 C   0  0  0  0  0  0  0  0  0  0  0  0
   48.9710   35.7010   41.1990 C   0  0  0  0  0  0  0  0  0  0  0  0
   48.7490   35.3050   39.9180 C   0  0  0  0  0  0  0  0  0  0  0  0
   47.8950   34.2550   39.6320 C   0  0  0  0  0  0  0  0  0  0  0  0
   47.2700   33.6210   40.6470 N   0  0  0  0  0  0  0  0  0  0  0  0
   46.7700   33.2630   43.0160 C   0  0  0  0  0  0  0  0  0  0  0  0
   46.9340   32.0030   43.0800 O   0  0  0  0  0  0  0  0  0  0  0  0
   45.9650   34.0120   43.9490 C   0  0  0  0  0  0  0  0  0  0  0  0
   45.9130   33.5000   45.2640 C   0  0  0  0  0  0  0  0  0  0  0  0
   45.1510   34.2050   46.1860 C   0  0  0  0  0  0  0  0  0  0  0  0
   44.5150   35.3350   45.7480 N   0  0  0  0  0  0  0  0  0  0  0  0
   44.5970   35.7780   44.4930 C   0  0  0  0  0  0  0  0  0  0  0  0
   45.3100   35.1310   43.6000 N   0  0  0  0  0  0  0  0  0  0  0  0
   47.5680   33.7230   38.3950 O   0  0  0  0  0  0  0  0  0  0  0  0
   48.4780   33.3980   37.3740 C   0  0  1  0  0  0  0  0  0  0  0  0
   49.2690   32.1230   37.7450 C   0  0  0  0  0  0  0  0  0  0  0  0
   48.3120   32.1730   36.5890 C   0  0  2  0  0  0  0  0  0  0  0  0
   48.8300   32.2380   35.2360 N   0  0  0  0  0  0  0  0  0  0  0  0
   48.6430   33.0270   34.1900 N   0  0  0  0  0  0  0  0  0  0  0  0
   49.4210   32.5950   33.1650 C   0  0  0  0  0  0  0  0  0  0  0  0
   50.1250   31.4860   33.5910 C   0  0  0  0  0  0  0  0  0  0  0  0
   49.7390   31.2850   34.8830 C   0  0  0  0  0  0  0  0  0  0  0  0
   48.4658   35.3127   43.2328 H   0  0  0  0  0  0  0  0  0  0  0  0
   49.6509   36.5329   41.4351 H   0  0  0  0  0  0  0  0  0  0  0  0
   49.2571   35.8283   39.0946 H   0  0  0  0  0  0  0  0  0  0  0  0
   46.4522   32.5834   45.5454 H   0  0  0  0  0  0  0  0  0  0  0  0
   45.0618   33.8680   47.2293 H   0  0  0  0  0  0  0  0  0  0  0  0
   44.0622   36.6944   44.2029 H   0  0  0  0  0  0  0  0  0  0  0  0
   48.6588   34.4370   37.0614 H   0  0  0  0  0  0  0  0  0  0  0  0
   50.3534   32.0692   37.5684 H   0  0  0  0  0  0  0  0  0  0  0  0
   49.3944   31.5015   38.6439 H   0  0  0  0  0  0  0  0  0  0  0  0
   47.4682   31.5271   36.3049 H   0  0  0  0  0  0  0  0  0  0  0  0
   49.4805   33.0506   32.1655 H   0  0  0  0  0  0  0  0  0  0  0  0
   50.8451   30.8906   33.0105 H   0  0  0  0  0  0  0  0  0  0  0  0
   50.1038   30.4801   35.5380 H   0  0  0  0  0  0  0  0  0  0  0  0
  1  2  2  0
  1  7  1  0
  3  2  1  0
  4  3  2  0
  5  4  1  0
  5  6  2  0
  6  1  1  0
  7  8  2  0
  7  9  1  0
  9 10  2  0
 10 11  1  0
 12 11  2  0
 13 12  1  0
 14  9  1  0
 14 13  2  0
 15  5  1  0
 16 17  1  0
 16 15  1  0
 18 16  1  0
 18 17  1  0
 19 18  1  0
 20 19  1  0
 21 22  1  0
 21 20  2  0
 22 23  2  0
 23 19  1  0
  2 24  1  0
  3 25  1  0
  4 26  1  0
 10 27  1  0
 11 28  1  0
 13 29  1  0
 16 30  1  6
 17 31  1  0
 17 32  1  0
 18 33  1  6
 21 34  1  0
 22 35  1  0
 23 36  1  0
M  ISO  8  24  14  25  14  26  14  27  14  28  14  29  14  30  13  31  13
M  ISO  5  32  13  33  13  34  14  35  14  36  14
M  END
>  <minimizedAffinity>  (1) 
-5.41497421

>  <minimizedRMSD>  (1) 
1.14612627

$$$$
