
     RDKit          3D

 45 48  0  0  1  0  0  0  0  0999 V2000
   47.6400   34.0740   42.2310 C   0  0  0  0  0  0  0  0  0  0  0  0
   48.5040   35.1230   42.4380 C   0  0  0  0  0  0  0  0  0  0  0  0
   49.1030   35.8240   41.4190 C   0  0  0  0  0  0  0  0  0  0  0  0
   48.8120   35.4400   40.1490 C   0  0  0  0  0  0  0  0  0  0  0  0
   47.9490   34.3870   39.9050 C   0  0  0  0  0  0  0  0  0  0  0  0
   47.3890   33.7360   40.9560 N   0  0  0  0  0  0  0  0  0  0  0  0
   47.0380   33.3650   43.3510 C   0  0  0  0  0  0  0  0  0  0  0  0
   47.3670   32.1420   43.5100 O   0  0  0  0  0  0  0  0  0  0  0  0
   46.1110   34.0690   44.2150 C   0  0  0  0  0  0  0  0  0  0  0  0
   45.9780   33.5310   45.5180 C   0  0  0  0  0  0  0  0  0  0  0  0
   45.0930   34.1890   46.3700 C   0  0  0  0  0  0  0  0  0  0  0  0
   44.4410   35.2730   45.8920 N   0  0  0  0  0  0  0  0  0  0  0  0
   44.6010   35.7500   44.6420 C   0  0  0  0  0  0  0  0  0  0  0  0
   45.4340   35.1440   43.8150 N   0  0  0  0  0  0  0  0  0  0  0  0
   47.5530   33.8620   38.6880 O   0  0  0  0  0  0  0  0  0  0  0  0
   48.1730   34.0910   37.4520 C   0  0  1  0  0  0  0  0  0  0  0  0
   49.2420   33.0150   37.1610 C   0  0  0  0  0  0  0  0  0  0  0  0
   47.9940   33.1740   36.3280 C   0  0  1  0  0  0  0  0  0  0  0  0
   46.9410   32.1230   36.2830 C   0  0  0  0  0  0  0  0  0  0  0  0
   47.4610   30.7260   36.4890 C   0  0  0  0  0  0  0  0  0  0  0  0
   47.6150   29.9230   35.2400 C   0  0  0  0  0  0  0  0  0  0  0  0
   48.0980   30.6830   34.0440 C   0  0  0  0  0  0  0  0  0  0  0  0
   47.4370   32.0260   33.8950 C   0  0  0  0  0  0  0  0  0  0  0  0
   46.3080   32.1350   34.8920 C   0  0  0  0  0  0  0  0  0  0  0  0
   48.7277   35.4168   43.4741 H   0  0  0  0  0  0  0  0  0  0  0  0
   49.7884   36.6598   41.6230 H   0  0  0  0  0  0  0  0  0  0  0  0
   49.2690   35.9739   39.3028 H   0  0  0  0  0  0  0  0  0  0  0  0
   46.5419   32.6430   45.8398 H   0  0  0  0  0  0  0  0  0  0  0  0
   44.9299   33.8375   47.3995 H   0  0  0  0  0  0  0  0  0  0  0  0
   44.0417   36.6380   44.3124 H   0  0  0  0  0  0  0  0  0  0  0  0
   48.0793   35.1856   37.5076 H   0  0  0  0  0  0  0  0  0  0  0  0
   50.2237   33.2998   36.7546 H   0  0  0  0  0  0  0  0  0  0  0  0
   49.7229   32.2010   37.7234 H   0  0  0  0  0  0  0  0  0  0  0  0
   47.7932   33.3267   35.2573 H   0  0  0  0  0  0  0  0  0  0  0  0
   46.2404   32.3581   37.0978 H   0  0  0  0  0  0  0  0  0  0  0  0
   48.4458   30.7958   36.9741 H   0  0  0  0  0  0  0  0  0  0  0  0
   46.7106   30.2042   37.1011 H   0  0  0  0  0  0  0  0  0  0  0  0
   48.3340   29.1154   35.4421 H   0  0  0  0  0  0  0  0  0  0  0  0
   46.6073   29.5636   34.9843 H   0  0  0  0  0  0  0  0  0  0  0  0
   49.1832   30.8351   34.1401 H   0  0  0  0  0  0  0  0  0  0  0  0
   47.8438   30.0904   33.1528 H   0  0  0  0  0  0  0  0  0  0  0  0
   48.1729   32.8216   34.0835 H   0  0  0  0  0  0  0  0  0  0  0  0
   47.0413   32.1328   32.8742 H   0  0  0  0  0  0  0  0  0  0  0  0
   45.7551   33.0731   34.7362 H   0  0  0  0  0  0  0  0  0  0  0  0
   45.5982   31.3028   34.7754 H   0  0  0  0  0  0  0  0  0  0  0  0
  1  2  2  0
  1  7  1  0
  3  2  1  0
  4  3  2  0
  5  4  1  0
  5  6  2  0
  6  1  1  0
  7  8  2  0
  7  9  1  0
  9 10  2  0
 10 11  1  0
 12 11  2  0
 13 12  1  0
 14  9  1  0
 14 13  2  0
 15  5  1  0
 16 15  1  0
 17 16  1  0
 18 17  1  0
 18 16  1  0
 19 18  1  0
 19 20  1  0
 21 20  1  0
 22 21  1  0
 23 22  1  0
 23 24  1  0
 24 19  1  0
  2 25  1  0
  3 26  1  0
  4 27  1  0
 10 28  1  0
 11 29  1  0
 13 30  1  0
 16 31  1  6
 17 32  1  0
 17 33  1  0
 18 34  1  6
 19 35  1  0
 20 36  1  0
 20 37  1  0
 21 38  1  0
 21 39  1  0
 22 40  1  0
 22 41  1  0
 23 42  1  0
 23 43  1  0
 24 44  1  0
 24 45  1  0
M  ISO  8  25  14  26  14  27  14  28  14  29  14  30  14  31  13  32  13
M  ISO  8  33  13  34  13  35  13  36  13  37  13  38  13  39  13  40  13
M  ISO  5  41  13  42  13  43  13  44  13  45  13
M  END
>  <minimizedAffinity>  (1) 
-5.47762394

>  <minimizedRMSD>  (1) 
1.85924804

$$$$
