
     RDKit          3D

 31 33  0  0  1  0  0  0  0  0999 V2000
   47.4580   34.0590   42.0180 C   0  0  0  0  0  0  0  0  0  0  0  0
   48.3180   35.0750   42.3630 C   0  0  0  0  0  0  0  0  0  0  0  0
   49.0380   35.8010   41.4400 C   0  0  0  0  0  0  0  0  0  0  0  0
   48.8750   35.4820   40.1260 C   0  0  0  0  0  0  0  0  0  0  0  0
   48.0180   34.4650   39.7490 C   0  0  0  0  0  0  0  0  0  0  0  0
   47.3380   33.7900   40.7110 N   0  0  0  0  0  0  0  0  0  0  0  0
   46.7290   33.3170   43.0360 C   0  0  0  0  0  0  0  0  0  0  0  0
   46.8380   32.0410   43.0140 O   0  0  0  0  0  0  0  0  0  0  0  0
   45.9330   34.0340   44.0040 C   0  0  0  0  0  0  0  0  0  0  0  0
   45.9180   33.4810   45.3080 C   0  0  0  0  0  0  0  0  0  0  0  0
   45.1560   34.1600   46.2560 C   0  0  0  0  0  0  0  0  0  0  0  0
   44.5000   35.2800   45.8600 N   0  0  0  0  0  0  0  0  0  0  0  0
   44.5450   35.7650   44.6100 C   0  0  0  0  0  0  0  0  0  0  0  0
   45.2570   35.1440   43.6910 N   0  0  0  0  0  0  0  0  0  0  0  0
   47.7320   33.9980   38.4780 O   0  0  0  0  0  0  0  0  0  0  0  0
   48.5960   34.0560   37.3730 C   0  0  1  0  0  0  0  0  0  0  0  0
   49.3600   32.7150   37.2280 C   0  0  0  0  0  0  0  0  0  0  0  0
   48.3780   33.2230   36.1940 C   0  0  1  0  0  0  0  0  0  0  0  0
   47.1710   32.3990   36.0970 N   0  0  0  0  0  0  0  0  0  0  0  0
   48.4369   35.3201   43.4287 H   0  0  0  0  0  0  0  0  0  0  0  0
   49.7182   36.6071   41.7521 H   0  0  0  0  0  0  0  0  0  0  0  0
   49.4307   36.0390   39.3573 H   0  0  0  0  0  0  0  0  0  0  0  0
   46.4766   32.5669   45.5579 H   0  0  0  0  0  0  0  0  0  0  0  0
   45.0881   33.7996   47.2931 H   0  0  0  0  0  0  0  0  0  0  0  0
   43.9891   36.6786   44.3527 H   0  0  0  0  0  0  0  0  0  0  0  0
   48.7946   35.1347   37.4563 H   0  0  0  0  0  0  0  0  0  0  0  0
   50.4395   32.7074   37.0166 H   0  0  0  0  0  0  0  0  0  0  0  0
   49.4827   31.8005   37.8269 H   0  0  0  0  0  0  0  0  0  0  0  0
   48.3976   33.4695   35.1222 H   0  0  0  0  0  0  0  0  0  0  0  0
   46.8350   32.1696   37.0432 H   0  0  0  0  0  0  0  0  0  0  0  0
   46.4405   32.9185   35.5898 H   0  0  0  0  0  0  0  0  0  0  0  0
  1  2  2  0
  1  7  1  0
  3  2  1  0
  4  3  2  0
  5  4  1  0
  5  6  2  0
  6  1  1  0
  7  9  1  0
  8  7  2  0
  9 10  2  0
 10 11  1  0
 12 11  2  0
 13 12  1  0
 14  9  1  0
 14 13  2  0
 15  5  1  0
 16 15  1  0
 17 16  1  0
 18 17  1  0
 18 16  1  0
 19 18  1  0
  2 20  1  0
  3 21  1  0
  4 22  1  0
 10 23  1  0
 11 24  1  0
 13 25  1  0
 16 26  1  6
 17 27  1  0
 17 28  1  0
 18 29  1  6
 19 30  1  0
 19 31  1  0
M  ISO  8  20  14  21  14  22  14  23  14  24  14  25  14  26  13  27  13
M  ISO  4  28  13  29  13  30   5  31   5
M  END
>  <minimizedAffinity>  (1) 
-5.07184887

>  <minimizedRMSD>  (1) 
0.344382107

$$$$
