
     RDKit          3D

 32 34  0  0  1  0  0  0  0  0999 V2000
   47.6740   34.1120   42.2790 C   0  0  0  0  0  0  0  0  0  0  0  0
   48.5450   35.1590   42.5210 C   0  0  0  0  0  0  0  0  0  0  0  0
   49.1560   35.8780   41.5220 C   0  0  0  0  0  0  0  0  0  0  0  0
   48.8760   35.5220   40.2430 C   0  0  0  0  0  0  0  0  0  0  0  0
   48.0140   34.4800   39.9650 C   0  0  0  0  0  0  0  0  0  0  0  0
   47.4390   33.8100   40.9950 N   0  0  0  0  0  0  0  0  0  0  0  0
   47.0550   33.3780   43.3740 C   0  0  0  0  0  0  0  0  0  0  0  0
   47.3750   32.1630   43.5110 O   0  0  0  0  0  0  0  0  0  0  0  0
   46.1180   34.0660   44.2400 C   0  0  0  0  0  0  0  0  0  0  0  0
   45.9860   33.5210   45.5410 C   0  0  0  0  0  0  0  0  0  0  0  0
   45.0970   34.1670   46.3950 C   0  0  0  0  0  0  0  0  0  0  0  0
   44.4320   35.2580   45.9190 N   0  0  0  0  0  0  0  0  0  0  0  0
   44.5950   35.7290   44.6810 C   0  0  0  0  0  0  0  0  0  0  0  0
   45.4240   35.1480   43.8450 N   0  0  0  0  0  0  0  0  0  0  0  0
   47.6240   33.9780   38.7340 O   0  0  0  0  0  0  0  0  0  0  0  0
   48.4100   33.9590   37.5700 C   0  0  1  0  0  0  0  0  0  0  0  0
   48.8680   32.5120   37.2620 C   0  0  0  0  0  0  0  0  0  0  0  0
   47.9340   33.2990   36.3580 C   0  0  1  0  0  0  0  0  0  0  0  0
   46.5480   32.7230   36.3280 C   0  0  0  0  0  0  0  0  0  0  0  0
   46.4710   31.4880   36.6460 O   0  0  0  0  0  0  0  0  0  0  0  0
   45.3640   33.3270   36.0090 O   0  0  0  0  0  0  0  0  0  0  0  0
   48.7593   35.4296   43.5654 H   0  0  0  0  0  0  0  0  0  0  0  0
   49.8427   36.7067   41.7495 H   0  0  0  0  0  0  0  0  0  0  0  0
   49.3437   36.0729   39.4136 H   0  0  0  0  0  0  0  0  0  0  0  0
   46.5554   32.6352   45.8590 H   0  0  0  0  0  0  0  0  0  0  0  0
   44.9358   33.8085   47.4224 H   0  0  0  0  0  0  0  0  0  0  0  0
   44.0282   36.6144   44.3572 H   0  0  0  0  0  0  0  0  0  0  0  0
   48.8404   34.9607   37.7162 H   0  0  0  0  0  0  0  0  0  0  0  0
   49.9038   32.3077   36.9530 H   0  0  0  0  0  0  0  0  0  0  0  0
   48.8441   31.5421   37.7804 H   0  0  0  0  0  0  0  0  0  0  0  0
   47.9210   33.6341   35.3104 H   0  0  0  0  0  0  0  0  0  0  0  0
   44.5209   32.8087   36.0357 H   0  0  0  0  0  0  0  0  0  0  0  0
  1  2  2  0
  1  7  1  0
  3  2  1  0
  4  3  2  0
  5  4  1  0
  5  6  2  0
  6  1  1  0
  7  8  2  0
  7  9  1  0
  9 10  2  0
 10 11  1  0
 12 11  2  0
 13 12  1  0
 14  9  1  0
 14 13  2  0
 15  5  1  0
 16 15  1  0
 17 16  1  0
 18 17  1  0
 18 16  1  0
 19 18  1  0
 19 20  2  0
 21 19  1  0
  2 22  1  0
  3 23  1  0
  4 24  1  0
 10 25  1  0
 11 26  1  0
 13 27  1  0
 16 28  1  6
 17 29  1  0
 17 30  1  0
 18 31  1  6
 21 32  1  0
M  ISO  8  22  14  23  14  24  14  25  14  26  14  27  14  28  13  29  13
M  ISO  3  30  13  31  13  32   3
M  END
>  <minimizedAffinity>  (1) 
-5.28710794

>  <minimizedRMSD>  (1) 
0.664631248

$$$$
