
     RDKit          3D

 31 33  0  0  1  0  0  0  0  0999 V2000
   47.5510   34.0400   42.0370 C   0  0  0  0  0  0  0  0  0  0  0  0
   48.4230   35.0820   42.2880 C   0  0  0  0  0  0  0  0  0  0  0  0
   49.0640   35.7870   41.2960 C   0  0  0  0  0  0  0  0  0  0  0  0
   48.8150   35.4240   40.0110 C   0  0  0  0  0  0  0  0  0  0  0  0
   47.9490   34.3850   39.7240 C   0  0  0  0  0  0  0  0  0  0  0  0
   47.3500   33.7330   40.7500 N   0  0  0  0  0  0  0  0  0  0  0  0
   46.9080   33.3300   43.1250 C   0  0  0  0  0  0  0  0  0  0  0  0
   47.1450   32.0780   43.2180 O   0  0  0  0  0  0  0  0  0  0  0  0
   46.0470   34.0570   44.0370 C   0  0  0  0  0  0  0  0  0  0  0  0
   45.9560   33.5200   45.3450 C   0  0  0  0  0  0  0  0  0  0  0  0
   45.1340   34.2000   46.2390 C   0  0  0  0  0  0  0  0  0  0  0  0
   44.4950   35.3050   45.7950 N   0  0  0  0  0  0  0  0  0  0  0  0
   44.6100   35.7800   44.5430 C   0  0  0  0  0  0  0  0  0  0  0  0
   45.3840   35.1550   43.6750 N   0  0  0  0  0  0  0  0  0  0  0  0
   47.5840   33.8730   38.4920 O   0  0  0  0  0  0  0  0  0  0  0  0
   48.4080   33.7890   37.3600 C   0  0  1  0  0  0  0  0  0  0  0  0
   49.3360   32.5530   37.4710 C   0  0  0  0  0  0  0  0  0  0  0  0
   48.2660   32.6840   36.4130 C   0  0  2  0  0  0  0  0  0  0  0  0
   48.6560   32.8160   34.9810 C   0  0  0  0  0  0  0  0  0  0  0  0
   47.8590   32.3730   34.1510 O   0  0  0  0  0  0  0  0  0  0  0  0
   48.6143   35.3620   43.3344 H   0  0  0  0  0  0  0  0  0  0  0  0
   49.7512   36.6123   41.5340 H   0  0  0  0  0  0  0  0  0  0  0  0
   49.3082   35.9631   39.1888 H   0  0  0  0  0  0  0  0  0  0  0  0
   46.5059   32.6136   45.6384 H   0  0  0  0  0  0  0  0  0  0  0  0
   45.0085   33.8492   47.2740 H   0  0  0  0  0  0  0  0  0  0  0  0
   44.0618   36.6852   44.2429 H   0  0  0  0  0  0  0  0  0  0  0  0
   48.4703   34.8743   37.1921 H   0  0  0  0  0  0  0  0  0  0  0  0
   50.3997   32.6279   37.2010 H   0  0  0  0  0  0  0  0  0  0  0  0
   49.5969   31.8227   38.2512 H   0  0  0  0  0  0  0  0  0  0  0  0
   47.4058   32.0734   36.1011 H   0  0  0  0  0  0  0  0  0  0  0  0
   49.6049   33.2840   34.6801 H   0  0  0  0  0  0  0  0  0  0  0  0
  1  2  2  0
  1  7  1  0
  3  2  1  0
  4  3  2  0
  5  4  1  0
  5  6  2  0
  6  1  1  0
  7  8  2  0
  7  9  1  0
  9 10  2  0
 10 11  1  0
 12 11  2  0
 13 12  1  0
 14  9  1  0
 14 13  2  0
 15  5  1  0
 16 17  1  0
 16 15  1  0
 18 16  1  0
 18 17  1  0
 19 18  1  0
 20 19  2  0
  2 21  1  0
  3 22  1  0
  4 23  1  0
 10 24  1  0
 11 25  1  0
 13 26  1  0
 16 27  1  6
 17 28  1  0
 17 29  1  0
 18 30  1  6
 19 31  1  0
M  ISO  8  21  14  22  14  23  14  24  14  25  14  26  14  27  13  28  13
M  ISO  3  29  13  30  13  31   6
M  END
>  <minimizedAffinity>  (1) 
-4.97876406

>  <minimizedRMSD>  (1) 
0.471650034

$$$$
