
     RDKit          3D

 36 39  0  0  1  0  0  0  0  0999 V2000
   44.5100   35.8540   44.8210 C   0  0  0  0  0  0  0  0  0  0  0  0
   44.9600   35.6390   43.5060 C   0  0  0  0  0  0  0  0  0  0  0  0
   45.7370   34.4840   43.2550 C   0  0  0  0  0  0  0  0  0  0  0  0
   46.0030   33.6490   44.2870 N   0  0  0  0  0  0  0  0  0  0  0  0
   45.5510   33.8940   45.5360 C   0  0  0  0  0  0  0  0  0  0  0  0
   44.8200   34.9800   45.7750 N   0  0  0  0  0  0  0  0  0  0  0  0
   45.8820   32.9680   46.5340 N   0  0  0  0  0  0  0  0  0  0  0  0
   45.0530   32.6440   47.6860 C   0  0  0  0  0  0  0  0  0  0  0  0
   46.1370   32.3000   48.6920 C   0  0  0  0  0  0  0  0  0  0  0  0
   46.9650   31.3360   47.8460 C   0  0  1  0  0  0  0  0  0  0  0  0
   47.1060   32.1750   46.5880 C   0  0  0  0  0  0  0  0  0  0  0  0
   48.2760   31.0620   48.4740 C   0  0  0  0  0  0  0  0  0  0  0  0
   48.9470   32.0090   49.1560 N   0  0  0  0  0  0  0  0  0  0  0  0
   50.1520   31.7500   49.7300 C   0  0  0  0  0  0  0  0  0  0  0  0
   50.7280   30.5390   49.6460 N   0  0  0  0  0  0  0  0  0  0  0  0
   50.0850   29.5660   48.9710 C   0  0  0  0  0  0  0  0  0  0  0  0
   50.6590   28.3080   48.8710 C   0  0  0  0  0  0  0  0  0  0  0  0
   50.0220   27.2760   48.1800 C   0  0  0  0  0  0  0  0  0  0  0  0
   48.7910   27.5200   47.5860 C   0  0  0  0  0  0  0  0  0  0  0  0
   48.2450   28.7670   47.6990 C   0  0  0  0  0  0  0  0  0  0  0  0
   48.8470   29.8090   48.3740 C   0  0  0  0  0  0  0  0  0  0  0  0
   43.9045   36.7408   45.0597 H   0  0  0  0  0  0  0  0  0  0  0  0
   44.7158   36.3458   42.6993 H   0  0  0  0  0  0  0  0  0  0  0  0
   46.1162   34.2692   42.2450 H   0  0  0  0  0  0  0  0  0  0  0  0
   44.4501   33.5045   48.0117 H   0  0  0  0  0  0  0  0  0  0  0  0
   44.3066   31.8540   47.5161 H   0  0  0  0  0  0  0  0  0  0  0  0
   46.7164   33.1860   48.9907 H   0  0  0  0  0  0  0  0  0  0  0  0
   45.7774   31.8943   49.6491 H   0  0  0  0  0  0  0  0  0  0  0  0
   46.5284   30.3376   47.6957 H   0  0  0  0  0  0  0  0  0  0  0  0
   47.1911   31.5316   45.6999 H   0  0  0  0  0  0  0  0  0  0  0  0
   48.0090   32.8030   46.6050 H   0  0  0  0  0  0  0  0  0  0  0  0
   50.6685   32.5524   50.2771 H   0  0  0  0  0  0  0  0  0  0  0  0
   51.6338   28.1198   49.3447 H   0  0  0  0  0  0  0  0  0  0  0  0
   50.4890   26.2827   48.1070 H   0  0  0  0  0  0  0  0  0  0  0  0
   48.2661   26.7253   47.0356 H   0  0  0  0  0  0  0  0  0  0  0  0
   47.2697   28.9510   47.2248 H   0  0  0  0  0  0  0  0  0  0  0  0
  1  6  2  0
  2  1  1  0
  3  2  2  0
  3  4  1  0
  4  5  2  0
  5  6  1  0
  5  7  1  0
  7 11  1  0
  7  8  1  0
  8  9  1  0
 10 12  1  0
 10  9  1  0
 11 10  1  0
 12 13  2  0
 13 14  1  0
 15 14  2  0
 16 15  1  0
 17 16  2  0
 18 17  1  0
 19 20  1  0
 19 18  2  0
 20 21  2  0
 21 12  1  0
 21 16  1  0
  1 22  1  0
  2 23  1  0
  3 24  1  0
  8 25  1  0
  8 26  1  0
  9 27  1  0
  9 28  1  0
 10 29  1  6
 11 30  1  0
 11 31  1  0
 14 32  1  0
 17 33  1  0
 18 34  1  0
 19 35  1  0
 20 36  1  0
M  ISO  8  22  14  23  14  24  14  25  13  26  13  27  13  28  13  29  13
M  ISO  7  30  13  31  13  32  14  33  14  34  14  35  14  36  14
M  END
>  <minimizedAffinity>  (1) 
-5.77696371

>  <minimizedRMSD>  (1) 
0.587754726

$$$$
