
     RDKit          3D

 37 39  0  0  1  0  0  0  0  0999 V2000
   44.5600   35.6020   45.0800 C   0  0  0  0  0  0  0  0  0  0  0  0
   45.1520   35.4700   43.8120 C   0  0  0  0  0  0  0  0  0  0  0  0
   46.0350   34.3800   43.5930 C   0  0  0  0  0  0  0  0  0  0  0  0
   46.2520   33.5270   44.6290 N   0  0  0  0  0  0  0  0  0  0  0  0
   45.6560   33.6960   45.8330 C   0  0  0  0  0  0  0  0  0  0  0  0
   44.8290   34.7210   46.0370 N   0  0  0  0  0  0  0  0  0  0  0  0
   45.9540   32.7540   46.8230 N   0  0  0  0  0  0  0  0  0  0  0  0
   45.0500   32.3410   47.8940 C   0  0  0  0  0  0  0  0  0  0  0  0
   46.0790   32.0450   48.9860 C   0  0  0  0  0  0  0  0  0  0  0  0
   47.0050   31.1520   48.1860 C   0  0  1  0  0  0  0  0  0  0  0  0
   47.2230   32.0150   46.9580 C   0  0  0  0  0  0  0  0  0  0  0  0
   48.1840   30.7700   48.8710 N   0  0  0  0  0  0  0  0  0  0  0  0
   48.7680   29.5560   48.3300 C   0  0  0  0  0  0  0  0  0  0  0  0
   49.9850   29.2020   49.1380 C   0  0  0  0  0  0  0  0  0  0  0  0
   49.9260   29.8630   50.5060 C   0  0  0  0  0  0  0  0  0  0  0  0
   49.9740   31.3610   50.3200 C   0  0  0  0  0  0  0  0  0  0  0  0
   49.1820   31.7680   49.0690 C   0  0  0  0  0  0  0  0  0  0  0  0
   43.8723   36.4369   45.2803 H   0  0  0  0  0  0  0  0  0  0  0  0
   44.9369   36.1921   43.0106 H   0  0  0  0  0  0  0  0  0  0  0  0
   46.5259   34.2311   42.6199 H   0  0  0  0  0  0  0  0  0  0  0  0
   44.3619   33.1482   48.1854 H   0  0  0  0  0  0  0  0  0  0  0  0
   44.3760   31.5081   47.6451 H   0  0  0  0  0  0  0  0  0  0  0  0
   46.5840   32.9567   49.3377 H   0  0  0  0  0  0  0  0  0  0  0  0
   45.6792   31.6096   49.9137 H   0  0  0  0  0  0  0  0  0  0  0  0
   46.5960   30.1563   47.9595 H   0  0  0  0  0  0  0  0  0  0  0  0
   47.4120   31.3938   46.0701 H   0  0  0  0  0  0  0  0  0  0  0  0
   48.0956   32.6781   47.0514 H   0  0  0  0  0  0  0  0  0  0  0  0
   48.0360   28.7368   48.3860 H   0  0  0  0  0  0  0  0  0  0  0  0
   49.0503   29.7135   47.2786 H   0  0  0  0  0  0  0  0  0  0  0  0
   50.0303   28.1103   49.2650 H   0  0  0  0  0  0  0  0  0  0  0  0
   50.8804   29.5594   48.6083 H   0  0  0  0  0  0  0  0  0  0  0  0
   48.9911   29.5823   51.0131 H   0  0  0  0  0  0  0  0  0  0  0  0
   50.7772   29.5331   51.1197 H   0  0  0  0  0  0  0  0  0  0  0  0
   49.5357   31.8505   51.2022 H   0  0  0  0  0  0  0  0  0  0  0  0
   51.0217   31.6731   50.1976 H   0  0  0  0  0  0  0  0  0  0  0  0
   49.8500   31.8141   48.1962 H   0  0  0  0  0  0  0  0  0  0  0  0
   48.7272   32.7615   49.1956 H   0  0  0  0  0  0  0  0  0  0  0  0
  1  6  2  0
  2  1  1  0
  3  2  2  0
  3  4  1  0
  4  5  2  0
  5  6  1  0
  5  7  1  0
  7 11  1  0
  7  8  1  0
  8  9  1  0
 10 12  1  0
 10  9  1  0
 11 10  1  0
 12 17  1  0
 13 12  1  0
 13 14  1  0
 14 15  1  0
 16 15  1  0
 17 16  1  0
  1 18  1  0
  2 19  1  0
  3 20  1  0
  8 21  1  0
  8 22  1  0
  9 23  1  0
  9 24  1  0
 10 25  1  6
 11 26  1  0
 11 27  1  0
 13 28  1  0
 13 29  1  0
 14 30  1  0
 14 31  1  0
 15 32  1  0
 15 33  1  0
 16 34  1  0
 16 35  1  0
 17 36  1  0
 17 37  1  0
M  ISO  8  18  14  19  14  20  14  21  13  22  13  23  13  24  13  25  13
M  ISO  8  26  13  27  13  28  13  29  13  30  13  31  13  32  13  33  13
M  ISO  4  34  13  35  13  36  13  37  13
M  END
>  <minimizedAffinity>  (1) 
-5.44843769

>  <minimizedRMSD>  (1) 
0.533793271

$$$$
