
     RDKit          3D

 29 31  0  0  1  0  0  0  0  0999 V2000
   44.5690   35.6690   44.9000 C   0  0  0  0  0  0  0  0  0  0  0  0
   45.2380   35.5410   43.6690 C   0  0  0  0  0  0  0  0  0  0  0  0
   46.1420   34.4770   43.5270 C   0  0  0  0  0  0  0  0  0  0  0  0
   46.3300   33.6230   44.5780 N   0  0  0  0  0  0  0  0  0  0  0  0
   45.6690   33.7850   45.7340 C   0  0  0  0  0  0  0  0  0  0  0  0
   44.8100   34.7940   45.8740 N   0  0  0  0  0  0  0  0  0  0  0  0
   45.9210   32.8660   46.7570 N   0  0  0  0  0  0  0  0  0  0  0  0
   45.0260   32.4880   47.8180 C   0  0  0  0  0  0  0  0  0  0  0  0
   45.9810   32.2660   48.9730 C   0  0  0  0  0  0  0  0  0  0  0  0
   47.0150   31.3850   48.2510 C   0  0  1  0  0  0  0  0  0  0  0  0
   47.1530   32.1110   46.9430 C   0  0  0  0  0  0  0  0  0  0  0  0
   48.3000   31.3550   48.9770 C   0  0  0  0  0  0  0  0  0  0  0  0
   48.8760   30.3220   49.7130 C   0  0  0  0  0  0  0  0  0  0  0  0
   50.0960   30.7440   50.2220 C   0  0  0  0  0  0  0  0  0  0  0  0
   50.1980   32.0300   49.7610 C   0  0  0  0  0  0  0  0  0  0  0  0
   49.1620   32.3630   49.0510 O   0  0  0  0  0  0  0  0  0  0  0  0
   43.8509   36.4874   45.0568 H   0  0  0  0  0  0  0  0  0  0  0  0
   45.0589   36.2497   42.8470 H   0  0  0  0  0  0  0  0  0  0  0  0
   46.6908   34.3324   42.5847 H   0  0  0  0  0  0  0  0  0  0  0  0
   44.3090   33.2918   48.0413 H   0  0  0  0  0  0  0  0  0  0  0  0
   44.4044   31.6116   47.5823 H   0  0  0  0  0  0  0  0  0  0  0  0
   46.4197   33.2078   49.3344 H   0  0  0  0  0  0  0  0  0  0  0  0
   45.5376   31.8333   49.8819 H   0  0  0  0  0  0  0  0  0  0  0  0
   46.7192   30.3295   48.1588 H   0  0  0  0  0  0  0  0  0  0  0  0
   47.2857   31.3918   46.1213 H   0  0  0  0  0  0  0  0  0  0  0  0
   48.0298   32.7752   46.9473 H   0  0  0  0  0  0  0  0  0  0  0  0
   48.4329   29.3270   49.8667 H   0  0  0  0  0  0  0  0  0  0  0  0
   50.8082   30.1824   50.8444 H   0  0  0  0  0  0  0  0  0  0  0  0
   51.0490   32.6962   49.9659 H   0  0  0  0  0  0  0  0  0  0  0  0
  1  6  2  0
  2  1  1  0
  3  2  2  0
  3  4  1  0
  4  5  2  0
  5  6  1  0
  5  7  1  0
  7 11  1  0
  7  8  1  0
  8  9  1  0
 10  9  1  0
 10 12  1  0
 11 10  1  0
 12 16  1  0
 12 13  2  0
 13 14  1  0
 15 14  2  0
 16 15  1  0
  1 17  1  0
  2 18  1  0
  3 19  1  0
  8 20  1  0
  8 21  1  0
  9 22  1  0
  9 23  1  0
 10 24  1  6
 11 25  1  0
 11 26  1  0
 13 27  1  0
 14 28  1  0
 15 29  1  0
M  ISO  8  17  14  18  14  19  14  20  13  21  13  22  13  23  13  24  13
M  ISO  5  25  13  26  13  27  14  28  14  29  14
M  END
>  <minimizedAffinity>  (1) 
-5.48430157

>  <minimizedRMSD>  (1) 
0.169333786

$$$$
