
     RDKit          3D

 32 34  0  0  1  0  0  0  0  0999 V2000
   44.5770   35.7760   44.9070 C   0  0  0  0  0  0  0  0  0  0  0  0
   45.0490   35.5690   43.5780 C   0  0  0  0  0  0  0  0  0  0  0  0
   45.8050   34.3960   43.3230 C   0  0  0  0  0  0  0  0  0  0  0  0
   46.0210   33.5610   44.3600 N   0  0  0  0  0  0  0  0  0  0  0  0
   45.5640   33.7810   45.5990 C   0  0  0  0  0  0  0  0  0  0  0  0
   44.8440   34.8890   45.8660 N   0  0  0  0  0  0  0  0  0  0  0  0
   45.8540   32.8400   46.5920 N   0  0  0  0  0  0  0  0  0  0  0  0
   45.0510   32.5440   47.7680 C   0  0  0  0  0  0  0  0  0  0  0  0
   46.1390   32.1710   48.7410 C   0  0  0  0  0  0  0  0  0  0  0  0
   46.9250   31.1720   47.8820 C   0  0  1  0  0  0  0  0  0  0  0  0
   47.0450   31.9790   46.6060 C   0  0  0  0  0  0  0  0  0  0  0  0
   48.2580   30.9030   48.4790 C   0  0  0  0  0  0  0  0  0  0  0  0
   48.9820   31.8190   49.2100 C   0  0  0  0  0  0  0  0  0  0  0  0
   50.2200   31.5470   49.7560 C   0  0  0  0  0  0  0  0  0  0  0  0
   50.7720   30.2750   49.5580 C   0  0  0  0  0  0  0  0  0  0  0  0
   50.0650   29.3230   48.8230 C   0  0  0  0  0  0  0  0  0  0  0  0
   48.8190   29.6530   48.2960 C   0  0  0  0  0  0  0  0  0  0  0  0
   43.9879   36.6745   45.1432 H   0  0  0  0  0  0  0  0  0  0  0  0
   44.8346   36.2933   42.7783 H   0  0  0  0  0  0  0  0  0  0  0  0
   46.1992   34.1763   42.3198 H   0  0  0  0  0  0  0  0  0  0  0  0
   44.4841   33.4236   48.1071 H   0  0  0  0  0  0  0  0  0  0  0  0
   44.2785   31.7750   47.6198 H   0  0  0  0  0  0  0  0  0  0  0  0
   46.7520   33.0400   49.0222 H   0  0  0  0  0  0  0  0  0  0  0  0
   45.7861   31.7785   49.7061 H   0  0  0  0  0  0  0  0  0  0  0  0
   46.4654   30.1796   47.7639 H   0  0  0  0  0  0  0  0  0  0  0  0
   47.0543   31.3164   45.7280 H   0  0  0  0  0  0  0  0  0  0  0  0
   47.9779   32.5607   46.5691 H   0  0  0  0  0  0  0  0  0  0  0  0
   48.5511   32.8189   49.3666 H   0  0  0  0  0  0  0  0  0  0  0  0
   50.7607   32.3114   50.3333 H   0  0  0  0  0  0  0  0  0  0  0  0
   51.7575   30.0280   49.9797 H   0  0  0  0  0  0  0  0  0  0  0  0
   50.4881   28.3206   48.6612 H   0  0  0  0  0  0  0  0  0  0  0  0
   48.2658   28.8980   47.7181 H   0  0  0  0  0  0  0  0  0  0  0  0
  1  6  2  0
  2  1  1  0
  3  2  2  0
  3  4  1  0
  4  5  2  0
  5  6  1  0
  5  7  1  0
  7 11  1  0
  7  8  1  0
  8  9  1  0
 10 12  1  0
 10  9  1  0
 11 10  1  0
 12 13  2  0
 13 14  1  0
 15 14  2  0
 16 15  1  0
 17 12  1  0
 17 16  2  0
  1 18  1  0
  2 19  1  0
  3 20  1  0
  8 21  1  0
  8 22  1  0
  9 23  1  0
  9 24  1  0
 10 25  1  6
 11 26  1  0
 11 27  1  0
 13 28  1  0
 14 29  1  0
 15 30  1  0
 16 31  1  0
 17 32  1  0
M  ISO  8  18  14  19  14  20  14  21  13  22  13  23  13  24  13  25  13
M  ISO  7  26  13  27  13  28  14  29  14  30  14  31  14  32  14
M  END
>  <minimizedAffinity>  (1) 
-5.49330187

>  <minimizedRMSD>  (1) 
0.596563458

$$$$
