
     RDKit          3D

 29 31  0  0  1  0  0  0  0  0999 V2000
   44.5600   35.5910   45.0390 C   0  0  0  0  0  0  0  0  0  0  0  0
   45.2130   35.4840   43.7780 C   0  0  0  0  0  0  0  0  0  0  0  0
   46.1090   34.4230   43.6140 C   0  0  0  0  0  0  0  0  0  0  0  0
   46.3220   33.5510   44.6430 N   0  0  0  0  0  0  0  0  0  0  0  0
   45.6760   33.6970   45.8230 C   0  0  0  0  0  0  0  0  0  0  0  0
   44.8200   34.7020   45.9940 N   0  0  0  0  0  0  0  0  0  0  0  0
   45.9330   32.7770   46.8380 N   0  0  0  0  0  0  0  0  0  0  0  0
   45.0450   32.3520   47.8890 C   0  0  0  0  0  0  0  0  0  0  0  0
   46.0360   32.1180   49.0150 C   0  0  0  0  0  0  0  0  0  0  0  0
   47.0400   31.2400   48.2560 C   0  0  1  0  0  0  0  0  0  0  0  0
   47.2140   32.0610   47.0010 C   0  0  0  0  0  0  0  0  0  0  0  0
   48.2960   31.2080   49.0060 N   0  0  0  0  0  0  0  0  0  0  0  0
   49.0460   32.3210   49.0250 N   0  0  0  0  0  0  0  0  0  0  0  0
   50.1420   32.0660   49.7630 C   0  0  0  0  0  0  0  0  0  0  0  0
   50.0190   30.7620   50.1850 C   0  0  0  0  0  0  0  0  0  0  0  0
   48.8480   30.2110   49.7070 C   0  0  0  0  0  0  0  0  0  0  0  0
   43.8436   36.4053   45.2227 H   0  0  0  0  0  0  0  0  0  0  0  0
   45.0211   36.2040   42.9689 H   0  0  0  0  0  0  0  0  0  0  0  0
   46.6402   34.2913   42.6598 H   0  0  0  0  0  0  0  0  0  0  0  0
   44.3166   33.1352   48.1460 H   0  0  0  0  0  0  0  0  0  0  0  0
   44.4239   31.4795   47.6379 H   0  0  0  0  0  0  0  0  0  0  0  0
   46.4899   33.0553   49.3690 H   0  0  0  0  0  0  0  0  0  0  0  0
   45.6195   31.6814   49.9347 H   0  0  0  0  0  0  0  0  0  0  0  0
   46.7354   30.1964   48.0882 H   0  0  0  0  0  0  0  0  0  0  0  0
   47.4068   31.4099   46.1356 H   0  0  0  0  0  0  0  0  0  0  0  0
   48.0688   32.7499   47.0707 H   0  0  0  0  0  0  0  0  0  0  0  0
   50.9676   32.7585   49.9838 H   0  0  0  0  0  0  0  0  0  0  0  0
   50.7506   30.2339   50.8142 H   0  0  0  0  0  0  0  0  0  0  0  0
   48.4603   29.1937   49.8647 H   0  0  0  0  0  0  0  0  0  0  0  0
  1  6  2  0
  2  1  1  0
  3  2  2  0
  3  4  1  0
  4  5  2  0
  5  6  1  0
  5  7  1  0
  7 11  1  0
  7  8  1  0
  8  9  1  0
 10 12  1  0
 10  9  1  0
 11 10  1  0
 12 13  1  0
 12 16  1  0
 13 14  2  0
 14 15  1  0
 16 15  2  0
  1 17  1  0
  2 18  1  0
  3 19  1  0
  8 20  1  0
  8 21  1  0
  9 22  1  0
  9 23  1  0
 10 24  1  6
 11 25  1  0
 11 26  1  0
 14 27  1  0
 15 28  1  0
 16 29  1  0
M  ISO  8  17  14  18  14  19  14  20  13  21  13  22  13  23  13  24  13
M  ISO  5  25  13  26  13  27  14  28  14  29  14
M  END
>  <minimizedAffinity>  (1) 
-5.06476307

>  <minimizedRMSD>  (1) 
0.23902142

$$$$
