
     RDKit          3D

 38 40  0  0  1  0  0  0  0  0999 V2000
   44.6650   35.4150   45.2290 C   0  0  0  0  0  0  0  0  0  0  0  0
   45.3250   35.3150   43.9920 C   0  0  0  0  0  0  0  0  0  0  0  0
   46.1860   34.2090   43.7960 C   0  0  0  0  0  0  0  0  0  0  0  0
   46.3280   33.3080   44.8070 N   0  0  0  0  0  0  0  0  0  0  0  0
   45.6630   33.4600   45.9770 C   0  0  0  0  0  0  0  0  0  0  0  0
   44.8500   34.4990   46.1710 N   0  0  0  0  0  0  0  0  0  0  0  0
   45.8750   32.4770   46.9560 N   0  0  0  0  0  0  0  0  0  0  0  0
   44.9400   32.0650   47.9700 C   0  0  0  0  0  0  0  0  0  0  0  0
   45.8710   31.7500   49.1290 C   0  0  0  0  0  0  0  0  0  0  0  0
   46.9160   30.9150   48.4010 C   0  0  1  0  0  0  0  0  0  0  0  0
   47.0840   31.6840   47.1320 C   0  0  0  0  0  0  0  0  0  0  0  0
   48.1680   30.8150   49.2280 C   0  0  0  0  0  0  0  0  0  0  0  0
   48.9890   29.6810   48.6520 C   0  0  0  0  0  0  0  0  0  0  0  0
   50.1440   29.3980   49.5790 C   0  0  0  0  0  0  0  0  0  0  0  0
   50.7350   30.5950   50.2300 C   0  0  0  0  0  0  0  0  0  0  0  0
   50.4000   31.8960   49.5960 C   0  0  0  0  0  0  0  0  0  0  0  0
   48.9820   32.0590   49.1830 C   0  0  0  0  0  0  0  0  0  0  0  0
   43.9882   36.2613   45.4181 H   0  0  0  0  0  0  0  0  0  0  0  0
   45.1776   36.0691   43.2048 H   0  0  0  0  0  0  0  0  0  0  0  0
   46.7285   34.0801   42.8478 H   0  0  0  0  0  0  0  0  0  0  0  0
   44.2406   32.8749   48.2248 H   0  0  0  0  0  0  0  0  0  0  0  0
   44.2950   31.2255   47.6714 H   0  0  0  0  0  0  0  0  0  0  0  0
   46.3062   32.6619   49.5639 H   0  0  0  0  0  0  0  0  0  0  0  0
   45.3945   31.2544   49.9877 H   0  0  0  0  0  0  0  0  0  0  0  0
   46.6435   29.8659   48.2135 H   0  0  0  0  0  0  0  0  0  0  0  0
   47.2105   30.9936   46.2850 H   0  0  0  0  0  0  0  0  0  0  0  0
   47.9748   32.3278   47.1762 H   0  0  0  0  0  0  0  0  0  0  0  0
   47.8870   30.6469   50.2781 H   0  0  0  0  0  0  0  0  0  0  0  0
   48.3623   28.7820   48.5570 H   0  0  0  0  0  0  0  0  0  0  0  0
   49.3675   29.9609   47.6578 H   0  0  0  0  0  0  0  0  0  0  0  0
   49.7889   28.7202   50.3693 H   0  0  0  0  0  0  0  0  0  0  0  0
   50.9391   28.9636   48.9553 H   0  0  0  0  0  0  0  0  0  0  0  0
   50.3818   30.6241   51.2714 H   0  0  0  0  0  0  0  0  0  0  0  0
   51.8253   30.4839   50.1358 H   0  0  0  0  0  0  0  0  0  0  0  0
   50.6379   32.6944   50.3143 H   0  0  0  0  0  0  0  0  0  0  0  0
   50.9919   31.9425   48.6700 H   0  0  0  0  0  0  0  0  0  0  0  0
   48.9686   32.4386   48.1507 H   0  0  0  0  0  0  0  0  0  0  0  0
   48.5278   32.7504   49.9081 H   0  0  0  0  0  0  0  0  0  0  0  0
  1  6  2  0
  2  1  1  0
  3  2  2  0
  3  4  1  0
  4  5  2  0
  5  6  1  0
  5  7  1  0
  7 11  1  0
  7  8  1  0
  8  9  1  0
 10  9  1  0
 10 12  1  0
 11 10  1  0
 13 12  1  0
 13 14  1  0
 14 15  1  0
 16 15  1  0
 17 12  1  0
 17 16  1  0
  1 18  1  0
  2 19  1  0
  3 20  1  0
  8 21  1  0
  8 22  1  0
  9 23  1  0
  9 24  1  0
 10 25  1  6
 11 26  1  0
 11 27  1  0
 12 28  1  0
 13 29  1  0
 13 30  1  0
 14 31  1  0
 14 32  1  0
 15 33  1  0
 15 34  1  0
 16 35  1  0
 16 36  1  0
 17 37  1  0
 17 38  1  0
M  ISO  8  18  14  19  14  20  14  21  13  22  13  23  13  24  13  25  13
M  ISO  8  26  13  27  13  28  13  29  13  30  13  31  13  32  13  33  13
M  ISO  5  34  13  35  13  36  13  37  13  38  13
M  END
>  <minimizedAffinity>  (1) 
-5.25764227

>  <minimizedRMSD>  (1) 
0.965029836

$$$$
