
     RDKit          3D

 24 25  0  0  1  0  0  0  0  0999 V2000
   44.5830   35.6400   44.9310 C   0  0  0  0  0  0  0  0  0  0  0  0
   45.2590   35.5060   43.6980 C   0  0  0  0  0  0  0  0  0  0  0  0
   46.1650   34.4230   43.5600 C   0  0  0  0  0  0  0  0  0  0  0  0
   46.3050   33.6030   44.6270 N   0  0  0  0  0  0  0  0  0  0  0  0
   45.6460   33.7590   45.7880 C   0  0  0  0  0  0  0  0  0  0  0  0
   44.7870   34.7810   45.9260 N   0  0  0  0  0  0  0  0  0  0  0  0
   45.8950   32.8310   46.8000 N   0  0  0  0  0  0  0  0  0  0  0  0
   44.9570   32.4630   47.8520 C   0  0  0  0  0  0  0  0  0  0  0  0
   45.9260   32.2270   49.0060 C   0  0  0  0  0  0  0  0  0  0  0  0
   46.9160   31.3120   48.2910 C   0  0  1  0  0  0  0  0  0  0  0  0
   47.1210   32.0650   46.9920 C   0  0  0  0  0  0  0  0  0  0  0  0
   48.1610   31.1040   49.0560 C   0  0  0  0  0  0  0  0  0  0  0  0
   49.0270   31.9900   49.0080 O   0  0  0  0  0  0  0  0  0  0  0  0
   43.8748   36.4700   45.0710 H   0  0  0  0  0  0  0  0  0  0  0  0
   45.0892   36.2155   42.8748 H   0  0  0  0  0  0  0  0  0  0  0  0
   46.7273   34.2577   42.6291 H   0  0  0  0  0  0  0  0  0  0  0  0
   44.2515   33.2777   48.0723 H   0  0  0  0  0  0  0  0  0  0  0  0
   44.3069   31.6085   47.6128 H   0  0  0  0  0  0  0  0  0  0  0  0
   46.3975   33.1601   49.3480 H   0  0  0  0  0  0  0  0  0  0  0  0
   45.4810   31.8209   49.9263 H   0  0  0  0  0  0  0  0  0  0  0  0
   46.5598   30.2807   48.1511 H   0  0  0  0  0  0  0  0  0  0  0  0
   47.2726   31.3633   46.1585 H   0  0  0  0  0  0  0  0  0  0  0  0
   48.0102   32.7117   47.0261 H   0  0  0  0  0  0  0  0  0  0  0  0
   48.3157   30.1913   49.6502 H   0  0  0  0  0  0  0  0  0  0  0  0
  1  6  2  0
  2  1  1  0
  3  2  2  0
  3  4  1  0
  4  5  2  0
  5  6  1  0
  5  7  1  0
  7 11  1  0
  7  8  1  0
  8  9  1  0
 10  9  1  0
 10 12  1  0
 11 10  1  0
 13 12  2  0
  1 14  1  0
  2 15  1  0
  3 16  1  0
  8 17  1  0
  8 18  1  0
  9 19  1  0
  9 20  1  0
 10 21  1  6
 11 22  1  0
 11 23  1  0
 12 24  1  0
M  ISO  8  14  14  15  14  16  14  17  13  18  13  19  13  20  13  21  13
M  ISO  3  22  13  23  13  24   6
M  END
>  <minimizedAffinity>  (1) 
-4.63436556

>  <minimizedRMSD>  (1) 
0.168425307

$$$$
