
     RDKit          3D

 28 30  0  0  1  0  0  0  0  0999 V2000
   44.6010   35.6570   45.1530 C   0  0  0  0  0  0  0  0  0  0  0  0
   45.0760   35.5240   43.8160 C   0  0  0  0  0  0  0  0  0  0  0  0
   45.8340   34.3670   43.4980 C   0  0  0  0  0  0  0  0  0  0  0  0
   46.0500   33.4740   44.4850 N   0  0  0  0  0  0  0  0  0  0  0  0
   45.5920   33.6250   45.7280 C   0  0  0  0  0  0  0  0  0  0  0  0
   44.8710   34.7110   46.0620 N   0  0  0  0  0  0  0  0  0  0  0  0
   45.8740   32.6400   46.6740 N   0  0  0  0  0  0  0  0  0  0  0  0
   45.0980   32.2700   47.8420 C   0  0  0  0  0  0  0  0  0  0  0  0
   46.2270   31.9530   48.8130 C   0  0  0  0  0  0  0  0  0  0  0  0
   47.0230   30.9880   47.9280 C   0  0  1  0  0  0  0  0  0  0  0  0
   47.0640   31.7700   46.6410 C   0  0  0  0  0  0  0  0  0  0  0  0
   48.3960   30.8500   48.4740 C   0  0  0  0  0  0  0  0  0  0  0  0
   49.2090   29.6900   48.3050 C   0  0  0  0  0  0  0  0  0  0  0  0
   50.7850   30.1740   49.2250 S   0  0  0  0  0  0  0  0  0  0  0  0
   50.0230   31.8400   49.6480 C   0  0  0  0  0  0  0  0  0  0  0  0
   48.9330   31.8430   49.1650 N   0  0  0  0  0  0  0  0  0  0  0  0
   44.0105   36.5397   45.4395 H   0  0  0  0  0  0  0  0  0  0  0  0
   44.8626   36.2912   43.0571 H   0  0  0  0  0  0  0  0  0  0  0  0
   46.2303   34.2049   42.4847 H   0  0  0  0  0  0  0  0  0  0  0  0
   44.4733   33.1022   48.1986 H   0  0  0  0  0  0  0  0  0  0  0  0
   44.3780   31.4537   47.6829 H   0  0  0  0  0  0  0  0  0  0  0  0
   46.8090   32.8479   49.0784 H   0  0  0  0  0  0  0  0  0  0  0  0
   45.9183   31.5588   49.7925 H   0  0  0  0  0  0  0  0  0  0  0  0
   46.6070   29.9735   47.8404 H   0  0  0  0  0  0  0  0  0  0  0  0
   47.0207   31.0912   45.7765 H   0  0  0  0  0  0  0  0  0  0  0  0
   47.9931   32.3509   46.5444 H   0  0  0  0  0  0  0  0  0  0  0  0
   48.9773   28.7543   47.7750 H   0  0  0  0  0  0  0  0  0  0  0  0
   50.4901   32.6508   50.2262 H   0  0  0  0  0  0  0  0  0  0  0  0
  1  6  2  0
  2  1  1  0
  3  2  2  0
  3  4  1  0
  4  5  2  0
  5  6  1  0
  5  7  1  0
  7  8  1  0
  8  9  1  0
 10 12  1  0
 10  9  1  0
 11  7  1  0
 11 10  1  0
 12 16  1  0
 13 12  2  0
 13 14  1  0
 14 15  1  0
 16 15  2  0
  1 17  1  0
  2 18  1  0
  3 19  1  0
  8 20  1  0
  8 21  1  0
  9 22  1  0
  9 23  1  0
 10 24  1  6
 11 25  1  0
 11 26  1  0
 13 27  1  0
 15 28  1  0
M  ISO  8  17  14  18  14  19  14  20  13  21  13  22  13  23  13  24  13
M  ISO  4  25  13  26  13  27  14  28  14
M  END
>  <minimizedAffinity>  (1) 
-4.98145628

>  <minimizedRMSD>  (1) 
0.957987726

$$$$
