
     RDKit          3D

 28 29  0  0  1  0  0  0  0  0999 V2000
   44.5440   35.9040   44.7390 C   0  0  0  0  0  0  0  0  0  0  0  0
   45.1560   35.7120   43.4880 C   0  0  0  0  0  0  0  0  0  0  0  0
   46.0040   34.5870   43.3170 C   0  0  0  0  0  0  0  0  0  0  0  0
   46.1600   33.7700   44.3940 N   0  0  0  0  0  0  0  0  0  0  0  0
   45.5530   33.9930   45.5790 C   0  0  0  0  0  0  0  0  0  0  0  0
   44.7560   35.0470   45.7470 N   0  0  0  0  0  0  0  0  0  0  0  0
   45.8130   33.0620   46.5980 N   0  0  0  0  0  0  0  0  0  0  0  0
   44.8980   32.7130   47.6710 C   0  0  0  0  0  0  0  0  0  0  0  0
   45.8680   32.4500   48.8050 C   0  0  0  0  0  0  0  0  0  0  0  0
   46.8670   31.5530   48.0720 C   0  0  2  0  0  0  0  0  0  0  0  0
   47.0250   32.2770   46.7800 C   0  0  0  0  0  0  0  0  0  0  0  0
   46.3650   30.1480   47.9280 C   0  0  0  0  0  0  0  0  0  0  0  0
   45.2360   29.9000   48.9000 C   0  0  0  0  0  0  0  0  0  0  0  0
   43.8823   36.7693   44.8924 H   0  0  0  0  0  0  0  0  0  0  0  0
   44.9818   36.4168   42.6616 H   0  0  0  0  0  0  0  0  0  0  0  0
   46.5101   34.3854   42.3613 H   0  0  0  0  0  0  0  0  0  0  0  0
   44.2166   33.5437   47.9069 H   0  0  0  0  0  0  0  0  0  0  0  0
   44.2304   31.8696   47.4409 H   0  0  0  0  0  0  0  0  0  0  0  0
   46.3367   33.3764   49.1685 H   0  0  0  0  0  0  0  0  0  0  0  0
   45.4238   32.0156   49.7127 H   0  0  0  0  0  0  0  0  0  0  0  0
   47.8226   31.4066   48.5968 H   0  0  0  0  0  0  0  0  0  0  0  0
   47.1415   31.5601   45.9539 H   0  0  0  0  0  0  0  0  0  0  0  0
   47.9182   32.9189   46.7892 H   0  0  0  0  0  0  0  0  0  0  0  0
   46.0018   29.9945   46.9011 H   0  0  0  0  0  0  0  0  0  0  0  0
   47.1859   29.4478   48.1422 H   0  0  0  0  0  0  0  0  0  0  0  0
   45.6138   29.9830   49.9297 H   0  0  0  0  0  0  0  0  0  0  0  0
   44.4432   30.6454   48.7391 H   0  0  0  0  0  0  0  0  0  0  0  0
   44.8286   28.8910   48.7391 H   0  0  0  0  0  0  0  0  0  0  0  0
  1  6  2  0
  2  1  1  0
  3  2  2  0
  3  4  1  0
  4  5  2  0
  5  6  1  0
  5  7  1  0
  7 11  1  0
  7  8  1  0
  8  9  1  0
 10  9  1  0
 11 10  1  0
 12 10  1  0
 12 13  1  0
  1 14  1  0
  2 15  1  0
  3 16  1  0
  8 17  1  0
  8 18  1  0
  9 19  1  0
  9 20  1  0
 10 21  1  1
 11 22  1  0
 11 23  1  0
 12 24  1  0
 12 25  1  0
 13 26  1  0
 13 27  1  0
 13 28  1  0
M  ISO  8  14  14  15  14  16  14  17  13  18  13  19  13  20  13  21  13
M  ISO  7  22  13  23  13  24   8  25   8  26   8  27   8  28   8
M  END
>  <minimizedAffinity>  (1) 
-4.51113081

>  <minimizedRMSD>  (1) 
0.336207539

$$$$
