
     RDKit          3D

 23 24  0  0  1  0  0  0  0  0999 V2000
   44.5340   35.7180   44.8440 C   0  0  0  0  0  0  0  0  0  0  0  0
   45.2070   35.5420   43.6000 C   0  0  0  0  0  0  0  0  0  0  0  0
   46.1190   34.4600   43.4810 C   0  0  0  0  0  0  0  0  0  0  0  0
   46.2730   33.6760   44.5770 N   0  0  0  0  0  0  0  0  0  0  0  0
   45.6150   33.8790   45.7350 C   0  0  0  0  0  0  0  0  0  0  0  0
   44.7570   34.8920   45.8570 N   0  0  0  0  0  0  0  0  0  0  0  0
   45.8790   32.9800   46.7840 N   0  0  0  0  0  0  0  0  0  0  0  0
   44.9220   32.6000   47.8180 C   0  0  0  0  0  0  0  0  0  0  0  0
   45.8900   32.3770   48.9770 C   0  0  0  0  0  0  0  0  0  0  0  0
   46.9140   31.4880   48.2850 C   0  0  1  0  0  0  0  0  0  0  0  0
   47.1520   32.2750   47.0100 C   0  0  0  0  0  0  0  0  0  0  0  0
   48.0690   31.3920   49.0550 O   0  0  0  0  0  0  0  0  0  0  0  0
   43.8221   36.5478   44.9650 H   0  0  0  0  0  0  0  0  0  0  0  0
   45.0253   36.2244   42.7566 H   0  0  0  0  0  0  0  0  0  0  0  0
   46.6713   34.2679   42.5493 H   0  0  0  0  0  0  0  0  0  0  0  0
   44.2042   33.4059   48.0306 H   0  0  0  0  0  0  0  0  0  0  0  0
   44.2774   31.7435   47.5713 H   0  0  0  0  0  0  0  0  0  0  0  0
   46.3354   33.3202   49.3263 H   0  0  0  0  0  0  0  0  0  0  0  0
   45.4402   31.9514   49.8861 H   0  0  0  0  0  0  0  0  0  0  0  0
   46.5978   30.4480   48.1165 H   0  0  0  0  0  0  0  0  0  0  0  0
   47.3800   31.6009   46.1712 H   0  0  0  0  0  0  0  0  0  0  0  0
   48.0079   32.9614   47.0895 H   0  0  0  0  0  0  0  0  0  0  0  0
   47.8282   31.4120   50.0151 H   0  0  0  0  0  0  0  0  0  0  0  0
  1  6  2  0
  2  1  1  0
  3  2  2  0
  3  4  1  0
  4  5  2  0
  5  6  1  0
  5  7  1  0
  7 11  1  0
  7  8  1  0
  8  9  1  0
 10  9  1  0
 10 12  1  0
 11 10  1  0
  1 13  1  0
  2 14  1  0
  3 15  1  0
  8 16  1  0
  8 17  1  0
  9 18  1  0
  9 19  1  0
 10 20  1  6
 11 21  1  0
 11 22  1  0
 12 23  1  0
M  ISO  8  13  14  14  14  15  14  16  13  17  13  18  13  19  13  20  13
M  ISO  3  21  13  22  13  23   3
M  END
>  <minimizedAffinity>  (1) 
-4.49213219

>  <minimizedRMSD>  (1) 
0.0751757994

$$$$
