
     RDKit          3D

 31 32  0  0  1  0  0  0  0  0999 V2000
   44.5320   35.8940   44.8100 C   0  0  0  0  0  0  0  0  0  0  0  0
   44.8160   35.6600   43.4540 C   0  0  0  0  0  0  0  0  0  0  0  0
   45.4600   34.4510   43.1240 C   0  0  0  0  0  0  0  0  0  0  0  0
   45.7660   33.5890   44.1370 N   0  0  0  0  0  0  0  0  0  0  0  0
   45.4760   33.8540   45.4220 C   0  0  0  0  0  0  0  0  0  0  0  0
   44.8650   34.9980   45.7330 N   0  0  0  0  0  0  0  0  0  0  0  0
   45.8300   32.9070   46.3780 N   0  0  0  0  0  0  0  0  0  0  0  0
   45.1820   32.6730   47.6430 C   0  0  0  0  0  0  0  0  0  0  0  0
   46.3710   32.2750   48.5050 C   0  0  0  0  0  0  0  0  0  0  0  0
   46.9850   31.2090   47.5680 C   0  0  1  0  0  0  0  0  0  0  0  0
   46.9370   31.9640   46.2780 C   0  0  0  0  0  0  0  0  0  0  0  0
   48.3930   30.8840   48.0070 C   0  0  0  0  0  0  0  0  0  0  0  0
   48.6940   29.4660   47.5670 C   0  0  0  0  0  0  0  0  0  0  0  0
   48.5350   30.9240   49.5090 C   0  0  0  0  0  0  0  0  0  0  0  0
   44.0303   36.8259   45.1097 H   0  0  0  0  0  0  0  0  0  0  0  0
   44.5458   36.3928   42.6794 H   0  0  0  0  0  0  0  0  0  0  0  0
   45.7089   34.2089   42.0802 H   0  0  0  0  0  0  0  0  0  0  0  0
   44.6941   33.5831   48.0221 H   0  0  0  0  0  0  0  0  0  0  0  0
   44.3746   31.9267   47.6092 H   0  0  0  0  0  0  0  0  0  0  0  0
   47.0565   33.1172   48.6803 H   0  0  0  0  0  0  0  0  0  0  0  0
   46.1310   31.9353   49.5233 H   0  0  0  0  0  0  0  0  0  0  0  0
   46.4824   30.2311   47.5340 H   0  0  0  0  0  0  0  0  0  0  0  0
   46.7686   31.2710   45.4405 H   0  0  0  0  0  0  0  0  0  0  0  0
   47.8857   32.4898   46.0949 H   0  0  0  0  0  0  0  0  0  0  0  0
   49.0755   31.6249   47.5651 H   0  0  0  0  0  0  0  0  0  0  0  0
   48.8294   28.8281   48.4529 H   0  0  0  0  0  0  0  0  0  0  0  0
   47.8570   29.0836   46.9643 H   0  0  0  0  0  0  0  0  0  0  0  0
   49.6142   29.4566   46.9643 H   0  0  0  0  0  0  0  0  0  0  0  0
   47.5760   30.6539   49.9753 H   0  0  0  0  0  0  0  0  0  0  0  0
   49.3098   30.2091   49.8232 H   0  0  0  0  0  0  0  0  0  0  0  0
   48.8227   31.9381   49.8232 H   0  0  0  0  0  0  0  0  0  0  0  0
  1  6  2  0
  2  1  1  0
  3  2  2  0
  3  4  1  0
  4  5  2  0
  5  6  1  0
  5  7  1  0
  7  8  1  0
  8  9  1  0
 10 12  1  0
 10  9  1  0
 11  7  1  0
 11 10  1  0
 12 14  1  0
 13 12  1  0
  1 15  1  0
  2 16  1  0
  3 17  1  0
  8 18  1  0
  8 19  1  0
  9 20  1  0
  9 21  1  0
 10 22  1  6
 11 23  1  0
 11 24  1  0
 12 25  1  0
 13 26  1  0
 13 27  1  0
 13 28  1  0
 14 29  1  0
 14 30  1  0
 14 31  1  0
M  ISO  8  15  14  16  14  17  14  18  13  19  13  20  13  21  13  22  13
M  ISO  8  23  13  24  13  25   8  26   8  27   8  28   8  29   8  30   8
M  ISO  1  31   8
M  END
>  <minimizedAffinity>  (1) 
-4.59767771

>  <minimizedRMSD>  (1) 
0.906176388

$$$$
