
     RDKit          3D

 42 45  0  0  1  0  0  0  0  0999 V2000
   44.5520   35.4610   45.1490 C   0  0  0  0  0  0  0  0  0  0  0  0
   45.1290   35.4030   43.8580 C   0  0  0  0  0  0  0  0  0  0  0  0
   46.0680   34.3730   43.6410 C   0  0  0  0  0  0  0  0  0  0  0  0
   46.3610   33.5110   44.6570 N   0  0  0  0  0  0  0  0  0  0  0  0
   45.7690   33.6280   45.8680 C   0  0  0  0  0  0  0  0  0  0  0  0
   44.8680   34.5990   46.1140 N   0  0  0  0  0  0  0  0  0  0  0  0
   46.1410   32.6880   46.8360 N   0  0  0  0  0  0  0  0  0  0  0  0
   45.2850   32.1670   47.8850 C   0  0  0  0  0  0  0  0  0  0  0  0
   46.2670   31.9290   48.9850 C   0  0  0  0  0  0  0  0  0  0  0  0
   47.3990   31.2670   48.2520 C   0  0  1  0  0  0  0  0  0  0  0  0
   47.4470   32.0720   46.9560 C   0  0  0  0  0  0  0  0  0  0  0  0
   48.6260   31.4590   49.0420 C   0  0  0  0  0  0  0  0  0  0  0  0
   49.5040   32.5670   49.2170 C   0  0  0  0  0  0  0  0  0  0  0  0
   50.5820   32.3960   50.0170 C   0  0  0  0  0  0  0  0  0  0  0  0
   50.8070   31.1740   50.6380 C   0  0  0  0  0  0  0  0  0  0  0  0
   49.3490   30.1550   50.0330 S   0  0  0  0  0  0  0  0  0  0  0  0
   51.8360   30.7500   51.5040 N   0  0  0  0  0  0  0  0  0  0  0  0
   51.7020   31.0790   52.7760 C   0  0  0  0  0  0  0  0  0  0  0  0
   52.6990   30.6800   53.6670 C   0  0  0  0  0  0  0  0  0  0  0  0
   52.6310   31.0050   55.1170 C   0  0  0  0  0  0  0  0  0  0  0  0
   53.8020   29.9580   53.2360 C   0  0  0  0  0  0  0  0  0  0  0  0
   54.7370   29.5610   53.9590 O   0  0  0  0  0  0  0  0  0  0  0  0
   53.8020   29.6950   51.9090 N   0  0  0  0  0  0  0  0  0  0  0  0
   52.8680   30.0580   51.0100 C   0  0  0  0  0  0  0  0  0  0  0  0
   52.9990   29.7430   49.7990 O   0  0  0  0  0  0  0  0  0  0  0  0
   43.8143   36.2482   45.3637 H   0  0  0  0  0  0  0  0  0  0  0  0
   44.8604   36.1204   43.0686 H   0  0  0  0  0  0  0  0  0  0  0  0
   46.5590   34.2659   42.6625 H   0  0  0  0  0  0  0  0  0  0  0  0
   44.5211   32.9010   48.1810 H   0  0  0  0  0  0  0  0  0  0  0  0
   44.7146   31.2727   47.5937 H   0  0  0  0  0  0  0  0  0  0  0  0
   46.5878   32.8746   49.4464 H   0  0  0  0  0  0  0  0  0  0  0  0
   45.8663   31.3312   49.8169 H   0  0  0  0  0  0  0  0  0  0  0  0
   47.2892   30.1862   48.0792 H   0  0  0  0  0  0  0  0  0  0  0  0
   47.6404   31.4101   46.0990 H   0  0  0  0  0  0  0  0  0  0  0  0
   48.2525   32.8210   46.9697 H   0  0  0  0  0  0  0  0  0  0  0  0
   49.3123   33.5288   48.7188 H   0  0  0  0  0  0  0  0  0  0  0  0
   51.2832   33.2284   50.1762 H   0  0  0  0  0  0  0  0  0  0  0  0
   50.8292   31.6514   53.1232 H   0  0  0  0  0  0  0  0  0  0  0  0
   52.8213   30.0956   55.7059 H   0  0  0  0  0  0  0  0  0  0  0  0
   53.3898   31.7638   55.3587 H   0  0  0  0  0  0  0  0  0  0  0  0
   51.6316   31.3959   55.3587 H   0  0  0  0  0  0  0  0  0  0  0  0
   54.6036   29.1588   51.5472 H   0  0  0  0  0  0  0  0  0  0  0  0
  1  6  2  0
  2  1  1  0
  3  2  2  0
  3  4  1  0
  4  5  2  0
  5  6  1  0
  5  7  1  0
  7 11  1  0
  7  8  1  0
  8  9  1  0
 10  9  1  0
 10 12  1  0
 11 10  1  0
 12 13  2  0
 12 16  1  0
 13 14  1  0
 14 15  2  0
 15 17  1  0
 16 15  1  0
 17 18  1  0
 18 19  2  0
 19 20  1  0
 21 19  1  0
 21 22  2  0
 23 21  1  0
 24 17  1  0
 24 23  1  0
 25 24  2  0
  1 26  1  0
  2 27  1  0
  3 28  1  0
  8 29  1  0
  8 30  1  0
  9 31  1  0
  9 32  1  0
 10 33  1  6
 11 34  1  0
 11 35  1  0
 13 36  1  0
 14 37  1  0
 18 38  1  0
 20 39  1  0
 20 40  1  0
 20 41  1  0
 23 42  1  0
M  ISO  8  26  14  27  14  28  14  29  13  30  13  31  13  32  13  33  13
M  ISO  8  34  13  35  13  36  14  37  14  38  14  39   8  40   8  41   8
M  ISO  1  42   9
M  END
>  <minimizedAffinity>  (1) 
-6.14820814

>  <minimizedRMSD>  (1) 
2.28657937

$$$$
