
     RDKit          3D

 43 47  0  0  1  0  0  0  0  0999 V2000
   44.5650   35.4240   45.1930 C   0  0  0  0  0  0  0  0  0  0  0  0
   45.1320   35.3270   43.9000 C   0  0  0  0  0  0  0  0  0  0  0  0
   46.0470   34.2850   43.6800 C   0  0  0  0  0  0  0  0  0  0  0  0
   46.3430   33.4280   44.7070 N   0  0  0  0  0  0  0  0  0  0  0  0
   45.7660   33.5760   45.9210 C   0  0  0  0  0  0  0  0  0  0  0  0
   44.8780   34.5680   46.1740 N   0  0  0  0  0  0  0  0  0  0  0  0
   46.1320   32.6470   46.9140 N   0  0  0  0  0  0  0  0  0  0  0  0
   45.2960   32.1520   47.9780 C   0  0  0  0  0  0  0  0  0  0  0  0
   46.2930   31.9330   49.0740 C   0  0  0  0  0  0  0  0  0  0  0  0
   47.4050   31.2490   48.3330 C   0  0  1  0  0  0  0  0  0  0  0  0
   47.4490   32.0300   47.0180 C   0  0  0  0  0  0  0  0  0  0  0  0
   48.6480   31.4160   49.0890 C   0  0  0  0  0  0  0  0  0  0  0  0
   49.5160   32.5310   49.2840 C   0  0  0  0  0  0  0  0  0  0  0  0
   50.6240   32.3530   50.0430 C   0  0  0  0  0  0  0  0  0  0  0  0
   50.8750   31.1070   50.6000 C   0  0  0  0  0  0  0  0  0  0  0  0
   49.4290   30.1020   50.0050 S   0  0  0  0  0  0  0  0  0  0  0  0
   51.9600   30.6640   51.4300 N   0  0  0  0  0  0  0  0  0  0  0  0
   52.8330   29.7610   50.9540 C   0  0  0  0  0  0  0  0  0  0  0  0
   53.7110   29.5690   51.9770 N   0  0  0  0  0  0  0  0  0  0  0  0
   53.3410   30.3500   53.0090 C   0  0  0  0  0  0  0  0  0  0  0  0
   53.9060   30.5180   54.2790 C   0  0  0  0  0  0  0  0  0  0  0  0
   54.9380   29.8970   54.6530 O   0  0  0  0  0  0  0  0  0  0  0  0
   53.2700   31.4000   55.0920 N   0  0  0  0  0  0  0  0  0  0  0  0
   52.1650   32.0900   54.7440 C   0  0  0  0  0  0  0  0  0  0  0  0
   51.5820   32.9990   55.6990 N   0  0  0  0  0  0  0  0  0  0  0  0
   51.6040   31.9340   53.5060 N   0  0  0  0  0  0  0  0  0  0  0  0
   52.2110   31.0640   52.6690 C   0  0  0  0  0  0  0  0  0  0  0  0
   43.8438   36.2287   45.3988 H   0  0  0  0  0  0  0  0  0  0  0  0
   44.8675   36.0368   43.1024 H   0  0  0  0  0  0  0  0  0  0  0  0
   46.5203   34.1583   42.6952 H   0  0  0  0  0  0  0  0  0  0  0  0
   44.5371   32.8932   48.2690 H   0  0  0  0  0  0  0  0  0  0  0  0
   44.7218   31.2523   47.7117 H   0  0  0  0  0  0  0  0  0  0  0  0
   46.6270   32.8861   49.5100 H   0  0  0  0  0  0  0  0  0  0  0  0
   45.9030   31.3594   49.9277 H   0  0  0  0  0  0  0  0  0  0  0  0
   47.2681   30.1680   48.1824 H   0  0  0  0  0  0  0  0  0  0  0  0
   47.6290   31.3531   46.1699 H   0  0  0  0  0  0  0  0  0  0  0  0
   48.2606   32.7723   47.0000 H   0  0  0  0  0  0  0  0  0  0  0  0
   49.2920   33.5080   48.8308 H   0  0  0  0  0  0  0  0  0  0  0  0
   51.3183   33.1885   50.2162 H   0  0  0  0  0  0  0  0  0  0  0  0
   52.8376   29.2846   49.9625 H   0  0  0  0  0  0  0  0  0  0  0  0
   53.6562   31.5517   56.0347 H   0  0  0  0  0  0  0  0  0  0  0  0
   50.7379   33.5347   55.4512 H   0  0  0  0  0  0  0  0  0  0  0  0
   52.0096   33.1128   56.6291 H   0  0  0  0  0  0  0  0  0  0  0  0
  1  6  2  0
  2  1  1  0
  3  2  2  0
  3  4  1  0
  4  5  2  0
  5  6  1  0
  5  7  1  0
  7 11  1  0
  7  8  1  0
  8  9  1  0
 10  9  1  0
 10 12  1  0
 11 10  1  0
 12 13  2  0
 12 16  1  0
 13 14  1  0
 14 15  2  0
 15 17  1  0
 16 15  1  0
 17 27  1  0
 18 17  1  0
 18 19  2  0
 19 20  1  0
 20 21  1  0
 21 22  2  0
 21 23  1  0
 24 23  1  0
 24 25  1  0
 26 24  2  0
 27 20  2  0
 27 26  1  0
  1 28  1  0
  2 29  1  0
  3 30  1  0
  8 31  1  0
  8 32  1  0
  9 33  1  0
  9 34  1  0
 10 35  1  6
 11 36  1  0
 11 37  1  0
 13 38  1  0
 14 39  1  0
 18 40  1  0
 23 41  1  0
 25 42  1  0
 25 43  1  0
M  ISO  8  28  14  29  14  30  14  31  13  32  13  33  13  34  13  35  13
M  ISO  6  36  13  37  13  38  14  39  14  40  14  41   9
M  END
>  <minimizedAffinity>  (1) 
-6.63937569

>  <minimizedRMSD>  (1) 
2.33529615

$$$$
