
     RDKit          3D

 40 44  0  0  1  0  0  0  0  0999 V2000
   44.5660   35.4480   45.1810 C   0  0  0  0  0  0  0  0  0  0  0  0
   45.1710   35.3970   43.9030 C   0  0  0  0  0  0  0  0  0  0  0  0
   46.1060   34.3790   43.6750 C   0  0  0  0  0  0  0  0  0  0  0  0
   46.3910   33.4910   44.6860 N   0  0  0  0  0  0  0  0  0  0  0  0
   45.7800   33.5930   45.8870 C   0  0  0  0  0  0  0  0  0  0  0  0
   44.8710   34.5650   46.1390 N   0  0  0  0  0  0  0  0  0  0  0  0
   46.1330   32.6440   46.8570 N   0  0  0  0  0  0  0  0  0  0  0  0
   45.2820   32.0940   47.8720 C   0  0  0  0  0  0  0  0  0  0  0  0
   46.2480   31.8640   48.9970 C   0  0  0  0  0  0  0  0  0  0  0  0
   47.3910   31.2090   48.2700 C   0  0  1  0  0  0  0  0  0  0  0  0
   47.4540   32.0520   46.9920 C   0  0  0  0  0  0  0  0  0  0  0  0
   48.6060   31.3890   49.0730 C   0  0  0  0  0  0  0  0  0  0  0  0
   49.5080   32.4830   49.2380 C   0  0  0  0  0  0  0  0  0  0  0  0
   50.5780   32.3190   50.0570 C   0  0  0  0  0  0  0  0  0  0  0  0
   50.7570   31.1010   50.7000 C   0  0  0  0  0  0  0  0  0  0  0  0
   49.2930   30.0950   50.1030 S   0  0  0  0  0  0  0  0  0  0  0  0
   51.7780   30.6690   51.5970 N   0  0  0  0  0  0  0  0  0  0  0  0
   52.5720   29.6530   51.3070 C   0  0  0  0  0  0  0  0  0  0  0  0
   53.4150   29.5150   52.3640 N   0  0  0  0  0  0  0  0  0  0  0  0
   53.1000   30.4660   53.2730 C   0  0  0  0  0  0  0  0  0  0  0  0
   53.6000   30.8190   54.5280 C   0  0  0  0  0  0  0  0  0  0  0  0
   53.0710   31.8530   55.2350 N   0  0  0  0  0  0  0  0  0  0  0  0
   52.0330   32.5720   54.7300 C   0  0  0  0  0  0  0  0  0  0  0  0
   51.5360   32.2470   53.5190 N   0  0  0  0  0  0  0  0  0  0  0  0
   52.0340   31.2310   52.7900 C   0  0  0  0  0  0  0  0  0  0  0  0
   43.8258   36.2338   45.3925 H   0  0  0  0  0  0  0  0  0  0  0  0
   44.9175   36.1271   43.1202 H   0  0  0  0  0  0  0  0  0  0  0  0
   46.6062   34.2909   42.6993 H   0  0  0  0  0  0  0  0  0  0  0  0
   44.4936   32.8046   48.1610 H   0  0  0  0  0  0  0  0  0  0  0  0
   44.7438   31.1879   47.5569 H   0  0  0  0  0  0  0  0  0  0  0  0
   46.5566   32.8111   49.4636 H   0  0  0  0  0  0  0  0  0  0  0  0
   45.8407   31.2692   49.8278 H   0  0  0  0  0  0  0  0  0  0  0  0
   47.2845   30.1310   48.0790 H   0  0  0  0  0  0  0  0  0  0  0  0
   47.6825   31.4176   46.1229 H   0  0  0  0  0  0  0  0  0  0  0  0
   48.2427   32.8170   47.0440 H   0  0  0  0  0  0  0  0  0  0  0  0
   49.3401   33.4356   48.7143 H   0  0  0  0  0  0  0  0  0  0  0  0
   51.2940   33.1400   50.2094 H   0  0  0  0  0  0  0  0  0  0  0  0
   52.5541   29.0414   50.3929 H   0  0  0  0  0  0  0  0  0  0  0  0
   54.4390   30.2489   54.9535 H   0  0  0  0  0  0  0  0  0  0  0  0
   51.6042   33.4081   55.3019 H   0  0  0  0  0  0  0  0  0  0  0  0
  1  6  2  0
  2  1  1  0
  3  2  2  0
  3  4  1  0
  4  5  2  0
  5  6  1  0
  5  7  1  0
  7 11  1  0
  7  8  1  0
  8  9  1  0
 10  9  1  0
 10 12  1  0
 11 10  1  0
 12 13  2  0
 12 16  1  0
 13 14  1  0
 14 15  2  0
 15 17  1  0
 16 15  1  0
 17 25  1  0
 18 17  1  0
 18 19  2  0
 19 20  1  0
 20 21  2  0
 21 22  1  0
 23 22  2  0
 24 23  1  0
 25 20  1  0
 25 24  2  0
  1 26  1  0
  2 27  1  0
  3 28  1  0
  8 29  1  0
  8 30  1  0
  9 31  1  0
  9 32  1  0
 10 33  1  6
 11 34  1  0
 11 35  1  0
 13 36  1  0
 14 37  1  0
 18 38  1  0
 21 39  1  0
 23 40  1  0
M  ISO  8  26  14  27  14  28  14  29  13  30  13  31  13  32  13  33  13
M  ISO  7  34  13  35  13  36  14  37  14  38  14  39  14  40  14
M  END
>  <minimizedAffinity>  (1) 
-6.20545578

>  <minimizedRMSD>  (1) 
2.27792931

$$$$
