
     RDKit          3D

 42 45  0  0  1  0  0  0  0  0999 V2000
   44.5770   35.6110   45.1250 C   0  0  0  0  0  0  0  0  0  0  0  0
   45.0720   35.4880   43.8210 C   0  0  0  0  0  0  0  0  0  0  0  0
   45.8860   34.3670   43.5610 C   0  0  0  0  0  0  0  0  0  0  0  0
   46.1460   33.4770   44.5760 N   0  0  0  0  0  0  0  0  0  0  0  0
   45.6350   33.6620   45.8020 C   0  0  0  0  0  0  0  0  0  0  0  0
   44.8550   34.7240   46.0760 N   0  0  0  0  0  0  0  0  0  0  0  0
   45.9590   32.7020   46.7780 N   0  0  0  0  0  0  0  0  0  0  0  0
   45.1100   32.2770   47.8690 C   0  0  0  0  0  0  0  0  0  0  0  0
   46.1250   31.9650   48.9280 C   0  0  0  0  0  0  0  0  0  0  0  0
   47.1350   31.1760   48.1460 C   0  0  1  0  0  0  0  0  0  0  0  0
   47.2110   31.9740   46.8400 C   0  0  0  0  0  0  0  0  0  0  0  0
   48.4130   31.2490   48.8730 C   0  0  0  0  0  0  0  0  0  0  0  0
   49.2590   32.3250   49.2640 C   0  0  0  0  0  0  0  0  0  0  0  0
   50.4160   32.0480   49.9170 C   0  0  0  0  0  0  0  0  0  0  0  0
   50.7450   30.7260   50.1890 C   0  0  0  0  0  0  0  0  0  0  0  0
   49.3000   29.8010   49.4610 S   0  0  0  0  0  0  0  0  0  0  0  0
   51.9530   30.3560   50.8440 N   0  0  0  0  0  0  0  0  0  0  0  0
   52.2950   31.0680   52.0330 C   0  0  0  0  0  0  0  0  0  0  0  0
   52.6270   30.0550   53.1170 C   0  0  0  0  0  0  0  0  0  0  0  0
   53.1860   28.8910   52.6310 O   0  0  0  0  0  0  0  0  0  0  0  0
   53.8710   29.0820   51.4370 C   0  0  0  0  0  0  0  0  0  0  0  0
   52.7990   29.3160   50.3650 C   0  0  0  0  0  0  0  0  0  0  0  0
   43.9363   36.4706   45.3712 H   0  0  0  0  0  0  0  0  0  0  0  0
   44.8380   36.2272   43.0407 H   0  0  0  0  0  0  0  0  0  0  0  0
   46.3081   34.2062   42.5580 H   0  0  0  0  0  0  0  0  0  0  0  0
   44.4305   33.0814   48.1872 H   0  0  0  0  0  0  0  0  0  0  0  0
   44.4453   31.4364   47.6210 H   0  0  0  0  0  0  0  0  0  0  0  0
   46.5663   32.8822   49.3452 H   0  0  0  0  0  0  0  0  0  0  0  0
   45.7164   31.4337   49.8003 H   0  0  0  0  0  0  0  0  0  0  0  0
   46.8975   30.1136   47.9885 H   0  0  0  0  0  0  0  0  0  0  0  0
   47.3093   31.2979   45.9779 H   0  0  0  0  0  0  0  0  0  0  0  0
   48.0829   32.6441   46.8128 H   0  0  0  0  0  0  0  0  0  0  0  0
   48.9792   33.3650   49.0403 H   0  0  0  0  0  0  0  0  0  0  0  0
   51.0868   32.8624   50.2279 H   0  0  0  0  0  0  0  0  0  0  0  0
   53.1679   31.7101   51.8440 H   0  0  0  0  0  0  0  0  0  0  0  0
   51.4536   31.7013   52.3509 H   0  0  0  0  0  0  0  0  0  0  0  0
   53.3380   30.5162   53.8183 H   0  0  0  0  0  0  0  0  0  0  0  0
   51.6795   29.7799   53.6034 H   0  0  0  0  0  0  0  0  0  0  0  0
   54.5331   29.9572   51.5124 H   0  0  0  0  0  0  0  0  0  0  0  0
   54.5019   28.2148   51.1922 H   0  0  0  0  0  0  0  0  0  0  0  0
   52.2157   28.3969   50.2068 H   0  0  0  0  0  0  0  0  0  0  0  0
   53.2577   29.5935   49.4045 H   0  0  0  0  0  0  0  0  0  0  0  0
  1  6  2  0
  2  1  1  0
  3  2  2  0
  3  4  1  0
  4  5  2  0
  5  6  1  0
  5  7  1  0
  7 11  1  0
  7  8  1  0
  8  9  1  0
 10 12  1  0
 10  9  1  0
 11 10  1  0
 12 13  2  0
 12 16  1  0
 13 14  1  0
 14 15  2  0
 15 17  1  0
 16 15  1  0
 17 18  1  0
 18 19  1  0
 20 19  1  0
 21 20  1  0
 22 17  1  0
 22 21  1  0
  1 23  1  0
  2 24  1  0
  3 25  1  0
  8 26  1  0
  8 27  1  0
  9 28  1  0
  9 29  1  0
 10 30  1  6
 11 31  1  0
 11 32  1  0
 13 33  1  0
 14 34  1  0
 18 35  1  0
 18 36  1  0
 19 37  1  0
 19 38  1  0
 21 39  1  0
 21 40  1  0
 22 41  1  0
 22 42  1  0
M  ISO  8  23  14  24  14  25  14  26  13  27  13  28  13  29  13  30  13
M  ISO  8  31  13  32  13  33  14  34  14  35  13  36  13  37  13  38  13
M  ISO  4  39  13  40  13  41  13  42  13
M  END
>  <minimizedAffinity>  (1) 
-5.55674744

>  <minimizedRMSD>  (1) 
1.57285845

$$$$
