
     RDKit          3D

 43 46  0  0  1  0  0  0  0  0999 V2000
   44.6220   35.7310   44.9240 C   0  0  0  0  0  0  0  0  0  0  0  0
   44.9940   35.4770   43.5810 C   0  0  0  0  0  0  0  0  0  0  0  0
   45.6500   34.2570   43.3210 C   0  0  0  0  0  0  0  0  0  0  0  0
   45.8920   33.3950   44.3520 N   0  0  0  0  0  0  0  0  0  0  0  0
   45.5140   33.6940   45.6100 C   0  0  0  0  0  0  0  0  0  0  0  0
   44.8790   34.8580   45.9050 N   0  0  0  0  0  0  0  0  0  0  0  0
   45.8070   32.7440   46.6030 N   0  0  0  0  0  0  0  0  0  0  0  0
   45.0150   32.4740   47.7820 C   0  0  0  0  0  0  0  0  0  0  0  0
   46.0760   32.0990   48.7750 C   0  0  0  0  0  0  0  0  0  0  0  0
   46.9210   31.1640   47.9550 C   0  0  1  0  0  0  0  0  0  0  0  0
   46.9640   31.8750   46.6010 C   0  0  0  0  0  0  0  0  0  0  0  0
   48.2460   31.1020   48.5630 C   0  0  0  0  0  0  0  0  0  0  0  0
   49.0630   32.0730   49.2110 C   0  0  0  0  0  0  0  0  0  0  0  0
   50.2780   31.6770   49.6650 C   0  0  0  0  0  0  0  0  0  0  0  0
   50.7010   30.3680   49.4990 C   0  0  0  0  0  0  0  0  0  0  0  0
   49.2410   29.6170   48.6140 S   0  0  0  0  0  0  0  0  0  0  0  0
   51.7860   29.6380   49.8010 N   0  0  0  0  0  0  0  0  0  0  0  0
   51.8010   28.1910   49.8140 C   0  0  0  0  0  0  0  0  0  0  0  0
   53.1430   27.6150   50.1400 C   0  0  0  0  0  0  0  0  0  0  0  0
   53.9070   28.3240   51.1090 N   0  0  0  0  0  0  0  0  0  0  0  0
   53.5450   29.6850   51.3590 C   0  0  0  0  0  0  0  0  0  0  0  0
   52.9990   30.3590   50.1280 C   0  0  0  0  0  0  0  0  0  0  0  0
   44.1074   36.6723   45.1673 H   0  0  0  0  0  0  0  0  0  0  0  0
   44.7808   36.1984   42.7784 H   0  0  0  0  0  0  0  0  0  0  0  0
   45.9638   34.0018   42.2981 H   0  0  0  0  0  0  0  0  0  0  0  0
   44.4589   33.3662   48.1056 H   0  0  0  0  0  0  0  0  0  0  0  0
   44.2433   31.7036   47.6374 H   0  0  0  0  0  0  0  0  0  0  0  0
   46.6497   32.9780   49.1041 H   0  0  0  0  0  0  0  0  0  0  0  0
   45.6895   31.6606   49.7069 H   0  0  0  0  0  0  0  0  0  0  0  0
   46.5508   30.1310   47.8788 H   0  0  0  0  0  0  0  0  0  0  0  0
   46.9004   31.1470   45.7788 H   0  0  0  0  0  0  0  0  0  0  0  0
   47.9012   32.4317   46.4539 H   0  0  0  0  0  0  0  0  0  0  0  0
   48.7194   33.1101   49.3389 H   0  0  0  0  0  0  0  0  0  0  0  0
   50.9338   32.4017   50.1697 H   0  0  0  0  0  0  0  0  0  0  0  0
   51.0790   27.8413   50.5666 H   0  0  0  0  0  0  0  0  0  0  0  0
   51.5397   27.8538   48.8001 H   0  0  0  0  0  0  0  0  0  0  0  0
   52.9884   26.5927   50.5155 H   0  0  0  0  0  0  0  0  0  0  0  0
   53.7235   27.6686   49.2072 H   0  0  0  0  0  0  0  0  0  0  0  0
   53.8275   27.8136   52.0001 H   0  0  0  0  0  0  0  0  0  0  0  0
   52.7779   29.7094   52.1470 H   0  0  0  0  0  0  0  0  0  0  0  0
   54.4512   30.2261   51.6688 H   0  0  0  0  0  0  0  0  0  0  0  0
   53.7210   30.2929   49.3007 H   0  0  0  0  0  0  0  0  0  0  0  0
   52.8060   31.4284   50.2986 H   0  0  0  0  0  0  0  0  0  0  0  0
  1  6  2  0
  2  1  1  0
  3  2  2  0
  3  4  1  0
  4  5  2  0
  5  6  1  0
  5  7  1  0
  7  8  1  0
  8  9  1  0
 10 12  1  0
 10  9  1  0
 11  7  1  0
 11 10  1  0
 12 16  1  0
 12 13  2  0
 13 14  1  0
 15 14  2  0
 15 17  1  0
 16 15  1  0
 17 18  1  0
 17 22  1  0
 18 19  1  0
 19 20  1  0
 20 21  1  0
 22 21  1  0
  1 23  1  0
  2 24  1  0
  3 25  1  0
  8 26  1  0
  8 27  1  0
  9 28  1  0
  9 29  1  0
 10 30  1  6
 11 31  1  0
 11 32  1  0
 13 33  1  0
 14 34  1  0
 18 35  1  0
 18 36  1  0
 19 37  1  0
 19 38  1  0
 20 39  1  0
 21 40  1  0
 21 41  1  0
 22 42  1  0
 22 43  1  0
M  ISO  8  23  14  24  14  25  14  26  13  27  13  28  13  29  13  30  13
M  ISO  8  31  13  32  13  33  14  34  14  35  13  36  13  37  13  38  13
M  ISO  5  39   5  40  13  41  13  42  13  43  13
M  END
>  <minimizedAffinity>  (1) 
-5.35149384

>  <minimizedRMSD>  (1) 
0.488428712

$$$$
