
     RDKit          3D

 42 45  0  0  1  0  0  0  0  0999 V2000
   44.6290   35.7330   44.9590 C   0  0  0  0  0  0  0  0  0  0  0  0
   45.1500   35.5720   43.6550 C   0  0  0  0  0  0  0  0  0  0  0  0
   45.9300   34.4220   43.4130 C   0  0  0  0  0  0  0  0  0  0  0  0
   46.1400   33.5400   44.4330 N   0  0  0  0  0  0  0  0  0  0  0  0
   45.6220   33.7400   45.6550 C   0  0  0  0  0  0  0  0  0  0  0  0
   44.8650   34.8360   45.9250 N   0  0  0  0  0  0  0  0  0  0  0  0
   45.8860   32.7850   46.6480 N   0  0  0  0  0  0  0  0  0  0  0  0
   45.0330   32.3960   47.7360 C   0  0  0  0  0  0  0  0  0  0  0  0
   46.0280   32.0630   48.8060 C   0  0  0  0  0  0  0  0  0  0  0  0
   47.0260   31.2450   48.0390 C   0  0  1  0  0  0  0  0  0  0  0  0
   47.1270   32.0120   46.7180 C   0  0  0  0  0  0  0  0  0  0  0  0
   48.2960   31.2710   48.7680 C   0  0  0  0  0  0  0  0  0  0  0  0
   49.1560   32.3280   49.1800 C   0  0  0  0  0  0  0  0  0  0  0  0
   50.2930   31.9970   49.8390 C   0  0  0  0  0  0  0  0  0  0  0  0
   50.5920   30.6680   50.0940 C   0  0  0  0  0  0  0  0  0  0  0  0
   49.1300   29.7930   49.3320 S   0  0  0  0  0  0  0  0  0  0  0  0
   51.6240   29.8940   50.7230 C   0  0  0  0  0  0  0  0  0  0  0  0
   51.5860   28.4180   50.4220 C   0  0  0  0  0  0  0  0  0  0  0  0
   51.5460   27.6990   51.7520 C   0  0  0  0  0  0  0  0  0  0  0  0
   50.8360   28.7470   52.6160 C   0  0  0  0  0  0  0  0  0  0  0  0
   51.6070   29.9920   52.2340 C   0  0  0  0  0  0  0  0  0  0  0  0
   44.0146   36.6168   45.1859 H   0  0  0  0  0  0  0  0  0  0  0  0
   44.9557   36.3110   42.8637 H   0  0  0  0  0  0  0  0  0  0  0  0
   46.3621   34.2390   42.4181 H   0  0  0  0  0  0  0  0  0  0  0  0
   44.3758   33.2225   48.0442 H   0  0  0  0  0  0  0  0  0  0  0  0
   44.3503   31.5689   47.4914 H   0  0  0  0  0  0  0  0  0  0  0  0
   46.4881   32.9705   49.2240 H   0  0  0  0  0  0  0  0  0  0  0  0
   45.5966   31.5459   49.6758 H   0  0  0  0  0  0  0  0  0  0  0  0
   46.7593   30.1877   47.8941 H   0  0  0  0  0  0  0  0  0  0  0  0
   47.2003   31.3164   45.8690 H   0  0  0  0  0  0  0  0  0  0  0  0
   48.0212   32.6509   46.6723 H   0  0  0  0  0  0  0  0  0  0  0  0
   48.9059   33.3785   48.9704 H   0  0  0  0  0  0  0  0  0  0  0  0
   50.9818   32.7869   50.1731 H   0  0  0  0  0  0  0  0  0  0  0  0
   52.5301   30.3443   50.2915 H   0  0  0  0  0  0  0  0  0  0  0  0
   50.6890   28.1750   49.8335 H   0  0  0  0  0  0  0  0  0  0  0  0
   52.4655   28.1130   49.8360 H   0  0  0  0  0  0  0  0  0  0  0  0
   50.9688   26.7646   51.6911 H   0  0  0  0  0  0  0  0  0  0  0  0
   52.5288   27.3824   52.1312 H   0  0  0  0  0  0  0  0  0  0  0  0
   49.7709   28.8335   52.3552 H   0  0  0  0  0  0  0  0  0  0  0  0
   50.8315   28.5245   53.6933 H   0  0  0  0  0  0  0  0  0  0  0  0
   52.6260   29.9749   52.6480 H   0  0  0  0  0  0  0  0  0  0  0  0
   51.1649   30.9244   52.6151 H   0  0  0  0  0  0  0  0  0  0  0  0
  1  6  2  0
  2  1  1  0
  3  2  2  0
  3  4  1  0
  4  5  2  0
  5  6  1  0
  5  7  1  0
  7 11  1  0
  7  8  1  0
  8  9  1  0
 10 12  1  0
 10  9  1  0
 11 10  1  0
 12 13  2  0
 12 16  1  0
 13 14  1  0
 14 15  2  0
 15 17  1  0
 16 15  1  0
 17 21  1  0
 18 17  1  0
 18 19  1  0
 19 20  1  0
 21 20  1  0
  1 22  1  0
  2 23  1  0
  3 24  1  0
  8 25  1  0
  8 26  1  0
  9 27  1  0
  9 28  1  0
 10 29  1  6
 11 30  1  0
 11 31  1  0
 13 32  1  0
 14 33  1  0
 17 34  1  0
 18 35  1  0
 18 36  1  0
 19 37  1  0
 19 38  1  0
 20 39  1  0
 20 40  1  0
 21 41  1  0
 21 42  1  0
M  ISO  8  22  14  23  14  24  14  25  13  26  13  27  13  28  13  29  13
M  ISO  8  30  13  31  13  32  14  33  14  34  13  35  13  36  13  37  13
M  ISO  5  38  13  39  13  40  13  41  13  42  13
M  END
>  <minimizedAffinity>  (1) 
-5.6550107

>  <minimizedRMSD>  (1) 
1.04329455

$$$$
