
     RDKit          3D

 44 47  0  0  1  0  0  0  0  0999 V2000
   44.5750   35.6170   45.1050 C   0  0  0  0  0  0  0  0  0  0  0  0
   45.0920   35.4710   43.7950 C   0  0  0  0  0  0  0  0  0  0  0  0
   45.8960   34.3590   43.5570 C   0  0  0  0  0  0  0  0  0  0  0  0
   46.1480   33.4800   44.5670 N   0  0  0  0  0  0  0  0  0  0  0  0
   45.6380   33.6580   45.7880 C   0  0  0  0  0  0  0  0  0  0  0  0
   44.8490   34.7270   46.0660 N   0  0  0  0  0  0  0  0  0  0  0  0
   45.9450   32.7080   46.7750 N   0  0  0  0  0  0  0  0  0  0  0  0
   45.1040   32.2940   47.8730 C   0  0  0  0  0  0  0  0  0  0  0  0
   46.1130   31.9790   48.9320 C   0  0  0  0  0  0  0  0  0  0  0  0
   47.1350   31.2040   48.1540 C   0  0  1  0  0  0  0  0  0  0  0  0
   47.2050   31.9760   46.8370 C   0  0  0  0  0  0  0  0  0  0  0  0
   48.4150   31.2430   48.8520 C   0  0  0  0  0  0  0  0  0  0  0  0
   49.2490   32.3250   49.2490 C   0  0  0  0  0  0  0  0  0  0  0  0
   50.4130   32.0660   49.8930 C   0  0  0  0  0  0  0  0  0  0  0  0
   50.7470   30.7460   50.1420 C   0  0  0  0  0  0  0  0  0  0  0  0
   49.3030   29.7850   49.4080 S   0  0  0  0  0  0  0  0  0  0  0  0
   51.8050   30.1490   50.7880 N   0  0  0  0  0  0  0  0  0  0  0  0
   53.1160   30.8140   50.9010 C   0  0  0  0  0  0  0  0  0  0  0  0
   53.2120   31.1920   52.3800 C   0  0  0  0  0  0  0  0  0  0  0  0
   53.3810   29.9080   53.1580 C   0  0  0  0  0  0  0  0  0  0  0  0
   53.0620   28.7040   52.3260 C   0  0  0  0  0  0  0  0  0  0  0  0
   51.8670   28.8520   51.4260 C   0  0  0  0  0  0  0  0  0  0  0  0
   43.9344   36.4804   45.3377 H   0  0  0  0  0  0  0  0  0  0  0  0
   44.8692   36.2011   43.0030 H   0  0  0  0  0  0  0  0  0  0  0  0
   46.3255   34.1912   42.5583 H   0  0  0  0  0  0  0  0  0  0  0  0
   44.4313   33.1047   48.1896 H   0  0  0  0  0  0  0  0  0  0  0  0
   44.4371   31.4536   47.6301 H   0  0  0  0  0  0  0  0  0  0  0  0
   46.5449   32.8956   49.3603 H   0  0  0  0  0  0  0  0  0  0  0  0
   45.7010   31.4355   49.7951 H   0  0  0  0  0  0  0  0  0  0  0  0
   46.8894   30.1406   48.0167 H   0  0  0  0  0  0  0  0  0  0  0  0
   47.2956   31.2852   45.9858 H   0  0  0  0  0  0  0  0  0  0  0  0
   48.0787   32.6426   46.7890 H   0  0  0  0  0  0  0  0  0  0  0  0
   48.9518   33.3623   49.0352 H   0  0  0  0  0  0  0  0  0  0  0  0
   51.0760   32.8845   50.2100 H   0  0  0  0  0  0  0  0  0  0  0  0
   53.9282   30.1278   50.6191 H   0  0  0  0  0  0  0  0  0  0  0  0
   53.2086   31.6841   50.2344 H   0  0  0  0  0  0  0  0  0  0  0  0
   54.0778   31.8500   52.5456 H   0  0  0  0  0  0  0  0  0  0  0  0
   52.3096   31.7303   52.7053 H   0  0  0  0  0  0  0  0  0  0  0  0
   54.4230   29.8358   53.5029 H   0  0  0  0  0  0  0  0  0  0  0  0
   52.6824   29.9299   54.0074 H   0  0  0  0  0  0  0  0  0  0  0  0
   53.9371   28.4820   51.6975 H   0  0  0  0  0  0  0  0  0  0  0  0
   52.8163   27.8981   53.0332 H   0  0  0  0  0  0  0  0  0  0  0  0
   50.9555   28.7109   52.0254 H   0  0  0  0  0  0  0  0  0  0  0  0
   51.9535   28.0954   50.6322 H   0  0  0  0  0  0  0  0  0  0  0  0
  1  6  2  0
  2  1  1  0
  3  2  2  0
  3  4  1  0
  4  5  2  0
  5  6  1  0
  5  7  1  0
  7 11  1  0
  7  8  1  0
  8  9  1  0
 10 12  1  0
 10  9  1  0
 11 10  1  0
 12 13  2  0
 12 16  1  0
 13 14  1  0
 14 15  2  0
 15 17  1  0
 16 15  1  0
 17 18  1  0
 17 22  1  0
 18 19  1  0
 19 20  1  0
 21 20  1  0
 22 21  1  0
  1 23  1  0
  2 24  1  0
  3 25  1  0
  8 26  1  0
  8 27  1  0
  9 28  1  0
  9 29  1  0
 10 30  1  6
 11 31  1  0
 11 32  1  0
 13 33  1  0
 14 34  1  0
 18 35  1  0
 18 36  1  0
 19 37  1  0
 19 38  1  0
 20 39  1  0
 20 40  1  0
 21 41  1  0
 21 42  1  0
 22 43  1  0
 22 44  1  0
M  ISO  8  23  14  24  14  25  14  26  13  27  13  28  13  29  13  30  13
M  ISO  8  31  13  32  13  33  14  34  14  35  13  36  13  37  13  38  13
M  ISO  6  39  13  40  13  41  13  42  13  43  13  44  13
M  END
>  <minimizedAffinity>  (1) 
-5.6465745

>  <minimizedRMSD>  (1) 
1.67768323

$$$$
