
     RDKit          3D

 37 40  0  0  1  0  0  0  0  0999 V2000
   44.6250   35.7260   44.9270 C   0  0  0  0  0  0  0  0  0  0  0  0
   45.0120   35.4820   43.5860 C   0  0  0  0  0  0  0  0  0  0  0  0
   45.6770   34.2660   43.3310 C   0  0  0  0  0  0  0  0  0  0  0  0
   45.9100   33.4090   44.3590 N   0  0  0  0  0  0  0  0  0  0  0  0
   45.5230   33.6890   45.6110 C   0  0  0  0  0  0  0  0  0  0  0  0
   44.8780   34.8470   45.9090 N   0  0  0  0  0  0  0  0  0  0  0  0
   45.8020   32.7490   46.6170 N   0  0  0  0  0  0  0  0  0  0  0  0
   45.0280   32.4780   47.7970 C   0  0  0  0  0  0  0  0  0  0  0  0
   46.0890   32.0930   48.7800 C   0  0  0  0  0  0  0  0  0  0  0  0
   46.9350   31.1630   47.9570 C   0  0  1  0  0  0  0  0  0  0  0  0
   46.9750   31.8740   46.6050 C   0  0  0  0  0  0  0  0  0  0  0  0
   48.2700   31.0980   48.5630 C   0  0  0  0  0  0  0  0  0  0  0  0
   49.0810   32.0640   49.2220 C   0  0  0  0  0  0  0  0  0  0  0  0
   50.3000   31.6680   49.6620 C   0  0  0  0  0  0  0  0  0  0  0  0
   50.7210   30.3650   49.4680 C   0  0  0  0  0  0  0  0  0  0  0  0
   49.2630   29.6170   48.5780 S   0  0  0  0  0  0  0  0  0  0  0  0
   51.8650   29.5770   49.7580 C   0  0  0  0  0  0  0  0  0  0  0  0
   52.2690   28.5870   48.8940 C   0  0  0  0  0  0  0  0  0  0  0  0
   53.4070   27.8810   49.2870 C   0  0  0  0  0  0  0  0  0  0  0  0
   54.0470   28.1660   50.4370 N   0  0  0  0  0  0  0  0  0  0  0  0
   53.6240   29.1450   51.2650 C   0  0  0  0  0  0  0  0  0  0  0  0
   52.5110   29.8510   50.9010 N   0  0  0  0  0  0  0  0  0  0  0  0
   44.1022   36.6628   45.1701 H   0  0  0  0  0  0  0  0  0  0  0  0
   44.8038   36.2056   42.7841 H   0  0  0  0  0  0  0  0  0  0  0  0
   46.0036   34.0137   42.3114 H   0  0  0  0  0  0  0  0  0  0  0  0
   44.4795   33.3715   48.1297 H   0  0  0  0  0  0  0  0  0  0  0  0
   44.2541   31.7094   47.6543 H   0  0  0  0  0  0  0  0  0  0  0  0
   46.6638   32.9691   49.1149 H   0  0  0  0  0  0  0  0  0  0  0  0
   45.7011   31.6453   49.7069 H   0  0  0  0  0  0  0  0  0  0  0  0
   46.5646   30.1300   47.8816 H   0  0  0  0  0  0  0  0  0  0  0  0
   46.9100   31.1476   45.7815 H   0  0  0  0  0  0  0  0  0  0  0  0
   47.9112   32.4311   46.4526 H   0  0  0  0  0  0  0  0  0  0  0  0
   48.7306   33.0963   49.3691 H   0  0  0  0  0  0  0  0  0  0  0  0
   50.9570   32.3855   50.1753 H   0  0  0  0  0  0  0  0  0  0  0  0
   51.7332   28.3668   47.9589 H   0  0  0  0  0  0  0  0  0  0  0  0
   53.7892   27.0747   48.6437 H   0  0  0  0  0  0  0  0  0  0  0  0
   54.1570   29.3673   52.2012 H   0  0  0  0  0  0  0  0  0  0  0  0
  1  6  2  0
  2  1  1  0
  3  2  2  0
  3  4  1  0
  4  5  2  0
  5  6  1  0
  5  7  1  0
  7  8  1  0
  8  9  1  0
 10 12  1  0
 10  9  1  0
 11  7  1  0
 11 10  1  0
 12 16  1  0
 12 13  2  0
 13 14  1  0
 15 14  2  0
 15 17  1  0
 16 15  1  0
 17 22  2  0
 18 19  2  0
 18 17  1  0
 19 20  1  0
 20 21  2  0
 22 21  1  0
  1 23  1  0
  2 24  1  0
  3 25  1  0
  8 26  1  0
  8 27  1  0
  9 28  1  0
  9 29  1  0
 10 30  1  6
 11 31  1  0
 11 32  1  0
 13 33  1  0
 14 34  1  0
 18 35  1  0
 19 36  1  0
 21 37  1  0
M  ISO  8  23  14  24  14  25  14  26  13  27  13  28  13  29  13  30  13
M  ISO  7  31  13  32  13  33  14  34  14  35  14  36  14  37  14
M  END
>  <minimizedAffinity>  (1) 
-5.34841776

>  <minimizedRMSD>  (1) 
0.457229495

$$$$
