
     RDKit          3D

 21 23  0  0  0  0  0  0  0  0999 V2000
   44.5650   36.0100   44.5190 C   0  0  0  0  0  0  0  0  0  0  0  0
   45.3130   35.8460   43.3400 C   0  0  0  0  0  0  0  0  0  0  0  0
   46.1730   34.7470   43.2550 C   0  0  0  0  0  0  0  0  0  0  0  0
   46.2420   33.8920   44.3170 N   0  0  0  0  0  0  0  0  0  0  0  0
   45.5030   34.0870   45.4340 C   0  0  0  0  0  0  0  0  0  0  0  0
   44.6660   35.1360   45.5480 N   0  0  0  0  0  0  0  0  0  0  0  0
   45.6720   33.1100   46.4830 N   0  0  0  0  0  0  0  0  0  0  0  0
   45.1750   33.0980   47.7390 C   0  0  0  0  0  0  0  0  0  0  0  0
   45.6040   31.9760   48.3540 N   0  0  0  0  0  0  0  0  0  0  0  0
   46.3730   31.2620   47.5040 C   0  0  0  0  0  0  0  0  0  0  0  0
   47.0470   30.0460   47.6450 C   0  0  0  0  0  0  0  0  0  0  0  0
   47.7320   29.6240   46.5670 N   0  0  0  0  0  0  0  0  0  0  0  0
   47.7550   30.3410   45.4320 C   0  0  0  0  0  0  0  0  0  0  0  0
   47.1090   31.5290   45.2640 N   0  0  0  0  0  0  0  0  0  0  0  0
   46.4070   31.9870   46.3300 C   0  0  0  0  0  0  0  0  0  0  0  0
   43.8822   36.8679   44.6074 H   0  0  0  0  0  0  0  0  0  0  0  0
   45.2242   36.5612   42.5090 H   0  0  0  0  0  0  0  0  0  0  0  0
   46.7797   34.5753   42.3537 H   0  0  0  0  0  0  0  0  0  0  0  0
   44.5309   33.8705   48.1843 H   0  0  0  0  0  0  0  0  0  0  0  0
   47.0191   29.4688   48.5810 H   0  0  0  0  0  0  0  0  0  0  0  0
   48.3321   29.9441   44.5838 H   0  0  0  0  0  0  0  0  0  0  0  0
  1  6  2  0
  2  1  1  0
  3  2  2  0
  3  4  1  0
  4  5  2  0
  5  6  1  0
  5  7  1  0
  7  8  1  0
  8  9  2  0
 10 11  2  0
 10  9  1  0
 12 11  1  0
 13 12  2  0
 14 13  1  0
 14 15  2  0
 15  7  1  0
 15 10  1  0
  1 16  1  0
  2 17  1  0
  3 18  1  0
  8 19  1  0
 11 20  1  0
 13 21  1  0
M  ISO  6  16  14  17  14  18  14  19  14  20  14  21  14
M  END
>  <minimizedAffinity>  (1) 
-4.78811502

>  <minimizedRMSD>  (1) 
0.366091102

$$$$
