
     RDKit          3D

 36 39  0  0  1  0  0  0  0  0999 V2000
   44.6190   35.7520   44.9100 C   0  0  0  0  0  0  0  0  0  0  0  0
   44.9770   35.4880   43.5660 C   0  0  0  0  0  0  0  0  0  0  0  0
   45.6190   34.2630   43.3000 C   0  0  0  0  0  0  0  0  0  0  0  0
   45.8560   33.4130   44.3380 N   0  0  0  0  0  0  0  0  0  0  0  0
   45.5000   33.7050   45.5950 C   0  0  0  0  0  0  0  0  0  0  0  0
   44.8790   34.8760   45.8890 N   0  0  0  0  0  0  0  0  0  0  0  0
   45.7880   32.7680   46.5930 N   0  0  0  0  0  0  0  0  0  0  0  0
   45.0250   32.5150   47.7810 C   0  0  0  0  0  0  0  0  0  0  0  0
   46.0910   32.1210   48.7640 C   0  0  0  0  0  0  0  0  0  0  0  0
   46.9110   31.1720   47.9350 C   0  0  1  0  0  0  0  0  0  0  0  0
   46.9400   31.8790   46.5780 C   0  0  0  0  0  0  0  0  0  0  0  0
   48.2560   31.0910   48.5160 C   0  0  0  0  0  0  0  0  0  0  0  0
   49.0600   32.0350   49.2230 C   0  0  0  0  0  0  0  0  0  0  0  0
   50.2990   31.6490   49.6220 C   0  0  0  0  0  0  0  0  0  0  0  0
   50.7350   30.3630   49.3300 C   0  0  0  0  0  0  0  0  0  0  0  0
   49.2720   29.6210   48.4130 S   0  0  0  0  0  0  0  0  0  0  0  0
   51.9500   29.7010   49.6150 N   0  0  0  0  0  0  0  0  0  0  0  0
   52.6360   28.7720   48.9680 C   0  0  0  0  0  0  0  0  0  0  0  0
   53.7460   28.5330   49.7620 C   0  0  0  0  0  0  0  0  0  0  0  0
   53.7130   29.3120   50.8630 N   0  0  0  0  0  0  0  0  0  0  0  0
   52.5850   30.0350   50.7570 C   0  0  0  0  0  0  0  0  0  0  0  0
   44.1156   36.6986   45.1559 H   0  0  0  0  0  0  0  0  0  0  0  0
   44.7628   36.2091   42.7634 H   0  0  0  0  0  0  0  0  0  0  0  0
   45.9225   33.9983   42.2764 H   0  0  0  0  0  0  0  0  0  0  0  0
   44.4910   33.4179   48.1121 H   0  0  0  0  0  0  0  0  0  0  0  0
   44.2420   31.7537   47.6495 H   0  0  0  0  0  0  0  0  0  0  0  0
   46.6831   32.9898   49.0873 H   0  0  0  0  0  0  0  0  0  0  0  0
   45.7068   31.6890   49.6998 H   0  0  0  0  0  0  0  0  0  0  0  0
   46.5246   30.1439   47.8749 H   0  0  0  0  0  0  0  0  0  0  0  0
   46.8546   31.1490   45.7596 H   0  0  0  0  0  0  0  0  0  0  0  0
   47.8813   32.4245   46.4158 H   0  0  0  0  0  0  0  0  0  0  0  0
   48.6862   33.0469   49.4385 H   0  0  0  0  0  0  0  0  0  0  0  0
   50.9497   32.3464   50.1699 H   0  0  0  0  0  0  0  0  0  0  0  0
   52.3809   28.2946   48.0104 H   0  0  0  0  0  0  0  0  0  0  0  0
   54.5416   27.8104   49.5278 H   0  0  0  0  0  0  0  0  0  0  0  0
   52.2352   30.7808   51.4860 H   0  0  0  0  0  0  0  0  0  0  0  0
  1  6  2  0
  2  1  1  0
  3  2  2  0
  3  4  1  0
  4  5  2  0
  5  6  1  0
  5  7  1  0
  7  8  1  0
  8  9  1  0
 10 12  1  0
 10  9  1  0
 11  7  1  0
 11 10  1  0
 12 13  2  0
 13 14  1  0
 15 17  1  0
 15 14  2  0
 16 12  1  0
 16 15  1  0
 17 21  1  0
 18 17  1  0
 18 19  2  0
 19 20  1  0
 21 20  2  0
  1 22  1  0
  2 23  1  0
  3 24  1  0
  8 25  1  0
  8 26  1  0
  9 27  1  0
  9 28  1  0
 10 29  1  6
 11 30  1  0
 11 31  1  0
 13 32  1  0
 14 33  1  0
 18 34  1  0
 19 35  1  0
 21 36  1  0
M  ISO  8  22  14  23  14  24  14  25  13  26  13  27  13  28  13  29  13
M  ISO  7  30  13  31  13  32  14  33  14  34  14  35  14  36  14
M  END
>  <minimizedAffinity>  (1) 
-5.26622725

>  <minimizedRMSD>  (1) 
0.353369266

$$$$
