
     RDKit          3D

 36 39  0  0  1  0  0  0  0  0999 V2000
   44.6340   35.7210   44.9300 C   0  0  0  0  0  0  0  0  0  0  0  0
   45.0240   35.4810   43.5980 C   0  0  0  0  0  0  0  0  0  0  0  0
   45.6920   34.2690   43.3350 C   0  0  0  0  0  0  0  0  0  0  0  0
   45.9280   33.3980   44.3660 N   0  0  0  0  0  0  0  0  0  0  0  0
   45.5250   33.6910   45.6230 C   0  0  0  0  0  0  0  0  0  0  0  0
   44.8820   34.8430   45.9100 N   0  0  0  0  0  0  0  0  0  0  0  0
   45.8110   32.7360   46.6140 N   0  0  0  0  0  0  0  0  0  0  0  0
   45.0160   32.4590   47.7820 C   0  0  0  0  0  0  0  0  0  0  0  0
   46.0640   32.0740   48.7860 C   0  0  0  0  0  0  0  0  0  0  0  0
   46.9190   31.1430   47.9730 C   0  0  1  0  0  0  0  0  0  0  0  0
   46.9650   31.8640   46.6220 C   0  0  0  0  0  0  0  0  0  0  0  0
   48.2490   31.0800   48.5850 C   0  0  0  0  0  0  0  0  0  0  0  0
   49.0680   32.0580   49.2160 C   0  0  0  0  0  0  0  0  0  0  0  0
   50.2880   31.6930   49.6700 C   0  0  0  0  0  0  0  0  0  0  0  0
   50.7070   30.3830   49.5120 C   0  0  0  0  0  0  0  0  0  0  0  0
   49.2470   29.6080   48.6470 S   0  0  0  0  0  0  0  0  0  0  0  0
   51.8740   29.5780   49.8260 C   0  0  0  0  0  0  0  0  0  0  0  0
   52.6150   29.8890   50.9420 C   0  0  0  0  0  0  0  0  0  0  0  0
   53.6240   28.9730   50.9680 N   0  0  0  0  0  0  0  0  0  0  0  0
   53.4370   28.1840   49.8960 C   0  0  0  0  0  0  0  0  0  0  0  0
   52.3530   28.5370   49.1630 N   0  0  0  0  0  0  0  0  0  0  0  0
   44.1102   36.6574   45.1723 H   0  0  0  0  0  0  0  0  0  0  0  0
   44.8162   36.2076   42.7987 H   0  0  0  0  0  0  0  0  0  0  0  0
   46.0203   34.0247   42.3139 H   0  0  0  0  0  0  0  0  0  0  0  0
   44.4587   33.3499   48.1071 H   0  0  0  0  0  0  0  0  0  0  0  0
   44.2475   31.6880   47.6239 H   0  0  0  0  0  0  0  0  0  0  0  0
   46.6348   32.9496   49.1288 H   0  0  0  0  0  0  0  0  0  0  0  0
   45.6634   31.6291   49.7088 H   0  0  0  0  0  0  0  0  0  0  0  0
   46.5545   30.1079   47.8971 H   0  0  0  0  0  0  0  0  0  0  0  0
   46.9058   31.1393   45.7965 H   0  0  0  0  0  0  0  0  0  0  0  0
   47.9024   32.4238   46.4882 H   0  0  0  0  0  0  0  0  0  0  0  0
   48.7144   33.0931   49.3323 H   0  0  0  0  0  0  0  0  0  0  0  0
   50.9414   32.4297   50.1602 H   0  0  0  0  0  0  0  0  0  0  0  0
   52.4326   30.7024   51.6597 H   0  0  0  0  0  0  0  0  0  0  0  0
   54.0948   27.3402   49.6404 H   0  0  0  0  0  0  0  0  0  0  0  0
   51.9910   28.1024   48.3022 H   0  0  0  0  0  0  0  0  0  0  0  0
  1  6  2  0
  2  1  1  0
  3  2  2  0
  3  4  1  0
  4  5  2  0
  5  6  1  0
  5  7  1  0
  7 11  1  0
  7  8  1  0
  8  9  1  0
 10 12  1  0
 10  9  1  0
 11 10  1  0
 12 16  1  0
 12 13  2  0
 13 14  1  0
 15 14  2  0
 15 17  1  0
 16 15  1  0
 17 18  2  0
 18 19  1  0
 20 19  2  0
 21 17  1  0
 21 20  1  0
  1 22  1  0
  2 23  1  0
  3 24  1  0
  8 25  1  0
  8 26  1  0
  9 27  1  0
  9 28  1  0
 10 29  1  6
 11 30  1  0
 11 31  1  0
 13 32  1  0
 14 33  1  0
 18 34  1  0
 20 35  1  0
 21 36  1  0
M  ISO  8  22  14  23  14  24  14  25  13  26  13  27  13  28  13  29  13
M  ISO  7  30  13  31  13  32  14  33  14  34  14  35  14  36   9
M  END
>  <minimizedAffinity>  (1) 
-5.25368309

>  <minimizedRMSD>  (1) 
0.482281148

$$$$
