
     RDKit          3D

 41 44  0  0  1  0  0  0  0  0999 V2000
   44.6410   35.7240   44.9330 C   0  0  0  0  0  0  0  0  0  0  0  0
   45.0450   35.4870   43.5990 C   0  0  0  0  0  0  0  0  0  0  0  0
   45.7160   34.2750   43.3400 C   0  0  0  0  0  0  0  0  0  0  0  0
   45.9380   33.4110   44.3680 N   0  0  0  0  0  0  0  0  0  0  0  0
   45.5310   33.6890   45.6230 C   0  0  0  0  0  0  0  0  0  0  0  0
   44.8830   34.8410   45.9110 N   0  0  0  0  0  0  0  0  0  0  0  0
   45.8020   32.7390   46.6290 N   0  0  0  0  0  0  0  0  0  0  0  0
   45.0120   32.4460   47.7910 C   0  0  0  0  0  0  0  0  0  0  0  0
   46.0630   32.0680   48.7830 C   0  0  0  0  0  0  0  0  0  0  0  0
   46.9330   31.1530   47.9690 C   0  0  1  0  0  0  0  0  0  0  0  0
   46.9880   31.8770   46.6230 C   0  0  0  0  0  0  0  0  0  0  0  0
   48.2620   31.0900   48.5870 C   0  0  0  0  0  0  0  0  0  0  0  0
   49.0760   32.0770   49.2130 C   0  0  0  0  0  0  0  0  0  0  0  0
   50.2850   31.6950   49.6870 C   0  0  0  0  0  0  0  0  0  0  0  0
   50.7000   30.3790   49.5550 C   0  0  0  0  0  0  0  0  0  0  0  0
   49.2350   29.6020   48.6740 S   0  0  0  0  0  0  0  0  0  0  0  0
   51.8220   29.6190   49.8960 N   0  0  0  0  0  0  0  0  0  0  0  0
   52.3250   28.4490   49.2000 C   0  0  0  0  0  0  0  0  0  0  0  0
   53.5210   28.0790   50.0550 C   0  0  0  0  0  0  0  0  0  0  0  0
   53.9360   29.3660   50.7520 C   0  0  0  0  0  0  0  0  0  0  0  0
   52.5870   29.9990   51.0450 C   0  0  0  0  0  0  0  0  0  0  0  0
   44.1137   36.6587   45.1744 H   0  0  0  0  0  0  0  0  0  0  0  0
   44.8447   36.2155   42.7995 H   0  0  0  0  0  0  0  0  0  0  0  0
   46.0552   34.0310   42.3224 H   0  0  0  0  0  0  0  0  0  0  0  0
   44.4452   33.3281   48.1236 H   0  0  0  0  0  0  0  0  0  0  0  0
   44.2501   31.6693   47.6292 H   0  0  0  0  0  0  0  0  0  0  0  0
   46.6222   32.9492   49.1306 H   0  0  0  0  0  0  0  0  0  0  0  0
   45.6670   31.6090   49.7009 H   0  0  0  0  0  0  0  0  0  0  0  0
   46.5716   30.1174   47.8863 H   0  0  0  0  0  0  0  0  0  0  0  0
   46.9436   31.1583   45.7914 H   0  0  0  0  0  0  0  0  0  0  0  0
   47.9205   32.4446   46.4879 H   0  0  0  0  0  0  0  0  0  0  0  0
   48.7327   33.1177   49.3083 H   0  0  0  0  0  0  0  0  0  0  0  0
   50.9394   32.4303   50.1779 H   0  0  0  0  0  0  0  0  0  0  0  0
   51.5789   27.6409   49.1816 H   0  0  0  0  0  0  0  0  0  0  0  0
   52.5681   28.6268   48.1420 H   0  0  0  0  0  0  0  0  0  0  0  0
   53.2429   27.3137   50.7946 H   0  0  0  0  0  0  0  0  0  0  0  0
   54.3396   27.6592   49.4519 H   0  0  0  0  0  0  0  0  0  0  0  0
   54.4930   29.1601   51.6779 H   0  0  0  0  0  0  0  0  0  0  0  0
   54.6102   30.0007   50.1583 H   0  0  0  0  0  0  0  0  0  0  0  0
   52.6685   31.0929   51.1266 H   0  0  0  0  0  0  0  0  0  0  0  0
   52.1440   29.6758   51.9986 H   0  0  0  0  0  0  0  0  0  0  0  0
  1  6  2  0
  2  1  1  0
  3  2  2  0
  3  4  1  0
  4  5  2  0
  5  6  1  0
  5  7  1  0
  7  8  1  0
  8  9  1  0
 10 12  1  0
 10  9  1  0
 11  7  1  0
 11 10  1  0
 12 16  1  0
 12 13  2  0
 13 14  1  0
 15 14  2  0
 15 17  1  0
 16 15  1  0
 17 21  1  0
 18 17  1  0
 18 19  1  0
 19 20  1  0
 20 21  1  0
  1 22  1  0
  2 23  1  0
  3 24  1  0
  8 25  1  0
  8 26  1  0
  9 27  1  0
  9 28  1  0
 10 29  1  6
 11 30  1  0
 11 31  1  0
 13 32  1  0
 14 33  1  0
 18 34  1  0
 18 35  1  0
 19 36  1  0
 19 37  1  0
 20 38  1  0
 20 39  1  0
 21 40  1  0
 21 41  1  0
M  ISO  8  22  14  23  14  24  14  25  13  26  13  27  13  28  13  29  13
M  ISO  8  30  13  31  13  32  14  33  14  34  13  35  13  36  13  37  13
M  ISO  4  38  13  39  13  40  13  41  13
M  END
>  <minimizedAffinity>  (1) 
-5.24106646

>  <minimizedRMSD>  (1) 
0.520156026

$$$$
