
     RDKit          3D

 34 37  0  0  1  0  0  0  0  0999 V2000
   44.6230   35.7410   44.9150 C   0  0  0  0  0  0  0  0  0  0  0  0
   44.9700   35.4740   43.5680 C   0  0  0  0  0  0  0  0  0  0  0  0
   45.6060   34.2470   43.2980 C   0  0  0  0  0  0  0  0  0  0  0  0
   45.8530   33.3890   44.3340 N   0  0  0  0  0  0  0  0  0  0  0  0
   45.5030   33.6940   45.5960 C   0  0  0  0  0  0  0  0  0  0  0  0
   44.8870   34.8660   45.8950 N   0  0  0  0  0  0  0  0  0  0  0  0
   45.8000   32.7460   46.5930 N   0  0  0  0  0  0  0  0  0  0  0  0
   45.0370   32.4880   47.7810 C   0  0  0  0  0  0  0  0  0  0  0  0
   46.1130   32.1020   48.7590 C   0  0  0  0  0  0  0  0  0  0  0  0
   46.9330   31.1560   47.9300 C   0  0  1  0  0  0  0  0  0  0  0  0
   46.9500   31.8630   46.5730 C   0  0  0  0  0  0  0  0  0  0  0  0
   48.2800   31.0980   48.5140 C   0  0  0  0  0  0  0  0  0  0  0  0
   49.0730   32.0420   49.2300 C   0  0  0  0  0  0  0  0  0  0  0  0
   50.3130   31.6570   49.6140 C   0  0  0  0  0  0  0  0  0  0  0  0
   50.7770   30.3830   49.3120 C   0  0  0  0  0  0  0  0  0  0  0  0
   49.3140   29.6310   48.3830 S   0  0  0  0  0  0  0  0  0  0  0  0
   52.0400   29.7370   49.6040 C   0  0  0  0  0  0  0  0  0  0  0  0
   52.4320   28.4620   49.4340 N   0  0  0  0  0  0  0  0  0  0  0  0
   53.6780   28.3520   49.8510 O   0  0  0  0  0  0  0  0  0  0  0  0
   54.1280   29.4900   50.2860 C   0  0  0  0  0  0  0  0  0  0  0  0
   53.1150   30.3830   50.1420 N   0  0  0  0  0  0  0  0  0  0  0  0
   44.1246   36.6898   45.1627 H   0  0  0  0  0  0  0  0  0  0  0  0
   44.7518   36.1949   42.7664 H   0  0  0  0  0  0  0  0  0  0  0  0
   45.8992   33.9831   42.2712 H   0  0  0  0  0  0  0  0  0  0  0  0
   44.4971   33.3868   48.1135 H   0  0  0  0  0  0  0  0  0  0  0  0
   44.2565   31.7237   47.6523 H   0  0  0  0  0  0  0  0  0  0  0  0
   46.7022   32.9752   49.0759 H   0  0  0  0  0  0  0  0  0  0  0  0
   45.7365   31.6702   49.6980 H   0  0  0  0  0  0  0  0  0  0  0  0
   46.5585   30.1235   47.8684 H   0  0  0  0  0  0  0  0  0  0  0  0
   46.8616   31.1322   45.7556 H   0  0  0  0  0  0  0  0  0  0  0  0
   47.8884   32.4120   46.4059 H   0  0  0  0  0  0  0  0  0  0  0  0
   48.6911   33.0471   49.4621 H   0  0  0  0  0  0  0  0  0  0  0  0
   50.9562   32.3566   50.1679 H   0  0  0  0  0  0  0  0  0  0  0  0
   55.1309   29.6908   50.6908 H   0  0  0  0  0  0  0  0  0  0  0  0
  1  6  2  0
  2  1  1  0
  3  2  2  0
  3  4  1  0
  4  5  2  0
  5  6  1  0
  5  7  1  0
  7  8  1  0
  8  9  1  0
 10 12  1  0
 10  9  1  0
 11  7  1  0
 11 10  1  0
 12 13  2  0
 13 14  1  0
 15 17  1  0
 15 14  2  0
 16 12  1  0
 16 15  1  0
 17 21  1  0
 18 17  2  0
 18 19  1  0
 19 20  1  0
 21 20  2  0
  1 22  1  0
  2 23  1  0
  3 24  1  0
  8 25  1  0
  8 26  1  0
  9 27  1  0
  9 28  1  0
 10 29  1  6
 11 30  1  0
 11 31  1  0
 13 32  1  0
 14 33  1  0
 20 34  1  0
M  ISO  8  22  14  23  14  24  14  25  13  26  13  27  13  28  13  29  13
M  ISO  5  30  13  31  13  32  14  33  14  34  14
M  END
>  <minimizedAffinity>  (1) 
-5.21541071

>  <minimizedRMSD>  (1) 
0.250936389

$$$$
