
     RDKit          3D

 35 37  0  0  1  0  0  0  0  0999 V2000
   44.6270   35.7450   44.9050 C   0  0  0  0  0  0  0  0  0  0  0  0
   44.9180   35.4490   43.5510 C   0  0  0  0  0  0  0  0  0  0  0  0
   45.5100   34.2070   43.2770 C   0  0  0  0  0  0  0  0  0  0  0  0
   45.7750   33.3520   44.3160 N   0  0  0  0  0  0  0  0  0  0  0  0
   45.4760   33.6870   45.5900 C   0  0  0  0  0  0  0  0  0  0  0  0
   44.9030   34.8810   45.8880 N   0  0  0  0  0  0  0  0  0  0  0  0
   45.7830   32.7550   46.5900 N   0  0  0  0  0  0  0  0  0  0  0  0
   45.0610   32.5260   47.8100 C   0  0  0  0  0  0  0  0  0  0  0  0
   46.1600   32.1280   48.7490 C   0  0  0  0  0  0  0  0  0  0  0  0
   46.9350   31.1580   47.9020 C   0  0  1  0  0  0  0  0  0  0  0  0
   46.9280   31.8450   46.5350 C   0  0  0  0  0  0  0  0  0  0  0  0
   48.2940   31.0640   48.4360 C   0  0  0  0  0  0  0  0  0  0  0  0
   49.0800   31.9360   49.2430 C   0  0  0  0  0  0  0  0  0  0  0  0
   50.3480   31.5410   49.5560 C   0  0  0  0  0  0  0  0  0  0  0  0
   50.8250   30.3250   49.0880 C   0  0  0  0  0  0  0  0  0  0  0  0
   49.3730   29.6690   48.1200 S   0  0  0  0  0  0  0  0  0  0  0  0
   52.0500   29.6180   49.2110 C   0  0  0  0  0  0  0  0  0  0  0  0
   53.0230   30.1970   50.2020 C   0  0  0  0  0  0  0  0  0  0  0  0
   44.1621   36.7102   45.1546 H   0  0  0  0  0  0  0  0  0  0  0  0
   44.6892   36.1638   42.7469 H   0  0  0  0  0  0  0  0  0  0  0  0
   45.7581   33.9230   42.2436 H   0  0  0  0  0  0  0  0  0  0  0  0
   44.5536   33.4400   48.1523 H   0  0  0  0  0  0  0  0  0  0  0  0
   44.2606   31.7769   47.7192 H   0  0  0  0  0  0  0  0  0  0  0  0
   46.7761   32.9925   49.0371 H   0  0  0  0  0  0  0  0  0  0  0  0
   45.8074   31.7104   49.7036 H   0  0  0  0  0  0  0  0  0  0  0  0
   46.5297   30.1360   47.8673 H   0  0  0  0  0  0  0  0  0  0  0  0
   46.8002   31.1071   45.7293 H   0  0  0  0  0  0  0  0  0  0  0  0
   47.8713   32.3706   46.3254 H   0  0  0  0  0  0  0  0  0  0  0  0
   48.6783   32.8952   49.6016 H   0  0  0  0  0  0  0  0  0  0  0  0
   50.9894   32.1839   50.1767 H   0  0  0  0  0  0  0  0  0  0  0  0
   51.8197   28.5881   49.5212 H   0  0  0  0  0  0  0  0  0  0  0  0
   52.5399   29.6796   48.2280 H   0  0  0  0  0  0  0  0  0  0  0  0
   52.6731   29.9888   51.2239 H   0  0  0  0  0  0  0  0  0  0  0  0
   54.0129   29.7409   50.0533 H   0  0  0  0  0  0  0  0  0  0  0  0
   53.0943   31.2846   50.0533 H   0  0  0  0  0  0  0  0  0  0  0  0
  1  6  2  0
  2  1  1  0
  3  2  2  0
  3  4  1  0
  4  5  2  0
  5  6  1  0
  5  7  1  0
  7  8  1  0
  8  9  1  0
 10 12  1  0
 10  9  1  0
 11  7  1  0
 11 10  1  0
 12 13  2  0
 13 14  1  0
 15 17  1  0
 15 14  2  0
 16 12  1  0
 16 15  1  0
 17 18  1  0
  1 19  1  0
  2 20  1  0
  3 21  1  0
  8 22  1  0
  8 23  1  0
  9 24  1  0
  9 25  1  0
 10 26  1  6
 11 27  1  0
 11 28  1  0
 13 29  1  0
 14 30  1  0
 17 31  1  0
 17 32  1  0
 18 33  1  0
 18 34  1  0
 18 35  1  0
M  ISO  8  19  14  20  14  21  14  22  13  23  13  24  13  25  13  26  13
M  ISO  8  27  13  28  13  29  14  30  14  31   8  32   8  33   8  34   8
M  ISO  1  35   8
M  END
>  <minimizedAffinity>  (1) 
-4.93291712

>  <minimizedRMSD>  (1) 
0.0561970696

$$$$
