
     RDKit          3D

 32 34  0  0  1  0  0  0  0  0999 V2000
   44.6310   35.7380   44.9030 C   0  0  0  0  0  0  0  0  0  0  0  0
   44.9080   35.4440   43.5470 C   0  0  0  0  0  0  0  0  0  0  0  0
   45.4990   34.1930   43.2790 C   0  0  0  0  0  0  0  0  0  0  0  0
   45.7700   33.3400   44.3110 N   0  0  0  0  0  0  0  0  0  0  0  0
   45.4780   33.6870   45.5860 C   0  0  0  0  0  0  0  0  0  0  0  0
   44.9080   34.8830   45.8910 N   0  0  0  0  0  0  0  0  0  0  0  0
   45.7930   32.7480   46.5800 N   0  0  0  0  0  0  0  0  0  0  0  0
   45.0610   32.5240   47.8070 C   0  0  0  0  0  0  0  0  0  0  0  0
   46.1600   32.1230   48.7470 C   0  0  0  0  0  0  0  0  0  0  0  0
   46.9270   31.1460   47.9020 C   0  0  1  0  0  0  0  0  0  0  0  0
   46.9150   31.8380   46.5400 C   0  0  0  0  0  0  0  0  0  0  0  0
   48.2900   31.0610   48.4360 C   0  0  0  0  0  0  0  0  0  0  0  0
   49.0790   31.9330   49.2430 C   0  0  0  0  0  0  0  0  0  0  0  0
   50.3550   31.5410   49.5490 C   0  0  0  0  0  0  0  0  0  0  0  0
   50.8250   30.3240   49.0690 C   0  0  0  0  0  0  0  0  0  0  0  0
   49.3700   29.6580   48.1030 S   0  0  0  0  0  0  0  0  0  0  0  0
   52.0820   29.6760   49.2240 C   0  0  0  0  0  0  0  0  0  0  0  0
   44.1710   36.7055   45.1525 H   0  0  0  0  0  0  0  0  0  0  0  0
   44.6738   36.1563   42.7422 H   0  0  0  0  0  0  0  0  0  0  0  0
   45.7406   33.9052   42.2452 H   0  0  0  0  0  0  0  0  0  0  0  0
   44.5573   33.4410   48.1467 H   0  0  0  0  0  0  0  0  0  0  0  0
   44.2558   31.7799   47.7175 H   0  0  0  0  0  0  0  0  0  0  0  0
   46.7817   32.9849   49.0310 H   0  0  0  0  0  0  0  0  0  0  0  0
   45.8069   31.7113   49.7040 H   0  0  0  0  0  0  0  0  0  0  0  0
   46.5246   30.1228   47.8676 H   0  0  0  0  0  0  0  0  0  0  0  0
   46.7832   31.1001   45.7349 H   0  0  0  0  0  0  0  0  0  0  0  0
   47.8604   32.3638   46.3407 H   0  0  0  0  0  0  0  0  0  0  0  0
   48.6758   32.8892   49.6077 H   0  0  0  0  0  0  0  0  0  0  0  0
   51.0006   32.1818   50.1675 H   0  0  0  0  0  0  0  0  0  0  0  0
   52.3055   29.5608   50.2949 H   0  0  0  0  0  0  0  0  0  0  0  0
   52.0446   28.6848   48.7485 H   0  0  0  0  0  0  0  0  0  0  0  0
   52.8677   30.2814   48.7485 H   0  0  0  0  0  0  0  0  0  0  0  0
  1  6  2  0
  2  1  1  0
  3  2  2  0
  3  4  1  0
  4  5  2  0
  5  6  1  0
  5  7  1  0
  7  8  1  0
  8  9  1  0
 10 12  1  0
 10  9  1  0
 11  7  1  0
 11 10  1  0
 12 13  2  0
 13 14  1  0
 15 17  1  0
 15 14  2  0
 16 12  1  0
 16 15  1  0
  1 18  1  0
  2 19  1  0
  3 20  1  0
  8 21  1  0
  8 22  1  0
  9 23  1  0
  9 24  1  0
 10 25  1  6
 11 26  1  0
 11 27  1  0
 13 28  1  0
 14 29  1  0
 17 30  1  0
 17 31  1  0
 17 32  1  0
M  ISO  8  18  14  19  14  20  14  21  13  22  13  23  13  24  13  25  13
M  ISO  7  26  13  27  13  28  14  29  14  30   8  31   8  32   8
M  END
>  <minimizedAffinity>  (1) 
-5.05471992

>  <minimizedRMSD>  (1) 
0.0236725044

$$$$
