
     RDKit          3D

 41 43  0  0  1  0  0  0  0  0999 V2000
   44.6280   35.7500   44.9000 C   0  0  0  0  0  0  0  0  0  0  0  0
   44.9320   35.4550   43.5490 C   0  0  0  0  0  0  0  0  0  0  0  0
   45.5330   34.2100   43.2760 C   0  0  0  0  0  0  0  0  0  0  0  0
   45.7880   33.3650   44.3150 N   0  0  0  0  0  0  0  0  0  0  0  0
   45.4790   33.6950   45.5850 C   0  0  0  0  0  0  0  0  0  0  0  0
   44.9010   34.8810   45.8820 N   0  0  0  0  0  0  0  0  0  0  0  0
   45.7800   32.7640   46.5890 N   0  0  0  0  0  0  0  0  0  0  0  0
   45.0580   32.5460   47.8100 C   0  0  0  0  0  0  0  0  0  0  0  0
   46.1420   32.1240   48.7500 C   0  0  0  0  0  0  0  0  0  0  0  0
   46.9220   31.1600   47.9090 C   0  0  1  0  0  0  0  0  0  0  0  0
   46.9170   31.8450   46.5430 C   0  0  0  0  0  0  0  0  0  0  0  0
   48.2810   31.0650   48.4440 C   0  0  0  0  0  0  0  0  0  0  0  0
   49.0720   31.9480   49.2370 C   0  0  0  0  0  0  0  0  0  0  0  0
   50.3380   31.5600   49.5610 C   0  0  0  0  0  0  0  0  0  0  0  0
   50.8100   30.3340   49.1140 C   0  0  0  0  0  0  0  0  0  0  0  0
   49.3580   29.6660   48.1580 S   0  0  0  0  0  0  0  0  0  0  0  0
   52.0470   29.6070   49.2420 C   0  0  0  0  0  0  0  0  0  0  0  0
   51.7900   28.2510   49.8520 C   0  0  0  0  0  0  0  0  0  0  0  0
   53.0230   30.3660   50.1160 C   0  0  0  0  0  0  0  0  0  0  0  0
   52.6810   29.4700   47.8660 C   0  0  0  0  0  0  0  0  0  0  0  0
   44.1578   36.7129   45.1483 H   0  0  0  0  0  0  0  0  0  0  0  0
   44.7077   36.1700   42.7437 H   0  0  0  0  0  0  0  0  0  0  0  0
   45.7912   33.9257   42.2452 H   0  0  0  0  0  0  0  0  0  0  0  0
   44.5694   33.4694   48.1542 H   0  0  0  0  0  0  0  0  0  0  0  0
   44.2454   31.8106   47.7160 H   0  0  0  0  0  0  0  0  0  0  0  0
   46.7615   32.9798   49.0565 H   0  0  0  0  0  0  0  0  0  0  0  0
   45.7711   31.6933   49.6917 H   0  0  0  0  0  0  0  0  0  0  0  0
   46.5188   30.1371   47.8762 H   0  0  0  0  0  0  0  0  0  0  0  0
   46.7851   31.1056   45.7394 H   0  0  0  0  0  0  0  0  0  0  0  0
   47.8635   32.3661   46.3368 H   0  0  0  0  0  0  0  0  0  0  0  0
   48.6719   32.9145   49.5774 H   0  0  0  0  0  0  0  0  0  0  0  0
   50.9795   32.2128   50.1712 H   0  0  0  0  0  0  0  0  0  0  0  0
   51.8056   28.3334   50.9488 H   0  0  0  0  0  0  0  0  0  0  0  0
   50.8061   27.8828   49.5259 H   0  0  0  0  0  0  0  0  0  0  0  0
   52.5710   27.5483   49.5259 H   0  0  0  0  0  0  0  0  0  0  0  0
   52.7868   30.1823   51.1745 H   0  0  0  0  0  0  0  0  0  0  0  0
   54.0470   30.0246   49.9042 H   0  0  0  0  0  0  0  0  0  0  0  0
   52.9443   31.4425   49.9042 H   0  0  0  0  0  0  0  0  0  0  0  0
   53.7507   29.2388   47.9765 H   0  0  0  0  0  0  0  0  0  0  0  0
   52.1857   28.6582   47.3132 H   0  0  0  0  0  0  0  0  0  0  0  0
   52.5651   30.4139   47.3132 H   0  0  0  0  0  0  0  0  0  0  0  0
  1  6  2  0
  2  1  1  0
  3  2  2  0
  3  4  1  0
  4  5  2  0
  5  6  1  0
  5  7  1  0
  7  8  1  0
  8  9  1  0
 10 12  1  0
 10  9  1  0
 11  7  1  0
 11 10  1  0
 12 13  2  0
 13 14  1  0
 15 17  1  0
 15 14  2  0
 16 12  1  0
 16 15  1  0
 17 18  1  0
 17 19  1  0
 20 17  1  0
  1 21  1  0
  2 22  1  0
  3 23  1  0
  8 24  1  0
  8 25  1  0
  9 26  1  0
  9 27  1  0
 10 28  1  6
 11 29  1  0
 11 30  1  0
 13 31  1  0
 14 32  1  0
 18 33  1  0
 18 34  1  0
 18 35  1  0
 19 36  1  0
 19 37  1  0
 19 38  1  0
 20 39  1  0
 20 40  1  0
 20 41  1  0
M  ISO  8  21  14  22  14  23  14  24  13  25  13  26  13  27  13  28  13
M  ISO  8  29  13  30  13  31  14  32  14  33   8  34   8  35   8  36   8
M  ISO  5  37   8  38   8  39   8  40   8  41   8
M  END
>  <minimizedAffinity>  (1) 
-5.18764687

>  <minimizedRMSD>  (1) 
0.0592778437

$$$$
