
     RDKit          3D

 49 54  0  0  1  0  0  0  0  0999 V2000
   48.4490   31.0890   48.7840 C   0  0  0  0  0  0  0  0  0  0  0  0
   49.2300   32.1390   49.3030 C   0  0  0  0  0  0  0  0  0  0  0  0
   50.4380   31.8440   49.8700 C   0  0  0  0  0  0  0  0  0  0  0  0
   50.8390   30.5250   49.9080 C   0  0  0  0  0  0  0  0  0  0  0  0
   49.4180   29.6190   49.0880 S   0  0  0  0  0  0  0  0  0  0  0  0
   44.5570   35.5890   45.2390 C   0  0  0  0  0  0  0  0  0  0  0  0
   45.0340   35.4580   43.9130 C   0  0  0  0  0  0  0  0  0  0  0  0
   45.8310   34.3250   43.5980 C   0  0  0  0  0  0  0  0  0  0  0  0
   46.0940   33.4210   44.5940 N   0  0  0  0  0  0  0  0  0  0  0  0
   45.6140   33.5920   45.8420 C   0  0  0  0  0  0  0  0  0  0  0  0
   44.8440   34.6730   46.1760 N   0  0  0  0  0  0  0  0  0  0  0  0
   45.9310   32.6200   46.8020 N   0  0  0  0  0  0  0  0  0  0  0  0
   45.1240   32.1750   47.8910 C   0  0  0  0  0  0  0  0  0  0  0  0
   46.1560   31.8280   48.9280 C   0  0  0  0  0  0  0  0  0  0  0  0
   47.1430   31.0750   48.1190 C   0  0  1  0  0  0  0  0  0  0  0  0
   47.1980   31.8950   46.8130 C   0  0  0  0  0  0  0  0  0  0  0  0
   52.0300   29.9430   50.4330 N   0  0  0  0  0  0  0  0  0  0  0  0
   52.8690   29.1190   49.8520 C   0  0  0  0  0  0  0  0  0  0  0  0
   53.8620   28.8030   50.7170 N   0  0  0  0  0  0  0  0  0  0  0  0
   53.6210   29.4530   51.8600 C   0  0  0  0  0  0  0  0  0  0  0  0
   52.4640   30.1710   51.6730 N   0  0  0  0  0  0  0  0  0  0  0  0
   54.4170   29.4230   53.0850 C   0  0  0  0  0  0  0  0  0  0  0  0
   55.4140   28.4910   53.2930 C   0  0  0  0  0  0  0  0  0  0  0  0
   55.9020   28.8000   54.5300 N   0  0  0  0  0  0  0  0  0  0  0  0
   55.2480   29.8490   55.0400 C   0  0  0  0  0  0  0  0  0  0  0  0
   55.3460   30.5510   56.2390 C   0  0  0  0  0  0  0  0  0  0  0  0
   54.5240   31.6250   56.5210 C   0  0  0  0  0  0  0  0  0  0  0  0
   53.5750   31.9990   55.5620 C   0  0  0  0  0  0  0  0  0  0  0  0
   53.4240   31.3450   54.3510 C   0  0  0  0  0  0  0  0  0  0  0  0
   54.2750   30.2920   54.1490 C   0  0  0  0  0  0  0  0  0  0  0  0
   48.8742   33.1787   49.2530 H   0  0  0  0  0  0  0  0  0  0  0  0
   51.0747   32.6389   50.2857 H   0  0  0  0  0  0  0  0  0  0  0  0
   43.9390   36.4588   45.5064 H   0  0  0  0  0  0  0  0  0  0  0  0
   44.7945   36.2117   43.1484 H   0  0  0  0  0  0  0  0  0  0  0  0
   46.2263   34.1772   42.5822 H   0  0  0  0  0  0  0  0  0  0  0  0
   44.4555   32.9737   48.2448 H   0  0  0  0  0  0  0  0  0  0  0  0
   44.4568   31.3390   47.6342 H   0  0  0  0  0  0  0  0  0  0  0  0
   46.6027   32.7314   49.3689 H   0  0  0  0  0  0  0  0  0  0  0  0
   45.7588   31.2681   49.7875 H   0  0  0  0  0  0  0  0  0  0  0  0
   46.8804   30.0180   47.9645 H   0  0  0  0  0  0  0  0  0  0  0  0
   47.2781   31.2331   45.9381 H   0  0  0  0  0  0  0  0  0  0  0  0
   48.0704   32.5634   46.7674 H   0  0  0  0  0  0  0  0  0  0  0  0
   52.7799   28.7430   48.8221 H   0  0  0  0  0  0  0  0  0  0  0  0
   55.7398   27.6857   52.6182 H   0  0  0  0  0  0  0  0  0  0  0  0
   56.6657   28.2965   55.0034 H   0  0  0  0  0  0  0  0  0  0  0  0
   56.0974   30.2423   56.9807 H   0  0  0  0  0  0  0  0  0  0  0  0
   54.6126   32.1708   57.4719 H   0  0  0  0  0  0  0  0  0  0  0  0
   52.9178   32.8534   55.7812 H   0  0  0  0  0  0  0  0  0  0  0  0
   52.6747   31.6494   53.6054 H   0  0  0  0  0  0  0  0  0  0  0  0
  1  5  1  0
  1  2  2  0
  2  3  1  0
  3  4  2  0
  4 17  1  0
  5  4  1  0
  6 11  2  0
  7  6  1  0
  8  7  2  0
  8  9  1  0
  9 10  2  0
 10 11  1  0
 10 12  1  0
 12 16  1  0
 12 13  1  0
 13 14  1  0
 15  1  1  0
 15 14  1  0
 16 15  1  0
 17 21  1  0
 18 17  1  0
 18 19  2  0
 19 20  1  0
 20 22  1  0
 21 20  2  0
 22 23  2  0
 22 30  1  0
 23 24  1  0
 24 25  1  0
 25 26  2  0
 26 27  1  0
 28 27  2  0
 29 28  1  0
 30 29  2  0
 30 25  1  0
  2 31  1  0
  3 32  1  0
  6 33  1  0
  7 34  1  0
  8 35  1  0
 13 36  1  0
 13 37  1  0
 14 38  1  0
 14 39  1  0
 15 40  1  6
 16 41  1  0
 16 42  1  0
 18 43  1  0
 23 44  1  0
 24 45  1  0
 26 46  1  0
 27 47  1  0
 28 48  1  0
 29 49  1  0
M  ISO  8  31  14  32  14  33  14  34  14  35  14  36  13  37  13  38  13
M  ISO  8  39  13  40  13  41  13  42  13  43  14  44  14  45   9  46  14
M  ISO  3  47  14  48  14  49  14
M  END
>  <minimizedAffinity>  (1) 
-7.16578388

>  <minimizedRMSD>  (1) 
1.94385219

$$$$
