
     RDKit          3D

 35 38  0  0  1  0  0  0  0  0999 V2000
   44.6250   35.7470   44.9070 C   0  0  0  0  0  0  0  0  0  0  0  0
   44.9660   35.4740   43.5720 C   0  0  0  0  0  0  0  0  0  0  0  0
   45.5970   34.2430   43.2950 C   0  0  0  0  0  0  0  0  0  0  0  0
   45.8420   33.3850   44.3350 N   0  0  0  0  0  0  0  0  0  0  0  0
   45.4940   33.6950   45.5980 C   0  0  0  0  0  0  0  0  0  0  0  0
   44.8860   34.8740   45.8900 N   0  0  0  0  0  0  0  0  0  0  0  0
   45.7860   32.7550   46.6020 N   0  0  0  0  0  0  0  0  0  0  0  0
   45.0250   32.4960   47.7930 C   0  0  0  0  0  0  0  0  0  0  0  0
   46.1060   32.1250   48.7620 C   0  0  0  0  0  0  0  0  0  0  0  0
   46.9250   31.1740   47.9360 C   0  0  1  0  0  0  0  0  0  0  0  0
   46.9500   31.8740   46.5740 C   0  0  0  0  0  0  0  0  0  0  0  0
   48.2710   31.0920   48.5030 C   0  0  0  0  0  0  0  0  0  0  0  0
   49.0680   32.0270   49.2250 C   0  0  0  0  0  0  0  0  0  0  0  0
   50.3140   31.6430   49.6180 C   0  0  0  0  0  0  0  0  0  0  0  0
   50.7610   30.3660   49.3030 C   0  0  0  0  0  0  0  0  0  0  0  0
   49.3030   29.6430   48.3760 S   0  0  0  0  0  0  0  0  0  0  0  0
   51.9960   29.7420   49.5950 N   0  0  0  0  0  0  0  0  0  0  0  0
   52.3440   28.4790   49.4170 C   0  0  0  0  0  0  0  0  0  0  0  0
   53.6110   28.2880   49.8240 N   0  0  0  0  0  0  0  0  0  0  0  0
   54.0620   29.4750   50.2690 C   0  0  0  0  0  0  0  0  0  0  0  0
   53.0530   30.3810   50.1250 N   0  0  0  0  0  0  0  0  0  0  0  0
   44.1322   36.6996   45.1515 H   0  0  0  0  0  0  0  0  0  0  0  0
   44.7486   36.1951   42.7703 H   0  0  0  0  0  0  0  0  0  0  0  0
   45.8858   33.9779   42.2673 H   0  0  0  0  0  0  0  0  0  0  0  0
   44.4787   33.3916   48.1237 H   0  0  0  0  0  0  0  0  0  0  0  0
   44.2481   31.7269   47.6710 H   0  0  0  0  0  0  0  0  0  0  0  0
   46.6937   33.0037   49.0661 H   0  0  0  0  0  0  0  0  0  0  0  0
   45.7382   31.7000   49.7076 H   0  0  0  0  0  0  0  0  0  0  0  0
   46.5360   30.1462   47.8882 H   0  0  0  0  0  0  0  0  0  0  0  0
   46.8654   31.1417   45.7575 H   0  0  0  0  0  0  0  0  0  0  0  0
   47.8881   32.4211   46.3989 H   0  0  0  0  0  0  0  0  0  0  0  0
   48.6869   33.0321   49.4586 H   0  0  0  0  0  0  0  0  0  0  0  0
   50.9590   32.3359   50.1783 H   0  0  0  0  0  0  0  0  0  0  0  0
   51.6922   27.6986   48.9973 H   0  0  0  0  0  0  0  0  0  0  0  0
   55.0638   29.6780   50.6756 H   0  0  0  0  0  0  0  0  0  0  0  0
  1  6  2  0
  2  1  1  0
  3  2  2  0
  3  4  1  0
  4  5  2  0
  5  6  1  0
  5  7  1  0
  7  8  1  0
  8  9  1  0
 10 12  1  0
 10  9  1  0
 11  7  1  0
 11 10  1  0
 12 13  2  0
 13 14  1  0
 15 17  1  0
 15 14  2  0
 16 12  1  0
 16 15  1  0
 17 21  1  0
 18 17  1  0
 18 19  2  0
 19 20  1  0
 21 20  2  0
  1 22  1  0
  2 23  1  0
  3 24  1  0
  8 25  1  0
  8 26  1  0
  9 27  1  0
  9 28  1  0
 10 29  1  6
 11 30  1  0
 11 31  1  0
 13 32  1  0
 14 33  1  0
 18 34  1  0
 20 35  1  0
M  ISO  8  22  14  23  14  24  14  25  13  26  13  27  13  28  13  29  13
M  ISO  6  30  13  31  13  32  14  33  14  34  14  35  14
M  END
>  <minimizedAffinity>  (1) 
-5.24369526

>  <minimizedRMSD>  (1) 
0.598537147

$$$$
