
     RDKit          3D

 46 50  0  0  1  0  0  0  0  0999 V2000
   48.3810   31.3340   48.9390 C   0  0  0  0  0  0  0  0  0  0  0  0
   49.2580   32.4020   49.2050 C   0  0  0  0  0  0  0  0  0  0  0  0
   50.4000   32.1540   49.9210 C   0  0  0  0  0  0  0  0  0  0  0  0
   50.6340   30.8630   50.3470 C   0  0  0  0  0  0  0  0  0  0  0  0
   49.1570   29.9310   49.7040 S   0  0  0  0  0  0  0  0  0  0  0  0
   44.5650   35.6390   45.0870 C   0  0  0  0  0  0  0  0  0  0  0  0
   45.1160   35.4900   43.7920 C   0  0  0  0  0  0  0  0  0  0  0  0
   45.9500   34.3740   43.5460 C   0  0  0  0  0  0  0  0  0  0  0  0
   46.1830   33.4950   44.5720 N   0  0  0  0  0  0  0  0  0  0  0  0
   45.6370   33.6790   45.7900 C   0  0  0  0  0  0  0  0  0  0  0  0
   44.8260   34.7490   46.0550 N   0  0  0  0  0  0  0  0  0  0  0  0
   45.9190   32.7400   46.7980 N   0  0  0  0  0  0  0  0  0  0  0  0
   45.0740   32.2960   47.8570 C   0  0  0  0  0  0  0  0  0  0  0  0
   46.0630   32.0160   48.9470 C   0  0  0  0  0  0  0  0  0  0  0  0
   47.1150   31.2730   48.2090 C   0  0  1  0  0  0  0  0  0  0  0  0
   47.2170   32.0540   46.8810 C   0  0  0  0  0  0  0  0  0  0  0  0
   51.7270   30.3400   51.0930 N   0  0  0  0  0  0  0  0  0  0  0  0
   52.5160   29.3320   50.8140 C   0  0  0  0  0  0  0  0  0  0  0  0
   53.4250   29.1630   51.7760 N   0  0  0  0  0  0  0  0  0  0  0  0
   53.2010   30.1040   52.6990 C   0  0  0  0  0  0  0  0  0  0  0  0
   52.1410   30.8350   52.2690 N   0  0  0  0  0  0  0  0  0  0  0  0
   53.9600   30.2640   53.8920 N   0  0  0  0  0  0  0  0  0  0  0  0
   55.2020   29.7400   53.8840 C   0  0  0  0  0  0  0  0  0  0  0  0
   56.0090   29.8570   55.0160 C   0  0  0  0  0  0  0  0  0  0  0  0
   55.4520   30.5300   56.1110 C   0  0  0  0  0  0  0  0  0  0  0  0
   56.2510   30.6630   57.2770 N   0  0  0  0  0  0  0  0  0  0  0  0
   54.1970   31.0530   56.1010 N   0  0  0  0  0  0  0  0  0  0  0  0
   53.4490   30.9140   54.9760 C   0  0  0  0  0  0  0  0  0  0  0  0
   52.2680   31.3470   54.8200 O   0  0  0  0  0  0  0  0  0  0  0  0
   49.0312   33.4164   48.8451 H   0  0  0  0  0  0  0  0  0  0  0  0
   51.1104   32.9621   50.1497 H   0  0  0  0  0  0  0  0  0  0  0  0
   43.9127   36.4981   45.3026 H   0  0  0  0  0  0  0  0  0  0  0  0
   44.9018   36.2215   42.9989 H   0  0  0  0  0  0  0  0  0  0  0  0
   46.4007   34.2153   42.5552 H   0  0  0  0  0  0  0  0  0  0  0  0
   44.3615   33.0792   48.1551 H   0  0  0  0  0  0  0  0  0  0  0  0
   44.4482   31.4309   47.5925 H   0  0  0  0  0  0  0  0  0  0  0  0
   46.4576   32.9469   49.3803 H   0  0  0  0  0  0  0  0  0  0  0  0
   45.6433   31.4672   49.8030 H   0  0  0  0  0  0  0  0  0  0  0  0
   46.8880   30.2056   48.0703 H   0  0  0  0  0  0  0  0  0  0  0  0
   47.3577   31.3706   46.0306 H   0  0  0  0  0  0  0  0  0  0  0  0
   48.0736   32.7434   46.8491 H   0  0  0  0  0  0  0  0  0  0  0  0
   52.4395   28.7099   49.9100 H   0  0  0  0  0  0  0  0  0  0  0  0
   55.5775   29.2225   52.9889 H   0  0  0  0  0  0  0  0  0  0  0  0
   57.0277   29.4431   55.0470 H   0  0  0  0  0  0  0  0  0  0  0  0
   55.8782   31.1511   58.1038 H   0  0  0  0  0  0  0  0  0  0  0  0
   57.2034   30.2714   57.2961 H   0  0  0  0  0  0  0  0  0  0  0  0
  1  2  2  0
  1  5  1  0
  2  3  1  0
  3  4  2  0
  4 17  1  0
  5  4  1  0
  6 11  2  0
  7  6  1  0
  8  7  2  0
  8  9  1  0
  9 10  2  0
 10 11  1  0
 10 12  1  0
 12 16  1  0
 12 13  1  0
 13 14  1  0
 15  1  1  0
 15 14  1  0
 16 15  1  0
 17 21  1  0
 18 17  1  0
 18 19  2  0
 19 20  1  0
 20 22  1  0
 21 20  2  0
 22 28  1  0
 23 22  1  0
 23 24  2  0
 24 25  1  0
 25 26  1  0
 27 25  2  0
 28 27  1  0
 29 28  2  0
  2 30  1  0
  3 31  1  0
  6 32  1  0
  7 33  1  0
  8 34  1  0
 13 35  1  0
 13 36  1  0
 14 37  1  0
 14 38  1  0
 15 39  1  6
 16 40  1  0
 16 41  1  0
 18 42  1  0
 23 43  1  0
 24 44  1  0
 26 45  1  0
 26 46  1  0
M  ISO  8  30  14  31  14  32  14  33  14  34  14  35  13  36  13  37  13
M  ISO  7  38  13  39  13  40  13  41  13  42  14  43  14  44  14
M  END
>  <minimizedAffinity>  (1) 
-6.86098909

>  <minimizedRMSD>  (1) 
2.53360271

$$$$
