
     RDKit          3D

 51 55  0  0  1  0  0  0  0  0999 V2000
   44.6320   35.2610   45.1350 C   0  0  0  0  0  0  0  0  0  0  0  0
   45.2880   35.2580   43.8830 C   0  0  0  0  0  0  0  0  0  0  0  0
   46.3100   34.2980   43.6700 C   0  0  0  0  0  0  0  0  0  0  0  0
   46.6080   33.4250   44.6860 N   0  0  0  0  0  0  0  0  0  0  0  0
   45.9460   33.4740   45.8650 C   0  0  0  0  0  0  0  0  0  0  0  0
   44.9610   34.3860   46.0950 N   0  0  0  0  0  0  0  0  0  0  0  0
   46.3190   32.5440   46.8430 N   0  0  0  0  0  0  0  0  0  0  0  0
   45.4650   31.9110   47.8070 C   0  0  0  0  0  0  0  0  0  0  0  0
   46.3950   31.7340   48.9760 C   0  0  0  0  0  0  0  0  0  0  0  0
   47.6090   31.2070   48.3030 C   0  0  1  0  0  0  0  0  0  0  0  0
   47.6870   32.0700   47.0210 C   0  0  0  0  0  0  0  0  0  0  0  0
   48.7840   31.4450   49.1430 C   0  0  0  0  0  0  0  0  0  0  0  0
   49.6710   32.5350   49.2430 C   0  0  0  0  0  0  0  0  0  0  0  0
   50.7040   32.4570   50.1380 C   0  0  0  0  0  0  0  0  0  0  0  0
   50.8300   31.3140   50.9000 C   0  0  0  0  0  0  0  0  0  0  0  0
   49.3980   30.2550   50.3360 S   0  0  0  0  0  0  0  0  0  0  0  0
   51.8000   30.9930   51.8890 N   0  0  0  0  0  0  0  0  0  0  0  0
   52.9510   30.3840   51.7440 C   0  0  0  0  0  0  0  0  0  0  0  0
   53.5760   30.2650   52.9230 N   0  0  0  0  0  0  0  0  0  0  0  0
   52.7700   30.8320   53.8510 C   0  0  0  0  0  0  0  0  0  0  0  0
   51.6700   31.2770   53.1860 N   0  0  0  0  0  0  0  0  0  0  0  0
   53.0250   30.9480   55.3130 C   0  0  0  0  0  0  0  0  0  0  0  0
   54.4410   31.3720   55.6330 C   0  0  0  0  0  0  0  0  0  0  0  0
   54.6780   32.7240   55.0470 C   0  0  0  0  0  0  0  0  0  0  0  0
   53.6830   33.7700   55.4190 C   0  0  0  0  0  0  0  0  0  0  0  0
   52.2600   33.3290   55.4540 C   0  0  0  0  0  0  0  0  0  0  0  0
   52.0880   31.9210   55.9760 C   0  0  0  0  0  0  0  0  0  0  0  0
   43.8359   35.9959   45.3250 H   0  0  0  0  0  0  0  0  0  0  0  0
   45.0142   35.9782   43.0979 H   0  0  0  0  0  0  0  0  0  0  0  0
   46.8509   34.2542   42.7132 H   0  0  0  0  0  0  0  0  0  0  0  0
   44.6114   32.5537   48.0685 H   0  0  0  0  0  0  0  0  0  0  0  0
   45.0130   30.9729   47.4524 H   0  0  0  0  0  0  0  0  0  0  0  0
   46.5966   32.6913   49.4790 H   0  0  0  0  0  0  0  0  0  0  0  0
   46.0016   31.0833   49.7708 H   0  0  0  0  0  0  0  0  0  0  0  0
   47.5734   30.1259   48.1033 H   0  0  0  0  0  0  0  0  0  0  0  0
   48.0085   31.4659   46.1598 H   0  0  0  0  0  0  0  0  0  0  0  0
   48.4164   32.8895   47.1011 H   0  0  0  0  0  0  0  0  0  0  0  0
   49.5365   33.4287   48.6160 H   0  0  0  0  0  0  0  0  0  0  0  0
   51.4175   33.2871   50.2471 H   0  0  0  0  0  0  0  0  0  0  0  0
   53.3496   30.0202   50.7855 H   0  0  0  0  0  0  0  0  0  0  0  0
   52.8552   29.9350   55.7067 H   0  0  0  0  0  0  0  0  0  0  0  0
   54.5783   31.4118   56.7237 H   0  0  0  0  0  0  0  0  0  0  0  0
   55.1541   30.6492   55.2099 H   0  0  0  0  0  0  0  0  0  0  0  0
   54.6708   32.6242   53.9516 H   0  0  0  0  0  0  0  0  0  0  0  0
   55.6406   33.0650   55.4558 H   0  0  0  0  0  0  0  0  0  0  0  0
   53.9450   34.1442   56.4197 H   0  0  0  0  0  0  0  0  0  0  0  0
   53.7402   34.5314   54.6272 H   0  0  0  0  0  0  0  0  0  0  0  0
   51.6970   34.0146   56.1043 H   0  0  0  0  0  0  0  0  0  0  0  0
   51.8869   33.3430   54.4193 H   0  0  0  0  0  0  0  0  0  0  0  0
   51.0530   31.5985   55.7895 H   0  0  0  0  0  0  0  0  0  0  0  0
   52.3181   31.9303   57.0516 H   0  0  0  0  0  0  0  0  0  0  0  0
  1  6  2  0
  2  1  1  0
  3  2  2  0
  3  4  1  0
  4  5  2  0
  5  6  1  0
  5  7  1  0
  7 11  1  0
  7  8  1  0
  8  9  1  0
 10  9  1  0
 10 12  1  0
 11 10  1  0
 12 13  2  0
 12 16  1  0
 13 14  1  0
 14 15  2  0
 15 17  1  0
 16 15  1  0
 17 21  1  0
 18 17  1  0
 18 19  2  0
 19 20  1  0
 20 22  1  0
 21 20  2  0
 22 23  1  0
 22 27  1  0
 24 25  1  0
 24 23  1  0
 25 26  1  0
 26 27  1  0
  1 28  1  0
  2 29  1  0
  3 30  1  0
  8 31  1  0
  8 32  1  0
  9 33  1  0
  9 34  1  0
 10 35  1  6
 11 36  1  0
 11 37  1  0
 13 38  1  0
 14 39  1  0
 18 40  1  0
 22 41  1  0
 23 42  1  0
 23 43  1  0
 24 44  1  0
 24 45  1  0
 25 46  1  0
 25 47  1  0
 26 48  1  0
 26 49  1  0
 27 50  1  0
 27 51  1  0
M  ISO  8  28  14  29  14  30  14  31  13  32  13  33  13  34  13  35  13
M  ISO  8  36  13  37  13  38  14  39  14  40  14  41  13  42  13  43  13
M  ISO  8  44  13  45  13  46  13  47  13  48  13  49  13  50  13  51  13
M  END
>  <minimizedAffinity>  (1) 
-6.72191191

>  <minimizedRMSD>  (1) 
3.12011027

$$$$
