
     RDKit          3D

 43 47  0  0  1  0  0  0  0  0999 V2000
   44.5590   35.5170   45.1920 C   0  0  0  0  0  0  0  0  0  0  0  0
   45.1270   35.4180   43.9000 C   0  0  0  0  0  0  0  0  0  0  0  0
   46.0220   34.3450   43.6440 C   0  0  0  0  0  0  0  0  0  0  0  0
   46.2870   33.4630   44.6620 N   0  0  0  0  0  0  0  0  0  0  0  0
   45.7180   33.6030   45.8770 C   0  0  0  0  0  0  0  0  0  0  0  0
   44.8520   34.6260   46.1520 N   0  0  0  0  0  0  0  0  0  0  0  0
   46.0430   32.6570   46.8630 N   0  0  0  0  0  0  0  0  0  0  0  0
   45.2070   32.1420   47.8990 C   0  0  0  0  0  0  0  0  0  0  0  0
   46.1950   31.9030   49.0060 C   0  0  0  0  0  0  0  0  0  0  0  0
   47.2890   31.2220   48.2690 C   0  0  1  0  0  0  0  0  0  0  0  0
   47.3670   32.0410   46.9590 C   0  0  0  0  0  0  0  0  0  0  0  0
   48.5420   31.3410   49.0190 C   0  0  0  0  0  0  0  0  0  0  0  0
   49.4040   32.4290   49.2580 C   0  0  0  0  0  0  0  0  0  0  0  0
   50.5280   32.2170   50.0030 C   0  0  0  0  0  0  0  0  0  0  0  0
   50.7730   30.9510   50.4900 C   0  0  0  0  0  0  0  0  0  0  0  0
   49.3150   29.9710   49.8570 S   0  0  0  0  0  0  0  0  0  0  0  0
   51.8470   30.4700   51.2710 N   0  0  0  0  0  0  0  0  0  0  0  0
   52.6660   29.4710   51.0440 C   0  0  0  0  0  0  0  0  0  0  0  0
   53.5540   29.3370   52.0450 N   0  0  0  0  0  0  0  0  0  0  0  0
   53.2770   30.2950   52.9340 C   0  0  0  0  0  0  0  0  0  0  0  0
   52.2080   31.0090   52.4520 N   0  0  0  0  0  0  0  0  0  0  0  0
   54.0070   30.5100   54.1790 C   0  0  0  0  0  0  0  0  0  0  0  0
   55.1420   29.8390   54.5780 C   0  0  0  0  0  0  0  0  0  0  0  0
   55.6780   30.2050   55.8110 C   0  0  0  0  0  0  0  0  0  0  0  0
   55.0900   31.1690   56.5480 N   0  0  0  0  0  0  0  0  0  0  0  0
   53.9760   31.8200   56.1460 C   0  0  0  0  0  0  0  0  0  0  0  0
   53.4540   31.4720   54.9560 N   0  0  0  0  0  0  0  0  0  0  0  0
   43.8638   36.3401   45.4140 H   0  0  0  0  0  0  0  0  0  0  0  0
   44.8827   36.1505   43.1166 H   0  0  0  0  0  0  0  0  0  0  0  0
   46.4904   34.2240   42.6561 H   0  0  0  0  0  0  0  0  0  0  0  0
   44.4421   32.8743   48.1968 H   0  0  0  0  0  0  0  0  0  0  0  0
   44.6407   31.2450   47.6079 H   0  0  0  0  0  0  0  0  0  0  0  0
   46.5367   32.8481   49.4532 H   0  0  0  0  0  0  0  0  0  0  0  0
   45.7945   31.3287   49.8544 H   0  0  0  0  0  0  0  0  0  0  0  0
   47.1195   30.1473   48.1067 H   0  0  0  0  0  0  0  0  0  0  0  0
   47.5596   31.3860   46.0965 H   0  0  0  0  0  0  0  0  0  0  0  0
   48.1836   32.7779   46.9620 H   0  0  0  0  0  0  0  0  0  0  0  0
   49.1767   33.4264   48.8537 H   0  0  0  0  0  0  0  0  0  0  0  0
   51.2257   33.0416   50.2110 H   0  0  0  0  0  0  0  0  0  0  0  0
   52.6311   28.8276   50.1524 H   0  0  0  0  0  0  0  0  0  0  0  0
   55.6007   29.0560   53.9563 H   0  0  0  0  0  0  0  0  0  0  0  0
   56.5842   29.7057   56.1845 H   0  0  0  0  0  0  0  0  0  0  0  0
   53.5149   32.6025   56.7665 H   0  0  0  0  0  0  0  0  0  0  0  0
  1  6  2  0
  2  1  1  0
  3  2  2  0
  3  4  1  0
  4  5  2  0
  5  6  1  0
  5  7  1  0
  7 11  1  0
  7  8  1  0
  8  9  1  0
 10  9  1  0
 10 12  1  0
 11 10  1  0
 12 13  2  0
 12 16  1  0
 13 14  1  0
 14 15  2  0
 15 17  1  0
 16 15  1  0
 17 21  1  0
 18 17  1  0
 18 19  2  0
 19 20  1  0
 20 22  1  0
 21 20  2  0
 22 23  2  0
 22 27  1  0
 23 24  1  0
 24 25  2  0
 26 25  1  0
 27 26  2  0
  1 28  1  0
  2 29  1  0
  3 30  1  0
  8 31  1  0
  8 32  1  0
  9 33  1  0
  9 34  1  0
 10 35  1  6
 11 36  1  0
 11 37  1  0
 13 38  1  0
 14 39  1  0
 18 40  1  0
 23 41  1  0
 24 42  1  0
 26 43  1  0
M  ISO  8  28  14  29  14  30  14  31  13  32  13  33  13  34  13  35  13
M  ISO  8  36  13  37  13  38  14  39  14  40  14  41  14  42  14  43  14
M  END
>  <minimizedAffinity>  (1) 
-6.25267315

>  <minimizedRMSD>  (1) 
2.65965152

$$$$
