
     RDKit          3D

 45 49  0  0  1  0  0  0  0  0999 V2000
   48.4320   31.3610   48.9610 C   0  0  0  0  0  0  0  0  0  0  0  0
   49.3160   32.4270   49.2170 C   0  0  0  0  0  0  0  0  0  0  0  0
   50.4280   32.1700   49.9470 C   0  0  0  0  0  0  0  0  0  0  0  0
   50.6790   30.9010   50.4190 C   0  0  0  0  0  0  0  0  0  0  0  0
   49.1890   29.9530   49.7710 S   0  0  0  0  0  0  0  0  0  0  0  0
   44.5620   35.6070   45.1030 C   0  0  0  0  0  0  0  0  0  0  0  0
   45.1170   35.4750   43.8080 C   0  0  0  0  0  0  0  0  0  0  0  0
   45.9750   34.3720   43.5610 C   0  0  0  0  0  0  0  0  0  0  0  0
   46.2200   33.4960   44.5850 N   0  0  0  0  0  0  0  0  0  0  0  0
   45.6640   33.6700   45.8080 C   0  0  0  0  0  0  0  0  0  0  0  0
   44.8340   34.7220   46.0730 N   0  0  0  0  0  0  0  0  0  0  0  0
   45.9740   32.7220   46.7930 N   0  0  0  0  0  0  0  0  0  0  0  0
   45.1250   32.2470   47.8370 C   0  0  0  0  0  0  0  0  0  0  0  0
   46.1120   31.9900   48.9460 C   0  0  0  0  0  0  0  0  0  0  0  0
   47.1730   31.2540   48.2140 C   0  0  1  0  0  0  0  0  0  0  0  0
   47.2620   32.0590   46.8960 C   0  0  0  0  0  0  0  0  0  0  0  0
   51.7480   30.3880   51.1850 N   0  0  0  0  0  0  0  0  0  0  0  0
   52.5180   29.3550   50.9440 C   0  0  0  0  0  0  0  0  0  0  0  0
   53.4100   29.2090   51.9470 N   0  0  0  0  0  0  0  0  0  0  0  0
   53.1800   30.1890   52.8380 C   0  0  0  0  0  0  0  0  0  0  0  0
   52.1280   30.9260   52.3450 N   0  0  0  0  0  0  0  0  0  0  0  0
   53.8060   30.5500   54.1060 C   0  0  0  0  0  0  0  0  0  0  0  0
   53.0910   31.4900   54.8250 C   0  0  0  0  0  0  0  0  0  0  0  0
   53.5620   31.9360   56.0600 C   0  0  0  0  0  0  0  0  0  0  0  0
   54.7530   31.4030   56.5160 C   0  0  0  0  0  0  0  0  0  0  0  0
   55.4730   30.4630   55.8020 C   0  0  0  0  0  0  0  0  0  0  0  0
   54.9960   30.0260   54.5780 C   0  0  0  0  0  0  0  0  0  0  0  0
   49.1098   33.4380   48.8357 H   0  0  0  0  0  0  0  0  0  0  0  0
   51.1369   32.9825   50.1647 H   0  0  0  0  0  0  0  0  0  0  0  0
   43.8933   36.4534   45.3185 H   0  0  0  0  0  0  0  0  0  0  0  0
   44.8903   36.2050   43.0170 H   0  0  0  0  0  0  0  0  0  0  0  0
   46.4321   34.2242   42.5714 H   0  0  0  0  0  0  0  0  0  0  0  0
   44.3849   33.0070   48.1280 H   0  0  0  0  0  0  0  0  0  0  0  0
   44.5286   31.3655   47.5591 H   0  0  0  0  0  0  0  0  0  0  0  0
   46.4930   32.9291   49.3737 H   0  0  0  0  0  0  0  0  0  0  0  0
   45.6955   31.4480   49.8079 H   0  0  0  0  0  0  0  0  0  0  0  0
   46.9757   30.1820   48.0663 H   0  0  0  0  0  0  0  0  0  0  0  0
   47.4244   31.3879   46.0397 H   0  0  0  0  0  0  0  0  0  0  0  0
   48.1018   32.7694   46.8932 H   0  0  0  0  0  0  0  0  0  0  0  0
   52.4481   28.7056   50.0589 H   0  0  0  0  0  0  0  0  0  0  0  0
   52.1478   31.8874   54.4219 H   0  0  0  0  0  0  0  0  0  0  0  0
   53.0075   32.6824   56.6477 H   0  0  0  0  0  0  0  0  0  0  0  0
   55.1442   31.7406   57.4871 H   0  0  0  0  0  0  0  0  0  0  0  0
   56.4170   30.0657   56.2032 H   0  0  0  0  0  0  0  0  0  0  0  0
   55.5515   29.2780   53.9933 H   0  0  0  0  0  0  0  0  0  0  0  0
  1  2  2  0
  1  5  1  0
  2  3  1  0
  3  4  2  0
  4 17  1  0
  5  4  1  0
  6 11  2  0
  7  6  1  0
  8  7  2  0
  8  9  1  0
  9 10  2  0
 10 11  1  0
 10 12  1  0
 12 16  1  0
 12 13  1  0
 13 14  1  0
 15 14  1  0
 15  1  1  0
 16 15  1  0
 17 21  1  0
 18 17  1  0
 18 19  2  0
 19 20  1  0
 20 22  1  0
 21 20  2  0
 22 27  1  0
 22 23  2  0
 23 24  1  0
 24 25  2  0
 26 25  1  0
 27 26  2  0
  2 28  1  0
  3 29  1  0
  6 30  1  0
  7 31  1  0
  8 32  1  0
 13 33  1  0
 13 34  1  0
 14 35  1  0
 14 36  1  0
 15 37  1  6
 16 38  1  0
 16 39  1  0
 18 40  1  0
 23 41  1  0
 24 42  1  0
 25 43  1  0
 26 44  1  0
 27 45  1  0
M  ISO  8  28  14  29  14  30  14  31  14  32  14  33  13  34  13  35  13
M  ISO  8  36  13  37  13  38  13  39  13  40  14  41  14  42  14  43  14
M  ISO  2  44  14  45  14
M  END
>  <minimizedAffinity>  (1) 
-6.63743687

>  <minimizedRMSD>  (1) 
2.58294892

$$$$
