
     RDKit          3D

 47 50  0  0  1  0  0  0  0  0999 V2000
   44.5700   35.4550   45.2120 C   0  0  0  0  0  0  0  0  0  0  0  0
   45.1650   35.3790   43.9310 C   0  0  0  0  0  0  0  0  0  0  0  0
   46.0910   34.3300   43.6860 C   0  0  0  0  0  0  0  0  0  0  0  0
   46.3580   33.4500   44.6990 N   0  0  0  0  0  0  0  0  0  0  0  0
   45.7610   33.5670   45.9050 C   0  0  0  0  0  0  0  0  0  0  0  0
   44.8670   34.5660   46.1690 N   0  0  0  0  0  0  0  0  0  0  0  0
   46.0970   32.6150   46.8910 N   0  0  0  0  0  0  0  0  0  0  0  0
   45.2400   32.0860   47.9010 C   0  0  0  0  0  0  0  0  0  0  0  0
   46.2070   31.8460   49.0300 C   0  0  0  0  0  0  0  0  0  0  0  0
   47.3320   31.1970   48.3080 C   0  0  1  0  0  0  0  0  0  0  0  0
   47.4180   32.0280   47.0090 C   0  0  0  0  0  0  0  0  0  0  0  0
   48.5660   31.3330   49.0830 C   0  0  0  0  0  0  0  0  0  0  0  0
   49.4460   32.4200   49.2630 C   0  0  0  0  0  0  0  0  0  0  0  0
   50.5510   32.2420   50.0560 C   0  0  0  0  0  0  0  0  0  0  0  0
   50.7480   31.0070   50.6380 C   0  0  0  0  0  0  0  0  0  0  0  0
   49.2870   30.0210   50.0390 S   0  0  0  0  0  0  0  0  0  0  0  0
   51.8010   30.5680   51.4910 N   0  0  0  0  0  0  0  0  0  0  0  0
   52.5100   29.4680   51.4180 C   0  0  0  0  0  0  0  0  0  0  0  0
   53.4100   29.4250   52.4150 N   0  0  0  0  0  0  0  0  0  0  0  0
   53.2470   30.5480   53.1330 C   0  0  0  0  0  0  0  0  0  0  0  0
   52.2410   31.2660   52.5590 N   0  0  0  0  0  0  0  0  0  0  0  0
   53.9580   31.0470   54.3490 C   0  0  0  0  0  0  0  0  0  0  0  0
   55.0840   30.1000   54.7430 C   0  0  0  0  0  0  0  0  0  0  0  0
   54.6060   32.3910   54.0090 C   0  0  0  0  0  0  0  0  0  0  0  0
   52.9880   31.1980   55.4990 C   0  0  0  0  0  0  0  0  0  0  0  0
   43.8503   36.2588   45.4262 H   0  0  0  0  0  0  0  0  0  0  0  0
   44.9179   36.1106   43.1476 H   0  0  0  0  0  0  0  0  0  0  0  0
   46.5810   34.2278   42.7065 H   0  0  0  0  0  0  0  0  0  0  0  0
   44.4627   32.8101   48.1864 H   0  0  0  0  0  0  0  0  0  0  0  0
   44.6861   31.1879   47.5901 H   0  0  0  0  0  0  0  0  0  0  0  0
   46.5202   32.7895   49.5009 H   0  0  0  0  0  0  0  0  0  0  0  0
   45.7969   31.2503   49.8589 H   0  0  0  0  0  0  0  0  0  0  0  0
   47.1891   30.1206   48.1322 H   0  0  0  0  0  0  0  0  0  0  0  0
   47.6403   31.3844   46.1451 H   0  0  0  0  0  0  0  0  0  0  0  0
   48.2193   32.7811   47.0359 H   0  0  0  0  0  0  0  0  0  0  0  0
   49.2509   33.3882   48.7787 H   0  0  0  0  0  0  0  0  0  0  0  0
   51.2626   33.0639   50.2237 H   0  0  0  0  0  0  0  0  0  0  0  0
   52.3859   28.6905   50.6498 H   0  0  0  0  0  0  0  0  0  0  0  0
   55.1497   30.0447   55.8396 H   0  0  0  0  0  0  0  0  0  0  0  0
   54.8796   29.0983   54.3370 H   0  0  0  0  0  0  0  0  0  0  0  0
   56.0358   30.4731   54.3370 H   0  0  0  0  0  0  0  0  0  0  0  0
   54.8613   32.9206   54.9387 H   0  0  0  0  0  0  0  0  0  0  0  0
   55.5202   32.2192   53.4219 H   0  0  0  0  0  0  0  0  0  0  0  0
   53.9022   32.9993   53.4219 H   0  0  0  0  0  0  0  0  0  0  0  0
   53.5322   31.1133   56.4512 H   0  0  0  0  0  0  0  0  0  0  0  0
   52.5012   32.1827   55.4412 H   0  0  0  0  0  0  0  0  0  0  0  0
   52.2249   30.4078   55.4412 H   0  0  0  0  0  0  0  0  0  0  0  0
  1  6  2  0
  2  1  1  0
  3  2  2  0
  3  4  1  0
  4  5  2  0
  5  6  1  0
  5  7  1  0
  7 11  1  0
  7  8  1  0
  8  9  1  0
 10  9  1  0
 10 12  1  0
 11 10  1  0
 12 13  2  0
 12 16  1  0
 13 14  1  0
 14 15  2  0
 15 17  1  0
 16 15  1  0
 17 21  1  0
 18 17  1  0
 18 19  2  0
 19 20  1  0
 20 22  1  0
 21 20  2  0
 22 23  1  0
 22 25  1  0
 24 22  1  0
  1 26  1  0
  2 27  1  0
  3 28  1  0
  8 29  1  0
  8 30  1  0
  9 31  1  0
  9 32  1  0
 10 33  1  6
 11 34  1  0
 11 35  1  0
 13 36  1  0
 14 37  1  0
 18 38  1  0
 23 39  1  0
 23 40  1  0
 23 41  1  0
 24 42  1  0
 24 43  1  0
 24 44  1  0
 25 45  1  0
 25 46  1  0
 25 47  1  0
M  ISO  8  26  14  27  14  28  14  29  13  30  13  31  13  32  13  33  13
M  ISO  8  34  13  35  13  36  14  37  14  38  14  39   8  40   8  41   8
M  ISO  6  42   8  43   8  44   8  45   8  46   8  47   8
M  END
>  <minimizedAffinity>  (1) 
-5.97203779

>  <minimizedRMSD>  (1) 
2.15417647

$$$$
