
     RDKit          3D

 42 46  0  0  1  0  0  0  0  0999 V2000
   44.5780   35.4430   45.2220 C   0  0  0  0  0  0  0  0  0  0  0  0
   45.1680   35.3620   43.9480 C   0  0  0  0  0  0  0  0  0  0  0  0
   46.0870   34.3080   43.6970 C   0  0  0  0  0  0  0  0  0  0  0  0
   46.3510   33.4240   44.7150 N   0  0  0  0  0  0  0  0  0  0  0  0
   45.7620   33.5450   45.9170 C   0  0  0  0  0  0  0  0  0  0  0  0
   44.8730   34.5510   46.1800 N   0  0  0  0  0  0  0  0  0  0  0  0
   46.0820   32.6020   46.9110 N   0  0  0  0  0  0  0  0  0  0  0  0
   45.2400   32.0730   47.9350 C   0  0  0  0  0  0  0  0  0  0  0  0
   46.2160   31.8460   49.0510 C   0  0  0  0  0  0  0  0  0  0  0  0
   47.3360   31.1910   48.3270 C   0  0  1  0  0  0  0  0  0  0  0  0
   47.4220   32.0080   47.0190 C   0  0  0  0  0  0  0  0  0  0  0  0
   48.5740   31.3170   49.0930 C   0  0  0  0  0  0  0  0  0  0  0  0
   49.4460   32.4090   49.2760 C   0  0  0  0  0  0  0  0  0  0  0  0
   50.5630   32.2340   50.0590 C   0  0  0  0  0  0  0  0  0  0  0  0
   50.7740   30.9940   50.6240 C   0  0  0  0  0  0  0  0  0  0  0  0
   49.3150   30.0050   50.0270 S   0  0  0  0  0  0  0  0  0  0  0  0
   51.8330   30.5510   51.4570 N   0  0  0  0  0  0  0  0  0  0  0  0
   52.3420   29.3490   51.5820 C   0  0  0  0  0  0  0  0  0  0  0  0
   53.3390   29.3400   52.4780 N   0  0  0  0  0  0  0  0  0  0  0  0
   53.4550   30.6030   52.9310 C   0  0  0  0  0  0  0  0  0  0  0  0
   52.5190   31.3590   52.2990 N   0  0  0  0  0  0  0  0  0  0  0  0
   54.4200   31.0980   53.9370 C   0  0  0  0  0  0  0  0  0  0  0  0
   55.1090   30.1320   54.8250 C   0  0  0  0  0  0  0  0  0  0  0  0
   53.9790   30.9640   55.3630 C   0  0  0  0  0  0  0  0  0  0  0  0
   43.8630   36.2509   45.4367 H   0  0  0  0  0  0  0  0  0  0  0  0
   44.9242   36.0960   43.1658 H   0  0  0  0  0  0  0  0  0  0  0  0
   46.5731   34.2028   42.7159 H   0  0  0  0  0  0  0  0  0  0  0  0
   44.4613   32.7938   48.2249 H   0  0  0  0  0  0  0  0  0  0  0  0
   44.6894   31.1691   47.6351 H   0  0  0  0  0  0  0  0  0  0  0  0
   46.5323   32.7948   49.5090 H   0  0  0  0  0  0  0  0  0  0  0  0
   45.8145   31.2570   49.8887 H   0  0  0  0  0  0  0  0  0  0  0  0
   47.1840   30.1146   48.1592 H   0  0  0  0  0  0  0  0  0  0  0  0
   47.6359   31.3562   46.1591 H   0  0  0  0  0  0  0  0  0  0  0  0
   48.2282   32.7563   47.0277 H   0  0  0  0  0  0  0  0  0  0  0  0
   49.2377   33.3800   48.8029 H   0  0  0  0  0  0  0  0  0  0  0  0
   51.2686   33.0604   50.2298 H   0  0  0  0  0  0  0  0  0  0  0  0
   51.9966   28.4653   51.0254 H   0  0  0  0  0  0  0  0  0  0  0  0
   54.7816   31.9056   53.2835 H   0  0  0  0  0  0  0  0  0  0  0  0
   54.9713   29.0513   54.6729 H   0  0  0  0  0  0  0  0  0  0  0  0
   56.1542   29.9583   55.1206 H   0  0  0  0  0  0  0  0  0  0  0  0
   54.1814   31.7716   56.0819 H   0  0  0  0  0  0  0  0  0  0  0  0
   53.0261   30.7549   55.8711 H   0  0  0  0  0  0  0  0  0  0  0  0
  1  6  2  0
  2  1  1  0
  3  2  2  0
  3  4  1  0
  4  5  2  0
  5  6  1  0
  5  7  1  0
  7 11  1  0
  7  8  1  0
  8  9  1  0
 10  9  1  0
 10 12  1  0
 11 10  1  0
 12 13  2  0
 12 16  1  0
 13 14  1  0
 14 15  2  0
 15 17  1  0
 16 15  1  0
 17 18  1  0
 17 21  1  0
 18 19  2  0
 19 20  1  0
 20 22  1  0
 21 20  2  0
 22 23  1  0
 22 24  1  0
 23 24  1  0
  1 25  1  0
  2 26  1  0
  3 27  1  0
  8 28  1  0
  8 29  1  0
  9 30  1  0
  9 31  1  0
 10 32  1  6
 11 33  1  0
 11 34  1  0
 13 35  1  0
 14 36  1  0
 18 37  1  0
 22 38  1  0
 23 39  1  0
 23 40  1  0
 24 41  1  0
 24 42  1  0
M  ISO  8  25  14  26  14  27  14  28  13  29  13  30  13  31  13  32  13
M  ISO  8  33  13  34  13  35  14  36  14  37  14  38  13  39  13  40  13
M  ISO  2  41  13  42  13
M  END
>  <minimizedAffinity>  (1) 
-5.70097113

>  <minimizedRMSD>  (1) 
1.80869424

$$$$
