
     RDKit          3D

 44 47  0  0  1  0  0  0  0  0999 V2000
   44.5690   35.4510   45.2130 C   0  0  0  0  0  0  0  0  0  0  0  0
   45.1630   35.3760   43.9310 C   0  0  0  0  0  0  0  0  0  0  0  0
   46.0880   34.3260   43.6870 C   0  0  0  0  0  0  0  0  0  0  0  0
   46.3540   33.4480   44.6990 N   0  0  0  0  0  0  0  0  0  0  0  0
   45.7620   33.5610   45.9060 C   0  0  0  0  0  0  0  0  0  0  0  0
   44.8680   34.5600   46.1700 N   0  0  0  0  0  0  0  0  0  0  0  0
   46.0900   32.6170   46.8950 N   0  0  0  0  0  0  0  0  0  0  0  0
   45.2460   32.0860   47.9170 C   0  0  0  0  0  0  0  0  0  0  0  0
   46.2220   31.8530   49.0350 C   0  0  0  0  0  0  0  0  0  0  0  0
   47.3420   31.2020   48.3090 C   0  0  1  0  0  0  0  0  0  0  0  0
   47.4240   32.0260   47.0050 C   0  0  0  0  0  0  0  0  0  0  0  0
   48.5790   31.3490   49.0820 C   0  0  0  0  0  0  0  0  0  0  0  0
   49.4620   32.4320   49.2710 C   0  0  0  0  0  0  0  0  0  0  0  0
   50.5610   32.2470   50.0610 C   0  0  0  0  0  0  0  0  0  0  0  0
   50.7600   31.0090   50.6370 C   0  0  0  0  0  0  0  0  0  0  0  0
   49.3020   30.0180   50.0350 S   0  0  0  0  0  0  0  0  0  0  0  0
   51.8100   30.5670   51.4920 N   0  0  0  0  0  0  0  0  0  0  0  0
   52.4790   29.4410   51.4560 C   0  0  0  0  0  0  0  0  0  0  0  0
   53.3930   29.4000   52.4430 N   0  0  0  0  0  0  0  0  0  0  0  0
   53.2810   30.5500   53.1130 C   0  0  0  0  0  0  0  0  0  0  0  0
   52.2870   31.2840   52.5160 N   0  0  0  0  0  0  0  0  0  0  0  0
   54.0930   30.9740   54.3090 C   0  0  0  0  0  0  0  0  0  0  0  0
   53.2430   31.1910   55.5300 C   0  0  0  0  0  0  0  0  0  0  0  0
   55.1530   29.9270   54.6200 C   0  0  0  0  0  0  0  0  0  0  0  0
   43.8492   36.2543   45.4287 H   0  0  0  0  0  0  0  0  0  0  0  0
   44.9162   36.1079   43.1478 H   0  0  0  0  0  0  0  0  0  0  0  0
   46.5779   34.2225   42.7076 H   0  0  0  0  0  0  0  0  0  0  0  0
   44.4684   32.8073   48.2086 H   0  0  0  0  0  0  0  0  0  0  0  0
   44.6942   31.1841   47.6136 H   0  0  0  0  0  0  0  0  0  0  0  0
   46.5378   32.7994   49.4982 H   0  0  0  0  0  0  0  0  0  0  0  0
   45.8195   31.2600   49.8695 H   0  0  0  0  0  0  0  0  0  0  0  0
   47.1987   30.1251   48.1363 H   0  0  0  0  0  0  0  0  0  0  0  0
   47.6402   31.3782   46.1426 H   0  0  0  0  0  0  0  0  0  0  0  0
   48.2274   32.7772   47.0207 H   0  0  0  0  0  0  0  0  0  0  0  0
   49.2702   33.4040   48.7930 H   0  0  0  0  0  0  0  0  0  0  0  0
   51.2725   33.0678   50.2343 H   0  0  0  0  0  0  0  0  0  0  0  0
   52.3160   28.6396   50.7204 H   0  0  0  0  0  0  0  0  0  0  0  0
   54.5669   31.9324   54.0504 H   0  0  0  0  0  0  0  0  0  0  0  0
   53.8518   31.0356   56.4329 H   0  0  0  0  0  0  0  0  0  0  0  0
   52.8498   32.2183   55.5252 H   0  0  0  0  0  0  0  0  0  0  0  0
   52.4055   30.4779   55.5252 H   0  0  0  0  0  0  0  0  0  0  0  0
   55.2576   29.8237   55.7101 H   0  0  0  0  0  0  0  0  0  0  0  0
   54.8526   28.9613   54.1873 H   0  0  0  0  0  0  0  0  0  0  0  0
   56.1149   30.2393   54.1873 H   0  0  0  0  0  0  0  0  0  0  0  0
  1  6  2  0
  2  1  1  0
  3  2  2  0
  3  4  1  0
  4  5  2  0
  5  6  1  0
  5  7  1  0
  7 11  1  0
  7  8  1  0
  8  9  1  0
 10  9  1  0
 10 12  1  0
 11 10  1  0
 12 13  2  0
 12 16  1  0
 13 14  1  0
 14 15  2  0
 15 17  1  0
 16 15  1  0
 17 21  1  0
 18 17  1  0
 18 19  2  0
 19 20  1  0
 20 22  1  0
 21 20  2  0
 22 24  1  0
 22 23  1  0
  1 25  1  0
  2 26  1  0
  3 27  1  0
  8 28  1  0
  8 29  1  0
  9 30  1  0
  9 31  1  0
 10 32  1  6
 11 33  1  0
 11 34  1  0
 13 35  1  0
 14 36  1  0
 18 37  1  0
 22 38  1  0
 23 39  1  0
 23 40  1  0
 23 41  1  0
 24 42  1  0
 24 43  1  0
 24 44  1  0
M  ISO  8  25  14  26  14  27  14  28  13  29  13  30  13  31  13  32  13
M  ISO  8  33  13  34  13  35  14  36  14  37  14  38   8  39   8  40   8
M  ISO  4  41   8  42   8  43   8  44   8
M  END
>  <minimizedAffinity>  (1) 
-5.8015337

>  <minimizedRMSD>  (1) 
2.00380039

$$$$
