
     RDKit          3D

 42 46  0  0  1  0  0  0  0  0999 V2000
   44.5780   35.6120   45.1200 C   0  0  0  0  0  0  0  0  0  0  0  0
   45.0850   35.4470   43.8150 C   0  0  0  0  0  0  0  0  0  0  0  0
   45.8980   34.3150   43.5400 C   0  0  0  0  0  0  0  0  0  0  0  0
   46.1470   33.4380   44.5670 N   0  0  0  0  0  0  0  0  0  0  0  0
   45.6400   33.6380   45.7980 C   0  0  0  0  0  0  0  0  0  0  0  0
   44.8550   34.7210   46.0830 N   0  0  0  0  0  0  0  0  0  0  0  0
   45.9460   32.6900   46.7900 N   0  0  0  0  0  0  0  0  0  0  0  0
   45.1190   32.2590   47.8690 C   0  0  0  0  0  0  0  0  0  0  0  0
   46.1330   31.9740   48.9440 C   0  0  0  0  0  0  0  0  0  0  0  0
   47.1470   31.2010   48.1790 C   0  0  1  0  0  0  0  0  0  0  0  0
   47.2210   31.9870   46.8510 C   0  0  0  0  0  0  0  0  0  0  0  0
   48.4330   31.2460   48.8740 C   0  0  0  0  0  0  0  0  0  0  0  0
   49.2490   32.3280   49.2600 C   0  0  0  0  0  0  0  0  0  0  0  0
   50.4320   32.0570   49.9050 C   0  0  0  0  0  0  0  0  0  0  0  0
   50.7620   30.7400   50.1410 C   0  0  0  0  0  0  0  0  0  0  0  0
   49.3230   29.8100   49.4160 S   0  0  0  0  0  0  0  0  0  0  0  0
   51.9070   30.1950   50.7750 N   0  0  0  0  0  0  0  0  0  0  0  0
   52.7480   29.2900   50.3380 C   0  0  0  0  0  0  0  0  0  0  0  0
   53.7030   29.0510   51.2490 N   0  0  0  0  0  0  0  0  0  0  0  0
   53.4480   29.8370   52.2980 C   0  0  0  0  0  0  0  0  0  0  0  0
   52.3250   30.5550   52.0060 N   0  0  0  0  0  0  0  0  0  0  0  0
   54.1030   30.0380   53.5750 C   0  0  0  0  0  0  0  0  0  0  0  0
   55.2820   29.3620   53.8680 C   0  0  0  0  0  0  0  0  0  0  0  0
   55.6580   29.7340   55.0990 N   0  0  0  0  0  0  0  0  0  0  0  0
   54.7730   30.6040   55.5810 C   0  0  0  0  0  0  0  0  0  0  0  0
   53.8330   30.7870   54.6570 N   0  0  0  0  0  0  0  0  0  0  0  0
   43.9470   36.4829   45.3513 H   0  0  0  0  0  0  0  0  0  0  0  0
   44.8560   36.1791   43.0266 H   0  0  0  0  0  0  0  0  0  0  0  0
   46.3149   34.1463   42.5361 H   0  0  0  0  0  0  0  0  0  0  0  0
   44.4202   33.0503   48.1781 H   0  0  0  0  0  0  0  0  0  0  0  0
   44.4797   31.3986   47.6222 H   0  0  0  0  0  0  0  0  0  0  0  0
   46.5578   32.9017   49.3550 H   0  0  0  0  0  0  0  0  0  0  0  0
   45.7285   31.4479   49.8212 H   0  0  0  0  0  0  0  0  0  0  0  0
   46.9006   30.1369   48.0483 H   0  0  0  0  0  0  0  0  0  0  0  0
   47.3323   31.3030   45.9968 H   0  0  0  0  0  0  0  0  0  0  0  0
   48.0840   32.6678   46.8078 H   0  0  0  0  0  0  0  0  0  0  0  0
   48.9465   33.3646   49.0502 H   0  0  0  0  0  0  0  0  0  0  0  0
   51.0989   32.8712   50.2249 H   0  0  0  0  0  0  0  0  0  0  0  0
   52.6801   28.7943   49.3584 H   0  0  0  0  0  0  0  0  0  0  0  0
   55.8082   28.6536   53.2114 H   0  0  0  0  0  0  0  0  0  0  0  0
   54.8119   31.0865   56.5688 H   0  0  0  0  0  0  0  0  0  0  0  0
   53.0192   31.4104   54.7566 H   0  0  0  0  0  0  0  0  0  0  0  0
  1  6  2  0
  2  1  1  0
  3  2  2  0
  3  4  1  0
  4  5  2  0
  5  6  1  0
  5  7  1  0
  7 11  1  0
  7  8  1  0
  8  9  1  0
 10 12  1  0
 10  9  1  0
 11 10  1  0
 12 13  2  0
 12 16  1  0
 13 14  1  0
 14 15  2  0
 15 17  1  0
 16 15  1  0
 17 21  1  0
 18 17  1  0
 18 19  2  0
 19 20  1  0
 20 22  1  0
 21 20  2  0
 22 23  2  0
 22 26  1  0
 23 24  1  0
 24 25  2  0
 26 25  1  0
  1 27  1  0
  2 28  1  0
  3 29  1  0
  8 30  1  0
  8 31  1  0
  9 32  1  0
  9 33  1  0
 10 34  1  6
 11 35  1  0
 11 36  1  0
 13 37  1  0
 14 38  1  0
 18 39  1  0
 23 40  1  0
 25 41  1  0
 26 42  1  0
M  ISO  8  27  14  28  14  29  14  30  13  31  13  32  13  33  13  34  13
M  ISO  8  35  13  36  13  37  14  38  14  39  14  40  14  41  14  42   9
M  END
>  <minimizedAffinity>  (1) 
-5.88104773

>  <minimizedRMSD>  (1) 
1.83963847

$$$$
