
     RDKit          3D

 47 51  0  0  1  0  0  0  0  0999 V2000
   44.6160   35.7580   44.9040 C   0  0  0  0  0  0  0  0  0  0  0  0
   44.9550   35.4690   43.5610 C   0  0  0  0  0  0  0  0  0  0  0  0
   45.5810   34.2290   43.2870 C   0  0  0  0  0  0  0  0  0  0  0  0
   45.8280   33.3730   44.3320 N   0  0  0  0  0  0  0  0  0  0  0  0
   45.4830   33.7000   45.5910 C   0  0  0  0  0  0  0  0  0  0  0  0
   44.8770   34.8890   45.8920 N   0  0  0  0  0  0  0  0  0  0  0  0
   45.7750   32.7580   46.6070 N   0  0  0  0  0  0  0  0  0  0  0  0
   45.0110   32.4870   47.7790 C   0  0  0  0  0  0  0  0  0  0  0  0
   46.0820   32.1110   48.7610 C   0  0  0  0  0  0  0  0  0  0  0  0
   46.9150   31.1900   47.9460 C   0  0  1  0  0  0  0  0  0  0  0  0
   46.9490   31.9080   46.5810 C   0  0  0  0  0  0  0  0  0  0  0  0
   48.2650   31.1200   48.5180 C   0  0  0  0  0  0  0  0  0  0  0  0
   49.0550   32.0450   49.2270 C   0  0  0  0  0  0  0  0  0  0  0  0
   50.3040   31.6700   49.6220 C   0  0  0  0  0  0  0  0  0  0  0  0
   50.7420   30.3990   49.3120 C   0  0  0  0  0  0  0  0  0  0  0  0
   49.2980   29.6590   48.3920 S   0  0  0  0  0  0  0  0  0  0  0  0
   51.9760   29.7710   49.6070 N   0  0  0  0  0  0  0  0  0  0  0  0
   52.3450   28.5260   49.4190 C   0  0  0  0  0  0  0  0  0  0  0  0
   53.5990   28.3230   49.8460 N   0  0  0  0  0  0  0  0  0  0  0  0
   54.0390   29.4950   50.3230 C   0  0  0  0  0  0  0  0  0  0  0  0
   53.0200   30.4060   50.1740 N   0  0  0  0  0  0  0  0  0  0  0  0
   55.3040   29.8170   50.8910 N   0  0  0  0  0  0  0  0  0  0  0  0
   55.8410   31.0570   51.4240 C   0  0  0  0  0  0  0  0  0  0  0  0
   56.3230   30.5660   52.7900 C   0  0  0  0  0  0  0  0  0  0  0  0
   56.8110   29.1840   52.4900 C   0  0  0  0  0  0  0  0  0  0  0  0
   56.3920   28.8690   51.0570 C   0  0  0  0  0  0  0  0  0  0  0  0
   44.1285   36.7147   45.1427 H   0  0  0  0  0  0  0  0  0  0  0  0
   44.7389   36.1855   42.7548 H   0  0  0  0  0  0  0  0  0  0  0  0
   45.8634   33.9571   42.2592 H   0  0  0  0  0  0  0  0  0  0  0  0
   44.4572   33.3774   48.1113 H   0  0  0  0  0  0  0  0  0  0  0  0
   44.2409   31.7138   47.6408 H   0  0  0  0  0  0  0  0  0  0  0  0
   46.6560   32.9909   49.0871 H   0  0  0  0  0  0  0  0  0  0  0  0
   45.7023   31.6683   49.6936 H   0  0  0  0  0  0  0  0  0  0  0  0
   46.5364   30.1586   47.8928 H   0  0  0  0  0  0  0  0  0  0  0  0
   46.8897   31.1833   45.7556 H   0  0  0  0  0  0  0  0  0  0  0  0
   47.8792   32.4729   46.4210 H   0  0  0  0  0  0  0  0  0  0  0  0
   48.6717   33.0500   49.4574 H   0  0  0  0  0  0  0  0  0  0  0  0
   50.9499   32.3665   50.1767 H   0  0  0  0  0  0  0  0  0  0  0  0
   51.7081   27.7500   48.9695 H   0  0  0  0  0  0  0  0  0  0  0  0
   56.6701   31.4405   50.8113 H   0  0  0  0  0  0  0  0  0  0  0  0
   55.1306   31.8962   51.4554 H   0  0  0  0  0  0  0  0  0  0  0  0
   57.1363   31.1990   53.1745 H   0  0  0  0  0  0  0  0  0  0  0  0
   55.5421   30.5944   53.5642 H   0  0  0  0  0  0  0  0  0  0  0  0
   57.9063   29.1410   52.5823 H   0  0  0  0  0  0  0  0  0  0  0  0
   56.3860   28.4541   53.1946 H   0  0  0  0  0  0  0  0  0  0  0  0
   56.0460   27.8300   50.9531 H   0  0  0  0  0  0  0  0  0  0  0  0
   57.1966   28.9562   50.3121 H   0  0  0  0  0  0  0  0  0  0  0  0
  1  6  2  0
  2  1  1  0
  3  2  2  0
  3  4  1  0
  4  5  2  0
  5  6  1  0
  5  7  1  0
  7  8  1  0
  8  9  1  0
 10 12  1  0
 10  9  1  0
 11  7  1  0
 11 10  1  0
 12 13  2  0
 13 14  1  0
 15 17  1  0
 15 14  2  0
 16 12  1  0
 16 15  1  0
 17 21  1  0
 18 17  1  0
 18 19  2  0
 19 20  1  0
 20 22  1  0
 21 20  2  0
 22 26  1  0
 22 23  1  0
 23 24  1  0
 25 24  1  0
 26 25  1  0
  1 27  1  0
  2 28  1  0
  3 29  1  0
  8 30  1  0
  8 31  1  0
  9 32  1  0
  9 33  1  0
 10 34  1  6
 11 35  1  0
 11 36  1  0
 13 37  1  0
 14 38  1  0
 18 39  1  0
 23 40  1  0
 23 41  1  0
 24 42  1  0
 24 43  1  0
 25 44  1  0
 25 45  1  0
 26 46  1  0
 26 47  1  0
M  ISO  8  27  14  28  14  29  14  30  13  31  13  32  13  33  13  34  13
M  ISO  8  35  13  36  13  37  14  38  14  39  14  40  13  41  13  42  13
M  ISO  5  43  13  44  13  45  13  46  13  47  13
M  END
>  <minimizedAffinity>  (1) 
-5.46385813

>  <minimizedRMSD>  (1) 
0.044139117

$$$$
