
     RDKit          3D

 36 39  0  0  1  0  0  0  0  0999 V2000
   44.6170   35.7550   44.9080 C   0  0  0  0  0  0  0  0  0  0  0  0
   44.9560   35.4640   43.5690 C   0  0  0  0  0  0  0  0  0  0  0  0
   45.5830   34.2250   43.2870 C   0  0  0  0  0  0  0  0  0  0  0  0
   45.8330   33.3660   44.3310 N   0  0  0  0  0  0  0  0  0  0  0  0
   45.4890   33.6930   45.5950 C   0  0  0  0  0  0  0  0  0  0  0  0
   44.8830   34.8830   45.8910 N   0  0  0  0  0  0  0  0  0  0  0  0
   45.7720   32.7720   46.6140 N   0  0  0  0  0  0  0  0  0  0  0  0
   45.0220   32.5200   47.7990 C   0  0  0  0  0  0  0  0  0  0  0  0
   46.0930   32.1210   48.7710 C   0  0  0  0  0  0  0  0  0  0  0  0
   46.9130   31.1980   47.9490 C   0  0  1  0  0  0  0  0  0  0  0  0
   46.9550   31.9030   46.5770 C   0  0  0  0  0  0  0  0  0  0  0  0
   48.2620   31.0960   48.5010 C   0  0  0  0  0  0  0  0  0  0  0  0
   49.0490   32.0220   49.2170 C   0  0  0  0  0  0  0  0  0  0  0  0
   50.3120   31.6440   49.6170 C   0  0  0  0  0  0  0  0  0  0  0  0
   50.7410   30.3720   49.2900 C   0  0  0  0  0  0  0  0  0  0  0  0
   49.2990   29.6410   48.3660 S   0  0  0  0  0  0  0  0  0  0  0  0
   51.9850   29.7440   49.5870 N   0  0  0  0  0  0  0  0  0  0  0  0
   52.3280   28.4880   49.4180 C   0  0  0  0  0  0  0  0  0  0  0  0
   53.5970   28.2880   49.8270 N   0  0  0  0  0  0  0  0  0  0  0  0
   54.0460   29.4680   50.2630 C   0  0  0  0  0  0  0  0  0  0  0  0
   53.0490   30.3900   50.1190 N   0  0  0  0  0  0  0  0  0  0  0  0
   55.3140   29.6850   50.7680 O   0  0  0  0  0  0  0  0  0  0  0  0
   44.1278   36.7105   45.1483 H   0  0  0  0  0  0  0  0  0  0  0  0
   44.7387   36.1816   42.7641 H   0  0  0  0  0  0  0  0  0  0  0  0
   45.8630   33.9569   42.2576 H   0  0  0  0  0  0  0  0  0  0  0  0
   44.4933   33.4236   48.1364 H   0  0  0  0  0  0  0  0  0  0  0  0
   44.2355   31.7616   47.6717 H   0  0  0  0  0  0  0  0  0  0  0  0
   46.6787   32.9911   49.1025 H   0  0  0  0  0  0  0  0  0  0  0  0
   45.7100   31.6728   49.6997 H   0  0  0  0  0  0  0  0  0  0  0  0
   46.5101   30.1754   47.9056 H   0  0  0  0  0  0  0  0  0  0  0  0
   46.8844   31.1743   45.7560 H   0  0  0  0  0  0  0  0  0  0  0  0
   47.8911   32.4535   46.4017 H   0  0  0  0  0  0  0  0  0  0  0  0
   48.6625   33.0249   49.4511 H   0  0  0  0  0  0  0  0  0  0  0  0
   50.9588   32.3335   50.1793 H   0  0  0  0  0  0  0  0  0  0  0  0
   51.6726   27.7089   49.0015 H   0  0  0  0  0  0  0  0  0  0  0  0
   55.5772   30.5893   51.0731 H   0  0  0  0  0  0  0  0  0  0  0  0
  1  6  2  0
  2  1  1  0
  3  2  2  0
  3  4  1  0
  4  5  2  0
  5  6  1  0
  5  7  1  0
  7  8  1  0
  8  9  1  0
 10 12  1  0
 10  9  1  0
 11  7  1  0
 11 10  1  0
 12 13  2  0
 13 14  1  0
 15 17  1  0
 15 14  2  0
 16 12  1  0
 16 15  1  0
 17 21  1  0
 18 17  1  0
 18 19  2  0
 19 20  1  0
 20 22  1  0
 21 20  2  0
  1 23  1  0
  2 24  1  0
  3 25  1  0
  8 26  1  0
  8 27  1  0
  9 28  1  0
  9 29  1  0
 10 30  1  6
 11 31  1  0
 11 32  1  0
 13 33  1  0
 14 34  1  0
 18 35  1  0
 22 36  1  0
M  ISO  8  23  14  24  14  25  14  26  13  27  13  28  13  29  13  30  13
M  ISO  6  31  13  32  13  33  14  34  14  35  14  36   3
M  END
>  <minimizedAffinity>  (1) 
-5.30456924

>  <minimizedRMSD>  (1) 
0.0124907689

$$$$
