
     RDKit          3D

 44 48  0  0  1  0  0  0  0  0999 V2000
   44.6230   35.7570   44.9030 C   0  0  0  0  0  0  0  0  0  0  0  0
   44.9600   35.4660   43.5600 C   0  0  0  0  0  0  0  0  0  0  0  0
   45.5830   34.2220   43.2840 C   0  0  0  0  0  0  0  0  0  0  0  0
   45.8280   33.3640   44.3310 N   0  0  0  0  0  0  0  0  0  0  0  0
   45.4810   33.7000   45.5970 C   0  0  0  0  0  0  0  0  0  0  0  0
   44.8810   34.8880   45.8920 N   0  0  0  0  0  0  0  0  0  0  0  0
   45.7710   32.7590   46.6040 N   0  0  0  0  0  0  0  0  0  0  0  0
   45.0080   32.4850   47.7810 C   0  0  0  0  0  0  0  0  0  0  0  0
   46.0870   32.1200   48.7680 C   0  0  0  0  0  0  0  0  0  0  0  0
   46.9110   31.1910   47.9550 C   0  0  1  0  0  0  0  0  0  0  0  0
   46.9420   31.8990   46.5800 C   0  0  0  0  0  0  0  0  0  0  0  0
   48.2600   31.1080   48.5190 C   0  0  0  0  0  0  0  0  0  0  0  0
   49.0560   32.0320   49.2250 C   0  0  0  0  0  0  0  0  0  0  0  0
   50.3060   31.6480   49.6150 C   0  0  0  0  0  0  0  0  0  0  0  0
   50.7380   30.3750   49.3030 C   0  0  0  0  0  0  0  0  0  0  0  0
   49.2820   29.6450   48.3890 S   0  0  0  0  0  0  0  0  0  0  0  0
   51.9740   29.7340   49.5830 N   0  0  0  0  0  0  0  0  0  0  0  0
   52.3190   28.4810   49.4180 C   0  0  0  0  0  0  0  0  0  0  0  0
   53.5950   28.2900   49.8210 N   0  0  0  0  0  0  0  0  0  0  0  0
   54.0530   29.4690   50.2500 C   0  0  0  0  0  0  0  0  0  0  0  0
   53.0340   30.3810   50.1020 N   0  0  0  0  0  0  0  0  0  0  0  0
   55.3770   29.7700   50.7820 C   0  0  0  0  0  0  0  0  0  0  0  0
   55.6790   29.3500   52.0600 C   0  0  0  0  0  0  0  0  0  0  0  0
   56.9400   29.6470   52.5440 C   0  0  0  0  0  0  0  0  0  0  0  0
   57.8840   30.3370   51.7940 C   0  0  0  0  0  0  0  0  0  0  0  0
   57.5200   30.7290   50.5250 C   0  0  0  0  0  0  0  0  0  0  0  0
   56.2880   30.4310   50.0740 N   0  0  0  0  0  0  0  0  0  0  0  0
   44.1393   36.7158   45.1412 H   0  0  0  0  0  0  0  0  0  0  0  0
   44.7453   36.1831   42.7540 H   0  0  0  0  0  0  0  0  0  0  0  0
   45.8639   33.9495   42.2560 H   0  0  0  0  0  0  0  0  0  0  0  0
   44.4469   33.3719   48.1104 H   0  0  0  0  0  0  0  0  0  0  0  0
   44.2445   31.7048   47.6460 H   0  0  0  0  0  0  0  0  0  0  0  0
   46.6636   33.0029   49.0812 H   0  0  0  0  0  0  0  0  0  0  0  0
   45.7142   31.6903   49.7095 H   0  0  0  0  0  0  0  0  0  0  0  0
   46.5243   30.1622   47.9109 H   0  0  0  0  0  0  0  0  0  0  0  0
   46.8737   31.1674   45.7614 H   0  0  0  0  0  0  0  0  0  0  0  0
   47.8749   32.4567   46.4107 H   0  0  0  0  0  0  0  0  0  0  0  0
   48.6786   33.0390   49.4562 H   0  0  0  0  0  0  0  0  0  0  0  0
   50.9575   32.3406   50.1681 H   0  0  0  0  0  0  0  0  0  0  0  0
   51.6642   27.6969   49.0100 H   0  0  0  0  0  0  0  0  0  0  0  0
   54.9466   28.8009   52.6700 H   0  0  0  0  0  0  0  0  0  0  0  0
   57.2056   29.3246   53.5616 H   0  0  0  0  0  0  0  0  0  0  0  0
   58.8824   30.5613   52.1976 H   0  0  0  0  0  0  0  0  0  0  0  0
   58.2280   31.2791   49.8878 H   0  0  0  0  0  0  0  0  0  0  0  0
  1  6  2  0
  2  1  1  0
  3  2  2  0
  3  4  1  0
  4  5  2  0
  5  6  1  0
  5  7  1  0
  7  8  1  0
  8  9  1  0
 10 12  1  0
 10  9  1  0
 11  7  1  0
 11 10  1  0
 12 13  2  0
 13 14  1  0
 15 17  1  0
 15 14  2  0
 16 12  1  0
 16 15  1  0
 17 21  1  0
 18 17  1  0
 18 19  2  0
 19 20  1  0
 20 22  1  0
 21 20  2  0
 22 23  2  0
 23 24  1  0
 25 24  2  0
 26 25  1  0
 27 26  2  0
 27 22  1  0
  1 28  1  0
  2 29  1  0
  3 30  1  0
  8 31  1  0
  8 32  1  0
  9 33  1  0
  9 34  1  0
 10 35  1  6
 11 36  1  0
 11 37  1  0
 13 38  1  0
 14 39  1  0
 18 40  1  0
 23 41  1  0
 24 42  1  0
 25 43  1  0
 26 44  1  0
M  ISO  8  28  14  29  14  30  14  31  13  32  13  33  13  34  13  35  13
M  ISO  8  36  13  37  13  38  14  39  14  40  14  41  14  42  14  43  14
M  ISO  1  44  14
M  END
>  <minimizedAffinity>  (1) 
-5.18924189

>  <minimizedRMSD>  (1) 
0.0328075364

$$$$
