
     RDKit          3D

 45 47  0  0  1  0  0  0  0  0999 V2000
   46.1020   34.5930   43.2150 C   0  0  0  0  0  0  0  0  0  0  0  0
   45.8540   33.8280   44.3830 C   0  0  0  0  0  0  0  0  0  0  0  0
   45.0720   34.3900   45.3920 C   0  0  0  0  0  0  0  0  0  0  0  0
   44.5850   35.6310   45.2270 N   0  0  0  0  0  0  0  0  0  0  0  0
   44.8110   36.3600   44.1380 C   0  0  0  0  0  0  0  0  0  0  0  0
   45.5580   35.8390   43.1590 N   0  0  0  0  0  0  0  0  0  0  0  0
   46.8950   34.1920   42.1040 C   0  0  0  0  0  0  0  0  0  0  0  0
   46.0670   34.1830   40.7870 C   0  0  0  0  0  0  0  0  0  0  0  0
   47.2420   34.0760   39.7730 C   0  0  0  0  0  0  0  0  0  0  0  0
   48.3740   34.8050   40.4140 C   0  0  0  0  0  0  0  0  0  0  0  0
   47.8870   35.2810   41.7650 C   0  0  0  0  0  0  0  0  0  0  0  0
   46.4190   32.4640   44.4740 C   0  0  1  0  0  0  0  0  0  0  0  0
   47.8490   32.3950   44.1140 C   0  0  0  0  0  0  0  0  0  0  0  0
   45.9630   31.8190   45.7210 C   0  0  0  0  0  0  0  0  0  0  0  0
   47.2720   31.5340   46.5800 C   0  0  0  0  0  0  0  0  0  0  0  0
   47.1990   30.1550   47.1620 C   0  0  0  0  0  0  0  0  0  0  0  0
   47.1550   30.3320   48.6730 C   0  0  0  0  0  0  0  0  0  0  0  0
   47.9510   31.6160   48.8440 C   0  0  0  0  0  0  0  0  0  0  0  0
   47.3450   32.4770   47.7290 C   0  0  0  0  0  0  0  0  0  0  0  0
   44.8569   33.8245   46.3107 H   0  0  0  0  0  0  0  0  0  0  0  0
   44.3913   37.3725   44.0444 H   0  0  0  0  0  0  0  0  0  0  0  0
   47.3189   33.2174   42.3875 H   0  0  0  0  0  0  0  0  0  0  0  0
   45.3903   33.3177   40.7293 H   0  0  0  0  0  0  0  0  0  0  0  0
   45.3902   35.0382   40.6437 H   0  0  0  0  0  0  0  0  0  0  0  0
   46.9712   34.5471   38.8166 H   0  0  0  0  0  0  0  0  0  0  0  0
   47.4991   33.0304   39.5480 H   0  0  0  0  0  0  0  0  0  0  0  0
   49.2345   34.1313   40.5388 H   0  0  0  0  0  0  0  0  0  0  0  0
   48.6961   35.6533   39.7923 H   0  0  0  0  0  0  0  0  0  0  0  0
   48.7057   35.3262   42.4982 H   0  0  0  0  0  0  0  0  0  0  0  0
   47.4676   36.2979   41.7672 H   0  0  0  0  0  0  0  0  0  0  0  0
   46.0108   31.8197   43.6814 H   0  0  0  0  0  0  0  0  0  0  0  0
   48.4568   32.3657   45.0304 H   0  0  0  0  0  0  0  0  0  0  0  0
   48.0346   31.4869   43.5217 H   0  0  0  0  0  0  0  0  0  0  0  0
   48.1212   33.2811   43.5217 H   0  0  0  0  0  0  0  0  0  0  0  0
   45.2850   32.4886   46.2705 H   0  0  0  0  0  0  0  0  0  0  0  0
   45.4112   30.8905   45.5126 H   0  0  0  0  0  0  0  0  0  0  0  0
   48.1452   31.6481   45.9208 H   0  0  0  0  0  0  0  0  0  0  0  0
   46.2916   29.6412   46.8119 H   0  0  0  0  0  0  0  0  0  0  0  0
   48.0615   29.5450   46.8554 H   0  0  0  0  0  0  0  0  0  0  0  0
   46.1228   30.4465   49.0354 H   0  0  0  0  0  0  0  0  0  0  0  0
   47.5517   29.4764   49.2392 H   0  0  0  0  0  0  0  0  0  0  0  0
   47.7892   32.0642   49.8354 H   0  0  0  0  0  0  0  0  0  0  0  0
   49.0418   31.4888   48.7808 H   0  0  0  0  0  0  0  0  0  0  0  0
   47.9927   33.3350   47.4958 H   0  0  0  0  0  0  0  0  0  0  0  0
   46.3700   32.9099   47.9971 H   0  0  0  0  0  0  0  0  0  0  0  0
  1  2  1  0
  2 12  1  0
  2  3  2  0
  4  3  1  0
  5  4  2  0
  6  1  2  0
  6  5  1  0
  7  1  1  0
  8  7  1  0
  9 10  1  0
  9  8  1  0
 10 11  1  0
 11  7  1  0
 12 14  1  0
 13 12  1  0
 14 15  1  0
 15 16  1  0
 15 19  1  0
 16 17  1  0
 17 18  1  0
 19 18  1  0
  3 20  1  0
  5 21  1  0
  7 22  1  0
  8 23  1  0
  8 24  1  0
  9 25  1  0
  9 26  1  0
 10 27  1  0
 10 28  1  0
 11 29  1  0
 11 30  1  0
 12 31  1  6
 13 32  1  0
 13 33  1  0
 13 34  1  0
 14 35  1  0
 14 36  1  0
 15 37  1  0
 16 38  1  0
 16 39  1  0
 17 40  1  0
 17 41  1  0
 18 42  1  0
 18 43  1  0
 19 44  1  0
 19 45  1  0
M  ISO  8  20  14  21  14  22  13  23  13  24  13  25  13  26  13  27  13
M  ISO  8  28  13  29  13  30  13  31   8  32   8  33   8  34   8  35   8
M  ISO  8  36   8  37  13  38  13  39  13  40  13  41  13  42  13  43  13
M  ISO  2  44  13  45  13
M  END
>  <minimizedAffinity>  (1) 
-5.24970293

>  <minimizedRMSD>  (1) 
4.23782587

$$$$
