
     RDKit          3D

 33 36  0  0  0  0  0  0  0  0999 V2000
   44.4860   35.9740   44.1140 C   0  0  0  0  0  0  0  0  0  0  0  0
   45.3230   35.8940   42.9690 C   0  0  0  0  0  0  0  0  0  0  0  0
   46.3470   34.9320   42.9580 C   0  0  0  0  0  0  0  0  0  0  0  0
   46.4760   34.1360   44.0450 N   0  0  0  0  0  0  0  0  0  0  0  0
   45.6680   34.2390   45.1110 C   0  0  0  0  0  0  0  0  0  0  0  0
   44.6760   35.1430   45.1660 N   0  0  0  0  0  0  0  0  0  0  0  0
   46.0270   33.2800   46.1090 N   0  0  0  0  0  0  0  0  0  0  0  0
   46.9410   32.3160   46.0920 C   0  0  0  0  0  0  0  0  0  0  0  0
   47.0880   31.5170   47.2020 C   0  0  0  0  0  0  0  0  0  0  0  0
   46.3180   31.6910   48.3260 C   0  0  0  0  0  0  0  0  0  0  0  0
   46.4730   30.9480   49.3290 O   0  0  0  0  0  0  0  0  0  0  0  0
   45.4020   32.6760   48.3120 N   0  0  0  0  0  0  0  0  0  0  0  0
   45.2500   33.4710   47.2130 C   0  0  0  0  0  0  0  0  0  0  0  0
   44.3440   34.3400   47.3810 O   0  0  0  0  0  0  0  0  0  0  0  0
   47.1510   34.8890   41.8030 N   0  0  0  0  0  0  0  0  0  0  0  0
   48.3540   35.5010   41.7300 C   0  0  0  0  0  0  0  0  0  0  0  0
   48.8680   35.2740   40.4970 N   0  0  0  0  0  0  0  0  0  0  0  0
   47.9980   34.5230   39.7950 C   0  0  0  0  0  0  0  0  0  0  0  0
   48.0590   34.0310   38.5020 C   0  0  0  0  0  0  0  0  0  0  0  0
   46.9820   33.2930   38.1010 N   0  0  0  0  0  0  0  0  0  0  0  0
   45.9270   33.0550   38.9030 C   0  0  0  0  0  0  0  0  0  0  0  0
   45.8910   33.5520   40.1710 N   0  0  0  0  0  0  0  0  0  0  0  0
   46.9250   34.2840   40.6130 C   0  0  0  0  0  0  0  0  0  0  0  0
   49.1810   34.2920   37.6700 N   0  0  0  0  0  0  0  0  0  0  0  0
   43.6762   36.7178   44.1463 H   0  0  0  0  0  0  0  0  0  0  0  0
   45.1732   36.5681   42.1127 H   0  0  0  0  0  0  0  0  0  0  0  0
   47.5707   32.1592   45.2038 H   0  0  0  0  0  0  0  0  0  0  0  0
   47.8428   30.7169   47.1891 H   0  0  0  0  0  0  0  0  0  0  0  0
   44.8089   32.8320   49.1396 H   0  0  0  0  0  0  0  0  0  0  0  0
   48.8325   36.0822   42.5320 H   0  0  0  0  0  0  0  0  0  0  0  0
   45.0852   32.4529   38.5305 H   0  0  0  0  0  0  0  0  0  0  0  0
   49.2090   33.9178   36.7108 H   0  0  0  0  0  0  0  0  0  0  0  0
   49.9663   34.8554   38.0261 H   0  0  0  0  0  0  0  0  0  0  0  0
  1  6  2  0
  2  1  1  0
  3  2  2  0
  3  4  1  0
  4  5  2  0
  5  6  1  0
  5  7  1  0
  7 13  1  0
  8  7  1  0
  8  9  2  0
  9 10  1  0
 10 11  2  0
 12 10  1  0
 13 14  2  0
 13 12  1  0
 15  3  1  0
 16 15  1  0
 17 16  2  0
 18 17  1  0
 18 23  2  0
 19 18  1  0
 20 19  2  0
 20 21  1  0
 21 22  2  0
 22 23  1  0
 23 15  1  0
 24 19  1  0
  1 25  1  0
  2 26  1  0
  8 27  1  0
  9 28  1  0
 12 29  1  0
 16 30  1  0
 21 31  1  0
 24 32  1  0
 24 33  1  0
M  ISO  7  25  14  26  14  27  14  28  14  29   9  30  14  31  14
M  END
>  <minimizedAffinity>  (1) 
-7.65145922

>  <minimizedRMSD>  (1) 
0.296189517

$$$$
