
     RDKit          3D

 30 32  0  0  0  0  0  0  0  0999 V2000
   44.5550   35.9110   44.3560 C   0  0  0  0  0  0  0  0  0  0  0  0
   45.3800   35.8690   43.1950 C   0  0  0  0  0  0  0  0  0  0  0  0
   46.3290   34.8480   43.0880 C   0  0  0  0  0  0  0  0  0  0  0  0
   46.4080   33.9520   44.1010 N   0  0  0  0  0  0  0  0  0  0  0  0
   45.6200   34.0120   45.1830 C   0  0  0  0  0  0  0  0  0  0  0  0
   44.6960   34.9760   45.3280 N   0  0  0  0  0  0  0  0  0  0  0  0
   45.7610   33.0340   46.2090 N   0  0  0  0  0  0  0  0  0  0  0  0
   44.9290   33.0820   47.3700 C   0  0  0  0  0  0  0  0  0  0  0  0
   44.4830   34.2260   47.7770 N   0  0  0  0  0  0  0  0  0  0  0  0
   44.6480   31.8220   48.0050 N   0  0  0  0  0  0  0  0  0  0  0  0
   43.8820   34.3660   48.5950 H   0  0  0  0  0  0  0  0  0  0  0  0
   47.1200   34.8500   41.9250 N   0  0  0  0  0  0  0  0  0  0  0  0
   48.3020   35.4930   41.8460 C   0  0  0  0  0  0  0  0  0  0  0  0
   48.8120   35.3050   40.6050 N   0  0  0  0  0  0  0  0  0  0  0  0
   47.9660   34.5530   39.9060 C   0  0  0  0  0  0  0  0  0  0  0  0
   48.0020   34.0700   38.6020 C   0  0  0  0  0  0  0  0  0  0  0  0
   46.9570   33.3150   38.1960 N   0  0  0  0  0  0  0  0  0  0  0  0
   45.9190   33.0360   39.0050 C   0  0  0  0  0  0  0  0  0  0  0  0
   45.8890   33.5120   40.2800 N   0  0  0  0  0  0  0  0  0  0  0  0
   46.8920   34.2580   40.7290 C   0  0  0  0  0  0  0  0  0  0  0  0
   49.1160   34.3810   37.7560 N   0  0  0  0  0  0  0  0  0  0  0  0
   43.8011   36.7047   44.4642 H   0  0  0  0  0  0  0  0  0  0  0  0
   45.2726   36.6227   42.4010 H   0  0  0  0  0  0  0  0  0  0  0  0
   46.4657   32.2889   46.1137 H   0  0  0  0  0  0  0  0  0  0  0  0
   44.0543   31.7902   48.8461 H   0  0  0  0  0  0  0  0  0  0  0  0
   45.0405   30.9517   47.6186 H   0  0  0  0  0  0  0  0  0  0  0  0
   48.7733   36.0728   42.6533 H   0  0  0  0  0  0  0  0  0  0  0  0
   45.0880   32.4184   38.6333 H   0  0  0  0  0  0  0  0  0  0  0  0
   49.1445   34.0243   36.7901 H   0  0  0  0  0  0  0  0  0  0  0  0
   49.8882   34.9612   38.1138 H   0  0  0  0  0  0  0  0  0  0  0  0
  1  6  2  0
  2  1  1  0
  3  2  2  0
  3  4  1  0
  4  5  2  0
  5  6  1  0
  5  7  1  0
  7  8  1  0
  8  9  2  0
  8 10  1  0
  9 11  1  0
 12  3  1  0
 13 12  1  0
 14 13  2  0
 15 14  1  0
 15 20  2  0
 16 15  1  0
 17 16  2  0
 17 18  1  0
 18 19  2  0
 19 20  1  0
 20 12  1  0
 21 16  1  0
  1 22  1  0
  2 23  1  0
  7 24  1  0
 10 25  1  0
 10 26  1  0
 13 27  1  0
 18 28  1  0
 21 29  1  0
 21 30  1  0
M  ISO  4  22  14  23  14  27  14  28  14
M  END
>  <minimizedAffinity>  (1) 
-7.31840849

>  <minimizedRMSD>  (1) 
0.0574247688

$$$$
