
     RDKit          3D

 39 43  0  0  0  0  0  0  0  0999 V2000
   44.5220   35.9920   44.4400 C   0  0  0  0  0  0  0  0  0  0  0  0
   45.3140   35.9560   43.2520 C   0  0  0  0  0  0  0  0  0  0  0  0
   46.2290   34.9270   43.1770 C   0  0  0  0  0  0  0  0  0  0  0  0
   46.2820   34.0740   44.2150 N   0  0  0  0  0  0  0  0  0  0  0  0
   45.5500   34.1030   45.3200 C   0  0  0  0  0  0  0  0  0  0  0  0
   44.6560   35.0840   45.4230 N   0  0  0  0  0  0  0  0  0  0  0  0
   47.0320   34.8670   42.0100 N   0  0  0  0  0  0  0  0  0  0  0  0
   48.2480   35.4860   41.9400 C   0  0  0  0  0  0  0  0  0  0  0  0
   48.7680   35.2660   40.7110 N   0  0  0  0  0  0  0  0  0  0  0  0
   47.8930   34.5160   40.0110 C   0  0  0  0  0  0  0  0  0  0  0  0
   47.9490   34.0250   38.7210 C   0  0  0  0  0  0  0  0  0  0  0  0
   46.8840   33.2920   38.3170 N   0  0  0  0  0  0  0  0  0  0  0  0
   45.8250   33.0510   39.1170 C   0  0  0  0  0  0  0  0  0  0  0  0
   45.7880   33.5460   40.3890 N   0  0  0  0  0  0  0  0  0  0  0  0
   46.8080   34.2690   40.8300 C   0  0  0  0  0  0  0  0  0  0  0  0
   49.0590   34.2910   37.8800 N   0  0  0  0  0  0  0  0  0  0  0  0
   45.9020   33.0070   46.2130 C   0  0  0  0  0  0  0  0  0  0  0  0
   45.4870   32.9340   47.5130 C   0  0  0  0  0  0  0  0  0  0  0  0
   45.8050   31.9140   48.3760 C   0  0  0  0  0  0  0  0  0  0  0  0
   46.5880   30.8690   47.9640 C   0  0  0  0  0  0  0  0  0  0  0  0
   47.0370   30.8870   46.6640 C   0  0  0  0  0  0  0  0  0  0  0  0
   47.8240   29.8260   46.2700 C   0  0  0  0  0  0  0  0  0  0  0  0
   48.3100   29.7780   44.9800 C   0  0  0  0  0  0  0  0  0  0  0  0
   47.9760   30.8230   44.1210 C   0  0  0  0  0  0  0  0  0  0  0  0
   47.1860   31.8530   44.5760 C   0  0  0  0  0  0  0  0  0  0  0  0
   46.6840   31.9370   45.8490 C   0  0  0  0  0  0  0  0  0  0  0  0
   43.7753   36.7915   44.5551 H   0  0  0  0  0  0  0  0  0  0  0  0
   45.2015   36.7001   42.4497 H   0  0  0  0  0  0  0  0  0  0  0  0
   48.7231   36.0647   42.7459 H   0  0  0  0  0  0  0  0  0  0  0  0
   44.9836   32.4503   38.7412 H   0  0  0  0  0  0  0  0  0  0  0  0
   49.0805   33.9151   36.9213 H   0  0  0  0  0  0  0  0  0  0  0  0
   49.8439   34.8601   38.2277 H   0  0  0  0  0  0  0  0  0  0  0  0
   44.8543   33.7488   47.8947 H   0  0  0  0  0  0  0  0  0  0  0  0
   45.4268   31.9368   49.4087 H   0  0  0  0  0  0  0  0  0  0  0  0
   46.8480   30.0465   48.6466 H   0  0  0  0  0  0  0  0  0  0  0  0
   48.0633   29.0215   46.9810 H   0  0  0  0  0  0  0  0  0  0  0  0
   48.9402   28.9427   44.6407 H   0  0  0  0  0  0  0  0  0  0  0  0
   48.3424   30.8243   43.0838 H   0  0  0  0  0  0  0  0  0  0  0  0
   46.9410   32.6623   43.8724 H   0  0  0  0  0  0  0  0  0  0  0  0
  1  6  2  0
  2  1  1  0
  3  2  2  0
  3  4  1  0
  4  5  2  0
  5  6  1  0
  5 17  1  0
  7  3  1  0
  8  7  1  0
  9  8  2  0
 10  9  1  0
 10 15  2  0
 11 10  1  0
 12 11  2  0
 12 13  1  0
 13 14  2  0
 14 15  1  0
 15  7  1  0
 16 11  1  0
 17 18  2  0
 18 19  1  0
 20 19  2  0
 21 20  1  0
 22 21  2  0
 23 22  1  0
 24 25  1  0
 24 23  2  0
 25 26  2  0
 26 17  1  0
 26 21  1  0
  1 27  1  0
  2 28  1  0
  8 29  1  0
 13 30  1  0
 16 31  1  0
 16 32  1  0
 18 33  1  0
 19 34  1  0
 20 35  1  0
 22 36  1  0
 23 37  1  0
 24 38  1  0
 25 39  1  0
M  ISO  8  27  14  28  14  29  14  30  14  33  14  34  14  35  14  36  14
M  ISO  3  37  14  38  14  39  14
M  END
>  <minimizedAffinity>  (1) 
-7.5255332

>  <minimizedRMSD>  (1) 
0.383755386

$$$$
