
     RDKit          3D

 30 33  0  0  0  0  0  0  0  0999 V2000
   46.9630   34.8400   42.0210 N   0  0  0  0  0  0  0  0  0  0  0  0
   48.1990   35.3800   41.9200 C   0  0  0  0  0  0  0  0  0  0  0  0
   48.6810   35.0980   40.6830 N   0  0  0  0  0  0  0  0  0  0  0  0
   47.7680   34.3950   40.0170 C   0  0  0  0  0  0  0  0  0  0  0  0
   47.7670   33.8690   38.7390 C   0  0  0  0  0  0  0  0  0  0  0  0
   46.6590   33.1880   38.3520 N   0  0  0  0  0  0  0  0  0  0  0  0
   45.6000   33.0300   39.1780 C   0  0  0  0  0  0  0  0  0  0  0  0
   45.6050   33.5500   40.4390 N   0  0  0  0  0  0  0  0  0  0  0  0
   46.6840   34.2270   40.8500 C   0  0  0  0  0  0  0  0  0  0  0  0
   48.8890   34.0420   37.8760 N   0  0  0  0  0  0  0  0  0  0  0  0
   44.4740   36.1210   44.4140 C   0  0  0  0  0  0  0  0  0  0  0  0
   45.2680   36.0010   43.2330 C   0  0  0  0  0  0  0  0  0  0  0  0
   46.1780   34.9530   43.1930 C   0  0  0  0  0  0  0  0  0  0  0  0
   46.2540   34.1150   44.2700 N   0  0  0  0  0  0  0  0  0  0  0  0
   45.4960   34.2540   45.3600 C   0  0  0  0  0  0  0  0  0  0  0  0
   44.6020   35.2500   45.4500 N   0  0  0  0  0  0  0  0  0  0  0  0
   45.6850   33.2850   46.4350 C   0  0  0  0  0  0  0  0  0  0  0  0
   46.5830   32.2380   46.4920 C   0  0  0  0  0  0  0  0  0  0  0  0
   46.4240   31.5830   47.6730 N   0  0  0  0  0  0  0  0  0  0  0  0
   45.4480   32.2300   48.3070 C   0  0  0  0  0  0  0  0  0  0  0  0
   44.9710   33.2790   47.5760 N   0  0  0  0  0  0  0  0  0  0  0  0
   48.7220   35.9482   42.7033 H   0  0  0  0  0  0  0  0  0  0  0  0
   44.7192   32.4724   38.8269 H   0  0  0  0  0  0  0  0  0  0  0  0
   48.8741   33.6443   36.9260 H   0  0  0  0  0  0  0  0  0  0  0  0
   49.7143   34.5646   38.2027 H   0  0  0  0  0  0  0  0  0  0  0  0
   43.7411   36.9380   44.4872 H   0  0  0  0  0  0  0  0  0  0  0  0
   45.1636   36.7055   42.3947 H   0  0  0  0  0  0  0  0  0  0  0  0
   47.3096   31.9760   45.7088 H   0  0  0  0  0  0  0  0  0  0  0  0
   45.0709   31.9518   49.3022 H   0  0  0  0  0  0  0  0  0  0  0  0
   44.2198   33.9314   47.8424 H   0  0  0  0  0  0  0  0  0  0  0  0
  1 13  1  0
  2  1  1  0
  3  2  2  0
  4  3  1  0
  4  9  2  0
  5  4  1  0
  6  5  2  0
  6  7  1  0
  7  8  2  0
  8  9  1  0
  9  1  1  0
 10  5  1  0
 11 16  2  0
 12 11  1  0
 13 12  2  0
 13 14  1  0
 14 15  2  0
 15 16  1  0
 15 17  1  0
 17 18  2  0
 17 21  1  0
 18 19  1  0
 19 20  2  0
 21 20  1  0
  2 22  1  0
  7 23  1  0
 10 24  1  0
 10 25  1  0
 11 26  1  0
 12 27  1  0
 18 28  1  0
 20 29  1  0
 21 30  1  0
M  ISO  7  22  14  23  14  26  14  27  14  28  14  29  14  30   9
M  END
>  <minimizedAffinity>  (1) 
-6.90743637

>  <minimizedRMSD>  (1) 
0.473629355

$$$$
