
     RDKit          3D

 31 34  0  0  0  0  0  0  0  0999 V2000
   44.5650   35.8170   44.4360 C   0  0  0  0  0  0  0  0  0  0  0  0
   45.3570   35.8090   43.2510 C   0  0  0  0  0  0  0  0  0  0  0  0
   46.3460   34.8420   43.1560 C   0  0  0  0  0  0  0  0  0  0  0  0
   46.4940   33.9730   44.1860 N   0  0  0  0  0  0  0  0  0  0  0  0
   45.7400   34.0000   45.2880 C   0  0  0  0  0  0  0  0  0  0  0  0
   44.7680   34.9140   45.4340 N   0  0  0  0  0  0  0  0  0  0  0  0
   47.1210   34.8480   41.9790 N   0  0  0  0  0  0  0  0  0  0  0  0
   48.3060   35.5080   41.8920 C   0  0  0  0  0  0  0  0  0  0  0  0
   48.7980   35.3200   40.6390 N   0  0  0  0  0  0  0  0  0  0  0  0
   47.9480   34.5570   39.9450 C   0  0  0  0  0  0  0  0  0  0  0  0
   48.0000   34.0940   38.6500 C   0  0  0  0  0  0  0  0  0  0  0  0
   46.9430   33.3230   38.2490 N   0  0  0  0  0  0  0  0  0  0  0  0
   45.9130   33.0330   39.0730 C   0  0  0  0  0  0  0  0  0  0  0  0
   45.8850   33.5030   40.3510 N   0  0  0  0  0  0  0  0  0  0  0  0
   46.8900   34.2560   40.7810 C   0  0  0  0  0  0  0  0  0  0  0  0
   49.0820   34.3970   37.7830 N   0  0  0  0  0  0  0  0  0  0  0  0
   46.0060   33.0060   46.3210 C   0  0  0  0  0  0  0  0  0  0  0  0
   46.9870   32.0460   46.2250 C   0  0  0  0  0  0  0  0  0  0  0  0
   47.1950   31.1170   47.2520 C   0  0  0  0  0  0  0  0  0  0  0  0
   46.3960   31.1910   48.3540 N   0  0  0  0  0  0  0  0  0  0  0  0
   45.4460   32.1360   48.4290 C   0  0  0  0  0  0  0  0  0  0  0  0
   45.2390   33.0350   47.4420 N   0  0  0  0  0  0  0  0  0  0  0  0
   43.7712   36.5705   44.5466 H   0  0  0  0  0  0  0  0  0  0  0  0
   45.1905   36.5395   42.4456 H   0  0  0  0  0  0  0  0  0  0  0  0
   48.7825   36.0911   42.6938 H   0  0  0  0  0  0  0  0  0  0  0  0
   45.0849   32.4083   38.7068 H   0  0  0  0  0  0  0  0  0  0  0  0
   49.0874   34.0330   36.8195 H   0  0  0  0  0  0  0  0  0  0  0  0
   49.8619   34.9809   38.1173 H   0  0  0  0  0  0  0  0  0  0  0  0
   47.6191   32.0076   45.3256 H   0  0  0  0  0  0  0  0  0  0  0  0
   47.9798   30.3504   47.1719 H   0  0  0  0  0  0  0  0  0  0  0  0
   44.8125   32.1802   49.3272 H   0  0  0  0  0  0  0  0  0  0  0  0
  1  6  2  0
  2  1  1  0
  3  2  2  0
  3  4  1  0
  4  5  2  0
  5  6  1  0
  5 17  1  0
  7  3  1  0
  8  7  1  0
  9  8  2  0
 10  9  1  0
 10 15  2  0
 11 10  1  0
 12 11  2  0
 12 13  1  0
 13 14  2  0
 14 15  1  0
 15  7  1  0
 16 11  1  0
 17 22  1  0
 18 17  2  0
 18 19  1  0
 19 20  2  0
 20 21  1  0
 22 21  2  0
  1 23  1  0
  2 24  1  0
  8 25  1  0
 13 26  1  0
 16 27  1  0
 16 28  1  0
 18 29  1  0
 19 30  1  0
 21 31  1  0
M  ISO  7  23  14  24  14  25  14  26  14  29  14  30  14  31  14
M  END
>  <minimizedAffinity>  (1) 
-6.80422115

>  <minimizedRMSD>  (1) 
0.107518084

$$$$
