
     RDKit          3D

 33 36  0  0  0  0  0  0  0  0999 V2000
   44.5720   35.7790   44.4700 C   0  0  0  0  0  0  0  0  0  0  0  0
   45.3600   35.7610   43.2920 C   0  0  0  0  0  0  0  0  0  0  0  0
   46.3580   34.8070   43.1760 C   0  0  0  0  0  0  0  0  0  0  0  0
   46.5170   33.9440   44.2070 N   0  0  0  0  0  0  0  0  0  0  0  0
   45.7730   33.9590   45.3210 C   0  0  0  0  0  0  0  0  0  0  0  0
   44.7970   34.8770   45.4590 N   0  0  0  0  0  0  0  0  0  0  0  0
   47.1170   34.8210   41.9940 N   0  0  0  0  0  0  0  0  0  0  0  0
   48.3010   35.4990   41.9060 C   0  0  0  0  0  0  0  0  0  0  0  0
   48.7960   35.3310   40.6580 N   0  0  0  0  0  0  0  0  0  0  0  0
   47.9420   34.5580   39.9610 C   0  0  0  0  0  0  0  0  0  0  0  0
   47.9890   34.1010   38.6640 C   0  0  0  0  0  0  0  0  0  0  0  0
   46.9530   33.3310   38.2660 N   0  0  0  0  0  0  0  0  0  0  0  0
   45.9180   33.0180   39.0900 C   0  0  0  0  0  0  0  0  0  0  0  0
   45.8990   33.4840   40.3710 N   0  0  0  0  0  0  0  0  0  0  0  0
   46.9020   34.2480   40.8030 C   0  0  0  0  0  0  0  0  0  0  0  0
   49.0670   34.4250   37.7950 N   0  0  0  0  0  0  0  0  0  0  0  0
   46.0060   32.9850   46.4040 C   0  0  0  0  0  0  0  0  0  0  0  0
   47.0270   32.0620   46.2440 C   0  0  0  0  0  0  0  0  0  0  0  0
   47.2670   31.1280   47.2580 C   0  0  0  0  0  0  0  0  0  0  0  0
   46.4410   31.2140   48.3580 C   0  0  0  0  0  0  0  0  0  0  0  0
   45.4160   32.1110   48.5600 C   0  0  0  0  0  0  0  0  0  0  0  0
   45.2150   33.0140   47.5350 C   0  0  0  0  0  0  0  0  0  0  0  0
   43.7741   36.5277   44.5833 H   0  0  0  0  0  0  0  0  0  0  0  0
   45.1829   36.4892   42.4868 H   0  0  0  0  0  0  0  0  0  0  0  0
   48.7709   36.0816   42.7121 H   0  0  0  0  0  0  0  0  0  0  0  0
   45.0947   32.3878   38.7226 H   0  0  0  0  0  0  0  0  0  0  0  0
   49.0748   34.0682   36.8288 H   0  0  0  0  0  0  0  0  0  0  0  0
   49.8400   35.0165   38.1318 H   0  0  0  0  0  0  0  0  0  0  0  0
   47.6411   32.0634   45.3314 H   0  0  0  0  0  0  0  0  0  0  0  0
   48.0638   30.3735   47.1821 H   0  0  0  0  0  0  0  0  0  0  0  0
   46.6203   30.4861   49.1630 H   0  0  0  0  0  0  0  0  0  0  0  0
   44.8015   32.1084   49.4723 H   0  0  0  0  0  0  0  0  0  0  0  0
   44.4157   33.7649   47.6206 H   0  0  0  0  0  0  0  0  0  0  0  0
  1  6  2  0
  2  1  1  0
  3  2  2  0
  3  4  1  0
  4  5  2  0
  5  6  1  0
  5 17  1  0
  7  3  1  0
  8  7  1  0
  9  8  2  0
 10  9  1  0
 10 15  2  0
 11 10  1  0
 12 11  2  0
 12 13  1  0
 13 14  2  0
 14 15  1  0
 15  7  1  0
 16 11  1  0
 17 22  1  0
 18 17  2  0
 18 19  1  0
 19 20  2  0
 20 21  1  0
 22 21  2  0
  1 23  1  0
  2 24  1  0
  8 25  1  0
 13 26  1  0
 16 27  1  0
 16 28  1  0
 18 29  1  0
 19 30  1  0
 20 31  1  0
 21 32  1  0
 22 33  1  0
M  ISO  8  23  14  24  14  25  14  26  14  29  14  30  14  31  14  32  14
M  ISO  1  33  14
M  END
>  <minimizedAffinity>  (1) 
-7.00312996

>  <minimizedRMSD>  (1) 
0.436877429

$$$$
