
     RDKit          3D

 39 41  0  0  1  0  0  0  0  0999 V2000
   45.5830   34.3340   42.2780 C   0  0  0  0  0  0  0  0  0  0  0  0
   46.9870   34.3400   42.3410 C   0  0  0  0  0  0  0  0  0  0  0  0
   47.5990   33.9460   43.5500 C   0  0  0  0  0  0  0  0  0  0  0  0
   46.8220   33.5890   44.5820 N   0  0  0  0  0  0  0  0  0  0  0  0
   45.4940   33.5860   44.5230 C   0  0  0  0  0  0  0  0  0  0  0  0
   44.8970   33.9540   43.3860 N   0  0  0  0  0  0  0  0  0  0  0  0
   44.8150   34.7330   41.1480 C   0  0  0  0  0  0  0  0  0  0  0  0
   44.2880   33.4920   40.3620 C   0  0  0  0  0  0  0  0  0  0  0  0
   43.2400   34.1910   39.4720 C   0  0  0  0  0  0  0  0  0  0  0  0
   42.7320   35.3380   40.2990 C   0  0  0  0  0  0  0  0  0  0  0  0
   43.4940   35.3060   41.6070 C   0  0  0  0  0  0  0  0  0  0  0  0
   47.7930   34.7520   41.1970 C   0  0  1  0  0  0  0  0  0  0  0  0
   48.8580   35.7330   41.5520 C   0  0  0  0  0  0  0  0  0  0  0  0
   48.2560   33.5800   40.4320 C   0  0  0  0  0  0  0  0  0  0  0  0
   47.9200   33.6140   38.9830 C   0  0  0  0  0  0  0  0  0  0  0  0
   48.4470   34.4810   38.0540 C   0  0  0  0  0  0  0  0  0  0  0  0
   47.8650   34.1730   36.8170 C   0  0  0  0  0  0  0  0  0  0  0  0
   47.0220   33.1220   37.1310 C   0  0  0  0  0  0  0  0  0  0  0  0
   47.0830   32.8250   38.4090 O   0  0  0  0  0  0  0  0  0  0  0  0
   48.6949   33.9321   43.6438 H   0  0  0  0  0  0  0  0  0  0  0  0
   44.8964   33.2854   45.3962 H   0  0  0  0  0  0  0  0  0  0  0  0
   45.4661   35.4075   40.5726 H   0  0  0  0  0  0  0  0  0  0  0  0
   45.0806   33.0145   39.7671 H   0  0  0  0  0  0  0  0  0  0  0  0
   43.9051   32.6687   40.9829 H   0  0  0  0  0  0  0  0  0  0  0  0
   42.4206   33.5003   39.2240 H   0  0  0  0  0  0  0  0  0  0  0  0
   43.6676   34.5278   38.5161 H   0  0  0  0  0  0  0  0  0  0  0  0
   42.9135   36.2898   39.7783 H   0  0  0  0  0  0  0  0  0  0  0  0
   41.6490   35.2511   40.4711 H   0  0  0  0  0  0  0  0  0  0  0  0
   43.0042   34.6543   42.3455 H   0  0  0  0  0  0  0  0  0  0  0  0
   43.5702   36.2788   42.1148 H   0  0  0  0  0  0  0  0  0  0  0  0
   47.1465   35.3217   40.5132 H   0  0  0  0  0  0  0  0  0  0  0  0
   48.9383   35.8070   42.6466 H   0  0  0  0  0  0  0  0  0  0  0  0
   49.8193   35.3973   41.1357 H   0  0  0  0  0  0  0  0  0  0  0  0
   48.6023   36.7185   41.1357 H   0  0  0  0  0  0  0  0  0  0  0  0
   49.3499   33.5172   40.5292 H   0  0  0  0  0  0  0  0  0  0  0  0
   47.7347   32.7074   40.8525 H   0  0  0  0  0  0  0  0  0  0  0  0
   49.1885   35.2704   38.2466 H   0  0  0  0  0  0  0  0  0  0  0  0
   48.0359   34.6484   35.8399 H   0  0  0  0  0  0  0  0  0  0  0  0
   46.3822   32.6014   36.4032 H   0  0  0  0  0  0  0  0  0  0  0  0
  1  2  1  0
  1  6  2  0
  2  3  2  0
  3  4  1  0
  5  4  2  0
  6  5  1  0
  7 11  1  0
  7  1  1  0
  8  7  1  0
  9 10  1  0
  9  8  1  0
 10 11  1  0
 12 13  1  0
 12  2  1  0
 14 12  1  0
 15 14  1  0
 16 15  2  0
 17 18  2  0
 17 16  1  0
 18 19  1  0
 19 15  1  0
  3 20  1  0
  5 21  1  0
  7 22  1  0
  8 23  1  0
  8 24  1  0
  9 25  1  0
  9 26  1  0
 10 27  1  0
 10 28  1  0
 11 29  1  0
 11 30  1  0
 12 31  1  6
 13 32  1  0
 13 33  1  0
 13 34  1  0
 14 35  1  0
 14 36  1  0
 16 37  1  0
 17 38  1  0
 18 39  1  0
M  ISO  8  20  14  21  14  22  13  23  13  24  13  25  13  26  13  27  13
M  ISO  8  28  13  29  13  30  13  31   8  32   8  33   8  34   8  35   8
M  ISO  4  36   8  37  14  38  14  39  14
M  END
>  <minimizedAffinity>  (1) 
-5.06690788

>  <minimizedRMSD>  (1) 
3.53849649

$$$$
