
     RDKit          3D

 31 34  0  0  0  0  0  0  0  0999 V2000
   44.5800   35.7830   44.4450 C   0  0  0  0  0  0  0  0  0  0  0  0
   45.3740   35.7740   43.2710 C   0  0  0  0  0  0  0  0  0  0  0  0
   46.3710   34.8190   43.1570 C   0  0  0  0  0  0  0  0  0  0  0  0
   46.5460   33.9270   44.1860 N   0  0  0  0  0  0  0  0  0  0  0  0
   45.7760   33.9630   45.2850 C   0  0  0  0  0  0  0  0  0  0  0  0
   44.7940   34.8790   45.4330 N   0  0  0  0  0  0  0  0  0  0  0  0
   47.1400   34.8410   41.9750 N   0  0  0  0  0  0  0  0  0  0  0  0
   48.3120   35.5140   41.8750 C   0  0  0  0  0  0  0  0  0  0  0  0
   48.8010   35.3390   40.6260 N   0  0  0  0  0  0  0  0  0  0  0  0
   47.9590   34.5730   39.9420 C   0  0  0  0  0  0  0  0  0  0  0  0
   48.0030   34.1090   38.6390 C   0  0  0  0  0  0  0  0  0  0  0  0
   46.9580   33.3270   38.2460 N   0  0  0  0  0  0  0  0  0  0  0  0
   45.9330   33.0180   39.0720 C   0  0  0  0  0  0  0  0  0  0  0  0
   45.9140   33.4880   40.3530 N   0  0  0  0  0  0  0  0  0  0  0  0
   46.9110   34.2560   40.7880 C   0  0  0  0  0  0  0  0  0  0  0  0
   49.0760   34.4310   37.7700 N   0  0  0  0  0  0  0  0  0  0  0  0
   45.9880   32.9930   46.3700 C   0  0  0  0  0  0  0  0  0  0  0  0
   46.9890   32.0420   46.2350 C   0  0  0  0  0  0  0  0  0  0  0  0
   47.1380   31.1580   47.2880 C   0  0  0  0  0  0  0  0  0  0  0  0
   46.3670   31.1940   48.4030 N   0  0  0  0  0  0  0  0  0  0  0  0
   45.4050   32.1450   48.4840 C   0  0  0  0  0  0  0  0  0  0  0  0
   45.2310   33.0170   47.4810 N   0  0  0  0  0  0  0  0  0  0  0  0
   43.7815   36.5314   44.5560 H   0  0  0  0  0  0  0  0  0  0  0  0
   45.2027   36.5077   42.4696 H   0  0  0  0  0  0  0  0  0  0  0  0
   48.7855   36.1030   42.6743 H   0  0  0  0  0  0  0  0  0  0  0  0
   45.1101   32.3844   38.7094 H   0  0  0  0  0  0  0  0  0  0  0  0
   49.0826   34.0716   36.8048 H   0  0  0  0  0  0  0  0  0  0  0  0
   49.8489   35.0244   38.1039 H   0  0  0  0  0  0  0  0  0  0  0  0
   47.6280   31.9938   45.3410 H   0  0  0  0  0  0  0  0  0  0  0  0
   47.9203   30.3879   47.2177 H   0  0  0  0  0  0  0  0  0  0  0  0
   44.7644   32.2016   49.3764 H   0  0  0  0  0  0  0  0  0  0  0  0
  1  6  2  0
  2  1  1  0
  3  2  2  0
  3  4  1  0
  4  5  2  0
  5  6  1  0
  5 17  1  0
  7  3  1  0
  8  7  1  0
  9  8  2  0
 10  9  1  0
 10 15  2  0
 11 10  1  0
 12 11  2  0
 12 13  1  0
 13 14  2  0
 14 15  1  0
 15  7  1  0
 16 11  1  0
 17 22  1  0
 18 17  2  0
 18 19  1  0
 19 20  2  0
 20 21  1  0
 22 21  2  0
  1 23  1  0
  2 24  1  0
  8 25  1  0
 13 26  1  0
 16 27  1  0
 16 28  1  0
 18 29  1  0
 19 30  1  0
 21 31  1  0
M  ISO  7  23  14  24  14  25  14  26  14  29  14  30  14  31  14
M  END
>  <minimizedAffinity>  (1) 
-6.80605745

>  <minimizedRMSD>  (1) 
0.294874519

$$$$
