
     RDKit          3D

 40 43  0  0  1  0  0  0  0  0999 V2000
   45.9340   30.9090   47.3020 C   0  0  2  0  0  0  0  0  0  0  0  0
   44.7090   34.8110   46.0850 C   0  0  0  0  0  0  0  0  0  0  0  0
   44.5660   35.4920   44.8840 C   0  0  0  0  0  0  0  0  0  0  0  0
   45.1680   34.9540   43.7490 C   0  0  0  0  0  0  0  0  0  0  0  0
   45.8640   33.7990   43.8570 N   0  0  0  0  0  0  0  0  0  0  0  0
   45.9960   33.1380   45.0490 C   0  0  0  0  0  0  0  0  0  0  0  0
   45.4150   33.6620   46.1380 N   0  0  0  0  0  0  0  0  0  0  0  0
   46.7190   31.9390   45.1950 N   0  0  0  0  0  0  0  0  0  0  0  0
   47.6080   31.6640   44.2040 C   0  0  0  0  0  0  0  0  0  0  0  0
   48.2050   30.4430   44.5780 C   0  0  0  0  0  0  0  0  0  0  0  0
   47.6580   30.0390   45.7650 N   0  0  0  0  0  0  0  0  0  0  0  0
   46.7580   30.9680   46.1160 C   0  0  0  0  0  0  0  0  0  0  0  0
   46.7080   31.6770   48.4170 C   0  0  0  0  0  0  0  0  0  0  0  0
   45.7660   29.5060   47.8020 C   0  0  0  0  0  0  0  0  0  0  0  0
   44.8170   28.7430   47.0610 N   0  0  0  0  0  0  0  0  0  0  0  0
   44.0790   29.2110   46.0360 N   0  0  0  0  0  0  0  0  0  0  0  0
   43.2940   28.2050   45.5930 C   0  0  0  0  0  0  0  0  0  0  0  0
   43.5300   27.0710   46.3430 C   0  0  0  0  0  0  0  0  0  0  0  0
   44.5100   27.4410   47.2760 C   0  0  0  0  0  0  0  0  0  0  0  0
   45.0140   26.4830   48.2440 C   0  0  0  0  0  0  0  0  0  0  0  0
   44.4630   25.9450   49.3830 C   0  0  0  0  0  0  0  0  0  0  0  0
   45.3220   25.0600   49.9990 C   0  0  0  0  0  0  0  0  0  0  0  0
   46.4180   25.1000   49.1620 C   0  0  0  0  0  0  0  0  0  0  0  0
   46.1820   25.9220   48.1890 O   0  0  0  0  0  0  0  0  0  0  0  0
   44.9442   31.3267   47.0656 H   0  0  0  0  0  0  0  0  0  0  0  0
   44.2443   35.2100   46.9987 H   0  0  0  0  0  0  0  0  0  0  0  0
   43.9936   36.4298   44.8301 H   0  0  0  0  0  0  0  0  0  0  0  0
   45.0786   35.4618   42.7773 H   0  0  0  0  0  0  0  0  0  0  0  0
   47.8162   32.2638   43.3057 H   0  0  0  0  0  0  0  0  0  0  0  0
   48.9797   29.9059   44.0112 H   0  0  0  0  0  0  0  0  0  0  0  0
   46.3636   31.3353   49.4042 H   0  0  0  0  0  0  0  0  0  0  0  0
   47.7858   31.4811   48.3166 H   0  0  0  0  0  0  0  0  0  0  0  0
   46.5205   32.7562   48.3166 H   0  0  0  0  0  0  0  0  0  0  0  0
   46.7401   28.9982   47.7452 H   0  0  0  0  0  0  0  0  0  0  0  0
   45.3880   29.5753   48.8327 H   0  0  0  0  0  0  0  0  0  0  0  0
   42.5769   28.2784   44.7621 H   0  0  0  0  0  0  0  0  0  0  0  0
   43.0516   26.0866   46.2327 H   0  0  0  0  0  0  0  0  0  0  0  0
   43.4584   26.1910   49.7574 H   0  0  0  0  0  0  0  0  0  0  0  0
   45.1725   24.4746   50.9182 H   0  0  0  0  0  0  0  0  0  0  0  0
   47.3456   24.5248   49.2992 H   0  0  0  0  0  0  0  0  0  0  0  0
  1 14  1  0
  1 13  1  0
  2  7  2  0
  3  2  1  0
  4  5  1  0
  4  3  2  0
  5  6  2  0
  6  8  1  0
  6  7  1  0
  8 12  1  0
  9 10  2  0
  9  8  1  0
 10 11  1  0
 11 12  2  0
 12  1  1  0
 15 19  1  0
 15 14  1  0
 16 15  1  0
 17 16  2  0
 17 18  1  0
 18 19  2  0
 19 20  1  0
 20 21  2  0
 21 22  1  0
 23 22  2  0
 24 20  1  0
 24 23  1  0
  1 25  1  6
  2 26  1  0
  3 27  1  0
  4 28  1  0
  9 29  1  0
 10 30  1  0
 13 31  1  0
 13 32  1  0
 13 33  1  0
 14 34  1  0
 14 35  1  0
 17 36  1  0
 18 37  1  0
 21 38  1  0
 22 39  1  0
 23 40  1  0
M  ISO  8  25   8  26  14  27  14  28  14  29  14  30  14  31   8  32   8
M  ISO  8  33   8  34   8  35   8  36  14  37  14  38  14  39  14  40  14
M  END
>  <minimizedAffinity>  (1) 
-5.02148581

>  <minimizedRMSD>  (1) 
1.0097717

$$$$
