
     RDKit          3D

 24 26  0  0  0  0  0  0  0  0999 V2000
   47.1210   34.8630   41.9390 N   0  0  0  0  0  0  0  0  0  0  0  0
   48.3050   35.5150   41.8460 C   0  0  0  0  0  0  0  0  0  0  0  0
   48.8050   35.3250   40.6030 N   0  0  0  0  0  0  0  0  0  0  0  0
   47.9490   34.5570   39.9070 C   0  0  0  0  0  0  0  0  0  0  0  0
   48.0040   34.0870   38.6120 C   0  0  0  0  0  0  0  0  0  0  0  0
   46.9480   33.3170   38.2120 N   0  0  0  0  0  0  0  0  0  0  0  0
   45.9190   33.0390   39.0380 C   0  0  0  0  0  0  0  0  0  0  0  0
   45.8900   33.5160   40.3140 N   0  0  0  0  0  0  0  0  0  0  0  0
   46.8930   34.2680   40.7470 C   0  0  0  0  0  0  0  0  0  0  0  0
   49.1010   34.3940   37.7580 N   0  0  0  0  0  0  0  0  0  0  0  0
   44.5700   35.8870   44.3830 C   0  0  0  0  0  0  0  0  0  0  0  0
   45.3650   35.8660   43.2070 C   0  0  0  0  0  0  0  0  0  0  0  0
   46.3440   34.8650   43.1130 C   0  0  0  0  0  0  0  0  0  0  0  0
   46.4680   33.9920   44.1410 N   0  0  0  0  0  0  0  0  0  0  0  0
   45.7020   34.0390   45.2360 C   0  0  0  0  0  0  0  0  0  0  0  0
   44.7460   34.9880   45.3660 N   0  0  0  0  0  0  0  0  0  0  0  0
   45.8500   33.1290   46.2790 O   0  0  0  0  0  0  0  0  0  0  0  0
   48.7802   36.1007   42.6467 H   0  0  0  0  0  0  0  0  0  0  0  0
   45.0882   32.4160   38.6752 H   0  0  0  0  0  0  0  0  0  0  0  0
   49.1204   34.0316   36.7941 H   0  0  0  0  0  0  0  0  0  0  0  0
   49.8753   34.9785   38.1041 H   0  0  0  0  0  0  0  0  0  0  0  0
   43.7920   36.6570   44.4920 H   0  0  0  0  0  0  0  0  0  0  0  0
   45.2197   36.6031   42.4035 H   0  0  0  0  0  0  0  0  0  0  0  0
   45.2667   33.1909   47.0765 H   0  0  0  0  0  0  0  0  0  0  0  0
  1 13  1  0
  2  1  1  0
  3  2  2  0
  4  3  1  0
  4  9  2  0
  5  4  1  0
  6  5  2  0
  6  7  1  0
  7  8  2  0
  8  9  1  0
  9  1  1  0
 10  5  1  0
 11 16  2  0
 12 11  1  0
 13 12  2  0
 13 14  1  0
 14 15  2  0
 15 16  1  0
 15 17  1  0
  2 18  1  0
  7 19  1  0
 10 20  1  0
 10 21  1  0
 11 22  1  0
 12 23  1  0
 17 24  1  0
M  ISO  5  18  14  19  14  22  14  23  14  24   3
M  END
>  <minimizedAffinity>  (1) 
-5.69466591

>  <minimizedRMSD>  (1) 
0.0145349083

$$$$
