
     RDKit          3D

 30 33  0  0  0  0  0  0  0  0999 V2000
   47.2120   34.8390   41.9270 N   0  0  0  0  0  0  0  0  0  0  0  0
   48.3480   35.5600   41.8500 C   0  0  0  0  0  0  0  0  0  0  0  0
   48.8410   35.4540   40.5920 N   0  0  0  0  0  0  0  0  0  0  0  0
   48.0220   34.6680   39.8750 C   0  0  0  0  0  0  0  0  0  0  0  0
   48.0790   34.2550   38.5570 C   0  0  0  0  0  0  0  0  0  0  0  0
   47.0720   33.4500   38.1420 N   0  0  0  0  0  0  0  0  0  0  0  0
   46.0650   33.0680   38.9600 C   0  0  0  0  0  0  0  0  0  0  0  0
   46.0260   33.4850   40.2570 N   0  0  0  0  0  0  0  0  0  0  0  0
   47.0000   34.2840   40.7140 C   0  0  0  0  0  0  0  0  0  0  0  0
   49.1390   34.6540   37.6920 N   0  0  0  0  0  0  0  0  0  0  0  0
   44.7660   35.6490   44.5410 C   0  0  0  0  0  0  0  0  0  0  0  0
   45.5330   35.7510   43.3510 C   0  0  0  0  0  0  0  0  0  0  0  0
   46.4470   34.7390   43.1140 C   0  0  0  0  0  0  0  0  0  0  0  0
   46.5610   33.7130   44.0220 N   0  0  0  0  0  0  0  0  0  0  0  0
   45.8120   33.6610   45.1360 C   0  0  0  0  0  0  0  0  0  0  0  0
   44.9080   34.6270   45.4050 N   0  0  0  0  0  0  0  0  0  0  0  0
   45.9910   32.5200   46.0730 C   0  0  0  0  0  0  0  0  0  0  0  0
   47.0050   32.7180   47.1870 C   0  0  0  0  0  0  0  0  0  0  0  0
   45.5240   32.6640   47.4790 C   0  0  0  0  0  0  0  0  0  0  0  0
   48.7992   36.1375   42.6703 H   0  0  0  0  0  0  0  0  0  0  0  0
   45.2691   32.4139   38.5745 H   0  0  0  0  0  0  0  0  0  0  0  0
   49.1553   34.3306   36.7142 H   0  0  0  0  0  0  0  0  0  0  0  0
   49.8888   35.2658   38.0446 H   0  0  0  0  0  0  0  0  0  0  0  0
   44.0287   36.4339   44.7652 H   0  0  0  0  0  0  0  0  0  0  0  0
   45.4074   36.5916   42.6527 H   0  0  0  0  0  0  0  0  0  0  0  0
   45.8156   31.7725   45.2853 H   0  0  0  0  0  0  0  0  0  0  0  0
   47.6597   31.8887   47.4929 H   0  0  0  0  0  0  0  0  0  0  0  0
   47.8191   33.4295   47.3895 H   0  0  0  0  0  0  0  0  0  0  0  0
   44.9934   33.5763   47.7890 H   0  0  0  0  0  0  0  0  0  0  0  0
   44.8897   32.0637   48.1478 H   0  0  0  0  0  0  0  0  0  0  0  0
  1 13  1  0
  2  1  1  0
  3  2  2  0
  4  3  1  0
  4  9  2  0
  5  4  1  0
  6  5  2  0
  6  7  1  0
  7  8  2  0
  8  9  1  0
  9  1  1  0
 10  5  1  0
 11 16  2  0
 12 11  1  0
 13 12  2  0
 13 14  1  0
 14 15  2  0
 15 16  1  0
 15 17  1  0
 17 18  1  0
 17 19  1  0
 18 19  1  0
  2 20  1  0
  7 21  1  0
 10 22  1  0
 10 23  1  0
 11 24  1  0
 12 25  1  0
 17 26  1  0
 18 27  1  0
 18 28  1  0
 19 29  1  0
 19 30  1  0
M  ISO  8  20  14  21  14  24  14  25  14  26  13  27  13  28  13  29  13
M  ISO  1  30  13
M  END
>  <minimizedAffinity>  (1) 
-5.99660587

>  <minimizedRMSD>  (1) 
0.497465223

$$$$
