
     RDKit          3D

 25 27  0  0  0  0  0  0  0  0999 V2000
   47.1440   34.8470   41.9420 N   0  0  0  0  0  0  0  0  0  0  0  0
   48.3240   35.5220   41.8580 C   0  0  0  0  0  0  0  0  0  0  0  0
   48.8150   35.3420   40.6040 N   0  0  0  0  0  0  0  0  0  0  0  0
   47.9580   34.5660   39.9110 C   0  0  0  0  0  0  0  0  0  0  0  0
   48.0070   34.1040   38.6190 C   0  0  0  0  0  0  0  0  0  0  0  0
   46.9600   33.3230   38.2220 N   0  0  0  0  0  0  0  0  0  0  0  0
   45.9330   33.0200   39.0480 C   0  0  0  0  0  0  0  0  0  0  0  0
   45.9080   33.4910   40.3280 N   0  0  0  0  0  0  0  0  0  0  0  0
   46.9040   34.2550   40.7580 C   0  0  0  0  0  0  0  0  0  0  0  0
   49.0920   34.4340   37.7500 N   0  0  0  0  0  0  0  0  0  0  0  0
   44.5710   35.8730   44.3770 C   0  0  0  0  0  0  0  0  0  0  0  0
   45.3800   35.8370   43.2090 C   0  0  0  0  0  0  0  0  0  0  0  0
   46.3680   34.8380   43.1230 C   0  0  0  0  0  0  0  0  0  0  0  0
   46.4950   33.9680   44.1490 N   0  0  0  0  0  0  0  0  0  0  0  0
   45.7220   34.0220   45.2390 C   0  0  0  0  0  0  0  0  0  0  0  0
   44.7540   34.9650   45.3760 N   0  0  0  0  0  0  0  0  0  0  0  0
   45.9420   33.0240   46.3050 C   0  0  0  0  0  0  0  0  0  0  0  0
   45.1970   33.1070   47.3150 O   0  0  0  0  0  0  0  0  0  0  0  0
   48.7949   36.1077   42.6612 H   0  0  0  0  0  0  0  0  0  0  0  0
   45.1098   32.3876   38.6842 H   0  0  0  0  0  0  0  0  0  0  0  0
   49.1061   34.0751   36.7846 H   0  0  0  0  0  0  0  0  0  0  0  0
   49.8601   35.0308   38.0889 H   0  0  0  0  0  0  0  0  0  0  0  0
   43.7898   36.6412   44.4753 H   0  0  0  0  0  0  0  0  0  0  0  0
   45.2386   36.5666   42.3980 H   0  0  0  0  0  0  0  0  0  0  0  0
   46.7172   32.2482   46.2201 H   0  0  0  0  0  0  0  0  0  0  0  0
  1 13  1  0
  2  1  1  0
  3  2  2  0
  4  3  1  0
  4  9  2  0
  5  4  1  0
  6  5  2  0
  6  7  1  0
  7  8  2  0
  8  9  1  0
  9  1  1  0
 10  5  1  0
 11 16  2  0
 12 11  1  0
 13 12  2  0
 13 14  1  0
 14 15  2  0
 15 16  1  0
 15 17  1  0
 17 18  2  0
  2 19  1  0
  7 20  1  0
 10 21  1  0
 10 22  1  0
 11 23  1  0
 12 24  1  0
 17 25  1  0
M  ISO  5  19  14  20  14  23  14  24  14  25   6
M  END
>  <minimizedAffinity>  (1) 
-5.77297926

>  <minimizedRMSD>  (1) 
0.0579140112

$$$$
