
     RDKit          3D

 46 49  0  0  1  0  0  0  0  0999 V2000
   44.2390   34.3160   42.6720 C   0  0  0  0  0  0  0  0  0  0  0  0
   45.0520   33.4030   43.3700 C   0  0  0  0  0  0  0  0  0  0  0  0
   45.5080   33.7620   44.6580 C   0  0  0  0  0  0  0  0  0  0  0  0
   45.1570   34.9450   45.1650 N   0  0  0  0  0  0  0  0  0  0  0  0
   44.3850   35.8170   44.5070 C   0  0  0  0  0  0  0  0  0  0  0  0
   43.9430   35.4940   43.2870 N   0  0  0  0  0  0  0  0  0  0  0  0
   43.7360   34.1390   41.3580 C   0  0  0  0  0  0  0  0  0  0  0  0
   42.3250   33.4850   41.3680 C   0  0  0  0  0  0  0  0  0  0  0  0
   41.9350   33.7460   39.8820 C   0  0  0  0  0  0  0  0  0  0  0  0
   42.6050   35.0420   39.5370 C   0  0  0  0  0  0  0  0  0  0  0  0
   43.3660   35.4860   40.7650 C   0  0  0  0  0  0  0  0  0  0  0  0
   45.3770   32.0920   42.7500 C   0  0  1  0  0  0  0  0  0  0  0  0
   45.7010   32.1970   41.3250 C   0  0  0  0  0  0  0  0  0  0  0  0
   46.2410   31.3280   43.6620 C   0  0  0  0  0  0  0  0  0  0  0  0
   47.6750   31.2050   43.1370 C   0  0  0  0  0  0  0  0  0  0  0  0
   48.2970   30.0270   42.7480 C   0  0  0  0  0  0  0  0  0  0  0  0
   49.5350   30.2300   42.2790 N   0  0  0  0  0  0  0  0  0  0  0  0
   49.7550   31.5340   42.3510 C   0  0  0  0  0  0  0  0  0  0  0  0
   50.8590   32.3260   42.0240 C   0  0  0  0  0  0  0  0  0  0  0  0
   50.7760   33.6790   42.2410 C   0  0  0  0  0  0  0  0  0  0  0  0
   49.6770   34.3600   42.7640 C   0  0  0  0  0  0  0  0  0  0  0  0
   48.6350   33.5140   43.0580 C   0  0  0  0  0  0  0  0  0  0  0  0
   48.6400   32.1530   42.8710 C   0  0  0  0  0  0  0  0  0  0  0  0
   46.1442   33.0750   45.2353 H   0  0  0  0  0  0  0  0  0  0  0  0
   44.1185   36.7826   44.9614 H   0  0  0  0  0  0  0  0  0  0  0  0
   44.5107   33.5632   40.8305 H   0  0  0  0  0  0  0  0  0  0  0  0
   42.3682   32.4111   41.6021 H   0  0  0  0  0  0  0  0  0  0  0  0
   41.6240   33.8759   42.1202 H   0  0  0  0  0  0  0  0  0  0  0  0
   42.3023   32.9350   39.2360 H   0  0  0  0  0  0  0  0  0  0  0  0
   40.8453   33.7886   39.7381 H   0  0  0  0  0  0  0  0  0  0  0  0
   43.2979   34.8968   38.6951 H   0  0  0  0  0  0  0  0  0  0  0  0
   41.8652   35.7993   39.2382 H   0  0  0  0  0  0  0  0  0  0  0  0
   44.2580   36.0729   40.5007 H   0  0  0  0  0  0  0  0  0  0  0  0
   42.8035   36.1471   41.4406 H   0  0  0  0  0  0  0  0  0  0  0  0
   44.4945   31.4426   42.6530 H   0  0  0  0  0  0  0  0  0  0  0  0
   46.7416   32.5342   41.2095 H   0  0  0  0  0  0  0  0  0  0  0  0
   45.5792   31.2134   40.8478 H   0  0  0  0  0  0  0  0  0  0  0  0
   45.0254   32.9222   40.8478 H   0  0  0  0  0  0  0  0  0  0  0  0
   46.2636   31.8366   44.6371 H   0  0  0  0  0  0  0  0  0  0  0  0
   45.8257   30.3131   43.7481 H   0  0  0  0  0  0  0  0  0  0  0  0
   47.8252   29.0357   42.8172 H   0  0  0  0  0  0  0  0  0  0  0  0
   50.1875   29.5131   41.9309 H   0  0  0  0  0  0  0  0  0  0  0  0
   51.7709   31.8769   41.6036 H   0  0  0  0  0  0  0  0  0  0  0  0
   51.6578   34.2817   41.9781 H   0  0  0  0  0  0  0  0  0  0  0  0
   49.6478   35.4481   42.9227 H   0  0  0  0  0  0  0  0  0  0  0  0
   47.7225   33.9630   43.4772 H   0  0  0  0  0  0  0  0  0  0  0  0
  1  6  2  0
  1  2  1  0
  2  3  2  0
  3  4  1  0
  5  4  2  0
  6  5  1  0
  7  8  1  0
  7  1  1  0
  9  8  1  0
 10  9  1  0
 10 11  1  0
 11  7  1  0
 12  2  1  0
 12 14  1  0
 13 12  1  0
 15 14  1  0
 16 15  2  0
 17 18  1  0
 17 16  1  0
 18 23  2  0
 19 20  2  0
 19 18  1  0
 20 21  1  0
 21 22  2  0
 23 22  1  0
 23 15  1  0
  3 24  1  0
  5 25  1  0
  7 26  1  0
  8 27  1  0
  8 28  1  0
  9 29  1  0
  9 30  1  0
 10 31  1  0
 10 32  1  0
 11 33  1  0
 11 34  1  0
 12 35  1  6
 13 36  1  0
 13 37  1  0
 13 38  1  0
 14 39  1  0
 14 40  1  0
 16 41  1  0
 17 42  1  0
 19 43  1  0
 20 44  1  0
 21 45  1  0
 22 46  1  0
M  ISO  8  24  14  25  14  26  13  27  13  28  13  29  13  30  13  31  13
M  ISO  8  32  13  33  13  34  13  35   8  36   8  37   8  38   8  39   8
M  ISO  7  40   8  41  14  42   9  43  14  44  14  45  14  46  14
M  END
>  <minimizedAffinity>  (1) 
-5.00982237

>  <minimizedRMSD>  (1) 
2.85398006

$$$$
