
     RDKit          3D

 41 45  0  0  0  0  0  0  0  0999 V2000
   44.6730   36.1780   44.5010 C   0  0  0  0  0  0  0  0  0  0  0  0
   45.4130   36.0450   43.2950 C   0  0  0  0  0  0  0  0  0  0  0  0
   46.2010   34.8980   43.1370 C   0  0  0  0  0  0  0  0  0  0  0  0
   46.1940   34.0120   44.1390 N   0  0  0  0  0  0  0  0  0  0  0  0
   45.5100   34.1280   45.2610 C   0  0  0  0  0  0  0  0  0  0  0  0
   44.7340   35.2150   45.4640 N   0  0  0  0  0  0  0  0  0  0  0  0
   45.7110   33.0330   46.1320 N   0  0  0  0  0  0  0  0  0  0  0  0
   45.1510   32.7120   47.3170 C   0  0  0  0  0  0  0  0  0  0  0  0
   45.7480   31.5200   47.7370 C   0  0  0  0  0  0  0  0  0  0  0  0
   46.6320   31.1860   46.7840 N   0  0  0  0  0  0  0  0  0  0  0  0
   46.6150   32.1090   45.7960 C   0  0  0  0  0  0  0  0  0  0  0  0
   47.5200   31.8220   44.7610 N   0  0  0  0  0  0  0  0  0  0  0  0
   47.7700   32.6960   43.7670 C   0  0  0  0  0  0  0  0  0  0  0  0
   48.6710   32.3580   42.7760 C   0  0  0  0  0  0  0  0  0  0  0  0
   49.2530   31.1100   42.9000 C   0  0  0  0  0  0  0  0  0  0  0  0
   50.1930   30.6840   41.9200 N   0  0  0  0  0  0  0  0  0  0  0  0
   48.9970   30.2290   43.9090 N   0  0  0  0  0  0  0  0  0  0  0  0
   48.0990   30.6150   44.8590 C   0  0  0  0  0  0  0  0  0  0  0  0
   47.8690   29.7980   45.7850 O   0  0  0  0  0  0  0  0  0  0  0  0
   46.9200   34.8000   41.9310 N   0  0  0  0  0  0  0  0  0  0  0  0
   48.1320   35.4260   41.7520 C   0  0  0  0  0  0  0  0  0  0  0  0
   48.5690   35.1430   40.4960 N   0  0  0  0  0  0  0  0  0  0  0  0
   47.6600   34.3620   39.8990 C   0  0  0  0  0  0  0  0  0  0  0  0
   47.6330   33.8060   38.6330 C   0  0  0  0  0  0  0  0  0  0  0  0
   46.5410   33.0490   38.3390 N   0  0  0  0  0  0  0  0  0  0  0  0
   45.5440   32.8450   39.2140 C   0  0  0  0  0  0  0  0  0  0  0  0
   45.5840   33.3990   40.4590 N   0  0  0  0  0  0  0  0  0  0  0  0
   46.6430   34.1590   40.8030 C   0  0  0  0  0  0  0  0  0  0  0  0
   48.6820   34.0210   37.7100 N   0  0  0  0  0  0  0  0  0  0  0  0
   44.0447   37.0670   44.6590 H   0  0  0  0  0  0  0  0  0  0  0  0
   45.3684   36.8166   42.5123 H   0  0  0  0  0  0  0  0  0  0  0  0
   44.3739   33.2794   47.8501 H   0  0  0  0  0  0  0  0  0  0  0  0
   45.5357   30.9663   48.6635 H   0  0  0  0  0  0  0  0  0  0  0  0
   47.2609   33.6708   43.7446 H   0  0  0  0  0  0  0  0  0  0  0  0
   48.9095   33.0365   41.9437 H   0  0  0  0  0  0  0  0  0  0  0  0
   50.6349   29.7570   41.9989 H   0  0  0  0  0  0  0  0  0  0  0  0
   50.4314   31.3027   41.1318 H   0  0  0  0  0  0  0  0  0  0  0  0
   48.6554   36.0463   42.4944 H   0  0  0  0  0  0  0  0  0  0  0  0
   44.6843   32.2234   38.9231 H   0  0  0  0  0  0  0  0  0  0  0  0
   48.6386   33.5958   36.7728 H   0  0  0  0  0  0  0  0  0  0  0  0
   49.4897   34.6028   37.9747 H   0  0  0  0  0  0  0  0  0  0  0  0
  1  6  2  0
  2  1  1  0
  3  2  2  0
  3  4  1  0
  4  5  2  0
  5  6  1  0
  5  7  1  0
  7  8  1  0
  8  9  2  0
 10  9  1  0
 11  7  1  0
 11 10  2  0
 12 18  1  0
 12 11  1  0
 13 12  1  0
 14 15  1  0
 14 13  2  0
 15 17  2  0
 16 15  1  0
 17 18  1  0
 18 19  2  0
 20  3  1  0
 21 20  1  0
 22 21  2  0
 23 22  1  0
 23 28  2  0
 24 23  1  0
 25 24  2  0
 25 26  1  0
 26 27  2  0
 27 28  1  0
 28 20  1  0
 29 24  1  0
  1 30  1  0
  2 31  1  0
  8 32  1  0
  9 33  1  0
 13 34  1  0
 14 35  1  0
 16 36  1  0
 16 37  1  0
 21 38  1  0
 26 39  1  0
 29 40  1  0
 29 41  1  0
M  ISO  8  30  14  31  14  32  14  33  14  34  14  35  14  38  14  39  14
M  END
>  <minimizedAffinity>  (1) 
-7.35851431

>  <minimizedRMSD>  (1) 
0.531749964

$$$$
