
     RDKit          3D

 43 47  0  0  0  0  0  0  0  0999 V2000
   44.6130   36.2120   44.4880 C   0  0  0  0  0  0  0  0  0  0  0  0
   45.3580   36.0390   43.2940 C   0  0  0  0  0  0  0  0  0  0  0  0
   46.1610   34.8890   43.1760 C   0  0  0  0  0  0  0  0  0  0  0  0
   46.1570   34.0340   44.2130 N   0  0  0  0  0  0  0  0  0  0  0  0
   45.4620   34.1930   45.3310 C   0  0  0  0  0  0  0  0  0  0  0  0
   44.6780   35.2850   45.4890 N   0  0  0  0  0  0  0  0  0  0  0  0
   45.6430   33.1250   46.2510 N   0  0  0  0  0  0  0  0  0  0  0  0
   45.0760   32.7910   47.4110 C   0  0  0  0  0  0  0  0  0  0  0  0
   45.6480   31.5880   47.8370 C   0  0  0  0  0  0  0  0  0  0  0  0
   46.5660   31.2460   46.8700 N   0  0  0  0  0  0  0  0  0  0  0  0
   46.5480   32.1800   45.9350 C   0  0  0  0  0  0  0  0  0  0  0  0
   47.4850   31.8430   44.9180 N   0  0  0  0  0  0  0  0  0  0  0  0
   47.9930   32.5270   43.7180 C   0  0  0  0  0  0  0  0  0  0  0  0
   47.6320   31.6620   42.5090 C   0  0  0  0  0  0  0  0  0  0  0  0
   48.1710   30.3790   42.6380 O   0  0  0  0  0  0  0  0  0  0  0  0
   47.6600   29.7570   43.7590 C   0  0  0  0  0  0  0  0  0  0  0  0
   48.1460   30.5690   44.9660 C   0  0  0  0  0  0  0  0  0  0  0  0
   46.8820   34.7590   41.9810 N   0  0  0  0  0  0  0  0  0  0  0  0
   48.1480   35.2710   41.8500 C   0  0  0  0  0  0  0  0  0  0  0  0
   48.5980   35.0120   40.6120 N   0  0  0  0  0  0  0  0  0  0  0  0
   47.6420   34.3400   39.9430 C   0  0  0  0  0  0  0  0  0  0  0  0
   47.5850   33.8280   38.6600 C   0  0  0  0  0  0  0  0  0  0  0  0
   46.4450   33.1850   38.3170 N   0  0  0  0  0  0  0  0  0  0  0  0
   45.4120   33.0430   39.1680 C   0  0  0  0  0  0  0  0  0  0  0  0
   45.4640   33.5460   40.4330 N   0  0  0  0  0  0  0  0  0  0  0  0
   46.5730   34.1910   40.8180 C   0  0  0  0  0  0  0  0  0  0  0  0
   48.6700   33.9740   37.7730 N   0  0  0  0  0  0  0  0  0  0  0  0
   43.9768   37.1011   44.6092 H   0  0  0  0  0  0  0  0  0  0  0  0
   45.3098   36.7816   42.4839 H   0  0  0  0  0  0  0  0  0  0  0  0
   44.2969   33.3605   47.9389 H   0  0  0  0  0  0  0  0  0  0  0  0
   45.4128   31.0301   48.7554 H   0  0  0  0  0  0  0  0  0  0  0  0
   47.5250   33.5180   43.6240 H   0  0  0  0  0  0  0  0  0  0  0  0
   49.0821   32.6669   43.7833 H   0  0  0  0  0  0  0  0  0  0  0  0
   48.0316   32.1311   41.5978 H   0  0  0  0  0  0  0  0  0  0  0  0
   46.5367   31.5799   42.4487 H   0  0  0  0  0  0  0  0  0  0  0  0
   46.5606   29.7510   43.7226 H   0  0  0  0  0  0  0  0  0  0  0  0
   47.9951   28.7112   43.8217 H   0  0  0  0  0  0  0  0  0  0  0  0
   49.2358   30.7081   44.9119 H   0  0  0  0  0  0  0  0  0  0  0  0
   47.9152   30.0458   45.9057 H   0  0  0  0  0  0  0  0  0  0  0  0
   48.7045   35.8071   42.6329 H   0  0  0  0  0  0  0  0  0  0  0  0
   44.5085   32.5107   38.8358 H   0  0  0  0  0  0  0  0  0  0  0  0
   48.6120   33.5869   36.8203 H   0  0  0  0  0  0  0  0  0  0  0  0
   49.5211   34.4679   38.0773 H   0  0  0  0  0  0  0  0  0  0  0  0
  1  6  2  0
  2  1  1  0
  3  2  2  0
  3  4  1  0
  4  5  2  0
  5  6  1  0
  5  7  1  0
  7  8  1  0
  8  9  2  0
 10  9  1  0
 11  7  1  0
 11 10  2  0
 12 17  1  0
 12 11  1  0
 13 12  1  0
 14 15  1  0
 14 13  1  0
 15 16  1  0
 16 17  1  0
 18  3  1  0
 19 18  1  0
 20 19  2  0
 21 20  1  0
 21 26  2  0
 22 21  1  0
 23 22  2  0
 23 24  1  0
 24 25  2  0
 25 26  1  0
 26 18  1  0
 27 22  1  0
  1 28  1  0
  2 29  1  0
  8 30  1  0
  9 31  1  0
 13 32  1  0
 13 33  1  0
 14 34  1  0
 14 35  1  0
 16 36  1  0
 16 37  1  0
 17 38  1  0
 17 39  1  0
 19 40  1  0
 24 41  1  0
 27 42  1  0
 27 43  1  0
M  ISO  8  28  14  29  14  30  14  31  14  32  13  33  13  34  13  35  13
M  ISO  6  36  13  37  13  38  13  39  13  40  14  41  14
M  END
>  <minimizedAffinity>  (1) 
-6.86933041

>  <minimizedRMSD>  (1) 
0.499175668

$$$$
