
     RDKit          3D

 38 42  0  0  0  0  0  0  0  0999 V2000
   44.6670   36.1710   44.4500 C   0  0  0  0  0  0  0  0  0  0  0  0
   45.4140   36.0530   43.2540 C   0  0  0  0  0  0  0  0  0  0  0  0
   46.2050   34.9240   43.0980 C   0  0  0  0  0  0  0  0  0  0  0  0
   46.1960   34.0310   44.1020 N   0  0  0  0  0  0  0  0  0  0  0  0
   45.5140   34.1170   45.2170 C   0  0  0  0  0  0  0  0  0  0  0  0
   44.7310   35.2030   45.4060 N   0  0  0  0  0  0  0  0  0  0  0  0
   45.7310   33.0050   46.0780 N   0  0  0  0  0  0  0  0  0  0  0  0
   45.2090   32.7260   47.2890 C   0  0  0  0  0  0  0  0  0  0  0  0
   45.8160   31.5720   47.7310 C   0  0  0  0  0  0  0  0  0  0  0  0
   46.6590   31.2330   46.7580 N   0  0  0  0  0  0  0  0  0  0  0  0
   46.6310   32.0870   45.7290 C   0  0  0  0  0  0  0  0  0  0  0  0
   46.9390   34.8190   41.8930 N   0  0  0  0  0  0  0  0  0  0  0  0
   48.1400   35.4220   41.7210 C   0  0  0  0  0  0  0  0  0  0  0  0
   48.5830   35.1530   40.4730 N   0  0  0  0  0  0  0  0  0  0  0  0
   47.6650   34.3760   39.8450 C   0  0  0  0  0  0  0  0  0  0  0  0
   47.6310   33.8290   38.5820 C   0  0  0  0  0  0  0  0  0  0  0  0
   46.5340   33.0800   38.2840 N   0  0  0  0  0  0  0  0  0  0  0  0
   45.5390   32.8810   39.1600 C   0  0  0  0  0  0  0  0  0  0  0  0
   45.5800   33.4280   40.4090 N   0  0  0  0  0  0  0  0  0  0  0  0
   46.6510   34.1810   40.7520 C   0  0  0  0  0  0  0  0  0  0  0  0
   48.6900   34.0610   37.6520 N   0  0  0  0  0  0  0  0  0  0  0  0
   47.5440   31.7190   44.6620 C   0  0  0  0  0  0  0  0  0  0  0  0
   47.7660   30.4130   44.2910 C   0  0  0  0  0  0  0  0  0  0  0  0
   48.6020   29.9370   43.3200 C   0  0  0  0  0  0  0  0  0  0  0  0
   49.3000   30.8570   42.6380 N   0  0  0  0  0  0  0  0  0  0  0  0
   49.1530   32.1550   42.9250 C   0  0  0  0  0  0  0  0  0  0  0  0
   48.3150   32.4290   43.8800 N   0  0  0  0  0  0  0  0  0  0  0  0
   44.0287   37.0527   44.6091 H   0  0  0  0  0  0  0  0  0  0  0  0
   45.3691   36.8289   42.4756 H   0  0  0  0  0  0  0  0  0  0  0  0
   44.4439   33.3091   47.8224 H   0  0  0  0  0  0  0  0  0  0  0  0
   45.6423   31.0451   48.6808 H   0  0  0  0  0  0  0  0  0  0  0  0
   48.6666   36.0292   42.4719 H   0  0  0  0  0  0  0  0  0  0  0  0
   44.6751   32.2664   38.8668 H   0  0  0  0  0  0  0  0  0  0  0  0
   48.6494   33.6445   36.7109 H   0  0  0  0  0  0  0  0  0  0  0  0
   49.4943   34.6448   37.9225 H   0  0  0  0  0  0  0  0  0  0  0  0
   47.1972   29.6537   44.8477 H   0  0  0  0  0  0  0  0  0  0  0  0
   48.6968   28.8614   43.1100 H   0  0  0  0  0  0  0  0  0  0  0  0
   49.7055   32.9398   42.3876 H   0  0  0  0  0  0  0  0  0  0  0  0
  1  6  2  0
  2  1  1  0
  3  2  2  0
  3  4  1  0
  4  5  2  0
  5  6  1  0
  5  7  1  0
  7  8  1  0
  8  9  2  0
 10  9  1  0
 11  7  1  0
 11 10  2  0
 12  3  1  0
 13 12  1  0
 14 13  2  0
 15 14  1  0
 15 20  2  0
 16 15  1  0
 17 16  2  0
 17 18  1  0
 18 19  2  0
 19 20  1  0
 20 12  1  0
 21 16  1  0
 22 11  1  0
 23 22  2  0
 24 23  1  0
 25 26  1  0
 25 24  2  0
 26 27  2  0
 27 22  1  0
  1 28  1  0
  2 29  1  0
  8 30  1  0
  9 31  1  0
 13 32  1  0
 18 33  1  0
 21 34  1  0
 21 35  1  0
 23 36  1  0
 24 37  1  0
 26 38  1  0
M  ISO  8  28  14  29  14  30  14  31  14  32  14  33  14  36  14  37  14
M  ISO  1  38  14
M  END
>  <minimizedAffinity>  (1) 
-6.4202795

>  <minimizedRMSD>  (1) 
0.537657738

$$$$
