
     RDKit          3D

 31 34  0  0  0  0  0  0  0  0999 V2000
   44.6210   36.1110   44.4880 C   0  0  0  0  0  0  0  0  0  0  0  0
   45.3780   35.9830   43.2970 C   0  0  0  0  0  0  0  0  0  0  0  0
   46.2290   34.8630   43.1600 C   0  0  0  0  0  0  0  0  0  0  0  0
   46.2490   34.0030   44.1820 N   0  0  0  0  0  0  0  0  0  0  0  0
   45.5440   34.1130   45.3000 C   0  0  0  0  0  0  0  0  0  0  0  0
   44.7200   35.1690   45.4710 N   0  0  0  0  0  0  0  0  0  0  0  0
   45.7650   33.0380   46.2070 N   0  0  0  0  0  0  0  0  0  0  0  0
   45.1960   32.6980   47.3710 C   0  0  0  0  0  0  0  0  0  0  0  0
   45.8070   31.5070   47.7680 C   0  0  0  0  0  0  0  0  0  0  0  0
   46.7300   31.1870   46.8060 N   0  0  0  0  0  0  0  0  0  0  0  0
   46.6900   32.1260   45.8710 C   0  0  0  0  0  0  0  0  0  0  0  0
   46.9610   34.7850   41.9730 N   0  0  0  0  0  0  0  0  0  0  0  0
   48.1900   35.3930   41.8490 C   0  0  0  0  0  0  0  0  0  0  0  0
   48.6530   35.1490   40.6010 N   0  0  0  0  0  0  0  0  0  0  0  0
   47.7550   34.4110   39.9420 C   0  0  0  0  0  0  0  0  0  0  0  0
   47.7400   33.8950   38.6600 C   0  0  0  0  0  0  0  0  0  0  0  0
   46.6390   33.1690   38.3120 N   0  0  0  0  0  0  0  0  0  0  0  0
   45.6160   32.9570   39.1650 C   0  0  0  0  0  0  0  0  0  0  0  0
   45.6500   33.4730   40.4250 N   0  0  0  0  0  0  0  0  0  0  0  0
   46.7050   34.1930   40.8150 C   0  0  0  0  0  0  0  0  0  0  0  0
   48.8170   34.1190   37.7650 N   0  0  0  0  0  0  0  0  0  0  0  0
   47.8540   31.8360   44.5420 S   0  0  0  0  0  0  0  0  0  0  0  0
   43.9508   36.9730   44.6210 H   0  0  0  0  0  0  0  0  0  0  0  0
   45.3051   36.7366   42.4990 H   0  0  0  0  0  0  0  0  0  0  0  0
   44.4067   33.2464   47.9061 H   0  0  0  0  0  0  0  0  0  0  0  0
   45.5889   30.9333   48.6809 H   0  0  0  0  0  0  0  0  0  0  0  0
   48.7051   35.9749   42.6275 H   0  0  0  0  0  0  0  0  0  0  0  0
   44.7485   32.3634   38.8409 H   0  0  0  0  0  0  0  0  0  0  0  0
   48.7863   33.7256   36.8136 H   0  0  0  0  0  0  0  0  0  0  0  0
   49.6299   34.6751   38.0664 H   0  0  0  0  0  0  0  0  0  0  0  0
   49.0813   31.5302   45.0685 H   0  0  0  0  0  0  0  0  0  0  0  0
  1  6  2  0
  2  1  1  0
  3  2  2  0
  3  4  1  0
  4  5  2  0
  5  6  1  0
  5  7  1  0
  7  8  1  0
  8  9  2  0
 10  9  1  0
 11  7  1  0
 11 10  2  0
 12  3  1  0
 13 12  1  0
 14 13  2  0
 15 14  1  0
 15 20  2  0
 16 15  1  0
 17 16  2  0
 17 18  1  0
 18 19  2  0
 19 20  1  0
 20 12  1  0
 21 16  1  0
 22 11  1  0
  1 23  1  0
  2 24  1  0
  8 25  1  0
  9 26  1  0
 13 27  1  0
 18 28  1  0
 21 29  1  0
 21 30  1  0
 22 31  1  0
M  ISO  7  23  14  24  14  25  14  26  14  27  14  28  14  31  11
M  END
>  <minimizedAffinity>  (1) 
-6.34835434

>  <minimizedRMSD>  (1) 
0.271894217

$$$$
