
     RDKit          3D

 44 46  0  0  1  0  0  0  0  0999 V2000
   45.5440   34.3570   42.2840 C   0  0  0  0  0  0  0  0  0  0  0  0
   46.9480   34.3880   42.3010 C   0  0  0  0  0  0  0  0  0  0  0  0
   47.6070   33.9750   43.4820 C   0  0  0  0  0  0  0  0  0  0  0  0
   46.8730   33.5740   44.5310 N   0  0  0  0  0  0  0  0  0  0  0  0
   45.5390   33.5460   44.5110 C   0  0  0  0  0  0  0  0  0  0  0  0
   44.9010   33.9330   43.4020 N   0  0  0  0  0  0  0  0  0  0  0  0
   44.7310   34.7740   41.1900 C   0  0  0  0  0  0  0  0  0  0  0  0
   44.1880   33.5500   40.3940 C   0  0  0  0  0  0  0  0  0  0  0  0
   43.0990   34.2720   39.5570 C   0  0  0  0  0  0  0  0  0  0  0  0
   42.6210   35.3920   40.4270 C   0  0  0  0  0  0  0  0  0  0  0  0
   43.4260   35.3240   41.7120 C   0  0  0  0  0  0  0  0  0  0  0  0
   47.7190   34.8350   41.1460 C   0  0  1  0  0  0  0  0  0  0  0  0
   48.8560   35.7280   41.5200 C   0  0  0  0  0  0  0  0  0  0  0  0
   48.0710   33.6740   40.2970 C   0  0  0  0  0  0  0  0  0  0  0  0
   47.5290   33.7380   38.9570 N   0  0  0  0  0  0  0  0  0  0  0  0
   48.3810   34.3590   37.9820 C   0  0  0  0  0  0  0  0  0  0  0  0
   48.0460   33.7290   36.6500 C   0  0  0  0  0  0  0  0  0  0  0  0
   46.9480   32.7650   36.9520 C   0  0  0  0  0  0  0  0  0  0  0  0
   47.1770   32.4430   38.4260 C   0  0  0  0  0  0  0  0  0  0  0  0
   48.7055   33.9824   43.5398 H   0  0  0  0  0  0  0  0  0  0  0  0
   44.9737   33.2099   45.3927 H   0  0  0  0  0  0  0  0  0  0  0  0
   45.3546   35.4665   40.6056 H   0  0  0  0  0  0  0  0  0  0  0  0
   44.9620   33.0940   39.7591 H   0  0  0  0  0  0  0  0  0  0  0  0
   43.8346   32.7062   41.0048 H   0  0  0  0  0  0  0  0  0  0  0  0
   43.5264   34.6639   38.6222 H   0  0  0  0  0  0  0  0  0  0  0  0
   42.2817   33.5942   39.2697 H   0  0  0  0  0  0  0  0  0  0  0  0
   42.7872   36.3575   39.9267 H   0  0  0  0  0  0  0  0  0  0  0  0
   41.5439   35.3010   40.6309 H   0  0  0  0  0  0  0  0  0  0  0  0
   42.9641   34.6465   42.4453 H   0  0  0  0  0  0  0  0  0  0  0  0
   43.5135   36.2799   42.2493 H   0  0  0  0  0  0  0  0  0  0  0  0
   47.0930   35.4901   40.5224 H   0  0  0  0  0  0  0  0  0  0  0  0
   48.9309   35.7868   42.6159 H   0  0  0  0  0  0  0  0  0  0  0  0
   49.7921   35.3211   41.1098 H   0  0  0  0  0  0  0  0  0  0  0  0
   48.6825   36.7338   41.1098 H   0  0  0  0  0  0  0  0  0  0  0  0
   49.1672   33.6186   40.2243 H   0  0  0  0  0  0  0  0  0  0  0  0
   47.6323   32.7858   40.7753 H   0  0  0  0  0  0  0  0  0  0  0  0
   48.1916   35.4420   37.9477 H   0  0  0  0  0  0  0  0  0  0  0  0
   49.4420   34.2137   38.2332 H   0  0  0  0  0  0  0  0  0  0  0  0
   48.9206   33.2041   36.2383 H   0  0  0  0  0  0  0  0  0  0  0  0
   47.7489   34.4762   35.8994 H   0  0  0  0  0  0  0  0  0  0  0  0
   45.9617   33.2262   36.7957 H   0  0  0  0  0  0  0  0  0  0  0  0
   46.9591   31.8755   36.3050 H   0  0  0  0  0  0  0  0  0  0  0  0
   46.2637   32.0511   38.8974 H   0  0  0  0  0  0  0  0  0  0  0  0
   47.9369   31.6671   38.6008 H   0  0  0  0  0  0  0  0  0  0  0  0
  1  2  1  0
  1  6  2  0
  2  3  2  0
  3  4  1  0
  5  4  2  0
  6  5  1  0
  7 11  1  0
  7  1  1  0
  8  7  1  0
  9  8  1  0
  9 10  1  0
 10 11  1  0
 12 13  1  0
 12  2  1  0
 14 12  1  0
 15 14  1  0
 16 15  1  0
 17 18  1  0
 17 16  1  0
 18 19  1  0
 19 15  1  0
  3 20  1  0
  5 21  1  0
  7 22  1  0
  8 23  1  0
  8 24  1  0
  9 25  1  0
  9 26  1  0
 10 27  1  0
 10 28  1  0
 11 29  1  0
 11 30  1  0
 12 31  1  6
 13 32  1  0
 13 33  1  0
 13 34  1  0
 14 35  1  0
 14 36  1  0
 16 37  1  0
 16 38  1  0
 17 39  1  0
 17 40  1  0
 18 41  1  0
 18 42  1  0
 19 43  1  0
 19 44  1  0
M  ISO  8  20  14  21  14  22  13  23  13  24  13  25  13  26  13  27  13
M  ISO  8  28  13  29  13  30  13  31   8  32   8  33   8  34   8  35   8
M  ISO  8  36   8  37  13  38  13  39  13  40  13  41  13  42  13  43  13
M  ISO  1  44  13
M  END
>  <minimizedAffinity>  (1) 
-4.9867363

>  <minimizedRMSD>  (1) 
3.70437789

$$$$
