
     RDKit          3D

 42 44  0  0  1  0  0  0  0  0999 V2000
   45.6150   33.6060   43.5300 C   0  0  0  0  0  0  0  0  0  0  0  0
   46.6790   32.6930   43.6820 C   0  0  0  0  0  0  0  0  0  0  0  0
   47.1440   32.4160   44.9830 C   0  0  0  0  0  0  0  0  0  0  0  0
   46.5680   33.0260   46.0200 N   0  0  0  0  0  0  0  0  0  0  0  0
   45.5610   33.8920   45.8860 C   0  0  0  0  0  0  0  0  0  0  0  0
   45.1020   34.1690   44.6590 N   0  0  0  0  0  0  0  0  0  0  0  0
   45.0520   34.0230   42.2940 C   0  0  0  0  0  0  0  0  0  0  0  0
   43.6930   33.3170   42.0240 C   0  0  0  0  0  0  0  0  0  0  0  0
   43.1920   34.2110   40.8500 C   0  0  0  0  0  0  0  0  0  0  0  0
   43.7340   35.5700   41.1530 C   0  0  0  0  0  0  0  0  0  0  0  0
   44.5670   35.4530   42.4110 C   0  0  0  0  0  0  0  0  0  0  0  0
   47.2560   32.0430   42.4750 C   0  0  1  0  0  0  0  0  0  0  0  0
   46.3400   31.0920   41.8370 C   0  0  0  0  0  0  0  0  0  0  0  0
   47.9610   33.0570   41.6730 C   0  0  0  0  0  0  0  0  0  0  0  0
   49.3280   32.5870   41.3130 N   0  0  0  0  0  0  0  0  0  0  0  0
   49.5730   31.6210   40.3820 C   0  0  0  0  0  0  0  0  0  0  0  0
   50.8080   31.1780   39.9920 C   0  0  0  0  0  0  0  0  0  0  0  0
   51.8920   31.7680   40.6000 C   0  0  0  0  0  0  0  0  0  0  0  0
   53.0420   31.3920   40.2710 O   0  0  0  0  0  0  0  0  0  0  0  0
   51.6830   32.7090   41.5090 N   0  0  0  0  0  0  0  0  0  0  0  0
   50.4480   33.0990   41.8490 C   0  0  0  0  0  0  0  0  0  0  0  0
   50.4200   33.9970   42.7280 O   0  0  0  0  0  0  0  0  0  0  0  0
   47.9700   31.7070   45.1411 H   0  0  0  0  0  0  0  0  0  0  0  0
   45.1150   34.3708   46.7702 H   0  0  0  0  0  0  0  0  0  0  0  0
   45.8297   33.8313   41.5400 H   0  0  0  0  0  0  0  0  0  0  0  0
   43.8250   32.2686   41.7185 H   0  0  0  0  0  0  0  0  0  0  0  0
   43.0158   33.2419   42.8876 H   0  0  0  0  0  0  0  0  0  0  0  0
   42.0926   34.2297   40.8180 H   0  0  0  0  0  0  0  0  0  0  0  0
   43.5251   33.8381   39.8702 H   0  0  0  0  0  0  0  0  0  0  0  0
   44.3595   35.9202   40.3187 H   0  0  0  0  0  0  0  0  0  0  0  0
   42.9165   36.2925   41.2935 H   0  0  0  0  0  0  0  0  0  0  0  0
   43.9587   35.6021   43.3153 H   0  0  0  0  0  0  0  0  0  0  0  0
   45.3684   36.2013   42.4994 H   0  0  0  0  0  0  0  0  0  0  0  0
   48.0544   31.3294   42.7266 H   0  0  0  0  0  0  0  0  0  0  0  0
   45.7980   30.5292   42.6113 H   0  0  0  0  0  0  0  0  0  0  0  0
   45.6206   31.6398   41.2106 H   0  0  0  0  0  0  0  0  0  0  0  0
   46.9143   30.3936   41.2106 H   0  0  0  0  0  0  0  0  0  0  0  0
   47.3911   33.2491   40.7520 H   0  0  0  0  0  0  0  0  0  0  0  0
   48.0491   33.9788   42.2668 H   0  0  0  0  0  0  0  0  0  0  0  0
   48.6996   31.1561   39.9013 H   0  0  0  0  0  0  0  0  0  0  0  0
   50.9275   30.3915   39.2323 H   0  0  0  0  0  0  0  0  0  0  0  0
   52.4923   33.1525   41.9664 H   0  0  0  0  0  0  0  0  0  0  0  0
  1  2  1  0
  1  6  2  0
  2  3  2  0
  3  4  1  0
  5  4  2  0
  6  5  1  0
  7 11  1  0
  7  1  1  0
  8  7  1  0
  9 10  1  0
  9  8  1  0
 10 11  1  0
 12  2  1  0
 13 12  1  0
 14 12  1  0
 15 14  1  0
 15 21  1  0
 16 15  1  0
 17 16  2  0
 17 18  1  0
 18 20  1  0
 19 18  2  0
 20 21  1  0
 21 22  2  0
  3 23  1  0
  5 24  1  0
  7 25  1  0
  8 26  1  0
  8 27  1  0
  9 28  1  0
  9 29  1  0
 10 30  1  0
 10 31  1  0
 11 32  1  0
 11 33  1  0
 12 34  1  1
 13 35  1  0
 13 36  1  0
 13 37  1  0
 14 38  1  0
 14 39  1  0
 16 40  1  0
 17 41  1  0
 20 42  1  0
M  ISO  8  23  14  24  14  25  13  26  13  27  13  28  13  29  13  30  13
M  ISO  8  31  13  32  13  33  13  34   8  35   8  36   8  37   8  38   8
M  ISO  4  39   8  40  14  41  14  42   9
M  END
>  <minimizedAffinity>  (1) 
-4.9716301

>  <minimizedRMSD>  (1) 
1.51942158

$$$$
