
     RDKit          3D

 33 36  0  0  0  0  0  0  0  0999 V2000
   44.6270   36.1720   44.4410 C   0  0  0  0  0  0  0  0  0  0  0  0
   45.3760   36.0330   43.2440 C   0  0  0  0  0  0  0  0  0  0  0  0
   46.1970   34.9040   43.1160 C   0  0  0  0  0  0  0  0  0  0  0  0
   46.2130   34.0390   44.1350 N   0  0  0  0  0  0  0  0  0  0  0  0
   45.5190   34.1610   45.2550 C   0  0  0  0  0  0  0  0  0  0  0  0
   44.7110   35.2350   45.4250 N   0  0  0  0  0  0  0  0  0  0  0  0
   45.7210   33.0970   46.1700 N   0  0  0  0  0  0  0  0  0  0  0  0
   45.1910   32.7480   47.3340 C   0  0  0  0  0  0  0  0  0  0  0  0
   45.7620   31.5570   47.7460 C   0  0  0  0  0  0  0  0  0  0  0  0
   46.6500   31.2250   46.7680 N   0  0  0  0  0  0  0  0  0  0  0  0
   46.6150   32.1580   45.8310 C   0  0  0  0  0  0  0  0  0  0  0  0
   46.9300   34.8010   41.9240 N   0  0  0  0  0  0  0  0  0  0  0  0
   48.1610   35.3960   41.7810 C   0  0  0  0  0  0  0  0  0  0  0  0
   48.6210   35.1380   40.5410 N   0  0  0  0  0  0  0  0  0  0  0  0
   47.7150   34.3940   39.8900 C   0  0  0  0  0  0  0  0  0  0  0  0
   47.6830   33.8680   38.6240 C   0  0  0  0  0  0  0  0  0  0  0  0
   46.5910   33.1510   38.2820 N   0  0  0  0  0  0  0  0  0  0  0  0
   45.5670   32.9550   39.1390 C   0  0  0  0  0  0  0  0  0  0  0  0
   45.6020   33.4810   40.3980 N   0  0  0  0  0  0  0  0  0  0  0  0
   46.6650   34.1960   40.7740 C   0  0  0  0  0  0  0  0  0  0  0  0
   48.7610   34.0840   37.7090 N   0  0  0  0  0  0  0  0  0  0  0  0
   47.5620   31.8430   44.7700 C   0  0  0  0  0  0  0  0  0  0  0  0
   47.9800   30.7600   44.2700 O   0  0  0  0  0  0  0  0  0  0  0  0
   48.4000   32.3710   43.8570 O   0  0  0  0  0  0  0  0  0  0  0  0
   43.9720   37.0455   44.5752 H   0  0  0  0  0  0  0  0  0  0  0  0
   45.3146   36.7854   42.4439 H   0  0  0  0  0  0  0  0  0  0  0  0
   44.4229   33.3129   47.8825 H   0  0  0  0  0  0  0  0  0  0  0  0
   45.5449   30.9971   48.6676 H   0  0  0  0  0  0  0  0  0  0  0  0
   48.6831   35.9842   42.5500 H   0  0  0  0  0  0  0  0  0  0  0  0
   44.6952   32.3652   38.8195 H   0  0  0  0  0  0  0  0  0  0  0  0
   48.7209   33.6817   36.7617 H   0  0  0  0  0  0  0  0  0  0  0  0
   49.5774   34.6419   37.9974 H   0  0  0  0  0  0  0  0  0  0  0  0
   48.9204   31.7765   43.2605 H   0  0  0  0  0  0  0  0  0  0  0  0
  1  6  2  0
  2  1  1  0
  3  2  2  0
  3  4  1  0
  4  5  2  0
  5  6  1  0
  5  7  1  0
  7  8  1  0
  8  9  2  0
 10  9  1  0
 11  7  1  0
 11 10  2  0
 12  3  1  0
 13 12  1  0
 14 13  2  0
 15 14  1  0
 15 20  2  0
 16 15  1  0
 17 16  2  0
 17 18  1  0
 18 19  2  0
 19 20  1  0
 20 12  1  0
 21 16  1  0
 22 11  1  0
 23 22  2  0
 24 22  1  0
  1 25  1  0
  2 26  1  0
  8 27  1  0
  9 28  1  0
 13 29  1  0
 18 30  1  0
 21 31  1  0
 21 32  1  0
 24 33  1  0
M  ISO  7  25  14  26  14  27  14  28  14  29  14  30  14  33   3
M  END
>  <minimizedAffinity>  (1) 
-6.28620529

>  <minimizedRMSD>  (1) 
0.354273498

$$$$
