
     RDKit          3D

 35 39  0  0  0  0  0  0  0  0999 V2000
   44.6530   36.1670   44.4780 C   0  0  0  0  0  0  0  0  0  0  0  0
   45.4020   36.0440   43.2740 C   0  0  0  0  0  0  0  0  0  0  0  0
   46.1950   34.9160   43.1220 C   0  0  0  0  0  0  0  0  0  0  0  0
   46.1920   34.0270   44.1290 N   0  0  0  0  0  0  0  0  0  0  0  0
   45.5070   34.1210   45.2470 C   0  0  0  0  0  0  0  0  0  0  0  0
   44.7260   35.2040   45.4320 N   0  0  0  0  0  0  0  0  0  0  0  0
   45.7300   33.0060   46.1050 N   0  0  0  0  0  0  0  0  0  0  0  0
   45.1860   32.7170   47.3070 C   0  0  0  0  0  0  0  0  0  0  0  0
   45.7820   31.5570   47.7510 C   0  0  0  0  0  0  0  0  0  0  0  0
   46.6440   31.2250   46.7900 N   0  0  0  0  0  0  0  0  0  0  0  0
   46.6370   32.0910   45.7660 C   0  0  0  0  0  0  0  0  0  0  0  0
   46.9270   34.8070   41.9150 N   0  0  0  0  0  0  0  0  0  0  0  0
   48.1420   35.3800   41.7400 C   0  0  0  0  0  0  0  0  0  0  0  0
   48.5750   35.1040   40.4890 N   0  0  0  0  0  0  0  0  0  0  0  0
   47.6510   34.3610   39.8640 C   0  0  0  0  0  0  0  0  0  0  0  0
   47.6010   33.8220   38.5990 C   0  0  0  0  0  0  0  0  0  0  0  0
   46.4900   33.1040   38.2880 N   0  0  0  0  0  0  0  0  0  0  0  0
   45.4810   32.9230   39.1670 C   0  0  0  0  0  0  0  0  0  0  0  0
   45.5300   33.4570   40.4200 N   0  0  0  0  0  0  0  0  0  0  0  0
   46.6210   34.1810   40.7680 C   0  0  0  0  0  0  0  0  0  0  0  0
   48.6590   34.0150   37.6710 N   0  0  0  0  0  0  0  0  0  0  0  0
   47.5820   31.7550   44.6790 C   0  0  0  0  0  0  0  0  0  0  0  0
   48.4300   32.4370   43.9150 N   0  0  0  0  0  0  0  0  0  0  0  0
   49.0530   31.6920   43.0870 O   0  0  0  0  0  0  0  0  0  0  0  0
   48.6870   30.4490   43.2130 C   0  0  0  0  0  0  0  0  0  0  0  0
   47.8030   30.5570   44.1850 N   0  0  0  0  0  0  0  0  0  0  0  0
   44.0118   37.0467   44.6363 H   0  0  0  0  0  0  0  0  0  0  0  0
   45.3538   36.8159   42.4918 H   0  0  0  0  0  0  0  0  0  0  0  0
   44.4134   33.2979   47.8320 H   0  0  0  0  0  0  0  0  0  0  0  0
   45.5888   31.0219   48.6925 H   0  0  0  0  0  0  0  0  0  0  0  0
   48.6861   35.9716   42.4909 H   0  0  0  0  0  0  0  0  0  0  0  0
   44.6026   32.3332   38.8660 H   0  0  0  0  0  0  0  0  0  0  0  0
   48.5998   33.6019   36.7293 H   0  0  0  0  0  0  0  0  0  0  0  0
   49.4853   34.5680   37.9398 H   0  0  0  0  0  0  0  0  0  0  0  0
   49.0218   29.5576   42.6623 H   0  0  0  0  0  0  0  0  0  0  0  0
  1  6  2  0
  2  1  1  0
  3  2  2  0
  3  4  1  0
  4  5  2  0
  5  6  1  0
  5  7  1  0
  7  8  1  0
  8  9  2  0
 10  9  1  0
 11  7  1  0
 11 10  2  0
 12  3  1  0
 13 12  1  0
 14 13  2  0
 15 14  1  0
 15 20  2  0
 16 15  1  0
 17 16  2  0
 17 18  1  0
 18 19  2  0
 19 20  1  0
 20 12  1  0
 21 16  1  0
 22 11  1  0
 23 22  2  0
 24 25  1  0
 24 23  1  0
 25 26  2  0
 26 22  1  0
  1 27  1  0
  2 28  1  0
  8 29  1  0
  9 30  1  0
 13 31  1  0
 18 32  1  0
 21 33  1  0
 21 34  1  0
 25 35  1  0
M  ISO  7  27  14  28  14  29  14  30  14  31  14  32  14  35  14
M  END
>  <minimizedAffinity>  (1) 
-6.23173285

>  <minimizedRMSD>  (1) 
0.452274024

$$$$
