
     RDKit          3D

 26 26  0  0  1  0  0  0  0  0999 V2000
   48.2410   34.5150   41.4970 C   0  0  2  0  0  0  0  0  0  0  0  0
   45.2480   35.2980   43.6540 C   0  0  0  0  0  0  0  0  0  0  0  0
   46.1490   35.3580   42.5790 C   0  0  0  0  0  0  0  0  0  0  0  0
   47.2600   34.4910   42.5860 C   0  0  0  0  0  0  0  0  0  0  0  0
   47.3950   33.6420   43.6400 N   0  0  0  0  0  0  0  0  0  0  0  0
   46.5000   33.6120   44.6630 C   0  0  0  0  0  0  0  0  0  0  0  0
   45.4430   34.4260   44.6720 N   0  0  0  0  0  0  0  0  0  0  0  0
   48.9730   35.8430   41.5420 C   0  0  0  0  0  0  0  0  0  0  0  0
   47.5500   34.3570   40.1370 C   0  0  0  0  0  0  0  0  0  0  0  0
   48.5540   34.6470   39.1350 N   0  0  0  0  0  0  0  0  0  0  0  0
   48.4120   34.2450   37.7740 C   0  0  0  0  0  0  0  0  0  0  0  0
   47.2280   34.2400   37.2770 N   0  0  0  0  0  0  0  0  0  0  0  0
   49.5080   33.8620   36.9720 N   0  0  0  0  0  0  0  0  0  0  0  0
   46.4110   34.5180   37.8410 H   0  0  0  0  0  0  0  0  0  0  0  0
   48.9453   33.6795   41.6232 H   0  0  0  0  0  0  0  0  0  0  0  0
   44.3744   35.9663   43.6697 H   0  0  0  0  0  0  0  0  0  0  0  0
   45.9915   36.0649   41.7510 H   0  0  0  0  0  0  0  0  0  0  0  0
   46.6494   32.9072   45.4943 H   0  0  0  0  0  0  0  0  0  0  0  0
   49.1351   36.1370   42.5895 H   0  0  0  0  0  0  0  0  0  0  0  0
   49.9439   35.7439   41.0346 H   0  0  0  0  0  0  0  0  0  0  0  0
   48.3708   36.6110   41.0346 H   0  0  0  0  0  0  0  0  0  0  0  0
   47.1772   33.3292   40.0163 H   0  0  0  0  0  0  0  0  0  0  0  0
   46.6872   35.0333   40.0459 H   0  0  0  0  0  0  0  0  0  0  0  0
   49.4009   35.1620   39.4150 H   0  0  0  0  0  0  0  0  0  0  0  0
   49.3560   33.5791   35.9933 H   0  0  0  0  0  0  0  0  0  0  0  0
   50.4600   33.8653   37.3652 H   0  0  0  0  0  0  0  0  0  0  0  0
  1  8  1  0
  1  4  1  0
  2  7  2  0
  3  4  2  0
  3  2  1  0
  4  5  1  0
  5  6  2  0
  6  7  1  0
  9  1  1  0
 10  9  1  0
 11 10  1  0
 12 11  2  0
 12 14  1  0
 13 11  1  0
  1 15  1  1
  2 16  1  0
  3 17  1  0
  6 18  1  0
  8 19  1  0
  8 20  1  0
  8 21  1  0
  9 22  1  0
  9 23  1  0
 10 24  1  0
 13 25  1  0
 13 26  1  0
M  ISO  8  15   8  16  14  17  14  18  14  19   8  20   8  21   8  22   8
M  ISO  1  23   8
M  END
>  <minimizedAffinity>  (1) 
-5.05131006

>  <minimizedRMSD>  (1) 
1.85927165

$$$$
