
     RDKit          3D

 43 46  0  0  1  0  0  0  0  0999 V2000
   45.3320   34.4010   42.2560 C   0  0  0  0  0  0  0  0  0  0  0  0
   46.6930   34.0590   42.3630 C   0  0  0  0  0  0  0  0  0  0  0  0
   47.2450   33.8940   43.6470 C   0  0  0  0  0  0  0  0  0  0  0  0
   46.4560   34.0720   44.7190 N   0  0  0  0  0  0  0  0  0  0  0  0
   45.1680   34.3980   44.6280 C   0  0  0  0  0  0  0  0  0  0  0  0
   44.6310   34.5560   43.4120 N   0  0  0  0  0  0  0  0  0  0  0  0
   44.6290   34.6360   41.0460 C   0  0  0  0  0  0  0  0  0  0  0  0
   43.9190   33.3410   40.5400 C   0  0  0  0  0  0  0  0  0  0  0  0
   42.9920   33.9850   39.4720 C   0  0  0  0  0  0  0  0  0  0  0  0
   42.6660   35.3380   40.0090 C   0  0  0  0  0  0  0  0  0  0  0  0
   43.4090   35.4860   41.3200 C   0  0  0  0  0  0  0  0  0  0  0  0
   47.4990   33.8650   41.1380 C   0  0  1  0  0  0  0  0  0  0  0  0
   48.4550   34.9740   40.8920 C   0  0  0  0  0  0  0  0  0  0  0  0
   47.9930   32.4790   41.0790 C   0  0  0  0  0  0  0  0  0  0  0  0
   48.6690   32.2970   39.7530 N   0  0  0  0  0  0  0  0  0  0  0  0
   48.0650   32.4440   38.5490 C   0  0  0  0  0  0  0  0  0  0  0  0
   48.9010   32.2320   37.5450 N   0  0  0  0  0  0  0  0  0  0  0  0
   50.0910   31.9370   38.0570 C   0  0  0  0  0  0  0  0  0  0  0  0
   51.3810   31.6130   37.6490 C   0  0  0  0  0  0  0  0  0  0  0  0
   52.3860   31.3640   38.4890 N   0  0  0  0  0  0  0  0  0  0  0  0
   52.1760   31.4200   39.8330 C   0  0  0  0  0  0  0  0  0  0  0  0
   50.9400   31.7310   40.2980 N   0  0  0  0  0  0  0  0  0  0  0  0
   49.9340   31.9800   39.4230 C   0  0  0  0  0  0  0  0  0  0  0  0
   48.3042   33.6240   43.7703 H   0  0  0  0  0  0  0  0  0  0  0  0
   44.5581   34.5346   45.5332 H   0  0  0  0  0  0  0  0  0  0  0  0
   45.3745   35.0572   40.3554 H   0  0  0  0  0  0  0  0  0  0  0  0
   44.6280   32.6267   40.0961 H   0  0  0  0  0  0  0  0  0  0  0  0
   43.4129   32.7425   41.3118 H   0  0  0  0  0  0  0  0  0  0  0  0
   42.0765   33.3887   39.3446 H   0  0  0  0  0  0  0  0  0  0  0  0
   43.4737   34.0375   38.4844 H   0  0  0  0  0  0  0  0  0  0  0  0
   42.9918   36.1139   39.3007 H   0  0  0  0  0  0  0  0  0  0  0  0
   41.5819   35.4500   40.1579 H   0  0  0  0  0  0  0  0  0  0  0  0
   42.8232   35.0944   42.1647 H   0  0  0  0  0  0  0  0  0  0  0  0
   43.6303   36.5250   41.6055 H   0  0  0  0  0  0  0  0  0  0  0  0
   46.8716   33.9561   40.2391 H   0  0  0  0  0  0  0  0  0  0  0  0
   48.8033   35.3780   41.8540 H   0  0  0  0  0  0  0  0  0  0  0  0
   49.3153   34.5964   40.3199 H   0  0  0  0  0  0  0  0  0  0  0  0
   47.9547   35.7692   40.3199 H   0  0  0  0  0  0  0  0  0  0  0  0
   48.7103   32.3011   41.8937 H   0  0  0  0  0  0  0  0  0  0  0  0
   47.1623   31.7667   41.1911 H   0  0  0  0  0  0  0  0  0  0  0  0
   47.0049   32.7083   38.4211 H   0  0  0  0  0  0  0  0  0  0  0  0
   51.5838   31.5591   36.5692 H   0  0  0  0  0  0  0  0  0  0  0  0
   52.9989   31.2155   40.5337 H   0  0  0  0  0  0  0  0  0  0  0  0
  1  2  1  0
  1  6  2  0
  2  3  2  0
  3  4  1  0
  5  4  2  0
  6  5  1  0
  7 11  1  0
  7  1  1  0
  8  7  1  0
  9 10  1  0
  9  8  1  0
 10 11  1  0
 12  2  1  0
 13 12  1  0
 14 12  1  0
 15 14  1  0
 16 15  1  0
 17 18  1  0
 17 16  2  0
 18 23  2  0
 19 18  1  0
 19 20  2  0
 20 21  1  0
 21 22  2  0
 23 15  1  0
 23 22  1  0
  3 24  1  0
  5 25  1  0
  7 26  1  0
  8 27  1  0
  8 28  1  0
  9 29  1  0
  9 30  1  0
 10 31  1  0
 10 32  1  0
 11 33  1  0
 11 34  1  0
 12 35  1  6
 13 36  1  0
 13 37  1  0
 13 38  1  0
 14 39  1  0
 14 40  1  0
 16 41  1  0
 19 42  1  0
 21 43  1  0
M  ISO  8  24  14  25  14  26  13  27  13  28  13  29  13  30  13  31  13
M  ISO  8  32  13  33  13  34  13  35   8  36   8  37   8  38   8  39   8
M  ISO  4  40   8  41  14  42  14  43  14
M  END
>  <minimizedAffinity>  (1) 
-4.95408821

>  <minimizedRMSD>  (1) 
1.70581138

$$$$
