
     RDKit          3D

 32 33  0  0  1  0  0  0  0  0999 V2000
   47.0740   33.8150   42.5070 C   0  0  2  0  0  0  0  0  0  0  0  0
   44.6450   36.0370   44.3550 C   0  0  0  0  0  0  0  0  0  0  0  0
   45.4650   35.5640   43.3030 C   0  0  0  0  0  0  0  0  0  0  0  0
   46.1950   34.3760   43.5440 C   0  0  0  0  0  0  0  0  0  0  0  0
   46.0530   33.7840   44.7580 N   0  0  0  0  0  0  0  0  0  0  0  0
   45.2630   34.2610   45.7400 C   0  0  0  0  0  0  0  0  0  0  0  0
   44.5530   35.3960   45.5370 N   0  0  0  0  0  0  0  0  0  0  0  0
   48.3020   33.2620   43.2200 C   0  0  0  0  0  0  0  0  0  0  0  0
   47.4640   34.8590   41.4800 C   0  0  0  0  0  0  0  0  0  0  0  0
   47.3090   33.0980   37.5820 C   0  0  0  0  0  0  0  0  0  0  0  0
   46.4200   32.7700   38.6010 C   0  0  0  0  0  0  0  0  0  0  0  0
   46.5120   33.3680   39.8440 C   0  0  0  0  0  0  0  0  0  0  0  0
   47.4800   34.3070   40.1240 C   0  0  0  0  0  0  0  0  0  0  0  0
   48.3710   34.6440   39.1290 C   0  0  0  0  0  0  0  0  0  0  0  0
   48.2860   34.0520   37.8840 C   0  0  0  0  0  0  0  0  0  0  0  0
   47.1710   32.3290   36.0210 S   0  0  0  0  0  0  0  0  0  0  0  0
   45.8320   32.5350   35.3860 O   0  0  0  0  0  0  0  0  0  0  0  0
   48.2870   32.8380   35.1550 O   0  0  0  0  0  0  0  0  0  0  0  0
   46.5521   33.0218   41.9516 H   0  0  0  0  0  0  0  0  0  0  0  0
   44.0635   36.9583   44.2029 H   0  0  0  0  0  0  0  0  0  0  0  0
   45.5318   36.0954   42.3422 H   0  0  0  0  0  0  0  0  0  0  0  0
   45.1953   33.7311   46.7016 H   0  0  0  0  0  0  0  0  0  0  0  0
   48.1550   33.3282   44.3081 H   0  0  0  0  0  0  0  0  0  0  0  0
   48.4499   32.2104   42.9333 H   0  0  0  0  0  0  0  0  0  0  0  0
   49.1875   33.8483   42.9333 H   0  0  0  0  0  0  0  0  0  0  0  0
   46.7394   35.6857   41.5196 H   0  0  0  0  0  0  0  0  0  0  0  0
   48.4785   35.2113   41.7182 H   0  0  0  0  0  0  0  0  0  0  0  0
   45.6330   32.0244   38.4149 H   0  0  0  0  0  0  0  0  0  0  0  0
   45.7944   33.0870   40.6289 H   0  0  0  0  0  0  0  0  0  0  0  0
   49.1553   35.3894   39.3272 H   0  0  0  0  0  0  0  0  0  0  0  0
   49.0088   34.3397   37.1063 H   0  0  0  0  0  0  0  0  0  0  0  0
   47.2784   30.9724   36.1791 H   0  0  0  0  0  0  0  0  0  0  0  0
  1  8  1  0
  1  4  1  0
  2  7  2  0
  3  4  2  0
  3  2  1  0
  4  5  1  0
  5  6  2  0
  7  6  1  0
  9  1  1  0
 10 15  2  0
 10 11  1  0
 11 12  2  0
 12 13  1  0
 13  9  1  0
 14 13  2  0
 15 14  1  0
 16 10  1  0
 17 16  2  0
 18 16  2  0
  1 19  1  6
  2 20  1  0
  3 21  1  0
  6 22  1  0
  8 23  1  0
  8 24  1  0
  8 25  1  0
  9 26  1  0
  9 27  1  0
 11 28  1  0
 12 29  1  0
 14 30  1  0
 15 31  1  0
 16 32  1  0
M  ISO  8  19   8  20  14  21  14  22  14  23   8  24   8  25   8  26   8
M  ISO  6  27   8  28  14  29  14  30  14  31  14  32  11
M  END
>  <minimizedAffinity>  (1) 
-4.92076445

>  <minimizedRMSD>  (1) 
1.32800329

$$$$
