
     RDKit          3D

 33 35  0  0  1  0  0  0  0  0999 V2000
   47.0520   34.2810   42.1940 C   0  0  2  0  0  0  0  0  0  0  0  0
   44.5620   35.8180   44.5980 C   0  0  0  0  0  0  0  0  0  0  0  0
   45.3130   35.6320   43.4280 C   0  0  0  0  0  0  0  0  0  0  0  0
   46.2180   34.5710   43.3860 C   0  0  0  0  0  0  0  0  0  0  0  0
   46.3170   33.7770   44.4960 N   0  0  0  0  0  0  0  0  0  0  0  0
   45.5820   33.9800   45.6080 C   0  0  0  0  0  0  0  0  0  0  0  0
   44.7120   34.9930   45.6580 N   0  0  0  0  0  0  0  0  0  0  0  0
   48.0550   35.4160   42.0790 C   0  0  0  0  0  0  0  0  0  0  0  0
   46.1860   34.2310   40.9450 C   0  0  0  0  0  0  0  0  0  0  0  0
   47.0210   33.9980   39.7510 C   0  0  0  0  0  0  0  0  0  0  0  0
   48.3240   34.2910   39.3910 C   0  0  0  0  0  0  0  0  0  0  0  0
   48.5550   33.8320   38.1620 N   0  0  0  0  0  0  0  0  0  0  0  0
   47.4560   33.2250   37.6470 C   0  0  0  0  0  0  0  0  0  0  0  0
   47.1590   32.6000   36.4530 C   0  0  0  0  0  0  0  0  0  0  0  0
   45.9100   32.0580   36.2010 C   0  0  0  0  0  0  0  0  0  0  0  0
   44.9440   32.1510   37.1780 C   0  0  0  0  0  0  0  0  0  0  0  0
   45.2650   32.7740   38.3470 C   0  0  0  0  0  0  0  0  0  0  0  0
   46.5090   33.3350   38.6440 C   0  0  0  0  0  0  0  0  0  0  0  0
   47.5560   33.3084   42.2940 H   0  0  0  0  0  0  0  0  0  0  0  0
   43.8409   36.6468   44.6536 H   0  0  0  0  0  0  0  0  0  0  0  0
   45.1916   36.3049   42.5663 H   0  0  0  0  0  0  0  0  0  0  0  0
   45.6985   33.3118   46.4740 H   0  0  0  0  0  0  0  0  0  0  0  0
   48.3491   35.7488   43.0854 H   0  0  0  0  0  0  0  0  0  0  0  0
   48.9441   35.0658   41.5342 H   0  0  0  0  0  0  0  0  0  0  0  0
   47.5981   36.2553   41.5342 H   0  0  0  0  0  0  0  0  0  0  0  0
   45.4560   33.4139   41.0422 H   0  0  0  0  0  0  0  0  0  0  0  0
   45.6633   35.1925   40.8336 H   0  0  0  0  0  0  0  0  0  0  0  0
   49.0546   34.8199   40.0206 H   0  0  0  0  0  0  0  0  0  0  0  0
   49.4529   33.9258   37.6661 H   0  0  0  0  0  0  0  0  0  0  0  0
   47.9373   32.5304   35.6788 H   0  0  0  0  0  0  0  0  0  0  0  0
   45.6943   31.5643   35.2420 H   0  0  0  0  0  0  0  0  0  0  0  0
   43.9389   31.7332   37.0190 H   0  0  0  0  0  0  0  0  0  0  0  0
   44.4825   32.8402   39.1173 H   0  0  0  0  0  0  0  0  0  0  0  0
  1  4  1  0
  2  7  2  0
  3  2  1  0
  4  3  2  0
  4  5  1  0
  5  6  2  0
  6  7  1  0
  8  1  1  0
  9  1  1  0
 10  9  1  0
 11 10  2  0
 12 11  1  0
 13 12  1  0
 13 18  2  0
 14 13  1  0
 15 14  2  0
 15 16  1  0
 16 17  2  0
 17 18  1  0
 18 10  1  0
  1 19  1  1
  2 20  1  0
  3 21  1  0
  6 22  1  0
  8 23  1  0
  8 24  1  0
  8 25  1  0
  9 26  1  0
  9 27  1  0
 11 28  1  0
 12 29  1  0
 14 30  1  0
 15 31  1  0
 16 32  1  0
 17 33  1  0
M  ISO  8  19   8  20  14  21  14  22  14  23   8  24   8  25   8  26   8
M  ISO  7  27   8  28  14  29   9  30  14  31  14  32  14  33  14
M  END
>  <minimizedAffinity>  (1) 
-4.87635088

>  <minimizedRMSD>  (1) 
0.563239515

$$$$
