
     RDKit          3D

 32 33  0  0  1  0  0  0  0  0999 V2000
   47.6550   35.0580   41.6610 C   0  0  2  0  0  0  0  0  0  0  0  0
   46.3390   33.0290   38.7520 C   0  0  0  0  0  0  0  0  0  0  0  0
   46.4480   33.5780   40.0440 C   0  0  0  0  0  0  0  0  0  0  0  0
   47.5080   34.4610   40.3160 C   0  0  0  0  0  0  0  0  0  0  0  0
   48.3580   34.7200   39.3040 N   0  0  0  0  0  0  0  0  0  0  0  0
   48.2430   34.1870   38.0710 C   0  0  0  0  0  0  0  0  0  0  0  0
   47.2430   33.3470   37.7950 N   0  0  0  0  0  0  0  0  0  0  0  0
   49.0940   35.5310   41.7950 C   0  0  0  0  0  0  0  0  0  0  0  0
   47.3020   34.0850   42.7480 C   0  0  0  0  0  0  0  0  0  0  0  0
   45.9320   34.2920   43.3200 C   0  0  0  0  0  0  0  0  0  0  0  0
   45.8880   33.9560   44.7970 C   0  0  0  0  0  0  0  0  0  0  0  0
   44.9200   34.9370   45.4190 C   0  0  0  0  0  0  0  0  0  0  0  0
   44.4080   35.7870   44.2740 C   0  0  0  0  0  0  0  0  0  0  0  0
   45.5320   35.7510   43.2850 C   0  0  0  0  0  0  0  0  0  0  0  0
   46.9582   35.9019   41.7717 H   0  0  0  0  0  0  0  0  0  0  0  0
   45.5153   32.3382   38.5187 H   0  0  0  0  0  0  0  0  0  0  0  0
   45.7179   33.3211   40.8256 H   0  0  0  0  0  0  0  0  0  0  0  0
   48.9746   34.4448   37.2910 H   0  0  0  0  0  0  0  0  0  0  0  0
   49.3542   35.6165   42.8604 H   0  0  0  0  0  0  0  0  0  0  0  0
   49.7648   34.8061   41.3108 H   0  0  0  0  0  0  0  0  0  0  0  0
   49.2039   36.5126   41.3108 H   0  0  0  0  0  0  0  0  0  0  0  0
   47.3554   33.0673   42.3340 H   0  0  0  0  0  0  0  0  0  0  0  0
   48.0196   34.2431   43.5666 H   0  0  0  0  0  0  0  0  0  0  0  0
   45.2737   33.6509   42.7154 H   0  0  0  0  0  0  0  0  0  0  0  0
   45.5344   32.9248   44.9440 H   0  0  0  0  0  0  0  0  0  0  0  0
   46.8849   34.0275   45.2563 H   0  0  0  0  0  0  0  0  0  0  0  0
   44.0887   34.4023   45.9017 H   0  0  0  0  0  0  0  0  0  0  0  0
   45.4033   35.5486   46.1951 H   0  0  0  0  0  0  0  0  0  0  0  0
   43.4914   35.3570   43.8439 H   0  0  0  0  0  0  0  0  0  0  0  0
   44.1410   36.8082   44.5834 H   0  0  0  0  0  0  0  0  0  0  0  0
   46.3620   36.4010   43.5988 H   0  0  0  0  0  0  0  0  0  0  0  0
   45.2546   36.1119   42.2836 H   0  0  0  0  0  0  0  0  0  0  0  0
  1  8  1  0
  1  9  1  0
  2  3  2  0
  3  4  1  0
  4  1  1  0
  5  4  2  0
  6  5  1  0
  7  6  2  0
  7  2  1  0
  9 10  1  0
 10 11  1  0
 11 12  1  0
 13 12  1  0
 14 10  1  0
 14 13  1  0
  1 15  1  6
  2 16  1  0
  3 17  1  0
  6 18  1  0
  8 19  1  0
  8 20  1  0
  8 21  1  0
  9 22  1  0
  9 23  1  0
 10 24  1  0
 11 25  1  0
 11 26  1  0
 12 27  1  0
 12 28  1  0
 13 29  1  0
 13 30  1  0
 14 31  1  0
 14 32  1  0
M  ISO  8  15   8  16  14  17  14  18  14  19   8  20   8  21   8  22   8
M  ISO  8  23   8  24  13  25  13  26  13  27  13  28  13  29  13  30  13
M  ISO  2  31  13  32  13
M  END
>  <minimizedAffinity>  (1) 
-4.52342749

>  <minimizedRMSD>  (1) 
5.64860868

$$$$
