
     RDKit          3D

 30 32  0  0  1  0  0  0  0  0999 V2000
   46.2340   34.1800   42.0880 C   0  0  2  0  0  0  0  0  0  0  0  0
   44.5160   36.0440   44.8850 C   0  0  0  0  0  0  0  0  0  0  0  0
   45.0150   35.7750   43.5900 C   0  0  0  0  0  0  0  0  0  0  0  0
   45.6770   34.5490   43.4010 C   0  0  0  0  0  0  0  0  0  0  0  0
   45.7980   33.7010   44.4620 N   0  0  0  0  0  0  0  0  0  0  0  0
   45.3050   33.9950   45.6890 C   0  0  0  0  0  0  0  0  0  0  0  0
   44.6740   35.1500   45.8980 N   0  0  0  0  0  0  0  0  0  0  0  0
   47.4840   35.0260   41.8760 C   0  0  0  0  0  0  0  0  0  0  0  0
   45.2610   34.4500   40.9650 C   0  0  0  0  0  0  0  0  0  0  0  0
   44.0780   33.6740   41.0320 N   0  0  0  0  0  0  0  0  0  0  0  0
   43.9960   32.3160   40.9590 C   0  0  0  0  0  0  0  0  0  0  0  0
   42.7190   31.9100   41.0570 N   0  0  0  0  0  0  0  0  0  0  0  0
   41.9310   32.9850   41.1960 C   0  0  0  0  0  0  0  0  0  0  0  0
   40.5770   33.1750   41.3380 C   0  0  0  0  0  0  0  0  0  0  0  0
   40.1180   34.4350   41.4570 N   0  0  0  0  0  0  0  0  0  0  0  0
   40.9780   35.4880   41.4370 C   0  0  0  0  0  0  0  0  0  0  0  0
   42.2910   35.2900   41.2990 N   0  0  0  0  0  0  0  0  0  0  0  0
   42.7960   34.0600   41.1780 C   0  0  0  0  0  0  0  0  0  0  0  0
   46.4554   33.1026   42.0786 H   0  0  0  0  0  0  0  0  0  0  0  0
   43.9914   36.9917   45.0766 H   0  0  0  0  0  0  0  0  0  0  0  0
   44.8908   36.4933   42.7663 H   0  0  0  0  0  0  0  0  0  0  0  0
   45.4258   33.2786   46.5149 H   0  0  0  0  0  0  0  0  0  0  0  0
   47.9042   35.3104   42.8520 H   0  0  0  0  0  0  0  0  0  0  0  0
   48.2284   34.4453   41.3115 H   0  0  0  0  0  0  0  0  0  0  0  0
   47.2216   35.9329   41.3115 H   0  0  0  0  0  0  0  0  0  0  0  0
   45.7640   34.2330   40.0111 H   0  0  0  0  0  0  0  0  0  0  0  0
   44.9572   35.5036   41.0520 H   0  0  0  0  0  0  0  0  0  0  0  0
   44.8579   31.6436   40.8365 H   0  0  0  0  0  0  0  0  0  0  0  0
   39.8861   32.3192   41.3540 H   0  0  0  0  0  0  0  0  0  0  0  0
   40.5884   36.5120   41.5354 H   0  0  0  0  0  0  0  0  0  0  0  0
  1  4  1  0
  2  7  2  0
  3  2  1  0
  4  3  2  0
  4  5  1  0
  5  6  2  0
  6  7  1  0
  8  1  1  0
  9 10  1  0
  9  1  1  0
 10 18  1  0
 11 10  1  0
 11 12  2  0
 12 13  1  0
 13 14  2  0
 14 15  1  0
 16 15  2  0
 17 16  1  0
 18 13  1  0
 18 17  2  0
  1 19  1  1
  2 20  1  0
  3 21  1  0
  6 22  1  0
  8 23  1  0
  8 24  1  0
  8 25  1  0
  9 26  1  0
  9 27  1  0
 11 28  1  0
 14 29  1  0
 16 30  1  0
M  ISO  8  19   8  20  14  21  14  22  14  23   8  24   8  25   8  26   8
M  ISO  4  27   8  28  14  29  14  30  14
M  END
>  <minimizedAffinity>  (1) 
-4.87178516

>  <minimizedRMSD>  (1) 
1.09024036

$$$$
