
     RDKit          3D

 29 30  0  0  1  0  0  0  0  0999 V2000
   47.9200   34.4160   41.6440 C   0  0  2  0  0  0  0  0  0  0  0  0
   45.0960   35.3640   43.9770 C   0  0  0  0  0  0  0  0  0  0  0  0
   45.9250   35.3860   42.8350 C   0  0  0  0  0  0  0  0  0  0  0  0
   47.0010   34.4640   42.8000 C   0  0  0  0  0  0  0  0  0  0  0  0
   47.1530   33.6340   43.8640 N   0  0  0  0  0  0  0  0  0  0  0  0
   46.3400   33.6430   44.9400 C   0  0  0  0  0  0  0  0  0  0  0  0
   45.3170   34.5040   44.9950 N   0  0  0  0  0  0  0  0  0  0  0  0
   48.7700   35.6770   41.7030 C   0  0  0  0  0  0  0  0  0  0  0  0
   47.1530   34.3530   40.3370 C   0  0  0  0  0  0  0  0  0  0  0  0
   48.0290   33.6520   39.3320 C   0  0  0  0  0  0  0  0  0  0  0  0
   48.7480   32.5120   39.5830 C   0  0  0  0  0  0  0  0  0  0  0  0
   49.5090   31.9740   38.5710 C   0  0  0  0  0  0  0  0  0  0  0  0
   49.6060   32.5050   37.3070 C   0  0  0  0  0  0  0  0  0  0  0  0
   48.8830   33.6630   37.0350 C   0  0  0  0  0  0  0  0  0  0  0  0
   48.1220   34.1930   38.0560 C   0  0  0  0  0  0  0  0  0  0  0  0
   48.5469   33.5132   41.6887 H   0  0  0  0  0  0  0  0  0  0  0  0
   44.2497   36.0639   44.0396 H   0  0  0  0  0  0  0  0  0  0  0  0
   45.7439   36.0882   42.0079 H   0  0  0  0  0  0  0  0  0  0  0  0
   46.5174   32.9441   45.7707 H   0  0  0  0  0  0  0  0  0  0  0  0
   48.9523   35.9475   42.7535 H   0  0  0  0  0  0  0  0  0  0  0  0
   49.7308   35.4955   41.1991 H   0  0  0  0  0  0  0  0  0  0  0  0
   48.2413   36.4995   41.1991 H   0  0  0  0  0  0  0  0  0  0  0  0
   46.2178   33.7910   40.4769 H   0  0  0  0  0  0  0  0  0  0  0  0
   46.8964   35.3644   39.9889 H   0  0  0  0  0  0  0  0  0  0  0  0
   48.7170   32.0366   40.5745 H   0  0  0  0  0  0  0  0  0  0  0  0
   50.0778   31.0578   38.7879 H   0  0  0  0  0  0  0  0  0  0  0  0
   50.2331   32.0314   36.5372 H   0  0  0  0  0  0  0  0  0  0  0  0
   48.9173   34.1375   36.0432 H   0  0  0  0  0  0  0  0  0  0  0  0
   47.5488   35.1079   37.8451 H   0  0  0  0  0  0  0  0  0  0  0  0
  1  8  1  0
  1  4  1  0
  2  7  2  0
  3  2  1  0
  4  3  2  0
  4  5  1  0
  5  6  2  0
  6  7  1  0
  9  1  1  0
 10 11  2  0
 10  9  1  0
 12 11  1  0
 13 12  2  0
 14 13  1  0
 14 15  2  0
 15 10  1  0
  1 16  1  1
  2 17  1  0
  3 18  1  0
  6 19  1  0
  8 20  1  0
  8 21  1  0
  8 22  1  0
  9 23  1  0
  9 24  1  0
 11 25  1  0
 12 26  1  0
 13 27  1  0
 14 28  1  0
 15 29  1  0
M  ISO  8  16   8  17  14  18  14  19  14  20   8  21   8  22   8  23   8
M  ISO  6  24   8  25  14  26  14  27  14  28  14  29  14
M  END
>  <minimizedAffinity>  (1) 
-4.52756691

>  <minimizedRMSD>  (1) 
1.26927483

$$$$
