
     RDKit          3D

 32 33  0  0  1  0  0  0  0  0999 V2000
   47.2750   34.3640   41.9980 C   0  0  2  0  0  0  0  0  0  0  0  0
   44.6860   35.9460   44.2650 C   0  0  0  0  0  0  0  0  0  0  0  0
   45.5040   35.7360   43.1400 C   0  0  0  0  0  0  0  0  0  0  0  0
   46.3880   34.6410   43.1510 C   0  0  0  0  0  0  0  0  0  0  0  0
   46.4060   33.8420   44.2500 N   0  0  0  0  0  0  0  0  0  0  0  0
   45.6030   34.0720   45.3230 C   0  0  0  0  0  0  0  0  0  0  0  0
   44.7510   35.1060   45.3400 N   0  0  0  0  0  0  0  0  0  0  0  0
   48.3210   35.4700   41.9640 C   0  0  0  0  0  0  0  0  0  0  0  0
   46.4680   34.3630   40.6980 C   0  0  0  0  0  0  0  0  0  0  0  0
   47.0140   33.3790   39.8490 N   0  0  0  0  0  0  0  0  0  0  0  0
   48.2160   33.6860   39.1510 C   0  0  0  0  0  0  0  0  0  0  0  0
   47.9810   34.1170   37.7260 C   0  0  0  0  0  0  0  0  0  0  0  0
   46.8710   33.5320   37.1570 O   0  0  0  0  0  0  0  0  0  0  0  0
   46.5490   32.3290   37.7240 C   0  0  0  0  0  0  0  0  0  0  0  0
   46.1200   32.5100   39.1630 C   0  0  0  0  0  0  0  0  0  0  0  0
   47.7502   33.3771   42.0989 H   0  0  0  0  0  0  0  0  0  0  0  0
   43.9870   36.7952   44.2791 H   0  0  0  0  0  0  0  0  0  0  0  0
   45.4539   36.4111   42.2730 H   0  0  0  0  0  0  0  0  0  0  0  0
   45.6537   33.3983   46.1911 H   0  0  0  0  0  0  0  0  0  0  0  0
   48.5888   35.7532   42.9926 H   0  0  0  0  0  0  0  0  0  0  0  0
   49.2175   35.1108   41.4374 H   0  0  0  0  0  0  0  0  0  0  0  0
   47.9124   36.3451   41.4374 H   0  0  0  0  0  0  0  0  0  0  0  0
   45.4148   34.1289   40.9123 H   0  0  0  0  0  0  0  0  0  0  0  0
   46.5144   35.3516   40.2178 H   0  0  0  0  0  0  0  0  0  0  0  0
   48.7307   34.5002   39.6822 H   0  0  0  0  0  0  0  0  0  0  0  0
   48.8197   32.7670   39.1194 H   0  0  0  0  0  0  0  0  0  0  0  0
   47.8482   35.2088   37.7086 H   0  0  0  0  0  0  0  0  0  0  0  0
   48.8551   33.7971   37.1399 H   0  0  0  0  0  0  0  0  0  0  0  0
   45.7245   31.8724   37.1568 H   0  0  0  0  0  0  0  0  0  0  0  0
   47.4366   31.6797   37.7002 H   0  0  0  0  0  0  0  0  0  0  0  0
   45.1082   32.9410   39.1867 H   0  0  0  0  0  0  0  0  0  0  0  0
   46.1288   31.5291   39.6607 H   0  0  0  0  0  0  0  0  0  0  0  0
  1  4  1  0
  2  7  2  0
  3  4  2  0
  3  2  1  0
  4  5  1  0
  5  6  2  0
  6  7  1  0
  8  1  1  0
  9  1  1  0
 10  9  1  0
 11 10  1  0
 12 11  1  0
 13 14  1  0
 13 12  1  0
 14 15  1  0
 15 10  1  0
  1 16  1  1
  2 17  1  0
  3 18  1  0
  6 19  1  0
  8 20  1  0
  8 21  1  0
  8 22  1  0
  9 23  1  0
  9 24  1  0
 11 25  1  0
 11 26  1  0
 12 27  1  0
 12 28  1  0
 14 29  1  0
 14 30  1  0
 15 31  1  0
 15 32  1  0
M  ISO  8  16   8  17  14  18  14  19  14  20   8  21   8  22   8  23   8
M  ISO  8  24   8  25  13  26  13  27  13  28  13  29  13  30  13  31  13
M  ISO  1  32  13
M  END
>  <minimizedAffinity>  (1) 
-4.25020647

>  <minimizedRMSD>  (1) 
2.68424821

$$$$
