
     RDKit          3D

 27 28  0  0  1  0  0  0  0  0999 V2000
   47.6960   34.3480   41.7320 C   0  0  2  0  0  0  0  0  0  0  0  0
   44.9220   35.7100   43.8830 C   0  0  0  0  0  0  0  0  0  0  0  0
   45.7940   35.5810   42.7910 C   0  0  0  0  0  0  0  0  0  0  0  0
   46.7430   34.5470   42.8350 C   0  0  0  0  0  0  0  0  0  0  0  0
   46.7630   33.7370   43.9210 N   0  0  0  0  0  0  0  0  0  0  0  0
   45.9070   33.8860   44.9620 C   0  0  0  0  0  0  0  0  0  0  0  0
   44.9960   34.8590   44.9450 N   0  0  0  0  0  0  0  0  0  0  0  0
   48.6230   35.5530   41.7160 C   0  0  0  0  0  0  0  0  0  0  0  0
   46.9920   34.2190   40.3920 C   0  0  0  0  0  0  0  0  0  0  0  0
   47.9380   33.5890   39.4330 C   0  0  0  0  0  0  0  0  0  0  0  0
   48.0260   34.2020   38.1870 C   0  0  0  0  0  0  0  0  0  0  0  0
   48.9010   33.6260   37.2880 C   0  0  0  0  0  0  0  0  0  0  0  0
   49.6290   32.5350   37.5890 N   0  0  0  0  0  0  0  0  0  0  0  0
   49.5260   31.9560   38.8050 C   0  0  0  0  0  0  0  0  0  0  0  0
   48.6760   32.5120   39.6890 N   0  0  0  0  0  0  0  0  0  0  0  0
   48.2526   33.4125   41.8905 H   0  0  0  0  0  0  0  0  0  0  0  0
   44.1672   36.5102   43.8818 H   0  0  0  0  0  0  0  0  0  0  0  0
   45.7362   36.2652   41.9316 H   0  0  0  0  0  0  0  0  0  0  0  0
   45.9644   33.2027   45.8221 H   0  0  0  0  0  0  0  0  0  0  0  0
   48.8532   35.8523   42.7492 H   0  0  0  0  0  0  0  0  0  0  0  0
   49.5551   35.2916   41.1936 H   0  0  0  0  0  0  0  0  0  0  0  0
   48.1314   36.3869   41.1936 H   0  0  0  0  0  0  0  0  0  0  0  0
   46.0963   33.5897   40.5003 H   0  0  0  0  0  0  0  0  0  0  0  0
   46.6818   35.2093   40.0271 H   0  0  0  0  0  0  0  0  0  0  0  0
   47.4332   35.0932   37.9333 H   0  0  0  0  0  0  0  0  0  0  0  0
   49.0070   34.0751   36.2895 H   0  0  0  0  0  0  0  0  0  0  0  0
   50.1146   31.0634   39.0635 H   0  0  0  0  0  0  0  0  0  0  0  0
  1  4  1  0
  2  7  2  0
  3  4  2  0
  3  2  1  0
  4  5  1  0
  5  6  2  0
  7  6  1  0
  8  1  1  0
  9  1  1  0
 10 15  1  0
 10  9  1  0
 11 10  2  0
 12 13  2  0
 12 11  1  0
 13 14  1  0
 14 15  2  0
  1 16  1  1
  2 17  1  0
  3 18  1  0
  6 19  1  0
  8 20  1  0
  8 21  1  0
  8 22  1  0
  9 23  1  0
  9 24  1  0
 11 25  1  0
 12 26  1  0
 14 27  1  0
M  ISO  8  16   8  17  14  18  14  19  14  20   8  21   8  22   8  23   8
M  ISO  4  24   8  25  14  26  14  27  14
M  END
>  <minimizedAffinity>  (1) 
-4.41719675

>  <minimizedRMSD>  (1) 
3.57682204

$$$$
