
     RDKit          3D

 34 35  0  0  1  0  0  0  0  0999 V2000
   47.3160   34.3940   41.9820 C   0  0  2  0  0  0  0  0  0  0  0  0
   44.6840   35.8570   44.2520 C   0  0  0  0  0  0  0  0  0  0  0  0
   45.5080   35.6800   43.1240 C   0  0  0  0  0  0  0  0  0  0  0  0
   46.4290   34.6220   43.1330 C   0  0  0  0  0  0  0  0  0  0  0  0
   46.4510   33.8480   44.2370 N   0  0  0  0  0  0  0  0  0  0  0  0
   45.6620   34.0260   45.3040 C   0  0  0  0  0  0  0  0  0  0  0  0
   44.7770   35.0310   45.3160 N   0  0  0  0  0  0  0  0  0  0  0  0
   48.3490   35.5100   41.9680 C   0  0  0  0  0  0  0  0  0  0  0  0
   46.5450   34.3370   40.6840 C   0  0  0  0  0  0  0  0  0  0  0  0
   46.9490   33.2590   39.8310 N   0  0  0  0  0  0  0  0  0  0  0  0
   48.2530   33.6290   39.2760 C   0  0  0  0  0  0  0  0  0  0  0  0
   48.0780   34.2010   37.8690 C   0  0  0  0  0  0  0  0  0  0  0  0
   47.7440   33.0240   36.9690 C   0  0  0  0  0  0  0  0  0  0  0  0
   46.8160   32.1210   37.7510 C   0  0  0  0  0  0  0  0  0  0  0  0
   46.0450   32.9470   38.7730 C   0  0  0  0  0  0  0  0  0  0  0  0
   47.8138   33.4180   42.0804 H   0  0  0  0  0  0  0  0  0  0  0  0
   43.9542   36.6799   44.2666 H   0  0  0  0  0  0  0  0  0  0  0  0
   45.4315   36.3540   42.2581 H   0  0  0  0  0  0  0  0  0  0  0  0
   45.7404   33.3492   46.1676 H   0  0  0  0  0  0  0  0  0  0  0  0
   48.6045   35.7861   43.0017 H   0  0  0  0  0  0  0  0  0  0  0  0
   49.2539   35.1655   41.4461 H   0  0  0  0  0  0  0  0  0  0  0  0
   47.9357   36.3857   41.4461 H   0  0  0  0  0  0  0  0  0  0  0  0
   45.4769   34.2158   40.9175 H   0  0  0  0  0  0  0  0  0  0  0  0
   46.7478   35.2733   40.1435 H   0  0  0  0  0  0  0  0  0  0  0  0
   48.7223   34.3861   39.9215 H   0  0  0  0  0  0  0  0  0  0  0  0
   48.8915   32.7347   39.2259 H   0  0  0  0  0  0  0  0  0  0  0  0
   47.2591   34.9353   37.8555 H   0  0  0  0  0  0  0  0  0  0  0  0
   48.9888   34.7170   37.5310 H   0  0  0  0  0  0  0  0  0  0  0  0
   48.6621   32.4811   36.7003 H   0  0  0  0  0  0  0  0  0  0  0  0
   47.2689   33.3640   36.0370 H   0  0  0  0  0  0  0  0  0  0  0  0
   46.1084   31.6372   37.0617 H   0  0  0  0  0  0  0  0  0  0  0  0
   47.4055   31.3517   38.2712 H   0  0  0  0  0  0  0  0  0  0  0  0
   45.6753   33.8727   38.3078 H   0  0  0  0  0  0  0  0  0  0  0  0
   45.1773   32.3877   39.1528 H   0  0  0  0  0  0  0  0  0  0  0  0
  1  4  1  0
  2  7  2  0
  3  4  2  0
  3  2  1  0
  4  5  1  0
  5  6  2  0
  6  7  1  0
  8  1  1  0
  9  1  1  0
 10  9  1  0
 11 10  1  0
 12 11  1  0
 13 14  1  0
 13 12  1  0
 14 15  1  0
 15 10  1  0
  1 16  1  1
  2 17  1  0
  3 18  1  0
  6 19  1  0
  8 20  1  0
  8 21  1  0
  8 22  1  0
  9 23  1  0
  9 24  1  0
 11 25  1  0
 11 26  1  0
 12 27  1  0
 12 28  1  0
 13 29  1  0
 13 30  1  0
 14 31  1  0
 14 32  1  0
 15 33  1  0
 15 34  1  0
M  ISO  8  16   8  17  14  18  14  19  14  20   8  21   8  22   8  23   8
M  ISO  8  24   8  25  13  26  13  27  13  28  13  29  13  30  13  31  13
M  ISO  3  32  13  33  13  34  13
M  END
>  <minimizedAffinity>  (1) 
-4.28724957

>  <minimizedRMSD>  (1) 
0.988539875

$$$$
