
     RDKit          3D

 45 47  0  0  1  0  0  0  0  0999 V2000
   45.8250   33.8580   44.9090 C   0  0  0  0  0  0  0  0  0  0  0  0
   46.7760   32.8310   45.0430 C   0  0  0  0  0  0  0  0  0  0  0  0
   46.8990   32.1880   46.2890 C   0  0  0  0  0  0  0  0  0  0  0  0
   46.1070   32.5790   47.3000 N   0  0  0  0  0  0  0  0  0  0  0  0
   45.2050   33.5480   47.1810 C   0  0  0  0  0  0  0  0  0  0  0  0
   45.0770   34.1670   46.0030 N   0  0  0  0  0  0  0  0  0  0  0  0
   45.6020   34.6390   43.7460 C   0  0  0  0  0  0  0  0  0  0  0  0
   44.4950   34.0260   42.8400 C   0  0  0  0  0  0  0  0  0  0  0  0
   44.2500   35.2410   41.9050 C   0  0  0  0  0  0  0  0  0  0  0  0
   44.5230   36.4420   42.7490 C   0  0  0  0  0  0  0  0  0  0  0  0
   44.9180   35.9360   44.1210 C   0  0  0  0  0  0  0  0  0  0  0  0
   47.6040   32.4420   43.8800 C   0  0  1  0  0  0  0  0  0  0  0  0
   46.9470   31.4410   43.0050 C   0  0  0  0  0  0  0  0  0  0  0  0
   48.1950   33.6410   43.2630 C   0  0  0  0  0  0  0  0  0  0  0  0
   48.6400   33.0260   39.0040 C   0  0  0  0  0  0  0  0  0  0  0  0
   49.3700   32.2500   39.8770 C   0  0  0  0  0  0  0  0  0  0  0  0
   49.2180   32.4530   41.2080 C   0  0  0  0  0  0  0  0  0  0  0  0
   48.3720   33.3960   41.7510 C   0  0  0  0  0  0  0  0  0  0  0  0
   47.6630   34.1480   40.8290 C   0  0  0  0  0  0  0  0  0  0  0  0
   47.7710   33.9920   39.4640 C   0  0  0  0  0  0  0  0  0  0  0  0
   48.8480   32.7510   37.2960 S   0  0  0  0  0  0  0  0  0  0  0  0
   48.4950   33.9660   36.4830 O   0  0  0  0  0  0  0  0  0  0  0  0
   47.9480   31.6060   36.9210 O   0  0  0  0  0  0  0  0  0  0  0  0
   47.6311   31.3795   46.4318 H   0  0  0  0  0  0  0  0  0  0  0  0
   44.5754   33.8353   48.0360 H   0  0  0  0  0  0  0  0  0  0  0  0
   46.5897   34.7249   43.2694 H   0  0  0  0  0  0  0  0  0  0  0  0
   44.8545   33.1455   42.2873 H   0  0  0  0  0  0  0  0  0  0  0  0
   43.6071   33.6467   43.3671 H   0  0  0  0  0  0  0  0  0  0  0  0
   43.2101   35.2491   41.5466 H   0  0  0  0  0  0  0  0  0  0  0  0
   44.8916   35.2101   41.0120 H   0  0  0  0  0  0  0  0  0  0  0  0
   45.3427   37.0321   42.3132 H   0  0  0  0  0  0  0  0  0  0  0  0
   43.6365   37.0904   42.8090 H   0  0  0  0  0  0  0  0  0  0  0  0
   44.0390   35.7625   44.7591 H   0  0  0  0  0  0  0  0  0  0  0  0
   45.5385   36.6306   44.7062 H   0  0  0  0  0  0  0  0  0  0  0  0
   48.4776   31.8574   44.2042 H   0  0  0  0  0  0  0  0  0  0  0  0
   46.4488   30.6819   43.6260 H   0  0  0  0  0  0  0  0  0  0  0  0
   46.2016   31.9421   42.3700 H   0  0  0  0  0  0  0  0  0  0  0  0
   47.7033   30.9565   42.3700 H   0  0  0  0  0  0  0  0  0  0  0  0
   47.5295   34.5025   43.4210 H   0  0  0  0  0  0  0  0  0  0  0  0
   49.1730   33.8495   43.7213 H   0  0  0  0  0  0  0  0  0  0  0  0
   50.0618   31.4816   39.5015 H   0  0  0  0  0  0  0  0  0  0  0  0
   49.8051   31.8276   41.8966 H   0  0  0  0  0  0  0  0  0  0  0  0
   46.9726   34.9155   41.2089 H   0  0  0  0  0  0  0  0  0  0  0  0
   47.1870   34.6136   38.7693 H   0  0  0  0  0  0  0  0  0  0  0  0
   50.1627   32.4690   37.0334 H   0  0  0  0  0  0  0  0  0  0  0  0
  1  2  1  0
  1  6  2  0
  2  3  2  0
  3  4  1  0
  5  4  2  0
  6  5  1  0
  7 11  1  0
  7  1  1  0
  8  7  1  0
  9 10  1  0
  9  8  1  0
 10 11  1  0
 12  2  1  0
 13 12  1  0
 14 12  1  0
 15 20  2  0
 15 16  1  0
 16 17  2  0
 17 18  1  0
 18 14  1  0
 19 18  2  0
 20 19  1  0
 21 15  1  0
 22 21  2  0
 23 21  2  0
  3 24  1  0
  5 25  1  0
  7 26  1  0
  8 27  1  0
  8 28  1  0
  9 29  1  0
  9 30  1  0
 10 31  1  0
 10 32  1  0
 11 33  1  0
 11 34  1  0
 12 35  1  1
 13 36  1  0
 13 37  1  0
 13 38  1  0
 14 39  1  0
 14 40  1  0
 16 41  1  0
 17 42  1  0
 19 43  1  0
 20 44  1  0
 21 45  1  0
M  ISO  8  24  14  25  14  26  13  27  13  28  13  29  13  30  13  31  13
M  ISO  8  32  13  33  13  34  13  35   8  36   8  37   8  38   8  39   8
M  ISO  6  40   8  41  14  42  14  43  14  44  14  45  11
M  END
>  <minimizedAffinity>  (1) 
-4.90939093

>  <minimizedRMSD>  (1) 
1.90102804

$$$$
