
     RDKit          3D

 49 52  0  0  1  0  0  0  0  0999 V2000
   46.5200   31.2020   45.4290 C   0  0  2  0  0  0  0  0  0  0  0  0
   44.7360   35.0810   45.4720 C   0  0  0  0  0  0  0  0  0  0  0  0
   44.4920   36.0910   44.5510 C   0  0  0  0  0  0  0  0  0  0  0  0
   45.1730   36.0420   43.3230 C   0  0  0  0  0  0  0  0  0  0  0  0
   46.0280   35.0210   43.0980 N   0  0  0  0  0  0  0  0  0  0  0  0
   46.2570   34.0350   44.0170 C   0  0  0  0  0  0  0  0  0  0  0  0
   45.6020   34.0880   45.1870 N   0  0  0  0  0  0  0  0  0  0  0  0
   47.1480   32.9670   43.8020 N   0  0  0  0  0  0  0  0  0  0  0  0
   48.0670   33.1560   42.8170 C   0  0  0  0  0  0  0  0  0  0  0  0
   48.8330   31.9710   42.8080 C   0  0  0  0  0  0  0  0  0  0  0  0
   48.3510   31.1310   43.7720 N   0  0  0  0  0  0  0  0  0  0  0  0
   47.3250   31.7630   44.3620 C   0  0  0  0  0  0  0  0  0  0  0  0
   47.1930   31.6360   46.7650 C   0  0  0  0  0  0  0  0  0  0  0  0
   46.5340   29.7070   45.4030 C   0  0  0  0  0  0  0  0  0  0  0  0
   45.2420   29.1270   45.3330 N   0  0  0  0  0  0  0  0  0  0  0  0
   44.3240   29.3810   44.4010 N   0  0  0  0  0  0  0  0  0  0  0  0
   43.2220   28.6370   44.6700 C   0  0  0  0  0  0  0  0  0  0  0  0
   43.4480   27.8880   45.8050 C   0  0  0  0  0  0  0  0  0  0  0  0
   44.7400   28.2140   46.2150 C   0  0  0  0  0  0  0  0  0  0  0  0
   45.4320   27.6310   47.4270 C   0  0  0  0  0  0  0  0  0  0  0  0
   46.3470   26.5450   47.0370 C   0  0  0  0  0  0  0  0  0  0  0  0
   46.0290   25.1600   47.4560 C   0  0  0  0  0  0  0  0  0  0  0  0
   45.2120   25.0480   48.7100 C   0  0  0  0  0  0  0  0  0  0  0  0
   44.0000   25.9370   48.5450 C   0  0  0  0  0  0  0  0  0  0  0  0
   44.5120   27.3560   48.5550 C   0  0  0  0  0  0  0  0  0  0  0  0
   45.4821   31.5499   45.3205 H   0  0  0  0  0  0  0  0  0  0  0  0
   44.2182   35.0912   46.4425 H   0  0  0  0  0  0  0  0  0  0  0  0
   43.7869   36.9048   44.7759 H   0  0  0  0  0  0  0  0  0  0  0  0
   45.0131   36.8189   42.5609 H   0  0  0  0  0  0  0  0  0  0  0  0
   48.1866   34.0378   42.1704 H   0  0  0  0  0  0  0  0  0  0  0  0
   49.6779   31.7587   42.1364 H   0  0  0  0  0  0  0  0  0  0  0  0
   46.6039   31.2561   47.6127 H   0  0  0  0  0  0  0  0  0  0  0  0
   48.2120   31.2244   46.8129 H   0  0  0  0  0  0  0  0  0  0  0  0
   47.2385   32.7340   46.8129 H   0  0  0  0  0  0  0  0  0  0  0  0
   47.1097   29.3801   44.5245 H   0  0  0  0  0  0  0  0  0  0  0  0
   46.9861   29.3728   46.3485 H   0  0  0  0  0  0  0  0  0  0  0  0
   42.2956   28.6322   44.0769 H   0  0  0  0  0  0  0  0  0  0  0  0
   42.7550   27.1819   46.2858 H   0  0  0  0  0  0  0  0  0  0  0  0
   46.0863   28.4003   47.8630 H   0  0  0  0  0  0  0  0  0  0  0  0
   46.4009   26.5463   45.9383 H   0  0  0  0  0  0  0  0  0  0  0  0
   47.2797   26.7776   47.5717 H   0  0  0  0  0  0  0  0  0  0  0  0
   45.4707   24.6766   46.6408 H   0  0  0  0  0  0  0  0  0  0  0  0
   46.9926   24.6757   47.6728 H   0  0  0  0  0  0  0  0  0  0  0  0
   44.8951   24.0053   48.8597 H   0  0  0  0  0  0  0  0  0  0  0  0
   45.8022   25.3569   49.5853 H   0  0  0  0  0  0  0  0  0  0  0  0
   43.2964   25.7800   49.3758 H   0  0  0  0  0  0  0  0  0  0  0  0
   43.4629   25.7120   47.6118 H   0  0  0  0  0  0  0  0  0  0  0  0
   45.0481   27.5317   49.4993 H   0  0  0  0  0  0  0  0  0  0  0  0
   43.6459   28.0264   48.4532 H   0  0  0  0  0  0  0  0  0  0  0  0
  1 13  1  0
  3  2  2  0
  4  3  1  0
  5  4  2  0
  5  6  1  0
  6  7  2  0
  7  2  1  0
  8  6  1  0
  8 12  1  0
  9  8  1  0
 10  9  2  0
 10 11  1  0
 11 12  2  0
 12  1  1  0
 14  1  1  0
 15 14  1  0
 15 19  1  0
 16 17  2  0
 16 15  1  0
 17 18  1  0
 18 19  2  0
 19 20  1  0
 20 25  1  0
 21 20  1  0
 21 22  1  0
 22 23  1  0
 24 25  1  0
 24 23  1  0
  1 26  1  1
  2 27  1  0
  3 28  1  0
  4 29  1  0
  9 30  1  0
 10 31  1  0
 13 32  1  0
 13 33  1  0
 13 34  1  0
 14 35  1  0
 14 36  1  0
 17 37  1  0
 18 38  1  0
 20 39  1  0
 21 40  1  0
 21 41  1  0
 22 42  1  0
 22 43  1  0
 23 44  1  0
 23 45  1  0
 24 46  1  0
 24 47  1  0
 25 48  1  0
 25 49  1  0
M  ISO  8  26   8  27  14  28  14  29  14  30  14  31  14  32   8  33   8
M  ISO  8  34   8  35   8  36   8  37  14  38  14  39  13  40  13  41  13
M  ISO  8  42  13  43  13  44  13  45  13  46  13  47  13  48  13  49  13
M  END
>  <minimizedAffinity>  (1) 
-4.9624958

>  <minimizedRMSD>  (1) 
1.4238801

$$$$
