
     RDKit          3D

 39 41  0  0  1  0  0  0  0  0999 V2000
   45.0640   34.1690   41.5860 C   0  0  0  0  0  0  0  0  0  0  0  0
   44.2880   33.5440   40.5810 C   0  0  0  0  0  0  0  0  0  0  0  0
   44.9180   33.1680   39.3880 C   0  0  0  0  0  0  0  0  0  0  0  0
   46.2270   33.4110   39.2380 N   0  0  0  0  0  0  0  0  0  0  0  0
   46.9700   34.0010   40.1780 C   0  0  0  0  0  0  0  0  0  0  0  0
   46.3840   34.3660   41.3250 N   0  0  0  0  0  0  0  0  0  0  0  0
   44.5810   34.6500   42.8300 C   0  0  0  0  0  0  0  0  0  0  0  0
   45.2960   33.9600   44.0290 C   0  0  0  0  0  0  0  0  0  0  0  0
   44.8440   34.9220   45.1640 C   0  0  0  0  0  0  0  0  0  0  0  0
   44.6930   36.2530   44.5110 C   0  0  0  0  0  0  0  0  0  0  0  0
   45.0560   36.0680   43.0520 C   0  0  0  0  0  0  0  0  0  0  0  0
   42.8520   33.2910   40.8300 C   0  0  1  0  0  0  0  0  0  0  0  0
   42.6030   32.1650   41.7550 C   0  0  0  0  0  0  0  0  0  0  0  0
   42.1540   34.5710   41.0660 C   0  0  0  0  0  0  0  0  0  0  0  0
   40.8030   34.4590   40.3000 C   0  0  0  0  0  0  0  0  0  0  0  0
   40.5190   34.6730   38.9450 C   0  0  0  0  0  0  0  0  0  0  0  0
   39.1770   34.4580   38.7380 C   0  0  0  0  0  0  0  0  0  0  0  0
   38.6820   34.1260   39.9290 N   0  0  0  0  0  0  0  0  0  0  0  0
   39.6130   34.1180   40.8650 N   0  0  0  0  0  0  0  0  0  0  0  0
   44.3459   32.6799   38.5852 H   0  0  0  0  0  0  0  0  0  0  0  0
   48.0422   34.1834   40.0130 H   0  0  0  0  0  0  0  0  0  0  0  0
   43.4923   34.4978   42.7911 H   0  0  0  0  0  0  0  0  0  0  0  0
   44.9352   32.9334   44.1897 H   0  0  0  0  0  0  0  0  0  0  0  0
   46.3831   33.8304   43.9221 H   0  0  0  0  0  0  0  0  0  0  0  0
   43.8860   34.5911   45.5914 H   0  0  0  0  0  0  0  0  0  0  0  0
   45.5678   34.9499   45.9918 H   0  0  0  0  0  0  0  0  0  0  0  0
   43.6543   36.6035   44.6014 H   0  0  0  0  0  0  0  0  0  0  0  0
   45.3421   37.0025   44.9874 H   0  0  0  0  0  0  0  0  0  0  0  0
   46.1393   36.1643   42.8873 H   0  0  0  0  0  0  0  0  0  0  0  0
   44.6159   36.8117   42.3714 H   0  0  0  0  0  0  0  0  0  0  0  0
   42.3698   32.8873   39.9275 H   0  0  0  0  0  0  0  0  0  0  0  0
   42.6814   32.5193   42.7934 H   0  0  0  0  0  0  0  0  0  0  0  0
   41.5942   31.7628   41.5799 H   0  0  0  0  0  0  0  0  0  0  0  0
   43.3481   31.3750   41.5799 H   0  0  0  0  0  0  0  0  0  0  0  0
   41.9746   34.7179   42.1413 H   0  0  0  0  0  0  0  0  0  0  0  0
   42.7487   35.4288   40.7188 H   0  0  0  0  0  0  0  0  0  0  0  0
   41.2483   34.9645   38.1749 H   0  0  0  0  0  0  0  0  0  0  0  0
   38.6278   34.5424   37.7887 H   0  0  0  0  0  0  0  0  0  0  0  0
   37.6912   33.9022   40.0995 H   0  0  0  0  0  0  0  0  0  0  0  0
  1  7  1  0
  2 12  1  0
  2  1  1  0
  3  2  2  0
  4  3  1  0
  4  5  2  0
  5  6  1  0
  6  1  2  0
  7 11  1  0
  7  8  1  0
  8  9  1  0
 10  9  1  0
 11 10  1  0
 12 14  1  0
 12 13  1  0
 15 19  2  0
 15 14  1  0
 16 15  1  0
 17 16  2  0
 17 18  1  0
 18 19  1  0
  3 20  1  0
  5 21  1  0
  7 22  1  0
  8 23  1  0
  8 24  1  0
  9 25  1  0
  9 26  1  0
 10 27  1  0
 10 28  1  0
 11 29  1  0
 11 30  1  0
 12 31  1  6
 13 32  1  0
 13 33  1  0
 13 34  1  0
 14 35  1  0
 14 36  1  0
 16 37  1  0
 17 38  1  0
 18 39  1  0
M  ISO  8  20  14  21  14  22  13  23  13  24  13  25  13  26  13  27  13
M  ISO  8  28  13  29  13  30  13  31   8  32   8  33   8  34   8  35   8
M  ISO  4  36   8  37  14  38  14  39   9
M  END
>  <minimizedAffinity>  (1) 
-4.84728289

>  <minimizedRMSD>  (1) 
6.7454524

$$$$
