
     RDKit          3D

 45 48  0  0  1  0  0  0  0  0999 V2000
   45.3850   34.0630   40.6530 N   0  0  0  0  0  0  0  0  0  0  0  0
   46.0050   33.0760   39.9780 C   0  0  0  0  0  0  0  0  0  0  0  0
   45.3430   32.3370   39.0050 C   0  0  0  0  0  0  0  0  0  0  0  0
   44.0330   32.6730   38.7800 C   0  0  0  0  0  0  0  0  0  0  0  0
   43.3750   32.0400   37.9030 O   0  0  0  0  0  0  0  0  0  0  0  0
   43.4140   33.6480   39.4490 N   0  0  0  0  0  0  0  0  0  0  0  0
   44.0910   34.3290   40.3730 C   0  0  0  0  0  0  0  0  0  0  0  0
   43.5600   35.2620   41.0350 O   0  0  0  0  0  0  0  0  0  0  0  0
   42.0390   34.0240   39.2390 C   0  0  0  0  0  0  0  0  0  0  0  0
   41.8480   35.0080   38.2660 C   0  0  0  0  0  0  0  0  0  0  0  0
   40.5700   35.4400   37.9860 C   0  0  0  0  0  0  0  0  0  0  0  0
   39.4920   34.9010   38.6640 C   0  0  0  0  0  0  0  0  0  0  0  0
   39.7100   33.9300   39.6200 C   0  0  0  0  0  0  0  0  0  0  0  0
   38.6340   33.3780   40.3140 C   0  0  0  0  0  0  0  0  0  0  0  0
   38.8800   32.4030   41.2690 C   0  0  0  0  0  0  0  0  0  0  0  0
   40.1590   31.9770   41.5440 C   0  0  0  0  0  0  0  0  0  0  0  0
   41.2670   32.5050   40.8720 C   0  0  0  0  0  0  0  0  0  0  0  0
   40.9680   33.4610   39.9410 C   0  0  0  0  0  0  0  0  0  0  0  0
   46.1950   34.7700   41.5810 C   0  0  0  0  0  0  0  0  0  0  0  0
   46.7930   33.9640   42.6680 C   0  0  2  0  0  0  0  0  0  0  0  0
   44.5840   35.3580   45.3630 C   0  0  0  0  0  0  0  0  0  0  0  0
   45.2250   35.1960   44.1210 C   0  0  0  0  0  0  0  0  0  0  0  0
   46.1170   34.1330   43.9540 C   0  0  0  0  0  0  0  0  0  0  0  0
   46.3040   33.3200   45.0210 N   0  0  0  0  0  0  0  0  0  0  0  0
   45.7040   33.4580   46.2120 C   0  0  0  0  0  0  0  0  0  0  0  0
   44.8350   34.4890   46.3790 N   0  0  0  0  0  0  0  0  0  0  0  0
   48.2620   34.3460   42.9030 C   0  0  0  0  0  0  0  0  0  0  0  0
   47.0580   32.8500   40.2018 H   0  0  0  0  0  0  0  0  0  0  0  0
   45.8409   31.5297   38.4479 H   0  0  0  0  0  0  0  0  0  0  0  0
   42.7087   35.4334   37.7291 H   0  0  0  0  0  0  0  0  0  0  0  0
   40.4070   36.2146   37.2222 H   0  0  0  0  0  0  0  0  0  0  0  0
   38.4701   35.2431   38.4433 H   0  0  0  0  0  0  0  0  0  0  0  0
   37.6061   33.7107   40.1072 H   0  0  0  0  0  0  0  0  0  0  0  0
   38.0353   31.9612   41.8179 H   0  0  0  0  0  0  0  0  0  0  0  0
   40.3142   31.2031   42.3102 H   0  0  0  0  0  0  0  0  0  0  0  0
   42.2969   32.1771   41.0764 H   0  0  0  0  0  0  0  0  0  0  0  0
   47.0162   35.2404   41.0204 H   0  0  0  0  0  0  0  0  0  0  0  0
   45.5214   35.4836   42.0780 H   0  0  0  0  0  0  0  0  0  0  0  0
   46.6899   32.9232   42.3274 H   0  0  0  0  0  0  0  0  0  0  0  0
   43.8787   36.1888   45.5127 H   0  0  0  0  0  0  0  0  0  0  0  0
   45.0273   35.8947   43.2947 H   0  0  0  0  0  0  0  0  0  0  0  0
   45.9099   32.7549   47.0325 H   0  0  0  0  0  0  0  0  0  0  0  0
   48.4591   34.3973   43.9840 H   0  0  0  0  0  0  0  0  0  0  0  0
   48.9155   33.5879   42.4467 H   0  0  0  0  0  0  0  0  0  0  0  0
   48.4634   35.3264   42.4467 H   0  0  0  0  0  0  0  0  0  0  0  0
  1 19  1  0
  2  1  1  0
  3  2  2  0
  4  3  1  0
  4  6  1  0
  5  4  2  0
  6  7  1  0
  7  1  1  0
  7  8  2  0
  9  6  1  0
  9 18  1  0
 10  9  2  0
 11 10  1  0
 11 12  2  0
 12 13  1  0
 13 18  2  0
 13 14  1  0
 14 15  2  0
 15 16  1  0
 17 16  2  0
 18 17  1  0
 19 20  1  0
 20 27  1  0
 20 23  1  0
 21 26  2  0
 22 21  1  0
 23 22  2  0
 23 24  1  0
 24 25  2  0
 25 26  1  0
  2 28  1  0
  3 29  1  0
 10 30  1  0
 11 31  1  0
 12 32  1  0
 14 33  1  0
 15 34  1  0
 16 35  1  0
 17 36  1  0
 19 37  1  0
 19 38  1  0
 20 39  1  6
 21 40  1  0
 22 41  1  0
 25 42  1  0
 27 43  1  0
 27 44  1  0
 27 45  1  0
M  ISO  8  28  14  29  14  30  14  31  14  32  14  33  14  34  14  35  14
M  ISO  8  36  14  37   8  38   8  39   8  40  14  41  14  42  14  43   8
M  ISO  2  44   8  45   8
M  END
>  <minimizedAffinity>  (1) 
-6.64263487

>  <minimizedRMSD>  (1) 
4.26307726

$$$$
