
     RDKit          3D

 42 44  0  0  1  0  0  0  0  0999 V2000
   45.9100   33.8620   44.6800 C   0  0  0  0  0  0  0  0  0  0  0  0
   46.8880   32.8590   44.8140 C   0  0  0  0  0  0  0  0  0  0  0  0
   47.0460   32.2370   46.0660 C   0  0  0  0  0  0  0  0  0  0  0  0
   46.2640   32.6190   47.0820 N   0  0  0  0  0  0  0  0  0  0  0  0
   45.3330   33.5690   46.9680 C   0  0  0  0  0  0  0  0  0  0  0  0
   45.1700   34.1700   45.7810 N   0  0  0  0  0  0  0  0  0  0  0  0
   45.6440   34.6110   43.5050 C   0  0  0  0  0  0  0  0  0  0  0  0
   44.5010   33.9710   42.6640 C   0  0  0  0  0  0  0  0  0  0  0  0
   44.2100   35.1630   41.7090 C   0  0  0  0  0  0  0  0  0  0  0  0
   44.5200   36.3840   42.5050 C   0  0  0  0  0  0  0  0  0  0  0  0
   44.9720   35.9170   43.8730 C   0  0  0  0  0  0  0  0  0  0  0  0
   47.7090   32.4760   43.6400 C   0  0  1  0  0  0  0  0  0  0  0  0
   47.0340   31.4970   42.7580 C   0  0  0  0  0  0  0  0  0  0  0  0
   48.3150   33.6760   43.0430 C   0  0  0  0  0  0  0  0  0  0  0  0
   48.4100   33.4650   41.5220 C   0  0  0  0  0  0  0  0  0  0  0  0
   49.2260   32.4970   40.9860 C   0  0  0  0  0  0  0  0  0  0  0  0
   49.3670   32.2670   39.6360 C   0  0  0  0  0  0  0  0  0  0  0  0
   48.6420   33.0550   38.7730 C   0  0  0  0  0  0  0  0  0  0  0  0
   47.8040   34.0440   39.2410 C   0  0  0  0  0  0  0  0  0  0  0  0
   47.7140   34.2170   40.6000 C   0  0  0  0  0  0  0  0  0  0  0  0
   47.8005   31.4491   46.2072 H   0  0  0  0  0  0  0  0  0  0  0  0
   44.7123   33.8528   47.8306 H   0  0  0  0  0  0  0  0  0  0  0  0
   46.6112   34.6858   42.9864 H   0  0  0  0  0  0  0  0  0  0  0  0
   44.8399   33.0779   42.1185 H   0  0  0  0  0  0  0  0  0  0  0  0
   43.6386   33.6021   43.2387 H   0  0  0  0  0  0  0  0  0  0  0  0
   43.1543   35.1613   41.4001 H   0  0  0  0  0  0  0  0  0  0  0  0
   44.8092   35.1086   40.7882 H   0  0  0  0  0  0  0  0  0  0  0  0
   45.3214   36.9591   42.0182 H   0  0  0  0  0  0  0  0  0  0  0  0
   43.6375   37.0358   42.5842 H   0  0  0  0  0  0  0  0  0  0  0  0
   44.1203   35.7595   44.5511 H   0  0  0  0  0  0  0  0  0  0  0  0
   45.6136   36.6285   44.4135 H   0  0  0  0  0  0  0  0  0  0  0  0
   48.5784   31.8753   43.9454 H   0  0  0  0  0  0  0  0  0  0  0  0
   46.5161   30.7459   43.3725 H   0  0  0  0  0  0  0  0  0  0  0  0
   46.3028   32.0187   42.1231 H   0  0  0  0  0  0  0  0  0  0  0  0
   47.7816   30.9990   42.1231 H   0  0  0  0  0  0  0  0  0  0  0  0
   47.6892   34.5547   43.2580 H   0  0  0  0  0  0  0  0  0  0  0  0
   49.3168   33.8440   43.4651 H   0  0  0  0  0  0  0  0  0  0  0  0
   49.8023   31.8668   41.6793 H   0  0  0  0  0  0  0  0  0  0  0  0
   50.0369   31.4796   39.2603 H   0  0  0  0  0  0  0  0  0  0  0  0
   48.7327   32.8929   37.6888 H   0  0  0  0  0  0  0  0  0  0  0  0
   47.2263   34.6740   38.5486 H   0  0  0  0  0  0  0  0  0  0  0  0
   47.0448   35.0047   40.9765 H   0  0  0  0  0  0  0  0  0  0  0  0
  1  2  1  0
  1  6  2  0
  2  3  2  0
  3  4  1  0
  5  4  2  0
  6  5  1  0
  7 11  1  0
  7  1  1  0
  8  7  1  0
  9 10  1  0
  9  8  1  0
 10 11  1  0
 12  2  1  0
 13 12  1  0
 14 12  1  0
 15 14  1  0
 16 15  2  0
 17 16  1  0
 18 19  1  0
 18 17  2  0
 19 20  2  0
 20 15  1  0
  3 21  1  0
  5 22  1  0
  7 23  1  0
  8 24  1  0
  8 25  1  0
  9 26  1  0
  9 27  1  0
 10 28  1  0
 10 29  1  0
 11 30  1  0
 11 31  1  0
 12 32  1  1
 13 33  1  0
 13 34  1  0
 13 35  1  0
 14 36  1  0
 14 37  1  0
 16 38  1  0
 17 39  1  0
 18 40  1  0
 19 41  1  0
 20 42  1  0
M  ISO  8  21  14  22  14  23  13  24  13  25  13  26  13  27  13  28  13
M  ISO  8  29  13  30  13  31  13  32   8  33   8  34   8  35   8  36   8
M  ISO  6  37   8  38  14  39  14  40  14  41  14  42  14
M  END
>  <minimizedAffinity>  (1) 
-4.65954733

>  <minimizedRMSD>  (1) 
1.30526865

$$$$
