
     RDKit          3D

 37 39  0  0  1  0  0  0  0  0999 V2000
   46.0730   34.4840   41.0070 C   0  0  0  0  0  0  0  0  0  0  0  0
   45.0370   33.6100   40.6090 N   0  0  0  0  0  0  0  0  0  0  0  0
   45.3640   32.3110   40.4710 C   0  0  0  0  0  0  0  0  0  0  0  0
   44.4240   31.3700   40.0430 C   0  0  0  0  0  0  0  0  0  0  0  0
   43.1630   31.8430   39.7720 C   0  0  0  0  0  0  0  0  0  0  0  0
   42.3130   31.0020   39.3840 O   0  0  0  0  0  0  0  0  0  0  0  0
   42.8110   33.1370   39.9020 N   0  0  0  0  0  0  0  0  0  0  0  0
   43.7730   33.9930   40.3220 C   0  0  0  0  0  0  0  0  0  0  0  0
   43.5110   35.2190   40.4670 O   0  0  0  0  0  0  0  0  0  0  0  0
   41.5020   33.6180   39.6190 C   0  0  0  0  0  0  0  0  0  0  0  0
   40.9660   34.1010   38.4420 C   0  0  0  0  0  0  0  0  0  0  0  0
   39.6490   34.5110   38.4320 C   0  0  0  0  0  0  0  0  0  0  0  0
   38.8680   34.4610   39.5200 N   0  0  0  0  0  0  0  0  0  0  0  0
   39.4150   33.9850   40.6630 C   0  0  0  0  0  0  0  0  0  0  0  0
   40.7120   33.5650   40.7330 N   0  0  0  0  0  0  0  0  0  0  0  0
   46.7930   34.1160   42.2480 C   0  0  2  0  0  0  0  0  0  0  0  0
   44.5750   35.9550   44.6570 C   0  0  0  0  0  0  0  0  0  0  0  0
   45.2810   35.6250   43.4790 C   0  0  0  0  0  0  0  0  0  0  0  0
   46.0540   34.4600   43.4650 C   0  0  0  0  0  0  0  0  0  0  0  0
   46.0750   33.7170   44.5990 N   0  0  0  0  0  0  0  0  0  0  0  0
   45.4090   34.0210   45.7220 C   0  0  0  0  0  0  0  0  0  0  0  0
   44.6550   35.1460   45.7540 N   0  0  0  0  0  0  0  0  0  0  0  0
   48.1510   34.8340   42.3590 C   0  0  0  0  0  0  0  0  0  0  0  0
   45.6331   35.4811   41.1564 H   0  0  0  0  0  0  0  0  0  0  0  0
   46.8238   34.4384   40.2043 H   0  0  0  0  0  0  0  0  0  0  0  0
   46.3894   31.9849   40.6993 H   0  0  0  0  0  0  0  0  0  0  0  0
   44.6802   30.3063   39.9290 H   0  0  0  0  0  0  0  0  0  0  0  0
   41.5776   34.1578   37.5295 H   0  0  0  0  0  0  0  0  0  0  0  0
   39.2226   34.8944   37.4933 H   0  0  0  0  0  0  0  0  0  0  0  0
   38.7919   33.9348   41.5681 H   0  0  0  0  0  0  0  0  0  0  0  0
   46.9180   33.0257   42.1733 H   0  0  0  0  0  0  0  0  0  0  0  0
   43.9593   36.8659   44.6907 H   0  0  0  0  0  0  0  0  0  0  0  0
   45.2239   36.2713   42.5908 H   0  0  0  0  0  0  0  0  0  0  0  0
   45.4738   33.3669   46.6040 H   0  0  0  0  0  0  0  0  0  0  0  0
   48.4082   34.9700   43.4198 H   0  0  0  0  0  0  0  0  0  0  0  0
   48.9271   34.2284   41.8682 H   0  0  0  0  0  0  0  0  0  0  0  0
   48.0875   35.8164   41.8682 H   0  0  0  0  0  0  0  0  0  0  0  0
  1 16  1  0
  2  1  1  0
  3  2  1  0
  4  3  2  0
  5  7  1  0
  5  4  1  0
  6  5  2  0
  7  8  1  0
  8  9  2  0
  8  2  1  0
 10  7  1  0
 10 15  1  0
 11 10  2  0
 12 11  1  0
 12 13  2  0
 13 14  1  0
 14 15  2  0
 16 23  1  0
 16 19  1  0
 17 22  2  0
 18 17  1  0
 19 18  2  0
 19 20  1  0
 20 21  2  0
 21 22  1  0
  1 24  1  0
  1 25  1  0
  3 26  1  0
  4 27  1  0
 11 28  1  0
 12 29  1  0
 14 30  1  0
 16 31  1  6
 17 32  1  0
 18 33  1  0
 21 34  1  0
 23 35  1  0
 23 36  1  0
 23 37  1  0
M  ISO  8  24   8  25   8  26  14  27  14  28  14  29  14  30  14  31   8
M  ISO  6  32  14  33  14  34  14  35   8  36   8  37   8
M  END
>  <minimizedAffinity>  (1) 
-5.45515442

>  <minimizedRMSD>  (1) 
3.72793555

$$$$
