
     RDKit          3D

 41 43  0  0  1  0  0  0  0  0999 V2000
   46.9540   34.7610   41.3460 C   0  0  0  0  0  0  0  0  0  0  0  0
   46.9820   34.1120   40.0920 N   0  0  0  0  0  0  0  0  0  0  0  0
   48.0660   34.3300   39.3260 C   0  0  0  0  0  0  0  0  0  0  0  0
   48.1770   33.7700   38.0500 C   0  0  0  0  0  0  0  0  0  0  0  0
   47.1280   32.9920   37.6290 C   0  0  0  0  0  0  0  0  0  0  0  0
   47.2160   32.4840   36.4830 O   0  0  0  0  0  0  0  0  0  0  0  0
   46.0460   32.7660   38.3780 N   0  0  0  0  0  0  0  0  0  0  0  0
   45.9900   33.3300   39.6000 C   0  0  0  0  0  0  0  0  0  0  0  0
   44.9950   33.1550   40.3580 O   0  0  0  0  0  0  0  0  0  0  0  0
   43.7550   32.7420   37.6560 N   0  0  0  0  0  0  0  0  0  0  0  0
   42.8470   31.6490   37.2950 C   0  0  0  0  0  0  0  0  0  0  0  0
   43.7150   30.8560   36.3150 C   0  0  0  0  0  0  0  0  0  0  0  0
   45.1500   31.2990   36.6150 C   0  0  0  0  0  0  0  0  0  0  0  0
   44.9390   31.9590   37.9630 C   0  0  1  0  0  0  0  0  0  0  0  0
   47.1570   33.8910   42.5310 C   0  0  2  0  0  0  0  0  0  0  0  0
   44.6230   35.7050   44.6310 C   0  0  0  0  0  0  0  0  0  0  0  0
   45.4410   35.3550   43.5300 C   0  0  0  0  0  0  0  0  0  0  0  0
   46.2990   34.2620   43.6600 C   0  0  0  0  0  0  0  0  0  0  0  0
   46.2980   33.5910   44.8540 N   0  0  0  0  0  0  0  0  0  0  0  0
   45.5200   33.9270   45.8950 C   0  0  0  0  0  0  0  0  0  0  0  0
   44.6810   34.9860   45.7810 N   0  0  0  0  0  0  0  0  0  0  0  0
   48.6010   33.9450   43.0560 C   0  0  0  0  0  0  0  0  0  0  0  0
   45.9741   35.2498   41.4507 H   0  0  0  0  0  0  0  0  0  0  0  0
   47.8049   35.4581   41.3394 H   0  0  0  0  0  0  0  0  0  0  0  0
   48.8806   34.9610   39.7110 H   0  0  0  0  0  0  0  0  0  0  0  0
   49.0592   33.9439   37.4164 H   0  0  0  0  0  0  0  0  0  0  0  0
   43.4182   33.2702   38.4736 H   0  0  0  0  0  0  0  0  0  0  0  0
   42.5742   31.0446   38.1726 H   0  0  0  0  0  0  0  0  0  0  0  0
   41.8833   31.9797   36.8803 H   0  0  0  0  0  0  0  0  0  0  0  0
   43.4446   31.0963   35.2762 H   0  0  0  0  0  0  0  0  0  0  0  0
   43.5836   29.7699   36.4296 H   0  0  0  0  0  0  0  0  0  0  0  0
   45.8371   30.4426   36.6818 H   0  0  0  0  0  0  0  0  0  0  0  0
   45.6087   31.9414   35.8489 H   0  0  0  0  0  0  0  0  0  0  0  0
   44.8375   31.2629   38.8086 H   0  0  0  0  0  0  0  0  0  0  0  0
   46.9067   32.8826   42.1698 H   0  0  0  0  0  0  0  0  0  0  0  0
   43.9381   36.5624   44.5545 H   0  0  0  0  0  0  0  0  0  0  0  0
   45.4013   35.9311   42.5938 H   0  0  0  0  0  0  0  0  0  0  0  0
   45.5627   33.3495   46.8303 H   0  0  0  0  0  0  0  0  0  0  0  0
   48.5915   33.9446   44.1560 H   0  0  0  0  0  0  0  0  0  0  0  0
   49.1559   33.0670   42.6938 H   0  0  0  0  0  0  0  0  0  0  0  0
   49.0888   34.8620   42.6938 H   0  0  0  0  0  0  0  0  0  0  0  0
  1 15  1  0
  2  1  1  0
  3  2  1  0
  4  3  2  0
  5  4  1  0
  5  7  1  0
  6  5  2  0
  7  8  1  0
  8  2  1  0
  8  9  2  0
 10 14  1  0
 11 10  1  0
 12 13  1  0
 12 11  1  0
 14 13  1  0
 14  7  1  0
 15 22  1  0
 15 18  1  0
 16 21  2  0
 17 18  2  0
 17 16  1  0
 18 19  1  0
 19 20  2  0
 21 20  1  0
  1 23  1  0
  1 24  1  0
  3 25  1  0
  4 26  1  0
 10 27  1  0
 11 28  1  0
 11 29  1  0
 12 30  1  0
 12 31  1  0
 13 32  1  0
 13 33  1  0
 14 34  1  1
 15 35  1  6
 16 36  1  0
 17 37  1  0
 20 38  1  0
 22 39  1  0
 22 40  1  0
 22 41  1  0
M  ISO  8  23   8  24   8  25  14  26  14  27   5  28  13  29  13  30  13
M  ISO  8  31  13  32  13  33  13  34  13  35   8  36  14  37  14  38  14
M  ISO  3  39   8  40   8  41   8
M  END
>  <minimizedAffinity>  (1) 
-4.94572735

>  <minimizedRMSD>  (1) 
0.457969964

$$$$
