
     RDKit          3D

 38 40  0  0  1  0  0  0  0  0999 V2000
   46.0570   34.4550   40.9770 C   0  0  0  0  0  0  0  0  0  0  0  0
   45.0030   33.5720   40.6450 N   0  0  0  0  0  0  0  0  0  0  0  0
   45.3310   32.2680   40.5610 C   0  0  0  0  0  0  0  0  0  0  0  0
   44.3590   31.3150   40.2000 C   0  0  0  0  0  0  0  0  0  0  0  0
   43.0930   31.7770   39.9450 C   0  0  0  0  0  0  0  0  0  0  0  0
   42.2280   30.9280   39.6220 O   0  0  0  0  0  0  0  0  0  0  0  0
   42.7680   33.0690   40.0290 N   0  0  0  0  0  0  0  0  0  0  0  0
   43.7280   33.9430   40.3770 C   0  0  0  0  0  0  0  0  0  0  0  0
   43.4780   35.1760   40.4720 O   0  0  0  0  0  0  0  0  0  0  0  0
   41.4540   33.5610   39.7670 C   0  0  0  0  0  0  0  0  0  0  0  0
   40.3950   33.7170   40.6400 C   0  0  0  0  0  0  0  0  0  0  0  0
   39.2180   34.2210   40.1190 C   0  0  0  0  0  0  0  0  0  0  0  0
   39.1120   34.5480   38.8010 C   0  0  0  0  0  0  0  0  0  0  0  0
   40.1930   34.3850   37.9300 C   0  0  0  0  0  0  0  0  0  0  0  0
   41.3440   33.8870   38.4550 N   0  0  0  0  0  0  0  0  0  0  0  0
   46.7970   34.1420   42.2250 C   0  0  2  0  0  0  0  0  0  0  0  0
   44.5800   35.9930   44.6280 C   0  0  0  0  0  0  0  0  0  0  0  0
   45.2890   35.6610   43.4520 C   0  0  0  0  0  0  0  0  0  0  0  0
   46.0530   34.4910   43.4380 C   0  0  0  0  0  0  0  0  0  0  0  0
   46.0700   33.7360   44.5770 N   0  0  0  0  0  0  0  0  0  0  0  0
   45.3970   34.0520   45.6950 C   0  0  0  0  0  0  0  0  0  0  0  0
   44.6520   35.1790   45.7200 N   0  0  0  0  0  0  0  0  0  0  0  0
   48.1390   34.8840   42.3140 C   0  0  0  0  0  0  0  0  0  0  0  0
   45.6310   35.4637   41.0819 H   0  0  0  0  0  0  0  0  0  0  0  0
   46.7917   34.3601   40.1639 H   0  0  0  0  0  0  0  0  0  0  0  0
   46.3610   31.9467   40.7750 H   0  0  0  0  0  0  0  0  0  0  0  0
   44.6047   30.2454   40.1257 H   0  0  0  0  0  0  0  0  0  0  0  0
   40.4844   33.4517   41.7038 H   0  0  0  0  0  0  0  0  0  0  0  0
   38.3508   34.3606   40.7812 H   0  0  0  0  0  0  0  0  0  0  0  0
   38.1615   34.9463   38.4163 H   0  0  0  0  0  0  0  0  0  0  0  0
   40.1157   34.6485   36.8648 H   0  0  0  0  0  0  0  0  0  0  0  0
   46.9518   33.0542   42.1725 H   0  0  0  0  0  0  0  0  0  0  0  0
   43.9701   36.9077   44.6629 H   0  0  0  0  0  0  0  0  0  0  0  0
   45.2406   36.3103   42.5654 H   0  0  0  0  0  0  0  0  0  0  0  0
   45.4515   33.4011   46.5801 H   0  0  0  0  0  0  0  0  0  0  0  0
   48.4068   35.0320   43.3706 H   0  0  0  0  0  0  0  0  0  0  0  0
   48.9202   34.2897   41.8176 H   0  0  0  0  0  0  0  0  0  0  0  0
   48.0511   35.8617   41.8176 H   0  0  0  0  0  0  0  0  0  0  0  0
  1 16  1  0
  2  1  1  0
  3  2  1  0
  4  3  2  0
  5  7  1  0
  5  4  1  0
  6  5  2  0
  7  8  1  0
  8  9  2  0
  8  2  1  0
 10  7  1  0
 10 11  2  0
 12 11  1  0
 13 12  2  0
 14 15  2  0
 14 13  1  0
 15 10  1  0
 16 23  1  0
 16 19  1  0
 17 22  2  0
 18 17  1  0
 19 18  2  0
 19 20  1  0
 20 21  2  0
 21 22  1  0
  1 24  1  0
  1 25  1  0
  3 26  1  0
  4 27  1  0
 11 28  1  0
 12 29  1  0
 13 30  1  0
 14 31  1  0
 16 32  1  1
 17 33  1  0
 18 34  1  0
 21 35  1  0
 23 36  1  0
 23 37  1  0
 23 38  1  0
M  ISO  8  24   8  25   8  26  14  27  14  28  14  29  14  30  14  31  14
M  ISO  7  32   8  33  14  34  14  35  14  36   8  37   8  38   8
M  END
>  <minimizedAffinity>  (1) 
-5.72083855

>  <minimizedRMSD>  (1) 
3.55034757

$$$$
