
     RDKit          3D

 50 53  0  0  1  0  0  0  0  0999 V2000
   45.6700   34.5400   40.9710 C   0  0  0  0  0  0  0  0  0  0  0  0
   44.6260   33.6340   40.6620 N   0  0  0  0  0  0  0  0  0  0  0  0
   44.9960   32.3320   40.6710 C   0  0  0  0  0  0  0  0  0  0  0  0
   44.0500   31.3340   40.3630 C   0  0  0  0  0  0  0  0  0  0  0  0
   42.7730   31.7500   40.0640 C   0  0  0  0  0  0  0  0  0  0  0  0
   41.9270   30.8660   39.7900 O   0  0  0  0  0  0  0  0  0  0  0  0
   42.4150   33.0440   40.0600 N   0  0  0  0  0  0  0  0  0  0  0  0
   43.3470   33.9600   40.3580 C   0  0  0  0  0  0  0  0  0  0  0  0
   43.0810   35.1950   40.3730 O   0  0  0  0  0  0  0  0  0  0  0  0
   41.0970   33.4860   39.7490 C   0  0  0  0  0  0  0  0  0  0  0  0
   40.0150   33.6440   40.5760 C   0  0  0  0  0  0  0  0  0  0  0  0
   38.8400   34.0910   40.0160 C   0  0  0  0  0  0  0  0  0  0  0  0
   38.7560   34.3670   38.6910 C   0  0  0  0  0  0  0  0  0  0  0  0
   39.8590   34.2040   37.8570 C   0  0  0  0  0  0  0  0  0  0  0  0
   41.0100   33.7630   38.4200 N   0  0  0  0  0  0  0  0  0  0  0  0
   46.5080   34.2350   42.1370 C   0  0  2  0  0  0  0  0  0  0  0  0
   44.4830   35.9400   44.7890 C   0  0  0  0  0  0  0  0  0  0  0  0
   45.0980   35.6410   43.5550 C   0  0  0  0  0  0  0  0  0  0  0  0
   45.8780   34.5020   43.4230 C   0  0  0  0  0  0  0  0  0  0  0  0
   46.0180   33.7060   44.5210 N   0  0  0  0  0  0  0  0  0  0  0  0
   45.4380   33.9750   45.7090 C   0  0  0  0  0  0  0  0  0  0  0  0
   44.6710   35.0930   45.8390 N   0  0  0  0  0  0  0  0  0  0  0  0
   47.8370   35.0060   42.1350 C   0  0  0  0  0  0  0  0  0  0  0  0
   48.9640   34.3450   41.7310 N   0  0  0  0  0  0  0  0  0  0  0  0
   50.2030   34.4140   42.3650 C   0  0  0  0  0  0  0  0  0  0  0  0
   50.6320   32.9670   42.5250 C   0  0  0  0  0  0  0  0  0  0  0  0
   50.0770   32.3320   41.2600 C   0  0  0  0  0  0  0  0  0  0  0  0
   48.9450   33.2590   40.8410 C   0  0  0  0  0  0  0  0  0  0  0  0
   45.2115   35.5250   41.1431 H   0  0  0  0  0  0  0  0  0  0  0  0
   46.3540   34.4837   40.1114 H   0  0  0  0  0  0  0  0  0  0  0  0
   46.0313   32.0540   40.9178 H   0  0  0  0  0  0  0  0  0  0  0  0
   44.3209   30.2679   40.3617 H   0  0  0  0  0  0  0  0  0  0  0  0
   40.0837   33.4210   41.6510 H   0  0  0  0  0  0  0  0  0  0  0  0
   37.9542   34.2267   40.6539 H   0  0  0  0  0  0  0  0  0  0  0  0
   37.8046   34.7241   38.2698 H   0  0  0  0  0  0  0  0  0  0  0  0
   39.7983   34.4250   36.7811 H   0  0  0  0  0  0  0  0  0  0  0  0
   46.6757   33.1530   42.0313 H   0  0  0  0  0  0  0  0  0  0  0  0
   43.8625   36.8414   44.9012 H   0  0  0  0  0  0  0  0  0  0  0  0
   44.9585   36.3130   42.6954 H   0  0  0  0  0  0  0  0  0  0  0  0
   45.5831   33.2983   46.5640 H   0  0  0  0  0  0  0  0  0  0  0  0
   47.7107   35.8731   41.4700 H   0  0  0  0  0  0  0  0  0  0  0  0
   48.0206   35.2381   43.1944 H   0  0  0  0  0  0  0  0  0  0  0  0
   50.9254   34.9671   41.7468 H   0  0  0  0  0  0  0  0  0  0  0  0
   50.1499   34.9424   43.3283 H   0  0  0  0  0  0  0  0  0  0  0  0
   51.7274   32.8774   42.5699 H   0  0  0  0  0  0  0  0  0  0  0  0
   50.2720   32.4972   43.4522 H   0  0  0  0  0  0  0  0  0  0  0  0
   50.8491   32.2813   40.4781 H   0  0  0  0  0  0  0  0  0  0  0  0
   49.7365   31.2987   41.4223 H   0  0  0  0  0  0  0  0  0  0  0  0
   49.1039   33.6101   39.8107 H   0  0  0  0  0  0  0  0  0  0  0  0
   47.9759   32.7394   40.8706 H   0  0  0  0  0  0  0  0  0  0  0  0
  1 16  1  0
  2  3  1  0
  2  1  1  0
  4  3  2  0
  5  4  1  0
  6  5  2  0
  7  5  1  0
  7  8  1  0
  8  9  2  0
  8  2  1  0
 10  7  1  0
 10 11  2  0
 12 11  1  0
 13 12  2  0
 14 15  2  0
 14 13  1  0
 15 10  1  0
 16 19  1  0
 17 22  2  0
 18 17  1  0
 19 18  2  0
 19 20  1  0
 20 21  2  0
 21 22  1  0
 23 16  1  0
 24 23  1  0
 24 25  1  0
 25 26  1  0
 27 26  1  0
 28 27  1  0
 28 24  1  0
  1 29  1  0
  1 30  1  0
  3 31  1  0
  4 32  1  0
 11 33  1  0
 12 34  1  0
 13 35  1  0
 14 36  1  0
 16 37  1  1
 17 38  1  0
 18 39  1  0
 21 40  1  0
 23 41  1  0
 23 42  1  0
 25 43  1  0
 25 44  1  0
 26 45  1  0
 26 46  1  0
 27 47  1  0
 27 48  1  0
 28 49  1  0
 28 50  1  0
M  ISO  8  29   8  30   8  31  14  32  14  33  14  34  14  35  14  36  14
M  ISO  8  37   8  38  14  39  14  40  14  41   8  42   8  43  13  44  13
M  ISO  6  45  13  46  13  47  13  48  13  49  13  50  13
M  END
>  <minimizedAffinity>  (1) 
-6.22803593

>  <minimizedRMSD>  (1) 
0.941562295

$$$$
