
     RDKit          3D

 45 48  0  0  1  0  0  0  0  0999 V2000
   45.6930   34.5680   40.9320 C   0  0  0  0  0  0  0  0  0  0  0  0
   44.6510   33.6680   40.6500 N   0  0  0  0  0  0  0  0  0  0  0  0
   45.0240   32.3630   40.6740 C   0  0  0  0  0  0  0  0  0  0  0  0
   44.0750   31.3530   40.3830 C   0  0  0  0  0  0  0  0  0  0  0  0
   42.7980   31.7630   40.0880 C   0  0  0  0  0  0  0  0  0  0  0  0
   41.9530   30.8660   39.8280 O   0  0  0  0  0  0  0  0  0  0  0  0
   42.4450   33.0550   40.0690 N   0  0  0  0  0  0  0  0  0  0  0  0
   43.3730   33.9790   40.3500 C   0  0  0  0  0  0  0  0  0  0  0  0
   43.1050   35.2020   40.3490 O   0  0  0  0  0  0  0  0  0  0  0  0
   41.1150   33.4910   39.7610 C   0  0  0  0  0  0  0  0  0  0  0  0
   40.0400   33.6570   40.6050 C   0  0  0  0  0  0  0  0  0  0  0  0
   38.8670   34.0920   40.0460 C   0  0  0  0  0  0  0  0  0  0  0  0
   38.7620   34.3510   38.7140 C   0  0  0  0  0  0  0  0  0  0  0  0
   39.8570   34.1780   37.8780 C   0  0  0  0  0  0  0  0  0  0  0  0
   41.0190   33.7470   38.4360 N   0  0  0  0  0  0  0  0  0  0  0  0
   46.5460   34.2820   42.0920 C   0  0  2  0  0  0  0  0  0  0  0  0
   44.4900   35.9650   44.7490 C   0  0  0  0  0  0  0  0  0  0  0  0
   45.1090   35.6910   43.5140 C   0  0  0  0  0  0  0  0  0  0  0  0
   45.9030   34.5450   43.3790 C   0  0  0  0  0  0  0  0  0  0  0  0
   46.0280   33.7480   44.4830 N   0  0  0  0  0  0  0  0  0  0  0  0
   45.4440   33.9970   45.6630 C   0  0  0  0  0  0  0  0  0  0  0  0
   44.6730   35.1090   45.7950 N   0  0  0  0  0  0  0  0  0  0  0  0
   47.8590   35.0820   42.1090 C   0  0  0  0  0  0  0  0  0  0  0  0
   48.9380   34.1320   41.9780 N   0  0  0  0  0  0  0  0  0  0  0  0
   49.0880   32.9210   41.3730 C   0  0  0  0  0  0  0  0  0  0  0  0
   50.3570   32.4160   41.5560 C   0  0  0  0  0  0  0  0  0  0  0  0
   51.0270   33.3270   42.2950 N   0  0  0  0  0  0  0  0  0  0  0  0
   50.1700   34.3360   42.5350 C   0  0  0  0  0  0  0  0  0  0  0  0
   45.2385   35.5565   41.0941 H   0  0  0  0  0  0  0  0  0  0  0  0
   46.3670   34.4934   40.0659 H   0  0  0  0  0  0  0  0  0  0  0  0
   46.0612   32.0906   40.9190 H   0  0  0  0  0  0  0  0  0  0  0  0
   44.3485   30.2876   40.3928 H   0  0  0  0  0  0  0  0  0  0  0  0
   40.1194   33.4493   41.6823 H   0  0  0  0  0  0  0  0  0  0  0  0
   37.9873   34.2356   40.6906 H   0  0  0  0  0  0  0  0  0  0  0  0
   37.8051   34.6990   38.2978 H   0  0  0  0  0  0  0  0  0  0  0  0
   39.7864   34.3830   36.7996 H   0  0  0  0  0  0  0  0  0  0  0  0
   46.7463   33.2072   41.9709 H   0  0  0  0  0  0  0  0  0  0  0  0
   43.8643   36.8617   44.8690 H   0  0  0  0  0  0  0  0  0  0  0  0
   44.9699   36.3721   42.6615 H   0  0  0  0  0  0  0  0  0  0  0  0
   45.5862   33.3121   46.5120 H   0  0  0  0  0  0  0  0  0  0  0  0
   47.8784   35.7928   41.2697 H   0  0  0  0  0  0  0  0  0  0  0  0
   47.9549   35.6563   43.0422 H   0  0  0  0  0  0  0  0  0  0  0  0
   48.2946   32.4095   40.8083 H   0  0  0  0  0  0  0  0  0  0  0  0
   50.7471   31.4604   41.1757 H   0  0  0  0  0  0  0  0  0  0  0  0
   50.4328   35.2310   43.1180 H   0  0  0  0  0  0  0  0  0  0  0  0
  1 16  1  0
  2  3  1  0
  2  1  1  0
  4  3  2  0
  5  4  1  0
  6  5  2  0
  7  5  1  0
  7  8  1  0
  8  2  1  0
  9  8  2  0
 10  7  1  0
 10 11  2  0
 12 11  1  0
 13 12  2  0
 14 15  2  0
 14 13  1  0
 15 10  1  0
 16 23  1  0
 16 19  1  0
 17 22  2  0
 18 17  1  0
 19 18  2  0
 19 20  1  0
 20 21  2  0
 21 22  1  0
 24 23  1  0
 24 28  1  0
 25 26  2  0
 25 24  1  0
 26 27  1  0
 27 28  2  0
  1 29  1  0
  1 30  1  0
  3 31  1  0
  4 32  1  0
 11 33  1  0
 12 34  1  0
 13 35  1  0
 14 36  1  0
 16 37  1  1
 17 38  1  0
 18 39  1  0
 21 40  1  0
 23 41  1  0
 23 42  1  0
 25 43  1  0
 26 44  1  0
 28 45  1  0
M  ISO  8  29   8  30   8  31  14  32  14  33  14  34  14  35  14  36  14
M  ISO  8  37   8  38  14  39  14  40  14  41   8  42   8  43  14  44  14
M  ISO  1  45  14
M  END
>  <minimizedAffinity>  (1) 
-6.24573565

>  <minimizedRMSD>  (1) 
0.916805208

$$$$
