
     RDKit          3D

 51 54  0  0  1  0  0  0  0  0999 V2000
   45.6160   34.4830   40.8750 C   0  0  0  0  0  0  0  0  0  0  0  0
   44.5360   33.5740   40.7390 N   0  0  0  0  0  0  0  0  0  0  0  0
   44.8550   32.2850   40.9690 C   0  0  0  0  0  0  0  0  0  0  0  0
   43.8660   31.2870   40.8490 C   0  0  0  0  0  0  0  0  0  0  0  0
   42.6030   31.6960   40.4960 C   0  0  0  0  0  0  0  0  0  0  0  0
   41.7170   30.8090   40.3870 O   0  0  0  0  0  0  0  0  0  0  0  0
   42.2940   32.9850   40.2700 N   0  0  0  0  0  0  0  0  0  0  0  0
   43.2700   33.8990   40.3970 C   0  0  0  0  0  0  0  0  0  0  0  0
   43.0460   35.1170   40.2000 O   0  0  0  0  0  0  0  0  0  0  0  0
   40.9930   33.4170   39.9000 C   0  0  0  0  0  0  0  0  0  0  0  0
   39.9240   33.7390   40.6950 C   0  0  0  0  0  0  0  0  0  0  0  0
   38.7600   34.1370   40.0730 C   0  0  0  0  0  0  0  0  0  0  0  0
   38.6740   34.2070   38.7200 C   0  0  0  0  0  0  0  0  0  0  0  0
   39.7630   33.8800   37.9220 C   0  0  0  0  0  0  0  0  0  0  0  0
   40.8990   33.4910   38.5530 N   0  0  0  0  0  0  0  0  0  0  0  0
   46.5190   34.2910   42.0230 C   0  0  2  0  0  0  0  0  0  0  0  0
   44.5100   35.9430   44.7170 C   0  0  0  0  0  0  0  0  0  0  0  0
   45.1130   35.6730   43.4730 C   0  0  0  0  0  0  0  0  0  0  0  0
   45.9010   34.5460   43.3140 C   0  0  0  0  0  0  0  0  0  0  0  0
   46.0590   33.7270   44.4010 N   0  0  0  0  0  0  0  0  0  0  0  0
   45.4870   33.9720   45.5990 C   0  0  0  0  0  0  0  0  0  0  0  0
   44.7170   35.0740   45.7560 N   0  0  0  0  0  0  0  0  0  0  0  0
   47.7590   35.2120   41.9410 C   0  0  0  0  0  0  0  0  0  0  0  0
   48.8950   34.4220   41.6020 N   0  0  0  0  0  0  0  0  0  0  0  0
   49.4850   33.7710   42.7720 C   0  0  0  0  0  0  0  0  0  0  0  0
   50.8320   33.2490   42.2680 C   0  0  0  0  0  0  0  0  0  0  0  0
   50.5810   32.2110   41.4120 O   0  0  0  0  0  0  0  0  0  0  0  0
   49.3230   32.1160   40.8930 C   0  0  0  0  0  0  0  0  0  0  0  0
   48.6590   33.4350   40.5600 C   0  0  0  0  0  0  0  0  0  0  0  0
   45.1893   35.4937   40.9554 H   0  0  0  0  0  0  0  0  0  0  0  0
   46.2444   34.3102   39.9889 H   0  0  0  0  0  0  0  0  0  0  0  0
   45.8831   32.0124   41.2493 H   0  0  0  0  0  0  0  0  0  0  0  0
   44.0960   30.2267   41.0302 H   0  0  0  0  0  0  0  0  0  0  0  0
   39.9925   33.6818   41.7914 H   0  0  0  0  0  0  0  0  0  0  0  0
   37.8848   34.4027   40.6841 H   0  0  0  0  0  0  0  0  0  0  0  0
   37.7318   34.5261   38.2505 H   0  0  0  0  0  0  0  0  0  0  0  0
   39.7065   33.9342   36.8248 H   0  0  0  0  0  0  0  0  0  0  0  0
   46.7976   33.2289   41.9573 H   0  0  0  0  0  0  0  0  0  0  0  0
   43.8832   36.8368   44.8522 H   0  0  0  0  0  0  0  0  0  0  0  0
   44.9576   36.3585   42.6269 H   0  0  0  0  0  0  0  0  0  0  0  0
   45.6454   33.2817   46.4407 H   0  0  0  0  0  0  0  0  0  0  0  0
   47.5990   35.9799   41.1698 H   0  0  0  0  0  0  0  0  0  0  0  0
   47.9227   35.7062   42.9100 H   0  0  0  0  0  0  0  0  0  0  0  0
   49.6270   34.4923   43.5902 H   0  0  0  0  0  0  0  0  0  0  0  0
   48.8471   32.9718   43.1773 H   0  0  0  0  0  0  0  0  0  0  0  0
   51.3700   34.0494   41.7390 H   0  0  0  0  0  0  0  0  0  0  0  0
   51.4548   32.9126   43.1100 H   0  0  0  0  0  0  0  0  0  0  0  0
   49.3806   31.5218   39.9691 H   0  0  0  0  0  0  0  0  0  0  0  0
   48.7049   31.6537   41.6767 H   0  0  0  0  0  0  0  0  0  0  0  0
   49.0664   33.8118   39.6103 H   0  0  0  0  0  0  0  0  0  0  0  0
   47.5748   33.2678   40.4785 H   0  0  0  0  0  0  0  0  0  0  0  0
  1 16  1  0
  2  1  1  0
  2  3  1  0
  4  3  2  0
  5  4  1  0
  6  5  2  0
  7  8  1  0
  7  5  1  0
  8  2  1  0
  9  8  2  0
 10  7  1  0
 10 11  2  0
 12 11  1  0
 13 12  2  0
 14 15  2  0
 14 13  1  0
 15 10  1  0
 16 19  1  0
 17 22  2  0
 18 17  1  0
 19 18  2  0
 19 20  1  0
 20 21  2  0
 21 22  1  0
 23 16  1  0
 24 23  1  0
 24 25  1  0
 26 25  1  0
 27 26  1  0
 28 27  1  0
 29 28  1  0
 29 24  1  0
  1 30  1  0
  1 31  1  0
  3 32  1  0
  4 33  1  0
 11 34  1  0
 12 35  1  0
 13 36  1  0
 14 37  1  0
 16 38  1  1
 17 39  1  0
 18 40  1  0
 21 41  1  0
 23 42  1  0
 23 43  1  0
 25 44  1  0
 25 45  1  0
 26 46  1  0
 26 47  1  0
 28 48  1  0
 28 49  1  0
 29 50  1  0
 29 51  1  0
M  ISO  8  30   8  31   8  32  14  33  14  34  14  35  14  36  14  37  14
M  ISO  8  38   8  39  14  40  14  41  14  42   8  43   8  44  13  45  13
M  ISO  6  46  13  47  13  48  13  49  13  50  13  51  13
M  END
>  <minimizedAffinity>  (1) 
-6.28199863

>  <minimizedRMSD>  (1) 
1.2943182

$$$$
