
     RDKit          3D

 44 47  0  0  1  0  0  0  0  0999 V2000
   45.4580   34.5180   40.9040 C   0  0  0  0  0  0  0  0  0  0  0  0
   44.3930   33.6200   40.7090 N   0  0  0  0  0  0  0  0  0  0  0  0
   44.7290   32.3220   40.9010 C   0  0  0  0  0  0  0  0  0  0  0  0
   43.7640   31.3030   40.7160 C   0  0  0  0  0  0  0  0  0  0  0  0
   42.5050   31.7010   40.3410 C   0  0  0  0  0  0  0  0  0  0  0  0
   41.6430   30.8040   40.1730 O   0  0  0  0  0  0  0  0  0  0  0  0
   42.1860   32.9950   40.1550 N   0  0  0  0  0  0  0  0  0  0  0  0
   43.1330   33.9210   40.3440 C   0  0  0  0  0  0  0  0  0  0  0  0
   42.8950   35.1440   40.1860 O   0  0  0  0  0  0  0  0  0  0  0  0
   40.8750   33.4230   39.7640 C   0  0  0  0  0  0  0  0  0  0  0  0
   39.7800   33.6830   40.5510 C   0  0  0  0  0  0  0  0  0  0  0  0
   38.6260   34.0860   39.9120 C   0  0  0  0  0  0  0  0  0  0  0  0
   38.5750   34.2180   38.5660 C   0  0  0  0  0  0  0  0  0  0  0  0
   39.6900   33.9510   37.7790 C   0  0  0  0  0  0  0  0  0  0  0  0
   40.8220   33.5550   38.4220 N   0  0  0  0  0  0  0  0  0  0  0  0
   46.3730   34.2680   42.0230 C   0  0  2  0  0  0  0  0  0  0  0  0
   44.4750   35.9990   44.7680 C   0  0  0  0  0  0  0  0  0  0  0  0
   45.0320   35.7140   43.5070 C   0  0  0  0  0  0  0  0  0  0  0  0
   45.7900   34.5500   43.3380 C   0  0  0  0  0  0  0  0  0  0  0  0
   45.9400   33.7500   44.4350 N   0  0  0  0  0  0  0  0  0  0  0  0
   45.4180   34.0070   45.6380 C   0  0  0  0  0  0  0  0  0  0  0  0
   44.6810   35.1390   45.8040 N   0  0  0  0  0  0  0  0  0  0  0  0
   47.6700   35.0880   41.9550 C   0  0  0  0  0  0  0  0  0  0  0  0
   48.8150   34.1430   41.8650 C   0  0  0  0  0  0  0  0  0  0  0  0
   48.6330   32.9230   40.9670 C   0  0  0  0  0  0  0  0  0  0  0  0
   50.2840   32.1260   41.2150 S   0  0  0  0  0  0  0  0  0  0  0  0
   50.8940   33.4810   42.4030 C   0  0  0  0  0  0  0  0  0  0  0  0
   49.9290   34.3760   42.5440 N   0  0  0  0  0  0  0  0  0  0  0  0
   45.0209   35.5160   41.0555 H   0  0  0  0  0  0  0  0  0  0  0  0
   46.0832   34.4020   40.0064 H   0  0  0  0  0  0  0  0  0  0  0  0
   45.7540   32.0591   41.2014 H   0  0  0  0  0  0  0  0  0  0  0  0
   44.0115   30.2417   40.8658 H   0  0  0  0  0  0  0  0  0  0  0  0
   39.8215   33.5744   41.6448 H   0  0  0  0  0  0  0  0  0  0  0  0
   37.7283   34.3047   40.5089 H   0  0  0  0  0  0  0  0  0  0  0  0
   37.6385   34.5410   38.0879 H   0  0  0  0  0  0  0  0  0  0  0  0
   39.6583   34.0554   36.6844 H   0  0  0  0  0  0  0  0  0  0  0  0
   46.5851   33.1940   41.9152 H   0  0  0  0  0  0  0  0  0  0  0  0
   43.8772   36.9105   44.9158 H   0  0  0  0  0  0  0  0  0  0  0  0
   44.8728   36.4001   42.6621 H   0  0  0  0  0  0  0  0  0  0  0  0
   45.5810   33.3164   46.4785 H   0  0  0  0  0  0  0  0  0  0  0  0
   47.6533   35.7378   41.0676 H   0  0  0  0  0  0  0  0  0  0  0  0
   47.7678   35.7181   42.8514 H   0  0  0  0  0  0  0  0  0  0  0  0
   47.7748   32.6102   40.3541 H   0  0  0  0  0  0  0  0  0  0  0  0
   51.8800   33.5149   42.8895 H   0  0  0  0  0  0  0  0  0  0  0  0
  1 16  1  0
  2  3  1  0
  2  1  1  0
  4  3  2  0
  5  4  1  0
  6  5  2  0
  7  5  1  0
  7  8  1  0
  8  2  1  0
  9  8  2  0
 10  7  1  0
 10 11  2  0
 12 11  1  0
 13 12  2  0
 14 15  2  0
 14 13  1  0
 15 10  1  0
 16 19  1  0
 17 22  2  0
 18 17  1  0
 19 18  2  0
 19 20  1  0
 20 21  2  0
 21 22  1  0
 23 16  1  0
 24 23  1  0
 24 28  1  0
 25 26  1  0
 25 24  2  0
 26 27  1  0
 27 28  2  0
  1 29  1  0
  1 30  1  0
  3 31  1  0
  4 32  1  0
 11 33  1  0
 12 34  1  0
 13 35  1  0
 14 36  1  0
 16 37  1  1
 17 38  1  0
 18 39  1  0
 21 40  1  0
 23 41  1  0
 23 42  1  0
 25 43  1  0
 27 44  1  0
M  ISO  8  29   8  30   8  31  14  32  14  33  14  34  14  35  14  36  14
M  ISO  8  37   8  38  14  39  14  40  14  41   8  42   8  43  14  44  14
M  END
>  <minimizedAffinity>  (1) 
-6.32332182

>  <minimizedRMSD>  (1) 
0.982497454

$$$$
