
     RDKit          3D

 27 29  0  0  0  0  0  0  0  0999 V2000
   46.2290   33.8830   40.8360 N   0  0  0  0  0  0  0  0  0  0  0  0
   45.0110   33.3180   40.7810 C   0  0  0  0  0  0  0  0  0  0  0  0
   44.7570   32.9270   39.5120 N   0  0  0  0  0  0  0  0  0  0  0  0
   45.8270   33.2450   38.7430 C   0  0  0  0  0  0  0  0  0  0  0  0
   46.0930   33.0740   37.4010 C   0  0  0  0  0  0  0  0  0  0  0  0
   45.2770   32.5320   36.6150 O   0  0  0  0  0  0  0  0  0  0  0  0
   47.2580   33.4850   36.8590 N   0  0  0  0  0  0  0  0  0  0  0  0
   48.1400   34.0670   37.6910 C   0  0  0  0  0  0  0  0  0  0  0  0
   49.4400   34.5830   37.3480 N   0  0  0  0  0  0  0  0  0  0  0  0
   47.9090   34.2460   38.9960 N   0  0  0  0  0  0  0  0  0  0  0  0
   46.7430   33.8420   39.5780 C   0  0  0  0  0  0  0  0  0  0  0  0
   47.0060   34.4710   41.9130 C   0  0  0  0  0  0  0  0  0  0  0  0
   46.1920   34.7460   43.1200 C   0  0  0  0  0  0  0  0  0  0  0  0
   46.2640   33.8380   44.1870 C   0  0  0  0  0  0  0  0  0  0  0  0
   45.5050   34.0810   45.3310 C   0  0  0  0  0  0  0  0  0  0  0  0
   44.7320   35.1940   45.3470 N   0  0  0  0  0  0  0  0  0  0  0  0
   44.6810   36.0550   44.3020 C   0  0  0  0  0  0  0  0  0  0  0  0
   45.4030   35.8460   43.1850 N   0  0  0  0  0  0  0  0  0  0  0  0
   44.3281   33.1933   41.6343 H   0  0  0  0  0  0  0  0  0  0  0  0
   47.4620   33.3593   35.8573 H   0  0  0  0  0  0  0  0  0  0  0  0
   50.0325   35.0104   38.0741 H   0  0  0  0  0  0  0  0  0  0  0  0
   49.7773   34.5247   36.3766 H   0  0  0  0  0  0  0  0  0  0  0  0
   47.8142   33.7758   42.1843 H   0  0  0  0  0  0  0  0  0  0  0  0
   47.4008   35.4321   41.5520 H   0  0  0  0  0  0  0  0  0  0  0  0
   46.9086   32.9490   44.1221 H   0  0  0  0  0  0  0  0  0  0  0  0
   45.5326   33.3940   46.1897 H   0  0  0  0  0  0  0  0  0  0  0  0
   44.0360   36.9436   44.3677 H   0  0  0  0  0  0  0  0  0  0  0  0
  1 12  1  0
  2  1  1  0
  3  2  2  0
  4  3  1  0
  4 11  2  0
  5  4  1  0
  6  5  2  0
  7  5  1  0
  7  8  1  0
  8 10  2  0
  9  8  1  0
 10 11  1  0
 11  1  1  0
 12 13  1  0
 13 18  1  0
 13 14  2  0
 14 15  1  0
 15 16  2  0
 17 16  1  0
 18 17  2  0
  2 19  1  0
  7 20  1  0
  9 21  1  0
  9 22  1  0
 12 23  1  0
 12 24  1  0
 14 25  1  0
 15 26  1  0
 17 27  1  0
M  ISO  7  19  14  20   9  23   8  24   8  25  14  26  14  27  14
M  END
>  <minimizedAffinity>  (1) 
-5.21641397

>  <minimizedRMSD>  (1) 
0.335600764

$$$$
