
     RDKit          3D

 45 48  0  0  1  0  0  0  0  0999 V2000
   44.6760   34.7440   41.7340 C   0  0  0  0  0  0  0  0  0  0  0  0
   43.6700   33.7650   41.5900 N   0  0  0  0  0  0  0  0  0  0  0  0
   43.9400   32.5760   42.1380 C   0  0  0  0  0  0  0  0  0  0  0  0
   43.0140   31.5170   42.0340 C   0  0  0  0  0  0  0  0  0  0  0  0
   41.8460   31.7730   41.3540 C   0  0  0  0  0  0  0  0  0  0  0  0
   41.0180   30.8330   41.2570 O   0  0  0  0  0  0  0  0  0  0  0  0
   41.5830   32.9660   40.8090 N   0  0  0  0  0  0  0  0  0  0  0  0
   42.4960   33.9450   40.9330 C   0  0  0  0  0  0  0  0  0  0  0  0
   42.2950   35.0900   40.4380 O   0  0  0  0  0  0  0  0  0  0  0  0
   40.3720   33.2450   40.0940 C   0  0  0  0  0  0  0  0  0  0  0  0
   39.1670   33.6940   40.5740 C   0  0  0  0  0  0  0  0  0  0  0  0
   38.1520   33.8830   39.6640 C   0  0  0  0  0  0  0  0  0  0  0  0
   38.3390   33.6330   38.3360 C   0  0  0  0  0  0  0  0  0  0  0  0
   39.5730   33.1750   37.8550 C   0  0  0  0  0  0  0  0  0  0  0  0
   40.5600   32.9950   38.7730 N   0  0  0  0  0  0  0  0  0  0  0  0
   45.8350   34.4060   42.5640 C   0  0  2  0  0  0  0  0  0  0  0  0
   44.4720   35.2610   45.9450 C   0  0  0  0  0  0  0  0  0  0  0  0
   44.7540   35.3050   44.5630 C   0  0  0  0  0  0  0  0  0  0  0  0
   45.5500   34.3210   44.0060 C   0  0  0  0  0  0  0  0  0  0  0  0
   46.0330   33.3370   44.8350 N   0  0  0  0  0  0  0  0  0  0  0  0
   45.7710   33.2870   46.1480 C   0  0  0  0  0  0  0  0  0  0  0  0
   44.9880   34.2510   46.7060 N   0  0  0  0  0  0  0  0  0  0  0  0
   47.0320   35.3410   42.4190 C   0  0  0  0  0  0  0  0  0  0  0  0
   48.1230   34.6680   41.6580 C   0  0  0  0  0  0  0  0  0  0  0  0
   48.1400   34.6480   40.1730 C   0  0  0  0  0  0  0  0  0  0  0  0
   48.9720   35.6760   40.8280 C   0  0  0  0  0  0  0  0  0  0  0  0
   44.2063   35.6371   42.1720 H   0  0  0  0  0  0  0  0  0  0  0  0
   45.0854   34.8761   40.7216 H   0  0  0  0  0  0  0  0  0  0  0  0
   44.8890   32.4227   42.6727 H   0  0  0  0  0  0  0  0  0  0  0  0
   43.2168   30.5307   42.4768 H   0  0  0  0  0  0  0  0  0  0  0  0
   39.0182   33.8951   41.6452 H   0  0  0  0  0  0  0  0  0  0  0  0
   37.1728   34.2420   40.0136 H   0  0  0  0  0  0  0  0  0  0  0  0
   37.5089   33.7933   37.6323 H   0  0  0  0  0  0  0  0  0  0  0  0
   39.7354   32.9709   36.7864 H   0  0  0  0  0  0  0  0  0  0  0  0
   46.0878   33.4136   42.1626 H   0  0  0  0  0  0  0  0  0  0  0  0
   43.8409   36.0349   46.4063 H   0  0  0  0  0  0  0  0  0  0  0  0
   44.3457   36.1119   43.9367 H   0  0  0  0  0  0  0  0  0  0  0  0
   46.1834   32.4770   46.7676 H   0  0  0  0  0  0  0  0  0  0  0  0
   46.7207   36.2488   41.8814 H   0  0  0  0  0  0  0  0  0  0  0  0
   47.4036   35.6056   43.4200 H   0  0  0  0  0  0  0  0  0  0  0  0
   48.2515   33.8728   42.4071 H   0  0  0  0  0  0  0  0  0  0  0  0
   47.2406   34.9538   39.6184 H   0  0  0  0  0  0  0  0  0  0  0  0
   48.3501   33.8655   39.4290 H   0  0  0  0  0  0  0  0  0  0  0  0
   50.0688   35.5943   40.8112 H   0  0  0  0  0  0  0  0  0  0  0  0
   49.0583   36.7711   40.7710 H   0  0  0  0  0  0  0  0  0  0  0  0
  1 16  1  0
  2  1  1  0
  2  3  1  0
  4  3  2  0
  5  4  1  0
  6  5  2  0
  7  8  1  0
  7  5  1  0
  8  2  1  0
  9  8  2  0
 10 11  2  0
 10  7  1  0
 12 11  1  0
 13 12  2  0
 14 13  1  0
 14 15  2  0
 15 10  1  0
 16 19  1  0
 17 22  2  0
 18 17  1  0
 19 18  2  0
 19 20  1  0
 20 21  2  0
 21 22  1  0
 23 16  1  0
 24 23  1  0
 25 26  1  0
 25 24  1  0
 26 24  1  0
  1 27  1  0
  1 28  1  0
  3 29  1  0
  4 30  1  0
 11 31  1  0
 12 32  1  0
 13 33  1  0
 14 34  1  0
 16 35  1  6
 17 36  1  0
 18 37  1  0
 21 38  1  0
 23 39  1  0
 23 40  1  0
 24 41  1  0
 25 42  1  0
 25 43  1  0
 26 44  1  0
 26 45  1  0
M  ISO  8  27   8  28   8  29  14  30  14  31  14  32  14  33  14  34  14
M  ISO  8  35   8  36  14  37  14  38  14  39   8  40   8  41  13  42  13
M  ISO  3  43  13  44  13  45  13
M  END
>  <minimizedAffinity>  (1) 
-6.17678881

>  <minimizedRMSD>  (1) 
1.39898026

$$$$
