
     RDKit          3D

 39 41  0  0  1  0  0  0  0  0999 V2000
   44.6180   34.3430   42.8670 C   0  0  0  0  0  0  0  0  0  0  0  0
   45.6340   33.5310   43.4060 C   0  0  0  0  0  0  0  0  0  0  0  0
   46.0280   33.7600   44.7430 C   0  0  0  0  0  0  0  0  0  0  0  0
   45.4310   34.7330   45.4410 N   0  0  0  0  0  0  0  0  0  0  0  0
   44.4710   35.5040   44.9330 C   0  0  0  0  0  0  0  0  0  0  0  0
   44.0810   35.3020   43.6690 N   0  0  0  0  0  0  0  0  0  0  0  0
   44.1330   34.2810   41.5370 C   0  0  0  0  0  0  0  0  0  0  0  0
   42.8530   33.4020   41.4300 C   0  0  0  0  0  0  0  0  0  0  0  0
   42.3920   33.8280   40.0060 C   0  0  0  0  0  0  0  0  0  0  0  0
   42.8510   35.2300   39.8480 C   0  0  0  0  0  0  0  0  0  0  0  0
   43.5380   35.6150   41.1410 C   0  0  0  0  0  0  0  0  0  0  0  0
   46.2520   32.4670   42.5800 C   0  0  1  0  0  0  0  0  0  0  0  0
   45.3840   31.2660   42.4630 C   0  0  0  0  0  0  0  0  0  0  0  0
   46.8280   33.0590   41.3670 C   0  0  0  0  0  0  0  0  0  0  0  0
   48.0090   33.9590   41.7090 C   0  0  0  0  0  0  0  0  0  0  0  0
   48.3510   35.2830   41.5740 C   0  0  0  0  0  0  0  0  0  0  0  0
   49.5740   35.5500   42.0540 N   0  0  0  0  0  0  0  0  0  0  0  0
   50.0660   34.3920   42.5180 C   0  0  0  0  0  0  0  0  0  0  0  0
   49.1330   33.4500   42.3100 N   0  0  0  0  0  0  0  0  0  0  0  0
   46.8156   33.1462   45.2045 H   0  0  0  0  0  0  0  0  0  0  0  0
   44.0066   36.2934   45.5422 H   0  0  0  0  0  0  0  0  0  0  0  0
   44.9880   33.9281   40.9416 H   0  0  0  0  0  0  0  0  0  0  0  0
   43.0831   32.3278   41.4861 H   0  0  0  0  0  0  0  0  0  0  0  0
   42.1122   33.5411   42.2312 H   0  0  0  0  0  0  0  0  0  0  0  0
   42.8530   33.1835   39.2431 H   0  0  0  0  0  0  0  0  0  0  0  0
   41.3026   33.7373   39.8838 H   0  0  0  0  0  0  0  0  0  0  0  0
   43.5568   35.3047   39.0076 H   0  0  0  0  0  0  0  0  0  0  0  0
   42.0049   35.9003   39.6364 H   0  0  0  0  0  0  0  0  0  0  0  0
   44.3158   36.3755   40.9781 H   0  0  0  0  0  0  0  0  0  0  0  0
   42.8788   36.0681   41.8961 H   0  0  0  0  0  0  0  0  0  0  0  0
   47.1237   32.0180   43.0785 H   0  0  0  0  0  0  0  0  0  0  0  0
   45.1221   30.9036   43.4680 H   0  0  0  0  0  0  0  0  0  0  0  0
   44.4659   31.5289   41.9172 H   0  0  0  0  0  0  0  0  0  0  0  0
   45.9217   30.4767   41.9172 H   0  0  0  0  0  0  0  0  0  0  0  0
   46.0573   33.6548   40.8561 H   0  0  0  0  0  0  0  0  0  0  0  0
   47.1821   32.2476   40.7141 H   0  0  0  0  0  0  0  0  0  0  0  0
   47.6937   36.0404   41.1219 H   0  0  0  0  0  0  0  0  0  0  0  0
   51.0516   34.2420   42.9829 H   0  0  0  0  0  0  0  0  0  0  0  0
   49.2472   32.4602   42.5710 H   0  0  0  0  0  0  0  0  0  0  0  0
  1  2  1  0
  1  6  2  0
  2  3  2  0
  3  4  1  0
  5  4  2  0
  6  5  1  0
  7  1  1  0
  8  7  1  0
  9  8  1  0
 10  9  1  0
 10 11  1  0
 11  7  1  0
 12  2  1  0
 13 12  1  0
 14 15  1  0
 14 12  1  0
 15 19  1  0
 16 15  2  0
 16 17  1  0
 17 18  2  0
 19 18  1  0
  3 20  1  0
  5 21  1  0
  7 22  1  0
  8 23  1  0
  8 24  1  0
  9 25  1  0
  9 26  1  0
 10 27  1  0
 10 28  1  0
 11 29  1  0
 11 30  1  0
 12 31  1  1
 13 32  1  0
 13 33  1  0
 13 34  1  0
 14 35  1  0
 14 36  1  0
 16 37  1  0
 18 38  1  0
 19 39  1  0
M  ISO  8  20  14  21  14  22  13  23  13  24  13  25  13  26  13  27  13
M  ISO  8  28  13  29  13  30  13  31   8  32   8  33   8  34   8  35   8
M  ISO  4  36   8  37  14  38  14  39   9
M  END
>  <minimizedAffinity>  (1) 
-4.33278799

>  <minimizedRMSD>  (1) 
2.22185183

$$$$
