
     RDKit          3D

 46 49  0  0  1  0  0  0  0  0999 V2000
   45.9240   30.8710   47.3190 C   0  0  2  0  0  0  0  0  0  0  0  0
   44.7100   34.7820   46.1230 C   0  0  0  0  0  0  0  0  0  0  0  0
   44.5860   35.4750   44.9320 C   0  0  0  0  0  0  0  0  0  0  0  0
   45.2000   34.9550   43.7980 C   0  0  0  0  0  0  0  0  0  0  0  0
   45.8930   33.8020   43.8990 N   0  0  0  0  0  0  0  0  0  0  0  0
   46.0090   33.1240   45.0920 C   0  0  0  0  0  0  0  0  0  0  0  0
   45.4160   33.6300   46.1710 N   0  0  0  0  0  0  0  0  0  0  0  0
   46.7320   31.9180   45.2210 N   0  0  0  0  0  0  0  0  0  0  0  0
   47.6280   31.6520   44.2250 C   0  0  0  0  0  0  0  0  0  0  0  0
   48.2080   30.4300   44.5930 C   0  0  0  0  0  0  0  0  0  0  0  0
   47.6510   30.0200   45.7680 N   0  0  0  0  0  0  0  0  0  0  0  0
   46.7560   30.9370   46.1360 C   0  0  0  0  0  0  0  0  0  0  0  0
   46.7460   31.5400   48.4640 C   0  0  0  0  0  0  0  0  0  0  0  0
   45.6800   29.4530   47.7350 C   0  0  0  0  0  0  0  0  0  0  0  0
   44.7370   28.7780   46.9090 N   0  0  0  0  0  0  0  0  0  0  0  0
   44.0950   29.3090   45.8630 N   0  0  0  0  0  0  0  0  0  0  0  0
   43.2920   28.3450   45.3500 C   0  0  0  0  0  0  0  0  0  0  0  0
   43.4200   27.1810   46.0780 C   0  0  0  0  0  0  0  0  0  0  0  0
   44.3480   27.4740   47.0720 C   0  0  0  0  0  0  0  0  0  0  0  0
   44.7520   26.5360   48.0400 N   0  0  0  0  0  0  0  0  0  0  0  0
   43.7760   26.0000   48.9920 C   0  0  0  0  0  0  0  0  0  0  0  0
   44.5320   25.8760   50.2970 C   0  0  0  0  0  0  0  0  0  0  0  0
   45.4740   24.8820   50.1910 O   0  0  0  0  0  0  0  0  0  0  0  0
   46.0300   24.7530   48.9410 C   0  0  0  0  0  0  0  0  0  0  0  0
   46.0980   26.0570   48.1680 C   0  0  0  0  0  0  0  0  0  0  0  0
   44.9578   31.3572   47.1188 H   0  0  0  0  0  0  0  0  0  0  0  0
   44.2322   35.1699   47.0347 H   0  0  0  0  0  0  0  0  0  0  0  0
   44.0157   36.4143   44.8834 H   0  0  0  0  0  0  0  0  0  0  0  0
   45.1218   35.4762   42.8325 H   0  0  0  0  0  0  0  0  0  0  0  0
   47.8455   32.2599   43.3344 H   0  0  0  0  0  0  0  0  0  0  0  0
   48.9832   29.8917   44.0280 H   0  0  0  0  0  0  0  0  0  0  0  0
   46.3489   31.2168   49.4376 H   0  0  0  0  0  0  0  0  0  0  0  0
   47.8013   31.2408   48.3808 H   0  0  0  0  0  0  0  0  0  0  0  0
   46.6674   32.6340   48.3808 H   0  0  0  0  0  0  0  0  0  0  0  0
   46.6344   28.9077   47.6929 H   0  0  0  0  0  0  0  0  0  0  0  0
   45.2621   29.4792   48.7522 H   0  0  0  0  0  0  0  0  0  0  0  0
   42.6331   28.4729   44.4785 H   0  0  0  0  0  0  0  0  0  0  0  0
   42.9002   26.2264   45.9091 H   0  0  0  0  0  0  0  0  0  0  0  0
   42.9246   26.6878   49.1019 H   0  0  0  0  0  0  0  0  0  0  0  0
   43.3608   25.0366   48.6610 H   0  0  0  0  0  0  0  0  0  0  0  0
   45.0304   26.8301   50.5234 H   0  0  0  0  0  0  0  0  0  0  0  0
   43.8280   25.6276   51.1049 H   0  0  0  0  0  0  0  0  0  0  0  0
   47.0520   24.3621   49.0538 H   0  0  0  0  0  0  0  0  0  0  0  0
   45.3821   24.0726   48.3688 H   0  0  0  0  0  0  0  0  0  0  0  0
   46.5344   25.8847   47.1731 H   0  0  0  0  0  0  0  0  0  0  0  0
   46.7294   26.7914   48.6894 H   0  0  0  0  0  0  0  0  0  0  0  0
  1 14  1  0
  1 13  1  0
  2  7  2  0
  3  2  1  0
  4  5  1  0
  4  3  2  0
  5  6  2  0
  6  8  1  0
  6  7  1  0
  8 12  1  0
  9 10  2  0
  9  8  1  0
 10 11  1  0
 11 12  2  0
 12  1  1  0
 15 19  1  0
 15 14  1  0
 16 15  1  0
 17 16  2  0
 17 18  1  0
 18 19  2  0
 19 20  1  0
 20 25  1  0
 20 21  1  0
 21 22  1  0
 23 22  1  0
 24 23  1  0
 25 24  1  0
  1 26  1  6
  2 27  1  0
  3 28  1  0
  4 29  1  0
  9 30  1  0
 10 31  1  0
 13 32  1  0
 13 33  1  0
 13 34  1  0
 14 35  1  0
 14 36  1  0
 17 37  1  0
 18 38  1  0
 21 39  1  0
 21 40  1  0
 22 41  1  0
 22 42  1  0
 24 43  1  0
 24 44  1  0
 25 45  1  0
 25 46  1  0
M  ISO  8  26   8  27  14  28  14  29  14  30  14  31  14  32   8  33   8
M  ISO  8  34   8  35   8  36   8  37  14  38  14  39  13  40  13  41  13
M  ISO  5  42  13  43  13  44  13  45  13  46  13
M  END
>  <minimizedAffinity>  (1) 
-4.96068811

>  <minimizedRMSD>  (1) 
1.26680565

$$$$
