
     RDKit          3D

 25 26  0  0  0  0  0  0  0  0999 V2000
   47.3560   33.8810   42.4150 C   0  0  0  0  0  0  0  0  0  0  0  0
   46.3560   34.5500   43.2810 C   0  0  0  0  0  0  0  0  0  0  0  0
   46.0240   33.9360   44.4910 C   0  0  0  0  0  0  0  0  0  0  0  0
   45.0790   34.5610   45.3200 C   0  0  0  0  0  0  0  0  0  0  0  0
   44.5310   35.7310   44.9050 N   0  0  0  0  0  0  0  0  0  0  0  0
   44.8820   36.2960   43.7170 C   0  0  0  0  0  0  0  0  0  0  0  0
   45.7870   35.7250   42.8960 N   0  0  0  0  0  0  0  0  0  0  0  0
   47.0430   34.1170   41.0200 N   0  0  0  0  0  0  0  0  0  0  0  0
   46.1440   33.1050   40.5800 C   0  0  0  0  0  0  0  0  0  0  0  0
   46.1160   32.8530   39.1070 C   0  0  0  0  0  0  0  0  0  0  0  0
   46.7980   33.8210   38.3130 N   0  0  0  0  0  0  0  0  0  0  0  0
   48.0670   34.2760   38.8000 C   0  0  0  0  0  0  0  0  0  0  0  0
   48.2580   34.2090   40.2770 C   0  0  0  0  0  0  0  0  0  0  0  0
   48.3559   34.2823   42.6366 H   0  0  0  0  0  0  0  0  0  0  0  0
   47.3356   32.7987   42.6108 H   0  0  0  0  0  0  0  0  0  0  0  0
   46.4918   32.9855   44.7872 H   0  0  0  0  0  0  0  0  0  0  0  0
   44.7899   34.1133   46.2823 H   0  0  0  0  0  0  0  0  0  0  0  0
   44.4140   37.2456   43.4182 H   0  0  0  0  0  0  0  0  0  0  0  0
   45.5090   32.5431   41.2808 H   0  0  0  0  0  0  0  0  0  0  0  0
   45.6059   31.9833   38.6672 H   0  0  0  0  0  0  0  0  0  0  0  0
   46.3984   34.1760   37.4325 H   0  0  0  0  0  0  0  0  0  0  0  0
   48.8488   33.6608   38.3305 H   0  0  0  0  0  0  0  0  0  0  0  0
   48.1209   35.3435   38.5403 H   0  0  0  0  0  0  0  0  0  0  0  0
   48.8703   33.3243   40.5060 H   0  0  0  0  0  0  0  0  0  0  0  0
   48.7413   35.1507   40.5765 H   0  0  0  0  0  0  0  0  0  0  0  0
  1  2  1  0
  2  3  2  0
  3  4  1  0
  5  4  2  0
  6  5  1  0
  7  2  1  0
  7  6  2  0
  8  1  1  0
  9  8  1  0
 10  9  2  0
 11 12  1  0
 11 10  1  0
 12 13  1  0
 13  8  1  0
  1 14  1  0
  1 15  1  0
  3 16  1  0
  4 17  1  0
  6 18  1  0
  9 19  1  0
 10 20  1  0
 11 21  1  0
 12 22  1  0
 12 23  1  0
 13 24  1  0
 13 25  1  0
M  ISO  8  14   8  15   8  16  14  17  14  18  14  19  13  20  13  22  13
M  ISO  3  23  13  24  13  25  13
M  END
>  <minimizedAffinity>  (1) 
-3.84438324

>  <minimizedRMSD>  (1) 
1.26425636

$$$$
