
     RDKit          3D

 19 20  0  0  0  0  0  0  0  0999 V2000
   45.8550   34.2730   43.6280 C   0  0  0  0  0  0  0  0  0  0  0  0
   45.9180   33.6100   44.8600 C   0  0  0  0  0  0  0  0  0  0  0  0
   45.2310   34.1760   45.9550 C   0  0  0  0  0  0  0  0  0  0  0  0
   44.5480   35.3250   45.7620 N   0  0  0  0  0  0  0  0  0  0  0  0
   44.5170   35.9310   44.5470 C   0  0  0  0  0  0  0  0  0  0  0  0
   45.1600   35.4160   43.4880 N   0  0  0  0  0  0  0  0  0  0  0  0
   46.5840   33.6600   42.4950 C   0  0  0  0  0  0  0  0  0  0  0  0
   47.8660   34.3600   42.3570 N   0  0  0  0  0  0  0  0  0  0  0  0
   49.0590   34.1130   42.9010 C   0  0  0  0  0  0  0  0  0  0  0  0
   49.9090   35.0670   42.4450 N   0  0  0  0  0  0  0  0  0  0  0  0
   49.2380   35.8890   41.6250 C   0  0  0  0  0  0  0  0  0  0  0  0
   47.9710   35.4350   41.5830 N   0  0  0  0  0  0  0  0  0  0  0  0
   46.4867   32.6749   44.9709 H   0  0  0  0  0  0  0  0  0  0  0  0
   45.2513   33.6926   46.9429 H   0  0  0  0  0  0  0  0  0  0  0  0
   43.9510   36.8667   44.4283 H   0  0  0  0  0  0  0  0  0  0  0  0
   46.7598   32.5929   42.6962 H   0  0  0  0  0  0  0  0  0  0  0  0
   45.9972   33.7455   41.5685 H   0  0  0  0  0  0  0  0  0  0  0  0
   49.3066   33.2913   43.5891 H   0  0  0  0  0  0  0  0  0  0  0  0
   49.6428   36.7619   41.0919 H   0  0  0  0  0  0  0  0  0  0  0  0
  1  2  2  0
  2  3  1  0
  4  3  2  0
  5  4  1  0
  6  1  1  0
  6  5  2  0
  7  1  1  0
  8  7  1  0
  8  9  1  0
 10  9  2  0
 11 10  1  0
 12 11  2  0
 12  8  1  0
  2 13  1  0
  3 14  1  0
  5 15  1  0
  7 16  1  0
  7 17  1  0
  9 18  1  0
 11 19  1  0
M  ISO  7  13  14  14  14  15  14  16   8  17   8  18  14  19  14
M  END
>  <minimizedAffinity>  (1) 
-3.94699764

>  <minimizedRMSD>  (1) 
0.971552014

$$$$
