
     RDKit          3D

 15 15  0  0  0  0  0  0  0  0999 V2000
   46.1910   34.9030   43.1890 C   0  0  0  0  0  0  0  0  0  0  0  0
   46.3260   33.9120   44.1700 C   0  0  0  0  0  0  0  0  0  0  0  0
   45.5470   34.0260   45.3350 C   0  0  0  0  0  0  0  0  0  0  0  0
   44.7110   35.0830   45.4470 N   0  0  0  0  0  0  0  0  0  0  0  0
   44.6120   36.0150   44.4770 C   0  0  0  0  0  0  0  0  0  0  0  0
   45.3360   35.9460   43.3500 N   0  0  0  0  0  0  0  0  0  0  0  0
   47.0120   34.7870   41.9580 C   0  0  0  0  0  0  0  0  0  0  0  0
   46.3130   34.1920   40.8480 N   0  0  0  0  0  0  0  0  0  0  0  0
   47.0205   33.0701   44.0330 H   0  0  0  0  0  0  0  0  0  0  0  0
   45.6159   33.2743   46.1351 H   0  0  0  0  0  0  0  0  0  0  0  0
   43.9170   36.8565   44.6142 H   0  0  0  0  0  0  0  0  0  0  0  0
   47.3384   35.7950   41.6624 H   0  0  0  0  0  0  0  0  0  0  0  0
   47.8570   34.1246   42.1972 H   0  0  0  0  0  0  0  0  0  0  0  0
   45.5765   33.5651   41.2023 H   0  0  0  0  0  0  0  0  0  0  0  0
   45.8862   34.9331   40.2740 H   0  0  0  0  0  0  0  0  0  0  0  0
  1  6  2  0
  1  2  1  0
  2  3  2  0
  3  4  1  0
  5  4  2  0
  6  5  1  0
  7  1  1  0
  8  7  1  0
  2  9  1  0
  3 10  1  0
  5 11  1  0
  7 12  1  0
  7 13  1  0
  8 14  1  0
  8 15  1  0
M  ISO  7   9  14  10  14  11  14  12   8  13   8  14   5  15   5
M  END
>  <minimizedAffinity>  (1) 
-3.01582599

>  <minimizedRMSD>  (1) 
0.0639035478

$$$$
