
     RDKit          3D

 23 24  0  0  0  0  0  0  0  0999 V2000
   47.7210   35.0420   41.8470 C   0  0  0  0  0  0  0  0  0  0  0  0
   46.6990   34.9620   42.9150 C   0  0  0  0  0  0  0  0  0  0  0  0
   46.8130   33.9200   43.8560 C   0  0  0  0  0  0  0  0  0  0  0  0
   45.8400   33.8470   44.8690 C   0  0  0  0  0  0  0  0  0  0  0  0
   44.8510   34.7710   44.8900 N   0  0  0  0  0  0  0  0  0  0  0  0
   44.7780   35.7570   43.9650 C   0  0  0  0  0  0  0  0  0  0  0  0
   45.6910   35.8720   42.9670 N   0  0  0  0  0  0  0  0  0  0  0  0
   47.3300   34.3990   40.5870 C   0  0  0  0  0  0  0  0  0  0  0  0
   46.1740   33.6840   40.3560 C   0  0  0  0  0  0  0  0  0  0  0  0
   45.8660   33.1020   39.1420 C   0  0  0  0  0  0  0  0  0  0  0  0
   46.8390   33.3030   38.1600 C   0  0  0  0  0  0  0  0  0  0  0  0
   48.0100   33.9970   38.3060 C   0  0  0  0  0  0  0  0  0  0  0  0
   48.2480   34.5490   39.5470 C   0  0  0  0  0  0  0  0  0  0  0  0
   47.9240   36.1038   41.6434 H   0  0  0  0  0  0  0  0  0  0  0  0
   48.6047   34.5006   42.2157 H   0  0  0  0  0  0  0  0  0  0  0  0
   47.6336   33.1896   43.8006 H   0  0  0  0  0  0  0  0  0  0  0  0
   45.8819   33.0538   45.6300 H   0  0  0  0  0  0  0  0  0  0  0  0
   43.9558   36.4853   44.0238 H   0  0  0  0  0  0  0  0  0  0  0  0
   45.4582   33.5710   41.1835 H   0  0  0  0  0  0  0  0  0  0  0  0
   44.9411   32.5334   38.9649 H   0  0  0  0  0  0  0  0  0  0  0  0
   46.6452   32.8600   37.1720 H   0  0  0  0  0  0  0  0  0  0  0  0
   48.7238   34.1085   37.4765 H   0  0  0  0  0  0  0  0  0  0  0  0
   49.1749   35.1157   39.7195 H   0  0  0  0  0  0  0  0  0  0  0  0
  1  2  1  0
  2  7  1  0
  2  3  2  0
  3  4  1  0
  4  5  2  0
  6  5  1  0
  7  6  2  0
  8  1  1  0
  9  8  2  0
 10  9  1  0
 11 12  1  0
 11 10  2  0
 12 13  2  0
 13  8  1  0
  1 14  1  0
  1 15  1  0
  3 16  1  0
  4 17  1  0
  6 18  1  0
  9 19  1  0
 10 20  1  0
 11 21  1  0
 12 22  1  0
 13 23  1  0
M  ISO  8  14   8  15   8  16  14  17  14  18  14  19  14  20  14  21  14
M  ISO  2  22  14  23  14
M  END
>  <minimizedAffinity>  (1) 
-4.24718046

>  <minimizedRMSD>  (1) 
1.22454

$$$$
