
     RDKit          3D

 40 42  0  0  1  0  0  0  0  0999 V2000
   45.5020   33.8450   43.4670 C   0  0  0  0  0  0  0  0  0  0  0  0
   46.6020   32.9980   43.6890 C   0  0  0  0  0  0  0  0  0  0  0  0
   47.0300   32.7880   45.0130 C   0  0  0  0  0  0  0  0  0  0  0  0
   46.3720   33.4040   46.0130 N   0  0  0  0  0  0  0  0  0  0  0  0
   45.3330   34.2070   45.8090 C   0  0  0  0  0  0  0  0  0  0  0  0
   44.9160   34.4140   44.5540 N   0  0  0  0  0  0  0  0  0  0  0  0
   44.9600   34.1890   42.2030 C   0  0  0  0  0  0  0  0  0  0  0  0
   43.6840   33.3520   41.8790 C   0  0  0  0  0  0  0  0  0  0  0  0
   43.1540   34.1800   40.6770 C   0  0  0  0  0  0  0  0  0  0  0  0
   43.5880   35.5810   40.9470 C   0  0  0  0  0  0  0  0  0  0  0  0
   44.3300   35.5620   42.2680 C   0  0  0  0  0  0  0  0  0  0  0  0
   47.2710   32.3490   42.5480 C   0  0  1  0  0  0  0  0  0  0  0  0
   46.4420   31.2850   41.9150 C   0  0  0  0  0  0  0  0  0  0  0  0
   47.8810   33.3630   41.6730 C   0  0  0  0  0  0  0  0  0  0  0  0
   49.1520   32.7210   41.0730 C   0  0  0  0  0  0  0  0  0  0  0  0
   50.3210   32.5590   41.7410 C   0  0  0  0  0  0  0  0  0  0  0  0
   51.4270   31.9790   41.1600 C   0  0  0  0  0  0  0  0  0  0  0  0
   51.3340   31.5560   39.8760 N   0  0  0  0  0  0  0  0  0  0  0  0
   50.1900   31.7000   39.1830 C   0  0  0  0  0  0  0  0  0  0  0  0
   49.1330   32.2720   39.7820 N   0  0  0  0  0  0  0  0  0  0  0  0
   47.8869   32.1323   45.2270 H   0  0  0  0  0  0  0  0  0  0  0  0
   44.8252   34.6924   46.6555 H   0  0  0  0  0  0  0  0  0  0  0  0
   45.7914   34.0633   41.4939 H   0  0  0  0  0  0  0  0  0  0  0  0
   43.9295   32.3187   41.5926 H   0  0  0  0  0  0  0  0  0  0  0  0
   42.9784   33.2205   42.7126 H   0  0  0  0  0  0  0  0  0  0  0  0
   42.0571   34.1198   40.6207 H   0  0  0  0  0  0  0  0  0  0  0  0
   43.5413   33.8068   39.7175 H   0  0  0  0  0  0  0  0  0  0  0  0
   44.2526   35.9330   40.1443 H   0  0  0  0  0  0  0  0  0  0  0  0
   42.7243   36.2609   40.9889 H   0  0  0  0  0  0  0  0  0  0  0  0
   43.6431   35.6548   43.1222 H   0  0  0  0  0  0  0  0  0  0  0  0
   45.0412   36.3892   42.4090 H   0  0  0  0  0  0  0  0  0  0  0  0
   48.1261   31.7530   42.8994 H   0  0  0  0  0  0  0  0  0  0  0  0
   45.9672   30.6756   42.6981 H   0  0  0  0  0  0  0  0  0  0  0  0
   45.6649   31.7489   41.2898 H   0  0  0  0  0  0  0  0  0  0  0  0
   47.0819   30.6449   41.2898 H   0  0  0  0  0  0  0  0  0  0  0  0
   47.1820   33.6423   40.8709 H   0  0  0  0  0  0  0  0  0  0  0  0
   48.1253   34.2767   42.2347 H   0  0  0  0  0  0  0  0  0  0  0  0
   50.3883   32.9029   42.7837 H   0  0  0  0  0  0  0  0  0  0  0  0
   52.3636   31.8620   41.7249 H   0  0  0  0  0  0  0  0  0  0  0  0
   50.1214   31.3543   38.1410 H   0  0  0  0  0  0  0  0  0  0  0  0
  1  2  1  0
  1  6  2  0
  2  3  2  0
  3  4  1  0
  5  4  2  0
  6  5  1  0
  7 11  1  0
  7  1  1  0
  8  7  1  0
  9 10  1  0
  9  8  1  0
 10 11  1  0
 12  2  1  0
 13 12  1  0
 14 12  1  0
 15 14  1  0
 15 16  2  0
 17 16  1  0
 18 17  2  0
 19 20  2  0
 19 18  1  0
 20 15  1  0
  3 21  1  0
  5 22  1  0
  7 23  1  0
  8 24  1  0
  8 25  1  0
  9 26  1  0
  9 27  1  0
 10 28  1  0
 10 29  1  0
 11 30  1  0
 11 31  1  0
 12 32  1  1
 13 33  1  0
 13 34  1  0
 13 35  1  0
 14 36  1  0
 14 37  1  0
 16 38  1  0
 17 39  1  0
 19 40  1  0
M  ISO  8  21  14  22  14  23  13  24  13  25  13  26  13  27  13  28  13
M  ISO  8  29  13  30  13  31  13  32   8  33   8  34   8  35   8  36   8
M  ISO  4  37   8  38  14  39  14  40  14
M  END
>  <minimizedAffinity>  (1) 
-4.27265835

>  <minimizedRMSD>  (1) 
1.08997428

$$$$
