
     RDKit          3D

 26 27  0  0  0  0  0  0  0  0999 V2000
   45.8870   34.2950   40.9640 C   0  0  0  0  0  0  0  0  0  0  0  0
   44.5340   34.1020   40.9100 C   0  0  0  0  0  0  0  0  0  0  0  0
   43.8780   33.4350   39.8850 C   0  0  0  0  0  0  0  0  0  0  0  0
   44.7330   32.9710   38.8970 C   0  0  0  0  0  0  0  0  0  0  0  0
   46.0820   33.1210   38.8780 C   0  0  0  0  0  0  0  0  0  0  0  0
   46.6740   33.8000   39.9360 C   0  0  0  0  0  0  0  0  0  0  0  0
   46.6110   34.9910   42.0250 C   0  0  0  0  0  0  0  0  0  0  0  0
   45.9410   34.9750   43.3530 C   0  0  0  0  0  0  0  0  0  0  0  0
   46.2040   33.9090   44.2170 C   0  0  0  0  0  0  0  0  0  0  0  0
   45.5620   33.9080   45.4680 C   0  0  0  0  0  0  0  0  0  0  0  0
   44.7300   34.9300   45.7710 N   0  0  0  0  0  0  0  0  0  0  0  0
   44.5050   35.9370   44.9060 C   0  0  0  0  0  0  0  0  0  0  0  0
   45.1030   35.9740   43.6950 N   0  0  0  0  0  0  0  0  0  0  0  0
   48.1370   33.9200   39.8420 C   0  0  0  0  0  0  0  0  0  0  0  0
   48.9540   33.0600   40.2410 O   0  0  0  0  0  0  0  0  0  0  0  0
   48.7660   35.0210   39.2910 O   0  0  0  0  0  0  0  0  0  0  0  0
   43.9252   34.5022   41.7341 H   0  0  0  0  0  0  0  0  0  0  0  0
   42.7881   33.2889   39.8590 H   0  0  0  0  0  0  0  0  0  0  0  0
   44.2772   32.4330   38.0527 H   0  0  0  0  0  0  0  0  0  0  0  0
   46.6867   32.7182   38.0521 H   0  0  0  0  0  0  0  0  0  0  0  0
   47.5975   34.5167   42.1339 H   0  0  0  0  0  0  0  0  0  0  0  0
   46.6675   36.0463   41.7199 H   0  0  0  0  0  0  0  0  0  0  0  0
   46.8896   33.0986   43.9286 H   0  0  0  0  0  0  0  0  0  0  0  0
   45.7331   33.0922   46.1858 H   0  0  0  0  0  0  0  0  0  0  0  0
   43.8188   36.7479   45.1917 H   0  0  0  0  0  0  0  0  0  0  0  0
   49.7545   35.0571   39.2494 H   0  0  0  0  0  0  0  0  0  0  0  0
  1  7  1  0
  2  1  2  0
  3  2  1  0
  4  3  2  0
  5  4  1  0
  5  6  2  0
  6  1  1  0
  7  8  1  0
  8 13  1  0
  8  9  2  0
  9 10  1  0
 10 11  2  0
 12 11  1  0
 13 12  2  0
 14  6  1  0
 14 15  2  0
 16 14  1  0
  2 17  1  0
  3 18  1  0
  4 19  1  0
  5 20  1  0
  7 21  1  0
  7 22  1  0
  9 23  1  0
 10 24  1  0
 12 25  1  0
 16 26  1  0
M  ISO  8  17  14  18  14  19  14  20  14  21   8  22   8  23  14  24  14
M  ISO  2  25  14  26   3
M  END
>  <minimizedAffinity>  (1) 
-4.7671423

>  <minimizedRMSD>  (1) 
1.61211669

$$$$
