
     RDKit          3D

 35 36  0  0  0  0  0  0  0  0999 V2000
   45.6370   34.5080   41.3100 C   0  0  0  0  0  0  0  0  0  0  0  0
   44.2870   34.2190   41.2120 C   0  0  0  0  0  0  0  0  0  0  0  0
   43.7150   33.4890   40.1850 C   0  0  0  0  0  0  0  0  0  0  0  0
   44.6260   33.0570   39.2400 C   0  0  0  0  0  0  0  0  0  0  0  0
   45.9610   33.2960   39.2640 C   0  0  0  0  0  0  0  0  0  0  0  0
   46.4930   34.0420   40.3230 C   0  0  0  0  0  0  0  0  0  0  0  0
   47.9750   34.2390   40.2400 C   0  0  0  0  0  0  0  0  0  0  0  0
   48.4820   35.3900   41.0610 C   0  0  0  0  0  0  0  0  0  0  0  0
   48.7280   33.0320   40.7630 C   0  0  0  0  0  0  0  0  0  0  0  0
   48.4100   34.3530   38.7790 C   0  0  0  0  0  0  0  0  0  0  0  0
   46.2520   35.2530   42.3970 C   0  0  0  0  0  0  0  0  0  0  0  0
   45.9120   34.7740   43.7640 C   0  0  0  0  0  0  0  0  0  0  0  0
   46.5910   33.6480   44.2750 C   0  0  0  0  0  0  0  0  0  0  0  0
   46.2520   33.2370   45.5780 C   0  0  0  0  0  0  0  0  0  0  0  0
   45.3060   33.9390   46.2530 N   0  0  0  0  0  0  0  0  0  0  0  0
   44.6880   35.0100   45.7150 C   0  0  0  0  0  0  0  0  0  0  0  0
   44.9780   35.4490   44.4600 N   0  0  0  0  0  0  0  0  0  0  0  0
   43.6235   34.5953   42.0046 H   0  0  0  0  0  0  0  0  0  0  0  0
   42.6380   33.2732   40.1264 H   0  0  0  0  0  0  0  0  0  0  0  0
   44.2352   32.4692   38.3963 H   0  0  0  0  0  0  0  0  0  0  0  0
   46.6135   32.9110   38.4665 H   0  0  0  0  0  0  0  0  0  0  0  0
   48.3772   35.1522   42.1299 H   0  0  0  0  0  0  0  0  0  0  0  0
   49.5420   35.5683   40.8272 H   0  0  0  0  0  0  0  0  0  0  0  0
   47.8981   36.2924   40.8272 H   0  0  0  0  0  0  0  0  0  0  0  0
   48.7207   33.0436   41.8629 H   0  0  0  0  0  0  0  0  0  0  0  0
   48.2428   32.1128   40.4028 H   0  0  0  0  0  0  0  0  0  0  0  0
   49.7669   33.0636   40.4028 H   0  0  0  0  0  0  0  0  0  0  0  0
   49.4732   34.6316   38.7336 H   0  0  0  0  0  0  0  0  0  0  0  0
   48.2626   33.3859   38.2760 H   0  0  0  0  0  0  0  0  0  0  0  0
   47.8072   35.1235   38.2760 H   0  0  0  0  0  0  0  0  0  0  0  0
   47.3437   35.1921   42.2766 H   0  0  0  0  0  0  0  0  0  0  0  0
   45.8591   36.2780   42.3257 H   0  0  0  0  0  0  0  0  0  0  0  0
   47.3501   33.1159   43.6828 H   0  0  0  0  0  0  0  0  0  0  0  0
   46.7424   32.3669   46.0388 H   0  0  0  0  0  0  0  0  0  0  0  0
   43.9291   35.5431   46.3065 H   0  0  0  0  0  0  0  0  0  0  0  0
  1 11  1  0
  2  1  2  0
  3  2  1  0
  4  5  1  0
  4  3  2  0
  5  6  2  0
  6  1  1  0
  7  6  1  0
  7  9  1  0
  7  8  1  0
 10  7  1  0
 11 12  1  0
 12 13  2  0
 12 17  1  0
 13 14  1  0
 14 15  2  0
 16 15  1  0
 17 16  2  0
  2 18  1  0
  3 19  1  0
  4 20  1  0
  5 21  1  0
  8 22  1  0
  8 23  1  0
  8 24  1  0
  9 25  1  0
  9 26  1  0
  9 27  1  0
 10 28  1  0
 10 29  1  0
 10 30  1  0
 11 31  1  0
 11 32  1  0
 13 33  1  0
 14 34  1  0
 16 35  1  0
M  ISO  8  18  14  19  14  20  14  21  14  22   8  23   8  24   8  25   8
M  ISO  8  26   8  27   8  28   8  29   8  30   8  31   8  32   8  33  14
M  ISO  2  34  14  35  14
M  END
>  <minimizedAffinity>  (1) 
-5.01360178

>  <minimizedRMSD>  (1) 
1.9083153

$$$$
