
     RDKit          3D

 32 33  0  0  0  0  0  0  0  0999 V2000
   45.8580   34.2330   41.0340 C   0  0  0  0  0  0  0  0  0  0  0  0
   44.5320   33.8930   41.0630 C   0  0  0  0  0  0  0  0  0  0  0  0
   43.9010   33.2020   40.0430 C   0  0  0  0  0  0  0  0  0  0  0  0
   44.7220   32.8750   38.9750 C   0  0  0  0  0  0  0  0  0  0  0  0
   46.0620   33.1840   38.8790 C   0  0  0  0  0  0  0  0  0  0  0  0
   46.6360   33.8790   39.9360 C   0  0  0  0  0  0  0  0  0  0  0  0
   46.5790   34.9610   42.0810 C   0  0  0  0  0  0  0  0  0  0  0  0
   45.9160   34.9610   43.4100 C   0  0  0  0  0  0  0  0  0  0  0  0
   46.1880   33.9050   44.2910 C   0  0  0  0  0  0  0  0  0  0  0  0
   45.5550   33.9170   45.5390 C   0  0  0  0  0  0  0  0  0  0  0  0
   44.7200   34.9360   45.8340 N   0  0  0  0  0  0  0  0  0  0  0  0
   44.4800   35.9470   44.9500 C   0  0  0  0  0  0  0  0  0  0  0  0
   45.0730   35.9700   43.7310 N   0  0  0  0  0  0  0  0  0  0  0  0
   48.0930   34.1670   39.7360 C   0  0  0  0  0  0  0  0  0  0  0  0
   48.4190   34.4040   38.2760 C   0  0  0  0  0  0  0  0  0  0  0  0
   48.5830   35.2780   40.6140 C   0  0  0  0  0  0  0  0  0  0  0  0
   43.9378   34.1838   41.9418 H   0  0  0  0  0  0  0  0  0  0  0  0
   42.8347   32.9341   40.0771 H   0  0  0  0  0  0  0  0  0  0  0  0
   44.2681   32.3251   38.1374 H   0  0  0  0  0  0  0  0  0  0  0  0
   46.6540   32.8915   37.9992 H   0  0  0  0  0  0  0  0  0  0  0  0
   47.5724   34.5024   42.1943 H   0  0  0  0  0  0  0  0  0  0  0  0
   46.6198   36.0110   41.7557 H   0  0  0  0  0  0  0  0  0  0  0  0
   46.8761   33.0939   44.0106 H   0  0  0  0  0  0  0  0  0  0  0  0
   45.7344   33.1112   46.2660 H   0  0  0  0  0  0  0  0  0  0  0  0
   43.7927   36.7584   45.2314 H   0  0  0  0  0  0  0  0  0  0  0  0
   48.6418   33.2662   40.0481 H   0  0  0  0  0  0  0  0  0  0  0  0
   49.3065   35.0492   38.1985 H   0  0  0  0  0  0  0  0  0  0  0  0
   48.6218   33.4410   37.7846 H   0  0  0  0  0  0  0  0  0  0  0  0
   47.5655   34.8939   37.7846 H   0  0  0  0  0  0  0  0  0  0  0  0
   48.4577   34.9939   41.6693 H   0  0  0  0  0  0  0  0  0  0  0  0
   49.6473   35.4654   40.4086 H   0  0  0  0  0  0  0  0  0  0  0  0
   48.0037   36.1903   40.4086 H   0  0  0  0  0  0  0  0  0  0  0  0
  1  2  2  0
  1  7  1  0
  3  2  1  0
  4  3  2  0
  5  4  1  0
  5  6  2  0
  6  1  1  0
  7  8  1  0
  8 13  1  0
  8  9  2  0
  9 10  1  0
 10 11  2  0
 12 11  1  0
 13 12  2  0
 14  6  1  0
 14 16  1  0
 15 14  1  0
  2 17  1  0
  3 18  1  0
  4 19  1  0
  5 20  1  0
  7 21  1  0
  7 22  1  0
  9 23  1  0
 10 24  1  0
 12 25  1  0
 14 26  1  0
 15 27  1  0
 15 28  1  0
 15 29  1  0
 16 30  1  0
 16 31  1  0
 16 32  1  0
M  ISO  8  17  14  18  14  19  14  20  14  21   8  22   8  23  14  24  14
M  ISO  8  25  14  26   8  27   8  28   8  29   8  30   8  31   8  32   8
M  END
>  <minimizedAffinity>  (1) 
-4.91965961

>  <minimizedRMSD>  (1) 
1.58293414

$$$$
