
     RDKit          3D

 24 25  0  0  0  0  0  0  0  0999 V2000
   47.1700   34.9740   41.9250 C   0  0  0  0  0  0  0  0  0  0  0  0
   46.5960   34.2720   40.7750 C   0  0  0  0  0  0  0  0  0  0  0  0
   45.2980   33.8520   40.6470 C   0  0  0  0  0  0  0  0  0  0  0  0
   44.8130   33.1920   39.5350 C   0  0  0  0  0  0  0  0  0  0  0  0
   45.7610   32.9860   38.5430 C   0  0  0  0  0  0  0  0  0  0  0  0
   47.0800   33.3750   38.5950 C   0  0  0  0  0  0  0  0  0  0  0  0
   47.5050   34.0350   39.7410 C   0  0  0  0  0  0  0  0  0  0  0  0
   48.8330   34.4120   39.7590 O   0  0  0  0  0  0  0  0  0  0  0  0
   46.3070   34.9910   43.1260 C   0  0  0  0  0  0  0  0  0  0  0  0
   46.4480   33.9490   44.0650 C   0  0  0  0  0  0  0  0  0  0  0  0
   45.6280   33.9710   45.1990 C   0  0  0  0  0  0  0  0  0  0  0  0
   44.7500   34.9800   45.3370 N   0  0  0  0  0  0  0  0  0  0  0  0
   44.6340   35.9630   44.4260 C   0  0  0  0  0  0  0  0  0  0  0  0
   45.4040   35.9920   43.3060 N   0  0  0  0  0  0  0  0  0  0  0  0
   47.3672   36.0149   41.6288 H   0  0  0  0  0  0  0  0  0  0  0  0
   48.0823   34.4258   42.2029 H   0  0  0  0  0  0  0  0  0  0  0  0
   44.6035   34.0517   41.4763 H   0  0  0  0  0  0  0  0  0  0  0  0
   43.7685   32.8594   39.4439 H   0  0  0  0  0  0  0  0  0  0  0  0
   45.4283   32.4649   37.6332 H   0  0  0  0  0  0  0  0  0  0  0  0
   47.7699   33.1715   37.7627 H   0  0  0  0  0  0  0  0  0  0  0  0
   49.2022   34.8865   40.5455 H   0  0  0  0  0  0  0  0  0  0  0  0
   47.1805   33.1429   43.9111 H   0  0  0  0  0  0  0  0  0  0  0  0
   45.7002   33.1804   45.9604 H   0  0  0  0  0  0  0  0  0  0  0  0
   43.8977   36.7633   44.5914 H   0  0  0  0  0  0  0  0  0  0  0  0
  1  9  1  0
  2  1  1  0
  3  2  2  0
  4  3  1  0
  5  6  1  0
  5  4  2  0
  6  7  2  0
  7  8  1  0
  7  2  1  0
  9 14  1  0
  9 10  2  0
 10 11  1  0
 11 12  2  0
 13 12  1  0
 14 13  2  0
  1 15  1  0
  1 16  1  0
  3 17  1  0
  4 18  1  0
  5 19  1  0
  6 20  1  0
  8 21  1  0
 10 22  1  0
 11 23  1  0
 13 24  1  0
M  ISO  8  15   8  16   8  17  14  18  14  19  14  20  14  21   3  22  14
M  ISO  2  23  14  24  14
M  END
>  <minimizedAffinity>  (1) 
-4.48639584

>  <minimizedRMSD>  (1) 
0.804920137

$$$$
