
     RDKit          3D

 24 25  0  0  0  0  0  0  0  0999 V2000
   46.5720   34.9400   42.0220 C   0  0  0  0  0  0  0  0  0  0  0  0
   45.7600   34.3320   40.9600 C   0  0  0  0  0  0  0  0  0  0  0  0
   44.3980   34.4180   40.8180 C   0  0  0  0  0  0  0  0  0  0  0  0
   43.7010   33.8190   39.7920 C   0  0  0  0  0  0  0  0  0  0  0  0
   44.5020   33.1090   38.8990 C   0  0  0  0  0  0  0  0  0  0  0  0
   45.8540   32.9740   38.9690 C   0  0  0  0  0  0  0  0  0  0  0  0
   46.4850   33.5980   40.0180 C   0  0  0  0  0  0  0  0  0  0  0  0
   48.2820   33.4290   40.1260 S   0  0  0  0  0  0  0  0  0  0  0  0
   45.9080   34.9740   43.3410 C   0  0  0  0  0  0  0  0  0  0  0  0
   46.1630   33.8890   44.2110 C   0  0  0  0  0  0  0  0  0  0  0  0
   45.5360   33.9110   45.4690 C   0  0  0  0  0  0  0  0  0  0  0  0
   44.7270   34.9490   45.7960 N   0  0  0  0  0  0  0  0  0  0  0  0
   44.5180   35.9630   44.9220 C   0  0  0  0  0  0  0  0  0  0  0  0
   45.0960   35.9920   43.6980 N   0  0  0  0  0  0  0  0  0  0  0  0
   46.8094   35.9729   41.7275 H   0  0  0  0  0  0  0  0  0  0  0  0
   47.4699   34.3145   42.1337 H   0  0  0  0  0  0  0  0  0  0  0  0
   43.8324   34.9963   41.5634 H   0  0  0  0  0  0  0  0  0  0  0  0
   42.6087   33.8943   39.6866 H   0  0  0  0  0  0  0  0  0  0  0  0
   43.9937   32.6117   38.0597 H   0  0  0  0  0  0  0  0  0  0  0  0
   46.4149   32.3933   38.2219 H   0  0  0  0  0  0  0  0  0  0  0  0
   48.6590   33.3935   41.4426 H   0  0  0  0  0  0  0  0  0  0  0  0
   46.8249   33.0616   43.9156 H   0  0  0  0  0  0  0  0  0  0  0  0
   45.7006   33.0912   46.1837 H   0  0  0  0  0  0  0  0  0  0  0  0
   43.8563   36.7907   45.2169 H   0  0  0  0  0  0  0  0  0  0  0  0
  1  9  1  0
  2  1  1  0
  3  2  2  0
  4  3  1  0
  5  6  1  0
  5  4  2  0
  6  7  2  0
  7  8  1  0
  7  2  1  0
  9 14  1  0
  9 10  2  0
 10 11  1  0
 11 12  2  0
 13 12  1  0
 14 13  2  0
  1 15  1  0
  1 16  1  0
  3 17  1  0
  4 18  1  0
  5 19  1  0
  6 20  1  0
  8 21  1  0
 10 22  1  0
 11 23  1  0
 13 24  1  0
M  ISO  8  15   8  16   8  17  14  18  14  19  14  20  14  21  11  22  14
M  ISO  2  23  14  24  14
M  END
>  <minimizedAffinity>  (1) 
-4.23442268

>  <minimizedRMSD>  (1) 
1.71153975

$$$$
