
     RDKit          3D

 39 41  0  0  1  0  0  0  0  0999 V2000
   45.6450   33.7070   43.6110 C   0  0  0  0  0  0  0  0  0  0  0  0
   46.7620   32.8410   43.7520 C   0  0  0  0  0  0  0  0  0  0  0  0
   47.1920   32.5260   45.0440 C   0  0  0  0  0  0  0  0  0  0  0  0
   46.5540   33.0410   46.0990 N   0  0  0  0  0  0  0  0  0  0  0  0
   45.4990   33.8620   45.9730 C   0  0  0  0  0  0  0  0  0  0  0  0
   45.0660   34.1770   44.7480 N   0  0  0  0  0  0  0  0  0  0  0  0
   45.1030   34.1680   42.3750 C   0  0  0  0  0  0  0  0  0  0  0  0
   43.8300   33.4240   41.9710 C   0  0  0  0  0  0  0  0  0  0  0  0
   43.3160   34.3970   40.8730 C   0  0  0  0  0  0  0  0  0  0  0  0
   43.7810   35.7460   41.2920 C   0  0  0  0  0  0  0  0  0  0  0  0
   44.5230   35.5480   42.5900 C   0  0  0  0  0  0  0  0  0  0  0  0
   47.4150   32.3020   42.5320 C   0  0  1  0  0  0  0  0  0  0  0  0
   46.5910   31.2890   41.8580 C   0  0  0  0  0  0  0  0  0  0  0  0
   48.0410   33.4110   41.7900 C   0  0  0  0  0  0  0  0  0  0  0  0
   48.3090   33.2150   40.3910 N   0  0  0  0  0  0  0  0  0  0  0  0
   49.0990   32.3980   39.6610 C   0  0  0  0  0  0  0  0  0  0  0  0
   48.8740   32.7410   38.3310 C   0  0  0  0  0  0  0  0  0  0  0  0
   47.9880   33.7220   38.2570 N   0  0  0  0  0  0  0  0  0  0  0  0
   47.6310   34.0240   39.5200 C   0  0  0  0  0  0  0  0  0  0  0  0
   48.0523   31.8567   45.1917 H   0  0  0  0  0  0  0  0  0  0  0  0
   44.9987   34.2691   46.8640 H   0  0  0  0  0  0  0  0  0  0  0  0
   45.9211   34.0676   41.6465 H   0  0  0  0  0  0  0  0  0  0  0  0
   44.0475   32.4243   41.5669 H   0  0  0  0  0  0  0  0  0  0  0  0
   43.1233   33.2182   42.7885 H   0  0  0  0  0  0  0  0  0  0  0  0
   42.2178   34.3686   40.8170 H   0  0  0  0  0  0  0  0  0  0  0  0
   43.6936   34.1254   39.8762 H   0  0  0  0  0  0  0  0  0  0  0  0
   44.4507   36.1725   40.5307 H   0  0  0  0  0  0  0  0  0  0  0  0
   42.9379   36.4421   41.4131 H   0  0  0  0  0  0  0  0  0  0  0  0
   43.8420   35.5712   43.4536 H   0  0  0  0  0  0  0  0  0  0  0  0
   45.2678   36.3262   42.8129 H   0  0  0  0  0  0  0  0  0  0  0  0
   48.2827   31.6599   42.7438 H   0  0  0  0  0  0  0  0  0  0  0  0
   46.0852   30.6672   42.6114 H   0  0  0  0  0  0  0  0  0  0  0  0
   45.8387   31.7875   41.2290 H   0  0  0  0  0  0  0  0  0  0  0  0
   47.2322   30.6540   41.2290 H   0  0  0  0  0  0  0  0  0  0  0  0
   47.3745   34.2817   41.8775 H   0  0  0  0  0  0  0  0  0  0  0  0
   49.0342   33.5253   42.2488 H   0  0  0  0  0  0  0  0  0  0  0  0
   49.7799   31.6215   40.0397 H   0  0  0  0  0  0  0  0  0  0  0  0
   49.3615   32.2660   37.4669 H   0  0  0  0  0  0  0  0  0  0  0  0
   46.9067   34.8006   39.8070 H   0  0  0  0  0  0  0  0  0  0  0  0
  1  2  1  0
  1  6  2  0
  2  3  2  0
  3  4  1  0
  5  4  2  0
  6  5  1  0
  7 11  1  0
  7  1  1  0
  8  7  1  0
  9 10  1  0
  9  8  1  0
 10 11  1  0
 12  2  1  0
 13 12  1  0
 14 12  1  0
 15 14  1  0
 16 15  1  0
 17 16  2  0
 18 17  1  0
 18 19  2  0
 19 15  1  0
  3 20  1  0
  5 21  1  0
  7 22  1  0
  8 23  1  0
  8 24  1  0
  9 25  1  0
  9 26  1  0
 10 27  1  0
 10 28  1  0
 11 29  1  0
 11 30  1  0
 12 31  1  1
 13 32  1  0
 13 33  1  0
 13 34  1  0
 14 35  1  0
 14 36  1  0
 16 37  1  0
 17 38  1  0
 19 39  1  0
M  ISO  8  20  14  21  14  22  13  23  13  24  13  25  13  26  13  27  13
M  ISO  8  28  13  29  13  30  13  31   8  32   8  33   8  34   8  35   8
M  ISO  4  36   8  37  14  38  14  39  14
M  END
>  <minimizedAffinity>  (1) 
-3.97123456

>  <minimizedRMSD>  (1) 
0.464648992

$$$$
