
     RDKit          3D

 25 26  0  0  0  0  0  0  0  0999 V2000
   46.4390   34.3100   40.8720 C   0  0  0  0  0  0  0  0  0  0  0  0
   45.1120   33.9230   40.7410 C   0  0  0  0  0  0  0  0  0  0  0  0
   44.6280   33.2380   39.6480 C   0  0  0  0  0  0  0  0  0  0  0  0
   45.5820   32.9630   38.6800 C   0  0  0  0  0  0  0  0  0  0  0  0
   46.8970   33.3050   38.7290 C   0  0  0  0  0  0  0  0  0  0  0  0
   47.3270   33.9910   39.8490 C   0  0  0  0  0  0  0  0  0  0  0  0
   47.0070   35.0390   42.0060 C   0  0  0  0  0  0  0  0  0  0  0  0
   46.2130   34.9900   43.2410 C   0  0  0  0  0  0  0  0  0  0  0  0
   46.4390   33.9280   44.1250 C   0  0  0  0  0  0  0  0  0  0  0  0
   45.6790   33.8760   45.3130 C   0  0  0  0  0  0  0  0  0  0  0  0
   44.7660   34.8640   45.5310 N   0  0  0  0  0  0  0  0  0  0  0  0
   44.5820   35.8660   44.6520 C   0  0  0  0  0  0  0  0  0  0  0  0
   45.2950   35.9430   43.5050 N   0  0  0  0  0  0  0  0  0  0  0  0
   48.7140   34.3650   39.9260 N   0  0  0  0  0  0  0  0  0  0  0  0
   44.4118   34.1761   41.5507 H   0  0  0  0  0  0  0  0  0  0  0  0
   43.5749   32.9352   39.5515 H   0  0  0  0  0  0  0  0  0  0  0  0
   45.2427   32.4163   37.7878 H   0  0  0  0  0  0  0  0  0  0  0  0
   47.5882   33.0470   37.9131 H   0  0  0  0  0  0  0  0  0  0  0  0
   47.9985   34.6143   42.2216 H   0  0  0  0  0  0  0  0  0  0  0  0
   47.0386   36.0965   41.7047 H   0  0  0  0  0  0  0  0  0  0  0  0
   47.1886   33.1551   43.8996 H   0  0  0  0  0  0  0  0  0  0  0  0
   45.8192   33.0630   46.0406 H   0  0  0  0  0  0  0  0  0  0  0  0
   43.8334   36.6415   44.8715 H   0  0  0  0  0  0  0  0  0  0  0  0
   49.0645   34.8770   40.7482 H   0  0  0  0  0  0  0  0  0  0  0  0
   49.3566   34.1208   39.1590 H   0  0  0  0  0  0  0  0  0  0  0  0
  1  7  1  0
  2  1  2  0
  3  2  1  0
  4  5  1  0
  4  3  2  0
  5  6  2  0
  6 14  1  0
  6  1  1  0
  7  8  1  0
  8 13  1  0
  8  9  2  0
  9 10  1  0
 10 11  2  0
 12 11  1  0
 13 12  2  0
  2 15  1  0
  3 16  1  0
  4 17  1  0
  5 18  1  0
  7 19  1  0
  7 20  1  0
  9 21  1  0
 10 22  1  0
 12 23  1  0
 14 24  1  0
 14 25  1  0
M  ISO  8  15  14  16  14  17  14  18  14  19   8  20   8  21  14  22  14
M  ISO  1  23  14
M  END
>  <minimizedAffinity>  (1) 
-4.46671677

>  <minimizedRMSD>  (1) 
0.974990845

$$$$
