
     RDKit          3D

 33 34  0  0  1  0  0  0  0  0999 V2000
   45.6710   33.8190   43.6400 C   0  0  0  0  0  0  0  0  0  0  0  0
   46.8120   32.9910   43.8150 C   0  0  0  0  0  0  0  0  0  0  0  0
   47.2050   32.6750   45.1160 C   0  0  0  0  0  0  0  0  0  0  0  0
   46.4990   33.1590   46.1490 N   0  0  0  0  0  0  0  0  0  0  0  0
   45.4290   33.9370   45.9980 C   0  0  0  0  0  0  0  0  0  0  0  0
   45.0290   34.2550   44.7570 N   0  0  0  0  0  0  0  0  0  0  0  0
   45.1560   34.2620   42.3830 C   0  0  0  0  0  0  0  0  0  0  0  0
   43.9210   33.4240   41.9520 C   0  0  0  0  0  0  0  0  0  0  0  0
   43.3930   34.3440   40.8200 C   0  0  0  0  0  0  0  0  0  0  0  0
   43.7340   35.7280   41.2580 C   0  0  0  0  0  0  0  0  0  0  0  0
   44.4980   35.6100   42.5550 C   0  0  0  0  0  0  0  0  0  0  0  0
   47.5330   32.4960   42.6200 C   0  0  1  0  0  0  0  0  0  0  0  0
   46.8250   31.4030   41.9270 C   0  0  0  0  0  0  0  0  0  0  0  0
   48.0170   33.6470   41.8210 C   0  0  0  0  0  0  0  0  0  0  0  0
   48.6940   33.2970   40.6320 O   0  0  0  0  0  0  0  0  0  0  0  0
   48.0832   32.0366   45.2925 H   0  0  0  0  0  0  0  0  0  0  0  0
   44.8822   34.3127   46.8754 H   0  0  0  0  0  0  0  0  0  0  0  0
   46.0048   34.2198   41.6846 H   0  0  0  0  0  0  0  0  0  0  0  0
   44.2064   32.4299   41.5773 H   0  0  0  0  0  0  0  0  0  0  0  0
   43.2012   33.1934   42.7512 H   0  0  0  0  0  0  0  0  0  0  0  0
   42.3047   34.2315   40.7061 H   0  0  0  0  0  0  0  0  0  0  0  0
   43.8385   34.0973   39.8450 H   0  0  0  0  0  0  0  0  0  0  0  0
   44.3567   36.2214   40.4973 H   0  0  0  0  0  0  0  0  0  0  0  0
   42.8235   36.3300   41.3944 H   0  0  0  0  0  0  0  0  0  0  0  0
   43.8230   35.6217   43.4235 H   0  0  0  0  0  0  0  0  0  0  0  0
   45.2001   36.4356   42.7433 H   0  0  0  0  0  0  0  0  0  0  0  0
   48.4520   31.9653   42.9096 H   0  0  0  0  0  0  0  0  0  0  0  0
   46.3842   30.7224   42.6703 H   0  0  0  0  0  0  0  0  0  0  0  0
   46.0276   31.8241   41.2970 H   0  0  0  0  0  0  0  0  0  0  0  0
   47.5353   30.8475   41.2970 H   0  0  0  0  0  0  0  0  0  0  0  0
   47.1487   34.2662   41.5513 H   0  0  0  0  0  0  0  0  0  0  0  0
   48.7476   34.1766   42.4501 H   0  0  0  0  0  0  0  0  0  0  0  0
   49.5502   32.8543   40.8579 H   0  0  0  0  0  0  0  0  0  0  0  0
  1  2  2  0
  1  6  1  0
  2  3  1  0
  3  4  2  0
  5  4  1  0
  6  5  2  0
  7 11  1  0
  7  1  1  0
  8  7  1  0
  9 10  1  0
  9  8  1  0
 10 11  1  0
 12  2  1  0
 13 12  1  0
 14 12  1  0
 15 14  1  0
  3 16  1  0
  5 17  1  0
  7 18  1  0
  8 19  1  0
  8 20  1  0
  9 21  1  0
  9 22  1  0
 10 23  1  0
 10 24  1  0
 11 25  1  0
 11 26  1  0
 12 27  1  1
 13 28  1  0
 13 29  1  0
 13 30  1  0
 14 31  1  0
 14 32  1  0
 15 33  1  0
M  ISO  8  16  14  17  14  18  13  19  13  20  13  21  13  22  13  23  13
M  ISO  8  24  13  25  13  26  13  27   8  28   8  29   8  30   8  31   8
M  ISO  2  32   8  33   3
M  END
>  <minimizedAffinity>  (1) 
-3.43029809

>  <minimizedRMSD>  (1) 
0.057454627

$$$$
