
     RDKit          3D

 38 41  0  0  0  0  0  0  0  0999 V2000
   46.1600   34.9360   43.1960 C   0  0  0  0  0  0  0  0  0  0  0  0
   45.1330   35.9040   43.2270 C   0  0  0  0  0  0  0  0  0  0  0  0
   44.3690   36.0010   44.3920 C   0  0  0  0  0  0  0  0  0  0  0  0
   44.6240   35.1900   45.4280 N   0  0  0  0  0  0  0  0  0  0  0  0
   45.6300   34.2710   45.3480 C   0  0  0  0  0  0  0  0  0  0  0  0
   46.3810   34.1520   44.2470 N   0  0  0  0  0  0  0  0  0  0  0  0
   46.9750   34.8290   41.9620 C   0  0  0  0  0  0  0  0  0  0  0  0
   47.4210   33.4750   41.6430 C   0  0  0  0  0  0  0  0  0  0  0  0
   46.6230   32.4870   41.1710 C   0  0  0  0  0  0  0  0  0  0  0  0
   47.0760   31.2050   40.8770 C   0  0  0  0  0  0  0  0  0  0  0  0
   48.4260   31.0160   41.1080 C   0  0  0  0  0  0  0  0  0  0  0  0
   49.2930   31.9540   41.5810 C   0  0  0  0  0  0  0  0  0  0  0  0
   48.7600   33.1790   41.8400 C   0  0  0  0  0  0  0  0  0  0  0  0
   49.8920   34.4660   42.4750 S   0  0  0  0  0  0  0  0  0  0  0  0
   45.9350   33.3710   46.4620 C   0  0  0  0  0  0  0  0  0  0  0  0
   45.0690   33.0040   47.3160 O   0  0  0  0  0  0  0  0  0  0  0  0
   47.1930   32.8330   46.6960 O   0  0  0  0  0  0  0  0  0  0  0  0
   48.9120   29.4300   49.3510 N   0  0  0  0  0  0  0  0  0  0  0  0
   49.2270   30.6750   49.7780 C   0  0  0  0  0  0  0  0  0  0  0  0
   48.6920   31.5960   48.9570 N   0  0  0  0  0  0  0  0  0  0  0  0
   48.0300   30.9600   47.9960 C   0  0  0  0  0  0  0  0  0  0  0  0
   47.3100   31.4480   46.9140 C   0  0  0  0  0  0  0  0  0  0  0  0
   46.7350   30.5390   46.0900 N   0  0  0  0  0  0  0  0  0  0  0  0
   46.8590   29.2090   46.3160 C   0  0  0  0  0  0  0  0  0  0  0  0
   47.5690   28.7540   47.3820 N   0  0  0  0  0  0  0  0  0  0  0  0
   48.1610   29.6100   48.2340 C   0  0  0  0  0  0  0  0  0  0  0  0
   44.9413   36.5587   42.3641 H   0  0  0  0  0  0  0  0  0  0  0  0
   43.5589   36.7421   44.4592 H   0  0  0  0  0  0  0  0  0  0  0  0
   46.3722   35.1990   41.1196 H   0  0  0  0  0  0  0  0  0  0  0  0
   47.8839   35.4236   42.1363 H   0  0  0  0  0  0  0  0  0  0  0  0
   45.5579   32.7110   41.0114 H   0  0  0  0  0  0  0  0  0  0  0  0
   46.4178   30.4111   40.4942 H   0  0  0  0  0  0  0  0  0  0  0  0
   48.8366   30.0190   40.8903 H   0  0  0  0  0  0  0  0  0  0  0  0
   50.3586   31.7348   41.7436 H   0  0  0  0  0  0  0  0  0  0  0  0
   49.8785   34.4506   43.8448 H   0  0  0  0  0  0  0  0  0  0  0  0
   49.1843   28.5351   49.7821 H   0  0  0  0  0  0  0  0  0  0  0  0
   49.8329   30.9009   50.6678 H   0  0  0  0  0  0  0  0  0  0  0  0
   46.3816   28.4921   45.6318 H   0  0  0  0  0  0  0  0  0  0  0  0
  1  2  2  0
  1  6  1  0
  2  3  1  0
  3  4  2  0
  5  4  1  0
  5 15  1  0
  6  5  2  0
  7  1  1  0
  8 13  1  0
  8  7  1  0
  9  8  2  0
 10 11  2  0
 10  9  1  0
 11 12  1  0
 12 13  2  0
 13 14  1  0
 15 17  1  0
 15 16  2  0
 17 22  1  0
 18 19  1  0
 20 19  2  0
 21 26  2  0
 21 20  1  0
 22 21  1  0
 23 24  1  0
 23 22  2  0
 24 25  2  0
 25 26  1  0
 26 18  1  0
  2 27  1  0
  3 28  1  0
  7 29  1  0
  7 30  1  0
  9 31  1  0
 10 32  1  0
 11 33  1  0
 12 34  1  0
 14 35  1  0
 18 36  1  0
 19 37  1  0
 24 38  1  0
M  ISO  8  27  14  28  14  29   8  30   8  31  14  32  14  33  14  34  14
M  ISO  4  35  11  36   9  37  14  38  14
M  END
>  <minimizedAffinity>  (1) 
-5.81321239

>  <minimizedRMSD>  (1) 
1.6228925

$$$$
