
     RDKit          3D

 34 36  0  0  0  0  0  0  0  0999 V2000
   46.8000   34.9980   42.8430 C   0  0  0  0  0  0  0  0  0  0  0  0
   45.6670   35.8400   42.9110 C   0  0  0  0  0  0  0  0  0  0  0  0
   44.7400   35.5920   43.9240 C   0  0  0  0  0  0  0  0  0  0  0  0
   44.9430   34.5830   44.7920 N   0  0  0  0  0  0  0  0  0  0  0  0
   46.0560   33.7950   44.6840 C   0  0  0  0  0  0  0  0  0  0  0  0
   46.9650   34.0100   43.7180 N   0  0  0  0  0  0  0  0  0  0  0  0
   47.7910   35.2550   41.7670 C   0  0  0  0  0  0  0  0  0  0  0  0
   47.9670   34.1490   40.8280 C   0  0  0  0  0  0  0  0  0  0  0  0
   47.1130   33.8430   39.8290 C   0  0  0  0  0  0  0  0  0  0  0  0
   47.3150   32.7750   38.9500 C   0  0  0  0  0  0  0  0  0  0  0  0
   48.4710   32.0500   39.1850 C   0  0  0  0  0  0  0  0  0  0  0  0
   49.3810   32.3020   40.1770 C   0  0  0  0  0  0  0  0  0  0  0  0
   49.0980   33.3600   40.9810 C   0  0  0  0  0  0  0  0  0  0  0  0
   50.2890   33.7280   42.3160 S   0  0  0  0  0  0  0  0  0  0  0  0
   46.3070   32.6970   45.6010 C   0  0  0  0  0  0  0  0  0  0  0  0
   46.0280   31.4870   45.3310 O   0  0  0  0  0  0  0  0  0  0  0  0
   46.8740   32.8540   46.8590 O   0  0  0  0  0  0  0  0  0  0  0  0
   46.3480   32.1320   47.9480 C   0  0  0  0  0  0  0  0  0  0  0  0
   45.0660   32.0590   48.4740 C   0  0  0  0  0  0  0  0  0  0  0  0
   45.1080   31.1890   49.5570 C   0  0  0  0  0  0  0  0  0  0  0  0
   46.3830   30.7640   49.6610 N   0  0  0  0  0  0  0  0  0  0  0  0
   47.1250   31.3190   48.7080 N   0  0  0  0  0  0  0  0  0  0  0  0
   45.5214   36.6600   42.1924 H   0  0  0  0  0  0  0  0  0  0  0  0
   43.8424   36.2215   44.0135 H   0  0  0  0  0  0  0  0  0  0  0  0
   47.4611   36.1379   41.1999 H   0  0  0  0  0  0  0  0  0  0  0  0
   48.7615   35.4007   42.2640 H   0  0  0  0  0  0  0  0  0  0  0  0
   46.2143   34.4641   39.7001 H   0  0  0  0  0  0  0  0  0  0  0  0
   46.6135   32.5307   38.1387 H   0  0  0  0  0  0  0  0  0  0  0  0
   48.6759   31.1994   38.5183 H   0  0  0  0  0  0  0  0  0  0  0  0
   50.2829   31.6874   40.3140 H   0  0  0  0  0  0  0  0  0  0  0  0
   49.6848   33.5413   43.5313 H   0  0  0  0  0  0  0  0  0  0  0  0
   44.1788   32.5922   48.1019 H   0  0  0  0  0  0  0  0  0  0  0  0
   44.2651   30.9030   50.2033 H   0  0  0  0  0  0  0  0  0  0  0  0
   46.7308   30.1065   50.3735 H   0  0  0  0  0  0  0  0  0  0  0  0
  1  2  2  0
  1  6  1  0
  2  3  1  0
  3  4  2  0
  5  4  1  0
  5 15  1  0
  6  5  2  0
  7  1  1  0
  8 13  1  0
  8  7  1  0
  9  8  2  0
 10 11  2  0
 10  9  1  0
 11 12  1  0
 12 13  2  0
 13 14  1  0
 15 17  1  0
 16 15  2  0
 17 18  1  0
 18 19  1  0
 18 22  2  0
 19 20  2  0
 20 21  1  0
 22 21  1  0
  2 23  1  0
  3 24  1  0
  7 25  1  0
  7 26  1  0
  9 27  1  0
 10 28  1  0
 11 29  1  0
 12 30  1  0
 14 31  1  0
 19 32  1  0
 20 33  1  0
 21 34  1  0
M  ISO  8  23  14  24  14  25   8  26   8  27  14  28  14  29  14  30  14
M  ISO  4  31  11  32  14  33  14  34   9
M  END
>  <minimizedAffinity>  (1) 
-5.83501387

>  <minimizedRMSD>  (1) 
1.10634828

$$$$
