
     RDKit          3D

 42 44  0  0  0  0  0  0  0  0999 V2000
   46.7660   35.0930   42.8440 C   0  0  0  0  0  0  0  0  0  0  0  0
   45.7380   36.0600   42.7710 C   0  0  0  0  0  0  0  0  0  0  0  0
   44.6990   35.9530   43.6950 C   0  0  0  0  0  0  0  0  0  0  0  0
   44.6950   34.9650   44.6030 N   0  0  0  0  0  0  0  0  0  0  0  0
   45.7160   34.0560   44.6270 C   0  0  0  0  0  0  0  0  0  0  0  0
   46.7280   34.1260   43.7600 N   0  0  0  0  0  0  0  0  0  0  0  0
   47.8730   35.1960   41.8690 C   0  0  0  0  0  0  0  0  0  0  0  0
   47.9560   34.1000   40.9170 C   0  0  0  0  0  0  0  0  0  0  0  0
   47.0430   33.8640   39.9290 C   0  0  0  0  0  0  0  0  0  0  0  0
   47.1340   32.8140   39.0260 C   0  0  0  0  0  0  0  0  0  0  0  0
   48.2400   32.0080   39.2040 C   0  0  0  0  0  0  0  0  0  0  0  0
   49.1960   32.1750   40.1630 C   0  0  0  0  0  0  0  0  0  0  0  0
   49.0300   33.2330   41.0100 C   0  0  0  0  0  0  0  0  0  0  0  0
   50.2860   33.4910   42.3030 S   0  0  0  0  0  0  0  0  0  0  0  0
   45.7430   32.9640   45.6070 C   0  0  0  0  0  0  0  0  0  0  0  0
   46.1580   31.7960   45.3310 O   0  0  0  0  0  0  0  0  0  0  0  0
   45.3170   33.1250   46.9160 O   0  0  0  0  0  0  0  0  0  0  0  0
   47.2360   30.6680   49.5320 N   0  0  0  0  0  0  0  0  0  0  0  0
   48.1130   31.5350   48.7740 C   0  0  0  0  0  0  0  0  0  0  0  0
   47.4180   32.4730   47.8520 C   0  0  0  0  0  0  0  0  0  0  0  0
   45.9470   32.6240   48.0620 C   0  0  0  0  0  0  0  0  0  0  0  0
   45.2500   31.3530   48.4400 C   0  0  0  0  0  0  0  0  0  0  0  0
   46.2050   30.1960   48.6270 C   0  0  0  0  0  0  0  0  0  0  0  0
   45.7566   36.8619   42.0183 H   0  0  0  0  0  0  0  0  0  0  0  0
   43.8769   36.6837   43.6794 H   0  0  0  0  0  0  0  0  0  0  0  0
   47.7440   36.1306   41.3034 H   0  0  0  0  0  0  0  0  0  0  0  0
   48.8033   35.1658   42.4551 H   0  0  0  0  0  0  0  0  0  0  0  0
   46.1846   34.5466   39.8439 H   0  0  0  0  0  0  0  0  0  0  0  0
   46.3886   32.6392   38.2362 H   0  0  0  0  0  0  0  0  0  0  0  0
   48.3610   31.1594   38.5146 H   0  0  0  0  0  0  0  0  0  0  0  0
   50.0550   31.4934   40.2493 H   0  0  0  0  0  0  0  0  0  0  0  0
   49.7026   33.3712   43.5368 H   0  0  0  0  0  0  0  0  0  0  0  0
   47.7680   29.8696   49.9068 H   0  0  0  0  0  0  0  0  0  0  0  0
   48.7047   32.1299   49.4854 H   0  0  0  0  0  0  0  0  0  0  0  0
   48.7277   30.8776   48.1416 H   0  0  0  0  0  0  0  0  0  0  0  0
   47.5767   32.1148   46.8241 H   0  0  0  0  0  0  0  0  0  0  0  0
   47.8508   33.4640   48.0537 H   0  0  0  0  0  0  0  0  0  0  0  0
   45.8640   33.3283   48.9029 H   0  0  0  0  0  0  0  0  0  0  0  0
   44.7069   31.5166   49.3825 H   0  0  0  0  0  0  0  0  0  0  0  0
   44.5685   31.0910   47.6173 H   0  0  0  0  0  0  0  0  0  0  0  0
   45.6794   29.3338   49.0633 H   0  0  0  0  0  0  0  0  0  0  0  0
   46.6316   29.8678   47.6677 H   0  0  0  0  0  0  0  0  0  0  0  0
  1  6  1  0
  2  1  2  0
  2  3  1  0
  3  4  2  0
  4  5  1  0
  5 15  1  0
  6  5  2  0
  7  1  1  0
  8 13  1  0
  8  7  1  0
  9  8  2  0
 10 11  2  0
 10  9  1  0
 11 12  1  0
 12 13  2  0
 13 14  1  0
 15 17  1  0
 16 15  2  0
 17 21  1  0
 19 18  1  0
 20 21  1  0
 20 19  1  0
 21 22  1  0
 22 23  1  0
 23 18  1  0
  2 24  1  0
  3 25  1  0
  7 26  1  0
  7 27  1  0
  9 28  1  0
 10 29  1  0
 11 30  1  0
 12 31  1  0
 14 32  1  0
 18 33  1  0
 19 34  1  0
 19 35  1  0
 20 36  1  0
 20 37  1  0
 21 38  1  0
 22 39  1  0
 22 40  1  0
 23 41  1  0
 23 42  1  0
M  ISO  8  24  14  25  14  26   8  27   8  28  14  29  14  30  14  31  14
M  ISO  8  32  11  33   5  34  13  35  13  36  13  37  13  38  13  39  13
M  ISO  3  40  13  41  13  42  13
M  END
>  <minimizedAffinity>  (1) 
-5.78237677

>  <minimizedRMSD>  (1) 
0.990069032

$$$$
