
     RDKit          3D

 39 41  0  0  1  0  0  0  0  0999 V2000
   46.7770   35.0620   42.7920 C   0  0  0  0  0  0  0  0  0  0  0  0
   45.6640   35.9280   42.8370 C   0  0  0  0  0  0  0  0  0  0  0  0
   44.7180   35.7080   43.8360 C   0  0  0  0  0  0  0  0  0  0  0  0
   44.8850   34.6960   44.7140 N   0  0  0  0  0  0  0  0  0  0  0  0
   45.9820   33.8860   44.6260 C   0  0  0  0  0  0  0  0  0  0  0  0
   46.9070   34.0760   43.6740 N   0  0  0  0  0  0  0  0  0  0  0  0
   47.7920   35.2870   41.7300 C   0  0  0  0  0  0  0  0  0  0  0  0
   47.9660   34.1710   40.8070 C   0  0  0  0  0  0  0  0  0  0  0  0
   47.1250   33.8590   39.8010 C   0  0  0  0  0  0  0  0  0  0  0  0
   47.3230   32.7800   38.9310 C   0  0  0  0  0  0  0  0  0  0  0  0
   48.4720   32.0430   39.1890 C   0  0  0  0  0  0  0  0  0  0  0  0
   49.3570   32.3050   40.1820 C   0  0  0  0  0  0  0  0  0  0  0  0
   49.0900   33.3750   40.9850 C   0  0  0  0  0  0  0  0  0  0  0  0
   50.2710   33.7430   42.3280 S   0  0  0  0  0  0  0  0  0  0  0  0
   46.1920   32.7870   45.5560 C   0  0  0  0  0  0  0  0  0  0  0  0
   45.8460   31.5910   45.3010 O   0  0  0  0  0  0  0  0  0  0  0  0
   46.7840   32.9350   46.8010 O   0  0  0  0  0  0  0  0  0  0  0  0
   44.8060   32.1820   47.8900 N   0  0  0  0  0  0  0  0  0  0  0  0
   44.5120   31.3840   49.0610 C   0  0  0  0  0  0  0  0  0  0  0  0
   45.8110   30.8050   49.5600 C   0  0  0  0  0  0  0  0  0  0  0  0
   46.7780   31.1210   48.4120 C   0  0  0  0  0  0  0  0  0  0  0  0
   46.1970   32.4780   47.9920 C   0  0  1  0  0  0  0  0  0  0  0  0
   45.5475   36.7460   42.1108 H   0  0  0  0  0  0  0  0  0  0  0  0
   43.8345   36.3592   43.9094 H   0  0  0  0  0  0  0  0  0  0  0  0
   47.4886   36.1694   41.1474 H   0  0  0  0  0  0  0  0  0  0  0  0
   48.7556   35.4182   42.2440 H   0  0  0  0  0  0  0  0  0  0  0  0
   46.2336   34.4869   39.6554 H   0  0  0  0  0  0  0  0  0  0  0  0
   46.6284   32.5368   38.1134 H   0  0  0  0  0  0  0  0  0  0  0  0
   48.6796   31.1811   38.5379 H   0  0  0  0  0  0  0  0  0  0  0  0
   50.2510   31.6822   40.3335 H   0  0  0  0  0  0  0  0  0  0  0  0
   49.6593   33.5524   43.5390 H   0  0  0  0  0  0  0  0  0  0  0  0
   44.2493   33.0486   47.8922 H   0  0  0  0  0  0  0  0  0  0  0  0
   44.0594   32.0149   49.8402 H   0  0  0  0  0  0  0  0  0  0  0  0
   43.8033   30.5807   48.8113 H   0  0  0  0  0  0  0  0  0  0  0  0
   46.1302   31.2910   50.4938 H   0  0  0  0  0  0  0  0  0  0  0  0
   45.7500   29.7331   49.7995 H   0  0  0  0  0  0  0  0  0  0  0  0
   47.8188   31.2050   48.7580 H   0  0  0  0  0  0  0  0  0  0  0  0
   46.8412   30.3622   47.6182 H   0  0  0  0  0  0  0  0  0  0  0  0
   46.3904   33.3059   48.6899 H   0  0  0  0  0  0  0  0  0  0  0  0
  1  2  2  0
  1  6  1  0
  2  3  1  0
  3  4  2  0
  5  4  1  0
  5 15  1  0
  6  5  2  0
  7  1  1  0
  8 13  1  0
  8  7  1  0
  9  8  2  0
 10 11  2  0
 10  9  1  0
 11 12  1  0
 12 13  2  0
 13 14  1  0
 15 17  1  0
 16 15  2  0
 18 22  1  0
 18 19  1  0
 19 20  1  0
 21 20  1  0
 22 17  1  0
 22 21  1  0
  2 23  1  0
  3 24  1  0
  7 25  1  0
  7 26  1  0
  9 27  1  0
 10 28  1  0
 11 29  1  0
 12 30  1  0
 14 31  1  0
 18 32  1  0
 19 33  1  0
 19 34  1  0
 20 35  1  0
 20 36  1  0
 21 37  1  0
 21 38  1  0
 22 39  1  1
M  ISO  8  23  14  24  14  25   8  26   8  27  14  28  14  29  14  30  14
M  ISO  8  31  11  32   5  33  13  34  13  35  13  36  13  37  13  38  13
M  ISO  1  39  13
M  END
>  <minimizedAffinity>  (1) 
-5.46266413

>  <minimizedRMSD>  (1) 
1.34802377

$$$$
