
     RDKit          3D

 34 36  0  0  0  0  0  0  0  0999 V2000
   46.9110   35.0750   42.6760 C   0  0  0  0  0  0  0  0  0  0  0  0
   45.7880   35.9280   42.6310 C   0  0  0  0  0  0  0  0  0  0  0  0
   44.7770   35.7130   43.5740 C   0  0  0  0  0  0  0  0  0  0  0  0
   44.8960   34.7250   44.4750 N   0  0  0  0  0  0  0  0  0  0  0  0
   46.0020   33.9260   44.4780 C   0  0  0  0  0  0  0  0  0  0  0  0
   46.9940   34.1080   43.5830 N   0  0  0  0  0  0  0  0  0  0  0  0
   47.9870   35.2980   41.6790 C   0  0  0  0  0  0  0  0  0  0  0  0
   48.1680   34.2060   40.7240 C   0  0  0  0  0  0  0  0  0  0  0  0
   47.3750   33.9730   39.6600 C   0  0  0  0  0  0  0  0  0  0  0  0
   47.5700   32.9230   38.7640 C   0  0  0  0  0  0  0  0  0  0  0  0
   48.6610   32.1170   39.0540 C   0  0  0  0  0  0  0  0  0  0  0  0
   49.4950   32.3000   40.1070 C   0  0  0  0  0  0  0  0  0  0  0  0
   49.2380   33.3470   40.9350 C   0  0  0  0  0  0  0  0  0  0  0  0
   50.3510   33.6070   42.3590 S   0  0  0  0  0  0  0  0  0  0  0  0
   46.1740   32.8380   45.4420 C   0  0  0  0  0  0  0  0  0  0  0  0
   45.8450   31.6510   45.2190 O   0  0  0  0  0  0  0  0  0  0  0  0
   46.7230   33.0180   46.7050 O   0  0  0  0  0  0  0  0  0  0  0  0
   46.3960   32.2090   47.7900 C   0  0  0  0  0  0  0  0  0  0  0  0
   45.2270   32.2780   48.5200 C   0  0  0  0  0  0  0  0  0  0  0  0
   45.3470   31.2860   49.4920 C   0  0  0  0  0  0  0  0  0  0  0  0
   46.5780   30.6730   49.2950 C   0  0  0  0  0  0  0  0  0  0  0  0
   47.1630   31.2410   48.2910 O   0  0  0  0  0  0  0  0  0  0  0  0
   45.7103   36.7311   41.8833 H   0  0  0  0  0  0  0  0  0  0  0  0
   43.8834   36.3544   43.5771 H   0  0  0  0  0  0  0  0  0  0  0  0
   47.7477   36.2113   41.1145 H   0  0  0  0  0  0  0  0  0  0  0  0
   48.9263   35.3749   42.2462 H   0  0  0  0  0  0  0  0  0  0  0  0
   46.5251   34.6500   39.4885 H   0  0  0  0  0  0  0  0  0  0  0  0
   46.9133   32.7482   37.8990 H   0  0  0  0  0  0  0  0  0  0  0  0
   48.8637   31.2698   38.3824 H   0  0  0  0  0  0  0  0  0  0  0  0
   50.3469   31.6271   40.2846 H   0  0  0  0  0  0  0  0  0  0  0  0
   49.6485   33.4429   43.5236 H   0  0  0  0  0  0  0  0  0  0  0  0
   44.3830   32.9668   48.3678 H   0  0  0  0  0  0  0  0  0  0  0  0
   44.6078   31.0362   50.2673 H   0  0  0  0  0  0  0  0  0  0  0  0
   46.9863   29.8443   49.8922 H   0  0  0  0  0  0  0  0  0  0  0  0
  1  6  1  0
  2  1  2  0
  2  3  1  0
  3  4  2  0
  4  5  1  0
  5 15  1  0
  6  5  2  0
  7  1  1  0
  8 13  1  0
  8  7  1  0
  9  8  2  0
 10 11  2  0
 10  9  1  0
 11 12  1  0
 12 13  2  0
 13 14  1  0
 15 17  1  0
 16 15  2  0
 17 18  1  0
 18 22  1  0
 18 19  2  0
 19 20  1  0
 21 20  2  0
 22 21  1  0
  2 23  1  0
  3 24  1  0
  7 25  1  0
  7 26  1  0
  9 27  1  0
 10 28  1  0
 11 29  1  0
 12 30  1  0
 14 31  1  0
 19 32  1  0
 20 33  1  0
 21 34  1  0
M  ISO  8  23  14  24  14  25   8  26   8  27  14  28  14  29  14  30  14
M  ISO  4  31  11  32  14  33  14  34  14
M  END
>  <minimizedAffinity>  (1) 
-5.38382483

>  <minimizedRMSD>  (1) 
1.12903821

$$$$
