
     RDKit          3D

 43 45  0  0  0  0  0  0  0  0999 V2000
   46.4250   35.1530   42.9620 C   0  0  0  0  0  0  0  0  0  0  0  0
   45.4970   36.1540   43.3170 C   0  0  0  0  0  0  0  0  0  0  0  0
   44.6630   35.8960   44.4070 C   0  0  0  0  0  0  0  0  0  0  0  0
   44.7630   34.7340   45.0710 N   0  0  0  0  0  0  0  0  0  0  0  0
   45.6730   33.8040   44.6860 C   0  0  0  0  0  0  0  0  0  0  0  0
   46.4930   34.0120   43.6460 N   0  0  0  0  0  0  0  0  0  0  0  0
   47.3160   35.4170   41.8070 C   0  0  0  0  0  0  0  0  0  0  0  0
   47.6050   34.2490   40.9770 C   0  0  0  0  0  0  0  0  0  0  0  0
   46.7660   33.7420   40.0490 C   0  0  0  0  0  0  0  0  0  0  0  0
   47.0630   32.6280   39.2700 C   0  0  0  0  0  0  0  0  0  0  0  0
   48.3060   32.0640   39.5180 C   0  0  0  0  0  0  0  0  0  0  0  0
   49.1950   32.5260   40.4360 C   0  0  0  0  0  0  0  0  0  0  0  0
   48.8240   33.6220   41.1580 C   0  0  0  0  0  0  0  0  0  0  0  0
   50.0010   34.2610   42.3960 S   0  0  0  0  0  0  0  0  0  0  0  0
   45.8080   32.5270   45.3870 C   0  0  0  0  0  0  0  0  0  0  0  0
   45.6490   31.4010   44.8300 O   0  0  0  0  0  0  0  0  0  0  0  0
   46.1240   32.4150   46.7360 O   0  0  0  0  0  0  0  0  0  0  0  0
   47.2530   31.7000   47.1980 C   0  0  0  0  0  0  0  0  0  0  0  0
   46.7900   30.3150   47.5960 C   0  0  0  0  0  0  0  0  0  0  0  0
   47.9210   29.3770   47.9020 C   0  0  0  0  0  0  0  0  0  0  0  0
   49.1260   30.1710   48.3250 C   0  0  0  0  0  0  0  0  0  0  0  0
   48.7230   31.3500   49.1730 C   0  0  0  0  0  0  0  0  0  0  0  0
   47.8700   32.3460   48.4190 C   0  0  0  0  0  0  0  0  0  0  0  0
   45.4328   37.0993   42.7581 H   0  0  0  0  0  0  0  0  0  0  0  0
   43.9229   36.6464   44.7219 H   0  0  0  0  0  0  0  0  0  0  0  0
   46.8378   36.1779   41.1726 H   0  0  0  0  0  0  0  0  0  0  0  0
   48.2785   35.7448   42.2266 H   0  0  0  0  0  0  0  0  0  0  0  0
   45.7947   34.2364   39.9005 H   0  0  0  0  0  0  0  0  0  0  0  0
   46.3679   32.2267   38.5178 H   0  0  0  0  0  0  0  0  0  0  0  0
   48.5923   31.1798   38.9296 H   0  0  0  0  0  0  0  0  0  0  0  0
   50.1690   32.0385   40.5897 H   0  0  0  0  0  0  0  0  0  0  0  0
   49.5252   34.0027   43.6545 H   0  0  0  0  0  0  0  0  0  0  0  0
   48.0051   31.6810   46.3955 H   0  0  0  0  0  0  0  0  0  0  0  0
   46.1566   30.4022   48.4911 H   0  0  0  0  0  0  0  0  0  0  0  0
   46.2412   29.8959   46.7397 H   0  0  0  0  0  0  0  0  0  0  0  0
   47.6250   28.6976   48.7149 H   0  0  0  0  0  0  0  0  0  0  0  0
   48.1642   28.7887   47.0049 H   0  0  0  0  0  0  0  0  0  0  0  0
   49.7986   29.5228   48.9059 H   0  0  0  0  0  0  0  0  0  0  0  0
   49.6350   30.5439   47.4240 H   0  0  0  0  0  0  0  0  0  0  0  0
   48.1527   30.9824   50.0388 H   0  0  0  0  0  0  0  0  0  0  0  0
   49.6432   31.8672   49.4824 H   0  0  0  0  0  0  0  0  0  0  0  0
   48.4969   33.1927   48.1025 H   0  0  0  0  0  0  0  0  0  0  0  0
   47.0643   32.6964   49.0808 H   0  0  0  0  0  0  0  0  0  0  0  0
  1  2  2  0
  1  6  1  0
  2  3  1  0
  3  4  2  0
  5  4  1  0
  5 15  1  0
  6  5  2  0
  7  1  1  0
  8 13  1  0
  8  7  1  0
  9  8  2  0
 10 11  2  0
 10  9  1  0
 11 12  1  0
 12 13  2  0
 13 14  1  0
 15 17  1  0
 16 15  2  0
 17 18  1  0
 18 19  1  0
 18 23  1  0
 19 20  1  0
 20 21  1  0
 21 22  1  0
 23 22  1  0
  2 24  1  0
  3 25  1  0
  7 26  1  0
  7 27  1  0
  9 28  1  0
 10 29  1  0
 11 30  1  0
 12 31  1  0
 14 32  1  0
 18 33  1  0
 19 34  1  0
 19 35  1  0
 20 36  1  0
 20 37  1  0
 21 38  1  0
 21 39  1  0
 22 40  1  0
 22 41  1  0
 23 42  1  0
 23 43  1  0
M  ISO  8  24  14  25  14  26   8  27   8  28  14  29  14  30  14  31  14
M  ISO  8  32  11  33  13  34  13  35  13  36  13  37  13  38  13  39  13
M  ISO  4  40  13  41  13  42  13  43  13
M  END
>  <minimizedAffinity>  (1) 
-5.20107889

>  <minimizedRMSD>  (1) 
1.02394247

$$$$
