
     RDKit          3D

 36 37  0  0  0  0  0  0  0  0999 V2000
   46.8200   35.1630   42.0440 C   0  0  0  0  0  0  0  0  0  0  0  0
   47.3300   33.9810   41.3550 C   0  0  0  0  0  0  0  0  0  0  0  0
   46.5760   33.1160   40.6440 C   0  0  0  0  0  0  0  0  0  0  0  0
   47.0980   31.9940   39.9960 C   0  0  0  0  0  0  0  0  0  0  0  0
   48.4670   31.8400   40.1440 C   0  0  0  0  0  0  0  0  0  0  0  0
   49.2820   32.6680   40.8430 C   0  0  0  0  0  0  0  0  0  0  0  0
   48.6940   33.7370   41.4440 C   0  0  0  0  0  0  0  0  0  0  0  0
   49.7630   34.8740   42.3920 S   0  0  0  0  0  0  0  0  0  0  0  0
   46.1970   34.8920   43.3600 C   0  0  0  0  0  0  0  0  0  0  0  0
   45.1310   35.7240   43.7730 C   0  0  0  0  0  0  0  0  0  0  0  0
   44.5510   35.4570   45.0170 C   0  0  0  0  0  0  0  0  0  0  0  0
   45.0100   34.4440   45.7710 N   0  0  0  0  0  0  0  0  0  0  0  0
   46.0450   33.6690   45.3270 C   0  0  0  0  0  0  0  0  0  0  0  0
   46.6230   33.9000   44.1350 N   0  0  0  0  0  0  0  0  0  0  0  0
   46.5710   32.5590   46.1170 C   0  0  0  0  0  0  0  0  0  0  0  0
   46.6190   31.3710   45.7050 O   0  0  0  0  0  0  0  0  0  0  0  0
   47.0690   32.7190   47.4050 O   0  0  0  0  0  0  0  0  0  0  0  0
   46.5100   32.1650   48.5550 C   0  0  0  0  0  0  0  0  0  0  0  0
   45.0550   31.8550   48.2700 C   0  0  0  0  0  0  0  0  0  0  0  0
   47.1940   30.9060   49.0120 C   0  0  0  0  0  0  0  0  0  0  0  0
   46.0654   35.6367   41.3988 H   0  0  0  0  0  0  0  0  0  0  0  0
   47.6894   35.8080   42.2390 H   0  0  0  0  0  0  0  0  0  0  0  0
   45.4947   33.3044   40.5711 H   0  0  0  0  0  0  0  0  0  0  0  0
   46.4764   31.2938   39.4186 H   0  0  0  0  0  0  0  0  0  0  0  0
   48.9320   30.9725   39.6528 H   0  0  0  0  0  0  0  0  0  0  0  0
   50.3638   32.4845   40.9201 H   0  0  0  0  0  0  0  0  0  0  0  0
   49.5710   34.6698   43.7330 H   0  0  0  0  0  0  0  0  0  0  0  0
   44.7719   36.5491   43.1404 H   0  0  0  0  0  0  0  0  0  0  0  0
   43.7177   36.0772   45.3789 H   0  0  0  0  0  0  0  0  0  0  0  0
   46.6294   32.9001   49.3646 H   0  0  0  0  0  0  0  0  0  0  0  0
   44.5119   31.7393   49.2196 H   0  0  0  0  0  0  0  0  0  0  0  0
   44.6111   32.6787   47.6917 H   0  0  0  0  0  0  0  0  0  0  0  0
   44.9854   30.9219   47.6917 H   0  0  0  0  0  0  0  0  0  0  0  0
   47.2103   30.8760   50.1115 H   0  0  0  0  0  0  0  0  0  0  0  0
   46.6468   30.0318   48.6294 H   0  0  0  0  0  0  0  0  0  0  0  0
   48.2252   30.8893   48.6294 H   0  0  0  0  0  0  0  0  0  0  0  0
  1  9  1  0
  2  7  1  0
  2  1  1  0
  3  2  2  0
  4  5  2  0
  4  3  1  0
  5  6  1  0
  6  7  2  0
  7  8  1  0
  9 10  2  0
  9 14  1  0
 10 11  1  0
 11 12  2  0
 13 12  1  0
 13 15  1  0
 14 13  2  0
 15 17  1  0
 16 15  2  0
 17 18  1  0
 18 20  1  0
 19 18  1  0
  1 21  1  0
  1 22  1  0
  3 23  1  0
  4 24  1  0
  5 25  1  0
  6 26  1  0
  8 27  1  0
 10 28  1  0
 11 29  1  0
 18 30  1  0
 19 31  1  0
 19 32  1  0
 19 33  1  0
 20 34  1  0
 20 35  1  0
 20 36  1  0
M  ISO  8  21   8  22   8  23  14  24  14  25  14  26  14  27  11  28  14
M  ISO  8  29  14  30   8  31   8  32   8  33   8  34   8  35   8  36   8
M  END
>  <minimizedAffinity>  (1) 
-5.15025043

>  <minimizedRMSD>  (1) 
0.908842504

$$$$
