
     RDKit          3D

 30 31  0  0  0  0  0  0  0  0999 V2000
   47.8980   35.0820   41.9570 C   0  0  0  0  0  0  0  0  0  0  0  0
   47.9740   34.0760   40.9010 C   0  0  0  0  0  0  0  0  0  0  0  0
   47.0630   33.8990   39.9220 C   0  0  0  0  0  0  0  0  0  0  0  0
   47.1680   32.9290   38.9290 C   0  0  0  0  0  0  0  0  0  0  0  0
   48.2960   32.1390   39.0150 C   0  0  0  0  0  0  0  0  0  0  0  0
   49.2560   32.2630   39.9790 C   0  0  0  0  0  0  0  0  0  0  0  0
   49.0800   33.2360   40.9110 C   0  0  0  0  0  0  0  0  0  0  0  0
   50.3560   33.4160   42.2060 S   0  0  0  0  0  0  0  0  0  0  0  0
   46.9600   34.7480   43.0610 C   0  0  0  0  0  0  0  0  0  0  0  0
   45.7390   35.4500   43.1320 C   0  0  0  0  0  0  0  0  0  0  0  0
   44.8690   35.1270   44.1710 C   0  0  0  0  0  0  0  0  0  0  0  0
   45.2060   34.1770   45.0590 N   0  0  0  0  0  0  0  0  0  0  0  0
   46.3960   33.5270   44.9470 C   0  0  0  0  0  0  0  0  0  0  0  0
   47.2520   33.8150   43.9620 N   0  0  0  0  0  0  0  0  0  0  0  0
   46.7950   32.4870   45.8960 C   0  0  0  0  0  0  0  0  0  0  0  0
   47.1440   31.3190   45.5410 O   0  0  0  0  0  0  0  0  0  0  0  0
   46.8270   32.6820   47.2710 O   0  0  0  0  0  0  0  0  0  0  0  0
   46.0690   31.9480   48.2020 C   0  0  0  0  0  0  0  0  0  0  0  0
   44.8930   31.4680   47.6570 F   0  0  0  0  0  0  0  0  0  0  0  0
   45.8040   32.8050   49.2670 F   0  0  0  0  0  0  0  0  0  0  0  0
   46.7650   30.8480   48.6720 F   0  0  0  0  0  0  0  0  0  0  0  0
   47.5726   36.0306   41.5050 H   0  0  0  0  0  0  0  0  0  0  0  0
   48.9006   35.1406   42.4056 H   0  0  0  0  0  0  0  0  0  0  0  0
   46.1845   34.5608   39.9074 H   0  0  0  0  0  0  0  0  0  0  0  0
   46.4126   32.8025   38.1395 H   0  0  0  0  0  0  0  0  0  0  0  0
   48.4316   31.3554   38.2550 H   0  0  0  0  0  0  0  0  0  0  0  0
   50.1353   31.6024   39.9999 H   0  0  0  0  0  0  0  0  0  0  0  0
   49.7683   33.3331   43.4408 H   0  0  0  0  0  0  0  0  0  0  0  0
   45.4829   36.2244   42.3939 H   0  0  0  0  0  0  0  0  0  0  0  0
   43.9058   35.6500   44.2643 H   0  0  0  0  0  0  0  0  0  0  0  0
  1  9  1  0
  2  7  1  0
  2  1  1  0
  3  2  2  0
  4  5  2  0
  4  3  1  0
  5  6  1  0
  6  7  2  0
  7  8  1  0
  9 10  2  0
  9 14  1  0
 10 11  1  0
 11 12  2  0
 13 12  1  0
 13 15  1  0
 14 13  2  0
 15 17  1  0
 16 15  2  0
 17 18  1  0
 18 21  1  0
 18 20  1  0
 19 18  1  0
  1 22  1  0
  1 23  1  0
  3 24  1  0
  4 25  1  0
  5 26  1  0
  6 27  1  0
  8 28  1  0
 10 29  1  0
 11 30  1  0
M  ISO  8  22   8  23   8  24  14  25  14  26  14  27  14  28  11  29  14
M  ISO  1  30  14
M  END
>  <minimizedAffinity>  (1) 
-5.19570255

>  <minimizedRMSD>  (1) 
1.08017814

$$$$
