
     RDKit          3D

 37 39  0  0  0  0  0  0  0  0999 V2000
   46.8180   35.0100   42.9150 C   0  0  0  0  0  0  0  0  0  0  0  0
   45.7830   35.9670   43.0100 C   0  0  0  0  0  0  0  0  0  0  0  0
   44.7960   35.7560   43.9780 C   0  0  0  0  0  0  0  0  0  0  0  0
   44.8560   34.6690   44.7770 N   0  0  0  0  0  0  0  0  0  0  0  0
   45.8810   33.7790   44.6380 C   0  0  0  0  0  0  0  0  0  0  0  0
   46.8440   33.9510   43.7190 N   0  0  0  0  0  0  0  0  0  0  0  0
   47.8690   35.2240   41.8940 C   0  0  0  0  0  0  0  0  0  0  0  0
   47.9880   34.1640   40.9010 C   0  0  0  0  0  0  0  0  0  0  0  0
   47.1010   33.9480   39.9060 C   0  0  0  0  0  0  0  0  0  0  0  0
   47.2360   32.9230   38.9640 C   0  0  0  0  0  0  0  0  0  0  0  0
   48.3700   32.1360   39.1380 C   0  0  0  0  0  0  0  0  0  0  0  0
   49.2980   32.3060   40.1210 C   0  0  0  0  0  0  0  0  0  0  0  0
   49.0870   33.3270   40.9920 C   0  0  0  0  0  0  0  0  0  0  0  0
   50.3160   33.5780   42.3210 S   0  0  0  0  0  0  0  0  0  0  0  0
   45.9770   32.5900   45.4860 C   0  0  0  0  0  0  0  0  0  0  0  0
   45.6650   31.4280   45.0900 O   0  0  0  0  0  0  0  0  0  0  0  0
   46.4190   32.6350   46.8050 O   0  0  0  0  0  0  0  0  0  0  0  0
   47.3370   31.7710   47.3580 C   0  0  0  0  0  0  0  0  0  0  0  0
   47.9320   32.2060   48.5380 C   0  0  0  0  0  0  0  0  0  0  0  0
   48.8630   31.4020   49.1580 C   0  0  0  0  0  0  0  0  0  0  0  0
   49.1880   30.1730   48.5900 C   0  0  0  0  0  0  0  0  0  0  0  0
   48.5860   29.7520   47.4130 C   0  0  0  0  0  0  0  0  0  0  0  0
   47.6560   30.5480   46.7880 C   0  0  0  0  0  0  0  0  0  0  0  0
   45.7546   36.8448   42.3477 H   0  0  0  0  0  0  0  0  0  0  0  0
   43.9711   36.4752   44.0885 H   0  0  0  0  0  0  0  0  0  0  0  0
   47.6456   36.1627   41.3659 H   0  0  0  0  0  0  0  0  0  0  0  0
   48.8254   35.2452   42.4371 H   0  0  0  0  0  0  0  0  0  0  0  0
   46.2274   34.6123   39.8326 H   0  0  0  0  0  0  0  0  0  0  0  0
   46.5090   32.7539   38.1560 H   0  0  0  0  0  0  0  0  0  0  0  0
   48.5298   31.3124   38.4266 H   0  0  0  0  0  0  0  0  0  0  0  0
   50.1757   31.6483   40.2053 H   0  0  0  0  0  0  0  0  0  0  0  0
   49.7028   33.4528   43.5397 H   0  0  0  0  0  0  0  0  0  0  0  0
   47.6621   33.1806   48.9708 H   0  0  0  0  0  0  0  0  0  0  0  0
   49.3446   31.7275   50.0919 H   0  0  0  0  0  0  0  0  0  0  0  0
   49.9315   29.5276   49.0807 H   0  0  0  0  0  0  0  0  0  0  0  0
   48.8540   28.7776   46.9785 H   0  0  0  0  0  0  0  0  0  0  0  0
   47.1745   30.2214   45.8545 H   0  0  0  0  0  0  0  0  0  0  0  0
  1  2  2  0
  1  6  1  0
  2  3  1  0
  3  4  2  0
  5  4  1  0
  5 15  1  0
  6  5  2  0
  7  1  1  0
  8 13  1  0
  8  7  1  0
  9  8  2  0
 10 11  2  0
 10  9  1  0
 11 12  1  0
 12 13  2  0
 13 14  1  0
 15 17  1  0
 16 15  2  0
 17 18  1  0
 18 19  2  0
 19 20  1  0
 21 20  2  0
 22 21  1  0
 23 18  1  0
 23 22  2  0
  2 24  1  0
  3 25  1  0
  7 26  1  0
  7 27  1  0
  9 28  1  0
 10 29  1  0
 11 30  1  0
 12 31  1  0
 14 32  1  0
 19 33  1  0
 20 34  1  0
 21 35  1  0
 22 36  1  0
 23 37  1  0
M  ISO  8  24  14  25  14  26   8  27   8  28  14  29  14  30  14  31  14
M  ISO  6  32  11  33  14  34  14  35  14  36  14  37  14
M  END
>  <minimizedAffinity>  (1) 
-5.37655783

>  <minimizedRMSD>  (1) 
0.997611463

$$$$
