
     RDKit          3D

 30 31  0  0  0  0  0  0  0  0999 V2000
   47.3340   35.3330   41.8830 C   0  0  0  0  0  0  0  0  0  0  0  0
   47.5640   34.1550   41.0620 C   0  0  0  0  0  0  0  0  0  0  0  0
   46.6760   33.6500   40.1830 C   0  0  0  0  0  0  0  0  0  0  0  0
   46.9130   32.5140   39.4010 C   0  0  0  0  0  0  0  0  0  0  0  0
   48.1660   31.9420   39.6130 C   0  0  0  0  0  0  0  0  0  0  0  0
   49.1200   32.4010   40.4920 C   0  0  0  0  0  0  0  0  0  0  0  0
   48.7850   33.5100   41.2000 C   0  0  0  0  0  0  0  0  0  0  0  0
   50.0280   34.1490   42.3780 S   0  0  0  0  0  0  0  0  0  0  0  0
   46.4410   35.1210   43.0480 C   0  0  0  0  0  0  0  0  0  0  0  0
   45.3980   36.0480   43.2560 C   0  0  0  0  0  0  0  0  0  0  0  0
   44.5610   35.8430   44.3570 C   0  0  0  0  0  0  0  0  0  0  0  0
   44.7670   34.7900   45.1710 N   0  0  0  0  0  0  0  0  0  0  0  0
   45.7880   33.9260   44.9250 C   0  0  0  0  0  0  0  0  0  0  0  0
   46.6150   34.0940   43.8730 N   0  0  0  0  0  0  0  0  0  0  0  0
   46.0450   32.7740   45.7850 C   0  0  0  0  0  0  0  0  0  0  0  0
   45.8920   31.5730   45.4040 O   0  0  0  0  0  0  0  0  0  0  0  0
   46.4820   32.8770   47.0990 O   0  0  0  0  0  0  0  0  0  0  0  0
   45.7510   32.3350   48.1650 C   0  0  0  0  0  0  0  0  0  0  0  0
   46.3520   31.8960   49.1820 O   0  0  0  0  0  0  0  0  0  0  0  0
   44.3570   32.2830   48.1020 O   0  0  0  0  0  0  0  0  0  0  0  0
   46.8858   36.1102   41.2465 H   0  0  0  0  0  0  0  0  0  0  0  0
   48.3139   35.6167   42.2946 H   0  0  0  0  0  0  0  0  0  0  0  0
   45.7079   34.1608   40.0738 H   0  0  0  0  0  0  0  0  0  0  0  0
   46.1799   32.1108   38.6868 H   0  0  0  0  0  0  0  0  0  0  0  0
   48.4141   31.0452   39.0264 H   0  0  0  0  0  0  0  0  0  0  0  0
   50.0923   31.9012   40.6134 H   0  0  0  0  0  0  0  0  0  0  0  0
   49.5982   33.9281   43.6599 H   0  0  0  0  0  0  0  0  0  0  0  0
   45.2488   36.9005   42.5771 H   0  0  0  0  0  0  0  0  0  0  0  0
   43.7350   36.5411   44.5582 H   0  0  0  0  0  0  0  0  0  0  0  0
   43.8414   31.9000   48.8554 H   0  0  0  0  0  0  0  0  0  0  0  0
  1  9  1  0
  2  7  1  0
  2  1  1  0
  3  2  2  0
  4  5  2  0
  4  3  1  0
  5  6  1  0
  6  7  2  0
  7  8  1  0
  9 10  2  0
  9 14  1  0
 10 11  1  0
 11 12  2  0
 13 12  1  0
 13 15  1  0
 14 13  2  0
 15 17  1  0
 16 15  2  0
 17 18  1  0
 18 19  2  0
 20 18  1  0
  1 21  1  0
  1 22  1  0
  3 23  1  0
  4 24  1  0
  5 25  1  0
  6 26  1  0
  8 27  1  0
 10 28  1  0
 11 29  1  0
 20 30  1  0
M  ISO  8  21   8  22   8  23  14  24  14  25  14  26  14  27  11  28  14
M  ISO  2  29  14  30   3
M  END
>  <minimizedAffinity>  (1) 
-5.31738806

>  <minimizedRMSD>  (1) 
0.952896178

$$$$
