
     RDKit          3D

 33 36  0  0  0  0  0  0  0  0999 V2000
   45.1700   33.1440   43.0700 C   0  0  0  0  0  0  0  0  0  0  0  0
   44.2850   33.3620   42.0150 C   0  0  0  0  0  0  0  0  0  0  0  0
   43.4610   32.3910   41.4840 C   0  0  0  0  0  0  0  0  0  0  0  0
   43.5910   31.1950   42.0870 N   0  0  0  0  0  0  0  0  0  0  0  0
   44.4400   30.9630   43.1060 C   0  0  0  0  0  0  0  0  0  0  0  0
   45.2160   31.9150   43.5940 N   0  0  0  0  0  0  0  0  0  0  0  0
   42.6000   32.7630   40.3950 C   0  0  0  0  0  0  0  0  0  0  0  0
   42.5220   32.0240   39.2350 C   0  0  0  0  0  0  0  0  0  0  0  0
   41.7190   32.3270   38.1610 C   0  0  0  0  0  0  0  0  0  0  0  0
   40.9120   33.4410   38.1990 C   0  0  0  0  0  0  0  0  0  0  0  0
   40.9460   34.2210   39.3300 C   0  0  0  0  0  0  0  0  0  0  0  0
   40.1370   35.3300   39.3530 C   0  0  0  0  0  0  0  0  0  0  0  0
   40.1120   36.1590   40.4480 C   0  0  0  0  0  0  0  0  0  0  0  0
   40.9370   35.8290   41.5230 C   0  0  0  0  0  0  0  0  0  0  0  0
   41.7230   34.7030   41.4350 C   0  0  0  0  0  0  0  0  0  0  0  0
   41.7780   33.8460   40.3600 C   0  0  0  0  0  0  0  0  0  0  0  0
   46.0230   34.2630   43.5380 C   0  0  0  0  0  0  0  0  0  0  0  0
   47.4280   34.3480   42.9820 C   0  0  0  0  0  0  0  0  0  0  0  0
   46.4090   35.3460   42.6150 C   0  0  0  0  0  0  0  0  0  0  0  0
   44.2409   34.3709   41.5788 H   0  0  0  0  0  0  0  0  0  0  0  0
   44.4890   29.9550   43.5436 H   0  0  0  0  0  0  0  0  0  0  0  0
   43.1496   31.1235   39.1626 H   0  0  0  0  0  0  0  0  0  0  0  0
   41.7216   31.6794   37.2719 H   0  0  0  0  0  0  0  0  0  0  0  0
   40.2604   33.6990   37.3511 H   0  0  0  0  0  0  0  0  0  0  0  0
   39.5014   35.5573   38.4845 H   0  0  0  0  0  0  0  0  0  0  0  0
   39.4661   37.0490   40.4759 H   0  0  0  0  0  0  0  0  0  0  0  0
   40.9590   36.4578   42.4253 H   0  0  0  0  0  0  0  0  0  0  0  0
   42.3625   34.4677   42.2985 H   0  0  0  0  0  0  0  0  0  0  0  0
   45.5554   34.2356   44.5333 H   0  0  0  0  0  0  0  0  0  0  0  0
   48.2654   34.6290   43.6376 H   0  0  0  0  0  0  0  0  0  0  0  0
   48.0933   33.6688   42.4288 H   0  0  0  0  0  0  0  0  0  0  0  0
   46.4956   36.3765   42.9899 H   0  0  0  0  0  0  0  0  0  0  0  0
   46.0096   35.7191   41.6604 H   0  0  0  0  0  0  0  0  0  0  0  0
  1 17  1  0
  1  6  1  0
  2  1  2  0
  3  2  1  0
  3  4  2  0
  4  5  1  0
  5  6  2  0
  7  3  1  0
  8  7  2  0
  9 10  2  0
  9  8  1  0
 10 11  1  0
 11 12  1  0
 11 16  2  0
 12 13  2  0
 13 14  1  0
 15 14  2  0
 16  7  1  0
 16 15  1  0
 18 17  1  0
 19 18  1  0
 19 17  1  0
  2 20  1  0
  5 21  1  0
  8 22  1  0
  9 23  1  0
 10 24  1  0
 12 25  1  0
 13 26  1  0
 14 27  1  0
 15 28  1  0
 17 29  1  0
 18 30  1  0
 18 31  1  0
 19 32  1  0
 19 33  1  0
M  ISO  8  20  14  21  14  22  14  23  14  24  14  25  14  26  14  27  14
M  ISO  6  28  14  29  13  30  13  31  13  32  13  33  13
M  END
>  <minimizedAffinity>  (1) 
-4.93635321

>  <minimizedRMSD>  (1) 
7.89073992

$$$$
