
     RDKit          3D

 30 31  0  0  0  0  0  0  0  0999 V2000
   47.2590   35.2200   41.8980 C   0  0  0  0  0  0  0  0  0  0  0  0
   47.3360   34.0570   41.0160 C   0  0  0  0  0  0  0  0  0  0  0  0
   46.3590   33.6460   40.1860 C   0  0  0  0  0  0  0  0  0  0  0  0
   46.4640   32.5330   39.3580 C   0  0  0  0  0  0  0  0  0  0  0  0
   47.6650   31.8610   39.4470 C   0  0  0  0  0  0  0  0  0  0  0  0
   48.6940   32.2170   40.2620 C   0  0  0  0  0  0  0  0  0  0  0  0
   48.5150   33.3190   41.0410 C   0  0  0  0  0  0  0  0  0  0  0  0
   49.8840   33.8150   42.1420 S   0  0  0  0  0  0  0  0  0  0  0  0
   46.4220   35.0350   43.0990 C   0  0  0  0  0  0  0  0  0  0  0  0
   45.3590   35.9360   43.3110 C   0  0  0  0  0  0  0  0  0  0  0  0
   44.5730   35.7520   44.4490 C   0  0  0  0  0  0  0  0  0  0  0  0
   44.8430   34.7480   45.2920 N   0  0  0  0  0  0  0  0  0  0  0  0
   45.8750   33.9060   45.0490 C   0  0  0  0  0  0  0  0  0  0  0  0
   46.6550   34.0510   43.9630 N   0  0  0  0  0  0  0  0  0  0  0  0
   46.2030   32.7930   45.9490 C   0  0  0  0  0  0  0  0  0  0  0  0
   45.8720   31.5910   45.7180 O   0  0  0  0  0  0  0  0  0  0  0  0
   46.9050   32.9530   47.1360 O   0  0  0  0  0  0  0  0  0  0  0  0
   47.4570   31.8680   47.8550 C   0  0  0  0  0  0  0  0  0  0  0  0
   46.8465   36.0602   41.3202 H   0  0  0  0  0  0  0  0  0  0  0  0
   48.2819   35.4008   42.2599 H   0  0  0  0  0  0  0  0  0  0  0  0
   45.4233   34.2238   40.1611 H   0  0  0  0  0  0  0  0  0  0  0  0
   45.6536   32.2143   38.6859 H   0  0  0  0  0  0  0  0  0  0  0  0
   47.8006   30.9725   38.8128 H   0  0  0  0  0  0  0  0  0  0  0  0
   49.6299   31.6397   40.2905 H   0  0  0  0  0  0  0  0  0  0  0  0
   49.4940   33.6737   43.4477 H   0  0  0  0  0  0  0  0  0  0  0  0
   45.1564   36.7546   42.6048 H   0  0  0  0  0  0  0  0  0  0  0  0
   43.7323   36.4313   44.6532 H   0  0  0  0  0  0  0  0  0  0  0  0
   47.3610   32.0567   48.9344 H   0  0  0  0  0  0  0  0  0  0  0  0
   46.9192   30.9443   47.5950 H   0  0  0  0  0  0  0  0  0  0  0  0
   48.5202   31.7588   47.5950 H   0  0  0  0  0  0  0  0  0  0  0  0
  1  9  1  0
  2  7  1  0
  2  1  1  0
  3  2  2  0
  4  5  2  0
  4  3  1  0
  5  6  1  0
  6  7  2  0
  7  8  1  0
  9 10  2  0
  9 14  1  0
 10 11  1  0
 11 12  2  0
 13 12  1  0
 13 15  1  0
 14 13  2  0
 15 17  1  0
 16 15  2  0
 17 18  1  0
  1 19  1  0
  1 20  1  0
  3 21  1  0
  4 22  1  0
  5 23  1  0
  6 24  1  0
  8 25  1  0
 10 26  1  0
 11 27  1  0
 18 28  1  0
 18 29  1  0
 18 30  1  0
M  ISO  8  19   8  20   8  21  14  22  14  23  14  24  14  25  11  26  14
M  ISO  4  27  14  28   8  29   8  30   8
M  END
>  <minimizedAffinity>  (1) 
-4.58133459

>  <minimizedRMSD>  (1) 
0.21091035

$$$$
