
     RDKit          3D

 27 29  0  0  0  0  0  0  0  0999 V2000
   45.5400   34.4210   44.2300 C   0  0  0  0  0  0  0  0  0  0  0  0
   46.5550   34.1180   43.3080 C   0  0  0  0  0  0  0  0  0  0  0  0
   47.5490   33.1870   43.6850 C   0  0  0  0  0  0  0  0  0  0  0  0
   47.4630   32.6380   44.9310 N   0  0  0  0  0  0  0  0  0  0  0  0
   46.4490   32.9770   45.7820 C   0  0  0  0  0  0  0  0  0  0  0  0
   45.5040   33.8570   45.4310 N   0  0  0  0  0  0  0  0  0  0  0  0
   48.6260   32.7910   42.8540 N   0  0  0  0  0  0  0  0  0  0  0  0
   48.6490   31.5220   42.3990 C   0  0  0  0  0  0  0  0  0  0  0  0
   49.7040   31.1790   41.5990 C   0  0  0  0  0  0  0  0  0  0  0  0
   50.7240   32.0610   41.2490 C   0  0  0  0  0  0  0  0  0  0  0  0
   51.6940   31.7520   40.5170 O   0  0  0  0  0  0  0  0  0  0  0  0
   50.5760   33.2870   41.7710 N   0  0  0  0  0  0  0  0  0  0  0  0
   49.5700   33.7050   42.5630 C   0  0  0  0  0  0  0  0  0  0  0  0
   49.5280   34.8860   43.0010 O   0  0  0  0  0  0  0  0  0  0  0  0
   44.5400   35.3960   43.7480 C   0  0  0  0  0  0  0  0  0  0  0  0
   45.0070   36.7780   43.3430 C   0  0  0  0  0  0  0  0  0  0  0  0
   44.4800   35.8510   42.3490 C   0  0  0  0  0  0  0  0  0  0  0  0
   46.5758   34.5938   42.3164 H   0  0  0  0  0  0  0  0  0  0  0  0
   46.4086   32.5154   46.7796 H   0  0  0  0  0  0  0  0  0  0  0  0
   47.8603   30.8001   42.6577 H   0  0  0  0  0  0  0  0  0  0  0  0
   49.7496   30.1508   41.2108 H   0  0  0  0  0  0  0  0  0  0  0  0
   51.3047   33.9785   41.5436 H   0  0  0  0  0  0  0  0  0  0  0  0
   43.8058   34.9592   44.4409 H   0  0  0  0  0  0  0  0  0  0  0  0
   44.4246   37.6646   43.6342 H   0  0  0  0  0  0  0  0  0  0  0  0
   45.9370   37.3539   43.4590 H   0  0  0  0  0  0  0  0  0  0  0  0
   43.5035   36.0503   41.8834 H   0  0  0  0  0  0  0  0  0  0  0  0
   44.8619   35.4513   41.3980 H   0  0  0  0  0  0  0  0  0  0  0  0
  1  6  2  0
  2  3  2  0
  2  1  1  0
  3  4  1  0
  4  5  2  0
  6  5  1  0
  7  3  1  0
  8  7  1  0
  9  8  2  0
 10  9  1  0
 10 12  1  0
 11 10  2  0
 12 13  1  0
 13  7  1  0
 13 14  2  0
 15  1  1  0
 16 15  1  0
 17 16  1  0
 17 15  1  0
  2 18  1  0
  5 19  1  0
  8 20  1  0
  9 21  1  0
 12 22  1  0
 15 23  1  0
 16 24  1  0
 16 25  1  0
 17 26  1  0
 17 27  1  0
M  ISO  8  18  14  19  14  20  14  21  14  22   9  23  13  24  13  25  13
M  ISO  2  26  13  27  13
M  END
>  <minimizedAffinity>  (1) 
-4.64839029

>  <minimizedRMSD>  (1) 
1.62153184

$$$$
