
     RDKit          3D

 27 29  0  0  0  0  0  0  0  0999 V2000
   45.3730   34.6300   44.3650 C   0  0  0  0  0  0  0  0  0  0  0  0
   46.4380   34.2350   43.5400 C   0  0  0  0  0  0  0  0  0  0  0  0
   47.3560   33.2790   43.9700 C   0  0  0  0  0  0  0  0  0  0  0  0
   47.1550   32.7710   45.2030 N   0  0  0  0  0  0  0  0  0  0  0  0
   46.1190   33.1660   45.9830 C   0  0  0  0  0  0  0  0  0  0  0  0
   45.2420   34.0770   45.5760 N   0  0  0  0  0  0  0  0  0  0  0  0
   44.4480   35.6570   43.8370 C   0  0  0  0  0  0  0  0  0  0  0  0
   45.0280   36.9590   43.3400 C   0  0  0  0  0  0  0  0  0  0  0  0
   44.4090   36.0000   42.4080 C   0  0  0  0  0  0  0  0  0  0  0  0
   48.4850   32.8150   43.1800 C   0  0  0  0  0  0  0  0  0  0  0  0
   49.4070   33.7750   42.8130 C   0  0  0  0  0  0  0  0  0  0  0  0
   50.5220   33.4190   42.0540 C   0  0  0  0  0  0  0  0  0  0  0  0
   50.6420   32.0940   41.7050 C   0  0  0  0  0  0  0  0  0  0  0  0
   49.7320   31.1220   42.0610 C   0  0  0  0  0  0  0  0  0  0  0  0
   48.6360   31.4970   42.8120 C   0  0  0  0  0  0  0  0  0  0  0  0
   46.5491   34.6854   42.5426 H   0  0  0  0  0  0  0  0  0  0  0  0
   46.0012   32.7194   46.9814 H   0  0  0  0  0  0  0  0  0  0  0  0
   43.6872   35.3460   44.5681 H   0  0  0  0  0  0  0  0  0  0  0  0
   44.5257   37.9106   43.5682 H   0  0  0  0  0  0  0  0  0  0  0  0
   46.0041   37.4608   43.4141 H   0  0  0  0  0  0  0  0  0  0  0  0
   43.4480   36.2450   41.9321 H   0  0  0  0  0  0  0  0  0  0  0  0
   44.7441   35.4977   41.4885 H   0  0  0  0  0  0  0  0  0  0  0  0
   49.2622   34.8215   43.1194 H   0  0  0  0  0  0  0  0  0  0  0  0
   51.2713   34.1642   41.7485 H   0  0  0  0  0  0  0  0  0  0  0  0
   51.5148   31.7926   41.1071 H   0  0  0  0  0  0  0  0  0  0  0  0
   49.8752   30.0752   41.7549 H   0  0  0  0  0  0  0  0  0  0  0  0
   47.8889   30.7483   43.1141 H   0  0  0  0  0  0  0  0  0  0  0  0
  1  6  2  0
  2  3  2  0
  2  1  1  0
  3  4  1  0
  4  5  2  0
  6  5  1  0
  7  1  1  0
  8  7  1  0
  9  8  1  0
  9  7  1  0
 10  3  1  0
 11 10  2  0
 12 11  1  0
 13 12  2  0
 13 14  1  0
 14 15  2  0
 15 10  1  0
  2 16  1  0
  5 17  1  0
  7 18  1  0
  8 19  1  0
  8 20  1  0
  9 21  1  0
  9 22  1  0
 11 23  1  0
 12 24  1  0
 13 25  1  0
 14 26  1  0
 15 27  1  0
M  ISO  8  16  14  17  14  18  13  19  13  20  13  21  13  22  13  23  14
M  ISO  4  24  14  25  14  26  14  27  14
M  END
>  <minimizedAffinity>  (1) 
-4.29681349

>  <minimizedRMSD>  (1) 
1.51438582

$$$$
