
     RDKit          3D

 30 32  0  0  0  0  0  0  0  0999 V2000
   45.3740   34.6290   44.3860 C   0  0  0  0  0  0  0  0  0  0  0  0
   46.4190   34.2120   43.5450 C   0  0  0  0  0  0  0  0  0  0  0  0
   47.3310   33.2470   43.9720 C   0  0  0  0  0  0  0  0  0  0  0  0
   47.1520   32.7530   45.2140 N   0  0  0  0  0  0  0  0  0  0  0  0
   46.1290   33.1720   46.0160 C   0  0  0  0  0  0  0  0  0  0  0  0
   45.2630   34.0950   45.5960 N   0  0  0  0  0  0  0  0  0  0  0  0
   44.4410   35.6620   43.8770 C   0  0  0  0  0  0  0  0  0  0  0  0
   45.0200   36.9680   43.3750 C   0  0  0  0  0  0  0  0  0  0  0  0
   44.3790   36.0170   42.4520 C   0  0  0  0  0  0  0  0  0  0  0  0
   50.6090   32.0360   41.6260 C   0  0  0  0  0  0  0  0  0  0  0  0
   50.4860   33.3630   42.0210 C   0  0  0  0  0  0  0  0  0  0  0  0
   49.3750   33.7050   42.7980 C   0  0  0  0  0  0  0  0  0  0  0  0
   48.4390   32.7630   43.1620 C   0  0  0  0  0  0  0  0  0  0  0  0
   48.5910   31.4700   42.7580 C   0  0  0  0  0  0  0  0  0  0  0  0
   49.6800   31.0820   41.9820 C   0  0  0  0  0  0  0  0  0  0  0  0
   51.9620   31.5220   40.6560 S   0  0  0  0  0  0  0  0  0  0  0  0
   51.6180   31.5440   39.1870 O   0  0  0  0  0  0  0  0  0  0  0  0
   52.3300   30.1140   41.0140 O   0  0  0  0  0  0  0  0  0  0  0  0
   46.5189   34.6503   42.5410 H   0  0  0  0  0  0  0  0  0  0  0  0
   46.0179   32.7421   47.0224 H   0  0  0  0  0  0  0  0  0  0  0  0
   43.6910   35.3472   44.6176 H   0  0  0  0  0  0  0  0  0  0  0  0
   44.5269   37.9209   43.6175 H   0  0  0  0  0  0  0  0  0  0  0  0
   45.9996   37.4649   43.4330 H   0  0  0  0  0  0  0  0  0  0  0  0
   43.4107   36.2699   41.9955 H   0  0  0  0  0  0  0  0  0  0  0  0
   44.6954   35.5186   41.5238 H   0  0  0  0  0  0  0  0  0  0  0  0
   51.2346   34.1158   41.7331 H   0  0  0  0  0  0  0  0  0  0  0  0
   49.2461   34.7473   43.1250 H   0  0  0  0  0  0  0  0  0  0  0  0
   47.8407   30.7205   43.0500 H   0  0  0  0  0  0  0  0  0  0  0  0
   49.7964   30.0367   41.6600 H   0  0  0  0  0  0  0  0  0  0  0  0
   52.9995   32.3830   40.8993 H   0  0  0  0  0  0  0  0  0  0  0  0
  1  6  2  0
  2  3  2  0
  2  1  1  0
  3  4  1  0
  4  5  2  0
  6  5  1  0
  7  1  1  0
  8  7  1  0
  9  8  1  0
  9  7  1  0
 10 15  2  0
 10 11  1  0
 11 12  2  0
 12 13  1  0
 13  3  1  0
 14 13  2  0
 15 14  1  0
 16 18  2  0
 16 10  1  0
 17 16  2  0
  2 19  1  0
  5 20  1  0
  7 21  1  0
  8 22  1  0
  8 23  1  0
  9 24  1  0
  9 25  1  0
 11 26  1  0
 12 27  1  0
 14 28  1  0
 15 29  1  0
 16 30  1  0
M  ISO  8  19  14  20  14  21  13  22  13  23  13  24  13  25  13  26  14
M  ISO  4  27  14  28  14  29  14  30  11
M  END
>  <minimizedAffinity>  (1) 
-4.54715014

>  <minimizedRMSD>  (1) 
1.82783306

$$$$
