
     RDKit          3D

 20 21  0  0  0  0  0  0  0  0999 V2000
   45.3870   34.4330   44.5770 C   0  0  0  0  0  0  0  0  0  0  0  0
   46.3030   33.8190   43.7080 C   0  0  0  0  0  0  0  0  0  0  0  0
   47.1500   32.8220   44.2350 C   0  0  0  0  0  0  0  0  0  0  0  0
   47.0300   32.5080   45.5630 N   0  0  0  0  0  0  0  0  0  0  0  0
   46.1190   33.1400   46.3580 C   0  0  0  0  0  0  0  0  0  0  0  0
   45.3050   34.0990   45.8550 N   0  0  0  0  0  0  0  0  0  0  0  0
   44.5070   35.4710   43.9950 C   0  0  0  0  0  0  0  0  0  0  0  0
   45.1250   36.7380   43.4570 C   0  0  0  0  0  0  0  0  0  0  0  0
   44.4900   35.7620   42.5520 C   0  0  0  0  0  0  0  0  0  0  0  0
   48.1370   32.1200   43.4210 C   0  0  0  0  0  0  0  0  0  0  0  0
   48.2080   30.8640   43.4640 O   0  0  0  0  0  0  0  0  0  0  0  0
   48.9780   32.8530   42.6150 O   0  0  0  0  0  0  0  0  0  0  0  0
   46.3584   34.1069   42.6478 H   0  0  0  0  0  0  0  0  0  0  0  0
   46.0445   32.8674   47.4211 H   0  0  0  0  0  0  0  0  0  0  0  0
   43.7327   35.2089   44.7310 H   0  0  0  0  0  0  0  0  0  0  0  0
   44.6455   37.7099   43.6456 H   0  0  0  0  0  0  0  0  0  0  0  0
   46.1132   37.2166   43.5234 H   0  0  0  0  0  0  0  0  0  0  0  0
   43.5403   36.0141   42.0575 H   0  0  0  0  0  0  0  0  0  0  0  0
   44.8203   35.2183   41.6546 H   0  0  0  0  0  0  0  0  0  0  0  0
   48.9076   33.8403   42.5941 H   0  0  0  0  0  0  0  0  0  0  0  0
  1  6  2  0
  2  3  2  0
  2  1  1  0
  3  4  1  0
  4  5  2  0
  6  5  1  0
  7  1  1  0
  8  7  1  0
  9  8  1  0
  9  7  1  0
 10 11  2  0
 10  3  1  0
 12 10  1  0
  2 13  1  0
  5 14  1  0
  7 15  1  0
  8 16  1  0
  8 17  1  0
  9 18  1  0
  9 19  1  0
 12 20  1  0
M  ISO  8  13  14  14  14  15  13  16  13  17  13  18  13  19  13  20   3
M  END
>  <minimizedAffinity>  (1) 
-3.42157793

>  <minimizedRMSD>  (1) 
0.772060812

$$$$
