
     RDKit          3D

 20 21  0  0  0  0  0  0  0  0999 V2000
   45.4020   34.4630   44.4990 C   0  0  0  0  0  0  0  0  0  0  0  0
   46.3730   33.9100   43.6180 C   0  0  0  0  0  0  0  0  0  0  0  0
   47.2420   32.9400   44.0980 C   0  0  0  0  0  0  0  0  0  0  0  0
   47.1090   32.5780   45.3900 N   0  0  0  0  0  0  0  0  0  0  0  0
   46.1740   33.1200   46.2140 C   0  0  0  0  0  0  0  0  0  0  0  0
   45.3310   34.0510   45.7730 N   0  0  0  0  0  0  0  0  0  0  0  0
   44.4910   35.5170   43.9630 C   0  0  0  0  0  0  0  0  0  0  0  0
   45.1350   36.7760   43.4090 C   0  0  0  0  0  0  0  0  0  0  0  0
   44.4710   35.8130   42.5210 C   0  0  0  0  0  0  0  0  0  0  0  0
   48.2380   32.3810   43.1690 C   0  0  0  0  0  0  0  0  0  0  0  0
   47.6380   32.3020   41.9230 F   0  0  0  0  0  0  0  0  0  0  0  0
   48.7810   31.2090   43.5860 F   0  0  0  0  0  0  0  0  0  0  0  0
   49.2160   33.3660   43.0160 F   0  0  0  0  0  0  0  0  0  0  0  0
   46.4340   34.2462   42.5724 H   0  0  0  0  0  0  0  0  0  0  0  0
   46.1130   32.7847   47.2599 H   0  0  0  0  0  0  0  0  0  0  0  0
   43.7194   35.2721   44.7077 H   0  0  0  0  0  0  0  0  0  0  0  0
   44.6791   37.7591   43.5979 H   0  0  0  0  0  0  0  0  0  0  0  0
   46.1340   37.2334   43.4618 H   0  0  0  0  0  0  0  0  0  0  0  0
   43.5227   36.0857   42.0349 H   0  0  0  0  0  0  0  0  0  0  0  0
   44.7828   35.2603   41.6225 H   0  0  0  0  0  0  0  0  0  0  0  0
  1  6  2  0
  2  3  2  0
  2  1  1  0
  3  4  1  0
  4  5  2  0
  6  5  1  0
  7  1  1  0
  8  7  1  0
  9  8  1  0
  9  7  1  0
 10 12  1  0
 10  3  1  0
 11 10  1  0
 13 10  1  0
  2 14  1  0
  5 15  1  0
  7 16  1  0
  8 17  1  0
  8 18  1  0
  9 19  1  0
  9 20  1  0
M  ISO  7  14  14  15  14  16  13  17  13  18  13  19  13  20  13
M  END
>  <minimizedAffinity>  (1) 
-3.69927645

>  <minimizedRMSD>  (1) 
0.95684725

$$$$
