
     RDKit          3D

 23 25  0  0  0  0  0  0  0  0999 V2000
   45.4010   34.5550   44.4360 C   0  0  0  0  0  0  0  0  0  0  0  0
   46.4290   34.1250   43.5800 C   0  0  0  0  0  0  0  0  0  0  0  0
   47.3460   33.1570   44.0290 C   0  0  0  0  0  0  0  0  0  0  0  0
   47.1720   32.6910   45.2920 N   0  0  0  0  0  0  0  0  0  0  0  0
   46.1630   33.1330   46.0900 C   0  0  0  0  0  0  0  0  0  0  0  0
   45.2980   34.0490   45.6590 N   0  0  0  0  0  0  0  0  0  0  0  0
   44.4720   35.5800   43.9060 C   0  0  0  0  0  0  0  0  0  0  0  0
   45.0580   36.8910   43.4140 C   0  0  0  0  0  0  0  0  0  0  0  0
   44.4270   35.9380   42.4830 C   0  0  0  0  0  0  0  0  0  0  0  0
   48.4100   32.6710   43.2280 N   0  0  0  0  0  0  0  0  0  0  0  0
   49.2250   33.5480   42.6240 C   0  0  0  0  0  0  0  0  0  0  0  0
   50.1620   32.8810   41.9160 N   0  0  0  0  0  0  0  0  0  0  0  0
   49.9140   31.5600   42.0910 C   0  0  0  0  0  0  0  0  0  0  0  0
   48.8450   31.4550   42.8920 N   0  0  0  0  0  0  0  0  0  0  0  0
   46.5162   34.5423   42.5660 H   0  0  0  0  0  0  0  0  0  0  0  0
   46.0600   32.7274   47.1073 H   0  0  0  0  0  0  0  0  0  0  0  0
   43.7104   35.2578   44.6313 H   0  0  0  0  0  0  0  0  0  0  0  0
   44.5614   37.8432   43.6522 H   0  0  0  0  0  0  0  0  0  0  0  0
   46.0362   37.3892   43.4842 H   0  0  0  0  0  0  0  0  0  0  0  0
   43.4637   36.1907   42.0158 H   0  0  0  0  0  0  0  0  0  0  0  0
   44.7549   35.4408   41.5582 H   0  0  0  0  0  0  0  0  0  0  0  0
   49.1430   34.6427   42.6944 H   0  0  0  0  0  0  0  0  0  0  0  0
   50.4854   30.7271   41.6554 H   0  0  0  0  0  0  0  0  0  0  0  0
  1  6  2  0
  2  3  2  0
  2  1  1  0
  3  4  1  0
  4  5  2  0
  6  5  1  0
  7  1  1  0
  8  7  1  0
  9  8  1  0
  9  7  1  0
 10  3  1  0
 11 10  1  0
 12 13  1  0
 12 11  2  0
 13 14  2  0
 14 10  1  0
  2 15  1  0
  5 16  1  0
  7 17  1  0
  8 18  1  0
  8 19  1  0
  9 20  1  0
  9 21  1  0
 11 22  1  0
 13 23  1  0
M  ISO  8  15  14  16  14  17  13  18  13  19  13  20  13  21  13  22  14
M  ISO  1  23  14
M  END
>  <minimizedAffinity>  (1) 
-3.81820369

>  <minimizedRMSD>  (1) 
1.09301805

$$$$
