
     RDKit          3D

 41 45  0  0  1  0  0  0  0  0999 V2000
   44.5400   33.6340   42.7150 C   0  0  0  0  0  0  0  0  0  0  0  0
   43.5760   34.1320   41.8200 C   0  0  0  0  0  0  0  0  0  0  0  0
   42.6110   33.2630   41.2910 C   0  0  0  0  0  0  0  0  0  0  0  0
   42.6570   31.9830   41.6710 N   0  0  0  0  0  0  0  0  0  0  0  0
   43.6050   31.5340   42.5420 C   0  0  0  0  0  0  0  0  0  0  0  0
   44.5390   32.3640   43.0560 N   0  0  0  0  0  0  0  0  0  0  0  0
   41.6120   33.7370   40.3850 N   0  0  0  0  0  0  0  0  0  0  0  0
   40.2760   34.0840   40.7530 C   0  0  0  0  0  0  0  0  0  0  0  0
   40.1350   35.5810   40.5200 C   0  0  0  0  0  0  0  0  0  0  0  0
   40.8130   35.9470   39.3800 O   0  0  0  0  0  0  0  0  0  0  0  0
   40.9670   34.9290   38.4590 C   0  0  0  0  0  0  0  0  0  0  0  0
   41.9540   33.8860   38.9990 C   0  0  2  0  0  0  0  0  0  0  0  0
   42.0070   32.7080   38.2240 N   0  0  0  0  0  0  0  0  0  0  0  0
   43.1560   32.1390   37.7530 C   0  0  0  0  0  0  0  0  0  0  0  0
   42.9280   31.0210   37.0410 N   0  0  0  0  0  0  0  0  0  0  0  0
   41.5740   30.8450   37.0420 C   0  0  0  0  0  0  0  0  0  0  0  0
   40.7400   29.8800   36.4810 C   0  0  0  0  0  0  0  0  0  0  0  0
   39.4080   29.9470   36.6390 N   0  0  0  0  0  0  0  0  0  0  0  0
   38.9180   30.9930   37.3650 C   0  0  0  0  0  0  0  0  0  0  0  0
   39.7200   31.9290   37.9100 N   0  0  0  0  0  0  0  0  0  0  0  0
   41.0560   31.9000   37.7770 C   0  0  0  0  0  0  0  0  0  0  0  0
   45.5310   34.6060   43.2200 C   0  0  0  0  0  0  0  0  0  0  0  0
   46.6660   35.0370   42.2930 C   0  0  0  0  0  0  0  0  0  0  0  0
   45.6140   35.9800   42.7550 C   0  0  0  0  0  0  0  0  0  0  0  0
   43.5791   35.1950   41.5372 H   0  0  0  0  0  0  0  0  0  0  0  0
   43.6095   30.4731   42.8325 H   0  0  0  0  0  0  0  0  0  0  0  0
   39.5557   33.5335   40.1299 H   0  0  0  0  0  0  0  0  0  0  0  0
   40.0742   33.8255   41.8030 H   0  0  0  0  0  0  0  0  0  0  0  0
   39.0703   35.8331   40.4071 H   0  0  0  0  0  0  0  0  0  0  0  0
   40.5578   36.1211   41.3800 H   0  0  0  0  0  0  0  0  0  0  0  0
   41.3535   35.3443   37.5166 H   0  0  0  0  0  0  0  0  0  0  0  0
   39.9931   34.4498   38.2804 H   0  0  0  0  0  0  0  0  0  0  0  0
   43.0029   34.2076   38.9189 H   0  0  0  0  0  0  0  0  0  0  0  0
   44.1594   32.5507   37.9363 H   0  0  0  0  0  0  0  0  0  0  0  0
   41.1777   29.0536   35.9019 H   0  0  0  0  0  0  0  0  0  0  0  0
   37.8308   31.0752   37.5106 H   0  0  0  0  0  0  0  0  0  0  0  0
   45.4292   34.1573   44.2192 H   0  0  0  0  0  0  0  0  0  0  0  0
   46.6891   34.6982   41.2467 H   0  0  0  0  0  0  0  0  0  0  0  0
   47.7652   35.0030   42.3187 H   0  0  0  0  0  0  0  0  0  0  0  0
   45.8749   36.7784   43.4653 H   0  0  0  0  0  0  0  0  0  0  0  0
   44.9141   36.6535   42.2387 H   0  0  0  0  0  0  0  0  0  0  0  0
  1  6  1  0
  1 22  1  0
  2  1  2  0
  3  4  2  0
  3  2  1  0
  4  5  1  0
  5  6  2  0
  7  8  1  0
  7  3  1  0
  9  8  1  0
 10  9  1  0
 11 12  1  0
 11 10  1  0
 12  7  1  0
 13 12  1  0
 14 13  1  0
 15 16  1  0
 15 14  2  0
 16 21  2  0
 17 18  2  0
 17 16  1  0
 18 19  1  0
 19 20  2  0
 21 20  1  0
 21 13  1  0
 23 24  1  0
 23 22  1  0
 24 22  1  0
  2 25  1  0
  5 26  1  0
  8 27  1  0
  8 28  1  0
  9 29  1  0
  9 30  1  0
 11 31  1  0
 11 32  1  0
 12 33  1  1
 14 34  1  0
 17 35  1  0
 19 36  1  0
 22 37  1  0
 23 38  1  0
 23 39  1  0
 24 40  1  0
 24 41  1  0
M  ISO  8  25  14  26  14  27  13  28  13  29  13  30  13  31  13  32  13
M  ISO  8  33  13  34  14  35  14  36  14  37  13  38  13  39  13  40  13
M  ISO  1  41  13
M  END
>  <minimizedAffinity>  (1) 
-5.27762127

>  <minimizedRMSD>  (1) 
0.730213761

$$$$
