
     RDKit          3D

 40 43  0  0  1  0  0  0  0  0999 V2000
   44.8790   34.0050   42.1470 C   0  0  0  0  0  0  0  0  0  0  0  0
   43.7880   34.4910   41.4010 C   0  0  0  0  0  0  0  0  0  0  0  0
   42.6790   33.6550   41.1730 C   0  0  0  0  0  0  0  0  0  0  0  0
   42.7140   32.4180   41.6810 N   0  0  0  0  0  0  0  0  0  0  0  0
   43.7930   31.9790   42.4020 C   0  0  0  0  0  0  0  0  0  0  0  0
   44.8620   32.7810   42.6250 N   0  0  0  0  0  0  0  0  0  0  0  0
   41.5510   34.1150   40.4320 N   0  0  0  0  0  0  0  0  0  0  0  0
   40.3370   34.6200   41.0310 C   0  0  0  0  0  0  0  0  0  0  0  0
   40.2490   36.0890   40.6590 C   0  0  0  0  0  0  0  0  0  0  0  0
   40.7060   36.2820   39.3750 O   0  0  0  0  0  0  0  0  0  0  0  0
   40.5990   35.1790   38.5570 C   0  0  0  0  0  0  0  0  0  0  0  0
   41.5940   34.0940   39.0000 C   0  0  2  0  0  0  0  0  0  0  0  0
   46.0050   34.9310   42.3480 C   0  0  0  0  0  0  0  0  0  0  0  0
   47.2410   34.4190   43.0910 C   0  0  0  0  0  0  0  0  0  0  0  0
   47.2780   34.8010   41.6550 C   0  0  0  0  0  0  0  0  0  0  0  0
   41.3640   32.8040   38.3660 C   0  0  0  0  0  0  0  0  0  0  0  0
   40.0500   32.3620   38.1610 C   0  0  0  0  0  0  0  0  0  0  0  0
   39.7360   31.1530   37.5680 C   0  0  0  0  0  0  0  0  0  0  0  0
   40.7410   30.3150   37.1460 C   0  0  0  0  0  0  0  0  0  0  0  0
   42.0420   30.7030   37.3240 C   0  0  0  0  0  0  0  0  0  0  0  0
   42.2910   31.9170   37.9210 C   0  0  0  0  0  0  0  0  0  0  0  0
   43.8024   35.5152   40.9999 H   0  0  0  0  0  0  0  0  0  0  0  0
   43.7914   30.9564   42.8074 H   0  0  0  0  0  0  0  0  0  0  0  0
   39.4652   34.0761   40.6384 H   0  0  0  0  0  0  0  0  0  0  0  0
   40.3481   34.4870   42.1229 H   0  0  0  0  0  0  0  0  0  0  0  0
   39.2016   36.4186   40.7254 H   0  0  0  0  0  0  0  0  0  0  0  0
   40.8710   36.6731   41.3532 H   0  0  0  0  0  0  0  0  0  0  0  0
   40.8187   35.4725   37.5199 H   0  0  0  0  0  0  0  0  0  0  0  0
   39.5766   34.7788   38.6242 H   0  0  0  0  0  0  0  0  0  0  0  0
   42.6205   34.2977   38.6611 H   0  0  0  0  0  0  0  0  0  0  0  0
   45.2855   35.7570   42.4478 H   0  0  0  0  0  0  0  0  0  0  0  0
   47.7357   35.0469   43.8467 H   0  0  0  0  0  0  0  0  0  0  0  0
   47.4971   33.5253   43.6789 H   0  0  0  0  0  0  0  0  0  0  0  0
   47.4015   34.0210   40.8892 H   0  0  0  0  0  0  0  0  0  0  0  0
   47.8990   35.4924   41.0665 H   0  0  0  0  0  0  0  0  0  0  0  0
   39.2248   33.0112   38.4892 H   0  0  0  0  0  0  0  0  0  0  0  0
   38.6837   30.8621   37.4341 H   0  0  0  0  0  0  0  0  0  0  0  0
   40.5041   29.3501   36.6738 H   0  0  0  0  0  0  0  0  0  0  0  0
   42.8704   30.0576   36.9966 H   0  0  0  0  0  0  0  0  0  0  0  0
   43.3467   32.1974   38.0509 H   0  0  0  0  0  0  0  0  0  0  0  0
  1 13  1  0
  1  6  1  0
  2  1  2  0
  3  2  1  0
  3  4  2  0
  4  5  1  0
  5  6  2  0
  7  8  1  0
  7  3  1  0
  9  8  1  0
 10  9  1  0
 11 12  1  0
 11 10  1  0
 12  7  1  0
 13 14  1  0
 15 13  1  0
 15 14  1  0
 16 12  1  0
 17 16  2  0
 18 17  1  0
 19 20  1  0
 19 18  2  0
 20 21  2  0
 21 16  1  0
  2 22  1  0
  5 23  1  0
  8 24  1  0
  8 25  1  0
  9 26  1  0
  9 27  1  0
 11 28  1  0
 11 29  1  0
 12 30  1  1
 13 31  1  0
 14 32  1  0
 14 33  1  0
 15 34  1  0
 15 35  1  0
 17 36  1  0
 18 37  1  0
 19 38  1  0
 20 39  1  0
 21 40  1  0
M  ISO  8  22  14  23  14  24  13  25  13  26  13  27  13  28  13  29  13
M  ISO  8  30  13  31  13  32  13  33  13  34  13  35  13  36  14  37  14
M  ISO  3  38  14  39  14  40  14
M  END
>  <minimizedAffinity>  (1) 
-5.29023457

>  <minimizedRMSD>  (1) 
1.50856304

$$$$
