
     RDKit          3D

 41 44  0  0  1  0  0  0  0  0999 V2000
   44.9040   34.0030   42.3260 C   0  0  0  0  0  0  0  0  0  0  0  0
   43.8250   34.5010   41.5810 C   0  0  0  0  0  0  0  0  0  0  0  0
   42.7280   33.6730   41.3030 C   0  0  0  0  0  0  0  0  0  0  0  0
   42.7610   32.4200   41.7700 N   0  0  0  0  0  0  0  0  0  0  0  0
   43.8300   31.9650   42.4950 C   0  0  0  0  0  0  0  0  0  0  0  0
   44.8870   32.7500   42.7670 N   0  0  0  0  0  0  0  0  0  0  0  0
   41.6140   34.1520   40.5550 N   0  0  0  0  0  0  0  0  0  0  0  0
   40.3810   34.6300   41.1340 C   0  0  0  0  0  0  0  0  0  0  0  0
   40.2980   36.1160   40.8300 C   0  0  0  0  0  0  0  0  0  0  0  0
   40.7710   36.3570   39.5560 O   0  0  0  0  0  0  0  0  0  0  0  0
   40.6900   35.2780   38.7010 C   0  0  0  0  0  0  0  0  0  0  0  0
   41.6840   34.1790   39.1200 C   0  0  2  0  0  0  0  0  0  0  0  0
   41.4010   32.9390   38.4710 N   0  0  0  0  0  0  0  0  0  0  0  0
   40.2250   32.3420   38.3170 C   0  0  0  0  0  0  0  0  0  0  0  0
   40.0540   31.1400   37.6740 C   0  0  0  0  0  0  0  0  0  0  0  0
   41.1870   30.5560   37.1740 C   0  0  0  0  0  0  0  0  0  0  0  0
   41.1770   29.3220   36.4870 N   0  0  0  0  0  0  0  0  0  0  0  0
   42.4000   31.1440   37.3160 N   0  0  0  0  0  0  0  0  0  0  0  0
   42.5140   32.3350   37.9640 C   0  0  0  0  0  0  0  0  0  0  0  0
   43.6820   32.8120   38.0500 O   0  0  0  0  0  0  0  0  0  0  0  0
   46.0310   34.9200   42.5780 C   0  0  0  0  0  0  0  0  0  0  0  0
   47.3080   34.3470   43.1870 C   0  0  0  0  0  0  0  0  0  0  0  0
   47.2610   34.8870   41.8040 C   0  0  0  0  0  0  0  0  0  0  0  0
   43.8393   35.5385   41.2157 H   0  0  0  0  0  0  0  0  0  0  0  0
   43.8237   30.9291   42.8649 H   0  0  0  0  0  0  0  0  0  0  0  0
   39.5244   34.1040   40.6873 H   0  0  0  0  0  0  0  0  0  0  0  0
   40.3587   34.4481   42.2186 H   0  0  0  0  0  0  0  0  0  0  0  0
   39.2509   36.4456   40.8998 H   0  0  0  0  0  0  0  0  0  0  0  0
   40.9091   36.6713   41.5567 H   0  0  0  0  0  0  0  0  0  0  0  0
   40.9260   35.6083   37.6786 H   0  0  0  0  0  0  0  0  0  0  0  0
   39.6700   34.8683   38.7425 H   0  0  0  0  0  0  0  0  0  0  0  0
   42.7185   34.3802   38.8047 H   0  0  0  0  0  0  0  0  0  0  0  0
   39.3346   32.8395   38.7288 H   0  0  0  0  0  0  0  0  0  0  0  0
   39.0636   30.6735   37.5670 H   0  0  0  0  0  0  0  0  0  0  0  0
   40.2893   28.8199   36.3430 H   0  0  0  0  0  0  0  0  0  0  0  0
   42.0574   28.9242   36.1300 H   0  0  0  0  0  0  0  0  0  0  0  0
   45.3124   35.7180   42.8161 H   0  0  0  0  0  0  0  0  0  0  0  0
   47.8400   34.8934   43.9797 H   0  0  0  0  0  0  0  0  0  0  0  0
   47.6037   33.3968   43.6556 H   0  0  0  0  0  0  0  0  0  0  0  0
   47.3464   34.1994   40.9497 H   0  0  0  0  0  0  0  0  0  0  0  0
   47.8418   35.6483   41.2627 H   0  0  0  0  0  0  0  0  0  0  0  0
  1 21  1  0
  1  6  1  0
  2  1  2  0
  3  2  1  0
  3  4  2  0
  4  5  1  0
  5  6  2  0
  7  8  1  0
  7  3  1  0
  9  8  1  0
 10  9  1  0
 11 12  1  0
 11 10  1  0
 12  7  1  0
 13 12  1  0
 14 13  1  0
 15 14  2  0
 16 18  2  0
 16 15  1  0
 17 16  1  0
 18 19  1  0
 19 20  2  0
 19 13  1  0
 21 22  1  0
 23 21  1  0
 23 22  1  0
  2 24  1  0
  5 25  1  0
  8 26  1  0
  8 27  1  0
  9 28  1  0
  9 29  1  0
 11 30  1  0
 11 31  1  0
 12 32  1  1
 14 33  1  0
 15 34  1  0
 17 35  1  0
 17 36  1  0
 21 37  1  0
 22 38  1  0
 22 39  1  0
 23 40  1  0
 23 41  1  0
M  ISO  8  24  14  25  14  26  13  27  13  28  13  29  13  30  13  31  13
M  ISO  8  32  13  33  14  34  14  37  13  38  13  39  13  40  13  41  13
M  END
>  <minimizedAffinity>  (1) 
-5.32125854

>  <minimizedRMSD>  (1) 
1.29519522

$$$$
