
     RDKit          3D

 37 39  0  0  1  0  0  0  0  0999 V2000
   44.7020   33.8700   42.4590 C   0  0  0  0  0  0  0  0  0  0  0  0
   43.7200   34.3340   41.5780 C   0  0  0  0  0  0  0  0  0  0  0  0
   42.6870   33.4950   41.1620 C   0  0  0  0  0  0  0  0  0  0  0  0
   42.6900   32.2310   41.6510 N   0  0  0  0  0  0  0  0  0  0  0  0
   43.6660   31.8080   42.5120 C   0  0  0  0  0  0  0  0  0  0  0  0
   44.6640   32.6340   42.9080 N   0  0  0  0  0  0  0  0  0  0  0  0
   41.6830   33.9250   40.2690 N   0  0  0  0  0  0  0  0  0  0  0  0
   40.3740   34.3860   40.6740 C   0  0  0  0  0  0  0  0  0  0  0  0
   40.2980   35.8510   40.3250 C   0  0  0  0  0  0  0  0  0  0  0  0
   40.9210   36.0750   39.1240 O   0  0  0  0  0  0  0  0  0  0  0  0
   40.9680   34.9740   38.2790 C   0  0  0  0  0  0  0  0  0  0  0  0
   41.9250   33.9170   38.8630 C   0  0  1  0  0  0  0  0  0  0  0  0
   45.7730   34.8370   42.8220 C   0  0  0  0  0  0  0  0  0  0  0  0
   47.1210   34.2780   43.2790 C   0  0  0  0  0  0  0  0  0  0  0  0
   46.9630   35.0390   42.0130 C   0  0  0  0  0  0  0  0  0  0  0  0
   43.2550   34.3820   38.5460 N   0  0  0  0  0  0  0  0  0  0  0  0
   43.9640   33.5040   37.6300 C   0  0  0  0  0  0  0  0  0  0  0  0
   43.6260   32.2590   37.5070 N   0  0  0  0  0  0  0  0  0  0  0  0
   45.0750   33.8950   36.7920 N   0  0  0  0  0  0  0  0  0  0  0  0
   44.0870   31.5840   36.8770 H   0  0  0  0  0  0  0  0  0  0  0  0
   43.7629   35.3698   41.2101 H   0  0  0  0  0  0  0  0  0  0  0  0
   43.6396   30.7755   42.8905 H   0  0  0  0  0  0  0  0  0  0  0  0
   39.5934   33.8281   40.1361 H   0  0  0  0  0  0  0  0  0  0  0  0
   40.2175   34.2294   41.7515 H   0  0  0  0  0  0  0  0  0  0  0  0
   39.2433   36.1548   40.2516 H   0  0  0  0  0  0  0  0  0  0  0  0
   40.7988   36.4378   41.1091 H   0  0  0  0  0  0  0  0  0  0  0  0
   41.3289   35.2876   37.2883 H   0  0  0  0  0  0  0  0  0  0  0  0
   39.9606   34.5427   38.1834 H   0  0  0  0  0  0  0  0  0  0  0  0
   41.7939   32.8967   38.4735 H   0  0  0  0  0  0  0  0  0  0  0  0
   45.0067   35.5218   43.2142 H   0  0  0  0  0  0  0  0  0  0  0  0
   47.6475   34.7251   44.1351 H   0  0  0  0  0  0  0  0  0  0  0  0
   47.5124   33.2908   43.5656 H   0  0  0  0  0  0  0  0  0  0  0  0
   47.0595   34.5159   41.0501 H   0  0  0  0  0  0  0  0  0  0  0  0
   47.4559   35.9278   41.5921 H   0  0  0  0  0  0  0  0  0  0  0  0
   43.6599   35.2477   38.9300 H   0  0  0  0  0  0  0  0  0  0  0  0
   45.5193   33.2042   36.1704 H   0  0  0  0  0  0  0  0  0  0  0  0
   45.4223   34.8644   36.8164 H   0  0  0  0  0  0  0  0  0  0  0  0
  1 13  1  0
  1  6  1  0
  2  1  2  0
  3  2  1  0
  3  4  2  0
  4  5  1  0
  5  6  2  0
  7  8  1  0
  7  3  1  0
  9  8  1  0
 10  9  1  0
 11 12  1  0
 11 10  1  0
 12  7  1  0
 13 14  1  0
 15 13  1  0
 15 14  1  0
 16 12  1  0
 17 16  1  0
 18 17  2  0
 19 17  1  0
 20 18  1  0
  2 21  1  0
  5 22  1  0
  8 23  1  0
  8 24  1  0
  9 25  1  0
  9 26  1  0
 11 27  1  0
 11 28  1  0
 12 29  1  6
 13 30  1  0
 14 31  1  0
 14 32  1  0
 15 33  1  0
 15 34  1  0
 16 35  1  0
 19 36  1  0
 19 37  1  0
M  ISO  8  21  14  22  14  23  13  24  13  25  13  26  13  27  13  28  13
M  ISO  6  29  13  30  13  31  13  32  13  33  13  34  13
M  END
>  <minimizedAffinity>  (1) 
-5.33058977

>  <minimizedRMSD>  (1) 
1.02506447

$$$$
