
     RDKit          3D

 38 41  0  0  1  0  0  0  0  0999 V2000
   44.8820   34.0100   42.1910 C   0  0  0  0  0  0  0  0  0  0  0  0
   43.7970   34.4960   41.4370 C   0  0  0  0  0  0  0  0  0  0  0  0
   42.6980   33.6580   41.1890 C   0  0  0  0  0  0  0  0  0  0  0  0
   42.7320   32.4110   41.6880 N   0  0  0  0  0  0  0  0  0  0  0  0
   43.8080   31.9780   42.4180 C   0  0  0  0  0  0  0  0  0  0  0  0
   44.8690   32.7830   42.6590 N   0  0  0  0  0  0  0  0  0  0  0  0
   41.5780   34.1140   40.4370 N   0  0  0  0  0  0  0  0  0  0  0  0
   40.3490   34.6030   41.0090 C   0  0  0  0  0  0  0  0  0  0  0  0
   40.2630   36.0870   40.6540 C   0  0  0  0  0  0  0  0  0  0  0  0
   40.7350   36.2930   39.3750 O   0  0  0  0  0  0  0  0  0  0  0  0
   40.6470   35.1880   38.5540 C   0  0  0  0  0  0  0  0  0  0  0  0
   41.6410   34.1040   39.0040 C   0  0  2  0  0  0  0  0  0  0  0  0
   46.0010   34.9410   42.4100 C   0  0  0  0  0  0  0  0  0  0  0  0
   47.2550   34.4210   43.1130 C   0  0  0  0  0  0  0  0  0  0  0  0
   47.2650   34.8580   41.6920 C   0  0  0  0  0  0  0  0  0  0  0  0
   41.3610   32.8160   38.3720 C   0  0  0  0  0  0  0  0  0  0  0  0
   42.3350   31.9430   37.9220 C   0  0  0  0  0  0  0  0  0  0  0  0
   41.9910   30.7460   37.3360 C   0  0  0  0  0  0  0  0  0  0  0  0
   40.6750   30.4420   37.2090 N   0  0  0  0  0  0  0  0  0  0  0  0
   39.7090   31.2920   37.6470 C   0  0  0  0  0  0  0  0  0  0  0  0
   40.0760   32.4520   38.2150 N   0  0  0  0  0  0  0  0  0  0  0  0
   43.8101   35.5238   41.0453 H   0  0  0  0  0  0  0  0  0  0  0  0
   43.8094   30.9530   42.8171 H   0  0  0  0  0  0  0  0  0  0  0  0
   39.4908   34.0609   40.5851 H   0  0  0  0  0  0  0  0  0  0  0  0
   40.3314   34.4539   42.0987 H   0  0  0  0  0  0  0  0  0  0  0  0
   39.2149   36.4157   40.7131 H   0  0  0  0  0  0  0  0  0  0  0  0
   40.8750   36.6643   41.3626 H   0  0  0  0  0  0  0  0  0  0  0  0
   40.8784   35.4852   37.5205 H   0  0  0  0  0  0  0  0  0  0  0  0
   39.6264   34.7817   38.6114 H   0  0  0  0  0  0  0  0  0  0  0  0
   42.6742   34.3025   38.6828 H   0  0  0  0  0  0  0  0  0  0  0  0
   45.2707   35.7511   42.5532 H   0  0  0  0  0  0  0  0  0  0  0  0
   47.7517   35.0272   43.8848 H   0  0  0  0  0  0  0  0  0  0  0  0
   47.5334   33.5094   43.6621 H   0  0  0  0  0  0  0  0  0  0  0  0
   47.3883   34.1099   40.8950 H   0  0  0  0  0  0  0  0  0  0  0  0
   47.8662   35.5808   41.1210 H   0  0  0  0  0  0  0  0  0  0  0  0
   43.3966   32.2084   38.0337 H   0  0  0  0  0  0  0  0  0  0  0  0
   42.7657   30.0516   36.9787 H   0  0  0  0  0  0  0  0  0  0  0  0
   38.6452   31.0341   37.5381 H   0  0  0  0  0  0  0  0  0  0  0  0
  1 13  1  0
  1  6  1  0
  2  1  2  0
  3  2  1  0
  3  4  2  0
  4  5  1  0
  5  6  2  0
  7  8  1  0
  7  3  1  0
  9  8  1  0
 10  9  1  0
 11 12  1  0
 11 10  1  0
 12  7  1  0
 13 14  1  0
 15 13  1  0
 15 14  1  0
 16 12  1  0
 17 16  2  0
 18 17  1  0
 19 18  2  0
 19 20  1  0
 20 21  2  0
 21 16  1  0
  2 22  1  0
  5 23  1  0
  8 24  1  0
  8 25  1  0
  9 26  1  0
  9 27  1  0
 11 28  1  0
 11 29  1  0
 12 30  1  1
 13 31  1  0
 14 32  1  0
 14 33  1  0
 15 34  1  0
 15 35  1  0
 17 36  1  0
 18 37  1  0
 20 38  1  0
M  ISO  8  22  14  23  14  24  13  25  13  26  13  27  13  28  13  29  13
M  ISO  8  30  13  31  13  32  13  33  13  34  13  35  13  36  14  37  14
M  ISO  1  38  14
M  END
>  <minimizedAffinity>  (1) 
-5.12164259

>  <minimizedRMSD>  (1) 
1.46614945

$$$$
