
     RDKit          3D

 37 40  0  0  1  0  0  0  0  0999 V2000
   45.1250   34.4590   42.0520 C   0  0  0  0  0  0  0  0  0  0  0  0
   43.7980   33.9820   42.0010 C   0  0  0  0  0  0  0  0  0  0  0  0
   43.3570   33.2790   40.8800 C   0  0  0  0  0  0  0  0  0  0  0  0
   44.2440   33.0850   39.8790 N   0  0  0  0  0  0  0  0  0  0  0  0
   45.5250   33.5640   39.9680 C   0  0  0  0  0  0  0  0  0  0  0  0
   45.9510   34.2450   41.0520 N   0  0  0  0  0  0  0  0  0  0  0  0
   42.0390   32.7950   40.7760 N   0  0  0  0  0  0  0  0  0  0  0  0
   41.6220   31.4480   41.0910 C   0  0  0  0  0  0  0  0  0  0  0  0
   40.7230   31.5270   42.2960 C   0  0  0  0  0  0  0  0  0  0  0  0
   39.9260   32.6390   42.2320 O   0  0  0  0  0  0  0  0  0  0  0  0
   39.6940   33.1050   40.9600 C   0  0  0  0  0  0  0  0  0  0  0  0
   40.9860   33.6560   40.3230 C   0  0  1  0  0  0  0  0  0  0  0  0
   45.4950   35.2260   43.2760 C   0  0  0  0  0  0  0  0  0  0  0  0
   45.1680   36.7170   43.3100 C   0  0  0  0  0  0  0  0  0  0  0  0
   44.5220   35.7360   44.2210 C   0  0  0  0  0  0  0  0  0  0  0  0
   41.1640   35.1110   40.5020 C   0  0  0  0  0  0  0  0  0  0  0  0
   40.0520   36.0810   40.4590 C   0  0  0  0  0  0  0  0  0  0  0  0
   40.9100   35.9660   39.2550 C   0  0  0  0  0  0  0  0  0  0  0  0
   43.1135   34.1640   42.8426 H   0  0  0  0  0  0  0  0  0  0  0  0
   46.2226   33.3890   39.1357 H   0  0  0  0  0  0  0  0  0  0  0  0
   41.0745   31.0151   40.2408 H   0  0  0  0  0  0  0  0  0  0  0  0
   42.4934   30.8090   41.2969 H   0  0  0  0  0  0  0  0  0  0  0  0
   40.0884   30.6293   42.3328 H   0  0  0  0  0  0  0  0  0  0  0  0
   41.3469   31.5900   43.1998 H   0  0  0  0  0  0  0  0  0  0  0  0
   39.3118   32.2806   40.3401 H   0  0  0  0  0  0  0  0  0  0  0  0
   38.9586   33.9210   41.0170 H   0  0  0  0  0  0  0  0  0  0  0  0
   40.9636   33.6205   39.2238 H   0  0  0  0  0  0  0  0  0  0  0  0
   46.3836   34.5879   43.3908 H   0  0  0  0  0  0  0  0  0  0  0  0
   45.9010   37.4392   43.6988 H   0  0  0  0  0  0  0  0  0  0  0  0
   44.8254   37.4698   42.5848 H   0  0  0  0  0  0  0  0  0  0  0  0
   43.4576   35.4920   44.0886 H   0  0  0  0  0  0  0  0  0  0  0  0
   44.4128   35.6680   45.3135 H   0  0  0  0  0  0  0  0  0  0  0  0
   41.9603   34.9352   41.2402 H   0  0  0  0  0  0  0  0  0  0  0  0
   39.0146   35.7169   40.4235 H   0  0  0  0  0  0  0  0  0  0  0  0
   39.7458   36.9202   41.1008 H   0  0  0  0  0  0  0  0  0  0  0  0
   40.5174   35.5040   38.3372 H   0  0  0  0  0  0  0  0  0  0  0  0
   41.5046   36.6612   38.6442 H   0  0  0  0  0  0  0  0  0  0  0  0
  1 13  1  0
  2  1  2  0
  3  2  1  0
  4  5  1  0
  4  3  2  0
  5  6  2  0
  6  1  1  0
  7  3  1  0
  7  8  1  0
  8  9  1  0
 10  9  1  0
 11 10  1  0
 12 16  1  0
 12  7  1  0
 12 11  1  0
 13 14  1  0
 13 15  1  0
 14 15  1  0
 17 16  1  0
 18 17  1  0
 18 16  1  0
  2 19  1  0
  5 20  1  0
  8 21  1  0
  8 22  1  0
  9 23  1  0
  9 24  1  0
 11 25  1  0
 11 26  1  0
 12 27  1  6
 13 28  1  0
 14 29  1  0
 14 30  1  0
 15 31  1  0
 15 32  1  0
 16 33  1  0
 17 34  1  0
 17 35  1  0
 18 36  1  0
 18 37  1  0
M  ISO  8  19  14  20  14  21  13  22  13  23  13  24  13  25  13  26  13
M  ISO  8  27  13  28  13  29  13  30  13  31  13  32  13  33  13  34  13
M  ISO  3  35  13  36  13  37  13
M  END
>  <minimizedAffinity>  (1) 
-5.04514647

>  <minimizedRMSD>  (1) 
2.79969931

$$$$
