
     RDKit          3D

 38 41  0  0  1  0  0  0  0  0999 V2000
   44.4570   33.4570   42.5310 C   0  0  0  0  0  0  0  0  0  0  0  0
   43.4820   34.0280   41.6960 C   0  0  0  0  0  0  0  0  0  0  0  0
   42.4130   33.2390   41.2440 C   0  0  0  0  0  0  0  0  0  0  0  0
   42.3700   31.9610   41.6360 N   0  0  0  0  0  0  0  0  0  0  0  0
   43.3390   31.4410   42.4520 C   0  0  0  0  0  0  0  0  0  0  0  0
   44.3710   32.1950   42.8900 N   0  0  0  0  0  0  0  0  0  0  0  0
   41.3980   33.7870   40.4000 N   0  0  0  0  0  0  0  0  0  0  0  0
   40.1170   34.2560   40.8520 C   0  0  0  0  0  0  0  0  0  0  0  0
   40.0980   35.7580   40.6110 C   0  0  0  0  0  0  0  0  0  0  0  0
   40.7230   36.0540   39.4240 O   0  0  0  0  0  0  0  0  0  0  0  0
   40.7200   35.0170   38.5110 C   0  0  0  0  0  0  0  0  0  0  0  0
   41.6470   33.8940   38.9910 C   0  0  2  0  0  0  0  0  0  0  0  0
   45.5550   34.3430   42.9640 C   0  0  0  0  0  0  0  0  0  0  0  0
   46.5340   34.8550   41.9150 C   0  0  0  0  0  0  0  0  0  0  0  0
   45.6090   35.7610   42.6430 C   0  0  0  0  0  0  0  0  0  0  0  0
   41.4650   32.6530   38.2500 C   0  0  0  0  0  0  0  0  0  0  0  0
   42.4020   31.8140   37.6810 C   0  0  0  0  0  0  0  0  0  0  0  0
   42.0020   30.6700   37.0130 C   0  0  0  0  0  0  0  0  0  0  0  0
   40.6840   30.3540   36.9050 N   0  0  0  0  0  0  0  0  0  0  0  0
   39.7620   31.1870   37.4690 C   0  0  0  0  0  0  0  0  0  0  0  0
   40.1520   32.3010   38.1210 N   0  0  0  0  0  0  0  0  0  0  0  0
   43.5559   35.0846   41.3990 H   0  0  0  0  0  0  0  0  0  0  0  0
   43.2758   30.3862   42.7576 H   0  0  0  0  0  0  0  0  0  0  0  0
   39.3115   33.7694   40.2825 H   0  0  0  0  0  0  0  0  0  0  0  0
   39.9597   34.0214   41.9151 H   0  0  0  0  0  0  0  0  0  0  0  0
   39.0555   36.1067   40.5700 H   0  0  0  0  0  0  0  0  0  0  0  0
   40.6291   36.2610   41.4325 H   0  0  0  0  0  0  0  0  0  0  0  0
   41.0713   35.3881   37.5369 H   0  0  0  0  0  0  0  0  0  0  0  0
   39.6971   34.6243   38.4135 H   0  0  0  0  0  0  0  0  0  0  0  0
   42.7066   34.1216   38.8029 H   0  0  0  0  0  0  0  0  0  0  0  0
   45.6056   33.7841   43.9101 H   0  0  0  0  0  0  0  0  0  0  0  0
   46.3725   34.6349   40.8494 H   0  0  0  0  0  0  0  0  0  0  0  0
   47.6206   34.7983   41.7535 H   0  0  0  0  0  0  0  0  0  0  0  0
   46.0121   36.4701   43.3811 H   0  0  0  0  0  0  0  0  0  0  0  0
   44.8593   36.5012   42.3268 H   0  0  0  0  0  0  0  0  0  0  0  0
   43.4722   32.0561   37.7590 H   0  0  0  0  0  0  0  0  0  0  0  0
   42.7585   30.0092   36.5646 H   0  0  0  0  0  0  0  0  0  0  0  0
   38.6912   30.9476   37.3911 H   0  0  0  0  0  0  0  0  0  0  0  0
  1  6  1  0
  1 13  1  0
  2  1  2  0
  3  4  2  0
  3  2  1  0
  4  5  1  0
  5  6  2  0
  7  8  1  0
  7  3  1  0
  9  8  1  0
 10  9  1  0
 11 12  1  0
 11 10  1  0
 12  7  1  0
 14 15  1  0
 14 13  1  0
 15 13  1  0
 16 12  1  0
 17 16  2  0
 18 17  1  0
 19 18  2  0
 19 20  1  0
 20 21  2  0
 21 16  1  0
  2 22  1  0
  5 23  1  0
  8 24  1  0
  8 25  1  0
  9 26  1  0
  9 27  1  0
 11 28  1  0
 11 29  1  0
 12 30  1  1
 13 31  1  0
 14 32  1  0
 14 33  1  0
 15 34  1  0
 15 35  1  0
 17 36  1  0
 18 37  1  0
 20 38  1  0
M  ISO  8  22  14  23  14  24  13  25  13  26  13  27  13  28  13  29  13
M  ISO  8  30  13  31  13  32  13  33  13  34  13  35  13  36  14  37  14
M  ISO  1  38  14
M  END
>  <minimizedAffinity>  (1) 
-4.94032383

>  <minimizedRMSD>  (1) 
0.843073845

$$$$
