
     RDKit          3D

 43 46  0  0  1  0  0  0  0  0999 V2000
   44.3100   32.7050   42.3190 C   0  0  0  0  0  0  0  0  0  0  0  0
   43.3570   33.3460   41.5260 C   0  0  0  0  0  0  0  0  0  0  0  0
   42.1190   32.7610   41.2800 C   0  0  0  0  0  0  0  0  0  0  0  0
   41.8930   31.5490   41.8480 N   0  0  0  0  0  0  0  0  0  0  0  0
   42.8390   30.9410   42.6190 C   0  0  0  0  0  0  0  0  0  0  0  0
   44.0390   31.5170   42.8510 N   0  0  0  0  0  0  0  0  0  0  0  0
   41.1340   33.3720   40.4700 N   0  0  0  0  0  0  0  0  0  0  0  0
   40.0410   34.1740   40.9840 C   0  0  0  0  0  0  0  0  0  0  0  0
   40.2600   35.5860   40.5190 C   0  0  0  0  0  0  0  0  0  0  0  0
   40.7860   35.5900   39.2420 O   0  0  0  0  0  0  0  0  0  0  0  0
   40.4780   34.4800   38.4960 C   0  0  0  0  0  0  0  0  0  0  0  0
   41.1530   33.2060   39.0630 C   0  0  1  0  0  0  0  0  0  0  0  0
   45.6080   33.3880   42.5050 C   0  0  0  0  0  0  0  0  0  0  0  0
   46.6850   33.1750   41.4380 C   0  0  0  0  0  0  0  0  0  0  0  0
   46.0410   34.4910   41.6710 C   0  0  0  0  0  0  0  0  0  0  0  0
   44.6710   32.0810   36.8950 C   0  0  0  0  0  0  0  0  0  0  0  0
   43.5790   31.2410   36.9530 C   0  0  0  0  0  0  0  0  0  0  0  0
   42.4900   31.6730   37.6800 C   0  0  0  0  0  0  0  0  0  0  0  0
   42.3740   32.8930   38.3720 C   0  0  0  0  0  0  0  0  0  0  0  0
   43.5210   33.6290   38.2340 C   0  0  0  0  0  0  0  0  0  0  0  0
   44.6600   33.2990   37.5400 C   0  0  0  0  0  0  0  0  0  0  0  0
   46.0900   31.6090   35.9980 S   0  0  0  0  0  0  0  0  0  0  0  0
   46.1780   30.1160   35.8360 O   0  0  0  0  0  0  0  0  0  0  0  0
   46.0250   32.1870   34.5910 O   0  0  0  0  0  0  0  0  0  0  0  0
   43.5883   34.3286   41.0889 H   0  0  0  0  0  0  0  0  0  0  0  0
   42.6201   29.9585   43.0626 H   0  0  0  0  0  0  0  0  0  0  0  0
   39.0832   33.7955   40.5975 H   0  0  0  0  0  0  0  0  0  0  0  0
   40.0097   34.1281   42.0826 H   0  0  0  0  0  0  0  0  0  0  0  0
   39.2993   36.1217   40.5182 H   0  0  0  0  0  0  0  0  0  0  0  0
   40.9660   36.0835   41.2002 H   0  0  0  0  0  0  0  0  0  0  0  0
   40.8228   34.6371   37.4633 H   0  0  0  0  0  0  0  0  0  0  0  0
   39.3881   34.3353   38.5287 H   0  0  0  0  0  0  0  0  0  0  0  0
   40.6277   32.2588   38.8710 H   0  0  0  0  0  0  0  0  0  0  0  0
   45.5112   33.2633   43.5936 H   0  0  0  0  0  0  0  0  0  0  0  0
   46.4613   32.5988   40.5281 H   0  0  0  0  0  0  0  0  0  0  0  0
   47.7149   32.7892   41.4174 H   0  0  0  0  0  0  0  0  0  0  0  0
   46.6262   35.3093   42.1159 H   0  0  0  0  0  0  0  0  0  0  0  0
   45.5141   35.2052   41.0211 H   0  0  0  0  0  0  0  0  0  0  0  0
   43.5768   30.2675   36.4409 H   0  0  0  0  0  0  0  0  0  0  0  0
   41.6244   30.9956   37.7235 H   0  0  0  0  0  0  0  0  0  0  0  0
   43.5315   34.6049   38.7415 H   0  0  0  0  0  0  0  0  0  0  0  0
   45.5252   33.9772   37.5009 H   0  0  0  0  0  0  0  0  0  0  0  0
   47.1716   32.0728   36.6994 H   0  0  0  0  0  0  0  0  0  0  0  0
  1 13  1  0
  1  6  1  0
  2  1  2  0
  3  2  1  0
  3  4  2  0
  4  5  1  0
  5  6  2  0
  7  8  1  0
  7  3  1  0
  9  8  1  0
 10  9  1  0
 11 12  1  0
 11 10  1  0
 12  7  1  0
 14 15  1  0
 14 13  1  0
 15 13  1  0
 16 17  2  0
 16 21  1  0
 17 18  1  0
 18 19  2  0
 19 12  1  0
 20 19  1  0
 21 20  2  0
 22 16  1  0
 23 22  2  0
 24 22  2  0
  2 25  1  0
  5 26  1  0
  8 27  1  0
  8 28  1  0
  9 29  1  0
  9 30  1  0
 11 31  1  0
 11 32  1  0
 12 33  1  1
 13 34  1  0
 14 35  1  0
 14 36  1  0
 15 37  1  0
 15 38  1  0
 17 39  1  0
 18 40  1  0
 20 41  1  0
 21 42  1  0
 22 43  1  0
M  ISO  8  25  14  26  14  27  13  28  13  29  13  30  13  31  13  32  13
M  ISO  8  33  13  34  13  35  13  36  13  37  13  38  13  39  14  40  14
M  ISO  3  41  14  42  14  43  11
M  END
>  <minimizedAffinity>  (1) 
-4.51376247

>  <minimizedRMSD>  (1) 
2.50717759

$$$$
