
     RDKit          3D

 45 48  0  0  1  0  0  0  0  0999 V2000
   46.6900   34.5390   42.3790 C   0  0  0  0  0  0  0  0  0  0  0  0
   45.5830   34.5280   41.5250 C   0  0  0  0  0  0  0  0  0  0  0  0
   44.4980   33.6930   41.7790 C   0  0  0  0  0  0  0  0  0  0  0  0
   44.5700   32.9030   42.8790 N   0  0  0  0  0  0  0  0  0  0  0  0
   45.6660   32.9350   43.6980 C   0  0  0  0  0  0  0  0  0  0  0  0
   46.7120   33.7460   43.4450 N   0  0  0  0  0  0  0  0  0  0  0  0
   43.3690   33.6520   40.9400 N   0  0  0  0  0  0  0  0  0  0  0  0
   42.1470   34.3960   41.1540 C   0  0  0  0  0  0  0  0  0  0  0  0
   42.0260   35.4030   40.0410 C   0  0  0  0  0  0  0  0  0  0  0  0
   42.4790   34.8760   38.8580 O   0  0  0  0  0  0  0  0  0  0  0  0
   42.3910   33.4850   38.7830 C   0  0  0  0  0  0  0  0  0  0  0  0
   43.3550   32.8320   39.7770 C   0  0  1  0  0  0  0  0  0  0  0  0
   47.8150   35.4400   42.0330 C   0  0  0  0  0  0  0  0  0  0  0  0
   49.2330   34.8710   42.0660 C   0  0  0  0  0  0  0  0  0  0  0  0
   48.5750   35.2910   40.8030 C   0  0  0  0  0  0  0  0  0  0  0  0
   44.5660   32.4150   39.2040 N   0  0  0  0  0  0  0  0  0  0  0  0
   44.9930   32.9740   37.9800 C   0  0  0  0  0  0  0  0  0  0  0  0
   45.3130   31.8020   37.0430 C   0  0  0  0  0  0  0  0  0  0  0  0
   46.4750   31.0750   37.6800 C   0  0  0  0  0  0  0  0  0  0  0  0
   45.9920   30.4160   38.9490 C   0  0  0  0  0  0  0  0  0  0  0  0
   44.6420   30.9680   39.2900 C   0  0  0  0  0  0  0  0  0  0  0  0
   45.5690   35.1857   40.6434 H   0  0  0  0  0  0  0  0  0  0  0  0
   45.6937   32.2833   44.5837 H   0  0  0  0  0  0  0  0  0  0  0  0
   41.2846   33.7134   41.1376 H   0  0  0  0  0  0  0  0  0  0  0  0
   42.1683   34.9009   42.1310 H   0  0  0  0  0  0  0  0  0  0  0  0
   40.9703   35.6903   39.9274 H   0  0  0  0  0  0  0  0  0  0  0  0
   42.6364   36.2828   40.2926 H   0  0  0  0  0  0  0  0  0  0  0  0
   41.3625   33.1742   39.0188 H   0  0  0  0  0  0  0  0  0  0  0  0
   42.6598   33.1661   37.7651 H   0  0  0  0  0  0  0  0  0  0  0  0
   43.0138   31.8422   40.1143 H   0  0  0  0  0  0  0  0  0  0  0  0
   47.2770   36.2821   42.4928 H   0  0  0  0  0  0  0  0  0  0  0  0
   50.0601   35.4623   42.4858 H   0  0  0  0  0  0  0  0  0  0  0  0
   49.7090   33.9539   42.4432 H   0  0  0  0  0  0  0  0  0  0  0  0
   48.2745   34.5292   40.0686 H   0  0  0  0  0  0  0  0  0  0  0  0
   48.8533   35.9793   39.9914 H   0  0  0  0  0  0  0  0  0  0  0  0
   44.1945   33.5958   37.5490 H   0  0  0  0  0  0  0  0  0  0  0  0
   45.8756   33.6141   38.1259 H   0  0  0  0  0  0  0  0  0  0  0  0
   45.5928   32.1733   36.0461 H   0  0  0  0  0  0  0  0  0  0  0  0
   44.4444   31.1405   36.9088 H   0  0  0  0  0  0  0  0  0  0  0  0
   46.8584   30.3107   36.9880 H   0  0  0  0  0  0  0  0  0  0  0  0
   47.2832   31.7852   37.9090 H   0  0  0  0  0  0  0  0  0  0  0  0
   45.9205   29.3288   38.7979 H   0  0  0  0  0  0  0  0  0  0  0  0
   46.6979   30.6161   39.7686 H   0  0  0  0  0  0  0  0  0  0  0  0
   44.3933   30.6674   40.3185 H   0  0  0  0  0  0  0  0  0  0  0  0
   43.9331   30.5638   38.5524 H   0  0  0  0  0  0  0  0  0  0  0  0
  1  6  2  0
  2  3  2  0
  2  1  1  0
  3  4  1  0
  4  5  2  0
  6  5  1  0
  7  8  1  0
  7  3  1  0
  9  8  1  0
 10  9  1  0
 11 10  1  0
 11 12  1  0
 12  7  1  0
 13 14  1  0
 13  1  1  0
 15 13  1  0
 15 14  1  0
 16 21  1  0
 16 12  1  0
 17 16  1  0
 18 19  1  0
 18 17  1  0
 19 20  1  0
 20 21  1  0
  2 22  1  0
  5 23  1  0
  8 24  1  0
  8 25  1  0
  9 26  1  0
  9 27  1  0
 11 28  1  0
 11 29  1  0
 12 30  1  1
 13 31  1  0
 14 32  1  0
 14 33  1  0
 15 34  1  0
 15 35  1  0
 17 36  1  0
 17 37  1  0
 18 38  1  0
 18 39  1  0
 19 40  1  0
 19 41  1  0
 20 42  1  0
 20 43  1  0
 21 44  1  0
 21 45  1  0
M  ISO  8  22  14  23  14  24  13  25  13  26  13  27  13  28  13  29  13
M  ISO  8  30  13  31  13  32  13  33  13  34  13  35  13  36  13  37  13
M  ISO  8  38  13  39  13  40  13  41  13  42  13  43  13  44  13  45  13
M  END
>  <minimizedAffinity>  (1) 
-4.67605352

>  <minimizedRMSD>  (1) 
2.64049554

$$$$
