
     RDKit          3D

 37 40  0  0  1  0  0  0  0  0999 V2000
   44.3110   32.9160   42.1640 C   0  0  0  0  0  0  0  0  0  0  0  0
   43.4290   33.6020   41.2980 C   0  0  0  0  0  0  0  0  0  0  0  0
   42.1690   33.0110   41.0410 C   0  0  0  0  0  0  0  0  0  0  0  0
   41.8730   31.8370   41.6280 N   0  0  0  0  0  0  0  0  0  0  0  0
   42.7680   31.2210   42.4570 C   0  0  0  0  0  0  0  0  0  0  0  0
   43.9770   31.7690   42.7150 N   0  0  0  0  0  0  0  0  0  0  0  0
   41.2280   33.6380   40.1900 N   0  0  0  0  0  0  0  0  0  0  0  0
   40.1270   34.4620   40.6230 C   0  0  0  0  0  0  0  0  0  0  0  0
   40.4100   35.8810   40.1680 C   0  0  0  0  0  0  0  0  0  0  0  0
   40.9920   35.8660   38.9210 O   0  0  0  0  0  0  0  0  0  0  0  0
   40.6870   34.7580   38.1650 C   0  0  0  0  0  0  0  0  0  0  0  0
   41.3150   33.4900   38.7690 C   0  0  1  0  0  0  0  0  0  0  0  0
   45.6250   33.5690   42.3980 C   0  0  0  0  0  0  0  0  0  0  0  0
   46.8260   33.0580   41.6010 C   0  0  0  0  0  0  0  0  0  0  0  0
   46.2620   34.4210   41.4120 C   0  0  0  0  0  0  0  0  0  0  0  0
   42.6270   33.1950   38.2140 C   0  0  0  0  0  0  0  0  0  0  0  0
   43.1140   31.9320   37.9000 C   0  0  0  0  0  0  0  0  0  0  0  0
   44.3640   32.0230   37.4200 N   0  0  0  0  0  0  0  0  0  0  0  0
   44.7050   33.3260   37.4170 C   0  0  0  0  0  0  0  0  0  0  0  0
   43.6410   33.9960   37.8980 N   0  0  0  0  0  0  0  0  0  0  0  0
   43.7120   34.5613   40.8401 H   0  0  0  0  0  0  0  0  0  0  0  0
   42.4999   30.2614   42.9231 H   0  0  0  0  0  0  0  0  0  0  0  0
   39.1900   34.1033   40.1721 H   0  0  0  0  0  0  0  0  0  0  0  0
   40.0205   34.4209   41.7171 H   0  0  0  0  0  0  0  0  0  0  0  0
   39.4665   36.4447   40.1233 H   0  0  0  0  0  0  0  0  0  0  0  0
   41.0961   36.3601   40.8820 H   0  0  0  0  0  0  0  0  0  0  0  0
   41.0738   34.9005   37.1452 H   0  0  0  0  0  0  0  0  0  0  0  0
   39.5941   34.6346   38.1482 H   0  0  0  0  0  0  0  0  0  0  0  0
   40.7690   32.5758   38.4932 H   0  0  0  0  0  0  0  0  0  0  0  0
   45.3601   33.7140   43.4557 H   0  0  0  0  0  0  0  0  0  0  0  0
   47.8018   32.9220   42.0901 H   0  0  0  0  0  0  0  0  0  0  0  0
   47.0391   32.1923   40.9567 H   0  0  0  0  0  0  0  0  0  0  0  0
   46.8384   35.2972   41.7438 H   0  0  0  0  0  0  0  0  0  0  0  0
   45.8959   34.9790   40.5376 H   0  0  0  0  0  0  0  0  0  0  0  0
   42.5554   30.9929   38.0266 H   0  0  0  0  0  0  0  0  0  0  0  0
   45.6619   33.7568   37.0873 H   0  0  0  0  0  0  0  0  0  0  0  0
   43.6148   35.0196   38.0095 H   0  0  0  0  0  0  0  0  0  0  0  0
  1 13  1  0
  1  6  1  0
  2  1  2  0
  3  2  1  0
  3  4  2  0
  4  5  1  0
  5  6  2  0
  7  8  1  0
  7  3  1  0
  9  8  1  0
 10  9  1  0
 11 12  1  0
 11 10  1  0
 12  7  1  0
 14 13  1  0
 15 14  1  0
 15 13  1  0
 16 12  1  0
 17 16  2  0
 18 17  1  0
 19 18  2  0
 19 20  1  0
 20 16  1  0
  2 21  1  0
  5 22  1  0
  8 23  1  0
  8 24  1  0
  9 25  1  0
  9 26  1  0
 11 27  1  0
 11 28  1  0
 12 29  1  6
 13 30  1  0
 14 31  1  0
 14 32  1  0
 15 33  1  0
 15 34  1  0
 17 35  1  0
 19 36  1  0
 20 37  1  0
M  ISO  8  21  14  22  14  23  13  24  13  25  13  26  13  27  13  28  13
M  ISO  8  29  13  30  13  31  13  32  13  33  13  34  13  35  14  36  14
M  ISO  1  37   9
M  END
>  <minimizedAffinity>  (1) 
-4.51974869

>  <minimizedRMSD>  (1) 
1.57042456

$$$$
