
     RDKit          3D

 31 33  0  0  1  0  0  0  0  0999 V2000
   44.3670   33.7070   42.6560 C   0  0  0  0  0  0  0  0  0  0  0  0
   43.4260   34.2250   41.7480 C   0  0  0  0  0  0  0  0  0  0  0  0
   42.6070   33.3490   41.0180 C   0  0  0  0  0  0  0  0  0  0  0  0
   42.7650   32.0290   41.2250 N   0  0  0  0  0  0  0  0  0  0  0  0
   43.6960   31.5710   42.1190 C   0  0  0  0  0  0  0  0  0  0  0  0
   44.4790   32.4020   42.8190 N   0  0  0  0  0  0  0  0  0  0  0  0
   41.6370   33.8340   40.1010 N   0  0  0  0  0  0  0  0  0  0  0  0
   40.2370   34.0140   40.3940 C   0  0  0  0  0  0  0  0  0  0  0  0
   39.9560   35.5060   40.3430 C   0  0  0  0  0  0  0  0  0  0  0  0
   40.6790   36.0900   39.3340 O   0  0  0  0  0  0  0  0  0  0  0  0
   41.0160   35.2380   38.3030 C   0  0  0  0  0  0  0  0  0  0  0  0
   42.0460   34.1850   38.7680 C   0  0  2  0  0  0  0  0  0  0  0  0
   45.1990   34.6850   43.3830 C   0  0  0  0  0  0  0  0  0  0  0  0
   46.4020   35.2900   42.6600 C   0  0  0  0  0  0  0  0  0  0  0  0
   45.2240   36.1010   43.0600 C   0  0  0  0  0  0  0  0  0  0  0  0
   41.9050   33.1010   37.8880 O   0  0  0  0  0  0  0  0  0  0  0  0
   43.3321   35.3123   41.6104 H   0  0  0  0  0  0  0  0  0  0  0  0
   43.8040   30.4863   42.2668 H   0  0  0  0  0  0  0  0  0  0  0  0
   39.6248   33.4893   39.6457 H   0  0  0  0  0  0  0  0  0  0  0  0
   39.9892   33.6034   41.3840 H   0  0  0  0  0  0  0  0  0  0  0  0
   38.8831   35.6677   40.1618 H   0  0  0  0  0  0  0  0  0  0  0  0
   40.2474   35.9591   41.3021 H   0  0  0  0  0  0  0  0  0  0  0  0
   41.4483   35.8243   37.4788 H   0  0  0  0  0  0  0  0  0  0  0  0
   40.1073   34.7154   37.9696 H   0  0  0  0  0  0  0  0  0  0  0  0
   43.0942   34.5187   38.7690 H   0  0  0  0  0  0  0  0  0  0  0  0
   45.0106   34.1303   44.3140 H   0  0  0  0  0  0  0  0  0  0  0  0
   46.5866   35.0619   41.5998 H   0  0  0  0  0  0  0  0  0  0  0  0
   47.4879   35.3339   42.8302 H   0  0  0  0  0  0  0  0  0  0  0  0
   45.3236   36.8401   43.8686 H   0  0  0  0  0  0  0  0  0  0  0  0
   44.5405   36.7706   42.5173 H   0  0  0  0  0  0  0  0  0  0  0  0
   41.7963   32.2657   38.4081 H   0  0  0  0  0  0  0  0  0  0  0  0
  1  6  1  0
  1 13  1  0
  2  1  2  0
  3  4  2  0
  3  2  1  0
  4  5  1  0
  5  6  2  0
  7  8  1  0
  7  3  1  0
  9  8  1  0
 10  9  1  0
 11 12  1  0
 11 10  1  0
 12  7  1  0
 14 15  1  0
 14 13  1  0
 15 13  1  0
 16 12  1  0
  2 17  1  0
  5 18  1  0
  8 19  1  0
  8 20  1  0
  9 21  1  0
  9 22  1  0
 11 23  1  0
 11 24  1  0
 12 25  1  1
 13 26  1  0
 14 27  1  0
 14 28  1  0
 15 29  1  0
 15 30  1  0
 16 31  1  0
M  ISO  8  17  14  18  14  19  13  20  13  21  13  22  13  23  13  24  13
M  ISO  7  25  13  26  13  27  13  28  13  29  13  30  13  31   3
M  END
>  <minimizedAffinity>  (1) 
-4.63280964

>  <minimizedRMSD>  (1) 
0.0921366736

$$$$
