
     RDKit          3D

 36 38  0  0  1  0  0  0  0  0999 V2000
   44.0630   33.5930   41.6660 C   0  0  0  0  0  0  0  0  0  0  0  0
   42.8020   33.8390   41.0870 C   0  0  0  0  0  0  0  0  0  0  0  0
   42.3230   33.0110   40.0700 C   0  0  0  0  0  0  0  0  0  0  0  0
   43.1150   31.9860   39.6800 N   0  0  0  0  0  0  0  0  0  0  0  0
   44.3400   31.7820   40.2710 C   0  0  0  0  0  0  0  0  0  0  0  0
   44.7990   32.5840   41.2540 N   0  0  0  0  0  0  0  0  0  0  0  0
   41.0630   33.2060   39.4650 N   0  0  0  0  0  0  0  0  0  0  0  0
   39.8500   32.5090   39.8240 C   0  0  0  0  0  0  0  0  0  0  0  0
   38.9110   33.5270   40.4330 C   0  0  0  0  0  0  0  0  0  0  0  0
   39.0120   34.7220   39.7770 O   0  0  0  0  0  0  0  0  0  0  0  0
   39.4580   34.6330   38.4730 C   0  0  0  0  0  0  0  0  0  0  0  0
   40.9190   34.1590   38.4090 C   0  0  1  0  0  0  0  0  0  0  0  0
   44.4890   34.5230   42.7280 C   0  0  0  0  0  0  0  0  0  0  0  0
   45.8510   35.2020   42.6050 C   0  0  0  0  0  0  0  0  0  0  0  0
   44.5790   35.9630   42.5450 C   0  0  0  0  0  0  0  0  0  0  0  0
   41.8720   35.3120   38.4440 C   0  0  0  0  0  0  0  0  0  0  0  0
   41.3650   36.3640   37.4500 C   0  0  0  0  0  0  0  0  0  0  0  0
   42.1934   34.6857   41.4373 H   0  0  0  0  0  0  0  0  0  0  0  0
   44.9632   30.9411   39.9326 H   0  0  0  0  0  0  0  0  0  0  0  0
   39.3927   32.0632   38.9284 H   0  0  0  0  0  0  0  0  0  0  0  0
   40.0623   31.6988   40.5371 H   0  0  0  0  0  0  0  0  0  0  0  0
   37.8776   33.1579   40.3565 H   0  0  0  0  0  0  0  0  0  0  0  0
   39.1826   33.6758   41.4885 H   0  0  0  0  0  0  0  0  0  0  0  0
   38.8257   33.9175   37.9269 H   0  0  0  0  0  0  0  0  0  0  0  0
   39.3992   35.6331   38.0188 H   0  0  0  0  0  0  0  0  0  0  0  0
   41.1712   33.6702   37.4564 H   0  0  0  0  0  0  0  0  0  0  0  0
   43.9648   33.8892   43.4584 H   0  0  0  0  0  0  0  0  0  0  0  0
   46.5102   35.2889   43.4813 H   0  0  0  0  0  0  0  0  0  0  0  0
   46.7358   35.0887   41.9613 H   0  0  0  0  0  0  0  0  0  0  0  0
   44.3081   36.6333   43.3740 H   0  0  0  0  0  0  0  0  0  0  0  0
   44.1459   36.6676   41.8197 H   0  0  0  0  0  0  0  0  0  0  0  0
   41.9066   35.7393   39.4570 H   0  0  0  0  0  0  0  0  0  0  0  0
   42.8862   34.9828   38.1738 H   0  0  0  0  0  0  0  0  0  0  0  0
   40.9519   37.2211   38.0021 H   0  0  0  0  0  0  0  0  0  0  0  0
   42.1988   36.7027   36.8175 H   0  0  0  0  0  0  0  0  0  0  0  0
   40.5806   35.9228   36.8175 H   0  0  0  0  0  0  0  0  0  0  0  0
  1 13  1  0
  2  1  2  0
  3  2  1  0
  4  3  2  0
  4  5  1  0
  5  6  2  0
  6  1  1  0
  7  8  1  0
  7  3  1  0
  8  9  1  0
 10  9  1  0
 11 10  1  0
 12 16  1  0
 12 11  1  0
 12  7  1  0
 14 13  1  0
 15 14  1  0
 15 13  1  0
 17 16  1  0
  2 18  1  0
  5 19  1  0
  8 20  1  0
  8 21  1  0
  9 22  1  0
  9 23  1  0
 11 24  1  0
 11 25  1  0
 12 26  1  6
 13 27  1  0
 14 28  1  0
 14 29  1  0
 15 30  1  0
 15 31  1  0
 16 32  1  0
 16 33  1  0
 17 34  1  0
 17 35  1  0
 17 36  1  0
M  ISO  8  18  14  19  14  20  13  21  13  22  13  23  13  24  13  25  13
M  ISO  8  26  13  27  13  28  13  29  13  30  13  31  13  32   8  33   8
M  ISO  3  34   8  35   8  36   8
M  END
>  <minimizedAffinity>  (1) 
-4.4779191

>  <minimizedRMSD>  (1) 
1.60432112

$$$$
