
     RDKit          3D

 35 38  0  0  1  0  0  0  0  0999 V2000
   44.3250   32.8540   42.3080 C   0  0  0  0  0  0  0  0  0  0  0  0
   43.3440   33.5030   41.5280 C   0  0  0  0  0  0  0  0  0  0  0  0
   42.1150   32.8880   41.2980 C   0  0  0  0  0  0  0  0  0  0  0  0
   41.9170   31.6640   41.8480 N   0  0  0  0  0  0  0  0  0  0  0  0
   42.8980   31.0700   42.5990 C   0  0  0  0  0  0  0  0  0  0  0  0
   44.0860   31.6660   42.8220 N   0  0  0  0  0  0  0  0  0  0  0  0
   41.1020   33.4890   40.5310 N   0  0  0  0  0  0  0  0  0  0  0  0
   39.9870   34.2460   41.0570 C   0  0  0  0  0  0  0  0  0  0  0  0
   40.1720   35.6790   40.6190 C   0  0  0  0  0  0  0  0  0  0  0  0
   40.6710   35.7250   39.3450 O   0  0  0  0  0  0  0  0  0  0  0  0
   40.3950   34.6210   38.5690 C   0  0  0  0  0  0  0  0  0  0  0  0
   41.1170   33.3750   39.1070 C   0  0  1  0  0  0  0  0  0  0  0  0
   45.5970   33.5750   42.4870 C   0  0  0  0  0  0  0  0  0  0  0  0
   46.7870   33.1900   41.6050 C   0  0  0  0  0  0  0  0  0  0  0  0
   46.1270   34.5200   41.5210 C   0  0  0  0  0  0  0  0  0  0  0  0
   42.4200   33.1840   38.4800 C   0  0  0  0  0  0  0  0  0  0  0  0
   43.4200   34.0640   38.2030 N   0  0  0  0  0  0  0  0  0  0  0  0
   44.3890   33.4110   37.6350 O   0  0  0  0  0  0  0  0  0  0  0  0
   44.0890   32.1450   37.5180 C   0  0  0  0  0  0  0  0  0  0  0  0
   42.8730   32.0130   38.0400 N   0  0  0  0  0  0  0  0  0  0  0  0
   43.5499   34.4956   41.1011 H   0  0  0  0  0  0  0  0  0  0  0  0
   42.7098   30.0768   43.0328 H   0  0  0  0  0  0  0  0  0  0  0  0
   39.0414   33.8496   40.6588 H   0  0  0  0  0  0  0  0  0  0  0  0
   39.9507   34.1753   42.1541 H   0  0  0  0  0  0  0  0  0  0  0  0
   39.2012   36.1955   40.6475 H   0  0  0  0  0  0  0  0  0  0  0  0
   40.8813   36.1728   41.2995 H   0  0  0  0  0  0  0  0  0  0  0  0
   40.7285   34.8131   37.5385 H   0  0  0  0  0  0  0  0  0  0  0  0
   39.3109   34.4365   38.5951 H   0  0  0  0  0  0  0  0  0  0  0  0
   40.6071   32.4378   38.8393 H   0  0  0  0  0  0  0  0  0  0  0  0
   45.3768   33.6460   43.5624 H   0  0  0  0  0  0  0  0  0  0  0  0
   47.7934   33.0942   42.0385 H   0  0  0  0  0  0  0  0  0  0  0  0
   47.0224   32.3766   40.9029 H   0  0  0  0  0  0  0  0  0  0  0  0
   46.6618   35.4140   41.8742 H   0  0  0  0  0  0  0  0  0  0  0  0
   45.6813   35.0980   40.6981 H   0  0  0  0  0  0  0  0  0  0  0  0
   44.7128   31.3525   37.0788 H   0  0  0  0  0  0  0  0  0  0  0  0
  1 13  1  0
  1  6  1  0
  2  1  2  0
  3  2  1  0
  3  4  2  0
  4  5  1  0
  5  6  2  0
  7  8  1  0
  7  3  1  0
  9  8  1  0
 10  9  1  0
 11 12  1  0
 11 10  1  0
 12  7  1  0
 14 13  1  0
 15 14  1  0
 15 13  1  0
 16 12  1  0
 17 16  2  0
 18 17  1  0
 19 18  1  0
 19 20  2  0
 20 16  1  0
  2 21  1  0
  5 22  1  0
  8 23  1  0
  8 24  1  0
  9 25  1  0
  9 26  1  0
 11 27  1  0
 11 28  1  0
 12 29  1  1
 13 30  1  0
 14 31  1  0
 14 32  1  0
 15 33  1  0
 15 34  1  0
 19 35  1  0
M  ISO  8  21  14  22  14  23  13  24  13  25  13  26  13  27  13  28  13
M  ISO  7  29  13  30  13  31  13  32  13  33  13  34  13  35  14
M  END
>  <minimizedAffinity>  (1) 
-4.16997337

>  <minimizedRMSD>  (1) 
1.54249656

$$$$
