
     RDKit          3D

 31 33  0  0  1  0  0  0  0  0999 V2000
   44.3580   33.2310   42.4360 C   0  0  0  0  0  0  0  0  0  0  0  0
   43.4000   33.8560   41.6150 C   0  0  0  0  0  0  0  0  0  0  0  0
   42.2750   33.1520   41.1860 C   0  0  0  0  0  0  0  0  0  0  0  0
   42.1640   31.8680   41.5940 N   0  0  0  0  0  0  0  0  0  0  0  0
   43.1080   31.2860   42.3910 C   0  0  0  0  0  0  0  0  0  0  0  0
   44.1990   31.9800   42.8040 N   0  0  0  0  0  0  0  0  0  0  0  0
   41.2800   33.7300   40.3710 N   0  0  0  0  0  0  0  0  0  0  0  0
   40.0400   34.2950   40.8460 C   0  0  0  0  0  0  0  0  0  0  0  0
   40.0970   35.7840   40.5960 C   0  0  0  0  0  0  0  0  0  0  0  0
   40.7200   36.0380   39.4020 O   0  0  0  0  0  0  0  0  0  0  0  0
   40.6590   35.0130   38.4830 C   0  0  0  0  0  0  0  0  0  0  0  0
   41.4650   33.7840   38.9500 C   0  0  1  0  0  0  0  0  0  0  0  0
   45.5220   34.0540   42.8460 C   0  0  0  0  0  0  0  0  0  0  0  0
   46.4590   34.5570   41.7480 C   0  0  0  0  0  0  0  0  0  0  0  0
   45.6230   35.4730   42.5660 C   0  0  0  0  0  0  0  0  0  0  0  0
   43.1850   33.9170   38.4500 S   0  0  0  0  0  0  0  0  0  0  0  0
   43.5394   34.9038   41.3107 H   0  0  0  0  0  0  0  0  0  0  0  0
   42.9823   30.2387   42.7031 H   0  0  0  0  0  0  0  0  0  0  0  0
   39.1926   33.8543   40.3004 H   0  0  0  0  0  0  0  0  0  0  0  0
   39.9030   34.0859   41.9172 H   0  0  0  0  0  0  0  0  0  0  0  0
   39.0740   36.1871   40.5655 H   0  0  0  0  0  0  0  0  0  0  0  0
   40.6645   36.2636   41.4071 H   0  0  0  0  0  0  0  0  0  0  0  0
   41.0697   35.3667   37.5258 H   0  0  0  0  0  0  0  0  0  0  0  0
   39.6067   34.7126   38.3716 H   0  0  0  0  0  0  0  0  0  0  0  0
   41.1208   32.8464   38.4890 H   0  0  0  0  0  0  0  0  0  0  0  0
   45.6016   33.4666   43.7726 H   0  0  0  0  0  0  0  0  0  0  0  0
   46.2201   34.3818   40.6886 H   0  0  0  0  0  0  0  0  0  0  0  0
   47.5291   34.4585   41.5130 H   0  0  0  0  0  0  0  0  0  0  0  0
   46.1043   36.1374   43.2988 H   0  0  0  0  0  0  0  0  0  0  0  0
   44.8888   36.2551   42.3225 H   0  0  0  0  0  0  0  0  0  0  0  0
   43.9808   33.9785   39.5635 H   0  0  0  0  0  0  0  0  0  0  0  0
  1  6  1  0
  1 13  1  0
  2  1  2  0
  3  4  2  0
  3  2  1  0
  4  5  1  0
  5  6  2  0
  7  8  1  0
  7  3  1  0
  9  8  1  0
 10  9  1  0
 11 12  1  0
 11 10  1  0
 12  7  1  0
 14 15  1  0
 14 13  1  0
 15 13  1  0
 16 12  1  0
  2 17  1  0
  5 18  1  0
  8 19  1  0
  8 20  1  0
  9 21  1  0
  9 22  1  0
 11 23  1  0
 11 24  1  0
 12 25  1  6
 13 26  1  0
 14 27  1  0
 14 28  1  0
 15 29  1  0
 15 30  1  0
 16 31  1  0
M  ISO  8  17  14  18  14  19  13  20  13  21  13  22  13  23  13  24  13
M  ISO  7  25  13  26  13  27  13  28  13  29  13  30  13  31  11
M  END
>  <minimizedAffinity>  (1) 
-4.23620701

>  <minimizedRMSD>  (1) 
0.64783138

$$$$
