
     RDKit          3D

 52 55  0  0  1  0  0  0  0  0999 V2000
   41.4060   34.1330   40.7320 N   0  0  0  0  0  0  0  0  0  0  0  0
   40.9510   35.1950   41.5660 C   0  0  0  0  0  0  0  0  0  0  0  0
   40.2030   36.1840   40.6620 C   0  0  0  0  0  0  0  0  0  0  0  0
   39.5010   35.5060   39.7010 O   0  0  0  0  0  0  0  0  0  0  0  0
   39.1440   34.2000   40.0960 C   0  0  0  0  0  0  0  0  0  0  0  0
   40.3810   33.3300   40.1710 C   0  0  2  0  0  0  0  0  0  0  0  0
   45.1220   33.7430   41.0880 C   0  0  0  0  0  0  0  0  0  0  0  0
   43.7840   34.0440   41.4040 C   0  0  0  0  0  0  0  0  0  0  0  0
   42.7790   33.8430   40.4390 C   0  0  0  0  0  0  0  0  0  0  0  0
   43.1630   33.3720   39.2580 N   0  0  0  0  0  0  0  0  0  0  0  0
   44.4590   33.0900   38.9790 C   0  0  0  0  0  0  0  0  0  0  0  0
   45.4290   33.2770   39.8910 N   0  0  0  0  0  0  0  0  0  0  0  0
   46.1400   33.9740   42.1360 C   0  0  0  0  0  0  0  0  0  0  0  0
   47.1370   35.1240   41.9410 C   0  0  0  0  0  0  0  0  0  0  0  0
   46.1080   35.1260   43.0120 C   0  0  0  0  0  0  0  0  0  0  0  0
   40.0260   32.0530   40.8520 C   0  0  0  0  0  0  0  0  0  0  0  0
   40.4420   30.9330   39.8940 C   0  0  0  0  0  0  0  0  0  0  0  0
   40.7690   31.8010   42.1150 C   0  0  0  0  0  0  0  0  0  0  0  0
   38.5680   31.8610   41.0970 C   0  0  0  0  0  0  0  0  0  0  0  0
   38.0790   30.4950   40.7860 C   0  0  0  0  0  0  0  0  0  0  0  0
   37.6400   30.0280   39.5780 C   0  0  0  0  0  0  0  0  0  0  0  0
   37.1850   28.7590   39.3480 C   0  0  0  0  0  0  0  0  0  0  0  0
   37.1480   27.8490   40.3810 C   0  0  0  0  0  0  0  0  0  0  0  0
   37.5770   28.2490   41.6290 C   0  0  0  0  0  0  0  0  0  0  0  0
   38.0270   29.5400   41.8080 C   0  0  0  0  0  0  0  0  0  0  0  0
   40.2743   34.8043   42.3403 H   0  0  0  0  0  0  0  0  0  0  0  0
   41.7947   35.6862   42.0728 H   0  0  0  0  0  0  0  0  0  0  0  0
   39.5054   36.7775   41.2712 H   0  0  0  0  0  0  0  0  0  0  0  0
   40.9321   36.8475   40.1740 H   0  0  0  0  0  0  0  0  0  0  0  0
   38.6627   34.2363   41.0845 H   0  0  0  0  0  0  0  0  0  0  0  0
   38.4462   33.7759   39.3590 H   0  0  0  0  0  0  0  0  0  0  0  0
   40.7807   32.9884   39.2048 H   0  0  0  0  0  0  0  0  0  0  0  0
   43.5250   34.4341   42.3994 H   0  0  0  0  0  0  0  0  0  0  0  0
   44.7229   32.6997   37.9850 H   0  0  0  0  0  0  0  0  0  0  0  0
   46.1873   32.8898   42.3159 H   0  0  0  0  0  0  0  0  0  0  0  0
   48.1999   34.9884   42.1895 H   0  0  0  0  0  0  0  0  0  0  0  0
   47.4257   35.7927   41.1167 H   0  0  0  0  0  0  0  0  0  0  0  0
   45.2644   35.8293   42.9508 H   0  0  0  0  0  0  0  0  0  0  0  0
   46.1491   35.2507   44.1041 H   0  0  0  0  0  0  0  0  0  0  0  0
   40.7675   30.0567   40.4737 H   0  0  0  0  0  0  0  0  0  0  0  0
   39.5867   30.6562   39.2601 H   0  0  0  0  0  0  0  0  0  0  0  0
   41.2706   31.2816   39.2601 H   0  0  0  0  0  0  0  0  0  0  0  0
   40.1180   32.0218   42.9737 H   0  0  0  0  0  0  0  0  0  0  0  0
   41.0809   30.7468   42.1528 H   0  0  0  0  0  0  0  0  0  0  0  0
   41.6578   32.4479   42.1528 H   0  0  0  0  0  0  0  0  0  0  0  0
   38.3653   32.0678   42.1582 H   0  0  0  0  0  0  0  0  0  0  0  0
   38.0383   32.5501   40.4228 H   0  0  0  0  0  0  0  0  0  0  0  0
   37.6539   30.7254   38.7275 H   0  0  0  0  0  0  0  0  0  0  0  0
   36.8499   28.4663   38.3420 H   0  0  0  0  0  0  0  0  0  0  0  0
   36.7839   26.8245   40.2141 H   0  0  0  0  0  0  0  0  0  0  0  0
   37.5604   27.5447   42.4738 H   0  0  0  0  0  0  0  0  0  0  0  0
   38.3647   29.8366   42.8120 H   0  0  0  0  0  0  0  0  0  0  0  0
  1  2  1  0
  3  2  1  0
  4  5  1  0
  4  3  1  0
  5  6  1  0
  6  1  1  0
  6 16  1  0
  7  8  2  0
  7 13  1  0
  9  1  1  0
  9  8  1  0
 10  9  2  0
 11 10  1  0
 11 12  2  0
 12  7  1  0
 13 15  1  0
 14 13  1  0
 14 15  1  0
 16 19  1  0
 16 18  1  0
 17 16  1  0
 20 19  1  0
 20 25  1  0
 21 20  2  0
 22 21  1  0
 22 23  2  0
 23 24  1  0
 24 25  2  0
  2 26  1  0
  2 27  1  0
  3 28  1  0
  3 29  1  0
  5 30  1  0
  5 31  1  0
  6 32  1  6
  8 33  1  0
 11 34  1  0
 13 35  1  0
 14 36  1  0
 14 37  1  0
 15 38  1  0
 15 39  1  0
 17 40  1  0
 17 41  1  0
 17 42  1  0
 18 43  1  0
 18 44  1  0
 18 45  1  0
 19 46  1  0
 19 47  1  0
 21 48  1  0
 22 49  1  0
 23 50  1  0
 24 51  1  0
 25 52  1  0
M  ISO  8  26  13  27  13  28  13  29  13  30  13  31  13  32  13  33  14
M  ISO  8  34  14  35  13  36  13  37  13  38  13  39  13  40   8  41   8
M  ISO  8  42   8  43   8  44   8  45   8  46   8  47   8  48  14  49  14
M  ISO  3  50  14  51  14  52  14
M  END
>  <minimizedAffinity>  (1) 
-5.47445107

>  <minimizedRMSD>  (1) 
2.80635786

$$$$
