
     RDKit          3D

 53 56  0  0  1  0  0  0  0  0999 V2000
   42.9290   33.8320   41.0430 N   0  0  0  0  0  0  0  0  0  0  0  0
   41.6820   34.3460   41.5570 C   0  0  0  0  0  0  0  0  0  0  0  0
   41.3860   35.6390   40.7930 C   0  0  0  0  0  0  0  0  0  0  0  0
   41.7690   35.5120   39.4780 O   0  0  0  0  0  0  0  0  0  0  0  0
   41.7500   34.1760   39.0330 C   0  0  0  0  0  0  0  0  0  0  0  0
   42.8660   33.3930   39.6990 C   0  0  2  0  0  0  0  0  0  0  0  0
   46.4480   34.3960   42.1700 C   0  0  0  0  0  0  0  0  0  0  0  0
   45.2700   34.5000   41.4100 C   0  0  0  0  0  0  0  0  0  0  0  0
   44.1340   33.7540   41.7740 C   0  0  0  0  0  0  0  0  0  0  0  0
   44.2590   32.9790   42.8440 N   0  0  0  0  0  0  0  0  0  0  0  0
   45.4010   32.8910   43.5650 C   0  0  0  0  0  0  0  0  0  0  0  0
   46.4910   33.6070   43.2150 N   0  0  0  0  0  0  0  0  0  0  0  0
   47.6110   35.2160   41.7300 C   0  0  0  0  0  0  0  0  0  0  0  0
   49.0080   34.5790   41.7810 C   0  0  0  0  0  0  0  0  0  0  0  0
   48.3350   34.9550   40.5090 C   0  0  0  0  0  0  0  0  0  0  0  0
   42.6810   31.9450   39.4200 C   0  0  0  0  0  0  0  0  0  0  0  0
   42.2610   31.2940   40.7250 C   0  0  0  0  0  0  0  0  0  0  0  0
   41.5950   31.6420   38.4440 C   0  0  0  0  0  0  0  0  0  0  0  0
   43.9130   31.2430   38.9350 C   0  0  0  0  0  0  0  0  0  0  0  0
   44.3340   31.6110   37.5890 N   0  0  0  0  0  0  0  0  0  0  0  0
   43.8340   31.0520   36.4720 C   0  0  0  0  0  0  0  0  0  0  0  0
   44.1660   31.3350   35.1660 C   0  0  0  0  0  0  0  0  0  0  0  0
   45.1250   32.3080   34.9840 C   0  0  0  0  0  0  0  0  0  0  0  0
   45.5700   32.7060   33.6920 N   0  0  0  0  0  0  0  0  0  0  0  0
   45.6450   32.8860   36.0810 N   0  0  0  0  0  0  0  0  0  0  0  0
   45.2610   32.5490   37.3260 C   0  0  0  0  0  0  0  0  0  0  0  0
   45.8380   33.1820   38.2440 O   0  0  0  0  0  0  0  0  0  0  0  0
   40.8755   33.6163   41.3926 H   0  0  0  0  0  0  0  0  0  0  0  0
   41.7494   34.5342   42.6387 H   0  0  0  0  0  0  0  0  0  0  0  0
   40.3072   35.8491   40.8386 H   0  0  0  0  0  0  0  0  0  0  0  0
   41.9492   36.4645   41.2528 H   0  0  0  0  0  0  0  0  0  0  0  0
   40.7820   33.7203   39.2887 H   0  0  0  0  0  0  0  0  0  0  0  0
   41.8946   34.1558   37.9427 H   0  0  0  0  0  0  0  0  0  0  0  0
   43.8745   33.5761   39.2996 H   0  0  0  0  0  0  0  0  0  0  0  0
   45.2365   35.1630   40.5329 H   0  0  0  0  0  0  0  0  0  0  0  0
   45.4416   32.2305   44.4437 H   0  0  0  0  0  0  0  0  0  0  0  0
   47.1181   36.1123   42.1346 H   0  0  0  0  0  0  0  0  0  0  0  0
   49.8709   35.1546   42.1473 H   0  0  0  0  0  0  0  0  0  0  0  0
   49.4506   33.6664   42.2067 H   0  0  0  0  0  0  0  0  0  0  0  0
   47.9825   34.1650   39.8295 H   0  0  0  0  0  0  0  0  0  0  0  0
   48.6273   35.5798   39.6522 H   0  0  0  0  0  0  0  0  0  0  0  0
   42.6430   31.8861   41.5697 H   0  0  0  0  0  0  0  0  0  0  0  0
   41.1631   31.2489   40.7756 H   0  0  0  0  0  0  0  0  0  0  0  0
   42.6725   30.2751   40.7756 H   0  0  0  0  0  0  0  0  0  0  0  0
   40.6742   31.3851   38.9881 H   0  0  0  0  0  0  0  0  0  0  0  0
   41.4135   32.5238   37.8120 H   0  0  0  0  0  0  0  0  0  0  0  0
   41.8962   30.7936   37.8120 H   0  0  0  0  0  0  0  0  0  0  0  0
   44.7354   31.4768   39.6271 H   0  0  0  0  0  0  0  0  0  0  0  0
   43.6669   30.1714   38.9013 H   0  0  0  0  0  0  0  0  0  0  0  0
   43.0684   30.2761   36.6198 H   0  0  0  0  0  0  0  0  0  0  0  0
   43.6942   30.8157   34.3188 H   0  0  0  0  0  0  0  0  0  0  0  0
   46.2891   33.4374   33.5976 H   0  0  0  0  0  0  0  0  0  0  0  0
   45.1730   32.2626   32.8513 H   0  0  0  0  0  0  0  0  0  0  0  0
  1  2  1  0
  1  9  1  0
  3  2  1  0
  4  3  1  0
  5  4  1  0
  5  6  1  0
  6  1  1  0
  7 12  2  0
  8  9  2  0
  8  7  1  0
  9 10  1  0
 10 11  2  0
 12 11  1  0
 13 14  1  0
 13  7  1  0
 15 13  1  0
 15 14  1  0
 16  6  1  0
 16 17  1  0
 18 16  1  0
 19 16  1  0
 20 19  1  0
 21 20  1  0
 22 21  2  0
 23 22  1  0
 23 25  2  0
 24 23  1  0
 25 26  1  0
 26 20  1  0
 26 27  2  0
  2 28  1  0
  2 29  1  0
  3 30  1  0
  3 31  1  0
  5 32  1  0
  5 33  1  0
  6 34  1  6
  8 35  1  0
 11 36  1  0
 13 37  1  0
 14 38  1  0
 14 39  1  0
 15 40  1  0
 15 41  1  0
 17 42  1  0
 17 43  1  0
 17 44  1  0
 18 45  1  0
 18 46  1  0
 18 47  1  0
 19 48  1  0
 19 49  1  0
 21 50  1  0
 22 51  1  0
 24 52  1  0
 24 53  1  0
M  ISO  8  28  13  29  13  30  13  31  13  32  13  33  13  34  13  35  14
M  ISO  8  36  14  37  13  38  13  39  13  40  13  41  13  42   8  43   8
M  ISO  8  44   8  45   8  46   8  47   8  48   8  49   8  50  14  51  14
M  END
>  <minimizedAffinity>  (1) 
-5.50806618

>  <minimizedRMSD>  (1) 
4.88048935

$$$$
