
     RDKit          3D

 55 58  0  0  1  0  0  0  0  0999 V2000
   41.0770   33.7570   40.8450 N   0  0  0  0  0  0  0  0  0  0  0  0
   40.5070   34.8830   41.5440 C   0  0  0  0  0  0  0  0  0  0  0  0
   39.8700   35.7830   40.4850 C   0  0  0  0  0  0  0  0  0  0  0  0
   39.2870   35.0230   39.4980 O   0  0  0  0  0  0  0  0  0  0  0  0
   38.8980   33.7470   39.9500 C   0  0  0  0  0  0  0  0  0  0  0  0
   40.1250   32.9020   40.2400 C   0  0  2  0  0  0  0  0  0  0  0  0
   44.7390   33.6230   41.5840 C   0  0  0  0  0  0  0  0  0  0  0  0
   43.3710   33.9170   41.7260 C   0  0  0  0  0  0  0  0  0  0  0  0
   42.4600   33.4880   40.7440 C   0  0  0  0  0  0  0  0  0  0  0  0
   42.9710   32.8160   39.7200 N   0  0  0  0  0  0  0  0  0  0  0  0
   44.2930   32.5420   39.5990 C   0  0  0  0  0  0  0  0  0  0  0  0
   45.1660   32.9530   40.5420 N   0  0  0  0  0  0  0  0  0  0  0  0
   45.6460   34.1080   42.6630 C   0  0  0  0  0  0  0  0  0  0  0  0
   46.7060   35.1510   42.3120 C   0  0  0  0  0  0  0  0  0  0  0  0
   45.5640   35.4430   43.2130 C   0  0  0  0  0  0  0  0  0  0  0  0
   39.7050   31.6670   40.9530 C   0  0  0  0  0  0  0  0  0  0  0  0
   40.2640   30.4970   40.1580 C   0  0  0  0  0  0  0  0  0  0  0  0
   40.2630   31.5300   42.3270 C   0  0  0  0  0  0  0  0  0  0  0  0
   38.2270   31.4780   41.0510 C   0  0  0  0  0  0  0  0  0  0  0  0
   37.8020   30.1570   40.6510 N   0  0  0  0  0  0  0  0  0  0  0  0
   37.6850   29.7380   39.3720 C   0  0  0  0  0  0  0  0  0  0  0  0
   37.2940   28.4940   38.9310 C   0  0  0  0  0  0  0  0  0  0  0  0
   37.2100   28.1690   37.4830 C   0  0  0  0  0  0  0  0  0  0  0  0
   36.9840   27.5630   39.9000 C   0  0  0  0  0  0  0  0  0  0  0  0
   36.6240   26.4240   39.5440 O   0  0  0  0  0  0  0  0  0  0  0  0
   37.0870   27.9410   41.1860 N   0  0  0  0  0  0  0  0  0  0  0  0
   37.4790   29.1790   41.5170 C   0  0  0  0  0  0  0  0  0  0  0  0
   37.5210   29.3530   42.7590 O   0  0  0  0  0  0  0  0  0  0  0  0
   39.7438   34.5390   42.2576 H   0  0  0  0  0  0  0  0  0  0  0  0
   41.2766   35.4257   42.1125 H   0  0  0  0  0  0  0  0  0  0  0  0
   39.1025   36.4128   40.9586 H   0  0  0  0  0  0  0  0  0  0  0  0
   40.6514   36.4134   40.0355 H   0  0  0  0  0  0  0  0  0  0  0  0
   38.3027   33.8521   40.8690 H   0  0  0  0  0  0  0  0  0  0  0  0
   38.2975   33.2556   39.1703 H   0  0  0  0  0  0  0  0  0  0  0  0
   40.6406   32.4952   39.3576 H   0  0  0  0  0  0  0  0  0  0  0  0
   43.0150   34.4801   42.6014 H   0  0  0  0  0  0  0  0  0  0  0  0
   44.6566   31.9806   38.7258 H   0  0  0  0  0  0  0  0  0  0  0  0
   45.6236   33.1042   43.1124 H   0  0  0  0  0  0  0  0  0  0  0  0
   47.7260   35.0661   42.7149 H   0  0  0  0  0  0  0  0  0  0  0  0
   47.1177   35.5833   41.3881 H   0  0  0  0  0  0  0  0  0  0  0  0
   44.7662   36.1205   42.8746 H   0  0  0  0  0  0  0  0  0  0  0  0
   45.4842   35.8409   44.2354 H   0  0  0  0  0  0  0  0  0  0  0  0
   40.6324   29.7258   40.8505 H   0  0  0  0  0  0  0  0  0  0  0  0
   39.4715   30.0723   39.5243 H   0  0  0  0  0  0  0  0  0  0  0  0
   41.0923   30.8467   39.5243 H   0  0  0  0  0  0  0  0  0  0  0  0
   39.4712   31.7244   43.0654 H   0  0  0  0  0  0  0  0  0  0  0  0
   40.6508   30.5100   42.4652 H   0  0  0  0  0  0  0  0  0  0  0  0
   41.0791   32.2544   42.4652 H   0  0  0  0  0  0  0  0  0  0  0  0
   37.9202   31.6447   42.0941 H   0  0  0  0  0  0  0  0  0  0  0  0
   37.7558   32.1981   40.3659 H   0  0  0  0  0  0  0  0  0  0  0  0
   37.9303   30.4756   38.5937 H   0  0  0  0  0  0  0  0  0  0  0  0
   36.9365   27.1107   37.3600 H   0  0  0  0  0  0  0  0  0  0  0  0
   36.4461   28.8027   37.0087 H   0  0  0  0  0  0  0  0  0  0  0  0
   38.1853   28.3532   37.0087 H   0  0  0  0  0  0  0  0  0  0  0  0
   36.8604   27.2665   41.9307 H   0  0  0  0  0  0  0  0  0  0  0  0
  1  2  1  0
  3  2  1  0
  4  5  1  0
  4  3  1  0
  5  6  1  0
  6  1  1  0
  6 16  1  0
  7  8  2  0
  7 13  1  0
  9  1  1  0
  9  8  1  0
 10  9  2  0
 11 10  1  0
 11 12  2  0
 12  7  1  0
 13 15  1  0
 14 13  1  0
 14 15  1  0
 16 19  1  0
 16 18  1  0
 17 16  1  0
 20 19  1  0
 20 27  1  0
 21 20  1  0
 22 21  2  0
 22 24  1  0
 23 22  1  0
 24 26  1  0
 25 24  2  0
 26 27  1  0
 27 28  2  0
  2 29  1  0
  2 30  1  0
  3 31  1  0
  3 32  1  0
  5 33  1  0
  5 34  1  0
  6 35  1  6
  8 36  1  0
 11 37  1  0
 13 38  1  0
 14 39  1  0
 14 40  1  0
 15 41  1  0
 15 42  1  0
 17 43  1  0
 17 44  1  0
 17 45  1  0
 18 46  1  0
 18 47  1  0
 18 48  1  0
 19 49  1  0
 19 50  1  0
 21 51  1  0
 23 52  1  0
 23 53  1  0
 23 54  1  0
 26 55  1  0
M  ISO  8  29  13  30  13  31  13  32  13  33  13  34  13  35  13  36  14
M  ISO  8  37  14  38  13  39  13  40  13  41  13  42  13  43   8  44   8
M  ISO  8  45   8  46   8  47   8  48   8  49   8  50   8  51  14  52   8
M  ISO  3  53   8  54   8  55   9
M  END
>  <minimizedAffinity>  (1) 
-5.49501181

>  <minimizedRMSD>  (1) 
2.9963634

$$$$
