
     RDKit          3D

 51 54  0  0  1  0  0  0  0  0999 V2000
   41.3960   33.9190   40.7570 N   0  0  0  0  0  0  0  0  0  0  0  0
   40.2920   34.6280   41.3360 C   0  0  0  0  0  0  0  0  0  0  0  0
   40.3540   36.0690   40.8070 C   0  0  0  0  0  0  0  0  0  0  0  0
   40.7570   36.0750   39.4940 O   0  0  0  0  0  0  0  0  0  0  0  0
   40.4490   34.8810   38.8230 C   0  0  0  0  0  0  0  0  0  0  0  0
   41.3160   33.7500   39.3540 C   0  0  2  0  0  0  0  0  0  0  0  0
   44.5630   33.7350   42.7340 C   0  0  0  0  0  0  0  0  0  0  0  0
   43.4840   34.2650   42.0150 C   0  0  0  0  0  0  0  0  0  0  0  0
   42.5030   33.4100   41.4850 C   0  0  0  0  0  0  0  0  0  0  0  0
   42.6610   32.1090   41.7030 N   0  0  0  0  0  0  0  0  0  0  0  0
   43.7200   31.6230   42.4060 C   0  0  0  0  0  0  0  0  0  0  0  0
   44.6570   32.4460   42.9120 N   0  0  0  0  0  0  0  0  0  0  0  0
   45.5660   34.7050   43.2650 C   0  0  0  0  0  0  0  0  0  0  0  0
   46.6960   35.1560   42.3240 C   0  0  0  0  0  0  0  0  0  0  0  0
   45.6330   36.0760   42.8330 C   0  0  0  0  0  0  0  0  0  0  0  0
   40.8190   32.4730   38.8070 C   0  0  0  0  0  0  0  0  0  0  0  0
   41.8540   31.9600   37.8230 C   0  0  0  0  0  0  0  0  0  0  0  0
   40.6380   31.3880   39.8430 C   0  0  0  0  0  0  0  0  0  0  0  0
   39.5260   32.5700   38.0500 C   0  0  0  0  0  0  0  0  0  0  0  0
   38.9710   31.1840   37.8400 C   0  0  0  0  0  0  0  0  0  0  0  0
   38.2240   30.6910   38.8910 C   0  0  0  0  0  0  0  0  0  0  0  0
   37.6370   29.4220   38.8620 C   0  0  0  0  0  0  0  0  0  0  0  0
   37.8580   28.6920   37.6970 C   0  0  0  0  0  0  0  0  0  0  0  0
   38.6060   29.1930   36.6490 C   0  0  0  0  0  0  0  0  0  0  0  0
   39.1280   30.4050   36.7560 N   0  0  0  0  0  0  0  0  0  0  0  0
   39.3434   34.1572   41.0385 H   0  0  0  0  0  0  0  0  0  0  0  0
   40.3483   34.6111   42.4344 H   0  0  0  0  0  0  0  0  0  0  0  0
   39.3569   36.5273   40.8832 H   0  0  0  0  0  0  0  0  0  0  0  0
   41.0769   36.6410   41.4071 H   0  0  0  0  0  0  0  0  0  0  0  0
   40.6356   35.0090   37.7465 H   0  0  0  0  0  0  0  0  0  0  0  0
   39.3901   34.6345   38.9902 H   0  0  0  0  0  0  0  0  0  0  0  0
   42.3639   33.7530   39.0196 H   0  0  0  0  0  0  0  0  0  0  0  0
   43.4046   35.3518   41.8651 H   0  0  0  0  0  0  0  0  0  0  0  0
   43.8118   30.5382   42.5635 H   0  0  0  0  0  0  0  0  0  0  0  0
   45.4804   34.2383   44.2574 H   0  0  0  0  0  0  0  0  0  0  0  0
   46.7052   34.8410   41.2701 H   0  0  0  0  0  0  0  0  0  0  0  0
   47.7957   35.1287   42.3285 H   0  0  0  0  0  0  0  0  0  0  0  0
   45.8976   36.8594   43.5584 H   0  0  0  0  0  0  0  0  0  0  0  0
   44.9174   36.7528   42.3433 H   0  0  0  0  0  0  0  0  0  0  0  0
   42.7066   31.5374   38.3747 H   0  0  0  0  0  0  0  0  0  0  0  0
   41.4040   31.1807   37.1905 H   0  0  0  0  0  0  0  0  0  0  0  0
   42.2017   32.7901   37.1905 H   0  0  0  0  0  0  0  0  0  0  0  0
   40.7111   31.8261   40.8494 H   0  0  0  0  0  0  0  0  0  0  0  0
   39.6497   30.9218   39.7169 H   0  0  0  0  0  0  0  0  0  0  0  0
   41.4215   30.6263   39.7169 H   0  0  0  0  0  0  0  0  0  0  0  0
   38.8067   33.1713   38.6254 H   0  0  0  0  0  0  0  0  0  0  0  0
   39.7024   33.0496   37.0759 H   0  0  0  0  0  0  0  0  0  0  0  0
   38.0855   31.3189   39.7835 H   0  0  0  0  0  0  0  0  0  0  0  0
   37.0429   29.0285   39.7000 H   0  0  0  0  0  0  0  0  0  0  0  0
   37.4236   27.6853   37.6083 H   0  0  0  0  0  0  0  0  0  0  0  0
   38.7653   28.5943   35.7400 H   0  0  0  0  0  0  0  0  0  0  0  0
  1  2  1  0
  1  9  1  0
  3  2  1  0
  4  3  1  0
  5  6  1  0
  5  4  1  0
  6  1  1  0
  7 12  1  0
  7 13  1  0
  8  7  2  0
  9 10  2  0
  9  8  1  0
 10 11  1  0
 11 12  2  0
 14 15  1  0
 14 13  1  0
 15 13  1  0
 16  6  1  0
 16 18  1  0
 17 16  1  0
 19 16  1  0
 20 19  1  0
 20 21  2  0
 22 21  1  0
 23 22  2  0
 24 25  2  0
 24 23  1  0
 25 20  1  0
  2 26  1  0
  2 27  1  0
  3 28  1  0
  3 29  1  0
  5 30  1  0
  5 31  1  0
  6 32  1  6
  8 33  1  0
 11 34  1  0
 13 35  1  0
 14 36  1  0
 14 37  1  0
 15 38  1  0
 15 39  1  0
 17 40  1  0
 17 41  1  0
 17 42  1  0
 18 43  1  0
 18 44  1  0
 18 45  1  0
 19 46  1  0
 19 47  1  0
 21 48  1  0
 22 49  1  0
 23 50  1  0
 24 51  1  0
M  ISO  8  26  13  27  13  28  13  29  13  30  13  31  13  32  13  33  14
M  ISO  8  34  14  35  13  36  13  37  13  38  13  39  13  40   8  41   8
M  ISO  8  42   8  43   8  44   8  45   8  46   8  47   8  48  14  49  14
M  ISO  2  50  14  51  14
M  END
>  <minimizedAffinity>  (1) 
-5.1380477

>  <minimizedRMSD>  (1) 
1.36098897

$$$$
