
     RDKit          3D

 58 61  0  0  1  0  0  0  0  0999 V2000
   41.3100   33.8300   40.7020 N   0  0  0  0  0  0  0  0  0  0  0  0
   40.3090   34.7310   41.1960 C   0  0  0  0  0  0  0  0  0  0  0  0
   40.4450   36.0170   40.3870 C   0  0  0  0  0  0  0  0  0  0  0  0
   40.7550   35.7330   39.0700 O   0  0  0  0  0  0  0  0  0  0  0  0
   40.2870   34.4600   38.6850 C   0  0  0  0  0  0  0  0  0  0  0  0
   41.1180   33.3890   39.3590 C   0  0  2  0  0  0  0  0  0  0  0  0
   44.4410   33.8240   42.7500 C   0  0  0  0  0  0  0  0  0  0  0  0
   43.3500   34.2950   42.0030 C   0  0  0  0  0  0  0  0  0  0  0  0
   42.4310   33.3840   41.4560 C   0  0  0  0  0  0  0  0  0  0  0  0
   42.6580   32.0950   41.6860 N   0  0  0  0  0  0  0  0  0  0  0  0
   43.7260   31.6680   42.4150 C   0  0  0  0  0  0  0  0  0  0  0  0
   44.6050   32.5350   42.9380 N   0  0  0  0  0  0  0  0  0  0  0  0
   45.3780   34.8420   43.3010 C   0  0  0  0  0  0  0  0  0  0  0  0
   46.5280   35.3290   42.4030 C   0  0  0  0  0  0  0  0  0  0  0  0
   45.4110   36.2070   42.8410 C   0  0  0  0  0  0  0  0  0  0  0  0
   40.4820   32.0570   39.1350 C   0  0  0  0  0  0  0  0  0  0  0  0
   41.5980   31.0880   38.8430 C   0  0  0  0  0  0  0  0  0  0  0  0
   39.7550   31.5170   40.3450 C   0  0  0  0  0  0  0  0  0  0  0  0
   39.5020   32.0470   38.0120 C   0  0  0  0  0  0  0  0  0  0  0  0
   38.7000   30.8460   37.7320 C   0  0  0  0  0  0  0  0  0  0  0  0
   39.2080   30.2330   36.3710 C   0  0  0  0  0  0  0  0  0  0  0  0
   38.1070   29.3590   35.8980 C   0  0  0  0  0  0  0  0  0  0  0  0
   37.6570   28.3290   36.8910 C   0  0  0  0  0  0  0  0  0  0  0  0
   37.6190   28.7870   38.2970 C   0  0  0  0  0  0  0  0  0  0  0  0
   38.8390   29.6490   38.6210 C   0  0  0  0  0  0  0  0  0  0  0  0
   39.3071   34.2989   41.0568 H   0  0  0  0  0  0  0  0  0  0  0  0
   40.4420   34.9220   42.2711 H   0  0  0  0  0  0  0  0  0  0  0  0
   39.4944   36.5693   40.4236 H   0  0  0  0  0  0  0  0  0  0  0  0
   41.2545   36.6237   40.8189 H   0  0  0  0  0  0  0  0  0  0  0  0
   39.2346   34.3504   38.9857 H   0  0  0  0  0  0  0  0  0  0  0  0
   40.3705   34.3546   37.5933 H   0  0  0  0  0  0  0  0  0  0  0  0
   42.1257   33.2398   38.9439 H   0  0  0  0  0  0  0  0  0  0  0  0
   43.2148   35.3753   41.8462 H   0  0  0  0  0  0  0  0  0  0  0  0
   43.8705   30.5898   42.5781 H   0  0  0  0  0  0  0  0  0  0  0  0
   45.2674   34.3880   44.2968 H   0  0  0  0  0  0  0  0  0  0  0  0
   46.5994   34.9959   41.3571 H   0  0  0  0  0  0  0  0  0  0  0  0
   47.6264   35.3511   42.4585 H   0  0  0  0  0  0  0  0  0  0  0  0
   45.6090   37.0151   43.5605 H   0  0  0  0  0  0  0  0  0  0  0  0
   44.6919   36.8428   42.3037 H   0  0  0  0  0  0  0  0  0  0  0  0
   42.0214   30.7204   39.7894 H   0  0  0  0  0  0  0  0  0  0  0  0
   41.2049   30.2399   38.2632 H   0  0  0  0  0  0  0  0  0  0  0  0
   42.3826   31.5962   38.2632 H   0  0  0  0  0  0  0  0  0  0  0  0
   40.2452   31.8811   41.2600 H   0  0  0  0  0  0  0  0  0  0  0  0
   38.7098   31.8595   40.3278 H   0  0  0  0  0  0  0  0  0  0  0  0
   39.7809   30.4174   40.3278 H   0  0  0  0  0  0  0  0  0  0  0  0
   38.7904   32.8627   38.2074 H   0  0  0  0  0  0  0  0  0  0  0  0
   40.1440   32.1288   37.1225 H   0  0  0  0  0  0  0  0  0  0  0  0
   37.6772   31.2419   37.8163 H   0  0  0  0  0  0  0  0  0  0  0  0
   39.4074   31.0306   35.6402 H   0  0  0  0  0  0  0  0  0  0  0  0
   40.1474   29.6751   36.4987 H   0  0  0  0  0  0  0  0  0  0  0  0
   37.2453   29.9963   35.6503 H   0  0  0  0  0  0  0  0  0  0  0  0
   38.4982   28.8063   35.0311 H   0  0  0  0  0  0  0  0  0  0  0  0
   36.6438   28.0052   36.6106 H   0  0  0  0  0  0  0  0  0  0  0  0
   38.4018   27.5205   36.8524 H   0  0  0  0  0  0  0  0  0  0  0  0
   36.7061   29.3790   38.4588 H   0  0  0  0  0  0  0  0  0  0  0  0
   37.6258   27.9055   38.9549 H   0  0  0  0  0  0  0  0  0  0  0  0
   39.7691   29.1055   38.3985 H   0  0  0  0  0  0  0  0  0  0  0  0
   38.8870   29.9222   39.6855 H   0  0  0  0  0  0  0  0  0  0  0  0
  1  2  1  0
  1  9  1  0
  3  2  1  0
  4  3  1  0
  5  4  1  0
  5  6  1  0
  6  1  1  0
  7 12  1  0
  7 13  1  0
  8  7  2  0
  9 10  2  0
  9  8  1  0
 10 11  1  0
 11 12  2  0
 14 15  1  0
 14 13  1  0
 15 13  1  0
 16  6  1  0
 16 18  1  0
 17 16  1  0
 19 16  1  0
 20 19  1  0
 20 25  1  0
 21 20  1  0
 22 21  1  0
 22 23  1  0
 23 24  1  0
 24 25  1  0
  2 26  1  0
  2 27  1  0
  3 28  1  0
  3 29  1  0
  5 30  1  0
  5 31  1  0
  6 32  1  6
  8 33  1  0
 11 34  1  0
 13 35  1  0
 14 36  1  0
 14 37  1  0
 15 38  1  0
 15 39  1  0
 17 40  1  0
 17 41  1  0
 17 42  1  0
 18 43  1  0
 18 44  1  0
 18 45  1  0
 19 46  1  0
 19 47  1  0
 20 48  1  0
 21 49  1  0
 21 50  1  0
 22 51  1  0
 22 52  1  0
 23 53  1  0
 23 54  1  0
 24 55  1  0
 24 56  1  0
 25 57  1  0
 25 58  1  0
M  ISO  8  26  13  27  13  28  13  29  13  30  13  31  13  32  13  33  14
M  ISO  8  34  14  35  13  36  13  37  13  38  13  39  13  40   8  41   8
M  ISO  8  42   8  43   8  44   8  45   8  46   8  47   8  48  13  49  13
M  ISO  8  50  13  51  13  52  13  53  13  54  13  55  13  56  13  57  13
M  ISO  1  58  13
M  END
>  <minimizedAffinity>  (1) 
-4.98949003

>  <minimizedRMSD>  (1) 
1.46730018

$$$$
