
     RDKit          3D

 49 51  0  0  1  0  0  0  0  0999 V2000
   46.9940   33.0740   42.7570 N   0  0  0  0  0  0  0  0  0  0  0  0
   45.7800   33.0230   41.9860 C   0  0  0  0  0  0  0  0  0  0  0  0
   44.8230   34.0390   42.6080 C   0  0  0  0  0  0  0  0  0  0  0  0
   45.5140   35.1550   43.0320 O   0  0  0  0  0  0  0  0  0  0  0  0
   46.6980   35.3590   42.3020 C   0  0  0  0  0  0  0  0  0  0  0  0
   47.7320   34.3060   42.6830 C   0  0  2  0  0  0  0  0  0  0  0  0
   48.8730   30.0330   43.8630 C   0  0  0  0  0  0  0  0  0  0  0  0
   48.4100   31.0800   43.0500 C   0  0  0  0  0  0  0  0  0  0  0  0
   47.4770   32.0030   43.5590 C   0  0  0  0  0  0  0  0  0  0  0  0
   47.0750   31.8230   44.8130 N   0  0  0  0  0  0  0  0  0  0  0  0
   47.5420   30.7970   45.5780 C   0  0  0  0  0  0  0  0  0  0  0  0
   48.4380   29.9130   45.0900 N   0  0  0  0  0  0  0  0  0  0  0  0
   49.8570   29.0970   43.2600 C   0  0  0  0  0  0  0  0  0  0  0  0
   49.3330   27.8250   42.5780 C   0  0  0  0  0  0  0  0  0  0  0  0
   50.0000   28.9220   41.8340 C   0  0  0  0  0  0  0  0  0  0  0  0
   48.8580   34.3740   41.7170 C   0  0  0  0  0  0  0  0  0  0  0  0
   48.9490   35.8300   41.2970 C   0  0  0  0  0  0  0  0  0  0  0  0
   50.2030   34.0070   42.2740 C   0  0  0  0  0  0  0  0  0  0  0  0
   48.6580   33.5520   40.4830 C   0  0  0  0  0  0  0  0  0  0  0  0
   48.3840   34.4250   39.3630 N   0  0  0  0  0  0  0  0  0  0  0  0
   48.5290   34.1730   37.9760 C   0  0  0  0  0  0  0  0  0  0  0  0
   49.5850   33.5110   37.6480 N   0  0  0  0  0  0  0  0  0  0  0  0
   47.6070   34.6050   37.0170 N   0  0  0  0  0  0  0  0  0  0  0  0
   50.3020   33.1660   38.3060 H   0  0  0  0  0  0  0  0  0  0  0  0
   45.3440   32.0141   42.0314 H   0  0  0  0  0  0  0  0  0  0  0  0
   45.9724   33.2561   40.9283 H   0  0  0  0  0  0  0  0  0  0  0  0
   44.0757   34.3387   41.8585 H   0  0  0  0  0  0  0  0  0  0  0  0
   44.3264   33.5770   43.4740 H   0  0  0  0  0  0  0  0  0  0  0  0
   47.0968   36.3593   42.5264 H   0  0  0  0  0  0  0  0  0  0  0  0
   46.4786   35.2779   41.2272 H   0  0  0  0  0  0  0  0  0  0  0  0
   48.2283   34.4435   43.6550 H   0  0  0  0  0  0  0  0  0  0  0  0
   48.7757   31.1788   42.0173 H   0  0  0  0  0  0  0  0  0  0  0  0
   47.1826   30.6869   46.6118 H   0  0  0  0  0  0  0  0  0  0  0  0
   50.5653   29.3474   44.0635 H   0  0  0  0  0  0  0  0  0  0  0  0
   49.8427   26.8617   42.7271 H   0  0  0  0  0  0  0  0  0  0  0  0
   48.3713   27.2944   42.5179 H   0  0  0  0  0  0  0  0  0  0  0  0
   51.0001   28.7559   41.4071 H   0  0  0  0  0  0  0  0  0  0  0  0
   49.7147   29.5304   40.9631 H   0  0  0  0  0  0  0  0  0  0  0  0
   48.9889   36.4680   42.1922 H   0  0  0  0  0  0  0  0  0  0  0  0
   49.8584   35.9825   40.6973 H   0  0  0  0  0  0  0  0  0  0  0  0
   48.0656   36.0945   40.6973 H   0  0  0  0  0  0  0  0  0  0  0  0
   50.1603   34.0187   43.3731 H   0  0  0  0  0  0  0  0  0  0  0  0
   50.4807   33.0003   41.9285 H   0  0  0  0  0  0  0  0  0  0  0  0
   50.9535   34.7332   41.9285 H   0  0  0  0  0  0  0  0  0  0  0  0
   49.5680   32.9685   40.2793 H   0  0  0  0  0  0  0  0  0  0  0  0
   47.8098   32.8675   40.6312 H   0  0  0  0  0  0  0  0  0  0  0  0
   48.0341   35.3622   39.6080 H   0  0  0  0  0  0  0  0  0  0  0  0
   47.7626   34.3935   36.0210 H   0  0  0  0  0  0  0  0  0  0  0  0
   46.7725   35.1346   37.3068 H   0  0  0  0  0  0  0  0  0  0  0  0
  1  9  1  0
  2  3  1  0
  2  1  1  0
  3  4  1  0
  5  6  1  0
  5  4  1  0
  6  1  1  0
  7 12  2  0
  8  9  2  0
  8  7  1  0
  9 10  1  0
 10 11  2  0
 12 11  1  0
 13  7  1  0
 14 13  1  0
 15 14  1  0
 15 13  1  0
 16 18  1  0
 16  6  1  0
 17 16  1  0
 19 16  1  0
 20 19  1  0
 21 20  1  0
 22 21  2  0
 22 24  1  0
 23 21  1  0
  2 25  1  0
  2 26  1  0
  3 27  1  0
  3 28  1  0
  5 29  1  0
  5 30  1  0
  6 31  1  1
  8 32  1  0
 11 33  1  0
 13 34  1  0
 14 35  1  0
 14 36  1  0
 15 37  1  0
 15 38  1  0
 17 39  1  0
 17 40  1  0
 17 41  1  0
 18 42  1  0
 18 43  1  0
 18 44  1  0
 19 45  1  0
 19 46  1  0
 20 47  1  0
 23 48  1  0
 23 49  1  0
M  ISO  8  25  13  26  13  27  13  28  13  29  13  30  13  31  13  32  14
M  ISO  8  33  14  34  13  35  13  36  13  37  13  38  13  39   8  40   8
M  ISO  6  41   8  42   8  43   8  44   8  45   8  46   8
M  END
>  <minimizedAffinity>  (1) 
-5.10283279

>  <minimizedRMSD>  (1) 
8.0388031

$$$$
