
     RDKit          3D

 49 52  0  0  1  0  0  0  0  0999 V2000
   43.8790   33.6500   40.8310 N   0  0  0  0  0  0  0  0  0  0  0  0
   43.8890   33.1360   42.1610 C   0  0  0  0  0  0  0  0  0  0  0  0
   44.6670   34.1340   43.0240 C   0  0  0  0  0  0  0  0  0  0  0  0
   44.4050   35.4230   42.6110 O   0  0  0  0  0  0  0  0  0  0  0  0
   43.1380   35.5440   42.0090 C   0  0  0  0  0  0  0  0  0  0  0  0
   43.1490   34.8510   40.6590 C   0  0  2  0  0  0  0  0  0  0  0  0
   46.4810   32.7670   38.2810 C   0  0  0  0  0  0  0  0  0  0  0  0
   45.8590   33.3900   39.3730 C   0  0  0  0  0  0  0  0  0  0  0  0
   44.5400   33.0390   39.7160 C   0  0  0  0  0  0  0  0  0  0  0  0
   43.9460   32.1140   38.9650 N   0  0  0  0  0  0  0  0  0  0  0  0
   44.5720   31.5270   37.9120 C   0  0  0  0  0  0  0  0  0  0  0  0
   45.8350   31.8590   37.5790 N   0  0  0  0  0  0  0  0  0  0  0  0
   47.8720   33.1770   37.9660 C   0  0  0  0  0  0  0  0  0  0  0  0
   48.0820   34.3720   37.0210 C   0  0  0  0  0  0  0  0  0  0  0  0
   48.4540   34.3980   38.4670 C   0  0  0  0  0  0  0  0  0  0  0  0
   41.7540   34.7570   40.1530 C   0  0  0  0  0  0  0  0  0  0  0  0
   41.1690   33.4720   40.7430 C   0  0  0  0  0  0  0  0  0  0  0  0
   40.8550   35.8530   40.5880 C   0  0  0  0  0  0  0  0  0  0  0  0
   41.6570   34.5880   38.6650 C   0  0  0  0  0  0  0  0  0  0  0  0
   40.4450   33.9230   38.2330 N   0  0  0  0  0  0  0  0  0  0  0  0
   39.2130   34.3540   37.9210 C   0  0  0  0  0  0  0  0  0  0  0  0
   38.3420   33.3470   37.5740 C   0  0  0  0  0  0  0  0  0  0  0  0
   39.0950   32.2130   37.6800 N   0  0  0  0  0  0  0  0  0  0  0  0
   40.3370   32.5680   38.0700 C   0  0  0  0  0  0  0  0  0  0  0  0
   42.8592   33.0365   42.5348 H   0  0  0  0  0  0  0  0  0  0  0  0
   44.3585   32.1417   42.1928 H   0  0  0  0  0  0  0  0  0  0  0  0
   44.3634   34.0200   44.0751 H   0  0  0  0  0  0  0  0  0  0  0  0
   45.7440   33.9352   42.9216 H   0  0  0  0  0  0  0  0  0  0  0  0
   42.3796   35.0768   42.6544 H   0  0  0  0  0  0  0  0  0  0  0  0
   42.8984   36.6088   41.8717 H   0  0  0  0  0  0  0  0  0  0  0  0
   43.6645   35.3963   39.8547 H   0  0  0  0  0  0  0  0  0  0  0  0
   46.3992   34.1488   39.9581 H   0  0  0  0  0  0  0  0  0  0  0  0
   44.0389   30.7677   37.3210 H   0  0  0  0  0  0  0  0  0  0  0  0
   48.1829   32.1227   38.0089 H   0  0  0  0  0  0  0  0  0  0  0  0
   48.8604   34.3400   36.2444 H   0  0  0  0  0  0  0  0  0  0  0  0
   47.4539   34.9759   36.3496 H   0  0  0  0  0  0  0  0  0  0  0  0
   47.8782   35.0262   39.1626 H   0  0  0  0  0  0  0  0  0  0  0  0
   49.3838   34.6295   39.0072 H   0  0  0  0  0  0  0  0  0  0  0  0
   41.1945   33.5280   41.8413 H   0  0  0  0  0  0  0  0  0  0  0  0
   40.1286   33.3543   40.4059 H   0  0  0  0  0  0  0  0  0  0  0  0
   41.7634   32.6100   40.4059 H   0  0  0  0  0  0  0  0  0  0  0  0
   40.8256   35.8888   41.6870 H   0  0  0  0  0  0  0  0  0  0  0  0
   41.2306   36.8112   40.1998 H   0  0  0  0  0  0  0  0  0  0  0  0
   39.8418   35.6720   40.1998 H   0  0  0  0  0  0  0  0  0  0  0  0
   41.6917   35.5839   38.1993 H   0  0  0  0  0  0  0  0  0  0  0  0
   42.5001   33.9518   38.3578 H   0  0  0  0  0  0  0  0  0  0  0  0
   38.9257   35.4156   37.9409 H   0  0  0  0  0  0  0  0  0  0  0  0
   37.2857   33.4350   37.2799 H   0  0  0  0  0  0  0  0  0  0  0  0
   41.1600   31.8574   38.2362 H   0  0  0  0  0  0  0  0  0  0  0  0
  1  2  1  0
  2  3  1  0
  4  3  1  0
  5  4  1  0
  6  1  1  0
  6  5  1  0
  7  8  2  0
  8  9  1  0
  9  1  1  0
 10  9  2  0
 11 10  1  0
 12 11  2  0
 12  7  1  0
 13  7  1  0
 13 15  1  0
 14 13  1  0
 14 15  1  0
 16 18  1  0
 16  6  1  0
 16 17  1  0
 19 16  1  0
 20 19  1  0
 21 20  1  0
 22 23  1  0
 22 21  2  0
 23 24  2  0
 24 20  1  0
  2 25  1  0
  2 26  1  0
  3 27  1  0
  3 28  1  0
  5 29  1  0
  5 30  1  0
  6 31  1  6
  8 32  1  0
 11 33  1  0
 13 34  1  0
 14 35  1  0
 14 36  1  0
 15 37  1  0
 15 38  1  0
 17 39  1  0
 17 40  1  0
 17 41  1  0
 18 42  1  0
 18 43  1  0
 18 44  1  0
 19 45  1  0
 19 46  1  0
 21 47  1  0
 22 48  1  0
 24 49  1  0
M  ISO  8  25  13  26  13  27  13  28  13  29  13  30  13  31  13  32  14
M  ISO  8  33  14  34  13  35  13  36  13  37  13  38  13  39   8  40   8
M  ISO  8  41   8  42   8  43   8  44   8  45   8  46   8  47  14  48  14
M  ISO  1  49  14
M  END
>  <minimizedAffinity>  (1) 
-4.72543764

>  <minimizedRMSD>  (1) 
3.76458335

$$$$
