
     RDKit          3D

 44 46  0  0  1  0  0  0  0  0999 V2000
   41.2670   33.9460   40.7420 N   0  0  0  0  0  0  0  0  0  0  0  0
   40.2520   34.7470   41.3920 C   0  0  0  0  0  0  0  0  0  0  0  0
   40.4360   36.1810   40.8710 C   0  0  0  0  0  0  0  0  0  0  0  0
   40.7830   36.1570   39.5540 O   0  0  0  0  0  0  0  0  0  0  0  0
   40.3390   35.0150   38.8680 C   0  0  0  0  0  0  0  0  0  0  0  0
   41.1220   33.7890   39.3400 C   0  0  2  0  0  0  0  0  0  0  0  0
   44.5160   33.4600   42.5590 C   0  0  0  0  0  0  0  0  0  0  0  0
   43.4520   34.0970   41.8790 C   0  0  0  0  0  0  0  0  0  0  0  0
   42.3620   33.3330   41.4330 C   0  0  0  0  0  0  0  0  0  0  0  0
   42.3900   32.0270   41.6780 N   0  0  0  0  0  0  0  0  0  0  0  0
   43.4280   31.4440   42.3350 C   0  0  0  0  0  0  0  0  0  0  0  0
   44.4750   32.1730   42.7650 N   0  0  0  0  0  0  0  0  0  0  0  0
   45.6440   34.3230   43.0090 C   0  0  0  0  0  0  0  0  0  0  0  0
   46.6450   34.8060   41.9490 C   0  0  0  0  0  0  0  0  0  0  0  0
   45.7250   35.7280   42.6830 C   0  0  0  0  0  0  0  0  0  0  0  0
   40.4560   32.5650   38.8460 C   0  0  0  0  0  0  0  0  0  0  0  0
   41.5580   31.7210   38.2110 C   0  0  0  0  0  0  0  0  0  0  0  0
   39.8340   31.7100   39.8960 C   0  0  0  0  0  0  0  0  0  0  0  0
   39.4220   32.8020   37.7820 C   0  0  0  0  0  0  0  0  0  0  0  0
   38.6390   31.6420   37.4660 N   0  0  0  0  0  0  0  0  0  0  0  0
   39.2497   34.3739   41.1349 H   0  0  0  0  0  0  0  0  0  0  0  0
   40.3485   34.7037   42.4869 H   0  0  0  0  0  0  0  0  0  0  0  0
   39.4933   36.7354   40.9893 H   0  0  0  0  0  0  0  0  0  0  0  0
   41.2336   36.6745   41.4457 H   0  0  0  0  0  0  0  0  0  0  0  0
   40.4950   35.1542   37.7881 H   0  0  0  0  0  0  0  0  0  0  0  0
   39.2688   34.8626   39.0717 H   0  0  0  0  0  0  0  0  0  0  0  0
   42.1384   33.6892   38.9314 H   0  0  0  0  0  0  0  0  0  0  0  0
   43.4783   35.1822   41.7011 H   0  0  0  0  0  0  0  0  0  0  0  0
   43.4120   30.3595   42.5181 H   0  0  0  0  0  0  0  0  0  0  0  0
   45.6825   33.7706   43.9595 H   0  0  0  0  0  0  0  0  0  0  0  0
   46.4809   34.5846   40.8841 H   0  0  0  0  0  0  0  0  0  0  0  0
   47.7301   34.7287   41.7858 H   0  0  0  0  0  0  0  0  0  0  0  0
   46.1385   36.4320   43.4201 H   0  0  0  0  0  0  0  0  0  0  0  0
   44.9863   36.4778   42.3633 H   0  0  0  0  0  0  0  0  0  0  0  0
   42.1652   31.2559   39.0016 H   0  0  0  0  0  0  0  0  0  0  0  0
   41.1053   30.9364   37.5869 H   0  0  0  0  0  0  0  0  0  0  0  0
   42.1976   32.3625   37.5869 H   0  0  0  0  0  0  0  0  0  0  0  0
   40.1109   32.0906   40.8902 H   0  0  0  0  0  0  0  0  0  0  0  0
   38.7397   31.7325   39.7864 H   0  0  0  0  0  0  0  0  0  0  0  0
   40.1923   30.6758   39.7864 H   0  0  0  0  0  0  0  0  0  0  0  0
   38.7429   33.5947   38.1290 H   0  0  0  0  0  0  0  0  0  0  0  0
   39.9634   33.0820   36.8663 H   0  0  0  0  0  0  0  0  0  0  0  0
   38.3320   31.1871   38.3376 H   0  0  0  0  0  0  0  0  0  0  0  0
   37.8144   31.9236   36.9168 H   0  0  0  0  0  0  0  0  0  0  0  0
  1  2  1  0
  1  9  1  0
  3  2  1  0
  4  3  1  0
  5  6  1  0
  5  4  1  0
  6  1  1  0
  7 12  1  0
  7 13  1  0
  8  7  2  0
  9 10  2  0
  9  8  1  0
 10 11  1  0
 11 12  2  0
 14 15  1  0
 14 13  1  0
 15 13  1  0
 16  6  1  0
 16 18  1  0
 17 16  1  0
 19 16  1  0
 20 19  1  0
  2 21  1  0
  2 22  1  0
  3 23  1  0
  3 24  1  0
  5 25  1  0
  5 26  1  0
  6 27  1  6
  8 28  1  0
 11 29  1  0
 13 30  1  0
 14 31  1  0
 14 32  1  0
 15 33  1  0
 15 34  1  0
 17 35  1  0
 17 36  1  0
 17 37  1  0
 18 38  1  0
 18 39  1  0
 18 40  1  0
 19 41  1  0
 19 42  1  0
 20 43  1  0
 20 44  1  0
M  ISO  8  21  13  22  13  23  13  24  13  25  13  26  13  27  13  28  14
M  ISO  8  29  14  30  13  31  13  32  13  33  13  34  13  35   8  36   8
M  ISO  8  37   8  38   8  39   8  40   8  41   8  42   8  43   5  44   5
M  END
>  <minimizedAffinity>  (1) 
-4.41520071

>  <minimizedRMSD>  (1) 
0.880919755

$$$$
