
     RDKit          3D

 39 41  0  0  1  0  0  0  0  0999 V2000
   47.2570   34.3240   42.2960 N   0  0  0  0  0  0  0  0  0  0  0  0
   48.5840   33.8320   42.5940 C   0  0  0  0  0  0  0  0  0  0  0  0
   49.2790   33.1410   41.5000 C   0  0  0  0  0  0  0  0  0  0  0  0
   48.7700   33.2850   40.2470 O   0  0  0  0  0  0  0  0  0  0  0  0
   47.9790   34.3530   39.9860 C   0  0  0  0  0  0  0  0  0  0  0  0
   46.8110   34.5020   40.9460 C   0  0  1  0  0  0  0  0  0  0  0  0
   44.6680   36.1000   44.3520 C   0  0  0  0  0  0  0  0  0  0  0  0
   45.5490   35.8000   43.3120 C   0  0  0  0  0  0  0  0  0  0  0  0
   46.3710   34.6450   43.3430 C   0  0  0  0  0  0  0  0  0  0  0  0
   46.2530   33.8530   44.4440 N   0  0  0  0  0  0  0  0  0  0  0  0
   45.3950   34.1520   45.4500 C   0  0  0  0  0  0  0  0  0  0  0  0
   44.6230   35.2580   45.3910 N   0  0  0  0  0  0  0  0  0  0  0  0
   45.7190   33.6060   40.4830 C   0  0  0  0  0  0  0  0  0  0  0  0
   44.3370   34.1800   40.5000 C   0  0  0  0  0  0  0  0  0  0  0  0
   43.3660   33.0080   40.5940 C   0  0  0  0  0  0  0  0  0  0  0  0
   43.8930   31.7950   39.9230 C   0  0  0  0  0  0  0  0  0  0  0  0
   44.8260   32.0360   38.7690 C   0  0  0  0  0  0  0  0  0  0  0  0
   45.9300   33.0120   39.0960 C   0  0  0  0  0  0  0  0  0  0  0  0
   49.2013   34.6916   42.8942 H   0  0  0  0  0  0  0  0  0  0  0  0
   48.4483   33.0759   43.3813 H   0  0  0  0  0  0  0  0  0  0  0  0
   50.3145   33.5116   41.4804 H   0  0  0  0  0  0  0  0  0  0  0  0
   49.1689   32.0705   41.7277 H   0  0  0  0  0  0  0  0  0  0  0  0
   48.5945   35.2628   40.0452 H   0  0  0  0  0  0  0  0  0  0  0  0
   47.5518   34.1972   38.9844 H   0  0  0  0  0  0  0  0  0  0  0  0
   46.3862   35.5166   40.9475 H   0  0  0  0  0  0  0  0  0  0  0  0
   44.0327   36.9974   44.3187 H   0  0  0  0  0  0  0  0  0  0  0  0
   45.6072   36.4765   42.4466 H   0  0  0  0  0  0  0  0  0  0  0  0
   45.3271   33.4867   46.3233 H   0  0  0  0  0  0  0  0  0  0  0  0
   45.7850   32.8238   41.2536 H   0  0  0  0  0  0  0  0  0  0  0  0
   44.2142   34.8424   41.3695 H   0  0  0  0  0  0  0  0  0  0  0  0
   44.1482   34.7732   39.5931 H   0  0  0  0  0  0  0  0  0  0  0  0
   43.1883   32.7782   41.6550 H   0  0  0  0  0  0  0  0  0  0  0  0
   42.4332   33.2980   40.0882 H   0  0  0  0  0  0  0  0  0  0  0  0
   44.4335   31.2017   40.6752 H   0  0  0  0  0  0  0  0  0  0  0  0
   43.0162   31.2864   39.4957 H   0  0  0  0  0  0  0  0  0  0  0  0
   44.2439   32.4352   37.9253 H   0  0  0  0  0  0  0  0  0  0  0  0
   45.2998   31.0742   38.5230 H   0  0  0  0  0  0  0  0  0  0  0  0
   46.8969   32.4881   39.0692 H   0  0  0  0  0  0  0  0  0  0  0  0
   45.9200   33.8242   38.3543 H   0  0  0  0  0  0  0  0  0  0  0  0
  1  2  1  0
  1  9  1  0
  3  2  1  0
  4  3  1  0
  5  4  1  0
  5  6  1  0
  6  1  1  0
  7 12  2  0
  8  9  2  0
  8  7  1  0
  9 10  1  0
 10 11  2  0
 12 11  1  0
 13 14  1  0
 13  6  1  0
 14 15  1  0
 16 15  1  0
 17 18  1  0
 17 16  1  0
 18 13  1  0
  2 19  1  0
  2 20  1  0
  3 21  1  0
  3 22  1  0
  5 23  1  0
  5 24  1  0
  6 25  1  1
  7 26  1  0
  8 27  1  0
 11 28  1  0
 13 29  1  0
 14 30  1  0
 14 31  1  0
 15 32  1  0
 15 33  1  0
 16 34  1  0
 16 35  1  0
 17 36  1  0
 17 37  1  0
 18 38  1  0
 18 39  1  0
M  ISO  8  19  13  20  13  21  13  22  13  23  13  24  13  25  13  26  14
M  ISO  8  27  14  28  14  29  13  30  13  31  13  32  13  33  13  34  13
M  ISO  5  35  13  36  13  37  13  38  13  39  13
M  END
>  <minimizedAffinity>  (1) 
-4.68958521

>  <minimizedRMSD>  (1) 
0.832068563

$$$$
