
     RDKit          3D

 33 35  0  0  1  0  0  0  0  0999 V2000
   46.9180   34.3170   42.4250 N   0  0  0  0  0  0  0  0  0  0  0  0
   48.3190   34.0050   42.5610 C   0  0  0  0  0  0  0  0  0  0  0  0
   48.9150   33.2570   41.4280 C   0  0  0  0  0  0  0  0  0  0  0  0
   48.1860   33.1270   40.2920 O   0  0  0  0  0  0  0  0  0  0  0  0
   47.2970   34.1250   40.0330 C   0  0  0  0  0  0  0  0  0  0  0  0
   46.2680   34.3440   41.1310 C   0  0  1  0  0  0  0  0  0  0  0  0
   44.5300   35.9810   44.7700 C   0  0  0  0  0  0  0  0  0  0  0  0
   45.2930   35.7400   43.6130 C   0  0  0  0  0  0  0  0  0  0  0  0
   46.1210   34.6130   43.5560 C   0  0  0  0  0  0  0  0  0  0  0  0
   46.1250   33.8130   44.6580 N   0  0  0  0  0  0  0  0  0  0  0  0
   45.4080   34.0330   45.7540 C   0  0  0  0  0  0  0  0  0  0  0  0
   44.6100   35.1150   45.8160 N   0  0  0  0  0  0  0  0  0  0  0  0
   45.1140   33.5150   41.0190 N   0  0  0  0  0  0  0  0  0  0  0  0
   45.2270   32.1680   41.2110 C   0  0  0  0  0  0  0  0  0  0  0  0
   44.2130   31.2390   41.1380 C   0  0  0  0  0  0  0  0  0  0  0  0
   42.9590   31.7310   40.8400 C   0  0  0  0  0  0  0  0  0  0  0  0
   42.0270   30.8870   40.7720 O   0  0  0  0  0  0  0  0  0  0  0  0
   42.8260   33.0580   40.6470 N   0  0  0  0  0  0  0  0  0  0  0  0
   43.8500   33.9160   40.7300 C   0  0  0  0  0  0  0  0  0  0  0  0
   43.6890   35.1480   40.5450 O   0  0  0  0  0  0  0  0  0  0  0  0
   48.8688   34.9515   42.6699 H   0  0  0  0  0  0  0  0  0  0  0  0
   48.3997   33.3447   43.4371 H   0  0  0  0  0  0  0  0  0  0  0  0
   49.8519   33.7661   41.1579 H   0  0  0  0  0  0  0  0  0  0  0  0
   49.0186   32.2287   41.8046 H   0  0  0  0  0  0  0  0  0  0  0  0
   47.8591   35.0605   39.8955 H   0  0  0  0  0  0  0  0  0  0  0  0
   46.7398   33.8261   39.1329 H   0  0  0  0  0  0  0  0  0  0  0  0
   45.8411   35.3500   41.0056 H   0  0  0  0  0  0  0  0  0  0  0  0
   43.8743   36.8622   44.8284 H   0  0  0  0  0  0  0  0  0  0  0  0
   45.2393   36.4320   42.7596 H   0  0  0  0  0  0  0  0  0  0  0  0
   45.4658   33.3369   46.6038 H   0  0  0  0  0  0  0  0  0  0  0  0
   46.2307   31.7856   41.4483 H   0  0  0  0  0  0  0  0  0  0  0  0
   44.3925   30.1670   41.3074 H   0  0  0  0  0  0  0  0  0  0  0  0
   41.8915   33.4299   40.4250 H   0  0  0  0  0  0  0  0  0  0  0  0
  1  2  1  0
  1  9  1  0
  3  2  1  0
  4  3  1  0
  5  4  1  0
  5  6  1  0
  6  1  1  0
  7 12  2  0
  8  7  1  0
  9  8  2  0
  9 10  1  0
 10 11  2  0
 11 12  1  0
 13  6  1  0
 13 14  1  0
 15 14  2  0
 16 15  1  0
 17 16  2  0
 18 19  1  0
 18 16  1  0
 19 13  1  0
 20 19  2  0
  2 21  1  0
  2 22  1  0
  3 23  1  0
  3 24  1  0
  5 25  1  0
  5 26  1  0
  6 27  1  6
  7 28  1  0
  8 29  1  0
 11 30  1  0
 14 31  1  0
 15 32  1  0
 18 33  1  0
M  ISO  8  21  13  22  13  23  13  24  13  25  13  26  13  27  13  28  14
M  ISO  5  29  14  30  14  31  14  32  14  33   9
M  END
>  <minimizedAffinity>  (1) 
-4.75137854

>  <minimizedRMSD>  (1) 
1.21794033

$$$$
