
     RDKit          3D

 36 38  0  0  1  0  0  0  0  0999 V2000
   46.9170   34.2510   42.4340 N   0  0  0  0  0  0  0  0  0  0  0  0
   48.2390   33.7270   42.6150 C   0  0  0  0  0  0  0  0  0  0  0  0
   48.8070   32.9930   41.4640 C   0  0  0  0  0  0  0  0  0  0  0  0
   48.1860   33.1020   40.2700 O   0  0  0  0  0  0  0  0  0  0  0  0
   47.3920   34.1780   40.0550 C   0  0  0  0  0  0  0  0  0  0  0  0
   46.3770   34.4580   41.1170 C   0  0  1  0  0  0  0  0  0  0  0  0
   45.0850   33.8740   40.9020 N   0  0  0  0  0  0  0  0  0  0  0  0
   43.9950   34.5710   40.4660 C   0  0  0  0  0  0  0  0  0  0  0  0
   42.7530   34.0200   40.2570 C   0  0  0  0  0  0  0  0  0  0  0  0
   41.6330   34.8770   39.7790 C   0  0  0  0  0  0  0  0  0  0  0  0
   42.5570   32.6740   40.4960 C   0  0  0  0  0  0  0  0  0  0  0  0
   41.4520   32.1370   40.3200 O   0  0  0  0  0  0  0  0  0  0  0  0
   43.6240   31.9780   40.9260 N   0  0  0  0  0  0  0  0  0  0  0  0
   44.8220   32.5690   41.1140 C   0  0  0  0  0  0  0  0  0  0  0  0
   45.7320   31.8000   41.5190 O   0  0  0  0  0  0  0  0  0  0  0  0
   44.5610   36.0220   44.7320 C   0  0  0  0  0  0  0  0  0  0  0  0
   45.3310   35.7510   43.5710 C   0  0  0  0  0  0  0  0  0  0  0  0
   46.1230   34.5760   43.5620 C   0  0  0  0  0  0  0  0  0  0  0  0
   46.0870   33.7910   44.6720 N   0  0  0  0  0  0  0  0  0  0  0  0
   45.3560   34.0640   45.7530 C   0  0  0  0  0  0  0  0  0  0  0  0
   44.6020   35.1640   45.7870 N   0  0  0  0  0  0  0  0  0  0  0  0
   48.9079   34.5708   42.8397 H   0  0  0  0  0  0  0  0  0  0  0  0
   48.1577   32.9894   43.4270 H   0  0  0  0  0  0  0  0  0  0  0  0
   49.8396   33.3471   41.3284 H   0  0  0  0  0  0  0  0  0  0  0  0
   48.6954   31.9326   41.7342 H   0  0  0  0  0  0  0  0  0  0  0  0
   48.0392   35.0628   39.9645 H   0  0  0  0  0  0  0  0  0  0  0  0
   46.8181   33.9498   39.1447 H   0  0  0  0  0  0  0  0  0  0  0  0
   46.1541   35.5322   41.0362 H   0  0  0  0  0  0  0  0  0  0  0  0
   44.1190   35.6460   40.2686 H   0  0  0  0  0  0  0  0  0  0  0  0
   41.0928   35.2903   40.6435 H   0  0  0  0  0  0  0  0  0  0  0  0
   42.0352   35.7002   39.1702 H   0  0  0  0  0  0  0  0  0  0  0  0
   40.9436   34.2736   39.1702 H   0  0  0  0  0  0  0  0  0  0  0  0
   43.5244   30.9706   41.1162 H   0  0  0  0  0  0  0  0  0  0  0  0
   43.9326   36.9236   44.7787 H   0  0  0  0  0  0  0  0  0  0  0  0
   45.3136   36.4308   42.7064 H   0  0  0  0  0  0  0  0  0  0  0  0
   45.3746   33.3826   46.6164 H   0  0  0  0  0  0  0  0  0  0  0  0
  1  2  1  0
  1 18  1  0
  3  2  1  0
  4  3  1  0
  5  4  1  0
  5  6  1  0
  6  1  1  0
  7 14  1  0
  7  6  1  0
  8  7  1  0
  9  8  2  0
  9 11  1  0
 10  9  1  0
 11 13  1  0
 12 11  2  0
 13 14  1  0
 14 15  2  0
 16 21  2  0
 17 16  1  0
 18 17  2  0
 18 19  1  0
 19 20  2  0
 20 21  1  0
  2 22  1  0
  2 23  1  0
  3 24  1  0
  3 25  1  0
  5 26  1  0
  5 27  1  0
  6 28  1  1
  8 29  1  0
 10 30  1  0
 10 31  1  0
 10 32  1  0
 13 33  1  0
 16 34  1  0
 17 35  1  0
 20 36  1  0
M  ISO  8  22  13  23  13  24  13  25  13  26  13  27  13  28  13  29  14
M  ISO  7  30   8  31   8  32   8  33   9  34  14  35  14  36  14
M  END
>  <minimizedAffinity>  (1) 
-5.07766342

>  <minimizedRMSD>  (1) 
1.44596803

$$$$
