
     RDKit          3D

 30 32  0  0  1  0  0  0  0  0999 V2000
   47.2610   34.3830   42.3880 N   0  0  0  0  0  0  0  0  0  0  0  0
   48.5960   33.9900   42.6760 C   0  0  0  0  0  0  0  0  0  0  0  0
   49.3300   33.2980   41.5870 C   0  0  0  0  0  0  0  0  0  0  0  0
   48.7520   33.2920   40.3550 O   0  0  0  0  0  0  0  0  0  0  0  0
   47.9620   34.3730   40.0660 C   0  0  0  0  0  0  0  0  0  0  0  0
   46.7880   34.5140   41.0260 C   0  0  1  0  0  0  0  0  0  0  0  0
   44.5950   35.9930   44.4610 C   0  0  0  0  0  0  0  0  0  0  0  0
   45.4810   35.7660   43.3750 C   0  0  0  0  0  0  0  0  0  0  0  0
   46.3540   34.6600   43.4430 C   0  0  0  0  0  0  0  0  0  0  0  0
   46.2950   33.8660   44.5580 N   0  0  0  0  0  0  0  0  0  0  0  0
   45.4490   34.1070   45.5630 C   0  0  0  0  0  0  0  0  0  0  0  0
   44.6050   35.1520   45.5290 N   0  0  0  0  0  0  0  0  0  0  0  0
   45.7330   33.5730   40.7050 N   0  0  0  0  0  0  0  0  0  0  0  0
   44.5250   33.8960   40.2280 N   0  0  0  0  0  0  0  0  0  0  0  0
   43.7980   32.8010   40.0410 C   0  0  0  0  0  0  0  0  0  0  0  0
   44.5450   31.7020   40.4060 C   0  0  0  0  0  0  0  0  0  0  0  0
   45.7560   32.2380   40.8170 C   0  0  0  0  0  0  0  0  0  0  0  0
   49.1623   34.8958   42.9382 H   0  0  0  0  0  0  0  0  0  0  0  0
   48.5147   33.2525   43.4880 H   0  0  0  0  0  0  0  0  0  0  0  0
   50.3124   33.7831   41.4895 H   0  0  0  0  0  0  0  0  0  0  0  0
   49.3605   32.2415   41.8917 H   0  0  0  0  0  0  0  0  0  0  0  0
   48.5761   35.2838   40.1243 H   0  0  0  0  0  0  0  0  0  0  0  0
   47.5509   34.2248   39.0565 H   0  0  0  0  0  0  0  0  0  0  0  0
   46.3434   35.5145   40.9189 H   0  0  0  0  0  0  0  0  0  0  0  0
   43.9023   36.8472   44.4382 H   0  0  0  0  0  0  0  0  0  0  0  0
   45.4865   36.4358   42.5024 H   0  0  0  0  0  0  0  0  0  0  0  0
   45.4430   33.4371   46.4354 H   0  0  0  0  0  0  0  0  0  0  0  0
   42.7674   32.7752   39.6573 H   0  0  0  0  0  0  0  0  0  0  0  0
   44.2487   30.6430   40.3778 H   0  0  0  0  0  0  0  0  0  0  0  0
   46.6121   31.6518   41.1823 H   0  0  0  0  0  0  0  0  0  0  0  0
  1  2  1  0
  1  9  1  0
  3  2  1  0
  4  3  1  0
  5  4  1  0
  5  6  1  0
  6  1  1  0
  7 12  2  0
  8  9  2  0
  8  7  1  0
  9 10  1  0
 10 11  2  0
 12 11  1  0
 13 17  1  0
 13  6  1  0
 14 13  1  0
 15 14  2  0
 15 16  1  0
 16 17  2  0
  2 18  1  0
  2 19  1  0
  3 20  1  0
  3 21  1  0
  5 22  1  0
  5 23  1  0
  6 24  1  1
  7 25  1  0
  8 26  1  0
 11 27  1  0
 15 28  1  0
 16 29  1  0
 17 30  1  0
M  ISO  8  18  13  19  13  20  13  21  13  22  13  23  13  24  13  25  14
M  ISO  5  26  14  27  14  28  14  29  14  30  14
M  END
>  <minimizedAffinity>  (1) 
-4.38928509

>  <minimizedRMSD>  (1) 
0.403742403

$$$$
