
     RDKit          3D

 35 36  0  0  1  0  0  0  0  0999 V2000
   47.2970   34.3960   42.4060 N   0  0  0  0  0  0  0  0  0  0  0  0
   48.6210   33.9770   42.7170 C   0  0  0  0  0  0  0  0  0  0  0  0
   49.3500   33.3040   41.6120 C   0  0  0  0  0  0  0  0  0  0  0  0
   48.8360   33.4080   40.3620 O   0  0  0  0  0  0  0  0  0  0  0  0
   48.0500   34.4980   40.1150 C   0  0  0  0  0  0  0  0  0  0  0  0
   46.8390   34.5340   41.0530 C   0  0  1  0  0  0  0  0  0  0  0  0
   44.6000   36.0330   44.4380 C   0  0  0  0  0  0  0  0  0  0  0  0
   45.4960   35.7970   43.3920 C   0  0  0  0  0  0  0  0  0  0  0  0
   46.3590   34.6980   43.4430 C   0  0  0  0  0  0  0  0  0  0  0  0
   46.2850   33.8760   44.5520 N   0  0  0  0  0  0  0  0  0  0  0  0
   45.4020   34.1400   45.5460 C   0  0  0  0  0  0  0  0  0  0  0  0
   44.5760   35.1990   45.4880 N   0  0  0  0  0  0  0  0  0  0  0  0
   45.8770   33.4850   40.5880 C   0  0  0  0  0  0  0  0  0  0  0  0
   44.4720   34.0820   40.6230 C   0  0  0  0  0  0  0  0  0  0  0  0
   46.1430   33.0490   39.1630 C   0  0  0  0  0  0  0  0  0  0  0  0
   45.8620   32.2490   41.4200 C   0  0  0  0  0  0  0  0  0  0  0  0
   49.1979   34.8656   43.0130 H   0  0  0  0  0  0  0  0  0  0  0  0
   48.5230   33.2283   43.5169 H   0  0  0  0  0  0  0  0  0  0  0  0
   50.3662   33.7242   41.5852 H   0  0  0  0  0  0  0  0  0  0  0  0
   49.2868   32.2319   41.8500 H   0  0  0  0  0  0  0  0  0  0  0  0
   48.6458   35.4107   40.2636 H   0  0  0  0  0  0  0  0  0  0  0  0
   47.6855   34.4361   39.0790 H   0  0  0  0  0  0  0  0  0  0  0  0
   46.2948   35.4897   41.0296 H   0  0  0  0  0  0  0  0  0  0  0  0
   43.9194   36.8964   44.4005 H   0  0  0  0  0  0  0  0  0  0  0  0
   45.5225   36.4766   42.5274 H   0  0  0  0  0  0  0  0  0  0  0  0
   45.3604   33.4728   46.4196 H   0  0  0  0  0  0  0  0  0  0  0  0
   44.1565   34.2161   41.6682 H   0  0  0  0  0  0  0  0  0  0  0  0
   44.4749   35.0566   40.1130 H   0  0  0  0  0  0  0  0  0  0  0  0
   43.7724   33.4034   40.1130 H   0  0  0  0  0  0  0  0  0  0  0  0
   46.7159   32.1100   39.1677 H   0  0  0  0  0  0  0  0  0  0  0  0
   45.1865   32.8923   38.6429 H   0  0  0  0  0  0  0  0  0  0  0  0
   46.7199   33.8279   38.6429 H   0  0  0  0  0  0  0  0  0  0  0  0
   45.8653   32.5239   42.4851 H   0  0  0  0  0  0  0  0  0  0  0  0
   44.9567   31.6662   41.1946 H   0  0  0  0  0  0  0  0  0  0  0  0
   46.7529   31.6444   41.1946 H   0  0  0  0  0  0  0  0  0  0  0  0
  1  2  1  0
  1  9  1  0
  3  2  1  0
  4  3  1  0
  5  4  1  0
  5  6  1  0
  6  1  1  0
  7 12  2  0
  8  9  2  0
  8  7  1  0
  9 10  1  0
 10 11  2  0
 12 11  1  0
 13 14  1  0
 13  6  1  0
 13 16  1  0
 15 13  1  0
  2 17  1  0
  2 18  1  0
  3 19  1  0
  3 20  1  0
  5 21  1  0
  5 22  1  0
  6 23  1  1
  7 24  1  0
  8 25  1  0
 11 26  1  0
 14 27  1  0
 14 28  1  0
 14 29  1  0
 15 30  1  0
 15 31  1  0
 15 32  1  0
 16 33  1  0
 16 34  1  0
 16 35  1  0
M  ISO  8  17  13  18  13  19  13  20  13  21  13  22  13  23  13  24  14
M  ISO  8  25  14  26  14  27   8  28   8  29   8  30   8  31   8  32   8
M  ISO  3  33   8  34   8  35   8
M  END
>  <minimizedAffinity>  (1) 
-4.50028944

>  <minimizedRMSD>  (1) 
0.562020063

$$$$
