
     RDKit          3D

 30 32  0  0  1  0  0  0  0  0999 V2000
   47.2130   34.4720   42.3430 N   0  0  0  0  0  0  0  0  0  0  0  0
   48.6160   34.2590   42.5750 C   0  0  0  0  0  0  0  0  0  0  0  0
   49.3130   33.4550   41.5500 C   0  0  0  0  0  0  0  0  0  0  0  0
   48.7040   33.3140   40.3490 O   0  0  0  0  0  0  0  0  0  0  0  0
   47.7760   34.2450   39.9950 C   0  0  0  0  0  0  0  0  0  0  0  0
   46.6760   34.4510   41.0140 C   0  0  1  0  0  0  0  0  0  0  0  0
   44.5870   36.0270   44.5060 C   0  0  0  0  0  0  0  0  0  0  0  0
   45.4530   35.8210   43.4190 C   0  0  0  0  0  0  0  0  0  0  0  0
   46.3270   34.7090   43.4250 C   0  0  0  0  0  0  0  0  0  0  0  0
   46.2750   33.8810   44.5190 N   0  0  0  0  0  0  0  0  0  0  0  0
   45.4340   34.1080   45.5420 C   0  0  0  0  0  0  0  0  0  0  0  0
   44.5990   35.1670   45.5400 N   0  0  0  0  0  0  0  0  0  0  0  0
   45.5790   33.5370   40.8250 N   0  0  0  0  0  0  0  0  0  0  0  0
   45.3920   32.2010   40.9760 C   0  0  0  0  0  0  0  0  0  0  0  0
   44.1200   31.8400   40.6490 C   0  0  0  0  0  0  0  0  0  0  0  0
   43.4860   32.9510   40.2860 N   0  0  0  0  0  0  0  0  0  0  0  0
   44.3600   33.9740   40.3910 C   0  0  0  0  0  0  0  0  0  0  0  0
   49.1050   35.2431   42.6247 H   0  0  0  0  0  0  0  0  0  0  0  0
   48.6846   33.6835   43.5099 H   0  0  0  0  0  0  0  0  0  0  0  0
   50.2913   33.9250   41.3708 H   0  0  0  0  0  0  0  0  0  0  0  0
   49.3508   32.4381   41.9676 H   0  0  0  0  0  0  0  0  0  0  0  0
   48.2915   35.2053   39.8465 H   0  0  0  0  0  0  0  0  0  0  0  0
   47.2909   33.8725   39.0807 H   0  0  0  0  0  0  0  0  0  0  0  0
   46.2300   35.4436   40.8531 H   0  0  0  0  0  0  0  0  0  0  0  0
   43.9022   36.8878   44.5113 H   0  0  0  0  0  0  0  0  0  0  0  0
   45.4513   36.5196   42.5693 H   0  0  0  0  0  0  0  0  0  0  0  0
   45.4264   33.4167   46.3976 H   0  0  0  0  0  0  0  0  0  0  0  0
   46.1677   31.5002   41.3183 H   0  0  0  0  0  0  0  0  0  0  0  0
   43.6983   30.8245   40.6794 H   0  0  0  0  0  0  0  0  0  0  0  0
   44.1218   35.0222   40.1576 H   0  0  0  0  0  0  0  0  0  0  0  0
  1  2  1  0
  1  9  1  0
  3  2  1  0
  4  3  1  0
  5  4  1  0
  5  6  1  0
  6  1  1  0
  7 12  2  0
  8  9  2  0
  8  7  1  0
  9 10  1  0
 10 11  2  0
 12 11  1  0
 13 14  1  0
 13  6  1  0
 15 14  2  0
 16 17  2  0
 16 15  1  0
 17 13  1  0
  2 18  1  0
  2 19  1  0
  3 20  1  0
  3 21  1  0
  5 22  1  0
  5 23  1  0
  6 24  1  6
  7 25  1  0
  8 26  1  0
 11 27  1  0
 14 28  1  0
 15 29  1  0
 17 30  1  0
M  ISO  8  18  13  19  13  20  13  21  13  22  13  23  13  24  13  25  14
M  ISO  5  26  14  27  14  28  14  29  14  30  14
M  END
>  <minimizedAffinity>  (1) 
-4.4046483

>  <minimizedRMSD>  (1) 
0.507917821

$$$$
