
     RDKit          3D

 29 31  0  0  1  0  0  0  0  0999 V2000
   47.2340   34.4450   42.3440 N   0  0  0  0  0  0  0  0  0  0  0  0
   48.6220   34.1700   42.5650 C   0  0  0  0  0  0  0  0  0  0  0  0
   49.3150   33.4110   41.5020 C   0  0  0  0  0  0  0  0  0  0  0  0
   48.6620   33.2450   40.3180 O   0  0  0  0  0  0  0  0  0  0  0  0
   47.8110   34.2570   39.9950 C   0  0  0  0  0  0  0  0  0  0  0  0
   46.7030   34.4600   41.0130 C   0  0  1  0  0  0  0  0  0  0  0  0
   44.6010   36.0130   44.4750 C   0  0  0  0  0  0  0  0  0  0  0  0
   45.4680   35.8010   43.4000 C   0  0  0  0  0  0  0  0  0  0  0  0
   46.3390   34.7080   43.4050 C   0  0  0  0  0  0  0  0  0  0  0  0
   46.2840   33.8820   44.5070 N   0  0  0  0  0  0  0  0  0  0  0  0
   45.4460   34.0940   45.5360 C   0  0  0  0  0  0  0  0  0  0  0  0
   44.6150   35.1450   45.5220 N   0  0  0  0  0  0  0  0  0  0  0  0
   45.5910   33.4760   40.7950 C   0  0  0  0  0  0  0  0  0  0  0  0
   45.7370   32.0370   41.0950 C   0  0  0  0  0  0  0  0  0  0  0  0
   44.0820   31.4440   40.6270 S   0  0  0  0  0  0  0  0  0  0  0  0
   43.4800   33.1720   40.1180 C   0  0  0  0  0  0  0  0  0  0  0  0
   44.5170   34.0870   40.3180 N   0  0  0  0  0  0  0  0  0  0  0  0
   49.1404   35.1331   42.6819 H   0  0  0  0  0  0  0  0  0  0  0  0
   48.6560   33.5260   43.4561 H   0  0  0  0  0  0  0  0  0  0  0  0
   50.2591   33.9330   41.2869 H   0  0  0  0  0  0  0  0  0  0  0  0
   49.4204   32.3941   41.9080 H   0  0  0  0  0  0  0  0  0  0  0  0
   48.3902   35.1891   39.9193 H   0  0  0  0  0  0  0  0  0  0  0  0
   47.3318   33.9872   39.0423 H   0  0  0  0  0  0  0  0  0  0  0  0
   46.2559   35.4552   40.8724 H   0  0  0  0  0  0  0  0  0  0  0  0
   43.9146   36.8726   44.4745 H   0  0  0  0  0  0  0  0  0  0  0  0
   45.4650   36.4962   42.5475 H   0  0  0  0  0  0  0  0  0  0  0  0
   45.4423   33.4030   46.3919 H   0  0  0  0  0  0  0  0  0  0  0  0
   46.6009   31.4818   41.4893 H   0  0  0  0  0  0  0  0  0  0  0  0
   42.4794   33.4129   39.7296 H   0  0  0  0  0  0  0  0  0  0  0  0
  1  2  1  0
  1  9  1  0
  3  2  1  0
  4  3  1  0
  5  4  1  0
  5  6  1  0
  6  1  1  0
  7 12  2  0
  8  9  2  0
  8  7  1  0
  9 10  1  0
 10 11  2  0
 12 11  1  0
 13  6  1  0
 13 14  2  0
 15 14  1  0
 16 17  2  0
 16 15  1  0
 17 13  1  0
  2 18  1  0
  2 19  1  0
  3 20  1  0
  3 21  1  0
  5 22  1  0
  5 23  1  0
  6 24  1  6
  7 25  1  0
  8 26  1  0
 11 27  1  0
 14 28  1  0
 16 29  1  0
M  ISO  8  18  13  19  13  20  13  21  13  22  13  23  13  24  13  25  14
M  ISO  4  26  14  27  14  28  14  29  14
M  END
>  <minimizedAffinity>  (1) 
-4.38928604

>  <minimizedRMSD>  (1) 
0.135647029

$$$$
