
     RDKit          3D

 50 54  0  0  1  0  0  0  0  0999 V2000
   47.9760   34.6180   41.2180 C   0  0  1  0  0  0  0  0  0  0  0  0
   45.7240   34.2080   42.2270 C   0  0  0  0  0  0  0  0  0  0  0  0
   47.1160   34.2310   42.3470 C   0  0  0  0  0  0  0  0  0  0  0  0
   47.6930   33.8820   43.5910 C   0  0  0  0  0  0  0  0  0  0  0  0
   46.8900   33.5430   44.6080 N   0  0  0  0  0  0  0  0  0  0  0  0
   45.5460   33.5220   44.4850 C   0  0  0  0  0  0  0  0  0  0  0  0
   44.9960   33.8490   43.3180 N   0  0  0  0  0  0  0  0  0  0  0  0
   44.9900   34.5850   41.0680 C   0  0  0  0  0  0  0  0  0  0  0  0
   44.5220   33.3100   40.2950 C   0  0  0  0  0  0  0  0  0  0  0  0
   43.5090   33.9750   39.3320 C   0  0  0  0  0  0  0  0  0  0  0  0
   42.9550   35.1260   40.1050 C   0  0  0  0  0  0  0  0  0  0  0  0
   43.6460   35.1110   41.4550 C   0  0  0  0  0  0  0  0  0  0  0  0
   48.8670   35.7590   41.5140 C   0  0  0  0  0  0  0  0  0  0  0  0
   48.6700   33.3800   40.7170 C   0  0  0  0  0  0  0  0  0  0  0  0
   48.5330   33.2150   39.2800 N   0  0  0  0  0  0  0  0  0  0  0  0
   47.7950   34.1440   38.6970 N   0  0  0  0  0  0  0  0  0  0  0  0
   47.7230   33.9070   37.3810 C   0  0  0  0  0  0  0  0  0  0  0  0
   48.4490   32.7750   37.1120 C   0  0  0  0  0  0  0  0  0  0  0  0
   48.9420   32.3690   38.3230 C   0  0  0  0  0  0  0  0  0  0  0  0
   49.7620   31.2770   38.7280 N   0  0  0  0  0  0  0  0  0  0  0  0
   49.4060   30.1470   39.3540 C   0  0  0  0  0  0  0  0  0  0  0  0
   50.4750   29.3540   39.5680 N   0  0  0  0  0  0  0  0  0  0  0  0
   51.5530   29.9880   39.0660 C   0  0  0  0  0  0  0  0  0  0  0  0
   52.8760   29.5900   39.0380 C   0  0  0  0  0  0  0  0  0  0  0  0
   53.7700   30.4410   38.4600 N   0  0  0  0  0  0  0  0  0  0  0  0
   53.3120   31.6000   37.9590 C   0  0  0  0  0  0  0  0  0  0  0  0
   52.0290   31.9920   37.9830 N   0  0  0  0  0  0  0  0  0  0  0  0
   51.1060   31.1760   38.5490 C   0  0  0  0  0  0  0  0  0  0  0  0
   47.3592   35.0212   40.4013 H   0  0  0  0  0  0  0  0  0  0  0  0
   48.7853   33.8890   43.7210 H   0  0  0  0  0  0  0  0  0  0  0  0
   44.9131   33.2381   45.3387 H   0  0  0  0  0  0  0  0  0  0  0  0
   45.6408   35.2794   40.5164 H   0  0  0  0  0  0  0  0  0  0  0  0
   45.3497   32.8271   39.7550 H   0  0  0  0  0  0  0  0  0  0  0  0
   44.1213   32.4971   40.9184 H   0  0  0  0  0  0  0  0  0  0  0  0
   42.7103   33.2691   39.0604 H   0  0  0  0  0  0  0  0  0  0  0  0
   43.9768   34.2925   38.3884 H   0  0  0  0  0  0  0  0  0  0  0  0
   43.1638   36.0708   39.5818 H   0  0  0  0  0  0  0  0  0  0  0  0
   41.8638   35.0422   40.2159 H   0  0  0  0  0  0  0  0  0  0  0  0
   43.1369   34.4418   42.1642 H   0  0  0  0  0  0  0  0  0  0  0  0
   43.6654   36.0825   41.9705 H   0  0  0  0  0  0  0  0  0  0  0  0
   48.9602   35.8784   42.6035 H   0  0  0  0  0  0  0  0  0  0  0  0
   49.8599   35.5712   41.0794 H   0  0  0  0  0  0  0  0  0  0  0  0
   48.4441   36.6768   41.0794 H   0  0  0  0  0  0  0  0  0  0  0  0
   49.7395   33.4490   40.9649 H   0  0  0  0  0  0  0  0  0  0  0  0
   48.2008   32.5113   41.2020 H   0  0  0  0  0  0  0  0  0  0  0  0
   47.1768   34.5143   36.6442 H   0  0  0  0  0  0  0  0  0  0  0  0
   48.6023   32.2962   36.1336 H   0  0  0  0  0  0  0  0  0  0  0  0
   48.3771   29.8991   39.6538 H   0  0  0  0  0  0  0  0  0  0  0  0
   53.1941   28.6271   39.4642 H   0  0  0  0  0  0  0  0  0  0  0  0
   54.0430   32.2782   37.4945 H   0  0  0  0  0  0  0  0  0  0  0  0
  1 13  1  0
  1  3  1  0
  2  3  1  0
  2  7  2  0
  3  4  2  0
  4  5  1  0
  6  5  2  0
  7  6  1  0
  8 12  1  0
  8  2  1  0
  9  8  1  0
 10 11  1  0
 10  9  1  0
 11 12  1  0
 14  1  1  0
 15 14  1  0
 16 15  1  0
 17 16  2  0
 18 17  1  0
 18 19  2  0
 19 20  1  0
 19 15  1  0
 20 21  1  0
 21 22  2  0
 23 22  1  0
 24 23  2  0
 25 24  1  0
 26 27  1  0
 26 25  2  0
 27 28  2  0
 28 20  1  0
 28 23  1  0
  1 29  1  6
  4 30  1  0
  6 31  1  0
  8 32  1  0
  9 33  1  0
  9 34  1  0
 10 35  1  0
 10 36  1  0
 11 37  1  0
 11 38  1  0
 12 39  1  0
 12 40  1  0
 13 41  1  0
 13 42  1  0
 13 43  1  0
 14 44  1  0
 14 45  1  0
 17 46  1  0
 18 47  1  0
 21 48  1  0
 24 49  1  0
 26 50  1  0
M  ISO  8  29   8  30  14  31  14  32  13  33  13  34  13  35  13  36  13
M  ISO  8  37  13  38  13  39  13  40  13  41   8  42   8  43   8  44   8
M  ISO  6  45   8  46  14  47  14  48  14  49  14  50  14
M  END
>  <minimizedAffinity>  (1) 
-5.55292416

>  <minimizedRMSD>  (1) 
2.64765835

$$$$
