
     RDKit          3D

 30 32  0  0  1  0  0  0  0  0999 V2000
   47.2770   34.3750   42.3760 N   0  0  0  0  0  0  0  0  0  0  0  0
   48.6370   34.0230   42.6420 C   0  0  0  0  0  0  0  0  0  0  0  0
   49.3500   33.3070   41.5670 C   0  0  0  0  0  0  0  0  0  0  0  0
   48.7710   33.3030   40.3230 O   0  0  0  0  0  0  0  0  0  0  0  0
   47.9530   34.3620   40.0490 C   0  0  0  0  0  0  0  0  0  0  0  0
   46.7750   34.4540   41.0230 C   0  0  1  0  0  0  0  0  0  0  0  0
   44.6000   35.9850   44.4370 C   0  0  0  0  0  0  0  0  0  0  0  0
   45.4790   35.7550   43.3740 C   0  0  0  0  0  0  0  0  0  0  0  0
   46.3600   34.6630   43.4260 C   0  0  0  0  0  0  0  0  0  0  0  0
   46.3160   33.8580   44.5410 N   0  0  0  0  0  0  0  0  0  0  0  0
   45.4570   34.1030   45.5540 C   0  0  0  0  0  0  0  0  0  0  0  0
   44.6080   35.1550   45.5030 N   0  0  0  0  0  0  0  0  0  0  0  0
   45.8240   33.3980   40.6620 C   0  0  0  0  0  0  0  0  0  0  0  0
   44.6840   33.6200   39.9440 C   0  0  0  0  0  0  0  0  0  0  0  0
   44.0400   32.3910   39.7980 C   0  0  0  0  0  0  0  0  0  0  0  0
   44.8720   31.4890   40.4630 C   0  0  0  0  0  0  0  0  0  0  0  0
   45.8960   32.1020   40.9540 O   0  0  0  0  0  0  0  0  0  0  0  0
   49.1890   34.9516   42.8493 H   0  0  0  0  0  0  0  0  0  0  0  0
   48.5976   33.3193   43.4866 H   0  0  0  0  0  0  0  0  0  0  0  0
   50.3446   33.7661   41.4672 H   0  0  0  0  0  0  0  0  0  0  0  0
   49.3512   32.2530   41.8817 H   0  0  0  0  0  0  0  0  0  0  0  0
   48.5406   35.2895   40.1161 H   0  0  0  0  0  0  0  0  0  0  0  0
   47.5434   34.2180   39.0383 H   0  0  0  0  0  0  0  0  0  0  0  0
   46.2380   35.4120   40.9612 H   0  0  0  0  0  0  0  0  0  0  0  0
   43.9055   36.8375   44.4054 H   0  0  0  0  0  0  0  0  0  0  0  0
   45.4802   36.4257   42.5021 H   0  0  0  0  0  0  0  0  0  0  0  0
   45.4476   33.4392   46.4311 H   0  0  0  0  0  0  0  0  0  0  0  0
   44.3376   34.5882   39.5532 H   0  0  0  0  0  0  0  0  0  0  0  0
   43.0936   32.1811   39.2781 H   0  0  0  0  0  0  0  0  0  0  0  0
   44.6820   30.4095   40.5554 H   0  0  0  0  0  0  0  0  0  0  0  0
  1  2  1  0
  1  9  1  0
  3  2  1  0
  4  3  1  0
  5  4  1  0
  5  6  1  0
  6  1  1  0
  7 12  2  0
  8  9  2  0
  8  7  1  0
  9 10  1  0
 10 11  2  0
 12 11  1  0
 13 17  1  0
 13  6  1  0
 14 13  2  0
 15 14  1  0
 15 16  2  0
 16 17  1  0
  2 18  1  0
  2 19  1  0
  3 20  1  0
  3 21  1  0
  5 22  1  0
  5 23  1  0
  6 24  1  1
  7 25  1  0
  8 26  1  0
 11 27  1  0
 14 28  1  0
 15 29  1  0
 16 30  1  0
M  ISO  8  18  13  19  13  20  13  21  13  22  13  23  13  24  13  25  14
M  ISO  5  26  14  27  14  28  14  29  14  30  14
M  END
>  <minimizedAffinity>  (1) 
-4.35434294

>  <minimizedRMSD>  (1) 
0.310451329

$$$$
