
     RDKit          3D

 30 32  0  0  1  0  0  0  0  0999 V2000
   47.3000   34.2830   42.3200 N   0  0  0  0  0  0  0  0  0  0  0  0
   48.6020   33.7660   42.6060 C   0  0  0  0  0  0  0  0  0  0  0  0
   49.1670   32.9230   41.5280 C   0  0  0  0  0  0  0  0  0  0  0  0
   48.7790   33.2060   40.2600 O   0  0  0  0  0  0  0  0  0  0  0  0
   48.0670   34.3470   40.0110 C   0  0  0  0  0  0  0  0  0  0  0  0
   46.8480   34.4570   40.9430 C   0  0  1  0  0  0  0  0  0  0  0  0
   44.6480   36.0650   44.2910 C   0  0  0  0  0  0  0  0  0  0  0  0
   45.5360   35.7740   43.2460 C   0  0  0  0  0  0  0  0  0  0  0  0
   46.3710   34.6580   43.3360 C   0  0  0  0  0  0  0  0  0  0  0  0
   46.2850   33.8740   44.4730 N   0  0  0  0  0  0  0  0  0  0  0  0
   45.4210   34.1780   45.4620 C   0  0  0  0  0  0  0  0  0  0  0  0
   44.6150   35.2630   45.3630 N   0  0  0  0  0  0  0  0  0  0  0  0
   45.9430   33.2810   40.6280 C   0  0  0  0  0  0  0  0  0  0  0  0
   44.5030   33.4420   40.3670 C   0  0  0  0  0  0  0  0  0  0  0  0
   45.4990   33.1300   39.2020 C   0  0  0  0  0  0  0  0  0  0  0  0
   49.2817   34.6145   42.7733 H   0  0  0  0  0  0  0  0  0  0  0  0
   48.5005   33.1224   43.4922 H   0  0  0  0  0  0  0  0  0  0  0  0
   50.2619   33.0200   41.5698 H   0  0  0  0  0  0  0  0  0  0  0  0
   48.7842   31.9108   41.7255 H   0  0  0  0  0  0  0  0  0  0  0  0
   48.7192   35.2185   40.1691 H   0  0  0  0  0  0  0  0  0  0  0  0
   47.7087   34.3139   38.9715 H   0  0  0  0  0  0  0  0  0  0  0  0
   46.3416   35.4248   40.8129 H   0  0  0  0  0  0  0  0  0  0  0  0
   43.9862   36.9416   44.2312 H   0  0  0  0  0  0  0  0  0  0  0  0
   45.5750   36.4223   42.3582 H   0  0  0  0  0  0  0  0  0  0  0  0
   45.3697   33.5402   46.3567 H   0  0  0  0  0  0  0  0  0  0  0  0
   46.4808   32.6585   41.3582 H   0  0  0  0  0  0  0  0  0  0  0  0
   43.7912   32.6747   40.7055 H   0  0  0  0  0  0  0  0  0  0  0  0
   43.7534   34.2215   40.5683 H   0  0  0  0  0  0  0  0  0  0  0  0
   45.5002   32.1413   38.7198 H   0  0  0  0  0  0  0  0  0  0  0  0
   45.7599   33.5897   38.2373 H   0  0  0  0  0  0  0  0  0  0  0  0
  1  2  1  0
  1  9  1  0
  3  2  1  0
  4  3  1  0
  5  4  1  0
  5  6  1  0
  6  1  1  0
  7 12  2  0
  8  9  2  0
  8  7  1  0
  9 10  1  0
 10 11  2  0
 12 11  1  0
 13  6  1  0
 14 13  1  0
 15 14  1  0
 15 13  1  0
  2 16  1  0
  2 17  1  0
  3 18  1  0
  3 19  1  0
  5 20  1  0
  5 21  1  0
  6 22  1  1
  7 23  1  0
  8 24  1  0
 11 25  1  0
 13 26  1  0
 14 27  1  0
 14 28  1  0
 15 29  1  0
 15 30  1  0
M  ISO  8  16  13  17  13  18  13  19  13  20  13  21  13  22  13  23  14
M  ISO  7  24  14  25  14  26  13  27  13  28  13  29  13  30  13
M  END
>  <minimizedAffinity>  (1) 
-4.23533344

>  <minimizedRMSD>  (1) 
0.516838908

$$$$
