
     RDKit          3D

 26 27  0  0  1  0  0  0  0  0999 V2000
   47.3270   34.4210   42.3340 N   0  0  0  0  0  0  0  0  0  0  0  0
   48.7090   34.2150   42.6310 C   0  0  0  0  0  0  0  0  0  0  0  0
   49.4820   33.4340   41.6420 C   0  0  0  0  0  0  0  0  0  0  0  0
   48.8960   33.2080   40.4290 O   0  0  0  0  0  0  0  0  0  0  0  0
   47.9560   34.1010   40.0080 C   0  0  0  0  0  0  0  0  0  0  0  0
   46.8320   34.3280   40.9840 C   0  0  1  0  0  0  0  0  0  0  0  0
   44.6220   36.0830   44.3190 C   0  0  0  0  0  0  0  0  0  0  0  0
   45.5320   35.8520   43.2600 C   0  0  0  0  0  0  0  0  0  0  0  0
   46.3850   34.7250   43.3520 C   0  0  0  0  0  0  0  0  0  0  0  0
   46.2720   33.9240   44.4690 N   0  0  0  0  0  0  0  0  0  0  0  0
   45.3880   34.1860   45.4530 C   0  0  0  0  0  0  0  0  0  0  0  0
   44.5740   35.2540   45.3740 N   0  0  0  0  0  0  0  0  0  0  0  0
   45.7410   33.2860   40.8760 C   0  0  0  0  0  0  0  0  0  0  0  0
   49.1832   35.2034   42.7221 H   0  0  0  0  0  0  0  0  0  0  0  0
   48.7247   33.6170   43.5541 H   0  0  0  0  0  0  0  0  0  0  0  0
   50.4241   33.9716   41.4593 H   0  0  0  0  0  0  0  0  0  0  0  0
   49.5937   32.4369   42.0930 H   0  0  0  0  0  0  0  0  0  0  0  0
   48.4541   35.0649   39.8267 H   0  0  0  0  0  0  0  0  0  0  0  0
   47.5026   33.6751   39.1008 H   0  0  0  0  0  0  0  0  0  0  0  0
   46.3740   35.2910   40.7140 H   0  0  0  0  0  0  0  0  0  0  0  0
   43.9471   36.9506   44.2773 H   0  0  0  0  0  0  0  0  0  0  0  0
   45.5755   36.5268   42.3924 H   0  0  0  0  0  0  0  0  0  0  0  0
   45.3321   33.5210   46.3274 H   0  0  0  0  0  0  0  0  0  0  0  0
   45.4230   32.9823   41.8843 H   0  0  0  0  0  0  0  0  0  0  0  0
   44.8830   33.7085   40.3326 H   0  0  0  0  0  0  0  0  0  0  0  0
   46.1236   32.4095   40.3326 H   0  0  0  0  0  0  0  0  0  0  0  0
  1  2  1  0
  1  9  1  0
  3  2  1  0
  4  3  1  0
  5  4  1  0
  5  6  1  0
  6  1  1  0
  7 12  2  0
  8  9  2  0
  8  7  1  0
  9 10  1  0
 10 11  2  0
 12 11  1  0
 13  6  1  0
  2 14  1  0
  2 15  1  0
  3 16  1  0
  3 17  1  0
  5 18  1  0
  5 19  1  0
  6 20  1  6
  7 21  1  0
  8 22  1  0
 11 23  1  0
 13 24  1  0
 13 25  1  0
 13 26  1  0
M  ISO  8  14  13  15  13  16  13  17  13  18  13  19  13  20  13  21  14
M  ISO  5  22  14  23  14  24   8  25   8  26   8
M  END
>  <minimizedAffinity>  (1) 
-4.11970091

>  <minimizedRMSD>  (1) 
0.0880180001

$$$$
