
     RDKit          3D

 29 30  0  0  1  0  0  0  0  0999 V2000
   47.2430   34.4880   42.3630 N   0  0  0  0  0  0  0  0  0  0  0  0
   48.6330   34.3170   42.5740 C   0  0  0  0  0  0  0  0  0  0  0  0
   49.3400   33.4960   41.5580 C   0  0  0  0  0  0  0  0  0  0  0  0
   48.7180   33.3020   40.3640 O   0  0  0  0  0  0  0  0  0  0  0  0
   47.7390   34.1860   39.9990 C   0  0  0  0  0  0  0  0  0  0  0  0
   46.6760   34.4160   41.0280 C   0  0  1  0  0  0  0  0  0  0  0  0
   44.5740   36.0160   44.5030 C   0  0  0  0  0  0  0  0  0  0  0  0
   45.4470   35.8400   43.4090 C   0  0  0  0  0  0  0  0  0  0  0  0
   46.3330   34.7350   43.4260 C   0  0  0  0  0  0  0  0  0  0  0  0
   46.2910   33.8970   44.5120 N   0  0  0  0  0  0  0  0  0  0  0  0
   45.4380   34.1030   45.5380 C   0  0  0  0  0  0  0  0  0  0  0  0
   44.5880   35.1560   45.5310 N   0  0  0  0  0  0  0  0  0  0  0  0
   45.5830   33.3850   41.0400 C   0  0  0  0  0  0  0  0  0  0  0  0
   44.3540   33.9610   40.3730 C   0  0  0  0  0  0  0  0  0  0  0  0
   49.0984   35.3136   42.5873 H   0  0  0  0  0  0  0  0  0  0  0  0
   48.7282   33.7690   43.5230 H   0  0  0  0  0  0  0  0  0  0  0  0
   50.3037   33.9847   41.3519 H   0  0  0  0  0  0  0  0  0  0  0  0
   49.4071   32.4933   42.0052 H   0  0  0  0  0  0  0  0  0  0  0  0
   48.2166   35.1525   39.7804 H   0  0  0  0  0  0  0  0  0  0  0  0
   47.2329   33.7412   39.1295 H   0  0  0  0  0  0  0  0  0  0  0  0
   46.2232   35.3752   40.7366 H   0  0  0  0  0  0  0  0  0  0  0  0
   43.8760   36.8661   44.5125 H   0  0  0  0  0  0  0  0  0  0  0  0
   45.4399   36.5436   42.5635 H   0  0  0  0  0  0  0  0  0  0  0  0
   45.4339   33.4068   46.3896 H   0  0  0  0  0  0  0  0  0  0  0  0
   45.9143   32.4902   40.4926 H   0  0  0  0  0  0  0  0  0  0  0  0
   45.3463   33.1070   42.0776 H   0  0  0  0  0  0  0  0  0  0  0  0
   43.6419   34.2948   41.1421 H   0  0  0  0  0  0  0  0  0  0  0  0
   44.6443   34.8169   39.7459 H   0  0  0  0  0  0  0  0  0  0  0  0
   43.8820   33.1903   39.7459 H   0  0  0  0  0  0  0  0  0  0  0  0
  1  2  1  0
  1  9  1  0
  3  2  1  0
  4  3  1  0
  5  4  1  0
  5  6  1  0
  6 13  1  0
  6  1  1  0
  7 12  2  0
  8  9  2  0
  8  7  1  0
  9 10  1  0
 10 11  2  0
 12 11  1  0
 14 13  1  0
  2 15  1  0
  2 16  1  0
  3 17  1  0
  3 18  1  0
  5 19  1  0
  5 20  1  0
  6 21  1  6
  7 22  1  0
  8 23  1  0
 11 24  1  0
 13 25  1  0
 13 26  1  0
 14 27  1  0
 14 28  1  0
 14 29  1  0
M  ISO  8  15  13  16  13  17  13  18  13  19  13  20  13  21  13  22  14
M  ISO  7  23  14  24  14  25   8  26   8  27   8  28   8  29   8
M  END
>  <minimizedAffinity>  (1) 
-4.13919687

>  <minimizedRMSD>  (1) 
0.435246199

$$$$
