
     RDKit          3D

 40 43  0  0  1  0  0  0  0  0999 V2000
   45.9040   30.8160   47.3240 C   0  0  2  0  0  0  0  0  0  0  0  0
   44.7220   34.7510   46.1550 C   0  0  0  0  0  0  0  0  0  0  0  0
   44.5920   35.4500   44.9600 C   0  0  0  0  0  0  0  0  0  0  0  0
   45.2030   34.9230   43.8140 C   0  0  0  0  0  0  0  0  0  0  0  0
   45.8880   33.7640   43.9180 N   0  0  0  0  0  0  0  0  0  0  0  0
   46.0080   33.0870   45.1000 C   0  0  0  0  0  0  0  0  0  0  0  0
   45.4220   33.5960   46.1930 N   0  0  0  0  0  0  0  0  0  0  0  0
   46.7220   31.8820   45.2370 N   0  0  0  0  0  0  0  0  0  0  0  0
   47.6230   31.6170   44.2470 C   0  0  0  0  0  0  0  0  0  0  0  0
   48.2090   30.3850   44.6100 C   0  0  0  0  0  0  0  0  0  0  0  0
   47.6460   29.9660   45.7820 N   0  0  0  0  0  0  0  0  0  0  0  0
   46.7460   30.8940   46.1390 C   0  0  0  0  0  0  0  0  0  0  0  0
   46.6900   31.5420   48.4570 C   0  0  0  0  0  0  0  0  0  0  0  0
   45.6940   29.4060   47.7700 C   0  0  0  0  0  0  0  0  0  0  0  0
   44.7400   28.6990   46.9920 N   0  0  0  0  0  0  0  0  0  0  0  0
   44.1190   29.1650   45.9100 N   0  0  0  0  0  0  0  0  0  0  0  0
   43.2880   28.2030   45.4470 C   0  0  0  0  0  0  0  0  0  0  0  0
   43.3840   27.0830   46.2650 C   0  0  0  0  0  0  0  0  0  0  0  0
   44.3190   27.4250   47.2460 C   0  0  0  0  0  0  0  0  0  0  0  0
   44.7200   26.5530   48.2990 N   0  0  0  0  0  0  0  0  0  0  0  0
   45.8450   25.8690   48.0590 N   0  0  0  0  0  0  0  0  0  0  0  0
   46.1280   25.0840   49.1130 C   0  0  0  0  0  0  0  0  0  0  0  0
   45.1190   25.2960   50.0580 C   0  0  0  0  0  0  0  0  0  0  0  0
   44.2380   26.2360   49.5120 C   0  0  0  0  0  0  0  0  0  0  0  0
   44.9215   31.2587   47.1033 H   0  0  0  0  0  0  0  0  0  0  0  0
   44.2538   35.1393   47.0715 H   0  0  0  0  0  0  0  0  0  0  0  0
   44.0248   36.3914   44.9153 H   0  0  0  0  0  0  0  0  0  0  0  0
   45.1260   35.4437   42.8481 H   0  0  0  0  0  0  0  0  0  0  0  0
   47.8442   32.2292   43.3603 H   0  0  0  0  0  0  0  0  0  0  0  0
   48.9877   29.8523   44.0445 H   0  0  0  0  0  0  0  0  0  0  0  0
   46.3211   31.2012   49.4356 H   0  0  0  0  0  0  0  0  0  0  0  0
   47.7613   31.3089   48.3675 H   0  0  0  0  0  0  0  0  0  0  0  0
   46.5425   32.6284   48.3675 H   0  0  0  0  0  0  0  0  0  0  0  0
   46.6553   28.8750   47.7079 H   0  0  0  0  0  0  0  0  0  0  0  0
   45.3042   29.4479   48.7978 H   0  0  0  0  0  0  0  0  0  0  0  0
   42.6392   28.2928   44.5633 H   0  0  0  0  0  0  0  0  0  0  0  0
   42.8408   26.1320   46.1623 H   0  0  0  0  0  0  0  0  0  0  0  0
   46.9879   24.4053   49.2130 H   0  0  0  0  0  0  0  0  0  0  0  0
   45.0341   24.8150   51.0436 H   0  0  0  0  0  0  0  0  0  0  0  0
   43.3287   26.6369   49.9838 H   0  0  0  0  0  0  0  0  0  0  0  0
  1 14  1  0
  1 13  1  0
  2  7  2  0
  3  2  1  0
  4  5  1  0
  4  3  2  0
  5  6  2  0
  6  8  1  0
  6  7  1  0
  8 12  1  0
  9 10  2  0
  9  8  1  0
 10 11  1  0
 11 12  2  0
 12  1  1  0
 15 19  1  0
 15 14  1  0
 16 15  1  0
 17 16  2  0
 17 18  1  0
 18 19  2  0
 19 20  1  0
 20 24  1  0
 21 20  1  0
 21 22  2  0
 22 23  1  0
 24 23  2  0
  1 25  1  6
  2 26  1  0
  3 27  1  0
  4 28  1  0
  9 29  1  0
 10 30  1  0
 13 31  1  0
 13 32  1  0
 13 33  1  0
 14 34  1  0
 14 35  1  0
 17 36  1  0
 18 37  1  0
 22 38  1  0
 23 39  1  0
 24 40  1  0
M  ISO  8  25   8  26  14  27  14  28  14  29  14  30  14  31   8  32   8
M  ISO  8  33   8  34   8  35   8  36  14  37  14  38  14  39  14  40  14
M  END
>  <minimizedAffinity>  (1) 
-4.87971973

>  <minimizedRMSD>  (1) 
1.28681517

$$$$
