
     RDKit          3D

 27 28  0  0  1  0  0  0  0  0999 V2000
   47.0080   33.7310   42.1100 N   0  0  0  0  0  0  0  0  0  0  0  0
   46.4930   32.5860   41.3850 C   0  0  0  0  0  0  0  0  0  0  0  0
   47.1570   32.2860   40.1030 C   0  0  0  0  0  0  0  0  0  0  0  0
   48.3900   32.8110   39.8970 O   0  0  0  0  0  0  0  0  0  0  0  0
   49.0890   33.1960   40.9950 C   0  0  0  0  0  0  0  0  0  0  0  0
   48.3290   34.2170   41.8560 C   0  0  2  0  0  0  0  0  0  0  0  0
   45.1320   34.5380   45.2400 C   0  0  0  0  0  0  0  0  0  0  0  0
   45.9100   33.8420   44.3110 C   0  0  0  0  0  0  0  0  0  0  0  0
   46.2100   34.3960   43.0660 C   0  0  0  0  0  0  0  0  0  0  0  0
   45.7040   35.6580   42.7950 N   0  0  0  0  0  0  0  0  0  0  0  0
   44.9520   36.3140   43.7140 C   0  0  0  0  0  0  0  0  0  0  0  0
   44.6750   35.7540   44.9160 N   0  0  0  0  0  0  0  0  0  0  0  0
   49.1500   34.5420   43.0210 C   0  0  0  0  0  0  0  0  0  0  0  0
   50.1810   35.1960   43.0360 O   0  0  0  0  0  0  0  0  0  0  0  0
   46.5951   31.7028   42.0327 H   0  0  0  0  0  0  0  0  0  0  0  0
   45.4526   32.8369   41.1308 H   0  0  0  0  0  0  0  0  0  0  0  0
   47.2481   31.1924   40.0275 H   0  0  0  0  0  0  0  0  0  0  0  0
   46.5206   32.7599   39.3411 H   0  0  0  0  0  0  0  0  0  0  0  0
   49.2993   32.3069   41.6075 H   0  0  0  0  0  0  0  0  0  0  0  0
   50.0138   33.6791   40.6467 H   0  0  0  0  0  0  0  0  0  0  0  0
   48.1659   35.1783   41.3467 H   0  0  0  0  0  0  0  0  0  0  0  0
   44.8993   34.0949   46.2196 H   0  0  0  0  0  0  0  0  0  0  0  0
   46.2917   32.8421   44.5651 H   0  0  0  0  0  0  0  0  0  0  0  0
   44.5615   37.3153   43.4797 H   0  0  0  0  0  0  0  0  0  0  0  0
   48.4709   35.0686   43.7077 H   0  0  0  0  0  0  0  0  0  0  0  0
   49.5708   33.5459   43.2228 H   0  0  0  0  0  0  0  0  0  0  0  0
   50.4500   35.3666   43.9734 H   0  0  0  0  0  0  0  0  0  0  0  0
  1  9  1  0
  2  1  1  0
  3  2  1  0
  4  3  1  0
  4  5  1  0
  5  6  1  0
  6  1  1  0
  6 13  1  0
  8  7  2  0
  9  8  1  0
 10  9  2  0
 10 11  1  0
 11 12  2  0
 12  7  1  0
 13 14  1  0
  2 15  1  0
  2 16  1  0
  3 17  1  0
  3 18  1  0
  5 19  1  0
  5 20  1  0
  6 21  1  6
  7 22  1  0
  8 23  1  0
 11 24  1  0
 13 25  1  0
 13 26  1  0
 14 27  1  0
M  ISO  8  15  13  16  13  17  13  18  13  19  13  20  13  21  13  22  14
M  ISO  5  23  14  24  14  25   8  26   8  27   3
M  END
>  <minimizedAffinity>  (1) 
-4.31601763

>  <minimizedRMSD>  (1) 
2.66175747

$$$$
