
     RDKit          3D

 35 37  0  0  1  0  0  0  0  0999 V2000
   45.4670   34.4040   41.6830 N   0  0  0  0  0  0  0  0  0  0  0  0
   46.3640   34.0300   40.6210 C   0  0  0  0  0  0  0  0  0  0  0  0
   47.7330   34.5700   40.7160 C   0  0  0  0  0  0  0  0  0  0  0  0
   48.1510   34.9820   41.9310 O   0  0  0  0  0  0  0  0  0  0  0  0
   47.4830   34.5240   43.0200 C   0  0  0  0  0  0  0  0  0  0  0  0
   45.9880   34.8250   42.9560 C   0  0  2  0  0  0  0  0  0  0  0  0
   41.9610   33.1710   41.2520 C   0  0  0  0  0  0  0  0  0  0  0  0
   43.3510   33.1590   41.4200 C   0  0  0  0  0  0  0  0  0  0  0  0
   44.0600   34.3690   41.5110 C   0  0  0  0  0  0  0  0  0  0  0  0
   43.3390   35.5580   41.4290 N   0  0  0  0  0  0  0  0  0  0  0  0
   41.9970   35.5260   41.2650 C   0  0  0  0  0  0  0  0  0  0  0  0
   41.3340   34.3530   41.1800 N   0  0  0  0  0  0  0  0  0  0  0  0
   45.3390   34.2520   44.1410 C   0  0  0  0  0  0  0  0  0  0  0  0
   45.5840   33.1640   44.6220 O   0  0  0  0  0  0  0  0  0  0  0  0
   46.0210   32.3170   45.5780 C   0  0  0  0  0  0  0  0  0  0  0  0
   46.6810   32.9600   46.6300 C   0  0  0  0  0  0  0  0  0  0  0  0
   47.1970   32.2330   47.7030 C   0  0  0  0  0  0  0  0  0  0  0  0
   47.0590   30.9160   47.7240 N   0  0  0  0  0  0  0  0  0  0  0  0
   46.4320   30.2940   46.7280 C   0  0  0  0  0  0  0  0  0  0  0  0
   45.9280   30.9800   45.6850 N   0  0  0  0  0  0  0  0  0  0  0  0
   45.9287   34.3792   39.6731 H   0  0  0  0  0  0  0  0  0  0  0  0
   46.4689   32.9372   40.6900 H   0  0  0  0  0  0  0  0  0  0  0  0
   48.4232   33.7830   40.3780 H   0  0  0  0  0  0  0  0  0  0  0  0
   47.7225   35.4791   40.0968 H   0  0  0  0  0  0  0  0  0  0  0  0
   47.6213   33.4348   43.0867 H   0  0  0  0  0  0  0  0  0  0  0  0
   47.8905   35.0375   43.9033 H   0  0  0  0  0  0  0  0  0  0  0  0
   45.7736   35.9030   42.9996 H   0  0  0  0  0  0  0  0  0  0  0  0
   41.3957   32.2301   41.1806 H   0  0  0  0  0  0  0  0  0  0  0  0
   43.8887   32.2013   41.4808 H   0  0  0  0  0  0  0  0  0  0  0  0
   41.4369   36.4705   41.1998 H   0  0  0  0  0  0  0  0  0  0  0  0
   45.5198   34.9751   44.9500 H   0  0  0  0  0  0  0  0  0  0  0  0
   44.3332   34.0628   43.7378 H   0  0  0  0  0  0  0  0  0  0  0  0
   46.7948   34.0539   46.6111 H   0  0  0  0  0  0  0  0  0  0  0  0
   47.7143   32.7495   48.5250 H   0  0  0  0  0  0  0  0  0  0  0  0
   46.3237   29.1997   46.7577 H   0  0  0  0  0  0  0  0  0  0  0  0
  1  6  1  0
  2  3  1  0
  2  1  1  0
  3  4  1  0
  4  5  1  0
  6  5  1  0
  6 13  1  0
  7  8  2  0
  8  9  1  0
  9  1  1  0
 10  9  2  0
 11 10  1  0
 12  7  1  0
 12 11  2  0
 13 14  1  0
 14 15  1  0
 15 20  1  0
 15 16  2  0
 16 17  1  0
 17 18  2  0
 19 18  1  0
 20 19  2  0
  2 21  1  0
  2 22  1  0
  3 23  1  0
  3 24  1  0
  5 25  1  0
  5 26  1  0
  6 27  1  1
  7 28  1  0
  8 29  1  0
 11 30  1  0
 13 31  1  0
 13 32  1  0
 16 33  1  0
 17 34  1  0
 19 35  1  0
M  ISO  8  21  13  22  13  23  13  24  13  25  13  26  13  27  13  28  14
M  ISO  7  29  14  30  14  31   8  32   8  33  14  34  14  35  14
M  END
>  <minimizedAffinity>  (1) 
-4.81158161

>  <minimizedRMSD>  (1) 
5.68184423

$$$$
