
     RDKit          3D

 30 31  0  0  1  0  0  0  0  0999 V2000
   46.2150   34.3840   41.3180 N   0  0  0  0  0  0  0  0  0  0  0  0
   46.9930   34.0930   40.1320 C   0  0  0  0  0  0  0  0  0  0  0  0
   48.3210   34.7330   40.0750 C   0  0  0  0  0  0  0  0  0  0  0  0
   48.8570   35.1730   41.2380 O   0  0  0  0  0  0  0  0  0  0  0  0
   48.3740   34.6270   42.3870 C   0  0  0  0  0  0  0  0  0  0  0  0
   46.8450   34.8190   42.5270 C   0  0  2  0  0  0  0  0  0  0  0  0
   42.7780   32.9120   41.2740 C   0  0  0  0  0  0  0  0  0  0  0  0
   44.1660   32.9990   41.2740 C   0  0  0  0  0  0  0  0  0  0  0  0
   44.8040   34.2470   41.3160 C   0  0  0  0  0  0  0  0  0  0  0  0
   44.0060   35.3830   41.3560 N   0  0  0  0  0  0  0  0  0  0  0  0
   42.6510   35.2460   41.3540 C   0  0  0  0  0  0  0  0  0  0  0  0
   42.0580   34.0410   41.3130 N   0  0  0  0  0  0  0  0  0  0  0  0
   46.4330   34.1170   43.7500 C   0  0  0  0  0  0  0  0  0  0  0  0
   45.3850   34.3670   44.3740 O   0  0  0  0  0  0  0  0  0  0  0  0
   44.7490   35.4960   44.8740 C   0  0  0  0  0  0  0  0  0  0  0  0
   44.4090   35.4060   46.0820 O   0  0  0  0  0  0  0  0  0  0  0  0
   44.5000   36.6390   44.1260 O   0  0  0  0  0  0  0  0  0  0  0  0
   47.1384   33.0039   40.0800 H   0  0  0  0  0  0  0  0  0  0  0  0
   46.4218   34.5030   39.2860 H   0  0  0  0  0  0  0  0  0  0  0  0
   49.0209   34.0003   39.6469 H   0  0  0  0  0  0  0  0  0  0  0  0
   48.1659   35.6436   39.4777 H   0  0  0  0  0  0  0  0  0  0  0  0
   48.5975   33.5500   42.3888 H   0  0  0  0  0  0  0  0  0  0  0  0
   48.8576   35.1373   43.2330 H   0  0  0  0  0  0  0  0  0  0  0  0
   46.5354   35.8678   42.6461 H   0  0  0  0  0  0  0  0  0  0  0  0
   42.2794   31.9320   41.2425 H   0  0  0  0  0  0  0  0  0  0  0  0
   44.7693   32.0798   41.2407 H   0  0  0  0  0  0  0  0  0  0  0  0
   42.0233   36.1488   41.3869 H   0  0  0  0  0  0  0  0  0  0  0  0
   46.3720   33.0530   43.4776 H   0  0  0  0  0  0  0  0  0  0  0  0
   47.1921   34.4722   44.4625 H   0  0  0  0  0  0  0  0  0  0  0  0
   44.0416   37.4121   44.5411 H   0  0  0  0  0  0  0  0  0  0  0  0
  1  6  1  0
  2  1  1  0
  3  2  1  0
  3  4  1  0
  4  5  1  0
  5  6  1  0
  6 13  1  0
  7 12  2  0
  8  7  1  0
  8  9  2  0
  9  1  1  0
  9 10  1  0
 11 10  2  0
 12 11  1  0
 13 14  1  0
 14 15  1  0
 15 16  2  0
 17 15  1  0
  2 18  1  0
  2 19  1  0
  3 20  1  0
  3 21  1  0
  5 22  1  0
  5 23  1  0
  6 24  1  1
  7 25  1  0
  8 26  1  0
 11 27  1  0
 13 28  1  0
 13 29  1  0
 17 30  1  0
M  ISO  8  18  13  19  13  20  13  21  13  22  13  23  13  24  13  25  14
M  ISO  5  26  14  27  14  28   8  29   8  30   3
M  END
>  <minimizedAffinity>  (1) 
-4.87851238

>  <minimizedRMSD>  (1) 
4.05379391

$$$$
