
     RDKit          3D

 30 31  0  0  1  0  0  0  0  0999 V2000
   45.1870   33.6630   41.0810 N   0  0  0  0  0  0  0  0  0  0  0  0
   44.1310   32.8070   40.5920 C   0  0  0  0  0  0  0  0  0  0  0  0
   43.9940   32.7590   39.1170 C   0  0  0  0  0  0  0  0  0  0  0  0
   45.0770   33.1000   38.3770 O   0  0  0  0  0  0  0  0  0  0  0  0
   46.2880   33.0960   39.0010 C   0  0  0  0  0  0  0  0  0  0  0  0
   46.3090   33.9870   40.2460 C   0  0  2  0  0  0  0  0  0  0  0  0
   45.2960   33.9870   44.8020 C   0  0  0  0  0  0  0  0  0  0  0  0
   45.3460   33.4130   43.5210 C   0  0  0  0  0  0  0  0  0  0  0  0
   45.1450   34.2030   42.3920 C   0  0  0  0  0  0  0  0  0  0  0  0
   44.8950   35.5630   42.5720 N   0  0  0  0  0  0  0  0  0  0  0  0
   44.8560   36.0740   43.8290 C   0  0  0  0  0  0  0  0  0  0  0  0
   45.0530   35.2960   44.9160 N   0  0  0  0  0  0  0  0  0  0  0  0
   47.6390   33.9040   40.8720 C   0  0  0  0  0  0  0  0  0  0  0  0
   48.4830   34.7840   40.7660 O   0  0  0  0  0  0  0  0  0  0  0  0
   49.1040   35.4190   41.8230 C   0  0  0  0  0  0  0  0  0  0  0  0
   48.2880   35.2340   42.9460 F   0  0  0  0  0  0  0  0  0  0  0  0
   50.2490   34.6690   42.0990 F   0  0  0  0  0  0  0  0  0  0  0  0
   49.3530   36.7460   41.6420 F   0  0  0  0  0  0  0  0  0  0  0  0
   44.3271   31.7854   40.9496 H   0  0  0  0  0  0  0  0  0  0  0  0
   43.1907   33.2313   40.9737 H   0  0  0  0  0  0  0  0  0  0  0  0
   43.7199   31.7291   38.8448 H   0  0  0  0  0  0  0  0  0  0  0  0
   43.2403   33.5244   38.8803 H   0  0  0  0  0  0  0  0  0  0  0  0
   46.5269   32.0650   39.3010 H   0  0  0  0  0  0  0  0  0  0  0  0
   47.0301   33.4934   38.2930 H   0  0  0  0  0  0  0  0  0  0  0  0
   46.1757   35.0524   40.0072 H   0  0  0  0  0  0  0  0  0  0  0  0
   45.4545   33.3684   45.6977 H   0  0  0  0  0  0  0  0  0  0  0  0
   45.5444   32.3368   43.4094 H   0  0  0  0  0  0  0  0  0  0  0  0
   44.6592   37.1476   43.9660 H   0  0  0  0  0  0  0  0  0  0  0  0
   47.4590   33.7855   41.9507 H   0  0  0  0  0  0  0  0  0  0  0  0
   48.1008   33.0870   40.2983 H   0  0  0  0  0  0  0  0  0  0  0  0
  1  9  1  0
  2  1  1  0
  3  2  1  0
  4  5  1  0
  4  3  1  0
  5  6  1  0
  6 13  1  0
  6  1  1  0
  7 12  2  0
  8  7  1  0
  9 10  1  0
  9  8  2  0
 10 11  2  0
 11 12  1  0
 14 13  1  0
 14 15  1  0
 15 17  1  0
 15 16  1  0
 18 15  1  0
  2 19  1  0
  2 20  1  0
  3 21  1  0
  3 22  1  0
  5 23  1  0
  5 24  1  0
  6 25  1  6
  7 26  1  0
  8 27  1  0
 11 28  1  0
 13 29  1  0
 13 30  1  0
M  ISO  8  19  13  20  13  21  13  22  13  23  13  24  13  25  13  26  14
M  ISO  4  27  14  28  14  29   8  30   8
M  END
>  <minimizedAffinity>  (1) 
-4.71253395

>  <minimizedRMSD>  (1) 
2.53271651

$$$$
