
     RDKit          3D

 43 45  0  0  1  0  0  0  0  0999 V2000
   44.6220   32.1150   42.2060 N   0  0  0  0  0  0  0  0  0  0  0  0
   43.6750   31.0750   42.5560 C   0  0  0  0  0  0  0  0  0  0  0  0
   43.2950   30.1810   41.4420 C   0  0  0  0  0  0  0  0  0  0  0  0
   44.1600   30.0730   40.4060 O   0  0  0  0  0  0  0  0  0  0  0  0
   45.4260   30.5030   40.6070 C   0  0  0  0  0  0  0  0  0  0  0  0
   45.4910   31.9610   41.0770 C   0  0  2  0  0  0  0  0  0  0  0  0
   45.3190   34.5290   44.9790 C   0  0  0  0  0  0  0  0  0  0  0  0
   45.2460   33.3380   44.2570 C   0  0  0  0  0  0  0  0  0  0  0  0
   44.7120   33.3060   42.9690 C   0  0  0  0  0  0  0  0  0  0  0  0
   44.2610   34.5030   42.4420 N   0  0  0  0  0  0  0  0  0  0  0  0
   44.3440   35.6420   43.1620 C   0  0  0  0  0  0  0  0  0  0  0  0
   44.8660   35.6430   44.4090 N   0  0  0  0  0  0  0  0  0  0  0  0
   46.8980   32.3070   41.3050 C   0  0  0  0  0  0  0  0  0  0  0  0
   47.7430   32.5040   40.4300 O   0  0  0  0  0  0  0  0  0  0  0  0
   48.7280   33.4480   40.4230 C   0  0  0  0  0  0  0  0  0  0  0  0
   49.8200   33.0100   41.3360 C   0  0  0  0  0  0  0  0  0  0  0  0
   50.3100   33.9400   42.3650 C   0  0  0  0  0  0  0  0  0  0  0  0
   49.4290   35.0950   42.7250 C   0  0  0  0  0  0  0  0  0  0  0  0
   49.0650   35.7340   41.3800 C   0  0  0  0  0  0  0  0  0  0  0  0
   48.0700   34.7500   40.8110 C   0  0  0  0  0  0  0  0  0  0  0  0
   44.1211   30.4598   43.3513 H   0  0  0  0  0  0  0  0  0  0  0  0
   42.7537   31.5882   42.8687 H   0  0  0  0  0  0  0  0  0  0  0  0
   43.1546   29.1736   41.8608 H   0  0  0  0  0  0  0  0  0  0  0  0
   42.3937   30.6394   41.0089 H   0  0  0  0  0  0  0  0  0  0  0  0
   45.8963   29.8663   41.3708 H   0  0  0  0  0  0  0  0  0  0  0  0
   45.9533   30.4419   39.6435 H   0  0  0  0  0  0  0  0  0  0  0  0
   45.1251   32.6771   40.3265 H   0  0  0  0  0  0  0  0  0  0  0  0
   45.7407   34.5471   45.9948 H   0  0  0  0  0  0  0  0  0  0  0  0
   45.6162   32.4072   44.7115 H   0  0  0  0  0  0  0  0  0  0  0  0
   43.9809   36.5847   42.7268 H   0  0  0  0  0  0  0  0  0  0  0  0
   46.8757   33.2325   41.8991 H   0  0  0  0  0  0  0  0  0  0  0  0
   47.2645   31.3525   41.7108 H   0  0  0  0  0  0  0  0  0  0  0  0
   49.2043   33.5865   39.4412 H   0  0  0  0  0  0  0  0  0  0  0  0
   49.4607   32.1116   41.8593 H   0  0  0  0  0  0  0  0  0  0  0  0
   50.6839   32.8797   40.6677 H   0  0  0  0  0  0  0  0  0  0  0  0
   50.4811   33.3571   43.2820 H   0  0  0  0  0  0  0  0  0  0  0  0
   51.2085   34.3978   41.9256 H   0  0  0  0  0  0  0  0  0  0  0  0
   48.5256   34.7469   43.2472 H   0  0  0  0  0  0  0  0  0  0  0  0
   49.9253   35.8038   43.4041 H   0  0  0  0  0  0  0  0  0  0  0  0
   48.6085   36.7248   41.5209 H   0  0  0  0  0  0  0  0  0  0  0  0
   49.9331   35.9079   40.7272 H   0  0  0  0  0  0  0  0  0  0  0  0
   47.6023   35.1922   39.9190 H   0  0  0  0  0  0  0  0  0  0  0  0
   47.3194   34.5360   41.5862 H   0  0  0  0  0  0  0  0  0  0  0  0
  1  2  1  0
  1  9  1  0
  3  2  1  0
  4  5  1  0
  4  3  1  0
  5  6  1  0
  6 13  1  0
  6  1  1  0
  8  7  2  0
  9  8  1  0
 10  9  2  0
 10 11  1  0
 11 12  2  0
 12  7  1  0
 14 13  1  0
 15 14  1  0
 15 20  1  0
 15 16  1  0
 16 17  1  0
 17 18  1  0
 19 18  1  0
 20 19  1  0
  2 21  1  0
  2 22  1  0
  3 23  1  0
  3 24  1  0
  5 25  1  0
  5 26  1  0
  6 27  1  6
  7 28  1  0
  8 29  1  0
 11 30  1  0
 13 31  1  0
 13 32  1  0
 15 33  1  0
 16 34  1  0
 16 35  1  0
 17 36  1  0
 17 37  1  0
 18 38  1  0
 18 39  1  0
 19 40  1  0
 19 41  1  0
 20 42  1  0
 20 43  1  0
M  ISO  8  21  13  22  13  23  13  24  13  25  13  26  13  27  13  28  14
M  ISO  8  29  14  30  14  31   8  32   8  33  13  34  13  35  13  36  13
M  ISO  7  37  13  38  13  39  13  40  13  41  13  42  13  43  13
M  END
>  <minimizedAffinity>  (1) 
-4.68023491

>  <minimizedRMSD>  (1) 
3.40290213

$$$$
