
     RDKit          3D

 29 30  0  0  1  0  0  0  0  0999 V2000
   46.3080   34.4320   41.5560 N   0  0  0  0  0  0  0  0  0  0  0  0
   47.2120   34.3690   40.4310 C   0  0  0  0  0  0  0  0  0  0  0  0
   48.5320   35.0150   40.6490 C   0  0  0  0  0  0  0  0  0  0  0  0
   48.9710   35.1130   41.9290 O   0  0  0  0  0  0  0  0  0  0  0  0
   48.3400   34.3610   42.8750 C   0  0  0  0  0  0  0  0  0  0  0  0
   46.8260   34.5820   42.8840 C   0  0  2  0  0  0  0  0  0  0  0  0
   42.8940   33.1000   40.8570 C   0  0  0  0  0  0  0  0  0  0  0  0
   44.2710   33.1540   41.0200 C   0  0  0  0  0  0  0  0  0  0  0  0
   44.9070   34.3510   41.3840 C   0  0  0  0  0  0  0  0  0  0  0  0
   44.1130   35.4730   41.5780 N   0  0  0  0  0  0  0  0  0  0  0  0
   42.7680   35.3770   41.4090 C   0  0  0  0  0  0  0  0  0  0  0  0
   42.1790   34.2020   41.0540 N   0  0  0  0  0  0  0  0  0  0  0  0
   46.2270   33.6960   43.9060 C   0  0  0  0  0  0  0  0  0  0  0  0
   45.4880   34.0700   44.8080 O   0  0  0  0  0  0  0  0  0  0  0  0
   44.7850   35.2420   45.0660 C   0  0  0  0  0  0  0  0  0  0  0  0
   44.3530   35.3190   46.2600 O   0  0  0  0  0  0  0  0  0  0  0  0
   46.7275   34.8630   39.5759 H   0  0  0  0  0  0  0  0  0  0  0  0
   47.4166   33.3017   40.2605 H   0  0  0  0  0  0  0  0  0  0  0  0
   49.2800   34.4374   40.0860 H   0  0  0  0  0  0  0  0  0  0  0  0
   48.3973   36.0545   40.3153 H   0  0  0  0  0  0  0  0  0  0  0  0
   48.5404   33.2985   42.6726 H   0  0  0  0  0  0  0  0  0  0  0  0
   48.7284   34.6653   43.8581 H   0  0  0  0  0  0  0  0  0  0  0  0
   46.5561   35.6076   43.1761 H   0  0  0  0  0  0  0  0  0  0  0  0
   42.4022   32.1591   40.5691 H   0  0  0  0  0  0  0  0  0  0  0  0
   44.8721   32.2465   40.8618 H   0  0  0  0  0  0  0  0  0  0  0  0
   42.1415   36.2681   41.5624 H   0  0  0  0  0  0  0  0  0  0  0  0
   45.6499   32.9467   43.3443 H   0  0  0  0  0  0  0  0  0  0  0  0
   47.1226   33.4196   44.4818 H   0  0  0  0  0  0  0  0  0  0  0  0
   44.6189   36.0253   44.3118 H   0  0  0  0  0  0  0  0  0  0  0  0
  1  6  1  0
  2  3  1  0
  2  1  1  0
  3  4  1  0
  4  5  1  0
  5  6  1  0
  6 13  1  0
  7  8  2  0
  7 12  1  0
  8  9  1  0
  9  1  1  0
  9 10  2  0
 11 10  1  0
 12 11  2  0
 13 14  1  0
 14 15  1  0
 15 16  2  0
  2 17  1  0
  2 18  1  0
  3 19  1  0
  3 20  1  0
  5 21  1  0
  5 22  1  0
  6 23  1  1
  7 24  1  0
  8 25  1  0
 11 26  1  0
 13 27  1  0
 13 28  1  0
 15 29  1  0
M  ISO  8  17  13  18  13  19  13  20  13  21  13  22  13  23  13  24  14
M  ISO  5  25  14  26  14  27   8  28   8  29   6
M  END
>  <minimizedAffinity>  (1) 
-4.16834164

>  <minimizedRMSD>  (1) 
4.08250618

$$$$
