
     RDKit          3D

 49 52  0  0  1  0  0  0  0  0999 V2000
   47.8290   34.5640   41.1570 C   0  0  1  0  0  0  0  0  0  0  0  0
   45.5920   34.2940   42.2400 C   0  0  0  0  0  0  0  0  0  0  0  0
   46.9870   34.2500   42.3200 C   0  0  0  0  0  0  0  0  0  0  0  0
   47.5810   33.9060   43.5580 C   0  0  0  0  0  0  0  0  0  0  0  0
   46.7920   33.6360   44.6070 N   0  0  0  0  0  0  0  0  0  0  0  0
   45.4510   33.6810   44.5190 C   0  0  0  0  0  0  0  0  0  0  0  0
   44.8800   34.0020   43.3630 N   0  0  0  0  0  0  0  0  0  0  0  0
   44.8420   34.6650   41.0920 C   0  0  0  0  0  0  0  0  0  0  0  0
   44.3380   33.3930   40.3450 C   0  0  0  0  0  0  0  0  0  0  0  0
   43.3110   34.0590   39.3970 C   0  0  0  0  0  0  0  0  0  0  0  0
   42.8020   35.2340   40.1590 C   0  0  0  0  0  0  0  0  0  0  0  0
   43.5180   35.2360   41.4950 C   0  0  0  0  0  0  0  0  0  0  0  0
   48.8280   35.6210   41.4170 C   0  0  0  0  0  0  0  0  0  0  0  0
   48.3920   33.2720   40.6270 C   0  0  0  0  0  0  0  0  0  0  0  0
   48.5420   33.2940   39.1820 N   0  0  0  0  0  0  0  0  0  0  0  0
   47.8780   34.2640   38.5820 N   0  0  0  0  0  0  0  0  0  0  0  0
   48.0770   34.2000   37.2590 C   0  0  0  0  0  0  0  0  0  0  0  0
   48.9080   33.1400   37.0040 C   0  0  0  0  0  0  0  0  0  0  0  0
   49.1820   32.5940   38.2330 C   0  0  0  0  0  0  0  0  0  0  0  0
   49.9710   31.4910   38.6520 N   0  0  0  0  0  0  0  0  0  0  0  0
   51.2550   31.4500   39.0500 C   0  0  0  0  0  0  0  0  0  0  0  0
   51.8060   30.2510   39.4120 C   0  0  0  0  0  0  0  0  0  0  0  0
   51.0840   29.0780   39.3800 C   0  0  0  0  0  0  0  0  0  0  0  0
   51.6160   27.9880   39.7190 O   0  0  0  0  0  0  0  0  0  0  0  0
   49.8010   29.1480   38.9770 N   0  0  0  0  0  0  0  0  0  0  0  0
   49.2580   30.3350   38.6200 C   0  0  0  0  0  0  0  0  0  0  0  0
   48.0380   30.2280   38.2650 O   0  0  0  0  0  0  0  0  0  0  0  0
   47.2160   35.0217   40.3666 H   0  0  0  0  0  0  0  0  0  0  0  0
   48.6756   33.8609   43.6576 H   0  0  0  0  0  0  0  0  0  0  0  0
   44.8306   33.4535   45.3984 H   0  0  0  0  0  0  0  0  0  0  0  0
   45.4968   35.3353   40.5158 H   0  0  0  0  0  0  0  0  0  0  0  0
   45.1461   32.8926   39.7914 H   0  0  0  0  0  0  0  0  0  0  0  0
   43.9395   32.5941   40.9876 H   0  0  0  0  0  0  0  0  0  0  0  0
   42.4915   33.3638   39.1624 H   0  0  0  0  0  0  0  0  0  0  0  0
   43.7584   34.3482   38.4346 H   0  0  0  0  0  0  0  0  0  0  0  0
   43.0198   36.1630   39.6117 H   0  0  0  0  0  0  0  0  0  0  0  0
   41.7124   35.1723   40.2963 H   0  0  0  0  0  0  0  0  0  0  0  0
   43.0071   34.5980   42.2311 H   0  0  0  0  0  0  0  0  0  0  0  0
   43.5716   36.2187   41.9863 H   0  0  0  0  0  0  0  0  0  0  0  0
   48.9506   35.7507   42.5024 H   0  0  0  0  0  0  0  0  0  0  0  0
   49.7914   35.3327   40.9711 H   0  0  0  0  0  0  0  0  0  0  0  0
   48.4859   36.5666   40.9711 H   0  0  0  0  0  0  0  0  0  0  0  0
   49.3781   33.1009   41.0835 H   0  0  0  0  0  0  0  0  0  0  0  0
   47.6889   32.4656   40.8827 H   0  0  0  0  0  0  0  0  0  0  0  0
   47.6483   34.8797   36.5079 H   0  0  0  0  0  0  0  0  0  0  0  0
   49.2761   32.8001   36.0247 H   0  0  0  0  0  0  0  0  0  0  0  0
   51.8559   32.3707   39.0842 H   0  0  0  0  0  0  0  0  0  0  0  0
   52.8562   30.2228   39.7381 H   0  0  0  0  0  0  0  0  0  0  0  0
   49.2290   28.2922   38.9402 H   0  0  0  0  0  0  0  0  0  0  0  0
  1 13  1  0
  1  3  1  0
  2  3  1  0
  2  7  2  0
  3  4  2  0
  4  5  1  0
  6  5  2  0
  7  6  1  0
  8 12  1  0
  8  2  1  0
  9  8  1  0
 10 11  1  0
 10  9  1  0
 11 12  1  0
 14  1  1  0
 15 14  1  0
 16 15  1  0
 17 16  2  0
 18 17  1  0
 18 19  2  0
 19 20  1  0
 19 15  1  0
 20 21  1  0
 21 22  2  0
 23 22  1  0
 23 24  2  0
 25 23  1  0
 26 20  1  0
 26 25  1  0
 27 26  2  0
  1 28  1  6
  4 29  1  0
  6 30  1  0
  8 31  1  0
  9 32  1  0
  9 33  1  0
 10 34  1  0
 10 35  1  0
 11 36  1  0
 11 37  1  0
 12 38  1  0
 12 39  1  0
 13 40  1  0
 13 41  1  0
 13 42  1  0
 14 43  1  0
 14 44  1  0
 17 45  1  0
 18 46  1  0
 21 47  1  0
 22 48  1  0
 25 49  1  0
M  ISO  8  28   8  29  14  30  14  31  13  32  13  33  13  34  13  35  13
M  ISO  8  36  13  37  13  38  13  39  13  40   8  41   8  42   8  43   8
M  ISO  6  44   8  45  14  46  14  47  14  48  14  49   9
M  END
>  <minimizedAffinity>  (1) 
-5.34092569

>  <minimizedRMSD>  (1) 
2.25441527

$$$$
