
     RDKit          3D

 39 41  0  0  1  0  0  0  0  0999 V2000
   43.7670   33.5430   41.1690 N   0  0  0  0  0  0  0  0  0  0  0  0
   42.5180   32.8190   41.1650 C   0  0  0  0  0  0  0  0  0  0  0  0
   41.8110   32.8120   39.8590 C   0  0  0  0  0  0  0  0  0  0  0  0
   42.5490   33.0350   38.7460 O   0  0  0  0  0  0  0  0  0  0  0  0
   43.8940   32.8590   38.8650 C   0  0  0  0  0  0  0  0  0  0  0  0
   44.5120   33.7510   39.9530 C   0  0  2  0  0  0  0  0  0  0  0  0
   45.3380   33.7930   44.5590 C   0  0  0  0  0  0  0  0  0  0  0  0
   44.8180   33.2680   43.3810 C   0  0  0  0  0  0  0  0  0  0  0  0
   44.3000   34.0720   42.3760 C   0  0  0  0  0  0  0  0  0  0  0  0
   44.3180   35.4430   42.5850 N   0  0  0  0  0  0  0  0  0  0  0  0
   44.8320   35.9320   43.7470 C   0  0  0  0  0  0  0  0  0  0  0  0
   45.3290   35.1230   44.7080 N   0  0  0  0  0  0  0  0  0  0  0  0
   45.9450   33.4480   40.0320 C   0  0  0  0  0  0  0  0  0  0  0  0
   46.8340   34.2920   40.0770 O   0  0  0  0  0  0  0  0  0  0  0  0
   48.8110   35.4060   40.2170 N   0  0  0  0  0  0  0  0  0  0  0  0
   49.1470   35.7960   41.5670 C   0  0  0  0  0  0  0  0  0  0  0  0
   48.1980   34.9840   42.4520 C   0  0  0  0  0  0  0  0  0  0  0  0
   48.3110   33.6440   41.7260 C   0  0  0  0  0  0  0  0  0  0  0  0
   48.1650   34.1050   40.2870 C   0  0  1  0  0  0  0  0  0  0  0  0
   42.7249   31.7765   41.4486 H   0  0  0  0  0  0  0  0  0  0  0  0
   41.8558   33.3363   41.8749 H   0  0  0  0  0  0  0  0  0  0  0  0
   41.3361   31.8261   39.7470 H   0  0  0  0  0  0  0  0  0  0  0  0
   41.1189   33.6654   39.9112 H   0  0  0  0  0  0  0  0  0  0  0  0
   44.0907   31.8068   39.1182 H   0  0  0  0  0  0  0  0  0  0  0  0
   44.3530   33.1376   37.9049 H   0  0  0  0  0  0  0  0  0  0  0  0
   44.4452   34.8269   39.7340 H   0  0  0  0  0  0  0  0  0  0  0  0
   45.7436   33.1365   45.3429 H   0  0  0  0  0  0  0  0  0  0  0  0
   44.8173   32.1769   43.2411 H   0  0  0  0  0  0  0  0  0  0  0  0
   44.8430   37.0200   43.9084 H   0  0  0  0  0  0  0  0  0  0  0  0
   46.0686   32.8403   40.9405 H   0  0  0  0  0  0  0  0  0  0  0  0
   46.1180   33.0247   39.0316 H   0  0  0  0  0  0  0  0  0  0  0  0
   49.6657   35.3442   39.6456 H   0  0  0  0  0  0  0  0  0  0  0  0
   50.1949   35.5493   41.7929 H   0  0  0  0  0  0  0  0  0  0  0  0
   49.0412   36.8792   41.7265 H   0  0  0  0  0  0  0  0  0  0  0  0
   48.5500   34.9237   43.4924 H   0  0  0  0  0  0  0  0  0  0  0  0
   47.1801   35.3868   42.5598 H   0  0  0  0  0  0  0  0  0  0  0  0
   49.2853   33.1653   41.9036 H   0  0  0  0  0  0  0  0  0  0  0  0
   47.5816   32.8843   42.0434 H   0  0  0  0  0  0  0  0  0  0  0  0
   48.5912   33.3963   39.5617 H   0  0  0  0  0  0  0  0  0  0  0  0
  1  9  1  0
  2  1  1  0
  3  2  1  0
  4  5  1  0
  4  3  1  0
  5  6  1  0
  6 13  1  0
  6  1  1  0
  7 12  2  0
  8  7  1  0
  9 10  1  0
  9  8  2  0
 10 11  2  0
 11 12  1  0
 13 14  1  0
 15 19  1  0
 15 16  1  0
 16 17  1  0
 18 17  1  0
 19 14  1  0
 19 18  1  0
  2 20  1  0
  2 21  1  0
  3 22  1  0
  3 23  1  0
  5 24  1  0
  5 25  1  0
  6 26  1  6
  7 27  1  0
  8 28  1  0
 11 29  1  0
 13 30  1  0
 13 31  1  0
 15 32  1  0
 16 33  1  0
 16 34  1  0
 17 35  1  0
 17 36  1  0
 18 37  1  0
 18 38  1  0
 19 39  1  6
M  ISO  8  20  13  21  13  22  13  23  13  24  13  25  13  26  13  27  14
M  ISO  8  28  14  29  14  30   8  31   8  32   5  33  13  34  13  35  13
M  ISO  4  36  13  37  13  38  13  39  13
M  END
>  <minimizedAffinity>  (1) 
-4.7141571

>  <minimizedRMSD>  (1) 
3.55236268

$$$$
