
     RDKit          3D

 55 59  0  0  1  0  0  0  0  0999 V2000
   45.9140   33.7030   40.3690 C   0  0  0  0  0  0  0  0  0  0  0  0
   43.7160   33.8220   41.4570 N   0  0  0  0  0  0  0  0  0  0  0  0
   42.4270   33.2010   41.3470 C   0  0  0  0  0  0  0  0  0  0  0  0
   41.7470   33.3880   40.0490 C   0  0  0  0  0  0  0  0  0  0  0  0
   42.5130   33.7500   38.9820 O   0  0  0  0  0  0  0  0  0  0  0  0
   43.8280   33.4590   39.0990 C   0  0  0  0  0  0  0  0  0  0  0  0
   44.5070   34.1230   40.2940 C   0  0  2  0  0  0  0  0  0  0  0  0
   45.4680   33.6240   44.7650 C   0  0  0  0  0  0  0  0  0  0  0  0
   44.9500   33.2760   43.5260 C   0  0  0  0  0  0  0  0  0  0  0  0
   44.2560   34.1610   42.7310 C   0  0  0  0  0  0  0  0  0  0  0  0
   44.1010   35.4300   43.2410 N   0  0  0  0  0  0  0  0  0  0  0  0
   44.6060   35.7700   44.4470 C   0  0  0  0  0  0  0  0  0  0  0  0
   45.2790   34.8680   45.1910 N   0  0  0  0  0  0  0  0  0  0  0  0
   46.8230   34.5410   40.5210 O   0  0  0  0  0  0  0  0  0  0  0  0
   48.8820   35.5250   40.6640 N   0  0  0  0  0  0  0  0  0  0  0  0
   49.4430   35.4920   41.9820 C   0  0  0  0  0  0  0  0  0  0  0  0
   48.5710   34.4960   42.7410 C   0  0  0  0  0  0  0  0  0  0  0  0
   48.5120   33.4280   41.6500 C   0  0  0  0  0  0  0  0  0  0  0  0
   48.1560   34.2690   40.4670 C   0  0  1  0  0  0  0  0  0  0  0  0
   48.4900   33.6640   39.1580 C   0  0  0  0  0  0  0  0  0  0  0  0
   48.1950   34.2860   37.9540 C   0  0  0  0  0  0  0  0  0  0  0  0
   48.4940   33.7500   36.7140 C   0  0  0  0  0  0  0  0  0  0  0  0
   49.1180   32.5310   36.6810 C   0  0  0  0  0  0  0  0  0  0  0  0
   49.4180   31.8970   37.8680 C   0  0  0  0  0  0  0  0  0  0  0  0
   50.0510   30.6670   37.7130 C   0  0  0  0  0  0  0  0  0  0  0  0
   50.3890   29.9620   38.8530 C   0  0  0  0  0  0  0  0  0  0  0  0
   50.0940   30.4910   40.0890 C   0  0  0  0  0  0  0  0  0  0  0  0
   49.4670   31.7150   40.2280 C   0  0  0  0  0  0  0  0  0  0  0  0
   49.1120   32.4500   39.1160 C   0  0  0  0  0  0  0  0  0  0  0  0
   46.1325   33.1698   39.4320 H   0  0  0  0  0  0  0  0  0  0  0  0
   45.9484   33.1327   41.3090 H   0  0  0  0  0  0  0  0  0  0  0  0
   42.5545   32.1209   41.5118 H   0  0  0  0  0  0  0  0  0  0  0  0
   41.7886   33.6881   42.0988 H   0  0  0  0  0  0  0  0  0  0  0  0
   41.2565   32.4369   39.7944 H   0  0  0  0  0  0  0  0  0  0  0  0
   41.0698   34.2400   40.2086 H   0  0  0  0  0  0  0  0  0  0  0  0
   43.9331   32.3690   39.2031 H   0  0  0  0  0  0  0  0  0  0  0  0
   44.3215   33.8478   38.1961 H   0  0  0  0  0  0  0  0  0  0  0  0
   44.5515   35.2184   40.2037 H   0  0  0  0  0  0  0  0  0  0  0  0
   46.0180   32.8928   45.3756 H   0  0  0  0  0  0  0  0  0  0  0  0
   45.1001   32.2486   43.1627 H   0  0  0  0  0  0  0  0  0  0  0  0
   44.4670   36.7931   44.8264 H   0  0  0  0  0  0  0  0  0  0  0  0
   48.2363   36.3227   40.5758 H   0  0  0  0  0  0  0  0  0  0  0  0
   50.4881   35.1502   41.9517 H   0  0  0  0  0  0  0  0  0  0  0  0
   49.4566   36.4842   42.4568 H   0  0  0  0  0  0  0  0  0  0  0  0
   49.0520   34.1315   43.6607 H   0  0  0  0  0  0  0  0  0  0  0  0
   47.6067   34.8714   43.1141 H   0  0  0  0  0  0  0  0  0  0  0  0
   49.4833   32.9293   41.5166 H   0  0  0  0  0  0  0  0  0  0  0  0
   47.8140   32.6024   41.8531 H   0  0  0  0  0  0  0  0  0  0  0  0
   47.6931   35.2643   37.9869 H   0  0  0  0  0  0  0  0  0  0  0  0
   48.2394   34.2842   35.7868 H   0  0  0  0  0  0  0  0  0  0  0  0
   49.3765   32.0637   35.7193 H   0  0  0  0  0  0  0  0  0  0  0  0
   50.2756   30.2678   36.7129 H   0  0  0  0  0  0  0  0  0  0  0  0
   50.8898   28.9859   38.7730 H   0  0  0  0  0  0  0  0  0  0  0  0
   50.3649   29.9237   40.9916 H   0  0  0  0  0  0  0  0  0  0  0  0
   49.2495   32.1059   41.2329 H   0  0  0  0  0  0  0  0  0  0  0  0
  1 14  1  0
  2 10  1  0
  3  2  1  0
  4  3  1  0
  5  6  1  0
  5  4  1  0
  6  7  1  0
  7  1  1  0
  7  2  1  0
  8 13  2  0
  9  8  1  0
 10 11  1  0
 10  9  2  0
 11 12  2  0
 12 13  1  0
 15 16  1  0
 16 17  1  0
 18 17  1  0
 19 14  1  6
 19 15  1  0
 19 18  1  0
 20 19  1  0
 21 20  2  0
 22 21  1  0
 23 22  2  0
 23 24  1  0
 24 29  2  0
 25 24  1  0
 25 26  2  0
 26 27  1  0
 27 28  2  0
 29 20  1  0
 29 28  1  0
  1 30  1  0
  1 31  1  0
  3 32  1  0
  3 33  1  0
  4 34  1  0
  4 35  1  0
  6 36  1  0
  6 37  1  0
  7 38  1  6
  8 39  1  0
  9 40  1  0
 12 41  1  0
 15 42  1  0
 16 43  1  0
 16 44  1  0
 17 45  1  0
 17 46  1  0
 18 47  1  0
 18 48  1  0
 21 49  1  0
 22 50  1  0
 23 51  1  0
 25 52  1  0
 26 53  1  0
 27 54  1  0
 28 55  1  0
M  ISO  8  30   8  31   8  32  13  33  13  34  13  35  13  36  13  37  13
M  ISO  8  38  13  39  14  40  14  41  14  42   5  43  13  44  13  45  13
M  ISO  8  46  13  47  13  48  13  49  14  50  14  51  14  52  14  53  14
M  ISO  2  54  14  55  14
M  END
>  <minimizedAffinity>  (1) 
-6.03864479

>  <minimizedRMSD>  (1) 
0.80951041

$$$$
