
     RDKit          3D

 50 53  0  0  1  0  0  0  0  0999 V2000
   47.8170   34.5410   41.1480 C   0  0  1  0  0  0  0  0  0  0  0  0
   45.5820   34.2960   42.2390 C   0  0  0  0  0  0  0  0  0  0  0  0
   46.9760   34.2440   42.3170 C   0  0  0  0  0  0  0  0  0  0  0  0
   47.5730   33.9070   43.5540 C   0  0  0  0  0  0  0  0  0  0  0  0
   46.7870   33.6490   44.6070 N   0  0  0  0  0  0  0  0  0  0  0  0
   45.4400   33.7000   44.5250 C   0  0  0  0  0  0  0  0  0  0  0  0
   44.8710   34.0160   43.3660 N   0  0  0  0  0  0  0  0  0  0  0  0
   44.8330   34.6670   41.0920 C   0  0  0  0  0  0  0  0  0  0  0  0
   44.3230   33.3880   40.3500 C   0  0  0  0  0  0  0  0  0  0  0  0
   43.2990   34.0660   39.4000 C   0  0  0  0  0  0  0  0  0  0  0  0
   42.7870   35.2380   40.1680 C   0  0  0  0  0  0  0  0  0  0  0  0
   43.5100   35.2410   41.4970 C   0  0  0  0  0  0  0  0  0  0  0  0
   48.8270   35.5920   41.3980 C   0  0  0  0  0  0  0  0  0  0  0  0
   48.3720   33.2440   40.6270 C   0  0  0  0  0  0  0  0  0  0  0  0
   48.5540   33.2730   39.1840 N   0  0  0  0  0  0  0  0  0  0  0  0
   47.8910   34.2390   38.5710 N   0  0  0  0  0  0  0  0  0  0  0  0
   48.1240   34.1800   37.2530 C   0  0  0  0  0  0  0  0  0  0  0  0
   48.9740   33.1310   37.0140 C   0  0  0  0  0  0  0  0  0  0  0  0
   49.2260   32.5830   38.2490 C   0  0  0  0  0  0  0  0  0  0  0  0
   50.0120   31.4880   38.7160 N   0  0  0  0  0  0  0  0  0  0  0  0
   51.2800   31.5560   39.1870 C   0  0  0  0  0  0  0  0  0  0  0  0
   51.9030   30.3890   39.6040 C   0  0  0  0  0  0  0  0  0  0  0  0
   51.2370   29.1840   39.5360 C   0  0  0  0  0  0  0  0  0  0  0  0
   51.8980   27.9980   39.9690 N   0  0  0  0  0  0  0  0  0  0  0  0
   49.9760   29.1300   39.0650 N   0  0  0  0  0  0  0  0  0  0  0  0
   49.3910   30.2910   38.6640 C   0  0  0  0  0  0  0  0  0  0  0  0
   48.2040   30.1370   38.2370 O   0  0  0  0  0  0  0  0  0  0  0  0
   47.2020   34.9943   40.3566 H   0  0  0  0  0  0  0  0  0  0  0  0
   48.6677   33.8575   43.6498 H   0  0  0  0  0  0  0  0  0  0  0  0
   44.8205   33.4824   45.4076 H   0  0  0  0  0  0  0  0  0  0  0  0
   45.4870   35.3349   40.5122 H   0  0  0  0  0  0  0  0  0  0  0  0
   45.1278   32.8806   39.7978 H   0  0  0  0  0  0  0  0  0  0  0  0
   43.9226   32.5904   40.9931 H   0  0  0  0  0  0  0  0  0  0  0  0
   42.4793   33.3742   39.1560 H   0  0  0  0  0  0  0  0  0  0  0  0
   43.7527   34.3622   38.4427 H   0  0  0  0  0  0  0  0  0  0  0  0
   42.9961   36.1693   39.6213 H   0  0  0  0  0  0  0  0  0  0  0  0
   41.6985   35.1701   40.3116 H   0  0  0  0  0  0  0  0  0  0  0  0
   43.0014   34.6055   42.2370 H   0  0  0  0  0  0  0  0  0  0  0  0
   43.5683   36.2257   41.9839 H   0  0  0  0  0  0  0  0  0  0  0  0
   48.9559   35.7262   42.4821 H   0  0  0  0  0  0  0  0  0  0  0  0
   49.7857   35.2935   40.9489 H   0  0  0  0  0  0  0  0  0  0  0  0
   48.4906   36.5381   40.9489 H   0  0  0  0  0  0  0  0  0  0  0  0
   49.3450   33.0561   41.1045 H   0  0  0  0  0  0  0  0  0  0  0  0
   47.6533   32.4457   40.8642 H   0  0  0  0  0  0  0  0  0  0  0  0
   47.7055   34.8566   36.4934 H   0  0  0  0  0  0  0  0  0  0  0  0
   49.3693   32.7993   36.0426 H   0  0  0  0  0  0  0  0  0  0  0  0
   51.8068   32.5203   39.2380 H   0  0  0  0  0  0  0  0  0  0  0  0
   52.9323   30.4252   39.9904 H   0  0  0  0  0  0  0  0  0  0  0  0
   51.4114   27.0913   39.9234 H   0  0  0  0  0  0  0  0  0  0  0  0
   52.8623   28.0475   40.3276 H   0  0  0  0  0  0  0  0  0  0  0  0
  1 13  1  0
  1  3  1  0
  2  3  1  0
  2  7  2  0
  3  4  2  0
  4  5  1  0
  6  5  2  0
  7  6  1  0
  8 12  1  0
  8  2  1  0
  9  8  1  0
 10 11  1  0
 10  9  1  0
 11 12  1  0
 14  1  1  0
 15 14  1  0
 16 15  1  0
 17 16  2  0
 18 17  1  0
 18 19  2  0
 19 20  1  0
 19 15  1  0
 20 21  1  0
 21 22  2  0
 23 22  1  0
 23 24  1  0
 25 23  2  0
 26 20  1  0
 26 25  1  0
 27 26  2  0
  1 28  1  6
  4 29  1  0
  6 30  1  0
  8 31  1  0
  9 32  1  0
  9 33  1  0
 10 34  1  0
 10 35  1  0
 11 36  1  0
 11 37  1  0
 12 38  1  0
 12 39  1  0
 13 40  1  0
 13 41  1  0
 13 42  1  0
 14 43  1  0
 14 44  1  0
 17 45  1  0
 18 46  1  0
 21 47  1  0
 22 48  1  0
 24 49  1  0
 24 50  1  0
M  ISO  8  28   8  29  14  30  14  31  13  32  13  33  13  34  13  35  13
M  ISO  8  36  13  37  13  38  13  39  13  40   8  41   8  42   8  43   8
M  ISO  5  44   8  45  14  46  14  47  14  48  14
M  END
>  <minimizedAffinity>  (1) 
-5.31948662

>  <minimizedRMSD>  (1) 
2.29157591

$$$$
