
     RDKit          3D

 52 55  0  0  1  0  0  0  0  0999 V2000
   45.9260   33.3610   40.0080 C   0  0  0  0  0  0  0  0  0  0  0  0
   43.7370   33.4280   41.1170 N   0  0  0  0  0  0  0  0  0  0  0  0
   42.4980   32.6950   41.1080 C   0  0  0  0  0  0  0  0  0  0  0  0
   41.8100   32.6570   39.7940 C   0  0  0  0  0  0  0  0  0  0  0  0
   42.5160   32.9900   38.6940 O   0  0  0  0  0  0  0  0  0  0  0  0
   43.8550   32.8330   38.8030 C   0  0  0  0  0  0  0  0  0  0  0  0
   44.4960   33.6720   39.9040 C   0  0  2  0  0  0  0  0  0  0  0  0
   45.3890   33.6770   44.4740 C   0  0  0  0  0  0  0  0  0  0  0  0
   44.8860   33.1680   43.2920 C   0  0  0  0  0  0  0  0  0  0  0  0
   44.2580   33.9420   42.3350 C   0  0  0  0  0  0  0  0  0  0  0  0
   44.1560   35.2830   42.6230 N   0  0  0  0  0  0  0  0  0  0  0  0
   44.6510   35.7790   43.7860 C   0  0  0  0  0  0  0  0  0  0  0  0
   45.2550   34.9810   44.6870 N   0  0  0  0  0  0  0  0  0  0  0  0
   46.7820   34.2630   39.8710 O   0  0  0  0  0  0  0  0  0  0  0  0
   48.7130   35.4470   40.1030 N   0  0  0  0  0  0  0  0  0  0  0  0
   49.0540   35.7380   41.4660 C   0  0  0  0  0  0  0  0  0  0  0  0
   48.1490   34.8140   42.2860 C   0  0  0  0  0  0  0  0  0  0  0  0
   48.3310   33.5510   41.4480 C   0  0  0  0  0  0  0  0  0  0  0  0
   48.1260   34.1000   40.0780 C   0  0  1  0  0  0  0  0  0  0  0  0
   48.7800   33.2910   39.0690 N   0  0  0  0  0  0  0  0  0  0  0  0
   49.3510   32.1360   39.4790 C   0  0  0  0  0  0  0  0  0  0  0  0
   49.9900   31.3130   38.5810 C   0  0  0  0  0  0  0  0  0  0  0  0
   50.6390   30.0270   38.9710 C   0  0  0  0  0  0  0  0  0  0  0  0
   50.0450   31.6820   37.2410 C   0  0  0  0  0  0  0  0  0  0  0  0
   50.6170   30.9720   36.3730 O   0  0  0  0  0  0  0  0  0  0  0  0
   49.4490   32.8570   36.9070 N   0  0  0  0  0  0  0  0  0  0  0  0
   48.8180   33.6730   37.7800 C   0  0  0  0  0  0  0  0  0  0  0  0
   48.2870   34.7440   37.4140 O   0  0  0  0  0  0  0  0  0  0  0  0
   46.0826   32.9264   41.0063 H   0  0  0  0  0  0  0  0  0  0  0  0
   46.1038   32.7154   39.1353 H   0  0  0  0  0  0  0  0  0  0  0  0
   42.7100   31.6599   41.4139 H   0  0  0  0  0  0  0  0  0  0  0  0
   41.8212   33.2201   41.7981 H   0  0  0  0  0  0  0  0  0  0  0  0
   41.4434   31.6303   39.6476 H   0  0  0  0  0  0  0  0  0  0  0  0
   41.0381   33.4372   39.8684 H   0  0  0  0  0  0  0  0  0  0  0  0
   44.0620   31.7731   39.0123 H   0  0  0  0  0  0  0  0  0  0  0  0
   44.2913   33.1731   37.8522 H   0  0  0  0  0  0  0  0  0  0  0  0
   44.4594   34.7503   39.6898 H   0  0  0  0  0  0  0  0  0  0  0  0
   45.8821   33.0263   45.2112 H   0  0  0  0  0  0  0  0  0  0  0  0
   44.9911   32.0895   43.1028 H   0  0  0  0  0  0  0  0  0  0  0  0
   44.5567   36.8545   43.9965 H   0  0  0  0  0  0  0  0  0  0  0  0
   48.0303   36.1356   39.7556 H   0  0  0  0  0  0  0  0  0  0  0  0
   50.1142   35.5168   41.6585 H   0  0  0  0  0  0  0  0  0  0  0  0
   48.9116   36.7992   41.7183 H   0  0  0  0  0  0  0  0  0  0  0  0
   48.5079   34.6859   43.3179 H   0  0  0  0  0  0  0  0  0  0  0  0
   47.1132   35.1542   42.4322 H   0  0  0  0  0  0  0  0  0  0  0  0
   49.3384   33.1259   41.5683 H   0  0  0  0  0  0  0  0  0  0  0  0
   47.6572   32.7235   41.7150 H   0  0  0  0  0  0  0  0  0  0  0  0
   49.3041   31.8518   40.5406 H   0  0  0  0  0  0  0  0  0  0  0  0
   50.6763   29.9530   40.0679 H   0  0  0  0  0  0  0  0  0  0  0  0
   50.0577   29.1854   38.5663 H   0  0  0  0  0  0  0  0  0  0  0  0
   51.6613   29.9947   38.5663 H   0  0  0  0  0  0  0  0  0  0  0  0
   49.4805   33.1458   35.9188 H   0  0  0  0  0  0  0  0  0  0  0  0
  2 10  1  0
  3  2  1  0
  4  3  1  0
  5  6  1  0
  5  4  1  0
  6  7  1  0
  7  1  1  0
  7  2  1  0
  8 13  2  0
  9  8  1  0
 10 11  1  0
 10  9  2  0
 11 12  2  0
 12 13  1  0
 14  1  1  0
 15 16  1  0
 16 17  1  0
 18 17  1  0
 19 14  1  6
 19 15  1  0
 19 18  1  0
 20 21  1  0
 20 19  1  0
 22 23  1  0
 22 21  2  0
 24 22  1  0
 25 24  2  0
 26 24  1  0
 26 27  1  0
 27 20  1  0
 28 27  2  0
  1 29  1  0
  1 30  1  0
  3 31  1  0
  3 32  1  0
  4 33  1  0
  4 34  1  0
  6 35  1  0
  6 36  1  0
  7 37  1  6
  8 38  1  0
  9 39  1  0
 12 40  1  0
 15 41  1  0
 16 42  1  0
 16 43  1  0
 17 44  1  0
 17 45  1  0
 18 46  1  0
 18 47  1  0
 21 48  1  0
 23 49  1  0
 23 50  1  0
 23 51  1  0
 26 52  1  0
M  ISO  8  29   8  30   8  31  13  32  13  33  13  34  13  35  13  36  13
M  ISO  8  37  13  38  14  39  14  40  14  41   5  42  13  43  13  44  13
M  ISO  8  45  13  46  13  47  13  48  14  49   8  50   8  51   8  52   9
M  END
>  <minimizedAffinity>  (1) 
-5.77191973

>  <minimizedRMSD>  (1) 
0.347824574

$$$$
