
     RDKit          3D

 52 56  0  0  1  0  0  0  0  0999 V2000
   45.8640   33.6140   40.2380 C   0  0  0  0  0  0  0  0  0  0  0  0
   43.6880   33.6810   41.3920 N   0  0  0  0  0  0  0  0  0  0  0  0
   42.4280   33.0020   41.3190 C   0  0  0  0  0  0  0  0  0  0  0  0
   41.7060   33.1540   40.0400 C   0  0  0  0  0  0  0  0  0  0  0  0
   42.4200   33.5320   38.9580 O   0  0  0  0  0  0  0  0  0  0  0  0
   43.7500   33.3440   39.0220 C   0  0  0  0  0  0  0  0  0  0  0  0
   44.4410   34.0160   40.1950 C   0  0  2  0  0  0  0  0  0  0  0  0
   45.4810   33.4950   44.6850 C   0  0  0  0  0  0  0  0  0  0  0  0
   44.9270   33.1420   43.4610 C   0  0  0  0  0  0  0  0  0  0  0  0
   44.2550   34.0530   42.6440 C   0  0  0  0  0  0  0  0  0  0  0  0
   44.1550   35.3470   43.1020 N   0  0  0  0  0  0  0  0  0  0  0  0
   44.7030   35.6830   44.3050 C   0  0  0  0  0  0  0  0  0  0  0  0
   45.3510   34.7650   45.0730 N   0  0  0  0  0  0  0  0  0  0  0  0
   46.7400   34.4720   40.4770 O   0  0  0  0  0  0  0  0  0  0  0  0
   48.7480   35.5250   40.5700 N   0  0  0  0  0  0  0  0  0  0  0  0
   49.3440   35.5000   41.8780 C   0  0  0  0  0  0  0  0  0  0  0  0
   48.5440   34.4410   42.6350 C   0  0  0  0  0  0  0  0  0  0  0  0
   48.5030   33.3980   41.5200 C   0  0  0  0  0  0  0  0  0  0  0  0
   48.0870   34.2340   40.3530 C   0  0  1  0  0  0  0  0  0  0  0  0
   48.5230   33.7260   39.0940 N   0  0  0  0  0  0  0  0  0  0  0  0
   48.4250   34.4570   37.9600 C   0  0  0  0  0  0  0  0  0  0  0  0
   48.9030   33.7520   36.9170 N   0  0  0  0  0  0  0  0  0  0  0  0
   49.3140   32.5650   37.3590 C   0  0  0  0  0  0  0  0  0  0  0  0
   49.8830   31.4660   36.7220 C   0  0  0  0  0  0  0  0  0  0  0  0
   50.1800   30.4060   37.5080 N   0  0  0  0  0  0  0  0  0  0  0  0
   49.9370   30.4200   38.8290 C   0  0  0  0  0  0  0  0  0  0  0  0
   49.3810   31.4890   39.4640 N   0  0  0  0  0  0  0  0  0  0  0  0
   49.0740   32.5600   38.7090 C   0  0  0  0  0  0  0  0  0  0  0  0
   50.1030   31.5470   35.3180 N   0  0  0  0  0  0  0  0  0  0  0  0
   46.1028   33.1782   39.2567 H   0  0  0  0  0  0  0  0  0  0  0  0
   45.9160   32.9434   41.1084 H   0  0  0  0  0  0  0  0  0  0  0  0
   42.6093   31.9294   41.4822 H   0  0  0  0  0  0  0  0  0  0  0  0
   41.7885   33.4610   42.0874 H   0  0  0  0  0  0  0  0  0  0  0  0
   41.2438   32.1836   39.8062 H   0  0  0  0  0  0  0  0  0  0  0  0
   41.0038   33.9827   40.2135 H   0  0  0  0  0  0  0  0  0  0  0  0
   43.9381   32.2623   39.0901 H   0  0  0  0  0  0  0  0  0  0  0  0
   44.1681   33.8058   38.1154 H   0  0  0  0  0  0  0  0  0  0  0  0
   44.4542   35.1120   40.1021 H   0  0  0  0  0  0  0  0  0  0  0  0
   46.0059   32.7570   45.3094 H   0  0  0  0  0  0  0  0  0  0  0  0
   45.0218   32.1002   43.1210 H   0  0  0  0  0  0  0  0  0  0  0  0
   44.6193   36.7198   44.6627 H   0  0  0  0  0  0  0  0  0  0  0  0
   48.0564   36.2863   40.5147 H   0  0  0  0  0  0  0  0  0  0  0  0
   50.4054   35.2177   41.8176 H   0  0  0  0  0  0  0  0  0  0  0  0
   49.3158   36.4822   42.3724 H   0  0  0  0  0  0  0  0  0  0  0  0
   49.0698   34.0780   43.5304 H   0  0  0  0  0  0  0  0  0  0  0  0
   47.5739   34.7592   43.0445 H   0  0  0  0  0  0  0  0  0  0  0  0
   49.4912   32.9429   41.3576 H   0  0  0  0  0  0  0  0  0  0  0  0
   47.8378   32.5460   41.7240 H   0  0  0  0  0  0  0  0  0  0  0  0
   48.0156   35.4761   37.8989 H   0  0  0  0  0  0  0  0  0  0  0  0
   50.1978   29.5313   39.4225 H   0  0  0  0  0  0  0  0  0  0  0  0
   50.5223   30.7515   34.8157 H   0  0  0  0  0  0  0  0  0  0  0  0
   49.8429   32.4011   34.8044 H   0  0  0  0  0  0  0  0  0  0  0  0
  1 14  1  0
  2 10  1  0
  3  2  1  0
  4  3  1  0
  5  6  1  0
  5  4  1  0
  6  7  1  0
  7  1  1  0
  7  2  1  0
  8 13  2  0
  9  8  1  0
 10 11  1  0
 10  9  2  0
 11 12  2  0
 12 13  1  0
 15 16  1  0
 16 17  1  0
 18 17  1  0
 19 14  1  6
 19 15  1  0
 19 18  1  0
 20 19  1  0
 21 20  1  0
 22 23  1  0
 22 21  2  0
 23 28  2  0
 24 23  1  0
 24 25  2  0
 25 26  1  0
 26 27  2  0
 28 20  1  0
 28 27  1  0
 29 24  1  0
  1 30  1  0
  1 31  1  0
  3 32  1  0
  3 33  1  0
  4 34  1  0
  4 35  1  0
  6 36  1  0
  6 37  1  0
  7 38  1  6
  8 39  1  0
  9 40  1  0
 12 41  1  0
 15 42  1  0
 16 43  1  0
 16 44  1  0
 17 45  1  0
 17 46  1  0
 18 47  1  0
 18 48  1  0
 21 49  1  0
 26 50  1  0
 29 51  1  0
 29 52  1  0
M  ISO  8  30   8  31   8  32  13  33  13  34  13  35  13  36  13  37  13
M  ISO  8  38  13  39  14  40  14  41  14  42   5  43  13  44  13  45  13
M  ISO  5  46  13  47  13  48  13  49  14  50  14
M  END
>  <minimizedAffinity>  (1) 
-6.03960276

>  <minimizedRMSD>  (1) 
0.962163985

$$$$
