
     RDKit          3D

 53 57  0  0  1  0  0  0  0  0999 V2000
   45.8700   33.4720   40.2840 C   0  0  0  0  0  0  0  0  0  0  0  0
   43.6790   33.8190   41.3580 N   0  0  0  0  0  0  0  0  0  0  0  0
   42.3470   33.2910   41.2670 C   0  0  0  0  0  0  0  0  0  0  0  0
   41.6900   33.4800   39.9550 C   0  0  0  0  0  0  0  0  0  0  0  0
   42.4800   33.7640   38.8910 O   0  0  0  0  0  0  0  0  0  0  0  0
   43.7770   33.3980   39.0040 C   0  0  0  0  0  0  0  0  0  0  0  0
   44.5020   34.0360   40.1800 C   0  0  2  0  0  0  0  0  0  0  0  0
   45.4220   33.5350   44.6720 C   0  0  0  0  0  0  0  0  0  0  0  0
   44.8770   33.2110   43.4400 C   0  0  0  0  0  0  0  0  0  0  0  0
   44.2450   34.1480   42.6240 C   0  0  0  0  0  0  0  0  0  0  0  0
   44.1820   35.4370   43.1020 N   0  0  0  0  0  0  0  0  0  0  0  0
   44.7240   35.7320   44.3160 C   0  0  0  0  0  0  0  0  0  0  0  0
   45.3270   34.7970   45.0740 N   0  0  0  0  0  0  0  0  0  0  0  0
   46.8430   34.1570   39.9060 O   0  0  0  0  0  0  0  0  0  0  0  0
   48.8420   35.2280   40.1190 N   0  0  0  0  0  0  0  0  0  0  0  0
   48.9970   35.9140   41.3720 C   0  0  0  0  0  0  0  0  0  0  0  0
   47.8810   35.3510   42.2420 C   0  0  0  0  0  0  0  0  0  0  0  0
   48.0650   33.8790   41.8600 C   0  0  0  0  0  0  0  0  0  0  0  0
   48.1210   33.9780   40.3710 C   0  0  1  0  0  0  0  0  0  0  0  0
   48.7870   32.8360   39.7420 C   0  0  0  0  0  0  0  0  0  0  0  0
   49.3940   31.8850   40.4980 N   0  0  0  0  0  0  0  0  0  0  0  0
   50.0120   30.8290   39.8920 C   0  0  0  0  0  0  0  0  0  0  0  0
   50.0650   30.6550   38.5570 N   0  0  0  0  0  0  0  0  0  0  0  0
   49.4510   31.6170   37.8110 C   0  0  0  0  0  0  0  0  0  0  0  0
   49.5350   31.3890   36.4380 C   0  0  0  0  0  0  0  0  0  0  0  0
   48.9380   32.3170   35.5990 C   0  0  0  0  0  0  0  0  0  0  0  0
   48.3010   33.4030   36.1630 C   0  0  0  0  0  0  0  0  0  0  0  0
   48.2190   33.6260   37.5190 C   0  0  0  0  0  0  0  0  0  0  0  0
   48.8050   32.7180   38.3680 C   0  0  0  0  0  0  0  0  0  0  0  0
   46.0387   33.2323   41.3442 H   0  0  0  0  0  0  0  0  0  0  0  0
   45.8576   32.6262   39.5809 H   0  0  0  0  0  0  0  0  0  0  0  0
   42.3925   32.2116   41.4740 H   0  0  0  0  0  0  0  0  0  0  0  0
   41.7433   33.8495   41.9975 H   0  0  0  0  0  0  0  0  0  0  0  0
   41.1467   32.5522   39.7227 H   0  0  0  0  0  0  0  0  0  0  0  0
   41.0636   34.3750   40.0836 H   0  0  0  0  0  0  0  0  0  0  0  0
   43.8185   32.3054   39.1241 H   0  0  0  0  0  0  0  0  0  0  0  0
   44.2852   33.7445   38.0920 H   0  0  0  0  0  0  0  0  0  0  0  0
   44.6397   35.1204   40.0567 H   0  0  0  0  0  0  0  0  0  0  0  0
   45.9156   32.7742   45.2946 H   0  0  0  0  0  0  0  0  0  0  0  0
   44.9460   32.1701   43.0910 H   0  0  0  0  0  0  0  0  0  0  0  0
   44.6674   36.7655   44.6885 H   0  0  0  0  0  0  0  0  0  0  0  0
   49.7676   35.0222   39.7168 H   0  0  0  0  0  0  0  0  0  0  0  0
   49.9817   35.7025   41.8142 H   0  0  0  0  0  0  0  0  0  0  0  0
   48.9396   37.0073   41.2655 H   0  0  0  0  0  0  0  0  0  0  0  0
   48.0520   35.5315   43.3135 H   0  0  0  0  0  0  0  0  0  0  0  0
   46.8779   35.7759   42.0893 H   0  0  0  0  0  0  0  0  0  0  0  0
   48.9977   33.4676   42.2732 H   0  0  0  0  0  0  0  0  0  0  0  0
   47.2803   33.2092   42.2415 H   0  0  0  0  0  0  0  0  0  0  0  0
   50.4952   30.0757   40.5316 H   0  0  0  0  0  0  0  0  0  0  0  0
   50.0549   30.5068   36.0362 H   0  0  0  0  0  0  0  0  0  0  0  0
   48.9714   32.1902   34.5068 H   0  0  0  0  0  0  0  0  0  0  0  0
   47.8306   34.1342   35.4891 H   0  0  0  0  0  0  0  0  0  0  0  0
   47.6968   34.5101   37.9136 H   0  0  0  0  0  0  0  0  0  0  0  0
  2 10  1  0
  3  2  1  0
  4  3  1  0
  5  6  1  0
  5  4  1  0
  6  7  1  0
  7  1  1  0
  7  2  1  0
  8 13  2  0
  9  8  1  0
 10 11  1  0
 10  9  2  0
 11 12  2  0
 12 13  1  0
 14  1  1  0
 15 19  1  0
 15 16  1  0
 16 17  1  0
 18 17  1  0
 19 14  1  6
 19 18  1  0
 20 19  1  0
 20 21  2  0
 22 21  1  0
 23 22  2  0
 24 29  2  0
 24 23  1  0
 25 24  1  0
 26 27  1  0
 26 25  2  0
 27 28  2  0
 28 29  1  0
 29 20  1  0
  1 30  1  0
  1 31  1  0
  3 32  1  0
  3 33  1  0
  4 34  1  0
  4 35  1  0
  6 36  1  0
  6 37  1  0
  7 38  1  6
  8 39  1  0
  9 40  1  0
 12 41  1  0
 15 42  1  0
 16 43  1  0
 16 44  1  0
 17 45  1  0
 17 46  1  0
 18 47  1  0
 18 48  1  0
 22 49  1  0
 25 50  1  0
 26 51  1  0
 27 52  1  0
 28 53  1  0
M  ISO  8  30   8  31   8  32  13  33  13  34  13  35  13  36  13  37  13
M  ISO  8  38  13  39  14  40  14  41  14  42   5  43  13  44  13  45  13
M  ISO  8  46  13  47  13  48  13  49  14  50  14  51  14  52  14  53  14
M  END
>  <minimizedAffinity>  (1) 
-5.85834455

>  <minimizedRMSD>  (1) 
0.804350197

$$$$
