
     RDKit          3D

 53 56  0  0  1  0  0  0  0  0999 V2000
   45.8570   33.6840   40.3390 C   0  0  0  0  0  0  0  0  0  0  0  0
   43.6790   33.8030   41.4560 N   0  0  0  0  0  0  0  0  0  0  0  0
   42.3940   33.1490   41.3710 C   0  0  0  0  0  0  0  0  0  0  0  0
   41.6860   33.3630   40.0830 C   0  0  0  0  0  0  0  0  0  0  0  0
   42.4450   33.6730   39.0000 O   0  0  0  0  0  0  0  0  0  0  0  0
   43.7630   33.4350   39.0920 C   0  0  0  0  0  0  0  0  0  0  0  0
   44.4440   34.1260   40.2810 C   0  0  2  0  0  0  0  0  0  0  0  0
   45.4650   33.6050   44.7400 C   0  0  0  0  0  0  0  0  0  0  0  0
   44.9340   33.2520   43.5060 C   0  0  0  0  0  0  0  0  0  0  0  0
   44.2310   34.1500   42.7200 C   0  0  0  0  0  0  0  0  0  0  0  0
   44.0770   35.4250   43.2160 N   0  0  0  0  0  0  0  0  0  0  0  0
   44.5950   35.7680   44.4200 C   0  0  0  0  0  0  0  0  0  0  0  0
   45.2780   34.8620   45.1630 N   0  0  0  0  0  0  0  0  0  0  0  0
   46.7850   34.5020   40.4780 O   0  0  0  0  0  0  0  0  0  0  0  0
   48.8330   35.4950   40.5620 N   0  0  0  0  0  0  0  0  0  0  0  0
   49.3970   35.5060   41.8820 C   0  0  0  0  0  0  0  0  0  0  0  0
   48.5610   34.5000   42.6610 C   0  0  0  0  0  0  0  0  0  0  0  0
   48.4960   33.4250   41.5980 C   0  0  0  0  0  0  0  0  0  0  0  0
   48.1000   34.2220   40.3790 C   0  0  1  0  0  0  0  0  0  0  0  0
   48.4420   33.6510   39.1600 N   0  0  0  0  0  0  0  0  0  0  0  0
   48.4470   34.4090   37.9620 C   0  0  0  0  0  0  0  0  0  0  0  0
   47.5680   33.6170   36.9710 C   0  0  0  0  0  0  0  0  0  0  0  0
   47.2860   32.3000   37.4910 N   0  0  0  0  0  0  0  0  0  0  0  0
   48.4560   31.6020   37.9910 C   0  0  0  0  0  0  0  0  0  0  0  0
   49.1190   32.4110   39.0800 C   0  0  0  0  0  0  0  0  0  0  0  0
   46.0539   33.1464   39.3997 H   0  0  0  0  0  0  0  0  0  0  0  0
   45.8923   33.1202   41.2829 H   0  0  0  0  0  0  0  0  0  0  0  0
   42.5476   32.0680   41.5048 H   0  0  0  0  0  0  0  0  0  0  0  0
   41.7623   33.5901   42.1561 H   0  0  0  0  0  0  0  0  0  0  0  0
   41.1383   32.4382   39.8491 H   0  0  0  0  0  0  0  0  0  0  0  0
   41.0563   34.2493   40.2502 H   0  0  0  0  0  0  0  0  0  0  0  0
   43.9117   32.3497   39.1920 H   0  0  0  0  0  0  0  0  0  0  0  0
   44.2233   33.8453   38.1811 H   0  0  0  0  0  0  0  0  0  0  0  0
   44.4685   35.2219   40.1898 H   0  0  0  0  0  0  0  0  0  0  0  0
   46.0204   32.8768   45.3493 H   0  0  0  0  0  0  0  0  0  0  0  0
   45.0766   32.2243   43.1406 H   0  0  0  0  0  0  0  0  0  0  0  0
   44.4602   36.7919   44.7988 H   0  0  0  0  0  0  0  0  0  0  0  0
   48.1851   36.2884   40.4537 H   0  0  0  0  0  0  0  0  0  0  0  0
   50.4526   35.1977   41.8566 H   0  0  0  0  0  0  0  0  0  0  0  0
   49.3784   36.5073   42.3369 H   0  0  0  0  0  0  0  0  0  0  0  0
   49.0669   34.1544   43.5746 H   0  0  0  0  0  0  0  0  0  0  0  0
   47.5960   34.8633   43.0442 H   0  0  0  0  0  0  0  0  0  0  0  0
   49.4730   32.9391   41.4591 H   0  0  0  0  0  0  0  0  0  0  0  0
   47.8056   32.6026   41.8369 H   0  0  0  0  0  0  0  0  0  0  0  0
   48.0235   35.4089   38.1377 H   0  0  0  0  0  0  0  0  0  0  0  0
   49.4665   34.5568   37.5761 H   0  0  0  0  0  0  0  0  0  0  0  0
   48.0981   33.5223   36.0118 H   0  0  0  0  0  0  0  0  0  0  0  0
   46.6193   34.1546   36.8266 H   0  0  0  0  0  0  0  0  0  0  0  0
   46.6101   32.3939   38.2625 H   0  0  0  0  0  0  0  0  0  0  0  0
   48.1512   30.6263   38.3974 H   0  0  0  0  0  0  0  0  0  0  0  0
   49.1688   31.4584   37.1656 H   0  0  0  0  0  0  0  0  0  0  0  0
   49.0450   31.8799   40.0405 H   0  0  0  0  0  0  0  0  0  0  0  0
   50.1846   32.5649   38.8544 H   0  0  0  0  0  0  0  0  0  0  0  0
  1 14  1  0
  2 10  1  0
  3  2  1  0
  4  3  1  0
  5  6  1  0
  5  4  1  0
  6  7  1  0
  7  1  1  0
  7  2  1  0
  8 13  2  0
  9  8  1  0
 10 11  1  0
 10  9  2  0
 11 12  2  0
 12 13  1  0
 15 16  1  0
 16 17  1  0
 18 17  1  0
 19 14  1  6
 19 15  1  0
 19 18  1  0
 20 19  1  0
 21 20  1  0
 22 23  1  0
 22 21  1  0
 23 24  1  0
 24 25  1  0
 25 20  1  0
  1 26  1  0
  1 27  1  0
  3 28  1  0
  3 29  1  0
  4 30  1  0
  4 31  1  0
  6 32  1  0
  6 33  1  0
  7 34  1  6
  8 35  1  0
  9 36  1  0
 12 37  1  0
 15 38  1  0
 16 39  1  0
 16 40  1  0
 17 41  1  0
 17 42  1  0
 18 43  1  0
 18 44  1  0
 21 45  1  0
 21 46  1  0
 22 47  1  0
 22 48  1  0
 23 49  1  0
 24 50  1  0
 24 51  1  0
 25 52  1  0
 25 53  1  0
M  ISO  8  26   8  27   8  28  13  29  13  30  13  31  13  32  13  33  13
M  ISO  8  34  13  35  14  36  14  37  14  38   5  39  13  40  13  41  13
M  ISO  8  42  13  43  13  44  13  45  13  46  13  47  13  48  13  49   5
M  ISO  4  50  13  51  13  52  13  53  13
M  END
>  <minimizedAffinity>  (1) 
-5.43665981

>  <minimizedRMSD>  (1) 
0.651620388

$$$$
