
     RDKit          3D

 50 54  0  0  1  0  0  0  0  0999 V2000
   45.9280   33.6310   40.2780 C   0  0  0  0  0  0  0  0  0  0  0  0
   43.7550   33.6610   41.4150 N   0  0  0  0  0  0  0  0  0  0  0  0
   42.4840   32.9940   41.3350 C   0  0  0  0  0  0  0  0  0  0  0  0
   41.7640   33.1750   40.0480 C   0  0  0  0  0  0  0  0  0  0  0  0
   42.4970   33.5300   38.9670 O   0  0  0  0  0  0  0  0  0  0  0  0
   43.8250   33.3230   39.0490 C   0  0  0  0  0  0  0  0  0  0  0  0
   44.5050   33.9970   40.2360 C   0  0  2  0  0  0  0  0  0  0  0  0
   45.5060   33.4820   44.7250 C   0  0  0  0  0  0  0  0  0  0  0  0
   44.9730   33.1230   43.4970 C   0  0  0  0  0  0  0  0  0  0  0  0
   44.3100   34.0120   42.6800 C   0  0  0  0  0  0  0  0  0  0  0  0
   44.2000   35.3000   43.1530 N   0  0  0  0  0  0  0  0  0  0  0  0
   44.7220   35.6470   44.3530 C   0  0  0  0  0  0  0  0  0  0  0  0
   45.3640   34.7430   45.1180 N   0  0  0  0  0  0  0  0  0  0  0  0
   46.8120   34.5080   40.3830 O   0  0  0  0  0  0  0  0  0  0  0  0
   48.8260   35.5520   40.5890 N   0  0  0  0  0  0  0  0  0  0  0  0
   49.3650   35.5170   41.9220 C   0  0  0  0  0  0  0  0  0  0  0  0
   48.5130   34.4680   42.6370 C   0  0  0  0  0  0  0  0  0  0  0  0
   48.5130   33.4210   41.5200 C   0  0  0  0  0  0  0  0  0  0  0  0
   48.1550   34.2710   40.3560 C   0  0  1  0  0  0  0  0  0  0  0  0
   48.5090   33.7310   39.0600 N   0  0  0  0  0  0  0  0  0  0  0  0
   48.3310   34.4420   37.9300 C   0  0  0  0  0  0  0  0  0  0  0  0
   48.7360   33.7140   36.9030 N   0  0  0  0  0  0  0  0  0  0  0  0
   49.1890   32.5210   37.2960 C   0  0  0  0  0  0  0  0  0  0  0  0
   49.7240   31.3590   36.7610 C   0  0  0  0  0  0  0  0  0  0  0  0
   50.0750   30.3140   37.5490 N   0  0  0  0  0  0  0  0  0  0  0  0
   49.9070   30.3860   38.9010 C   0  0  0  0  0  0  0  0  0  0  0  0
   49.3900   31.5100   39.4310 N   0  0  0  0  0  0  0  0  0  0  0  0
   49.0350   32.5560   38.6670 C   0  0  0  0  0  0  0  0  0  0  0  0
   46.1385   33.0834   39.3475 H   0  0  0  0  0  0  0  0  0  0  0  0
   46.0114   33.0856   41.2296 H   0  0  0  0  0  0  0  0  0  0  0  0
   42.6529   31.9173   41.4839 H   0  0  0  0  0  0  0  0  0  0  0  0
   41.8485   33.4457   42.1109 H   0  0  0  0  0  0  0  0  0  0  0  0
   41.2676   32.2224   39.8112 H   0  0  0  0  0  0  0  0  0  0  0  0
   41.0894   34.0264   40.2213 H   0  0  0  0  0  0  0  0  0  0  0  0
   43.9984   32.2394   39.1252 H   0  0  0  0  0  0  0  0  0  0  0  0
   44.2646   33.7703   38.1453 H   0  0  0  0  0  0  0  0  0  0  0  0
   44.5046   35.0938   40.1523 H   0  0  0  0  0  0  0  0  0  0  0  0
   46.0295   32.7467   45.3537 H   0  0  0  0  0  0  0  0  0  0  0  0
   45.0844   32.0819   43.1598 H   0  0  0  0  0  0  0  0  0  0  0  0
   44.6203   36.6829   44.7087 H   0  0  0  0  0  0  0  0  0  0  0  0
   48.1504   36.3246   40.5023 H   0  0  0  0  0  0  0  0  0  0  0  0
   50.4235   35.2180   41.9082 H   0  0  0  0  0  0  0  0  0  0  0  0
   49.3332   36.4984   42.4178 H   0  0  0  0  0  0  0  0  0  0  0  0
   48.9880   34.0987   43.5579 H   0  0  0  0  0  0  0  0  0  0  0  0
   47.5276   34.8002   42.9957 H   0  0  0  0  0  0  0  0  0  0  0  0
   49.5033   32.9584   41.3963 H   0  0  0  0  0  0  0  0  0  0  0  0
   47.8399   32.5677   41.6901 H   0  0  0  0  0  0  0  0  0  0  0  0
   47.9173   35.4595   37.8712 H   0  0  0  0  0  0  0  0  0  0  0  0
   49.8666   31.2838   35.6729 H   0  0  0  0  0  0  0  0  0  0  0  0
   50.1889   29.5409   39.5462 H   0  0  0  0  0  0  0  0  0  0  0  0
  1 14  1  0
  2 10  1  0
  3  2  1  0
  4  3  1  0
  5  6  1  0
  5  4  1  0
  6  7  1  0
  7  1  1  0
  7  2  1  0
  8 13  2  0
  9  8  1  0
 10 11  1  0
 10  9  2  0
 11 12  2  0
 12 13  1  0
 15 16  1  0
 16 17  1  0
 18 17  1  0
 19 14  1  6
 19 15  1  0
 19 18  1  0
 20 19  1  0
 21 20  1  0
 22 23  1  0
 22 21  2  0
 23 28  2  0
 24 23  1  0
 24 25  2  0
 25 26  1  0
 26 27  2  0
 28 20  1  0
 28 27  1  0
  1 29  1  0
  1 30  1  0
  3 31  1  0
  3 32  1  0
  4 33  1  0
  4 34  1  0
  6 35  1  0
  6 36  1  0
  7 37  1  6
  8 38  1  0
  9 39  1  0
 12 40  1  0
 15 41  1  0
 16 42  1  0
 16 43  1  0
 17 44  1  0
 17 45  1  0
 18 46  1  0
 18 47  1  0
 21 48  1  0
 24 49  1  0
 26 50  1  0
M  ISO  8  29   8  30   8  31  13  32  13  33  13  34  13  35  13  36  13
M  ISO  8  37  13  38  14  39  14  40  14  41   5  42  13  43  13  44  13
M  ISO  6  45  13  46  13  47  13  48  14  49  14  50  14
M  END
>  <minimizedAffinity>  (1) 
-5.76048946

>  <minimizedRMSD>  (1) 
0.862529993

$$$$
