
     RDKit          3D

 49 52  0  0  1  0  0  0  0  0999 V2000
   45.7810   33.7290   40.3520 C   0  0  0  0  0  0  0  0  0  0  0  0
   43.6120   33.9310   41.5110 N   0  0  0  0  0  0  0  0  0  0  0  0
   42.2970   33.3680   41.4140 C   0  0  0  0  0  0  0  0  0  0  0  0
   41.5920   33.6190   40.1370 C   0  0  0  0  0  0  0  0  0  0  0  0
   42.3450   33.9710   39.0700 O   0  0  0  0  0  0  0  0  0  0  0  0
   43.6540   33.6370   39.1320 C   0  0  0  0  0  0  0  0  0  0  0  0
   44.3910   34.2340   40.3210 C   0  0  2  0  0  0  0  0  0  0  0  0
   45.4830   33.5380   44.7370 C   0  0  0  0  0  0  0  0  0  0  0  0
   44.9130   33.2550   43.5000 C   0  0  0  0  0  0  0  0  0  0  0  0
   44.2020   34.2100   42.7730 C   0  0  0  0  0  0  0  0  0  0  0  0
   44.0820   35.4630   43.3300 N   0  0  0  0  0  0  0  0  0  0  0  0
   44.6450   35.7270   44.5440 C   0  0  0  0  0  0  0  0  0  0  0  0
   45.3320   34.7690   45.2230 N   0  0  0  0  0  0  0  0  0  0  0  0
   46.7180   34.5210   40.5830 O   0  0  0  0  0  0  0  0  0  0  0  0
   48.7930   35.4430   40.5960 N   0  0  0  0  0  0  0  0  0  0  0  0
   49.3940   35.4710   41.9030 C   0  0  0  0  0  0  0  0  0  0  0  0
   48.5200   34.5370   42.7360 C   0  0  0  0  0  0  0  0  0  0  0  0
   48.4040   33.4140   41.7080 C   0  0  0  0  0  0  0  0  0  0  0  0
   48.0440   34.1850   40.4740 C   0  0  1  0  0  0  0  0  0  0  0  0
   48.4480   33.5530   39.2220 C   0  0  0  0  0  0  0  0  0  0  0  0
   48.2710   34.3320   38.0970 C   0  0  0  0  0  0  0  0  0  0  0  0
   48.5970   33.9000   36.8280 C   0  0  0  0  0  0  0  0  0  0  0  0
   49.1280   32.6130   36.7080 C   0  0  0  0  0  0  0  0  0  0  0  0
   49.3220   31.8020   37.8070 C   0  0  0  0  0  0  0  0  0  0  0  0
   48.9760   32.2900   39.0470 C   0  0  0  0  0  0  0  0  0  0  0  0
   45.9792   33.2771   39.3689 H   0  0  0  0  0  0  0  0  0  0  0  0
   45.7917   33.0556   41.2217 H   0  0  0  0  0  0  0  0  0  0  0  0
   42.3833   32.2793   41.5458 H   0  0  0  0  0  0  0  0  0  0  0  0
   41.6976   33.8613   42.1934 H   0  0  0  0  0  0  0  0  0  0  0  0
   41.0527   32.6979   39.8710 H   0  0  0  0  0  0  0  0  0  0  0  0
   40.9557   34.4944   40.3338 H   0  0  0  0  0  0  0  0  0  0  0  0
   43.7285   32.5413   39.1940 H   0  0  0  0  0  0  0  0  0  0  0  0
   44.1287   34.0443   38.2272 H   0  0  0  0  0  0  0  0  0  0  0  0
   44.4845   35.3280   40.2542 H   0  0  0  0  0  0  0  0  0  0  0  0
   46.0398   32.7709   45.2951 H   0  0  0  0  0  0  0  0  0  0  0  0
   45.0267   32.2443   43.0811 H   0  0  0  0  0  0  0  0  0  0  0  0
   44.5418   36.7311   44.9812 H   0  0  0  0  0  0  0  0  0  0  0  0
   48.1540   36.2434   40.4868 H   0  0  0  0  0  0  0  0  0  0  0  0
   50.4303   35.1043   41.8640 H   0  0  0  0  0  0  0  0  0  0  0  0
   49.4447   36.4867   42.3222 H   0  0  0  0  0  0  0  0  0  0  0  0
   49.0178   34.2098   43.6608 H   0  0  0  0  0  0  0  0  0  0  0  0
   47.5752   34.9561   43.1125 H   0  0  0  0  0  0  0  0  0  0  0  0
   49.3576   32.8795   41.5855 H   0  0  0  0  0  0  0  0  0  0  0  0
   47.6819   32.6289   41.9766 H   0  0  0  0  0  0  0  0  0  0  0  0
   47.8516   35.3418   38.2172 H   0  0  0  0  0  0  0  0  0  0  0  0
   48.4453   34.5417   35.9476 H   0  0  0  0  0  0  0  0  0  0  0  0
   49.3986   32.2365   35.7105 H   0  0  0  0  0  0  0  0  0  0  0  0
   49.7423   30.7916   37.6955 H   0  0  0  0  0  0  0  0  0  0  0  0
   49.1257   31.6506   39.9295 H   0  0  0  0  0  0  0  0  0  0  0  0
  1 14  1  0
  2 10  1  0
  3  2  1  0
  4  3  1  0
  5  6  1  0
  5  4  1  0
  6  7  1  0
  7  1  1  0
  7  2  1  0
  8 13  2  0
  9  8  1  0
 10 11  1  0
 10  9  2  0
 11 12  2  0
 12 13  1  0
 15 16  1  0
 16 17  1  0
 18 17  1  0
 19 14  1  6
 19 15  1  0
 19 18  1  0
 20 19  1  0
 21 20  2  0
 22 21  1  0
 23 22  2  0
 23 24  1  0
 24 25  2  0
 25 20  1  0
  1 26  1  0
  1 27  1  0
  3 28  1  0
  3 29  1  0
  4 30  1  0
  4 31  1  0
  6 32  1  0
  6 33  1  0
  7 34  1  6
  8 35  1  0
  9 36  1  0
 12 37  1  0
 15 38  1  0
 16 39  1  0
 16 40  1  0
 17 41  1  0
 17 42  1  0
 18 43  1  0
 18 44  1  0
 21 45  1  0
 22 46  1  0
 23 47  1  0
 24 48  1  0
 25 49  1  0
M  ISO  8  26   8  27   8  28  13  29  13  30  13  31  13  32  13  33  13
M  ISO  8  34  13  35  14  36  14  37  14  38   5  39  13  40  13  41  13
M  ISO  8  42  13  43  13  44  13  45  14  46  14  47  14  48  14  49  14
M  END
>  <minimizedAffinity>  (1) 
-5.63940525

>  <minimizedRMSD>  (1) 
0.924329281

$$$$
