
     RDKit          3D

 55 58  0  0  1  0  0  0  0  0999 V2000
   45.5730   34.2980   42.2000 C   0  0  0  0  0  0  0  0  0  0  0  0
   46.9660   34.2540   42.2990 C   0  0  0  0  0  0  0  0  0  0  0  0
   47.5450   33.9400   43.5500 C   0  0  0  0  0  0  0  0  0  0  0  0
   46.7410   33.6970   44.5960 N   0  0  0  0  0  0  0  0  0  0  0  0
   45.3970   33.7400   44.4910 C   0  0  0  0  0  0  0  0  0  0  0  0
   44.8450   34.0350   43.3180 N   0  0  0  0  0  0  0  0  0  0  0  0
   44.8400   34.6490   41.0360 C   0  0  0  0  0  0  0  0  0  0  0  0
   44.3450   33.3680   40.2990 C   0  0  0  0  0  0  0  0  0  0  0  0
   43.3450   33.9750   39.3270 C   0  0  0  0  0  0  0  0  0  0  0  0
   42.8020   35.1670   40.0650 C   0  0  0  0  0  0  0  0  0  0  0  0
   43.5030   35.2150   41.4080 C   0  0  0  0  0  0  0  0  0  0  0  0
   47.8230   34.5400   41.1390 C   0  0  1  0  0  0  0  0  0  0  0  0
   48.8110   35.6130   41.3850 C   0  0  0  0  0  0  0  0  0  0  0  0
   48.4000   33.2350   40.6530 C   0  0  0  0  0  0  0  0  0  0  0  0
   48.4880   33.1830   39.2070 N   0  0  0  0  0  0  0  0  0  0  0  0
   47.6110   33.9610   38.5760 N   0  0  0  0  0  0  0  0  0  0  0  0
   47.7810   33.8330   37.2540 C   0  0  0  0  0  0  0  0  0  0  0  0
   48.8000   32.9430   37.0340 C   0  0  0  0  0  0  0  0  0  0  0  0
   49.2260   32.5520   38.2760 C   0  0  0  0  0  0  0  0  0  0  0  0
   50.2750   31.6230   38.7110 C   0  0  0  0  0  0  0  0  0  0  0  0
   49.7740   30.2750   39.0380 C   0  0  0  0  0  0  0  0  0  0  0  0
   49.5790   29.3260   37.9160 C   0  0  0  0  0  0  0  0  0  0  0  0
   50.2490   29.6350   36.6340 C   0  0  0  0  0  0  0  0  0  0  0  0
   50.7140   31.0240   36.4060 C   0  0  0  0  0  0  0  0  0  0  0  0
   51.3480   31.6070   37.6130 C   0  0  0  0  0  0  0  0  0  0  0  0
   48.6382   33.8956   43.6639 H   0  0  0  0  0  0  0  0  0  0  0  0
   44.7642   33.5332   45.3667 H   0  0  0  0  0  0  0  0  0  0  0  0
   45.5055   35.3128   40.4646 H   0  0  0  0  0  0  0  0  0  0  0  0
   45.1661   32.8600   39.7721 H   0  0  0  0  0  0  0  0  0  0  0  0
   43.9294   32.5920   40.9586 H   0  0  0  0  0  0  0  0  0  0  0  0
   42.5423   33.2600   39.0938 H   0  0  0  0  0  0  0  0  0  0  0  0
   43.8004   34.2442   38.3626 H   0  0  0  0  0  0  0  0  0  0  0  0
   43.0074   36.0874   39.4987 H   0  0  0  0  0  0  0  0  0  0  0  0
   41.7126   35.0855   40.1939 H   0  0  0  0  0  0  0  0  0  0  0  0
   42.9915   34.5915   42.1560 H   0  0  0  0  0  0  0  0  0  0  0  0
   43.5392   36.2118   41.8718 H   0  0  0  0  0  0  0  0  0  0  0  0
   47.2213   34.9707   40.3251 H   0  0  0  0  0  0  0  0  0  0  0  0
   48.9391   35.7521   42.4686 H   0  0  0  0  0  0  0  0  0  0  0  0
   49.7750   35.3340   40.9347 H   0  0  0  0  0  0  0  0  0  0  0  0
   48.4536   36.5508   40.9347 H   0  0  0  0  0  0  0  0  0  0  0  0
   49.4089   33.1144   41.0744 H   0  0  0  0  0  0  0  0  0  0  0  0
   47.7312   32.4256   40.9812 H   0  0  0  0  0  0  0  0  0  0  0  0
   47.2017   34.3533   36.4770 H   0  0  0  0  0  0  0  0  0  0  0  0
   49.1940   32.6115   36.0619 H   0  0  0  0  0  0  0  0  0  0  0  0
   50.7032   31.9735   39.6617 H   0  0  0  0  0  0  0  0  0  0  0  0
   50.4909   29.8174   39.7356 H   0  0  0  0  0  0  0  0  0  0  0  0
   48.7647   30.4418   39.4423 H   0  0  0  0  0  0  0  0  0  0  0  0
   49.9432   28.3430   38.2492 H   0  0  0  0  0  0  0  0  0  0  0  0
   48.5039   29.3783   37.6893 H   0  0  0  0  0  0  0  0  0  0  0  0
   51.1292   28.9795   36.5592 H   0  0  0  0  0  0  0  0  0  0  0  0
   49.4697   29.4791   35.8735 H   0  0  0  0  0  0  0  0  0  0  0  0
   51.4475   31.0221   35.5863 H   0  0  0  0  0  0  0  0  0  0  0  0
   49.8360   31.6375   36.1557 H   0  0  0  0  0  0  0  0  0  0  0  0
   52.2030   30.9904   37.9274 H   0  0  0  0  0  0  0  0  0  0  0  0
   51.7235   32.6212   37.4119 H   0  0  0  0  0  0  0  0  0  0  0  0
  1  2  1  0
  1  6  2  0
  2  3  2  0
  3  4  1  0
  5  4  2  0
  6  5  1  0
  7 11  1  0
  7  1  1  0
  8  7  1  0
  9 10  1  0
  9  8  1  0
 10 11  1  0
 12 13  1  0
 12  2  1  0
 14 12  1  0
 15 14  1  0
 16 15  1  0
 17 16  2  0
 18 17  1  0
 18 19  2  0
 19 20  1  0
 19 15  1  0
 20 21  1  0
 22 21  1  0
 23 22  1  0
 24 23  1  0
 24 25  1  0
 25 20  1  0
  3 26  1  0
  5 27  1  0
  7 28  1  0
  8 29  1  0
  8 30  1  0
  9 31  1  0
  9 32  1  0
 10 33  1  0
 10 34  1  0
 11 35  1  0
 11 36  1  0
 12 37  1  6
 13 38  1  0
 13 39  1  0
 13 40  1  0
 14 41  1  0
 14 42  1  0
 17 43  1  0
 18 44  1  0
 20 45  1  0
 21 46  1  0
 21 47  1  0
 22 48  1  0
 22 49  1  0
 23 50  1  0
 23 51  1  0
 24 52  1  0
 24 53  1  0
 25 54  1  0
 25 55  1  0
M  ISO  8  26  14  27  14  28  13  29  13  30  13  31  13  32  13  33  13
M  ISO  8  34  13  35  13  36  13  37   8  38   8  39   8  40   8  41   8
M  ISO  8  42   8  43  14  44  14  45  13  46  13  47  13  48  13  49  13
M  ISO  6  50  13  51  13  52  13  53  13  54  13  55  13
M  END
>  <minimizedAffinity>  (1) 
-5.2022891

>  <minimizedRMSD>  (1) 
2.37117457

$$$$
