
     RDKit          3D

 45 48  0  0  1  0  0  0  0  0999 V2000
   43.8290   33.5870   41.6800 N   0  0  0  0  0  0  0  0  0  0  0  0
   42.5470   32.9420   41.6000 C   0  0  0  0  0  0  0  0  0  0  0  0
   41.7230   33.3640   40.4460 C   0  0  0  0  0  0  0  0  0  0  0  0
   42.3590   33.9200   39.3790 O   0  0  0  0  0  0  0  0  0  0  0  0
   43.6800   33.6710   39.3000 C   0  0  0  0  0  0  0  0  0  0  0  0
   44.4810   34.1470   40.5070 C   0  0  2  0  0  0  0  0  0  0  0  0
   45.8190   32.7400   44.7510 C   0  0  0  0  0  0  0  0  0  0  0  0
   45.1600   32.6240   43.5370 C   0  0  0  0  0  0  0  0  0  0  0  0
   44.5100   33.6980   42.9260 C   0  0  0  0  0  0  0  0  0  0  0  0
   44.5530   34.9030   43.5920 N   0  0  0  0  0  0  0  0  0  0  0  0
   45.2050   34.9990   44.7850 C   0  0  0  0  0  0  0  0  0  0  0  0
   45.8240   33.9280   45.3430 N   0  0  0  0  0  0  0  0  0  0  0  0
   45.8970   33.7470   40.3500 C   0  0  0  0  0  0  0  0  0  0  0  0
   46.7970   34.5710   40.6170 O   0  0  0  0  0  0  0  0  0  0  0  0
   48.8430   35.5510   40.7840 N   0  0  0  0  0  0  0  0  0  0  0  0
   49.4560   35.3890   42.0760 C   0  0  0  0  0  0  0  0  0  0  0  0
   48.6340   34.2900   42.7440 C   0  0  0  0  0  0  0  0  0  0  0  0
   48.5460   33.3550   41.5350 C   0  0  0  0  0  0  0  0  0  0  0  0
   48.1360   34.3070   40.4660 C   0  0  1  0  0  0  0  0  0  0  0  0
   48.4100   33.8510   39.1060 C   0  0  0  0  0  0  0  0  0  0  0  0
   48.9760   32.5860   39.1160 C   0  0  0  0  0  0  0  0  0  0  0  0
   49.2450   32.1900   37.3180 S   0  0  0  0  0  0  0  0  0  0  0  0
   48.5050   33.8910   36.8770 C   0  0  0  0  0  0  0  0  0  0  0  0
   48.2670   34.3090   37.8870 N   0  0  0  0  0  0  0  0  0  0  0  0
   42.7115   31.8568   41.5271 H   0  0  0  0  0  0  0  0  0  0  0  0
   41.9924   33.2311   42.5049 H   0  0  0  0  0  0  0  0  0  0  0  0
   41.1890   32.4739   40.0818 H   0  0  0  0  0  0  0  0  0  0  0  0
   41.0886   34.1714   40.8405 H   0  0  0  0  0  0  0  0  0  0  0  0
   43.8205   32.5846   39.1999 H   0  0  0  0  0  0  0  0  0  0  0  0
   44.0552   34.2322   38.4315 H   0  0  0  0  0  0  0  0  0  0  0  0
   44.5000   35.2420   40.6100 H   0  0  0  0  0  0  0  0  0  0  0  0
   46.3216   31.8754   45.2090 H   0  0  0  0  0  0  0  0  0  0  0  0
   45.1487   31.6456   43.0344 H   0  0  0  0  0  0  0  0  0  0  0  0
   45.2300   35.9667   45.3075 H   0  0  0  0  0  0  0  0  0  0  0  0
   46.0580   32.8739   40.9994 H   0  0  0  0  0  0  0  0  0  0  0  0
   46.0041   33.5850   39.2673 H   0  0  0  0  0  0  0  0  0  0  0  0
   48.1772   36.3365   40.8078 H   0  0  0  0  0  0  0  0  0  0  0  0
   50.5074   35.0824   41.9735 H   0  0  0  0  0  0  0  0  0  0  0  0
   49.4651   36.3221   42.6585 H   0  0  0  0  0  0  0  0  0  0  0  0
   49.1598   33.8298   43.5936 H   0  0  0  0  0  0  0  0  0  0  0  0
   47.6798   34.5976   43.1967 H   0  0  0  0  0  0  0  0  0  0  0  0
   49.5183   32.8916   41.3116 H   0  0  0  0  0  0  0  0  0  0  0  0
   47.8622   32.5040   41.6698 H   0  0  0  0  0  0  0  0  0  0  0  0
   49.2124   31.9589   39.9883 H   0  0  0  0  0  0  0  0  0  0  0  0
   48.3518   34.3439   35.8863 H   0  0  0  0  0  0  0  0  0  0  0  0
  1  9  1  0
  2  1  1  0
  3  2  1  0
  4  3  1  0
  5  4  1  0
  5  6  1  0
  6  1  1  0
  7 12  2  0
  8  7  1  0
  9  8  2  0
  9 10  1  0
 10 11  2  0
 11 12  1  0
 13  6  1  0
 13 14  1  0
 15 16  1  0
 16 17  1  0
 18 17  1  0
 19 14  1  6
 19 15  1  0
 19 18  1  0
 20 21  2  0
 20 19  1  0
 22 21  1  0
 23 22  1  0
 23 24  2  0
 24 20  1  0
  2 25  1  0
  2 26  1  0
  3 27  1  0
  3 28  1  0
  5 29  1  0
  5 30  1  0
  6 31  1  1
  7 32  1  0
  8 33  1  0
 11 34  1  0
 13 35  1  0
 13 36  1  0
 15 37  1  0
 16 38  1  0
 16 39  1  0
 17 40  1  0
 17 41  1  0
 18 42  1  0
 18 43  1  0
 21 44  1  0
 23 45  1  0
M  ISO  8  25  13  26  13  27  13  28  13  29  13  30  13  31  13  32  14
M  ISO  8  33  14  34  14  35   8  36   8  37   5  38  13  39  13  40  13
M  ISO  5  41  13  42  13  43  13  44  14  45  14
M  END
>  <minimizedAffinity>  (1) 
-5.25210381

>  <minimizedRMSD>  (1) 
1.08346808

$$$$
