
     RDKit          3D

 55 58  0  0  1  0  0  0  0  0999 V2000
   43.4460   33.9290   41.4270 N   0  0  0  0  0  0  0  0  0  0  0  0
   42.1160   33.3870   41.4000 C   0  0  0  0  0  0  0  0  0  0  0  0
   41.3500   33.6660   40.1700 C   0  0  0  0  0  0  0  0  0  0  0  0
   42.0400   34.0460   39.0670 O   0  0  0  0  0  0  0  0  0  0  0  0
   43.3440   33.6940   39.0490 C   0  0  0  0  0  0  0  0  0  0  0  0
   44.1620   34.2300   40.2140 C   0  0  2  0  0  0  0  0  0  0  0  0
   45.4390   33.4740   44.5650 C   0  0  0  0  0  0  0  0  0  0  0  0
   44.8010   33.2160   43.3620 C   0  0  0  0  0  0  0  0  0  0  0  0
   44.1040   34.1870   42.6600 C   0  0  0  0  0  0  0  0  0  0  0  0
   44.0770   35.4420   43.2280 N   0  0  0  0  0  0  0  0  0  0  0  0
   44.7050   35.6820   44.4030 C   0  0  0  0  0  0  0  0  0  0  0  0
   45.3700   34.7090   45.0510 N   0  0  0  0  0  0  0  0  0  0  0  0
   45.5340   33.7080   40.1560 C   0  0  0  0  0  0  0  0  0  0  0  0
   46.5070   34.4260   40.4720 O   0  0  0  0  0  0  0  0  0  0  0  0
   48.6140   35.2810   40.3490 N   0  0  0  0  0  0  0  0  0  0  0  0
   49.2690   35.3930   41.6230 C   0  0  0  0  0  0  0  0  0  0  0  0
   48.4050   34.5440   42.5580 C   0  0  0  0  0  0  0  0  0  0  0  0
   48.2140   33.3550   41.6190 C   0  0  0  0  0  0  0  0  0  0  0  0
   47.8150   34.0600   40.3660 C   0  0  1  0  0  0  0  0  0  0  0  0
   48.0730   33.2890   39.0970 C   0  0  0  0  0  0  0  0  0  0  0  0
   48.5210   34.2950   38.0570 C   0  0  0  0  0  0  0  0  0  0  0  0
   48.4440   33.6110   36.7100 C   0  0  0  0  0  0  0  0  0  0  0  0
   49.2610   32.3600   36.7480 C   0  0  0  0  0  0  0  0  0  0  0  0
   50.0130   32.1400   38.0320 C   0  0  0  0  0  0  0  0  0  0  0  0
   49.1430   32.2610   39.2550 C   0  0  0  0  0  0  0  0  0  0  0  0
   42.1907   32.2955   41.5145 H   0  0  0  0  0  0  0  0  0  0  0  0
   41.5692   33.8776   42.2187 H   0  0  0  0  0  0  0  0  0  0  0  0
   40.7986   32.7497   39.9123 H   0  0  0  0  0  0  0  0  0  0  0  0
   40.7299   34.5388   40.4225 H   0  0  0  0  0  0  0  0  0  0  0  0
   43.4029   32.5957   39.0653 H   0  0  0  0  0  0  0  0  0  0  0  0
   43.7732   34.1363   38.1379 H   0  0  0  0  0  0  0  0  0  0  0  0
   44.2823   35.3225   40.1702 H   0  0  0  0  0  0  0  0  0  0  0  0
   45.9845   32.6826   45.0999 H   0  0  0  0  0  0  0  0  0  0  0  0
   44.8498   32.1984   42.9470 H   0  0  0  0  0  0  0  0  0  0  0  0
   44.6707   36.6925   44.8362 H   0  0  0  0  0  0  0  0  0  0  0  0
   45.5637   32.8305   40.8187 H   0  0  0  0  0  0  0  0  0  0  0  0
   45.6886   33.5490   39.0786 H   0  0  0  0  0  0  0  0  0  0  0  0
   49.3160   35.2303   39.5970 H   0  0  0  0  0  0  0  0  0  0  0  0
   50.2944   34.9981   41.5717 H   0  0  0  0  0  0  0  0  0  0  0  0
   49.3618   36.4354   41.9617 H   0  0  0  0  0  0  0  0  0  0  0  0
   48.9334   34.2680   43.4824 H   0  0  0  0  0  0  0  0  0  0  0  0
   47.4889   35.0167   42.9419 H   0  0  0  0  0  0  0  0  0  0  0  0
   49.1473   32.7881   41.4865 H   0  0  0  0  0  0  0  0  0  0  0  0
   47.4926   32.6033   41.9718 H   0  0  0  0  0  0  0  0  0  0  0  0
   47.1534   32.7571   38.8115 H   0  0  0  0  0  0  0  0  0  0  0  0
   47.8585   35.1730   38.0722 H   0  0  0  0  0  0  0  0  0  0  0  0
   49.5456   34.6385   38.2623 H   0  0  0  0  0  0  0  0  0  0  0  0
   48.8362   34.2834   35.9328 H   0  0  0  0  0  0  0  0  0  0  0  0
   47.3973   33.3626   36.4804 H   0  0  0  0  0  0  0  0  0  0  0  0
   48.5860   31.5050   36.5953 H   0  0  0  0  0  0  0  0  0  0  0  0
   50.0188   32.4593   35.9569 H   0  0  0  0  0  0  0  0  0  0  0  0
   50.4511   31.1312   38.0126 H   0  0  0  0  0  0  0  0  0  0  0  0
   50.7831   32.9226   38.0989 H   0  0  0  0  0  0  0  0  0  0  0  0
   49.7752   32.5388   40.1113 H   0  0  0  0  0  0  0  0  0  0  0  0
   48.6518   31.2895   39.4126 H   0  0  0  0  0  0  0  0  0  0  0  0
  1  9  1  0
  2  1  1  0
  3  2  1  0
  4  3  1  0
  5  4  1  0
  5  6  1  0
  6  1  1  0
  7 12  2  0
  8  7  1  0
  9 10  1  0
  9  8  2  0
 10 11  2  0
 11 12  1  0
 13  6  1  0
 13 14  1  0
 15 19  1  0
 15 16  1  0
 16 17  1  0
 18 17  1  0
 19 14  1  1
 19 18  1  0
 20 25  1  0
 20 19  1  0
 21 20  1  0
 22 23  1  0
 22 21  1  0
 23 24  1  0
 24 25  1  0
  2 26  1  0
  2 27  1  0
  3 28  1  0
  3 29  1  0
  5 30  1  0
  5 31  1  0
  6 32  1  6
  7 33  1  0
  8 34  1  0
 11 35  1  0
 13 36  1  0
 13 37  1  0
 15 38  1  0
 16 39  1  0
 16 40  1  0
 17 41  1  0
 17 42  1  0
 18 43  1  0
 18 44  1  0
 20 45  1  0
 21 46  1  0
 21 47  1  0
 22 48  1  0
 22 49  1  0
 23 50  1  0
 23 51  1  0
 24 52  1  0
 24 53  1  0
 25 54  1  0
 25 55  1  0
M  ISO  8  26  13  27  13  28  13  29  13  30  13  31  13  32  13  33  14
M  ISO  8  34  14  35  14  36   8  37   8  38   5  39  13  40  13  41  13
M  ISO  8  42  13  43  13  44  13  45  13  46  13  47  13  48  13  49  13
M  ISO  6  50  13  51  13  52  13  53  13  54  13  55  13
M  END
>  <minimizedAffinity>  (1) 
-5.39843559

>  <minimizedRMSD>  (1) 
0.88722688

$$$$
