
     RDKit          3D

 46 49  0  0  1  0  0  0  0  0999 V2000
   45.8940   33.6610   40.2660 C   0  0  0  0  0  0  0  0  0  0  0  0
   43.7070   33.7590   41.4010 N   0  0  0  0  0  0  0  0  0  0  0  0
   42.4350   33.1050   41.3000 C   0  0  0  0  0  0  0  0  0  0  0  0
   41.7170   33.3250   40.0230 C   0  0  0  0  0  0  0  0  0  0  0  0
   42.4640   33.6780   38.9450 O   0  0  0  0  0  0  0  0  0  0  0  0
   43.7850   33.4150   39.0350 C   0  0  0  0  0  0  0  0  0  0  0  0
   44.4760   34.0940   40.2130 C   0  0  2  0  0  0  0  0  0  0  0  0
   45.4700   33.5080   44.7040 C   0  0  0  0  0  0  0  0  0  0  0  0
   44.9280   33.1680   43.4680 C   0  0  0  0  0  0  0  0  0  0  0  0
   44.2680   34.1020   42.6680 C   0  0  0  0  0  0  0  0  0  0  0  0
   44.1660   35.3910   43.1430 N   0  0  0  0  0  0  0  0  0  0  0  0
   44.7040   35.7030   44.3560 C   0  0  0  0  0  0  0  0  0  0  0  0
   45.3410   34.7690   45.1130 N   0  0  0  0  0  0  0  0  0  0  0  0
   46.7820   34.5080   40.4850 O   0  0  0  0  0  0  0  0  0  0  0  0
   48.8090   35.5220   40.6540 N   0  0  0  0  0  0  0  0  0  0  0  0
   49.3580   35.4700   41.9820 C   0  0  0  0  0  0  0  0  0  0  0  0
   48.4980   34.4340   42.7020 C   0  0  0  0  0  0  0  0  0  0  0  0
   48.4770   33.3900   41.5780 C   0  0  0  0  0  0  0  0  0  0  0  0
   48.1260   34.2440   40.4020 C   0  0  1  0  0  0  0  0  0  0  0  0
   48.5940   33.7520   39.1030 C   0  0  0  0  0  0  0  0  0  0  0  0
   49.0120   32.5020   38.7680 C   0  0  0  0  0  0  0  0  0  0  0  0
   49.3400   32.5810   37.4320 C   0  0  0  0  0  0  0  0  0  0  0  0
   49.1110   33.8610   37.0190 N   0  0  0  0  0  0  0  0  0  0  0  0
   48.6520   34.5830   38.0460 N   0  0  0  0  0  0  0  0  0  0  0  0
   46.1247   33.1976   39.2954 H   0  0  0  0  0  0  0  0  0  0  0  0
   45.9341   33.0066   41.1493 H   0  0  0  0  0  0  0  0  0  0  0  0
   42.5971   32.0235   41.4183 H   0  0  0  0  0  0  0  0  0  0  0  0
   41.8022   33.5407   42.0872 H   0  0  0  0  0  0  0  0  0  0  0  0
   41.1941   32.3904   39.7718 H   0  0  0  0  0  0  0  0  0  0  0  0
   41.0625   34.1890   40.2103 H   0  0  0  0  0  0  0  0  0  0  0  0
   43.9145   32.3276   39.1385 H   0  0  0  0  0  0  0  0  0  0  0  0
   44.2508   33.8131   38.1215 H   0  0  0  0  0  0  0  0  0  0  0  0
   44.5055   35.1898   40.1221 H   0  0  0  0  0  0  0  0  0  0  0  0
   45.9877   32.7601   45.3226 H   0  0  0  0  0  0  0  0  0  0  0  0
   45.0227   32.1319   43.1109 H   0  0  0  0  0  0  0  0  0  0  0  0
   44.6212   36.7336   44.7315 H   0  0  0  0  0  0  0  0  0  0  0  0
   48.1367   36.2991   40.5825 H   0  0  0  0  0  0  0  0  0  0  0  0
   50.4111   35.1533   41.9567 H   0  0  0  0  0  0  0  0  0  0  0  0
   49.3450   36.4496   42.4822 H   0  0  0  0  0  0  0  0  0  0  0  0
   48.9747   34.0556   43.6183 H   0  0  0  0  0  0  0  0  0  0  0  0
   47.5206   34.7780   43.0711 H   0  0  0  0  0  0  0  0  0  0  0  0
   49.4599   32.9127   41.4516 H   0  0  0  0  0  0  0  0  0  0  0  0
   47.7870   32.5510   41.7512 H   0  0  0  0  0  0  0  0  0  0  0  0
   49.0747   31.6195   39.4216 H   0  0  0  0  0  0  0  0  0  0  0  0
   49.7193   31.7578   36.8088 H   0  0  0  0  0  0  0  0  0  0  0  0
   49.2674   34.2156   36.0647 H   0  0  0  0  0  0  0  0  0  0  0  0
  1 14  1  0
  2 10  1  0
  3  2  1  0
  4  3  1  0
  5  6  1  0
  5  4  1  0
  6  7  1  0
  7  1  1  0
  7  2  1  0
  8 13  2  0
  9  8  1  0
 10 11  1  0
 10  9  2  0
 11 12  2  0
 12 13  1  0
 15 16  1  0
 16 17  1  0
 18 17  1  0
 19 14  1  6
 19 15  1  0
 19 18  1  0
 20 19  1  0
 21 20  1  0
 22 21  2  0
 23 22  1  0
 23 24  1  0
 24 20  2  0
  1 25  1  0
  1 26  1  0
  3 27  1  0
  3 28  1  0
  4 29  1  0
  4 30  1  0
  6 31  1  0
  6 32  1  0
  7 33  1  6
  8 34  1  0
  9 35  1  0
 12 36  1  0
 15 37  1  0
 16 38  1  0
 16 39  1  0
 17 40  1  0
 17 41  1  0
 18 42  1  0
 18 43  1  0
 21 44  1  0
 22 45  1  0
 23 46  1  0
M  ISO  8  25   8  26   8  27  13  28  13  29  13  30  13  31  13  32  13
M  ISO  8  33  13  34  14  35  14  36  14  37   5  38  13  39  13  40  13
M  ISO  6  41  13  42  13  43  13  44  14  45  14  46   9
M  END
>  <minimizedAffinity>  (1) 
-5.39088106

>  <minimizedRMSD>  (1) 
0.645099759

$$$$
