
     RDKit          3D

 45 48  0  0  1  0  0  0  0  0999 V2000
   43.7130   33.7090   41.4050 N   0  0  0  0  0  0  0  0  0  0  0  0
   42.4410   33.0490   41.3260 C   0  0  0  0  0  0  0  0  0  0  0  0
   41.7460   33.1960   40.0240 C   0  0  0  0  0  0  0  0  0  0  0  0
   42.4810   33.5690   38.9480 O   0  0  0  0  0  0  0  0  0  0  0  0
   43.8070   33.3140   39.0470 C   0  0  0  0  0  0  0  0  0  0  0  0
   44.4840   34.0270   40.2130 C   0  0  2  0  0  0  0  0  0  0  0  0
   45.4790   33.5230   44.7150 C   0  0  0  0  0  0  0  0  0  0  0  0
   44.9410   33.1690   43.4870 C   0  0  0  0  0  0  0  0  0  0  0  0
   44.2690   34.0750   42.6630 C   0  0  0  0  0  0  0  0  0  0  0  0
   44.1570   35.3670   43.1250 N   0  0  0  0  0  0  0  0  0  0  0  0
   44.6890   35.7050   44.3330 C   0  0  0  0  0  0  0  0  0  0  0  0
   45.3380   34.7910   45.1060 N   0  0  0  0  0  0  0  0  0  0  0  0
   45.9040   33.6250   40.2810 C   0  0  0  0  0  0  0  0  0  0  0  0
   46.7850   34.4990   40.4440 O   0  0  0  0  0  0  0  0  0  0  0  0
   48.8030   35.5230   40.5820 N   0  0  0  0  0  0  0  0  0  0  0  0
   49.3690   35.4940   41.9020 C   0  0  0  0  0  0  0  0  0  0  0  0
   48.5410   34.4480   42.6430 C   0  0  0  0  0  0  0  0  0  0  0  0
   48.5140   33.4020   41.5290 C   0  0  0  0  0  0  0  0  0  0  0  0
   48.1310   34.2360   40.3500 C   0  0  1  0  0  0  0  0  0  0  0  0
   48.5030   33.7070   39.0750 N   0  0  0  0  0  0  0  0  0  0  0  0
   48.3970   34.4380   37.9590 C   0  0  0  0  0  0  0  0  0  0  0  0
   48.8130   33.6910   36.9320 N   0  0  0  0  0  0  0  0  0  0  0  0
   49.1800   32.4950   37.3850 C   0  0  0  0  0  0  0  0  0  0  0  0
   48.9720   32.5440   38.7270 N   0  0  0  0  0  0  0  0  0  0  0  0
   42.5996   31.9762   41.5105 H   0  0  0  0  0  0  0  0  0  0  0  0
   41.7960   33.5269   42.0780 H   0  0  0  0  0  0  0  0  0  0  0  0
   41.2882   32.2245   39.7863 H   0  0  0  0  0  0  0  0  0  0  0  0
   41.0452   34.0294   40.1797 H   0  0  0  0  0  0  0  0  0  0  0  0
   43.9433   32.2302   39.1766 H   0  0  0  0  0  0  0  0  0  0  0  0
   44.2758   33.6893   38.1254 H   0  0  0  0  0  0  0  0  0  0  0  0
   44.4985   35.1209   40.0978 H   0  0  0  0  0  0  0  0  0  0  0  0
   46.0021   32.7867   45.3429 H   0  0  0  0  0  0  0  0  0  0  0  0
   45.0481   32.1285   43.1466 H   0  0  0  0  0  0  0  0  0  0  0  0
   44.5920   36.7402   44.6921 H   0  0  0  0  0  0  0  0  0  0  0  0
   45.9965   32.9175   41.1182 H   0  0  0  0  0  0  0  0  0  0  0  0
   46.1105   33.2349   39.2734 H   0  0  0  0  0  0  0  0  0  0  0  0
   48.1212   36.2917   40.5104 H   0  0  0  0  0  0  0  0  0  0  0  0
   50.4280   35.1988   41.8657 H   0  0  0  0  0  0  0  0  0  0  0  0
   49.3414   36.4778   42.3934 H   0  0  0  0  0  0  0  0  0  0  0  0
   49.0421   34.0817   43.5511 H   0  0  0  0  0  0  0  0  0  0  0  0
   47.5656   34.7782   43.0298 H   0  0  0  0  0  0  0  0  0  0  0  0
   49.5013   32.9374   41.3894 H   0  0  0  0  0  0  0  0  0  0  0  0
   47.8358   32.5576   41.7216 H   0  0  0  0  0  0  0  0  0  0  0  0
   48.0311   35.4736   37.8977 H   0  0  0  0  0  0  0  0  0  0  0  0
   49.5682   31.6487   36.7993 H   0  0  0  0  0  0  0  0  0  0  0  0
  1  9  1  0
  2  1  1  0
  3  2  1  0
  4  5  1  0
  4  3  1  0
  5  6  1  0
  6 13  1  0
  6  1  1  0
  7 12  2  0
  8  7  1  0
  9 10  1  0
  9  8  2  0
 10 11  2  0
 11 12  1  0
 13 14  1  0
 15 16  1  0
 16 17  1  0
 18 17  1  0
 19 14  1  6
 19 15  1  0
 19 18  1  0
 20 19  1  0
 21 20  1  0
 22 23  1  0
 22 21  2  0
 23 24  2  0
 24 20  1  0
  2 25  1  0
  2 26  1  0
  3 27  1  0
  3 28  1  0
  5 29  1  0
  5 30  1  0
  6 31  1  6
  7 32  1  0
  8 33  1  0
 11 34  1  0
 13 35  1  0
 13 36  1  0
 15 37  1  0
 16 38  1  0
 16 39  1  0
 17 40  1  0
 17 41  1  0
 18 42  1  0
 18 43  1  0
 21 44  1  0
 23 45  1  0
M  ISO  8  25  13  26  13  27  13  28  13  29  13  30  13  31  13  32  14
M  ISO  8  33  14  34  14  35   8  36   8  37   5  38  13  39  13  40  13
M  ISO  5  41  13  42  13  43  13  44  14  45  14
M  END
>  <minimizedAffinity>  (1) 
-5.39861536

>  <minimizedRMSD>  (1) 
0.64860332

$$$$
