
     RDKit          3D

 48 50  0  0  1  0  0  0  0  0999 V2000
   43.4740   33.9070   41.4240 N   0  0  0  0  0  0  0  0  0  0  0  0
   42.1450   33.3700   41.3810 C   0  0  0  0  0  0  0  0  0  0  0  0
   41.3920   33.6290   40.1390 C   0  0  0  0  0  0  0  0  0  0  0  0
   42.1010   33.9830   39.0340 O   0  0  0  0  0  0  0  0  0  0  0  0
   43.4060   33.6290   39.0360 C   0  0  0  0  0  0  0  0  0  0  0  0
   44.2020   34.1980   40.2010 C   0  0  2  0  0  0  0  0  0  0  0  0
   45.4490   33.4560   44.5770 C   0  0  0  0  0  0  0  0  0  0  0  0
   44.8170   33.1850   43.3660 C   0  0  0  0  0  0  0  0  0  0  0  0
   44.1250   34.1710   42.6580 C   0  0  0  0  0  0  0  0  0  0  0  0
   44.0900   35.4340   43.2050 N   0  0  0  0  0  0  0  0  0  0  0  0
   44.7140   35.6840   44.3910 C   0  0  0  0  0  0  0  0  0  0  0  0
   45.3800   34.7020   45.0580 N   0  0  0  0  0  0  0  0  0  0  0  0
   45.5850   33.6710   40.1660 C   0  0  0  0  0  0  0  0  0  0  0  0
   46.5370   34.4270   40.4450 O   0  0  0  0  0  0  0  0  0  0  0  0
   48.6300   35.3240   40.3610 N   0  0  0  0  0  0  0  0  0  0  0  0
   49.2540   35.4280   41.6510 C   0  0  0  0  0  0  0  0  0  0  0  0
   48.3870   34.5480   42.5540 C   0  0  0  0  0  0  0  0  0  0  0  0
   48.2350   33.3730   41.5930 C   0  0  0  0  0  0  0  0  0  0  0  0
   47.8550   34.0810   40.3300 C   0  0  1  0  0  0  0  0  0  0  0  0
   48.1280   33.3720   39.0610 C   0  0  0  0  0  0  0  0  0  0  0  0
   48.4920   34.4360   38.0320 C   0  0  0  0  0  0  0  0  0  0  0  0
   49.2810   32.4230   39.1050 C   0  0  0  0  0  0  0  0  0  0  0  0
   42.2161   32.2802   41.5125 H   0  0  0  0  0  0  0  0  0  0  0  0
   41.5888   33.8796   42.1816 H   0  0  0  0  0  0  0  0  0  0  0  0
   40.8368   32.7116   39.8936 H   0  0  0  0  0  0  0  0  0  0  0  0
   40.7728   34.5092   40.3668 H   0  0  0  0  0  0  0  0  0  0  0  0
   43.4662   32.5315   39.0797 H   0  0  0  0  0  0  0  0  0  0  0  0
   43.8483   34.0424   38.1176 H   0  0  0  0  0  0  0  0  0  0  0  0
   44.3079   35.2912   40.1393 H   0  0  0  0  0  0  0  0  0  0  0  0
   45.9893   32.6680   45.1221 H   0  0  0  0  0  0  0  0  0  0  0  0
   44.8639   32.1657   42.9551 H   0  0  0  0  0  0  0  0  0  0  0  0
   44.6786   36.6977   44.8167 H   0  0  0  0  0  0  0  0  0  0  0  0
   45.6253   32.8306   40.8746 H   0  0  0  0  0  0  0  0  0  0  0  0
   45.7450   33.4349   39.1036 H   0  0  0  0  0  0  0  0  0  0  0  0
   48.0054   36.1289   40.2092 H   0  0  0  0  0  0  0  0  0  0  0  0
   50.2878   35.0538   41.6165 H   0  0  0  0  0  0  0  0  0  0  0  0
   49.3182   36.4666   42.0076 H   0  0  0  0  0  0  0  0  0  0  0  0
   48.9021   34.2654   43.4839 H   0  0  0  0  0  0  0  0  0  0  0  0
   47.4554   34.9983   42.9272 H   0  0  0  0  0  0  0  0  0  0  0  0
   49.1795   32.8211   41.4777 H   0  0  0  0  0  0  0  0  0  0  0  0
   47.5116   32.6116   41.9201 H   0  0  0  0  0  0  0  0  0  0  0  0
   47.2289   32.7819   38.8298 H   0  0  0  0  0  0  0  0  0  0  0  0
   48.8062   35.3544   38.5496 H   0  0  0  0  0  0  0  0  0  0  0  0
   49.3160   34.0700   37.4019 H   0  0  0  0  0  0  0  0  0  0  0  0
   47.6165   34.6515   37.4019 H   0  0  0  0  0  0  0  0  0  0  0  0
   49.5404   32.2095   40.1524 H   0  0  0  0  0  0  0  0  0  0  0  0
   49.0050   31.4869   38.5975 H   0  0  0  0  0  0  0  0  0  0  0  0
   50.1465   32.8738   38.5975 H   0  0  0  0  0  0  0  0  0  0  0  0
  1  9  1  0
  2  1  1  0
  3  2  1  0
  4  5  1  0
  4  3  1  0
  5  6  1  0
  6  1  1  0
  7 12  2  0
  8  7  1  0
  9 10  1  0
  9  8  2  0
 10 11  2  0
 11 12  1  0
 13  6  1  0
 13 14  1  0
 15 16  1  0
 16 17  1  0
 18 17  1  0
 19 20  1  0
 19 15  1  0
 19 14  1  1
 19 18  1  0
 20 22  1  0
 21 20  1  0
  2 23  1  0
  2 24  1  0
  3 25  1  0
  3 26  1  0
  5 27  1  0
  5 28  1  0
  6 29  1  6
  7 30  1  0
  8 31  1  0
 11 32  1  0
 13 33  1  0
 13 34  1  0
 15 35  1  0
 16 36  1  0
 16 37  1  0
 17 38  1  0
 17 39  1  0
 18 40  1  0
 18 41  1  0
 20 42  1  0
 21 43  1  0
 21 44  1  0
 21 45  1  0
 22 46  1  0
 22 47  1  0
 22 48  1  0
M  ISO  8  23  13  24  13  25  13  26  13  27  13  28  13  29  13  30  14
M  ISO  8  31  14  32  14  33   8  34   8  35   5  36  13  37  13  38  13
M  ISO  8  39  13  40  13  41  13  42   8  43   8  44   8  45   8  46   8
M  ISO  2  47   8  48   8
M  END
>  <minimizedAffinity>  (1) 
-4.91141033

>  <minimizedRMSD>  (1) 
0.80654341

$$$$
