
     RDKit          3D

 42 44  0  0  1  0  0  0  0  0999 V2000
   43.6590   33.8520   41.3310 N   0  0  0  0  0  0  0  0  0  0  0  0
   42.2980   33.3720   41.2460 C   0  0  0  0  0  0  0  0  0  0  0  0
   41.6520   33.5820   39.9330 C   0  0  0  0  0  0  0  0  0  0  0  0
   42.4420   33.8340   38.8680 O   0  0  0  0  0  0  0  0  0  0  0  0
   43.7230   33.4290   38.9800 C   0  0  0  0  0  0  0  0  0  0  0  0
   44.4770   34.0440   40.1660 C   0  0  2  0  0  0  0  0  0  0  0  0
   45.3980   33.5270   44.6410 C   0  0  0  0  0  0  0  0  0  0  0  0
   44.8520   33.1980   43.4050 C   0  0  0  0  0  0  0  0  0  0  0  0
   44.2360   34.1500   42.6080 C   0  0  0  0  0  0  0  0  0  0  0  0
   44.1850   35.4400   43.0860 N   0  0  0  0  0  0  0  0  0  0  0  0
   44.7260   35.7330   44.2950 C   0  0  0  0  0  0  0  0  0  0  0  0
   45.3180   34.7890   45.0480 N   0  0  0  0  0  0  0  0  0  0  0  0
   45.8210   33.4490   40.2530 C   0  0  0  0  0  0  0  0  0  0  0  0
   46.8340   34.0740   39.9200 O   0  0  0  0  0  0  0  0  0  0  0  0
   48.8300   35.1600   40.1170 N   0  0  0  0  0  0  0  0  0  0  0  0
   48.9950   35.8290   41.3760 C   0  0  0  0  0  0  0  0  0  0  0  0
   47.8560   35.3070   42.2420 C   0  0  0  0  0  0  0  0  0  0  0  0
   48.0100   33.8250   41.8900 C   0  0  0  0  0  0  0  0  0  0  0  0
   48.0900   33.9150   40.4070 C   0  0  1  0  0  0  0  0  0  0  0  0
   48.8680   32.7350   39.8680 C   0  0  0  0  0  0  0  0  0  0  0  0
   49.0960   32.9450   38.5270 F   0  0  0  0  0  0  0  0  0  0  0  0
   48.1200   31.5990   40.0130 F   0  0  0  0  0  0  0  0  0  0  0  0
   50.0660   32.5820   40.5390 F   0  0  0  0  0  0  0  0  0  0  0  0
   42.3010   32.2926   41.4581 H   0  0  0  0  0  0  0  0  0  0  0  0
   41.7162   33.9537   41.9762 H   0  0  0  0  0  0  0  0  0  0  0  0
   41.0752   32.6738   39.7040 H   0  0  0  0  0  0  0  0  0  0  0  0
   41.0647   34.5032   40.0616 H   0  0  0  0  0  0  0  0  0  0  0  0
   43.7297   32.3353   39.0970 H   0  0  0  0  0  0  0  0  0  0  0  0
   44.2406   33.7641   38.0691 H   0  0  0  0  0  0  0  0  0  0  0  0
   44.6476   35.1249   40.0543 H   0  0  0  0  0  0  0  0  0  0  0  0
   45.8834   32.7623   45.2652 H   0  0  0  0  0  0  0  0  0  0  0  0
   44.9104   32.1579   43.0517 H   0  0  0  0  0  0  0  0  0  0  0  0
   44.6794   36.7667   44.6681 H   0  0  0  0  0  0  0  0  0  0  0  0
   45.9655   33.1657   41.3060 H   0  0  0  0  0  0  0  0  0  0  0  0
   45.7748   32.6578   39.4902 H   0  0  0  0  0  0  0  0  0  0  0  0
   49.7486   34.9419   39.7053 H   0  0  0  0  0  0  0  0  0  0  0  0
   49.9685   35.5796   41.8234 H   0  0  0  0  0  0  0  0  0  0  0  0
   48.9716   36.9238   41.2723 H   0  0  0  0  0  0  0  0  0  0  0  0
   48.0181   35.5034   43.3121 H   0  0  0  0  0  0  0  0  0  0  0  0
   46.8649   35.7516   42.0685 H   0  0  0  0  0  0  0  0  0  0  0  0
   48.9261   33.3964   42.3224 H   0  0  0  0  0  0  0  0  0  0  0  0
   47.2091   33.1741   42.2708 H   0  0  0  0  0  0  0  0  0  0  0  0
  1  9  1  0
  2  1  1  0
  3  2  1  0
  4  5  1  0
  4  3  1  0
  5  6  1  0
  6 13  1  0
  6  1  1  0
  7 12  2  0
  8  7  1  0
  9 10  1  0
  9  8  2  0
 10 11  2  0
 11 12  1  0
 14 13  1  0
 15 19  1  0
 15 16  1  0
 16 17  1  0
 18 17  1  0
 19 14  1  6
 19 18  1  0
 20 22  1  0
 20 19  1  0
 20 23  1  0
 21 20  1  0
  2 24  1  0
  2 25  1  0
  3 26  1  0
  3 27  1  0
  5 28  1  0
  5 29  1  0
  6 30  1  6
  7 31  1  0
  8 32  1  0
 11 33  1  0
 13 34  1  0
 13 35  1  0
 15 36  1  0
 16 37  1  0
 16 38  1  0
 17 39  1  0
 17 40  1  0
 18 41  1  0
 18 42  1  0
M  ISO  8  24  13  25  13  26  13  27  13  28  13  29  13  30  13  31  14
M  ISO  8  32  14  33  14  34   8  35   8  36   5  37  13  38  13  39  13
M  ISO  3  40  13  41  13  42  13
M  END
>  <minimizedAffinity>  (1) 
-5.03122187

>  <minimizedRMSD>  (1) 
0.66317445

$$$$
