
     RDKit          3D

 33 34  0  0  0  0  0  0  0  0999 V2000
   45.4000   34.3800   44.9460 C   0  0  0  0  0  0  0  0  0  0  0  0
   46.1950   34.1450   43.8070 C   0  0  0  0  0  0  0  0  0  0  0  0
   47.1320   33.1340   43.9040 C   0  0  0  0  0  0  0  0  0  0  0  0
   47.2700   32.4150   45.0350 N   0  0  0  0  0  0  0  0  0  0  0  0
   46.4740   32.6760   46.1240 C   0  0  0  0  0  0  0  0  0  0  0  0
   45.5510   33.6550   46.0640 N   0  0  0  0  0  0  0  0  0  0  0  0
   47.9930   32.7590   42.8650 N   0  0  0  0  0  0  0  0  0  0  0  0
   49.1820   33.4300   42.9390 C   0  0  0  0  0  0  0  0  0  0  0  0
   50.1770   33.2010   41.9820 C   0  0  0  0  0  0  0  0  0  0  0  0
   49.9580   32.2960   40.9620 C   0  0  0  0  0  0  0  0  0  0  0  0
   50.8900   31.9780   39.9330 N   0  0  0  0  0  0  0  0  0  0  0  0
   48.7750   31.6580   40.9280 N   0  0  0  0  0  0  0  0  0  0  0  0
   47.8130   31.8720   41.8430 C   0  0  0  0  0  0  0  0  0  0  0  0
   46.7020   31.3220   41.8710 O   0  0  0  0  0  0  0  0  0  0  0  0
   45.9870   34.9790   42.6070 C   0  0  0  0  0  0  0  0  0  0  0  0
   47.2890   35.4710   42.0570 C   0  0  0  0  0  0  0  0  0  0  0  0
   45.1780   36.2110   43.0500 C   0  0  0  0  0  0  0  0  0  0  0  0
   45.1340   34.2530   41.6160 C   0  0  0  0  0  0  0  0  0  0  0  0
   44.6398   35.1745   44.9177 H   0  0  0  0  0  0  0  0  0  0  0  0
   46.5905   32.0855   47.0447 H   0  0  0  0  0  0  0  0  0  0  0  0
   49.3566   34.1506   43.7516 H   0  0  0  0  0  0  0  0  0  0  0  0
   51.1331   33.7416   42.0421 H   0  0  0  0  0  0  0  0  0  0  0  0
   50.6425   31.2883   39.2092 H   0  0  0  0  0  0  0  0  0  0  0  0
   51.8115   32.4378   39.9127 H   0  0  0  0  0  0  0  0  0  0  0  0
   47.9645   35.7263   42.8868 H   0  0  0  0  0  0  0  0  0  0  0  0
   47.7472   34.6840   41.4400 H   0  0  0  0  0  0  0  0  0  0  0  0
   47.1123   36.3643   41.4400 H   0  0  0  0  0  0  0  0  0  0  0  0
   45.1491   36.2550   44.1487 H   0  0  0  0  0  0  0  0  0  0  0  0
   45.6541   37.1223   42.6589 H   0  0  0  0  0  0  0  0  0  0  0  0
   44.1526   36.1363   42.6589 H   0  0  0  0  0  0  0  0  0  0  0  0
   44.4016   33.6296   42.1498 H   0  0  0  0  0  0  0  0  0  0  0  0
   44.6044   34.9817   40.9847 H   0  0  0  0  0  0  0  0  0  0  0  0
   45.7687   33.6138   40.9847 H   0  0  0  0  0  0  0  0  0  0  0  0
  1  6  2  0
  2  3  2  0
  2  1  1  0
  3  4  1  0
  4  5  2  0
  6  5  1  0
  7  8  1  0
  7  3  1  0
  9  8  2  0
 10  9  1  0
 11 10  1  0
 12 10  2  0
 12 13  1  0
 13 14  2  0
 13  7  1  0
 15 17  1  0
 15  2  1  0
 16 15  1  0
 18 15  1  0
  1 19  1  0
  5 20  1  0
  8 21  1  0
  9 22  1  0
 11 23  1  0
 11 24  1  0
 16 25  1  0
 16 26  1  0
 16 27  1  0
 17 28  1  0
 17 29  1  0
 17 30  1  0
 18 31  1  0
 18 32  1  0
 18 33  1  0
M  ISO  8  19  14  20  14  21  14  22  14  25   8  26   8  27   8  28   8
M  ISO  5  29   8  30   8  31   8  32   8  33   8
M  END
>  <minimizedAffinity>  (1) 
-4.75337839

>  <minimizedRMSD>  (1) 
0.484577686

$$$$
