
     RDKit          3D

 35 36  0  0  0  0  0  0  0  0999 V2000
   45.3250   34.4240   44.8450 C   0  0  0  0  0  0  0  0  0  0  0  0
   46.2250   34.2380   43.7720 C   0  0  0  0  0  0  0  0  0  0  0  0
   47.2210   33.2960   43.9540 C   0  0  0  0  0  0  0  0  0  0  0  0
   47.2840   32.6080   45.1310 N   0  0  0  0  0  0  0  0  0  0  0  0
   46.3990   32.8210   46.1280 C   0  0  0  0  0  0  0  0  0  0  0  0
   45.4350   33.7200   45.9760 N   0  0  0  0  0  0  0  0  0  0  0  0
   49.9840   31.8960   41.0000 C   0  0  0  0  0  0  0  0  0  0  0  0
   48.7300   31.3500   41.1620 C   0  0  0  0  0  0  0  0  0  0  0  0
   47.9310   31.8860   42.1590 C   0  0  0  0  0  0  0  0  0  0  0  0
   48.2650   32.9390   43.0350 C   0  0  0  0  0  0  0  0  0  0  0  0
   49.5340   33.4050   42.7850 C   0  0  0  0  0  0  0  0  0  0  0  0
   50.3850   32.9290   41.8180 C   0  0  0  0  0  0  0  0  0  0  0  0
   51.1220   31.3450   39.7950 S   0  0  0  0  0  0  0  0  0  0  0  0
   52.5020   31.6050   40.3220 O   0  0  0  0  0  0  0  0  0  0  0  0
   50.9050   29.9350   39.3910 O   0  0  0  0  0  0  0  0  0  0  0  0
   46.0690   35.0460   42.5510 C   0  0  0  0  0  0  0  0  0  0  0  0
   47.3730   35.5750   42.0610 C   0  0  0  0  0  0  0  0  0  0  0  0
   45.1620   36.2380   42.9140 C   0  0  0  0  0  0  0  0  0  0  0  0
   45.2880   34.2720   41.5190 C   0  0  0  0  0  0  0  0  0  0  0  0
   44.5167   35.1637   44.7477 H   0  0  0  0  0  0  0  0  0  0  0  0
   46.4770   32.2501   47.0650 H   0  0  0  0  0  0  0  0  0  0  0  0
   48.3778   30.5237   40.5270 H   0  0  0  0  0  0  0  0  0  0  0  0
   46.9312   31.4436   42.2797 H   0  0  0  0  0  0  0  0  0  0  0  0
   49.8992   34.2304   43.4138 H   0  0  0  0  0  0  0  0  0  0  0  0
   51.3847   33.3717   41.6970 H   0  0  0  0  0  0  0  0  0  0  0  0
   50.9371   32.0444   38.6316 H   0  0  0  0  0  0  0  0  0  0  0  0
   48.0099   35.8334   42.9198 H   0  0  0  0  0  0  0  0  0  0  0  0
   47.8735   34.8088   41.4507 H   0  0  0  0  0  0  0  0  0  0  0  0
   47.1982   36.4733   41.4507 H   0  0  0  0  0  0  0  0  0  0  0  0
   45.0941   36.3272   44.0083 H   0  0  0  0  0  0  0  0  0  0  0  0
   45.5870   37.1626   42.4964 H   0  0  0  0  0  0  0  0  0  0  0  0
   44.1575   36.0749   42.4964 H   0  0  0  0  0  0  0  0  0  0  0  0
   44.5940   33.5842   42.0243 H   0  0  0  0  0  0  0  0  0  0  0  0
   44.7179   34.9715   40.8900 H   0  0  0  0  0  0  0  0  0  0  0  0
   45.9824   33.6957   40.8900 H   0  0  0  0  0  0  0  0  0  0  0  0
  1  6  2  0
  2  3  2  0
  2  1  1  0
  3  4  1  0
  4  5  2  0
  6  5  1  0
  7  8  2  0
  7 12  1  0
  8  9  1  0
  9 10  2  0
 10  3  1  0
 11 10  1  0
 12 11  2  0
 13 14  2  0
 13  7  1  0
 15 13  2  0
 16 18  1  0
 16  2  1  0
 17 16  1  0
 19 16  1  0
  1 20  1  0
  5 21  1  0
  8 22  1  0
  9 23  1  0
 11 24  1  0
 12 25  1  0
 13 26  1  0
 17 27  1  0
 17 28  1  0
 17 29  1  0
 18 30  1  0
 18 31  1  0
 18 32  1  0
 19 33  1  0
 19 34  1  0
 19 35  1  0
M  ISO  8  20  14  21  14  22  14  23  14  24  14  25  14  26  11  27   8
M  ISO  8  28   8  29   8  30   8  31   8  32   8  33   8  34   8  35   8
M  END
>  <minimizedAffinity>  (1) 
-4.62301159

>  <minimizedRMSD>  (1) 
0.958781481

$$$$
