
     RDKit          3D

 42 44  0  0  1  0  0  0  0  0999 V2000
   43.6340   33.5700   41.1440 N   0  0  0  0  0  0  0  0  0  0  0  0
   42.3540   32.9140   41.1220 C   0  0  0  0  0  0  0  0  0  0  0  0
   41.6580   32.9430   39.8130 C   0  0  0  0  0  0  0  0  0  0  0  0
   42.4180   33.1630   38.7060 O   0  0  0  0  0  0  0  0  0  0  0  0
   43.7360   32.9350   38.8420 C   0  0  0  0  0  0  0  0  0  0  0  0
   44.4130   33.7590   39.9310 C   0  0  2  0  0  0  0  0  0  0  0  0
   45.3300   33.7120   44.4900 C   0  0  0  0  0  0  0  0  0  0  0  0
   44.8020   33.2250   43.3010 C   0  0  0  0  0  0  0  0  0  0  0  0
   44.1820   34.0550   42.3650 C   0  0  0  0  0  0  0  0  0  0  0  0
   44.1150   35.3950   42.6690 N   0  0  0  0  0  0  0  0  0  0  0  0
   44.6410   35.8500   43.8420 C   0  0  0  0  0  0  0  0  0  0  0  0
   45.2330   35.0160   44.7250 N   0  0  0  0  0  0  0  0  0  0  0  0
   45.8310   33.3450   40.0510 C   0  0  0  0  0  0  0  0  0  0  0  0
   46.7280   34.2150   40.0330 O   0  0  0  0  0  0  0  0  0  0  0  0
   48.7560   35.2300   40.1300 N   0  0  0  0  0  0  0  0  0  0  0  0
   49.0680   35.7680   41.4250 C   0  0  0  0  0  0  0  0  0  0  0  0
   48.0330   35.1420   42.3510 C   0  0  0  0  0  0  0  0  0  0  0  0
   48.1320   33.7120   41.8080 C   0  0  0  0  0  0  0  0  0  0  0  0
   48.0410   33.9580   40.3390 C   0  0  1  0  0  0  0  0  0  0  0  0
   48.6680   32.8770   39.5210 C   0  0  0  0  0  0  0  0  0  0  0  0
   42.5048   31.8618   41.4052 H   0  0  0  0  0  0  0  0  0  0  0  0
   41.7126   33.4673   41.8238 H   0  0  0  0  0  0  0  0  0  0  0  0
   41.1585   31.9716   39.6830 H   0  0  0  0  0  0  0  0  0  0  0  0
   40.9854   33.8115   39.8704 H   0  0  0  0  0  0  0  0  0  0  0  0
   43.8774   31.8703   39.0794 H   0  0  0  0  0  0  0  0  0  0  0  0
   44.2034   33.2306   37.8911 H   0  0  0  0  0  0  0  0  0  0  0  0
   44.4393   34.8349   39.7036 H   0  0  0  0  0  0  0  0  0  0  0  0
   45.8131   33.0393   45.2140 H   0  0  0  0  0  0  0  0  0  0  0  0
   44.8749   32.1480   43.0895 H   0  0  0  0  0  0  0  0  0  0  0  0
   44.5818   36.9233   44.0753 H   0  0  0  0  0  0  0  0  0  0  0  0
   45.9275   32.8050   41.0045 H   0  0  0  0  0  0  0  0  0  0  0  0
   46.0112   32.7678   39.1321 H   0  0  0  0  0  0  0  0  0  0  0  0
   49.6234   35.0629   39.6004 H   0  0  0  0  0  0  0  0  0  0  0  0
   50.0861   35.4844   41.7300 H   0  0  0  0  0  0  0  0  0  0  0  0
   49.0375   36.8674   41.4422 H   0  0  0  0  0  0  0  0  0  0  0  0
   48.3211   35.2102   43.4104 H   0  0  0  0  0  0  0  0  0  0  0  0
   47.0327   35.5995   42.3500 H   0  0  0  0  0  0  0  0  0  0  0  0
   49.0884   33.2418   42.0803 H   0  0  0  0  0  0  0  0  0  0  0  0
   47.3686   33.0241   42.2006 H   0  0  0  0  0  0  0  0  0  0  0  0
   49.1069   32.1203   40.1879 H   0  0  0  0  0  0  0  0  0  0  0  0
   47.9025   32.4067   38.8863 H   0  0  0  0  0  0  0  0  0  0  0  0
   49.4564   33.3079   38.8863 H   0  0  0  0  0  0  0  0  0  0  0  0
  1  9  1  0
  2  1  1  0
  3  2  1  0
  4  5  1  0
  4  3  1  0
  5  6  1  0
  6 13  1  0
  6  1  1  0
  7 12  2  0
  8  7  1  0
  9 10  1  0
  9  8  2  0
 10 11  2  0
 11 12  1  0
 14 13  1  0
 19 14  1  6
 15 19  1  0
 15 16  1  0
 16 17  1  0
 18 17  1  0
 19 20  1  0
 19 18  1  0
  2 21  1  0
  2 22  1  0
  3 23  1  0
  3 24  1  0
  5 25  1  0
  5 26  1  0
  6 27  1  6
  7 28  1  0
  8 29  1  0
 11 30  1  0
 13 31  1  0
 13 32  1  0
 15 33  1  0
 16 34  1  0
 16 35  1  0
 17 36  1  0
 17 37  1  0
 18 38  1  0
 18 39  1  0
 20 40  1  0
 20 41  1  0
 20 42  1  0
M  ISO  8  21  13  22  13  23  13  24  13  25  13  26  13  27  13  28  14
M  ISO  8  29  14  30  14  31   8  32   8  33   5  34  13  35  13  36  13
M  ISO  6  37  13  38  13  39  13  40   8  41   8  42   8
M  END
>  <minimizedAffinity>  (1) 
-4.69514227

>  <minimizedRMSD>  (1) 
0.183122784

$$$$
