
     RDKit          3D

 41 43  0  0  1  0  0  0  0  0999 V2000
   43.6440   33.7870   41.3060 N   0  0  0  0  0  0  0  0  0  0  0  0
   42.3070   33.2540   41.2400 C   0  0  0  0  0  0  0  0  0  0  0  0
   41.6310   33.4470   39.9320 C   0  0  0  0  0  0  0  0  0  0  0  0
   42.4010   33.7030   38.8560 O   0  0  0  0  0  0  0  0  0  0  0  0
   43.7000   33.3670   38.9540 C   0  0  0  0  0  0  0  0  0  0  0  0
   44.4440   34.0110   40.1190 C   0  0  2  0  0  0  0  0  0  0  0  0
   45.4100   33.5180   44.6080 C   0  0  0  0  0  0  0  0  0  0  0  0
   44.8510   33.1920   43.3870 C   0  0  0  0  0  0  0  0  0  0  0  0
   44.2230   34.1150   42.5660 C   0  0  0  0  0  0  0  0  0  0  0  0
   44.1780   35.4080   43.0340 N   0  0  0  0  0  0  0  0  0  0  0  0
   44.7320   35.7180   44.2400 C   0  0  0  0  0  0  0  0  0  0  0  0
   45.3320   34.7840   45.0000 N   0  0  0  0  0  0  0  0  0  0  0  0
   45.8130   33.4880   40.1930 C   0  0  0  0  0  0  0  0  0  0  0  0
   46.7910   34.2290   39.9600 O   0  0  0  0  0  0  0  0  0  0  0  0
   48.8260   35.2310   40.1510 N   0  0  0  0  0  0  0  0  0  0  0  0
   49.0520   35.8320   41.4370 C   0  0  0  0  0  0  0  0  0  0  0  0
   47.9470   35.2540   42.3220 C   0  0  0  0  0  0  0  0  0  0  0  0
   48.0460   33.7920   41.8630 C   0  0  0  0  0  0  0  0  0  0  0  0
   48.0730   33.9880   40.3900 C   0  0  1  0  0  0  0  0  0  0  0  0
   48.7380   32.8480   39.7190 C   0  0  0  0  0  0  0  0  0  0  0  0
   49.6200   32.2600   40.3030 O   0  0  0  0  0  0  0  0  0  0  0  0
   42.3570   32.1744   41.4449 H   0  0  0  0  0  0  0  0  0  0  0  0
   41.7132   33.8059   41.9835 H   0  0  0  0  0  0  0  0  0  0  0  0
   41.0636   32.5293   39.7179 H   0  0  0  0  0  0  0  0  0  0  0  0
   41.0297   34.3586   40.0641 H   0  0  0  0  0  0  0  0  0  0  0  0
   43.7626   32.2750   39.0705 H   0  0  0  0  0  0  0  0  0  0  0  0
   44.1839   33.7357   38.0375 H   0  0  0  0  0  0  0  0  0  0  0  0
   44.5686   35.0970   39.9960 H   0  0  0  0  0  0  0  0  0  0  0  0
   45.9013   32.7569   45.2319 H   0  0  0  0  0  0  0  0  0  0  0  0
   44.9074   32.1466   43.0496 H   0  0  0  0  0  0  0  0  0  0  0  0
   44.6875   36.7563   44.6005 H   0  0  0  0  0  0  0  0  0  0  0  0
   45.9473   33.1018   41.2142 H   0  0  0  0  0  0  0  0  0  0  0  0
   45.8464   32.7683   39.3618 H   0  0  0  0  0  0  0  0  0  0  0  0
   49.7252   35.0191   39.6955 H   0  0  0  0  0  0  0  0  0  0  0  0
   50.0447   35.5603   41.8253 H   0  0  0  0  0  0  0  0  0  0  0  0
   49.0282   36.9310   41.3979 H   0  0  0  0  0  0  0  0  0  0  0  0
   48.1681   35.3700   43.3933 H   0  0  0  0  0  0  0  0  0  0  0  0
   46.9570   35.7236   42.2256 H   0  0  0  0  0  0  0  0  0  0  0  0
   48.9651   33.3104   42.2281 H   0  0  0  0  0  0  0  0  0  0  0  0
   47.2435   33.1350   42.2294 H   0  0  0  0  0  0  0  0  0  0  0  0
   48.4356   32.5407   38.7070 H   0  0  0  0  0  0  0  0  0  0  0  0
  1  9  1  0
  2  1  1  0
  3  2  1  0
  4  5  1  0
  4  3  1  0
  5  6  1  0
  6 13  1  0
  6  1  1  0
  7 12  2  0
  8  7  1  0
  9 10  1  0
  9  8  2  0
 10 11  2  0
 11 12  1  0
 14 13  1  0
 19 14  1  6
 15 19  1  0
 15 16  1  0
 16 17  1  0
 18 17  1  0
 19 20  1  0
 19 18  1  0
 20 21  2  0
  2 22  1  0
  2 23  1  0
  3 24  1  0
  3 25  1  0
  5 26  1  0
  5 27  1  0
  6 28  1  6
  7 29  1  0
  8 30  1  0
 11 31  1  0
 13 32  1  0
 13 33  1  0
 15 34  1  0
 16 35  1  0
 16 36  1  0
 17 37  1  0
 17 38  1  0
 18 39  1  0
 18 40  1  0
 20 41  1  0
M  ISO  8  22  13  23  13  24  13  25  13  26  13  27  13  28  13  29  14
M  ISO  8  30  14  31  14  32   8  33   8  34   5  35  13  36  13  37  13
M  ISO  4  38  13  39  13  40  13  41   6
M  END
>  <minimizedAffinity>  (1) 
-4.72785997

>  <minimizedRMSD>  (1) 
0.553268433

$$$$
