
     RDKit          3D

 35 36  0  0  0  0  0  0  0  0999 V2000
   45.0830   34.7230   45.1710 C   0  0  0  0  0  0  0  0  0  0  0  0
   45.8210   34.3050   44.0490 C   0  0  0  0  0  0  0  0  0  0  0  0
   46.6240   33.1900   44.2090 C   0  0  0  0  0  0  0  0  0  0  0  0
   46.6870   32.5440   45.3980 N   0  0  0  0  0  0  0  0  0  0  0  0
   45.9470   32.9950   46.4620 C   0  0  0  0  0  0  0  0  0  0  0  0
   45.1550   34.0760   46.3390 N   0  0  0  0  0  0  0  0  0  0  0  0
   47.4430   32.5930   43.2260 N   0  0  0  0  0  0  0  0  0  0  0  0
   48.7550   32.9020   42.9900 C   0  0  0  0  0  0  0  0  0  0  0  0
   49.5690   32.3280   42.0590 C   0  0  0  0  0  0  0  0  0  0  0  0
   50.9800   32.7850   41.9340 C   0  0  0  0  0  0  0  0  0  0  0  0
   49.0410   31.3420   41.2680 C   0  0  0  0  0  0  0  0  0  0  0  0
   49.7710   30.7990   40.4030 O   0  0  0  0  0  0  0  0  0  0  0  0
   47.7620   31.0020   41.4580 N   0  0  0  0  0  0  0  0  0  0  0  0
   47.0200   31.6130   42.3990 C   0  0  0  0  0  0  0  0  0  0  0  0
   45.8380   31.1890   42.4640 O   0  0  0  0  0  0  0  0  0  0  0  0
   45.7000   35.0610   42.7920 C   0  0  0  0  0  0  0  0  0  0  0  0
   47.0600   35.3430   42.1970 C   0  0  0  0  0  0  0  0  0  0  0  0
   45.0590   36.4170   43.1320 C   0  0  0  0  0  0  0  0  0  0  0  0
   44.7640   34.3810   41.8530 C   0  0  0  0  0  0  0  0  0  0  0  0
   44.4302   35.6042   45.0855 H   0  0  0  0  0  0  0  0  0  0  0  0
   46.0018   32.4673   47.4256 H   0  0  0  0  0  0  0  0  0  0  0  0
   49.1972   33.6927   43.6139 H   0  0  0  0  0  0  0  0  0  0  0  0
   51.4104   32.9244   42.9366 H   0  0  0  0  0  0  0  0  0  0  0  0
   51.5629   32.0297   41.3865 H   0  0  0  0  0  0  0  0  0  0  0  0
   51.0094   33.7386   41.3865 H   0  0  0  0  0  0  0  0  0  0  0  0
   47.3399   30.2636   40.8770 H   0  0  0  0  0  0  0  0  0  0  0  0
   47.7899   35.4943   43.0059 H   0  0  0  0  0  0  0  0  0  0  0  0
   47.3724   34.4905   41.5760 H   0  0  0  0  0  0  0  0  0  0  0  0
   47.0077   36.2494   41.5760 H   0  0  0  0  0  0  0  0  0  0  0  0
   45.0042   36.5330   44.2245 H   0  0  0  0  0  0  0  0  0  0  0  0
   45.6692   37.2278   42.7073 H   0  0  0  0  0  0  0  0  0  0  0  0
   44.0452   36.4601   42.7073 H   0  0  0  0  0  0  0  0  0  0  0  0
   44.0049   33.8295   42.4272 H   0  0  0  0  0  0  0  0  0  0  0  0
   44.2702   35.1324   41.2193 H   0  0  0  0  0  0  0  0  0  0  0  0
   45.3259   33.6791   41.2193 H   0  0  0  0  0  0  0  0  0  0  0  0
  1  6  2  0
  2  3  2  0
  2  1  1  0
  3  4  1  0
  4  5  2  0
  6  5  1  0
  7  3  1  0
  8  7  1  0
  9  8  2  0
 10  9  1  0
 11 13  1  0
 11  9  1  0
 12 11  2  0
 13 14  1  0
 14 15  2  0
 14  7  1  0
 16 18  1  0
 16  2  1  0
 17 16  1  0
 19 16  1  0
  1 20  1  0
  5 21  1  0
  8 22  1  0
 10 23  1  0
 10 24  1  0
 10 25  1  0
 13 26  1  0
 17 27  1  0
 17 28  1  0
 17 29  1  0
 18 30  1  0
 18 31  1  0
 18 32  1  0
 19 33  1  0
 19 34  1  0
 19 35  1  0
M  ISO  8  20  14  21  14  22  14  23   8  24   8  25   8  26   9  27   8
M  ISO  8  28   8  29   8  30   8  31   8  32   8  33   8  34   8  35   8
M  END
>  <minimizedAffinity>  (1) 
-4.56812859

>  <minimizedRMSD>  (1) 
0.814281285

$$$$
