
     RDKit          3D

 36 38  0  0  0  0  0  0  0  0999 V2000
   45.3970   34.5020   45.0320 C   0  0  0  0  0  0  0  0  0  0  0  0
   45.8740   34.1130   43.7340 C   0  0  0  0  0  0  0  0  0  0  0  0
   46.4660   32.8770   43.5870 C   0  0  0  0  0  0  0  0  0  0  0  0
   46.5470   32.1240   44.7230 N   0  0  0  0  0  0  0  0  0  0  0  0
   46.1020   32.4940   45.9190 C   0  0  0  0  0  0  0  0  0  0  0  0
   45.5280   33.6750   46.0780 N   0  0  0  0  0  0  0  0  0  0  0  0
   46.9250   32.3270   42.3250 C   0  0  0  0  0  0  0  0  0  0  0  0
   46.2670   31.8010   41.2990 N   0  0  0  0  0  0  0  0  0  0  0  0
   46.6130   31.3330   40.1510 C   0  0  0  0  0  0  0  0  0  0  0  0
   47.9180   31.3490   39.8560 N   0  0  0  0  0  0  0  0  0  0  0  0
   48.7620   31.8540   40.7850 C   0  0  0  0  0  0  0  0  0  0  0  0
   50.0830   31.8530   40.4010 C   0  0  0  0  0  0  0  0  0  0  0  0
   51.0040   32.3690   41.2760 C   0  0  0  0  0  0  0  0  0  0  0  0
   50.6070   32.8650   42.4900 C   0  0  0  0  0  0  0  0  0  0  0  0
   49.2620   32.8180   42.7790 C   0  0  0  0  0  0  0  0  0  0  0  0
   48.2560   32.3240   41.9800 C   0  0  0  0  0  0  0  0  0  0  0  0
   45.7220   35.0780   42.6260 C   0  0  0  0  0  0  0  0  0  0  0  0
   46.9780   35.4130   41.9460 C   0  0  0  0  0  0  0  0  0  0  0  0
   45.1910   36.4090   43.2390 C   0  0  0  0  0  0  0  0  0  0  0  0
   44.6050   34.6360   41.7300 C   0  0  0  0  0  0  0  0  0  0  0  0
   44.9214   35.4845   45.1680 H   0  0  0  0  0  0  0  0  0  0  0  0
   46.2112   31.8167   46.7788 H   0  0  0  0  0  0  0  0  0  0  0  0
   45.8690   30.9375   39.4439 H   0  0  0  0  0  0  0  0  0  0  0  0
   50.3903   31.4514   39.4241 H   0  0  0  0  0  0  0  0  0  0  0  0
   52.0691   32.3849   41.0014 H   0  0  0  0  0  0  0  0  0  0  0  0
   51.3324   33.2831   43.2035 H   0  0  0  0  0  0  0  0  0  0  0  0
   48.9575   33.2197   43.7567 H   0  0  0  0  0  0  0  0  0  0  0  0
   47.7564   35.6206   42.6950 H   0  0  0  0  0  0  0  0  0  0  0  0
   47.2911   34.5670   41.3166 H   0  0  0  0  0  0  0  0  0  0  0  0
   46.8282   36.3026   41.3166 H   0  0  0  0  0  0  0  0  0  0  0  0
   45.2172   36.3433   44.3367 H   0  0  0  0  0  0  0  0  0  0  0  0
   45.8247   37.2444   42.9065 H   0  0  0  0  0  0  0  0  0  0  0  0
   44.1563   36.5787   42.9065 H   0  0  0  0  0  0  0  0  0  0  0  0
   43.7551   34.2997   42.3421 H   0  0  0  0  0  0  0  0  0  0  0  0
   44.2895   35.4771   41.0951 H   0  0  0  0  0  0  0  0  0  0  0  0
   44.9504   33.8068   41.0951 H   0  0  0  0  0  0  0  0  0  0  0  0
  1  6  2  0
  2  1  1  0
  3  2  2  0
  3  4  1  0
  4  5  2  0
  5  6  1  0
  7  3  1  0
  8  7  2  0
  9  8  1  0
 10  9  2  0
 10 11  1  0
 11 16  2  0
 12 11  1  0
 12 13  2  0
 13 14  1  0
 14 15  2  0
 16  7  1  0
 16 15  1  0
 17 19  1  0
 17  2  1  0
 18 17  1  0
 20 17  1  0
  1 21  1  0
  5 22  1  0
  9 23  1  0
 12 24  1  0
 13 25  1  0
 14 26  1  0
 15 27  1  0
 18 28  1  0
 18 29  1  0
 18 30  1  0
 19 31  1  0
 19 32  1  0
 19 33  1  0
 20 34  1  0
 20 35  1  0
 20 36  1  0
M  ISO  8  21  14  22  14  23  14  24  14  25  14  26  14  27  14  28   8
M  ISO  8  29   8  30   8  31   8  32   8  33   8  34   8  35   8  36   8
M  END
>  <minimizedAffinity>  (1) 
-4.54982758

>  <minimizedRMSD>  (1) 
1.39509857

$$$$
