
     RDKit          3D

 32 33  0  0  0  0  0  0  0  0999 V2000
   45.4400   34.3820   44.9520 C   0  0  0  0  0  0  0  0  0  0  0  0
   46.1930   34.1050   43.7950 C   0  0  0  0  0  0  0  0  0  0  0  0
   47.0870   33.0510   43.8690 C   0  0  0  0  0  0  0  0  0  0  0  0
   47.2180   32.3350   45.0040 N   0  0  0  0  0  0  0  0  0  0  0  0
   46.4640   32.6390   46.1100 C   0  0  0  0  0  0  0  0  0  0  0  0
   45.5950   33.6480   46.0660 N   0  0  0  0  0  0  0  0  0  0  0  0
   47.9100   32.6270   42.8000 N   0  0  0  0  0  0  0  0  0  0  0  0
   49.1290   33.2460   42.8560 C   0  0  0  0  0  0  0  0  0  0  0  0
   50.1080   32.9930   41.8970 C   0  0  0  0  0  0  0  0  0  0  0  0
   49.8420   32.1010   40.8710 C   0  0  0  0  0  0  0  0  0  0  0  0
   50.6800   31.8310   39.9770 O   0  0  0  0  0  0  0  0  0  0  0  0
   48.6260   31.5230   40.8660 N   0  0  0  0  0  0  0  0  0  0  0  0
   47.6710   31.7550   41.7830 C   0  0  0  0  0  0  0  0  0  0  0  0
   46.5420   31.2610   41.8370 O   0  0  0  0  0  0  0  0  0  0  0  0
   45.9880   34.9440   42.5990 C   0  0  0  0  0  0  0  0  0  0  0  0
   47.3090   35.4240   42.0470 C   0  0  0  0  0  0  0  0  0  0  0  0
   45.2080   36.1940   43.0470 C   0  0  0  0  0  0  0  0  0  0  0  0
   45.1330   34.2400   41.6060 C   0  0  0  0  0  0  0  0  0  0  0  0
   44.7157   35.2099   44.9434 H   0  0  0  0  0  0  0  0  0  0  0  0
   46.5771   32.0499   47.0321 H   0  0  0  0  0  0  0  0  0  0  0  0
   49.3395   33.9544   43.6707 H   0  0  0  0  0  0  0  0  0  0  0  0
   51.0839   33.4974   41.9543 H   0  0  0  0  0  0  0  0  0  0  0  0
   48.4132   30.8583   40.1085 H   0  0  0  0  0  0  0  0  0  0  0  0
   47.9861   35.6700   42.8783 H   0  0  0  0  0  0  0  0  0  0  0  0
   47.7583   34.6317   41.4303 H   0  0  0  0  0  0  0  0  0  0  0  0
   47.1449   36.3200   41.4303 H   0  0  0  0  0  0  0  0  0  0  0  0
   45.1820   36.2357   44.1459 H   0  0  0  0  0  0  0  0  0  0  0  0
   45.7044   37.0951   42.6575 H   0  0  0  0  0  0  0  0  0  0  0  0
   44.1805   36.1441   42.6575 H   0  0  0  0  0  0  0  0  0  0  0  0
   44.3878   33.6264   42.1334 H   0  0  0  0  0  0  0  0  0  0  0  0
   44.6186   34.9799   40.9751 H   0  0  0  0  0  0  0  0  0  0  0  0
   45.7604   33.5931   40.9751 H   0  0  0  0  0  0  0  0  0  0  0  0
  1  6  2  0
  2  3  2  0
  2  1  1  0
  3  4  1  0
  4  5  2  0
  6  5  1  0
  7  8  1  0
  7  3  1  0
  9  8  2  0
 10  9  1  0
 11 10  2  0
 12 10  1  0
 12 13  1  0
 13 14  2  0
 13  7  1  0
 15 17  1  0
 15  2  1  0
 16 15  1  0
 18 15  1  0
  1 19  1  0
  5 20  1  0
  8 21  1  0
  9 22  1  0
 12 23  1  0
 16 24  1  0
 16 25  1  0
 16 26  1  0
 17 27  1  0
 17 28  1  0
 17 29  1  0
 18 30  1  0
 18 31  1  0
 18 32  1  0
M  ISO  8  19  14  20  14  21  14  22  14  23   9  24   8  25   8  26   8
M  ISO  6  27   8  28   8  29   8  30   8  31   8  32   8
M  END
>  <minimizedAffinity>  (1) 
-4.49585772

>  <minimizedRMSD>  (1) 
0.565961957

$$$$
