
     RDKit          3D

 32 33  0  0  0  0  0  0  0  0999 V2000
   45.3210   34.4260   44.8480 C   0  0  0  0  0  0  0  0  0  0  0  0
   46.2170   34.2240   43.7750 C   0  0  0  0  0  0  0  0  0  0  0  0
   47.2140   33.2850   43.9710 C   0  0  0  0  0  0  0  0  0  0  0  0
   47.2840   32.6180   45.1580 N   0  0  0  0  0  0  0  0  0  0  0  0
   46.4010   32.8500   46.1510 C   0  0  0  0  0  0  0  0  0  0  0  0
   45.4360   33.7440   45.9900 N   0  0  0  0  0  0  0  0  0  0  0  0
   48.2610   32.9020   43.0540 C   0  0  0  0  0  0  0  0  0  0  0  0
   47.9360   31.8100   42.2270 C   0  0  0  0  0  0  0  0  0  0  0  0
   48.7450   31.2510   41.2450 C   0  0  0  0  0  0  0  0  0  0  0  0
   49.9880   31.8120   41.0540 C   0  0  0  0  0  0  0  0  0  0  0  0
   50.3700   32.8840   41.8300 C   0  0  0  0  0  0  0  0  0  0  0  0
   49.5190   33.3820   42.7790 C   0  0  0  0  0  0  0  0  0  0  0  0
   46.0570   35.0110   42.5410 C   0  0  0  0  0  0  0  0  0  0  0  0
   47.3570   35.5560   42.0560 C   0  0  0  0  0  0  0  0  0  0  0  0
   45.1320   36.1940   42.8820 C   0  0  0  0  0  0  0  0  0  0  0  0
   45.3130   34.2040   41.5120 C   0  0  0  0  0  0  0  0  0  0  0  0
   44.5103   35.1617   44.7403 H   0  0  0  0  0  0  0  0  0  0  0  0
   46.4822   32.2954   47.0975 H   0  0  0  0  0  0  0  0  0  0  0  0
   46.9452   31.3549   42.3723 H   0  0  0  0  0  0  0  0  0  0  0  0
   48.4059   30.3943   40.6441 H   0  0  0  0  0  0  0  0  0  0  0  0
   50.6686   31.4084   40.2899 H   0  0  0  0  0  0  0  0  0  0  0  0
   51.3605   33.3405   41.6867 H   0  0  0  0  0  0  0  0  0  0  0  0
   49.8717   34.2389   43.3718 H   0  0  0  0  0  0  0  0  0  0  0  0
   47.9879   35.8205   42.9174 H   0  0  0  0  0  0  0  0  0  0  0  0
   47.8684   34.7965   41.4464 H   0  0  0  0  0  0  0  0  0  0  0  0
   47.1739   36.4531   41.4464 H   0  0  0  0  0  0  0  0  0  0  0  0
   45.0532   36.2948   43.9745 H   0  0  0  0  0  0  0  0  0  0  0  0
   45.5486   37.1194   42.4575 H   0  0  0  0  0  0  0  0  0  0  0  0
   44.1335   36.0129   42.4575 H   0  0  0  0  0  0  0  0  0  0  0  0
   44.6509   33.4858   42.0178 H   0  0  0  0  0  0  0  0  0  0  0  0
   44.7117   34.8769   40.8829 H   0  0  0  0  0  0  0  0  0  0  0  0
   46.0324   33.6593   40.8829 H   0  0  0  0  0  0  0  0  0  0  0  0
  1  6  2  0
  2  3  2  0
  2  1  1  0
  3  4  1  0
  4  5  2  0
  6  5  1  0
  7  3  1  0
  8  7  2  0
  9  8  1  0
 10  9  2  0
 10 11  1  0
 11 12  2  0
 12  7  1  0
 13 15  1  0
 13  2  1  0
 14 13  1  0
 16 13  1  0
  1 17  1  0
  5 18  1  0
  8 19  1  0
  9 20  1  0
 10 21  1  0
 11 22  1  0
 12 23  1  0
 14 24  1  0
 14 25  1  0
 14 26  1  0
 15 27  1  0
 15 28  1  0
 15 29  1  0
 16 30  1  0
 16 31  1  0
 16 32  1  0
M  ISO  8  17  14  18  14  19  14  20  14  21  14  22  14  23  14  24   8
M  ISO  8  25   8  26   8  27   8  28   8  29   8  30   8  31   8  32   8
M  END
>  <minimizedAffinity>  (1) 
-4.32552338

>  <minimizedRMSD>  (1) 
0.903189361

$$$$
