
     RDKit          3D

 31 32  0  0  0  0  0  0  0  0999 V2000
   45.4420   34.2770   44.9030 C   0  0  0  0  0  0  0  0  0  0  0  0
   46.2860   34.1030   43.7780 C   0  0  0  0  0  0  0  0  0  0  0  0
   47.2660   33.1300   43.8760 C   0  0  0  0  0  0  0  0  0  0  0  0
   47.3690   32.4080   45.0250 N   0  0  0  0  0  0  0  0  0  0  0  0
   46.5450   32.6050   46.0730 C   0  0  0  0  0  0  0  0  0  0  0  0
   45.5970   33.5320   46.0020 N   0  0  0  0  0  0  0  0  0  0  0  0
   48.2560   32.7760   42.8840 C   0  0  0  0  0  0  0  0  0  0  0  0
   49.5590   33.1450   42.6500 C   0  0  0  0  0  0  0  0  0  0  0  0
   50.3450   32.6540   41.6380 C   0  0  0  0  0  0  0  0  0  0  0  0
   49.8460   31.7200   40.7560 C   0  0  0  0  0  0  0  0  0  0  0  0
   48.5580   31.3590   40.9890 C   0  0  0  0  0  0  0  0  0  0  0  0
   47.8200   31.8470   41.9730 N   0  0  0  0  0  0  0  0  0  0  0  0
   46.0850   34.9620   42.5900 C   0  0  0  0  0  0  0  0  0  0  0  0
   47.3930   35.5160   42.1060 C   0  0  0  0  0  0  0  0  0  0  0  0
   45.1990   36.1420   43.0310 C   0  0  0  0  0  0  0  0  0  0  0  0
   45.2990   34.2300   41.5570 C   0  0  0  0  0  0  0  0  0  0  0  0
   44.6472   35.0368   44.8714 H   0  0  0  0  0  0  0  0  0  0  0  0
   46.6574   31.9996   46.9845 H   0  0  0  0  0  0  0  0  0  0  0  0
   50.0055   33.8901   43.3248 H   0  0  0  0  0  0  0  0  0  0  0  0
   51.3807   33.0084   41.5300 H   0  0  0  0  0  0  0  0  0  0  0  0
   50.4419   31.3016   39.9315 H   0  0  0  0  0  0  0  0  0  0  0  0
   48.1004   30.6160   40.3193 H   0  0  0  0  0  0  0  0  0  0  0  0
   48.0206   35.7818   42.9694 H   0  0  0  0  0  0  0  0  0  0  0  0
   47.9089   34.7591   41.4969 H   0  0  0  0  0  0  0  0  0  0  0  0
   47.2083   36.4132   41.4969 H   0  0  0  0  0  0  0  0  0  0  0  0
   45.1664   36.1855   44.1297 H   0  0  0  0  0  0  0  0  0  0  0  0
   45.6171   37.0810   42.6392 H   0  0  0  0  0  0  0  0  0  0  0  0
   44.1807   36.0024   42.6392 H   0  0  0  0  0  0  0  0  0  0  0  0
   44.5795   33.5599   42.0503 H   0  0  0  0  0  0  0  0  0  0  0  0
   44.7565   34.9521   40.9291 H   0  0  0  0  0  0  0  0  0  0  0  0
   45.9808   33.6376   40.9291 H   0  0  0  0  0  0  0  0  0  0  0  0
  1  6  2  0
  2  3  2  0
  2  1  1  0
  3  4  1  0
  4  5  2  0
  6  5  1  0
  7  3  1  0
  8  7  2  0
  9  8  1  0
 10 11  1  0
 10  9  2  0
 11 12  2  0
 12  7  1  0
 13 15  1  0
 13  2  1  0
 14 13  1  0
 16 13  1  0
  1 17  1  0
  5 18  1  0
  8 19  1  0
  9 20  1  0
 10 21  1  0
 11 22  1  0
 14 23  1  0
 14 24  1  0
 14 25  1  0
 15 26  1  0
 15 27  1  0
 15 28  1  0
 16 29  1  0
 16 30  1  0
 16 31  1  0
M  ISO  8  17  14  18  14  19  14  20  14  21  14  22  14  23   8  24   8
M  ISO  7  25   8  26   8  27   8  28   8  29   8  30   8  31   8
M  END
>  <minimizedAffinity>  (1) 
-4.20904875

>  <minimizedRMSD>  (1) 
0.568002939

$$$$
