
     RDKit          3D

 34 35  0  0  0  0  0  0  0  0999 V2000
   45.2390   34.5490   45.0600 C   0  0  0  0  0  0  0  0  0  0  0  0
   46.0540   34.2100   43.9650 C   0  0  0  0  0  0  0  0  0  0  0  0
   46.9530   33.1810   44.1530 C   0  0  0  0  0  0  0  0  0  0  0  0
   47.0190   32.5490   45.3520 N   0  0  0  0  0  0  0  0  0  0  0  0
   46.2150   32.9090   46.3810 C   0  0  0  0  0  0  0  0  0  0  0  0
   45.3420   33.8980   46.2220 N   0  0  0  0  0  0  0  0  0  0  0  0
   47.8640   32.6740   43.1900 N   0  0  0  0  0  0  0  0  0  0  0  0
   49.2080   32.9400   42.6710 C   0  0  0  0  0  0  0  0  0  0  0  0
   49.7490   31.6130   42.2310 C   0  0  0  0  0  0  0  0  0  0  0  0
   48.6270   30.6160   42.2530 C   0  0  0  0  0  0  0  0  0  0  0  0
   47.4190   31.5200   42.3780 C   0  0  0  0  0  0  0  0  0  0  0  0
   45.9150   34.9550   42.6920 C   0  0  0  0  0  0  0  0  0  0  0  0
   47.2370   35.4220   42.1830 C   0  0  0  0  0  0  0  0  0  0  0  0
   45.0600   36.1970   43.0090 C   0  0  0  0  0  0  0  0  0  0  0  0
   45.1140   34.1610   41.7090 C   0  0  0  0  0  0  0  0  0  0  0  0
   44.5057   35.3625   44.9580 H   0  0  0  0  0  0  0  0  0  0  0  0
   46.2846   32.3842   47.3452 H   0  0  0  0  0  0  0  0  0  0  0  0
   49.1587   33.6344   41.8193 H   0  0  0  0  0  0  0  0  0  0  0  0
   49.8503   33.4052   43.4332 H   0  0  0  0  0  0  0  0  0  0  0  0
   50.5466   31.2906   42.9165 H   0  0  0  0  0  0  0  0  0  0  0  0
   50.1665   31.6914   41.2164 H   0  0  0  0  0  0  0  0  0  0  0  0
   48.5941   30.0282   41.3238 H   0  0  0  0  0  0  0  0  0  0  0  0
   48.7099   29.8665   43.0539 H   0  0  0  0  0  0  0  0  0  0  0  0
   47.0868   31.8556   41.3845 H   0  0  0  0  0  0  0  0  0  0  0  0
   46.5693   30.9996   42.8440 H   0  0  0  0  0  0  0  0  0  0  0  0
   47.8957   35.6547   43.0327 H   0  0  0  0  0  0  0  0  0  0  0  0
   47.6943   34.6310   41.5705 H   0  0  0  0  0  0  0  0  0  0  0  0
   47.0960   36.3247   41.5705 H   0  0  0  0  0  0  0  0  0  0  0  0
   44.9775   36.3168   44.0993 H   0  0  0  0  0  0  0  0  0  0  0  0
   45.5358   37.0897   42.5770 H   0  0  0  0  0  0  0  0  0  0  0  0
   44.0562   36.0712   42.5770 H   0  0  0  0  0  0  0  0  0  0  0  0
   44.4338   33.4867   42.2499 H   0  0  0  0  0  0  0  0  0  0  0  0
   44.5274   34.8441   41.0772 H   0  0  0  0  0  0  0  0  0  0  0  0
   45.7920   33.5684   41.0772 H   0  0  0  0  0  0  0  0  0  0  0  0
  1  6  2  0
  2  3  2  0
  2  1  1  0
  3  4  1  0
  4  5  2  0
  6  5  1  0
  7  3  1  0
  8  7  1  0
  9 10  1  0
  9  8  1  0
 10 11  1  0
 11  7  1  0
 12 14  1  0
 12  2  1  0
 13 12  1  0
 15 12  1  0
  1 16  1  0
  5 17  1  0
  8 18  1  0
  8 19  1  0
  9 20  1  0
  9 21  1  0
 10 22  1  0
 10 23  1  0
 11 24  1  0
 11 25  1  0
 13 26  1  0
 13 27  1  0
 13 28  1  0
 14 29  1  0
 14 30  1  0
 14 31  1  0
 15 32  1  0
 15 33  1  0
 15 34  1  0
M  ISO  8  16  14  17  14  18  13  19  13  20  13  21  13  22  13  23  13
M  ISO  8  24  13  25  13  26   8  27   8  28   8  29   8  30   8  31   8
M  ISO  3  32   8  33   8  34   8
M  END
>  <minimizedAffinity>  (1) 
-3.98593545

>  <minimizedRMSD>  (1) 
0.126974687

$$$$
