
     RDKit          3D

 29 29  0  0  0  0  0  0  0  0999 V2000
   45.4610   34.1340   45.1280 C   0  0  0  0  0  0  0  0  0  0  0  0
   46.1440   34.0750   43.8790 C   0  0  0  0  0  0  0  0  0  0  0  0
   47.1870   33.1770   43.7600 C   0  0  0  0  0  0  0  0  0  0  0  0
   47.4980   32.4120   44.8390 N   0  0  0  0  0  0  0  0  0  0  0  0
   46.8400   32.4870   46.0070 C   0  0  0  0  0  0  0  0  0  0  0  0
   45.8340   33.3410   46.1420 N   0  0  0  0  0  0  0  0  0  0  0  0
   47.8680   33.0070   42.5380 N   0  0  0  0  0  0  0  0  0  0  0  0
   49.2650   33.2700   42.4960 C   0  0  0  0  0  0  0  0  0  0  0  0
   49.8730   34.2050   43.1370 N   0  0  0  0  0  0  0  0  0  0  0  0
   50.2340   32.5290   41.7140 N   0  0  0  0  0  0  0  0  0  0  0  0
   49.3320   34.8410   43.7440 H   0  0  0  0  0  0  0  0  0  0  0  0
   45.6890   35.0020   42.8030 C   0  0  0  0  0  0  0  0  0  0  0  0
   46.8640   35.5880   42.0860 C   0  0  0  0  0  0  0  0  0  0  0  0
   44.8960   36.1380   43.4680 C   0  0  0  0  0  0  0  0  0  0  0  0
   44.7310   34.2890   41.9100 C   0  0  0  0  0  0  0  0  0  0  0  0
   44.6231   34.8342   45.2608 H   0  0  0  0  0  0  0  0  0  0  0  0
   47.1340   31.8427   46.8487 H   0  0  0  0  0  0  0  0  0  0  0  0
   47.3649   32.6990   41.6937 H   0  0  0  0  0  0  0  0  0  0  0  0
   51.2296   32.7912   41.7450 H   0  0  0  0  0  0  0  0  0  0  0  0
   49.9272   31.7401   41.1271 H   0  0  0  0  0  0  0  0  0  0  0  0
   47.5968   35.9535   42.8205 H   0  0  0  0  0  0  0  0  0  0  0  0
   47.3304   34.8170   41.4552 H   0  0  0  0  0  0  0  0  0  0  0  0
   46.5287   36.4244   41.4552 H   0  0  0  0  0  0  0  0  0  0  0  0
   44.9637   36.0411   44.5616 H   0  0  0  0  0  0  0  0  0  0  0  0
   45.3148   37.1071   43.1592 H   0  0  0  0  0  0  0  0  0  0  0  0
   43.8419   36.0790   43.1592 H   0  0  0  0  0  0  0  0  0  0  0  0
   43.9972   33.7429   42.5210 H   0  0  0  0  0  0  0  0  0  0  0  0
   44.2083   35.0196   41.2751 H   0  0  0  0  0  0  0  0  0  0  0  0
   45.2808   33.5786   41.2751 H   0  0  0  0  0  0  0  0  0  0  0  0
  1  6  2  0
  2  1  1  0
  3  2  2  0
  3  4  1  0
  4  5  2  0
  5  6  1  0
  7  3  1  0
  8  7  1  0
  8  9  2  0
  9 11  1  0
 10  8  1  0
 12 14  1  0
 12  2  1  0
 13 12  1  0
 15 12  1  0
  1 16  1  0
  5 17  1  0
  7 18  1  0
 10 19  1  0
 10 20  1  0
 13 21  1  0
 13 22  1  0
 13 23  1  0
 14 24  1  0
 14 25  1  0
 14 26  1  0
 15 27  1  0
 15 28  1  0
 15 29  1  0
M  ISO  8  16  14  17  14  21   8  22   8  23   8  24   8  25   8  26   8
M  ISO  3  27   8  28   8  29   8
M  END
>  <minimizedAffinity>  (1) 
-3.95877647

>  <minimizedRMSD>  (1) 
0.627229095

$$$$
