
     RDKit          3D

 23 23  0  0  0  0  0  0  0  0999 V2000
   45.9830   34.9150   42.7260 C   0  0  0  0  0  0  0  0  0  0  0  0
   45.2470   34.5290   45.0690 C   0  0  0  0  0  0  0  0  0  0  0  0
   46.1030   34.1660   44.0020 C   0  0  0  0  0  0  0  0  0  0  0  0
   47.0040   33.1210   44.2320 C   0  0  0  0  0  0  0  0  0  0  0  0
   47.0220   32.5110   45.4420 N   0  0  0  0  0  0  0  0  0  0  0  0
   46.1700   32.9010   46.4440 C   0  0  0  0  0  0  0  0  0  0  0  0
   45.3040   33.8910   46.2530 N   0  0  0  0  0  0  0  0  0  0  0  0
   48.0790   32.6570   42.9120 S   0  0  0  0  0  0  0  0  0  0  0  0
   47.3570   35.2860   42.2230 C   0  0  0  0  0  0  0  0  0  0  0  0
   45.1990   36.1930   43.0250 C   0  0  0  0  0  0  0  0  0  0  0  0
   45.1910   34.1250   41.7400 C   0  0  0  0  0  0  0  0  0  0  0  0
   44.5235   35.3456   44.9286 H   0  0  0  0  0  0  0  0  0  0  0  0
   46.2040   32.3885   47.4167 H   0  0  0  0  0  0  0  0  0  0  0  0
   49.2444   32.1540   43.4275 H   0  0  0  0  0  0  0  0  0  0  0  0
   48.0244   35.4662   43.0786 H   0  0  0  0  0  0  0  0  0  0  0  0
   47.7581   34.4640   41.6119 H   0  0  0  0  0  0  0  0  0  0  0  0
   47.2898   36.1982   41.6119 H   0  0  0  0  0  0  0  0  0  0  0  0
   45.1170   36.3266   44.1138 H   0  0  0  0  0  0  0  0  0  0  0  0
   45.7235   37.0556   42.5882 H   0  0  0  0  0  0  0  0  0  0  0  0
   44.1924   36.1163   42.5882 H   0  0  0  0  0  0  0  0  0  0  0  0
   44.5107   33.4465   42.2756 H   0  0  0  0  0  0  0  0  0  0  0  0
   44.6047   34.8088   41.1085 H   0  0  0  0  0  0  0  0  0  0  0  0
   45.8733   33.5370   41.1085 H   0  0  0  0  0  0  0  0  0  0  0  0
  1 10  1  0
  1  3  1  0
  2  7  2  0
  3  4  2  0
  3  2  1  0
  4  5  1  0
  5  6  2  0
  7  6  1  0
  8  4  1  0
  9  1  1  0
 11  1  1  0
  2 12  1  0
  6 13  1  0
  8 14  1  0
  9 15  1  0
  9 16  1  0
  9 17  1  0
 10 18  1  0
 10 19  1  0
 10 20  1  0
 11 21  1  0
 11 22  1  0
 11 23  1  0
M  ISO  8  12  14  13  14  14  11  15   8  16   8  17   8  18   8  19   8
M  ISO  4  20   8  21   8  22   8  23   8
M  END
>  <minimizedAffinity>  (1) 
-3.6443913

>  <minimizedRMSD>  (1) 
0.0669813305

$$$$
