
     RDKit          3D

 24 24  0  0  0  0  0  0  0  0999 V2000
   45.9730   34.9140   42.7390 C   0  0  0  0  0  0  0  0  0  0  0  0
   45.2350   34.5230   45.0770 C   0  0  0  0  0  0  0  0  0  0  0  0
   46.0910   34.1750   44.0160 C   0  0  0  0  0  0  0  0  0  0  0  0
   46.9960   33.1460   44.2470 C   0  0  0  0  0  0  0  0  0  0  0  0
   47.0250   32.5300   45.4550 N   0  0  0  0  0  0  0  0  0  0  0  0
   46.1760   32.9050   46.4490 C   0  0  0  0  0  0  0  0  0  0  0  0
   45.2930   33.8910   46.2590 N   0  0  0  0  0  0  0  0  0  0  0  0
   47.8620   32.7740   43.2100 N   0  0  0  0  0  0  0  0  0  0  0  0
   47.3270   35.2660   42.1970 C   0  0  0  0  0  0  0  0  0  0  0  0
   45.2030   36.2050   43.0170 C   0  0  0  0  0  0  0  0  0  0  0  0
   45.1610   34.1090   41.7590 C   0  0  0  0  0  0  0  0  0  0  0  0
   44.5022   35.3309   44.9343 H   0  0  0  0  0  0  0  0  0  0  0  0
   46.2161   32.3911   47.4208 H   0  0  0  0  0  0  0  0  0  0  0  0
   48.5424   32.0144   43.3548 H   0  0  0  0  0  0  0  0  0  0  0  0
   47.8181   33.2602   42.3030 H   0  0  0  0  0  0  0  0  0  0  0  0
   48.0205   35.4463   43.0316 H   0  0  0  0  0  0  0  0  0  0  0  0
   47.7026   34.4356   41.5810 H   0  0  0  0  0  0  0  0  0  0  0  0
   47.2506   36.1741   41.5810 H   0  0  0  0  0  0  0  0  0  0  0  0
   45.1149   36.3527   44.1035 H   0  0  0  0  0  0  0  0  0  0  0  0
   45.7414   37.0557   42.5738 H   0  0  0  0  0  0  0  0  0  0  0  0
   44.1986   36.1356   42.5738 H   0  0  0  0  0  0  0  0  0  0  0  0
   44.4840   33.4378   42.3078 H   0  0  0  0  0  0  0  0  0  0  0  0
   44.5706   34.7884   41.1267 H   0  0  0  0  0  0  0  0  0  0  0  0
   45.8353   33.5127   41.1267 H   0  0  0  0  0  0  0  0  0  0  0  0
  1 10  1  0
  1  3  1  0
  2  7  2  0
  3  4  2  0
  3  2  1  0
  4  5  1  0
  5  6  2  0
  7  6  1  0
  8  4  1  0
  9  1  1  0
 11  1  1  0
  2 12  1  0
  6 13  1  0
  8 14  1  0
  8 15  1  0
  9 16  1  0
  9 17  1  0
  9 18  1  0
 10 19  1  0
 10 20  1  0
 10 21  1  0
 11 22  1  0
 11 23  1  0
 11 24  1  0
M  ISO  8  12  14  13  14  16   8  17   8  18   8  19   8  20   8  21   8
M  ISO  3  22   8  23   8  24   8
M  END
>  <minimizedAffinity>  (1) 
-3.6478126

>  <minimizedRMSD>  (1) 
0.053699784

$$$$
