
     RDKit          3D

 31 31  0  0  0  0  0  0  0  0999 V2000
   46.0450   34.8550   42.6940 C   0  0  0  0  0  0  0  0  0  0  0  0
   45.2390   34.5310   45.0390 C   0  0  0  0  0  0  0  0  0  0  0  0
   46.1200   34.1520   43.9880 C   0  0  0  0  0  0  0  0  0  0  0  0
   47.0190   33.1370   44.2350 C   0  0  0  0  0  0  0  0  0  0  0  0
   47.0000   32.5660   45.4810 N   0  0  0  0  0  0  0  0  0  0  0  0
   46.1520   32.9480   46.4590 C   0  0  0  0  0  0  0  0  0  0  0  0
   45.2810   33.9230   46.2350 N   0  0  0  0  0  0  0  0  0  0  0  0
   47.9640   32.5450   43.3450 C   0  0  0  0  0  0  0  0  0  0  0  0
   48.8500   33.6800   42.7770 C   0  0  0  0  0  0  0  0  0  0  0  0
   47.2220   32.0150   42.1000 C   0  0  0  0  0  0  0  0  0  0  0  0
   47.3590   35.4350   42.2930 C   0  0  0  0  0  0  0  0  0  0  0  0
   45.1090   36.0720   42.9220 C   0  0  0  0  0  0  0  0  0  0  0  0
   45.3170   34.0650   41.6850 C   0  0  0  0  0  0  0  0  0  0  0  0
   44.5101   35.3370   44.8683 H   0  0  0  0  0  0  0  0  0  0  0  0
   46.1831   32.4517   47.4402 H   0  0  0  0  0  0  0  0  0  0  0  0
   48.5198   31.7613   43.8805 H   0  0  0  0  0  0  0  0  0  0  0  0
   49.2941   34.2489   43.6072 H   0  0  0  0  0  0  0  0  0  0  0  0
   49.6508   33.2462   42.1601 H   0  0  0  0  0  0  0  0  0  0  0  0
   48.2348   34.3515   42.1601 H   0  0  0  0  0  0  0  0  0  0  0  0
   46.3649   31.4028   42.4170 H   0  0  0  0  0  0  0  0  0  0  0  0
   46.8641   32.8631   41.4978 H   0  0  0  0  0  0  0  0  0  0  0  0
   47.9082   31.4014   41.4978 H   0  0  0  0  0  0  0  0  0  0  0  0
   47.9372   35.6902   43.1933 H   0  0  0  0  0  0  0  0  0  0  0  0
   47.9172   34.6996   41.6950 H   0  0  0  0  0  0  0  0  0  0  0  0
   47.1918   36.3430   41.6950 H   0  0  0  0  0  0  0  0  0  0  0  0
   44.9808   36.2387   44.0017 H   0  0  0  0  0  0  0  0  0  0  0  0
   45.5534   36.9674   42.4629 H   0  0  0  0  0  0  0  0  0  0  0  0
   44.1295   35.8723   42.4629 H   0  0  0  0  0  0  0  0  0  0  0  0
   44.6547   33.3463   42.1899 H   0  0  0  0  0  0  0  0  0  0  0  0
   44.7160   34.7382   41.0560 H   0  0  0  0  0  0  0  0  0  0  0  0
   46.0369   33.5209   41.0560 H   0  0  0  0  0  0  0  0  0  0  0  0
  1 12  1  0
  1  3  1  0
  2  7  2  0
  3  4  2  0
  3  2  1  0
  4  5  1  0
  5  6  2  0
  7  6  1  0
  8  4  1  0
  9  8  1  0
 10  8  1  0
 11  1  1  0
 13  1  1  0
  2 14  1  0
  6 15  1  0
  8 16  1  0
  9 17  1  0
  9 18  1  0
  9 19  1  0
 10 20  1  0
 10 21  1  0
 10 22  1  0
 11 23  1  0
 11 24  1  0
 11 25  1  0
 12 26  1  0
 12 27  1  0
 12 28  1  0
 13 29  1  0
 13 30  1  0
 13 31  1  0
M  ISO  8  14  14  15  14  16   8  17   8  18   8  19   8  20   8  21   8
M  ISO  8  22   8  23   8  24   8  25   8  26   8  27   8  28   8  29   8
M  ISO  2  30   8  31   8
M  END
>  <minimizedAffinity>  (1) 
-3.82744527

>  <minimizedRMSD>  (1) 
0.405563742

$$$$
