
     RDKit          3D

 52 55  0  0  1  0  0  0  0  0999 V2000
   45.6120   34.1760   42.2320 C   0  0  0  0  0  0  0  0  0  0  0  0
   47.0210   34.2680   42.3220 C   0  0  0  0  0  0  0  0  0  0  0  0
   47.6350   33.9130   43.5340 C   0  0  0  0  0  0  0  0  0  0  0  0
   46.8760   33.5030   44.5610 N   0  0  0  0  0  0  0  0  0  0  0  0
   45.5280   33.4150   44.4710 C   0  0  0  0  0  0  0  0  0  0  0  0
   44.9330   33.7470   43.3290 N   0  0  0  0  0  0  0  0  0  0  0  0
   44.8290   34.5420   41.1050 C   0  0  0  0  0  0  0  0  0  0  0  0
   43.9370   33.3470   40.6550 C   0  0  0  0  0  0  0  0  0  0  0  0
   42.9880   34.0880   39.6860 C   0  0  0  0  0  0  0  0  0  0  0  0
   42.8810   35.4720   40.2680 C   0  0  0  0  0  0  0  0  0  0  0  0
   43.7410   35.4890   41.5120 C   0  0  0  0  0  0  0  0  0  0  0  0
   47.8090   34.7360   41.1810 C   0  0  1  0  0  0  0  0  0  0  0  0
   48.8290   35.7450   41.5470 C   0  0  0  0  0  0  0  0  0  0  0  0
   48.3410   33.5300   40.4530 C   0  0  0  0  0  0  0  0  0  0  0  0
   47.9270   33.5010   39.0680 N   0  0  0  0  0  0  0  0  0  0  0  0
   48.4470   34.4750   38.3200 N   0  0  0  0  0  0  0  0  0  0  0  0
   47.9970   34.3490   37.0620 C   0  0  0  0  0  0  0  0  0  0  0  0
   47.1650   33.2630   36.9990 C   0  0  0  0  0  0  0  0  0  0  0  0
   47.1410   32.7500   38.2750 C   0  0  0  0  0  0  0  0  0  0  0  0
   46.4840   31.6320   38.8480 N   0  0  0  0  0  0  0  0  0  0  0  0
   46.7850   30.8870   40.0310 C   0  0  0  0  0  0  0  0  0  0  0  0
   45.6780   30.0510   40.5440 C   0  0  0  0  0  0  0  0  0  0  0  0
   44.7300   29.6540   39.6270 O   0  0  0  0  0  0  0  0  0  0  0  0
   45.1480   29.7440   38.3120 C   0  0  0  0  0  0  0  0  0  0  0  0
   45.3320   31.2500   38.0590 C   0  0  0  0  0  0  0  0  0  0  0  0
   48.7283   33.9706   43.6401 H   0  0  0  0  0  0  0  0  0  0  0  0
   44.9330   33.0735   45.3309 H   0  0  0  0  0  0  0  0  0  0  0  0
   45.5458   34.9190   40.3606 H   0  0  0  0  0  0  0  0  0  0  0  0
   44.5215   32.5690   40.1421 H   0  0  0  0  0  0  0  0  0  0  0  0
   43.4404   32.8004   41.4702 H   0  0  0  0  0  0  0  0  0  0  0  0
   42.0027   33.6000   39.6542 H   0  0  0  0  0  0  0  0  0  0  0  0
   43.3590   34.0918   38.6505 H   0  0  0  0  0  0  0  0  0  0  0  0
   43.2458   36.2164   39.5449 H   0  0  0  0  0  0  0  0  0  0  0  0
   41.8364   35.7210   40.5062 H   0  0  0  0  0  0  0  0  0  0  0  0
   43.1909   35.1219   42.3910 H   0  0  0  0  0  0  0  0  0  0  0  0
   44.0913   36.4872   41.8135 H   0  0  0  0  0  0  0  0  0  0  0  0
   47.1657   35.2969   40.4871 H   0  0  0  0  0  0  0  0  0  0  0  0
   48.8993   35.8146   42.6425 H   0  0  0  0  0  0  0  0  0  0  0  0
   49.8043   35.4465   41.1352 H   0  0  0  0  0  0  0  0  0  0  0  0
   48.5411   36.7235   41.1352 H   0  0  0  0  0  0  0  0  0  0  0  0
   49.4401   33.5480   40.4938 H   0  0  0  0  0  0  0  0  0  0  0  0
   47.9365   32.6332   40.9450 H   0  0  0  0  0  0  0  0  0  0  0  0
   48.2540   35.0090   36.2204 H   0  0  0  0  0  0  0  0  0  0  0  0
   46.6301   32.8823   36.1164 H   0  0  0  0  0  0  0  0  0  0  0  0
   47.6368   30.2268   39.8106 H   0  0  0  0  0  0  0  0  0  0  0  0
   46.9975   31.6290   40.8148 H   0  0  0  0  0  0  0  0  0  0  0  0
   46.1199   29.1436   40.9816 H   0  0  0  0  0  0  0  0  0  0  0  0
   45.1399   30.6893   41.2603 H   0  0  0  0  0  0  0  0  0  0  0  0
   46.0984   29.2085   38.1702 H   0  0  0  0  0  0  0  0  0  0  0  0
   44.4266   29.2916   37.6157 H   0  0  0  0  0  0  0  0  0  0  0  0
   45.5154   31.4418   36.9915 H   0  0  0  0  0  0  0  0  0  0  0  0
   44.4361   31.8249   38.3363 H   0  0  0  0  0  0  0  0  0  0  0  0
  1  2  1  0
  1  6  2  0
  2  3  2  0
  3  4  1  0
  5  4  2  0
  6  5  1  0
  7 11  1  0
  7  1  1  0
  8  7  1  0
  9 10  1  0
  9  8  1  0
 10 11  1  0
 12 13  1  0
 12  2  1  0
 14 12  1  0
 15 14  1  0
 16 15  1  0
 17 16  2  0
 18 17  1  0
 18 19  2  0
 19 20  1  0
 19 15  1  0
 20 21  1  0
 21 22  1  0
 23 22  1  0
 24 23  1  0
 25 24  1  0
 25 20  1  0
  3 26  1  0
  5 27  1  0
  7 28  1  0
  8 29  1  0
  8 30  1  0
  9 31  1  0
  9 32  1  0
 10 33  1  0
 10 34  1  0
 11 35  1  0
 11 36  1  0
 12 37  1  6
 13 38  1  0
 13 39  1  0
 13 40  1  0
 14 41  1  0
 14 42  1  0
 17 43  1  0
 18 44  1  0
 21 45  1  0
 21 46  1  0
 22 47  1  0
 22 48  1  0
 24 49  1  0
 24 50  1  0
 25 51  1  0
 25 52  1  0
M  ISO  8  26  14  27  14  28  13  29  13  30  13  31  13  32  13  33  13
M  ISO  8  34  13  35  13  36  13  37   8  38   8  39   8  40   8  41   8
M  ISO  8  42   8  43  14  44  14  45  13  46  13  47  13  48  13  49  13
M  ISO  3  50  13  51  13  52  13
M  END
>  <minimizedAffinity>  (1) 
-5.01037884

>  <minimizedRMSD>  (1) 
1.33588958

$$$$
