
     RDKit          3D

 44 45  0  0  0  0  0  0  0  0999 V2000
   46.5440   34.8900   42.4210 C   0  0  0  0  0  0  0  0  0  0  0  0
   45.5940   34.4800   44.7100 C   0  0  0  0  0  0  0  0  0  0  0  0
   46.4760   34.1030   43.6550 C   0  0  0  0  0  0  0  0  0  0  0  0
   47.2210   32.9900   43.8450 C   0  0  0  0  0  0  0  0  0  0  0  0
   47.0520   32.3330   45.0410 N   0  0  0  0  0  0  0  0  0  0  0  0
   46.2240   32.6980   46.0140 C   0  0  0  0  0  0  0  0  0  0  0  0
   45.4930   33.7780   45.8430 N   0  0  0  0  0  0  0  0  0  0  0  0
   48.1610   32.4190   42.9480 C   0  0  0  0  0  0  0  0  0  0  0  0
   49.2280   33.4080   42.6190 C   0  0  0  0  0  0  0  0  0  0  0  0
   47.5230   32.0150   41.6620 C   0  0  0  0  0  0  0  0  0  0  0  0
   47.8040   35.5760   42.1700 C   0  0  0  0  0  0  0  0  0  0  0  0
   45.5440   36.0690   42.7450 C   0  0  0  0  0  0  0  0  0  0  0  0
   45.9420   34.3160   41.2800 C   0  0  0  0  0  0  0  0  0  0  0  0
   41.6220   34.0320   41.1590 C   0  0  0  0  0  0  0  0  0  0  0  0
   42.3650   32.9520   41.5750 C   0  0  0  0  0  0  0  0  0  0  0  0
   43.7340   33.0630   41.6070 C   0  0  0  0  0  0  0  0  0  0  0  0
   44.4490   34.1830   41.2540 C   0  0  0  0  0  0  0  0  0  0  0  0
   43.6530   35.2500   40.8390 C   0  0  0  0  0  0  0  0  0  0  0  0
   42.2770   35.1880   40.7890 C   0  0  0  0  0  0  0  0  0  0  0  0
   39.8850   33.8840   41.1200 S   0  0  0  0  0  0  0  0  0  0  0  0
   39.3600   33.8040   39.7360 O   0  0  0  0  0  0  0  0  0  0  0  0
   39.5390   32.6010   41.8250 O   0  0  0  0  0  0  0  0  0  0  0  0
   44.9746   35.3807   44.5871 H   0  0  0  0  0  0  0  0  0  0  0  0
   46.1516   32.1105   46.9411 H   0  0  0  0  0  0  0  0  0  0  0  0
   48.5785   31.5339   43.4503 H   0  0  0  0  0  0  0  0  0  0  0  0
   49.6581   33.8066   43.5497 H   0  0  0  0  0  0  0  0  0  0  0  0
   50.0170   32.9147   42.0323 H   0  0  0  0  0  0  0  0  0  0  0  0
   48.7959   34.2321   42.0323 H   0  0  0  0  0  0  0  0  0  0  0  0
   46.6106   31.4372   41.8710 H   0  0  0  0  0  0  0  0  0  0  0  0
   47.2634   32.9137   41.0832 H   0  0  0  0  0  0  0  0  0  0  0  0
   48.2244   31.3961   41.0832 H   0  0  0  0  0  0  0  0  0  0  0  0
   48.2782   35.8342   43.1284 H   0  0  0  0  0  0  0  0  0  0  0  0
   48.4722   34.9172   41.5960 H   0  0  0  0  0  0  0  0  0  0  0  0
   47.6133   36.4948   41.5960 H   0  0  0  0  0  0  0  0  0  0  0  0
   45.4495   36.1804   43.8352 H   0  0  0  0  0  0  0  0  0  0  0  0
   45.9280   37.0048   42.3127 H   0  0  0  0  0  0  0  0  0  0  0  0
   44.5581   35.8428   42.3127 H   0  0  0  0  0  0  0  0  0  0  0  0
   46.2289   34.9328   40.4155 H   0  0  0  0  0  0  0  0  0  0  0  0
   46.3067   33.2782   41.2743 H   0  0  0  0  0  0  0  0  0  0  0  0
   41.8720   32.0161   41.8767 H   0  0  0  0  0  0  0  0  0  0  0  0
   44.3045   32.1843   41.9423 H   0  0  0  0  0  0  0  0  0  0  0  0
   44.1466   36.1856   40.5372 H   0  0  0  0  0  0  0  0  0  0  0  0
   41.7000   36.0623   40.4533 H   0  0  0  0  0  0  0  0  0  0  0  0
   39.3319   34.9876   41.7142 H   0  0  0  0  0  0  0  0  0  0  0  0
  1 12  1  0
  1  3  1  0
  2  7  2  0
  3  4  2  0
  3  2  1  0
  4  5  1  0
  5  6  2  0
  7  6  1  0
  8  4  1  0
  9  8  1  0
 10  8  1  0
 11  1  1  0
 13  1  1  0
 14 15  2  0
 15 16  1  0
 17 13  1  0
 17 16  2  0
 18 17  1  0
 19 18  2  0
 19 14  1  0
 20 14  1  0
 20 22  2  0
 21 20  2  0
  2 23  1  0
  6 24  1  0
  8 25  1  0
  9 26  1  0
  9 27  1  0
  9 28  1  0
 10 29  1  0
 10 30  1  0
 10 31  1  0
 11 32  1  0
 11 33  1  0
 11 34  1  0
 12 35  1  0
 12 36  1  0
 12 37  1  0
 13 38  1  0
 13 39  1  0
 15 40  1  0
 16 41  1  0
 18 42  1  0
 19 43  1  0
 20 44  1  0
M  ISO  8  23  14  24  14  25   8  26   8  27   8  28   8  29   8  30   8
M  ISO  8  31   8  32   8  33   8  34   8  35   8  36   8  37   8  38   8
M  ISO  6  39   8  40  14  41  14  42  14  43  14  44  11
M  END
>  <minimizedAffinity>  (1) 
-5.13030005

>  <minimizedRMSD>  (1) 
1.21996546

$$$$
