
     RDKit          3D

 44 45  0  0  0  0  0  0  0  0999 V2000
   46.1350   34.5540   42.4000 C   0  0  0  0  0  0  0  0  0  0  0  0
   45.2700   34.4460   44.7630 C   0  0  0  0  0  0  0  0  0  0  0  0
   46.1620   34.0190   43.7590 C   0  0  0  0  0  0  0  0  0  0  0  0
   47.0830   33.0620   44.1160 C   0  0  0  0  0  0  0  0  0  0  0  0
   47.0260   32.6270   45.4230 N   0  0  0  0  0  0  0  0  0  0  0  0
   46.1710   33.0500   46.3460 C   0  0  0  0  0  0  0  0  0  0  0  0
   45.2930   33.9630   46.0070 N   0  0  0  0  0  0  0  0  0  0  0  0
   48.0800   32.4770   43.3040 C   0  0  0  0  0  0  0  0  0  0  0  0
   49.0140   33.5090   42.7720 C   0  0  0  0  0  0  0  0  0  0  0  0
   47.5210   31.8120   42.0930 C   0  0  0  0  0  0  0  0  0  0  0  0
   47.2520   35.3900   41.9980 C   0  0  0  0  0  0  0  0  0  0  0  0
   44.9570   35.6230   42.5570 C   0  0  0  0  0  0  0  0  0  0  0  0
   45.5940   33.6590   41.4210 C   0  0  0  0  0  0  0  0  0  0  0  0
   44.0810   33.5380   41.4380 N   0  0  0  0  0  0  0  0  0  0  0  0
   43.3380   34.4580   40.7530 C   0  0  0  0  0  0  0  0  0  0  0  0
   41.9750   34.4710   40.6360 C   0  0  0  0  0  0  0  0  0  0  0  0
   41.2760   35.5310   39.8600 C   0  0  0  0  0  0  0  0  0  0  0  0
   41.3240   33.4420   41.2850 C   0  0  0  0  0  0  0  0  0  0  0  0
   40.0720   33.3800   41.2280 O   0  0  0  0  0  0  0  0  0  0  0  0
   42.0500   32.5330   41.9610 N   0  0  0  0  0  0  0  0  0  0  0  0
   43.3910   32.5650   42.0460 C   0  0  0  0  0  0  0  0  0  0  0  0
   44.0890   31.7280   42.6770 O   0  0  0  0  0  0  0  0  0  0  0  0
   44.5215   35.2114   44.5102 H   0  0  0  0  0  0  0  0  0  0  0  0
   46.1983   32.6453   47.3685 H   0  0  0  0  0  0  0  0  0  0  0  0
   48.5804   31.7491   43.9595 H   0  0  0  0  0  0  0  0  0  0  0  0
   49.4923   34.0375   43.6098 H   0  0  0  0  0  0  0  0  0  0  0  0
   49.7855   33.0230   42.1567 H   0  0  0  0  0  0  0  0  0  0  0  0
   48.4537   34.2284   42.1567 H   0  0  0  0  0  0  0  0  0  0  0  0
   46.8412   31.0033   42.3996 H   0  0  0  0  0  0  0  0  0  0  0  0
   46.9671   32.5488   41.4928 H   0  0  0  0  0  0  0  0  0  0  0  0
   48.3421   31.3930   41.4928 H   0  0  0  0  0  0  0  0  0  0  0  0
   47.7640   35.7732   42.8930 H   0  0  0  0  0  0  0  0  0  0  0  0
   47.9573   34.7960   41.3982 H   0  0  0  0  0  0  0  0  0  0  0  0
   46.8810   36.2341   41.3982 H   0  0  0  0  0  0  0  0  0  0  0  0
   44.7622   35.7998   43.6251 H   0  0  0  0  0  0  0  0  0  0  0  0
   45.2526   36.5676   42.0770 H   0  0  0  0  0  0  0  0  0  0  0  0
   44.0455   35.2373   42.0770 H   0  0  0  0  0  0  0  0  0  0  0  0
   46.0194   32.6602   41.5980 H   0  0  0  0  0  0  0  0  0  0  0  0
   45.8608   34.0758   40.4386 H   0  0  0  0  0  0  0  0  0  0  0  0
   43.8884   35.2651   40.2474 H   0  0  0  0  0  0  0  0  0  0  0  0
   40.8060   36.2437   40.5537 H   0  0  0  0  0  0  0  0  0  0  0  0
   42.0024   36.0609   39.2263 H   0  0  0  0  0  0  0  0  0  0  0  0
   40.5028   35.0720   39.2263 H   0  0  0  0  0  0  0  0  0  0  0  0
   41.5504   31.7702   42.4400 H   0  0  0  0  0  0  0  0  0  0  0  0
  1 12  1  0
  1  3  1  0
  2  7  2  0
  3  4  2  0
  3  2  1  0
  4  5  1  0
  5  6  2  0
  7  6  1  0
  8  4  1  0
  9  8  1  0
 10  8  1  0
 11  1  1  0
 13 14  1  0
 13  1  1  0
 14 21  1  0
 15 14  1  0
 16 15  2  0
 16 18  1  0
 17 16  1  0
 18 20  1  0
 19 18  2  0
 20 21  1  0
 21 22  2  0
  2 23  1  0
  6 24  1  0
  8 25  1  0
  9 26  1  0
  9 27  1  0
  9 28  1  0
 10 29  1  0
 10 30  1  0
 10 31  1  0
 11 32  1  0
 11 33  1  0
 11 34  1  0
 12 35  1  0
 12 36  1  0
 12 37  1  0
 13 38  1  0
 13 39  1  0
 15 40  1  0
 17 41  1  0
 17 42  1  0
 17 43  1  0
 20 44  1  0
M  ISO  8  23  14  24  14  25   8  26   8  27   8  28   8  29   8  30   8
M  ISO  8  31   8  32   8  33   8  34   8  35   8  36   8  37   8  38   8
M  ISO  6  39   8  40  14  41   8  42   8  43   8  44   9
M  END
>  <minimizedAffinity>  (1) 
-5.30153131

>  <minimizedRMSD>  (1) 
0.935720444

$$$$
