
     RDKit          3D

 41 42  0  0  0  0  0  0  0  0999 V2000
   46.5650   34.8770   42.4010 C   0  0  0  0  0  0  0  0  0  0  0  0
   45.6010   34.4850   44.6890 C   0  0  0  0  0  0  0  0  0  0  0  0
   46.4910   34.0980   43.6470 C   0  0  0  0  0  0  0  0  0  0  0  0
   47.2410   32.9880   43.8440 C   0  0  0  0  0  0  0  0  0  0  0  0
   47.0610   32.3360   45.0510 N   0  0  0  0  0  0  0  0  0  0  0  0
   46.2270   32.7090   46.0100 C   0  0  0  0  0  0  0  0  0  0  0  0
   45.4990   33.7840   45.8250 N   0  0  0  0  0  0  0  0  0  0  0  0
   48.1970   32.4220   42.9660 C   0  0  0  0  0  0  0  0  0  0  0  0
   49.2640   33.4110   42.6320 C   0  0  0  0  0  0  0  0  0  0  0  0
   47.5830   32.0090   41.6690 C   0  0  0  0  0  0  0  0  0  0  0  0
   47.8320   35.6130   42.2060 C   0  0  0  0  0  0  0  0  0  0  0  0
   45.5400   36.0340   42.6840 C   0  0  0  0  0  0  0  0  0  0  0  0
   46.0270   34.2980   41.2540 C   0  0  0  0  0  0  0  0  0  0  0  0
   44.5310   34.2530   41.2530 C   0  0  0  0  0  0  0  0  0  0  0  0
   43.8600   33.0560   41.5420 C   0  0  0  0  0  0  0  0  0  0  0  0
   42.4850   32.9530   41.5180 C   0  0  0  0  0  0  0  0  0  0  0  0
   41.7100   34.0320   41.2050 C   0  0  0  0  0  0  0  0  0  0  0  0
   42.3200   35.2110   40.9180 C   0  0  0  0  0  0  0  0  0  0  0  0
   43.6710   35.2870   40.9480 C   0  0  0  0  0  0  0  0  0  0  0  0
   44.9808   35.3838   44.5570 H   0  0  0  0  0  0  0  0  0  0  0  0
   46.1467   32.1296   46.9416 H   0  0  0  0  0  0  0  0  0  0  0  0
   48.6101   31.5482   43.4912 H   0  0  0  0  0  0  0  0  0  0  0  0
   49.6963   33.8117   43.5608 H   0  0  0  0  0  0  0  0  0  0  0  0
   50.0516   32.9164   42.0446 H   0  0  0  0  0  0  0  0  0  0  0  0
   48.8305   34.2338   42.0446 H   0  0  0  0  0  0  0  0  0  0  0  0
   46.6848   31.4048   41.8645 H   0  0  0  0  0  0  0  0  0  0  0  0
   47.3047   32.9042   41.0936 H   0  0  0  0  0  0  0  0  0  0  0  0
   48.3072   31.4137   41.0936 H   0  0  0  0  0  0  0  0  0  0  0  0
   48.2646   35.8643   43.1857 H   0  0  0  0  0  0  0  0  0  0  0  0
   48.5383   34.9846   41.6436 H   0  0  0  0  0  0  0  0  0  0  0  0
   47.6360   36.5378   41.6436 H   0  0  0  0  0  0  0  0  0  0  0  0
   45.4247   36.1642   43.7702 H   0  0  0  0  0  0  0  0  0  0  0  0
   45.9112   36.9694   42.2400 H   0  0  0  0  0  0  0  0  0  0  0  0
   44.5666   35.7783   42.2400 H   0  0  0  0  0  0  0  0  0  0  0  0
   46.3583   34.8806   40.3818 H   0  0  0  0  0  0  0  0  0  0  0  0
   46.3819   33.2574   41.2201 H   0  0  0  0  0  0  0  0  0  0  0  0
   44.4529   32.1654   41.7975 H   0  0  0  0  0  0  0  0  0  0  0  0
   42.0075   31.9905   41.7537 H   0  0  0  0  0  0  0  0  0  0  0  0
   40.6134   33.9484   41.1856 H   0  0  0  0  0  0  0  0  0  0  0  0
   41.7206   36.0974   40.6631 H   0  0  0  0  0  0  0  0  0  0  0  0
   44.1234   36.2604   40.7076 H   0  0  0  0  0  0  0  0  0  0  0  0
  1 12  1  0
  1  3  1  0
  2  7  2  0
  3  4  2  0
  3  2  1  0
  4  5  1  0
  5  6  2  0
  7  6  1  0
  8  4  1  0
  9  8  1  0
 10  8  1  0
 11  1  1  0
 13  1  1  0
 14 13  1  0
 14 15  2  0
 16 15  1  0
 17 16  2  0
 18 19  2  0
 18 17  1  0
 19 14  1  0
  2 20  1  0
  6 21  1  0
  8 22  1  0
  9 23  1  0
  9 24  1  0
  9 25  1  0
 10 26  1  0
 10 27  1  0
 10 28  1  0
 11 29  1  0
 11 30  1  0
 11 31  1  0
 12 32  1  0
 12 33  1  0
 12 34  1  0
 13 35  1  0
 13 36  1  0
 15 37  1  0
 16 38  1  0
 17 39  1  0
 18 40  1  0
 19 41  1  0
M  ISO  8  20  14  21  14  22   8  23   8  24   8  25   8  26   8  27   8
M  ISO  8  28   8  29   8  30   8  31   8  32   8  33   8  34   8  35   8
M  ISO  6  36   8  37  14  38  14  39  14  40  14  41  14
M  END
>  <minimizedAffinity>  (1) 
-4.59571743

>  <minimizedRMSD>  (1) 
0.905451596

$$$$
