
     RDKit          3D

 41 42  0  0  0  0  0  0  0  0999 V2000
   46.2300   34.8740   42.5510 C   0  0  0  0  0  0  0  0  0  0  0  0
   45.3740   34.5310   44.8870 C   0  0  0  0  0  0  0  0  0  0  0  0
   46.2470   34.1680   43.8420 C   0  0  0  0  0  0  0  0  0  0  0  0
   47.0960   33.1230   44.0710 C   0  0  0  0  0  0  0  0  0  0  0  0
   47.0050   32.5310   45.3150 N   0  0  0  0  0  0  0  0  0  0  0  0
   46.1740   32.8910   46.2820 C   0  0  0  0  0  0  0  0  0  0  0  0
   45.3560   33.8940   46.0650 N   0  0  0  0  0  0  0  0  0  0  0  0
   48.0640   32.5800   43.1890 C   0  0  0  0  0  0  0  0  0  0  0  0
   49.0340   33.6390   42.7800 C   0  0  0  0  0  0  0  0  0  0  0  0
   47.4420   32.0410   41.9460 C   0  0  0  0  0  0  0  0  0  0  0  0
   47.4650   35.5810   42.1960 C   0  0  0  0  0  0  0  0  0  0  0  0
   45.2400   36.0570   42.8680 C   0  0  0  0  0  0  0  0  0  0  0  0
   45.6080   34.2190   41.4860 C   0  0  0  0  0  0  0  0  0  0  0  0
   44.1530   34.2610   41.4830 N   0  0  0  0  0  0  0  0  0  0  0  0
   43.5220   35.3430   40.9380 C   0  0  0  0  0  0  0  0  0  0  0  0
   42.1580   35.4270   40.8640 C   0  0  0  0  0  0  0  0  0  0  0  0
   41.3480   34.4160   41.3390 C   0  0  0  0  0  0  0  0  0  0  0  0
   40.0940   34.4690   41.2810 O   0  0  0  0  0  0  0  0  0  0  0  0
   41.9930   33.3630   41.8710 N   0  0  0  0  0  0  0  0  0  0  0  0
   43.3120   33.3140   41.9270 C   0  0  0  0  0  0  0  0  0  0  0  0
   43.8450   32.3000   42.4450 O   0  0  0  0  0  0  0  0  0  0  0  0
   44.6804   35.3701   44.7291 H   0  0  0  0  0  0  0  0  0  0  0  0
   46.1698   32.3607   47.2458 H   0  0  0  0  0  0  0  0  0  0  0  0
   48.5664   31.7650   43.7306 H   0  0  0  0  0  0  0  0  0  0  0  0
   49.4641   34.1085   43.6770 H   0  0  0  0  0  0  0  0  0  0  0  0
   49.8386   33.1877   42.1809 H   0  0  0  0  0  0  0  0  0  0  0  0
   48.5140   34.4010   42.1809 H   0  0  0  0  0  0  0  0  0  0  0  0
   46.6355   31.3421   42.2128 H   0  0  0  0  0  0  0  0  0  0  0  0
   47.0276   32.8703   41.3540 H   0  0  0  0  0  0  0  0  0  0  0  0
   48.2039   31.5128   41.3540 H   0  0  0  0  0  0  0  0  0  0  0  0
   47.9916   35.8825   43.1135 H   0  0  0  0  0  0  0  0  0  0  0  0
   48.1110   34.9159   41.6041 H   0  0  0  0  0  0  0  0  0  0  0  0
   47.2186   36.4749   41.6041 H   0  0  0  0  0  0  0  0  0  0  0  0
   45.1435   36.1723   43.9577 H   0  0  0  0  0  0  0  0  0  0  0  0
   45.6313   36.9889   42.4339 H   0  0  0  0  0  0  0  0  0  0  0  0
   44.2537   35.8361   42.4339 H   0  0  0  0  0  0  0  0  0  0  0  0
   45.9615   34.6808   40.5523 H   0  0  0  0  0  0  0  0  0  0  0  0
   45.8774   33.1574   41.5881 H   0  0  0  0  0  0  0  0  0  0  0  0
   44.1290   36.1726   40.5464 H   0  0  0  0  0  0  0  0  0  0  0  0
   41.6974   36.3199   40.4161 H   0  0  0  0  0  0  0  0  0  0  0  0
   41.4450   32.5748   42.2442 H   0  0  0  0  0  0  0  0  0  0  0  0
  1 12  1  0
  1  3  1  0
  2  7  2  0
  3  4  2  0
  3  2  1  0
  4  5  1  0
  5  6  2  0
  7  6  1  0
  8  4  1  0
  9  8  1  0
 10  8  1  0
 11  1  1  0
 13  1  1  0
 14 13  1  0
 14 20  1  0
 15 14  1  0
 16 15  2  0
 16 17  1  0
 17 19  1  0
 18 17  2  0
 19 20  1  0
 20 21  2  0
  2 22  1  0
  6 23  1  0
  8 24  1  0
  9 25  1  0
  9 26  1  0
  9 27  1  0
 10 28  1  0
 10 29  1  0
 10 30  1  0
 11 31  1  0
 11 32  1  0
 11 33  1  0
 12 34  1  0
 12 35  1  0
 12 36  1  0
 13 37  1  0
 13 38  1  0
 15 39  1  0
 16 40  1  0
 19 41  1  0
M  ISO  8  22  14  23  14  24   8  25   8  26   8  27   8  28   8  29   8
M  ISO  8  30   8  31   8  32   8  33   8  34   8  35   8  36   8  37   8
M  ISO  4  38   8  39  14  40  14  41   9
M  END
>  <minimizedAffinity>  (1) 
-5.27594852

>  <minimizedRMSD>  (1) 
0.884252846

$$$$
