
     RDKit          3D

 43 44  0  0  0  0  0  0  0  0999 V2000
   45.8140   34.7610   42.8530 C   0  0  0  0  0  0  0  0  0  0  0  0
   45.2190   34.4080   45.2870 C   0  0  0  0  0  0  0  0  0  0  0  0
   45.9880   34.0820   44.1520 C   0  0  0  0  0  0  0  0  0  0  0  0
   46.9290   33.0860   44.2980 C   0  0  0  0  0  0  0  0  0  0  0  0
   47.0150   32.5160   45.5500 N   0  0  0  0  0  0  0  0  0  0  0  0
   46.2760   32.8460   46.6020 C   0  0  0  0  0  0  0  0  0  0  0  0
   45.3780   33.7960   46.4600 N   0  0  0  0  0  0  0  0  0  0  0  0
   47.8170   32.5730   43.3200 C   0  0  0  0  0  0  0  0  0  0  0  0
   48.6770   33.6440   42.7520 C   0  0  0  0  0  0  0  0  0  0  0  0
   47.0770   32.0080   42.1470 C   0  0  0  0  0  0  0  0  0  0  0  0
   47.0050   35.3410   42.2680 C   0  0  0  0  0  0  0  0  0  0  0  0
   45.0110   36.0500   43.3450 C   0  0  0  0  0  0  0  0  0  0  0  0
   44.8830   34.0980   41.9780 C   0  0  0  0  0  0  0  0  0  0  0  0
   44.4290   34.6040   40.7430 N   0  0  0  0  0  0  0  0  0  0  0  0
   44.3840   33.4730   39.7700 C   0  0  0  0  0  0  0  0  0  0  0  0
   42.9380   32.9650   39.8720 C   0  0  0  0  0  0  0  0  0  0  0  0
   42.1700   34.0580   40.5890 C   0  0  0  0  0  0  0  0  0  0  0  0
   43.2020   35.1760   40.4910 C   0  0  0  0  0  0  0  0  0  0  0  0
   44.4583   35.1980   45.2014 H   0  0  0  0  0  0  0  0  0  0  0  0
   46.4113   32.3377   47.5681 H   0  0  0  0  0  0  0  0  0  0  0  0
   48.4083   31.8038   43.8383 H   0  0  0  0  0  0  0  0  0  0  0  0
   49.1373   34.2172   43.5703 H   0  0  0  0  0  0  0  0  0  0  0  0
   49.4654   33.1914   42.1327 H   0  0  0  0  0  0  0  0  0  0  0  0
   48.0648   34.3160   42.1327 H   0  0  0  0  0  0  0  0  0  0  0  0
   46.2502   31.3767   42.5046 H   0  0  0  0  0  0  0  0  0  0  0  0
   46.6736   32.8300   41.5374 H   0  0  0  0  0  0  0  0  0  0  0  0
   47.7637   31.4023   41.5374 H   0  0  0  0  0  0  0  0  0  0  0  0
   47.6832   35.6713   43.0686 H   0  0  0  0  0  0  0  0  0  0  0  0
   47.5115   34.5887   41.6455 H   0  0  0  0  0  0  0  0  0  0  0  0
   46.7250   36.2036   41.6455 H   0  0  0  0  0  0  0  0  0  0  0  0
   44.9956   36.0748   44.4446 H   0  0  0  0  0  0  0  0  0  0  0  0
   45.5044   36.9566   42.9647 H   0  0  0  0  0  0  0  0  0  0  0  0
   43.9797   36.0068   42.9647 H   0  0  0  0  0  0  0  0  0  0  0  0
   45.3419   33.1259   41.7450 H   0  0  0  0  0  0  0  0  0  0  0  0
   43.9619   34.1778   42.5739 H   0  0  0  0  0  0  0  0  0  0  0  0
   45.0978   32.6847   40.0511 H   0  0  0  0  0  0  0  0  0  0  0  0
   44.6590   33.7767   38.7491 H   0  0  0  0  0  0  0  0  0  0  0  0
   42.5189   32.7962   38.8691 H   0  0  0  0  0  0  0  0  0  0  0  0
   42.8806   32.0076   40.4106 H   0  0  0  0  0  0  0  0  0  0  0  0
   41.2343   34.3134   40.0701 H   0  0  0  0  0  0  0  0  0  0  0  0
   41.8342   33.8113   41.6070 H   0  0  0  0  0  0  0  0  0  0  0  0
   43.1889   35.6170   39.4833 H   0  0  0  0  0  0  0  0  0  0  0  0
   42.9846   35.9798   41.2098 H   0  0  0  0  0  0  0  0  0  0  0  0
  1 12  1  0
  1  3  1  0
  2  7  2  0
  3  4  2  0
  3  2  1  0
  4  5  1  0
  5  6  2  0
  7  6  1  0
  8  4  1  0
  9  8  1  0
 10  8  1  0
 11  1  1  0
 13  1  1  0
 14 13  1  0
 15 16  1  0
 15 14  1  0
 16 17  1  0
 18 17  1  0
 18 14  1  0
  2 19  1  0
  6 20  1  0
  8 21  1  0
  9 22  1  0
  9 23  1  0
  9 24  1  0
 10 25  1  0
 10 26  1  0
 10 27  1  0
 11 28  1  0
 11 29  1  0
 11 30  1  0
 12 31  1  0
 12 32  1  0
 12 33  1  0
 13 34  1  0
 13 35  1  0
 15 36  1  0
 15 37  1  0
 16 38  1  0
 16 39  1  0
 17 40  1  0
 17 41  1  0
 18 42  1  0
 18 43  1  0
M  ISO  8  19  14  20  14  21   8  22   8  23   8  24   8  25   8  26   8
M  ISO  8  27   8  28   8  29   8  30   8  31   8  32   8  33   8  34   8
M  ISO  8  35   8  36  13  37  13  38  13  39  13  40  13  41  13  42  13
M  ISO  1  43  13
M  END
>  <minimizedAffinity>  (1) 
-4.38389921

>  <minimizedRMSD>  (1) 
0.663586438

$$$$
