
     RDKit          3D

 38 39  0  0  0  0  0  0  0  0999 V2000
   45.2220   34.5920   45.0290 C   0  0  0  0  0  0  0  0  0  0  0  0
   46.1100   34.2140   43.9660 C   0  0  0  0  0  0  0  0  0  0  0  0
   46.9680   33.2010   44.2050 C   0  0  0  0  0  0  0  0  0  0  0  0
   46.8990   32.6350   45.4570 N   0  0  0  0  0  0  0  0  0  0  0  0
   46.0750   32.9920   46.4320 C   0  0  0  0  0  0  0  0  0  0  0  0
   45.2350   33.9740   46.2150 N   0  0  0  0  0  0  0  0  0  0  0  0
   47.9190   32.6540   43.3120 C   0  0  0  0  0  0  0  0  0  0  0  0
   48.8380   33.7170   42.8100 C   0  0  0  0  0  0  0  0  0  0  0  0
   47.2580   32.0580   42.1030 C   0  0  0  0  0  0  0  0  0  0  0  0
   46.0600   34.9220   42.6900 C   0  0  0  0  0  0  0  0  0  0  0  0
   47.2950   35.4780   42.1970 C   0  0  0  0  0  0  0  0  0  0  0  0
   45.1960   36.2000   43.0850 C   0  0  0  0  0  0  0  0  0  0  0  0
   45.2290   34.2980   41.6880 C   0  0  0  0  0  0  0  0  0  0  0  0
   43.9170   35.0570   41.4280 C   0  0  0  0  0  0  0  0  0  0  0  0
   42.6370   34.1700   41.3230 C   0  0  0  0  0  0  0  0  0  0  0  0
   43.1480   34.9320   40.1860 C   0  0  0  0  0  0  0  0  0  0  0  0
   44.5101   35.4140   44.8631 H   0  0  0  0  0  0  0  0  0  0  0  0
   46.0959   32.4749   47.4026 H   0  0  0  0  0  0  0  0  0  0  0  0
   48.4653   31.8818   43.8735 H   0  0  0  0  0  0  0  0  0  0  0  0
   49.2920   34.2421   43.6633 H   0  0  0  0  0  0  0  0  0  0  0  0
   49.6292   33.2588   42.1983 H   0  0  0  0  0  0  0  0  0  0  0  0
   48.2703   34.4336   42.1983 H   0  0  0  0  0  0  0  0  0  0  0  0
   46.4763   31.3532   42.4226 H   0  0  0  0  0  0  0  0  0  0  0  0
   46.8053   32.8591   41.5003 H   0  0  0  0  0  0  0  0  0  0  0  0
   48.0081   31.5250   41.5003 H   0  0  0  0  0  0  0  0  0  0  0  0
   47.9326   35.7651   43.0461 H   0  0  0  0  0  0  0  0  0  0  0  0
   47.8162   34.7277   41.5843 H   0  0  0  0  0  0  0  0  0  0  0  0
   47.0787   36.3656   41.5843 H   0  0  0  0  0  0  0  0  0  0  0  0
   45.1411   36.2811   44.1806 H   0  0  0  0  0  0  0  0  0  0  0  0
   45.6691   37.1039   42.6736 H   0  0  0  0  0  0  0  0  0  0  0  0
   44.1810   36.0978   42.6736 H   0  0  0  0  0  0  0  0  0  0  0  0
   45.7956   34.2472   40.7465 H   0  0  0  0  0  0  0  0  0  0  0  0
   44.9594   33.2998   42.0634 H   0  0  0  0  0  0  0  0  0  0  0  0
   44.2889   35.9251   41.9920 H   0  0  0  0  0  0  0  0  0  0  0  0
   42.7183   33.0731   41.3384 H   0  0  0  0  0  0  0  0  0  0  0  0
   41.6794   34.0986   41.8596 H   0  0  0  0  0  0  0  0  0  0  0  0
   43.5883   34.3944   39.3333 H   0  0  0  0  0  0  0  0  0  0  0  0
   42.6902   35.6684   39.5092 H   0  0  0  0  0  0  0  0  0  0  0  0
  1  6  2  0
  2  3  2  0
  2  1  1  0
  3  4  1  0
  4  5  2  0
  6  5  1  0
  7  3  1  0
  8  7  1  0
  9  7  1  0
 10 12  1  0
 10  2  1  0
 11 10  1  0
 13 10  1  0
 14 13  1  0
 15 14  1  0
 16 15  1  0
 16 14  1  0
  1 17  1  0
  5 18  1  0
  7 19  1  0
  8 20  1  0
  8 21  1  0
  8 22  1  0
  9 23  1  0
  9 24  1  0
  9 25  1  0
 11 26  1  0
 11 27  1  0
 11 28  1  0
 12 29  1  0
 12 30  1  0
 12 31  1  0
 13 32  1  0
 13 33  1  0
 14 34  1  0
 15 35  1  0
 15 36  1  0
 16 37  1  0
 16 38  1  0
M  ISO  8  17  14  18  14  19   8  20   8  21   8  22   8  23   8  24   8
M  ISO  8  25   8  26   8  27   8  28   8  29   8  30   8  31   8  32   8
M  ISO  6  33   8  34  13  35  13  36  13  37  13  38  13
M  END
>  <minimizedAffinity>  (1) 
-4.40356302

>  <minimizedRMSD>  (1) 
1.08994794

$$$$
