
     RDKit          3D

 44 45  0  0  0  0  0  0  0  0999 V2000
   45.3830   34.5790   43.4410 C   0  0  0  0  0  0  0  0  0  0  0  0
   45.4150   33.8930   45.8810 C   0  0  0  0  0  0  0  0  0  0  0  0
   45.9240   33.7790   44.5460 C   0  0  0  0  0  0  0  0  0  0  0  0
   46.9320   32.8830   44.3430 C   0  0  0  0  0  0  0  0  0  0  0  0
   47.3570   32.1780   45.4460 N   0  0  0  0  0  0  0  0  0  0  0  0
   46.8680   32.3020   46.6760 C   0  0  0  0  0  0  0  0  0  0  0  0
   45.8960   33.1630   46.8810 N   0  0  0  0  0  0  0  0  0  0  0  0
   47.5940   32.5920   43.1290 C   0  0  0  0  0  0  0  0  0  0  0  0
   48.1820   33.8330   42.5430 C   0  0  0  0  0  0  0  0  0  0  0  0
   46.6660   32.0470   42.0960 C   0  0  0  0  0  0  0  0  0  0  0  0
   46.3020   35.4280   42.7370 C   0  0  0  0  0  0  0  0  0  0  0  0
   44.4900   35.6280   44.2540 C   0  0  0  0  0  0  0  0  0  0  0  0
   44.3750   33.8850   42.6780 C   0  0  0  0  0  0  0  0  0  0  0  0
   43.7560   34.4840   41.5500 N   0  0  0  0  0  0  0  0  0  0  0  0
   43.0190   35.6440   41.5060 C   0  0  0  0  0  0  0  0  0  0  0  0
   41.6440   35.3620   40.9370 C   0  0  0  0  0  0  0  0  0  0  0  0
   41.6820   34.1990   40.1780 O   0  0  0  0  0  0  0  0  0  0  0  0
   42.8320   34.1750   39.4120 C   0  0  0  0  0  0  0  0  0  0  0  0
   44.0870   34.0130   40.2470 C   0  0  0  0  0  0  0  0  0  0  0  0
   44.6022   34.6060   46.0834 H   0  0  0  0  0  0  0  0  0  0  0  0
   47.2678   31.6977   47.5036 H   0  0  0  0  0  0  0  0  0  0  0  0
   48.3652   31.8485   43.3789 H   0  0  0  0  0  0  0  0  0  0  0  0
   48.5007   34.5056   43.3530 H   0  0  0  0  0  0  0  0  0  0  0  0
   49.0509   33.5693   41.9222 H   0  0  0  0  0  0  0  0  0  0  0  0
   47.4276   34.3384   41.9222 H   0  0  0  0  0  0  0  0  0  0  0  0
   45.8186   31.5494   42.5903 H   0  0  0  0  0  0  0  0  0  0  0  0
   46.2927   32.8693   41.4680 H   0  0  0  0  0  0  0  0  0  0  0  0
   47.2024   31.3204   41.4680 H   0  0  0  0  0  0  0  0  0  0  0  0
   46.9103   35.9899   43.4610 H   0  0  0  0  0  0  0  0  0  0  0  0
   46.9594   34.8126   42.1053 H   0  0  0  0  0  0  0  0  0  0  0  0
   45.7405   36.1320   42.1053 H   0  0  0  0  0  0  0  0  0  0  0  0
   44.6270   35.4671   45.3335 H   0  0  0  0  0  0  0  0  0  0  0  0
   44.7984   36.6513   43.9938 H   0  0  0  0  0  0  0  0  0  0  0  0
   43.4306   35.4869   43.9938 H   0  0  0  0  0  0  0  0  0  0  0  0
   44.8422   32.9561   42.3189 H   0  0  0  0  0  0  0  0  0  0  0  0
   43.5433   33.8138   43.3943 H   0  0  0  0  0  0  0  0  0  0  0  0
   42.9162   36.0493   42.5235 H   0  0  0  0  0  0  0  0  0  0  0  0
   43.5329   36.3745   40.8640 H   0  0  0  0  0  0  0  0  0  0  0  0
   40.9256   35.2380   41.7607 H   0  0  0  0  0  0  0  0  0  0  0  0
   41.3332   36.2033   40.3001 H   0  0  0  0  0  0  0  0  0  0  0  0
   42.7675   33.3336   38.7064 H   0  0  0  0  0  0  0  0  0  0  0  0
   42.9031   35.1398   38.8885 H   0  0  0  0  0  0  0  0  0  0  0  0
   44.3851   32.9549   40.2875 H   0  0  0  0  0  0  0  0  0  0  0  0
   44.9308   34.5737   39.8185 H   0  0  0  0  0  0  0  0  0  0  0  0
  1 12  1  0
  1  3  1  0
  2  7  2  0
  3  2  1  0
  4  3  2  0
  4  5  1  0
  5  6  2  0
  6  7  1  0
  8  4  1  0
  9  8  1  0
 10  8  1  0
 11  1  1  0
 13  1  1  0
 14 13  1  0
 15 14  1  0
 16 15  1  0
 17 16  1  0
 18 17  1  0
 18 19  1  0
 19 14  1  0
  2 20  1  0
  6 21  1  0
  8 22  1  0
  9 23  1  0
  9 24  1  0
  9 25  1  0
 10 26  1  0
 10 27  1  0
 10 28  1  0
 11 29  1  0
 11 30  1  0
 11 31  1  0
 12 32  1  0
 12 33  1  0
 12 34  1  0
 13 35  1  0
 13 36  1  0
 15 37  1  0
 15 38  1  0
 16 39  1  0
 16 40  1  0
 18 41  1  0
 18 42  1  0
 19 43  1  0
 19 44  1  0
M  ISO  8  20  14  21  14  22   8  23   8  24   8  25   8  26   8  27   8
M  ISO  8  28   8  29   8  30   8  31   8  32   8  33   8  34   8  35   8
M  ISO  8  36   8  37  13  38  13  39  13  40  13  41  13  42  13  43  13
M  ISO  1  44  13
M  END
>  <minimizedAffinity>  (1) 
-4.45406818

>  <minimizedRMSD>  (1) 
1.55384219

$$$$
