
     RDKit          3D

 33 35  0  0  0  0  0  0  0  0999 V2000
   44.6810   35.8580   44.1750 C   0  0  0  0  0  0  0  0  0  0  0  0
   45.5060   35.6990   43.0440 C   0  0  0  0  0  0  0  0  0  0  0  0
   46.4650   34.6660   43.0540 C   0  0  0  0  0  0  0  0  0  0  0  0
   46.5370   33.8840   44.1570 N   0  0  0  0  0  0  0  0  0  0  0  0
   45.7200   34.0700   45.2350 C   0  0  0  0  0  0  0  0  0  0  0  0
   44.7930   35.0630   45.2330 N   0  0  0  0  0  0  0  0  0  0  0  0
   45.9650   33.1290   46.2980 N   0  0  0  0  0  0  0  0  0  0  0  0
   46.8830   32.1420   46.2820 C   0  0  0  0  0  0  0  0  0  0  0  0
   47.0070   31.3100   47.3790 C   0  0  0  0  0  0  0  0  0  0  0  0
   46.2060   31.4700   48.4970 C   0  0  0  0  0  0  0  0  0  0  0  0
   46.2860   30.7380   49.5120 O   0  0  0  0  0  0  0  0  0  0  0  0
   45.2910   32.4580   48.5080 N   0  0  0  0  0  0  0  0  0  0  0  0
   45.1990   33.2470   47.4230 C   0  0  0  0  0  0  0  0  0  0  0  0
   44.3220   34.1760   47.4600 O   0  0  0  0  0  0  0  0  0  0  0  0
   47.3640   34.4280   41.9260 C   0  0  0  0  0  0  0  0  0  0  0  0
   46.7280   34.2970   40.5960 C   0  0  0  0  0  0  0  0  0  0  0  0
   47.9800   34.2130   39.7170 C   0  0  0  0  0  0  0  0  0  0  0  0
   48.8140   35.3320   40.2970 C   0  0  0  0  0  0  0  0  0  0  0  0
   48.3580   35.5590   41.7270 C   0  0  0  0  0  0  0  0  0  0  0  0
   43.9269   36.6588   44.1819 H   0  0  0  0  0  0  0  0  0  0  0  0
   45.4042   36.3648   42.1743 H   0  0  0  0  0  0  0  0  0  0  0  0
   47.5285   31.9997   45.4027 H   0  0  0  0  0  0  0  0  0  0  0  0
   47.7566   30.5051   47.3634 H   0  0  0  0  0  0  0  0  0  0  0  0
   44.6795   32.6050   49.3237 H   0  0  0  0  0  0  0  0  0  0  0  0
   47.8191   33.4729   42.2270 H   0  0  0  0  0  0  0  0  0  0  0  0
   46.1150   33.3865   40.5233 H   0  0  0  0  0  0  0  0  0  0  0  0
   46.0276   35.1034   40.3332 H   0  0  0  0  0  0  0  0  0  0  0  0
   47.7431   34.3927   38.6580 H   0  0  0  0  0  0  0  0  0  0  0  0
   48.4731   33.2297   39.7224 H   0  0  0  0  0  0  0  0  0  0  0  0
   49.8775   35.0514   40.2837 H   0  0  0  0  0  0  0  0  0  0  0  0
   48.6896   36.2502   39.7042 H   0  0  0  0  0  0  0  0  0  0  0  0
   49.1989   35.4804   42.4317 H   0  0  0  0  0  0  0  0  0  0  0  0
   47.9333   36.5583   41.9033 H   0  0  0  0  0  0  0  0  0  0  0  0
  1  6  2  0
  2  3  2  0
  2  1  1  0
  3  4  1  0
  4  5  2  0
  5  7  1  0
  6  5  1  0
  7 13  1  0
  8  7  1  0
  8  9  2  0
  9 10  1  0
 10 12  1  0
 10 11  2  0
 13 14  2  0
 13 12  1  0
 15  3  1  0
 16 15  1  0
 17 18  1  0
 17 16  1  0
 18 19  1  0
 19 15  1  0
  1 20  1  0
  2 21  1  0
  8 22  1  0
  9 23  1  0
 12 24  1  0
 15 25  1  0
 16 26  1  0
 16 27  1  0
 17 28  1  0
 17 29  1  0
 18 30  1  0
 18 31  1  0
 19 32  1  0
 19 33  1  0
M  ISO  8  20  14  21  14  22  14  23  14  24   9  25  13  26  13  27  13
M  ISO  6  28  13  29  13  30  13  31  13  32  13  33  13
M  END
>  <minimizedAffinity>  (1) 
-6.71078157

>  <minimizedRMSD>  (1) 
0.402119547

$$$$
