
     RDKit          3D

 46 48  0  0  1  0  0  0  0  0999 V2000
   47.8020   34.7410   41.1750 C   0  0  1  0  0  0  0  0  0  0  0  0
   45.6040   34.1870   42.2230 C   0  0  0  0  0  0  0  0  0  0  0  0
   46.9970   34.2760   42.3130 C   0  0  0  0  0  0  0  0  0  0  0  0
   47.6190   33.9250   43.5350 C   0  0  0  0  0  0  0  0  0  0  0  0
   46.8640   33.5220   44.5590 N   0  0  0  0  0  0  0  0  0  0  0  0
   45.5170   33.4370   44.4660 C   0  0  0  0  0  0  0  0  0  0  0  0
   44.9270   33.7650   43.3220 N   0  0  0  0  0  0  0  0  0  0  0  0
   44.8250   34.5460   41.0930 C   0  0  0  0  0  0  0  0  0  0  0  0
   43.9590   33.3280   40.6340 C   0  0  0  0  0  0  0  0  0  0  0  0
   43.0010   34.0710   39.6660 C   0  0  0  0  0  0  0  0  0  0  0  0
   42.8600   35.4360   40.2520 C   0  0  0  0  0  0  0  0  0  0  0  0
   43.7210   35.4720   41.4950 C   0  0  0  0  0  0  0  0  0  0  0  0
   48.8440   35.7180   41.5430 C   0  0  0  0  0  0  0  0  0  0  0  0
   48.3250   33.5500   40.4200 C   0  0  0  0  0  0  0  0  0  0  0  0
   47.8850   33.5170   39.0540 N   0  0  0  0  0  0  0  0  0  0  0  0
   48.4440   34.4610   38.2980 N   0  0  0  0  0  0  0  0  0  0  0  0
   47.9940   34.3520   37.0420 C   0  0  0  0  0  0  0  0  0  0  0  0
   47.1160   33.3030   36.9840 C   0  0  0  0  0  0  0  0  0  0  0  0
   47.0660   32.7960   38.2670 C   0  0  0  0  0  0  0  0  0  0  0  0
   46.2680   31.7490   38.7370 N   0  0  0  0  0  0  0  0  0  0  0  0
   45.6250   30.6580   38.1350 C   0  0  0  0  0  0  0  0  0  0  0  0
   46.5650   29.9500   37.5410 N   0  0  0  0  0  0  0  0  0  0  0  0
   44.2130   30.4630   38.2340 N   0  0  0  0  0  0  0  0  0  0  0  0
   46.2270   29.1180   37.0580 H   0  0  0  0  0  0  0  0  0  0  0  0
   47.1491   35.3161   40.5020 H   0  0  0  0  0  0  0  0  0  0  0  0
   48.7124   33.9837   43.6395 H   0  0  0  0  0  0  0  0  0  0  0  0
   44.9187   33.1010   45.3257 H   0  0  0  0  0  0  0  0  0  0  0  0
   45.5368   34.9419   40.3536 H   0  0  0  0  0  0  0  0  0  0  0  0
   44.5595   32.5651   40.1169 H   0  0  0  0  0  0  0  0  0  0  0  0
   43.4730   32.7593   41.4405 H   0  0  0  0  0  0  0  0  0  0  0  0
   42.0253   33.5650   39.6205 H   0  0  0  0  0  0  0  0  0  0  0  0
   43.3855   34.0965   38.6357 H   0  0  0  0  0  0  0  0  0  0  0  0
   43.2030   36.1938   39.5323 H   0  0  0  0  0  0  0  0  0  0  0  0
   41.8094   35.6536   40.4945 H   0  0  0  0  0  0  0  0  0  0  0  0
   43.1781   35.0976   42.3754 H   0  0  0  0  0  0  0  0  0  0  0  0
   44.0533   36.4777   41.7919 H   0  0  0  0  0  0  0  0  0  0  0  0
   48.9143   35.7839   42.6388 H   0  0  0  0  0  0  0  0  0  0  0  0
   49.8117   35.3942   41.1323 H   0  0  0  0  0  0  0  0  0  0  0  0
   48.5831   36.7045   41.1323 H   0  0  0  0  0  0  0  0  0  0  0  0
   49.4245   33.5808   40.4339 H   0  0  0  0  0  0  0  0  0  0  0  0
   47.9344   32.6483   40.9144 H   0  0  0  0  0  0  0  0  0  0  0  0
   48.2813   34.9968   36.1984 H   0  0  0  0  0  0  0  0  0  0  0  0
   46.5670   32.9410   36.1022 H   0  0  0  0  0  0  0  0  0  0  0  0
   46.1186   31.7876   39.7554 H   0  0  0  0  0  0  0  0  0  0  0  0
   43.7722   29.6505   37.7796 H   0  0  0  0  0  0  0  0  0  0  0  0
   43.6359   31.1349   38.7597 H   0  0  0  0  0  0  0  0  0  0  0  0
  1 13  1  0
  1  3  1  0
  2  3  1  0
  2  7  2  0
  3  4  2  0
  4  5  1  0
  6  5  2  0
  7  6  1  0
  8 12  1  0
  8  2  1  0
  9  8  1  0
 10 11  1  0
 10  9  1  0
 11 12  1  0
 14  1  1  0
 15 14  1  0
 16 15  1  0
 17 16  2  0
 18 17  1  0
 18 19  2  0
 19 20  1  0
 19 15  1  0
 21 23  1  0
 21 20  1  0
 22 21  2  0
 24 22  1  0
  1 25  1  6
  4 26  1  0
  6 27  1  0
  8 28  1  0
  9 29  1  0
  9 30  1  0
 10 31  1  0
 10 32  1  0
 11 33  1  0
 11 34  1  0
 12 35  1  0
 12 36  1  0
 13 37  1  0
 13 38  1  0
 13 39  1  0
 14 40  1  0
 14 41  1  0
 17 42  1  0
 18 43  1  0
 20 44  1  0
 23 45  1  0
 23 46  1  0
M  ISO  8  25   8  26  14  27  14  28  13  29  13  30  13  31  13  32  13
M  ISO  8  33  13  34  13  35  13  36  13  37   8  38   8  39   8  40   8
M  ISO  3  41   8  42  14  43  14
M  END
>  <minimizedAffinity>  (1) 
-4.995327

>  <minimizedRMSD>  (1) 
1.11113584

$$$$
