
     RDKit          3D

 38 40  0  0  0  0  0  0  0  0999 V2000
   44.6080   35.6490   44.7150 C   0  0  0  0  0  0  0  0  0  0  0  0
   45.3440   35.5030   43.5280 C   0  0  0  0  0  0  0  0  0  0  0  0
   46.3020   34.4790   43.4320 C   0  0  0  0  0  0  0  0  0  0  0  0
   46.4680   33.6750   44.5010 N   0  0  0  0  0  0  0  0  0  0  0  0
   45.7360   33.8410   45.6450 C   0  0  0  0  0  0  0  0  0  0  0  0
   44.8160   34.8160   45.7530 N   0  0  0  0  0  0  0  0  0  0  0  0
   46.0010   32.9310   46.7060 N   0  0  0  0  0  0  0  0  0  0  0  0
   45.0600   32.8290   47.8050 C   0  0  0  0  0  0  0  0  0  0  0  0
   45.6610   32.0990   48.9830 C   0  0  0  0  0  0  0  0  0  0  0  0
   46.0750   30.7290   48.5370 C   0  0  0  0  0  0  0  0  0  0  0  0
   46.8920   30.7210   47.2820 C   0  0  0  0  0  0  0  0  0  0  0  0
   47.1860   32.0960   46.7280 C   0  0  0  0  0  0  0  0  0  0  0  0
   47.1020   34.2660   42.2290 C   0  0  0  0  0  0  0  0  0  0  0  0
   46.3700   34.2920   40.9410 C   0  0  0  0  0  0  0  0  0  0  0  0
   47.5260   34.2070   39.9580 C   0  0  0  0  0  0  0  0  0  0  0  0
   48.5180   35.1920   40.5710 C   0  0  0  0  0  0  0  0  0  0  0  0
   48.1600   35.3350   42.0200 C   0  0  0  0  0  0  0  0  0  0  0  0
   43.8570   36.4485   44.7977 H   0  0  0  0  0  0  0  0  0  0  0  0
   45.1724   36.1837   42.6812 H   0  0  0  0  0  0  0  0  0  0  0  0
   44.7699   33.8415   48.1222 H   0  0  0  0  0  0  0  0  0  0  0  0
   44.1842   32.2613   47.4577 H   0  0  0  0  0  0  0  0  0  0  0  0
   46.5390   32.6498   49.3514 H   0  0  0  0  0  0  0  0  0  0  0  0
   44.9219   32.0225   49.7941 H   0  0  0  0  0  0  0  0  0  0  0  0
   46.6689   30.2680   49.3400 H   0  0  0  0  0  0  0  0  0  0  0  0
   45.1521   30.1708   48.3210 H   0  0  0  0  0  0  0  0  0  0  0  0
   47.8492   30.2230   47.4961 H   0  0  0  0  0  0  0  0  0  0  0  0
   46.2990   30.1927   46.5210 H   0  0  0  0  0  0  0  0  0  0  0  0
   47.5680   31.9924   45.7017 H   0  0  0  0  0  0  0  0  0  0  0  0
   47.9309   32.5758   47.3799 H   0  0  0  0  0  0  0  0  0  0  0  0
   47.5010   33.2630   42.4407 H   0  0  0  0  0  0  0  0  0  0  0  0
   45.6909   33.4322   40.8434 H   0  0  0  0  0  0  0  0  0  0  0  0
   45.7178   35.1672   40.8042 H   0  0  0  0  0  0  0  0  0  0  0  0
   47.2197   34.5204   38.9491 H   0  0  0  0  0  0  0  0  0  0  0  0
   47.9268   33.1916   39.8229 H   0  0  0  0  0  0  0  0  0  0  0  0
   49.5432   34.8057   40.4721 H   0  0  0  0  0  0  0  0  0  0  0  0
   48.4712   36.1643   40.0586 H   0  0  0  0  0  0  0  0  0  0  0  0
   49.0350   35.1533   42.6613 H   0  0  0  0  0  0  0  0  0  0  0  0
   47.8068   36.3445   42.2772 H   0  0  0  0  0  0  0  0  0  0  0  0
  1  6  2  0
  2  1  1  0
  3  2  2  0
  3  4  1  0
  4  5  2  0
  5  6  1  0
  5  7  1  0
  7 12  1  0
  7  8  1  0
  8  9  1  0
 10  9  1  0
 11 10  1  0
 12 11  1  0
 13  3  1  0
 14 13  1  0
 15 16  1  0
 15 14  1  0
 16 17  1  0
 17 13  1  0
  1 18  1  0
  2 19  1  0
  8 20  1  0
  8 21  1  0
  9 22  1  0
  9 23  1  0
 10 24  1  0
 10 25  1  0
 11 26  1  0
 11 27  1  0
 12 28  1  0
 12 29  1  0
 13 30  1  0
 14 31  1  0
 14 32  1  0
 15 33  1  0
 15 34  1  0
 16 35  1  0
 16 36  1  0
 17 37  1  0
 17 38  1  0
M  ISO  8  18  14  19  14  20  13  21  13  22  13  23  13  24  13  25  13
M  ISO  8  26  13  27  13  28  13  29  13  30  13  31  13  32  13  33  13
M  ISO  5  34  13  35  13  36  13  37  13  38  13
M  END
>  <minimizedAffinity>  (1) 
-6.39703655

>  <minimizedRMSD>  (1) 
0.444920272

$$$$
