
     RDKit          3D

 30 32  0  0  0  0  0  0  0  0999 V2000
   47.0540   34.3050   42.2270 C   0  0  0  0  0  0  0  0  0  0  0  0
   46.3330   34.3040   40.9310 C   0  0  0  0  0  0  0  0  0  0  0  0
   47.5180   34.1690   39.9730 C   0  0  0  0  0  0  0  0  0  0  0  0
   48.5090   35.1530   40.5760 C   0  0  0  0  0  0  0  0  0  0  0  0
   48.1250   35.3600   42.0240 C   0  0  0  0  0  0  0  0  0  0  0  0
   44.5730   35.7980   44.6640 C   0  0  0  0  0  0  0  0  0  0  0  0
   45.3280   35.6220   43.4920 C   0  0  0  0  0  0  0  0  0  0  0  0
   46.2400   34.5480   43.4160 C   0  0  0  0  0  0  0  0  0  0  0  0
   46.3380   33.7370   44.4890 N   0  0  0  0  0  0  0  0  0  0  0  0
   45.5860   33.9400   45.6150 C   0  0  0  0  0  0  0  0  0  0  0  0
   44.7130   34.9650   45.6920 N   0  0  0  0  0  0  0  0  0  0  0  0
   45.7910   32.9850   46.7080 C   0  0  0  0  0  0  0  0  0  0  0  0
   45.1540   32.8390   47.8650 C   0  0  0  0  0  0  0  0  0  0  0  0
   45.5160   31.8640   48.7550 C   0  0  0  0  0  0  0  0  0  0  0  0
   46.5810   31.0480   48.3640 C   0  0  0  0  0  0  0  0  0  0  0  0
   47.0380   31.7410   46.6700 S   0  0  0  0  0  0  0  0  0  0  0  0
   47.4466   33.3026   42.4529 H   0  0  0  0  0  0  0  0  0  0  0  0
   45.6414   33.4526   40.8485 H   0  0  0  0  0  0  0  0  0  0  0  0
   45.6907   35.1796   40.7556 H   0  0  0  0  0  0  0  0  0  0  0  0
   47.2406   34.4554   38.9478 H   0  0  0  0  0  0  0  0  0  0  0  0
   47.9047   33.1434   39.8796 H   0  0  0  0  0  0  0  0  0  0  0  0
   49.5284   34.7446   40.5131 H   0  0  0  0  0  0  0  0  0  0  0  0
   48.4859   36.1077   40.0301 H   0  0  0  0  0  0  0  0  0  0  0  0
   48.9826   35.1911   42.6919 H   0  0  0  0  0  0  0  0  0  0  0  0
   47.7855   36.3819   42.2484 H   0  0  0  0  0  0  0  0  0  0  0  0
   43.8595   36.6324   44.7322 H   0  0  0  0  0  0  0  0  0  0  0  0
   45.2095   36.3129   42.6443 H   0  0  0  0  0  0  0  0  0  0  0  0
   44.3210   33.5136   48.1120 H   0  0  0  0  0  0  0  0  0  0  0  0
   45.0008   31.7311   49.7178 H   0  0  0  0  0  0  0  0  0  0  0  0
   47.0392   30.2095   48.9089 H   0  0  0  0  0  0  0  0  0  0  0  0
  1  8  1  0
  2  1  1  0
  3  4  1  0
  3  2  1  0
  4  5  1  0
  5  1  1  0
  6 11  2  0
  7  6  1  0
  8  7  2  0
  8  9  1  0
  9 10  2  0
 10 11  1  0
 10 12  1  0
 12 13  2  0
 13 14  1  0
 15 14  2  0
 16 12  1  0
 16 15  1  0
  1 17  1  0
  2 18  1  0
  2 19  1  0
  3 20  1  0
  3 21  1  0
  4 22  1  0
  4 23  1  0
  5 24  1  0
  5 25  1  0
  6 26  1  0
  7 27  1  0
 13 28  1  0
 14 29  1  0
 15 30  1  0
M  ISO  8  17  13  18  13  19  13  20  13  21  13  22  13  23  13  24  13
M  ISO  6  25  13  26  14  27  14  28  14  29  14  30  14
M  END
>  <minimizedAffinity>  (1) 
-5.89926815

>  <minimizedRMSD>  (1) 
0.395704836

$$$$
