
     RDKit          3D

 30 32  0  0  0  0  0  0  0  0999 V2000
   47.0720   34.2790   42.2100 C   0  0  0  0  0  0  0  0  0  0  0  0
   46.3530   34.2960   40.9160 C   0  0  0  0  0  0  0  0  0  0  0  0
   47.5350   34.1780   39.9510 C   0  0  0  0  0  0  0  0  0  0  0  0
   48.5050   35.1740   40.5550 C   0  0  0  0  0  0  0  0  0  0  0  0
   48.1580   35.3220   42.0240 C   0  0  0  0  0  0  0  0  0  0  0  0
   44.5580   35.7190   44.6450 C   0  0  0  0  0  0  0  0  0  0  0  0
   45.2950   35.5510   43.4540 C   0  0  0  0  0  0  0  0  0  0  0  0
   46.2600   34.5240   43.4070 C   0  0  0  0  0  0  0  0  0  0  0  0
   46.4180   33.7650   44.5060 N   0  0  0  0  0  0  0  0  0  0  0  0
   45.6930   33.9510   45.6410 C   0  0  0  0  0  0  0  0  0  0  0  0
   44.7680   34.9280   45.7000 N   0  0  0  0  0  0  0  0  0  0  0  0
   45.9120   33.1080   46.7750 N   0  0  0  0  0  0  0  0  0  0  0  0
   45.0560   32.8410   47.7810 C   0  0  0  0  0  0  0  0  0  0  0  0
   45.6590   31.9770   48.6790 C   0  0  0  0  0  0  0  0  0  0  0  0
   46.9000   31.7460   48.1650 N   0  0  0  0  0  0  0  0  0  0  0  0
   47.0460   32.4350   47.0090 C   0  0  0  0  0  0  0  0  0  0  0  0
   47.4497   33.2677   42.4211 H   0  0  0  0  0  0  0  0  0  0  0  0
   45.6629   33.4446   40.8217 H   0  0  0  0  0  0  0  0  0  0  0  0
   45.7108   35.1745   40.7553 H   0  0  0  0  0  0  0  0  0  0  0  0
   47.2501   34.4621   38.9272 H   0  0  0  0  0  0  0  0  0  0  0  0
   47.9369   33.1590   39.8501 H   0  0  0  0  0  0  0  0  0  0  0  0
   49.5358   34.8049   40.4488 H   0  0  0  0  0  0  0  0  0  0  0  0
   48.4309   36.1441   40.0418 H   0  0  0  0  0  0  0  0  0  0  0  0
   49.0283   35.1081   42.6618 H   0  0  0  0  0  0  0  0  0  0  0  0
   47.8422   36.3388   42.3003 H   0  0  0  0  0  0  0  0  0  0  0  0
   43.7993   36.5132   44.7055 H   0  0  0  0  0  0  0  0  0  0  0  0
   45.1216   36.2035   42.5855 H   0  0  0  0  0  0  0  0  0  0  0  0
   44.0376   33.2462   47.8741 H   0  0  0  0  0  0  0  0  0  0  0  0
   45.2302   31.5666   49.6051 H   0  0  0  0  0  0  0  0  0  0  0  0
   47.9422   32.4411   46.3713 H   0  0  0  0  0  0  0  0  0  0  0  0
  1  8  1  0
  2  1  1  0
  3  4  1  0
  3  2  1  0
  4  5  1  0
  5  1  1  0
  6 11  2  0
  7  6  1  0
  8  7  2  0
  8  9  1  0
  9 10  2  0
 10 11  1  0
 10 12  1  0
 12 16  1  0
 12 13  1  0
 13 14  2  0
 15 14  1  0
 16 15  2  0
  1 17  1  0
  2 18  1  0
  2 19  1  0
  3 20  1  0
  3 21  1  0
  4 22  1  0
  4 23  1  0
  5 24  1  0
  5 25  1  0
  6 26  1  0
  7 27  1  0
 13 28  1  0
 14 29  1  0
 16 30  1  0
M  ISO  8  17  13  18  13  19  13  20  13  21  13  22  13  23  13  24  13
M  ISO  6  25  13  26  14  27  14  28  14  29  14  30  14
M  END
>  <minimizedAffinity>  (1) 
-6.05473185

>  <minimizedRMSD>  (1) 
0.352348953

$$$$
