
     RDKit          3D

 30 32  0  0  0  0  0  0  0  0999 V2000
   44.5370   35.7720   44.5710 C   0  0  0  0  0  0  0  0  0  0  0  0
   45.2980   35.5750   43.4040 C   0  0  0  0  0  0  0  0  0  0  0  0
   46.2620   34.5530   43.3760 C   0  0  0  0  0  0  0  0  0  0  0  0
   46.4070   33.8070   44.4890 N   0  0  0  0  0  0  0  0  0  0  0  0
   45.6680   34.0080   45.6090 C   0  0  0  0  0  0  0  0  0  0  0  0
   44.7400   34.9860   45.6450 N   0  0  0  0  0  0  0  0  0  0  0  0
   47.0910   34.2910   42.1950 C   0  0  0  0  0  0  0  0  0  0  0  0
   46.3810   34.2930   40.8950 C   0  0  0  0  0  0  0  0  0  0  0  0
   47.5620   34.1670   39.9380 C   0  0  0  0  0  0  0  0  0  0  0  0
   48.5260   35.1710   40.5310 C   0  0  0  0  0  0  0  0  0  0  0  0
   48.1900   35.3190   42.0030 C   0  0  0  0  0  0  0  0  0  0  0  0
   45.8850   33.1550   46.7770 C   0  0  0  0  0  0  0  0  0  0  0  0
   46.9360   32.3430   47.1770 C   0  0  0  0  0  0  0  0  0  0  0  0
   46.5380   31.7950   48.3830 C   0  0  0  0  0  0  0  0  0  0  0  0
   45.3100   32.2510   48.7000 N   0  0  0  0  0  0  0  0  0  0  0  0
   44.9300   33.0550   47.7470 N   0  0  0  0  0  0  0  0  0  0  0  0
   43.7775   36.5669   44.6057 H   0  0  0  0  0  0  0  0  0  0  0  0
   45.1400   36.2143   42.5229 H   0  0  0  0  0  0  0  0  0  0  0  0
   47.4670   33.2840   42.4285 H   0  0  0  0  0  0  0  0  0  0  0  0
   45.6926   33.4397   40.8062 H   0  0  0  0  0  0  0  0  0  0  0  0
   45.7404   35.1703   40.7221 H   0  0  0  0  0  0  0  0  0  0  0  0
   47.2791   34.4377   38.9101 H   0  0  0  0  0  0  0  0  0  0  0  0
   47.9669   33.1480   39.8508 H   0  0  0  0  0  0  0  0  0  0  0  0
   49.5591   34.8110   40.4169 H   0  0  0  0  0  0  0  0  0  0  0  0
   48.4387   36.1394   40.0166 H   0  0  0  0  0  0  0  0  0  0  0  0
   49.0616   35.0915   42.6343 H   0  0  0  0  0  0  0  0  0  0  0  0
   47.8893   36.3393   42.2833 H   0  0  0  0  0  0  0  0  0  0  0  0
   47.8847   32.1713   46.6475 H   0  0  0  0  0  0  0  0  0  0  0  0
   47.1318   31.0953   48.9895 H   0  0  0  0  0  0  0  0  0  0  0  0
   44.7697   32.0082   49.5426 H   0  0  0  0  0  0  0  0  0  0  0  0
  1  6  2  0
  2  1  1  0
  3  2  2  0
  3  4  1  0
  4  5  2  0
  5  6  1  0
  5 12  1  0
  7  3  1  0
  8  7  1  0
  9 10  1  0
  9  8  1  0
 10 11  1  0
 11  7  1  0
 12 13  1  0
 12 16  2  0
 13 14  2  0
 14 15  1  0
 16 15  1  0
  1 17  1  0
  2 18  1  0
  7 19  1  0
  8 20  1  0
  8 21  1  0
  9 22  1  0
  9 23  1  0
 10 24  1  0
 10 25  1  0
 11 26  1  0
 11 27  1  0
 13 28  1  0
 14 29  1  0
 15 30  1  0
M  ISO  8  17  14  18  14  19  13  20  13  21  13  22  13  23  13  24  13
M  ISO  6  25  13  26  13  27  13  28  14  29  14  30   9
M  END
>  <minimizedAffinity>  (1) 
-5.99057007

>  <minimizedRMSD>  (1) 
0.410740107

$$$$
