
     RDKit          3D

 30 32  0  0  0  0  0  0  0  0999 V2000
   44.5720   35.6830   44.6780 C   0  0  0  0  0  0  0  0  0  0  0  0
   45.2860   35.5370   43.4620 C   0  0  0  0  0  0  0  0  0  0  0  0
   46.2580   34.5160   43.4120 C   0  0  0  0  0  0  0  0  0  0  0  0
   46.4430   33.7500   44.5180 N   0  0  0  0  0  0  0  0  0  0  0  0
   45.7410   33.9200   45.6570 C   0  0  0  0  0  0  0  0  0  0  0  0
   44.7950   34.9020   45.7290 N   0  0  0  0  0  0  0  0  0  0  0  0
   45.9520   33.1030   46.8010 N   0  0  0  0  0  0  0  0  0  0  0  0
   45.0000   32.8230   47.6880 N   0  0  0  0  0  0  0  0  0  0  0  0
   45.5140   32.0340   48.6460 C   0  0  0  0  0  0  0  0  0  0  0  0
   46.8590   31.7950   48.3590 C   0  0  0  0  0  0  0  0  0  0  0  0
   47.0970   32.4840   47.1910 C   0  0  0  0  0  0  0  0  0  0  0  0
   47.0670   34.2670   42.2130 C   0  0  0  0  0  0  0  0  0  0  0  0
   46.3370   34.2770   40.9240 C   0  0  0  0  0  0  0  0  0  0  0  0
   47.5020   34.1850   39.9460 C   0  0  0  0  0  0  0  0  0  0  0  0
   48.4980   35.1470   40.5570 C   0  0  0  0  0  0  0  0  0  0  0  0
   48.1330   35.3320   42.0150 C   0  0  0  0  0  0  0  0  0  0  0  0
   43.8072   36.4700   44.7537 H   0  0  0  0  0  0  0  0  0  0  0  0
   45.0912   36.1893   42.5980 H   0  0  0  0  0  0  0  0  0  0  0  0
   44.9650   31.6407   49.5143 H   0  0  0  0  0  0  0  0  0  0  0  0
   47.5717   31.1896   48.9383 H   0  0  0  0  0  0  0  0  0  0  0  0
   48.0590   32.5265   46.6593 H   0  0  0  0  0  0  0  0  0  0  0  0
   47.4598   33.2613   42.4234 H   0  0  0  0  0  0  0  0  0  0  0  0
   45.6611   33.4140   40.8331 H   0  0  0  0  0  0  0  0  0  0  0  0
   45.6805   35.1469   40.7752 H   0  0  0  0  0  0  0  0  0  0  0  0
   47.2036   34.5052   38.9368 H   0  0  0  0  0  0  0  0  0  0  0  0
   47.8923   33.1651   39.8137 H   0  0  0  0  0  0  0  0  0  0  0  0
   49.5144   34.7342   40.4757 H   0  0  0  0  0  0  0  0  0  0  0  0
   48.4710   36.1122   40.0300 H   0  0  0  0  0  0  0  0  0  0  0  0
   48.9997   35.1561   42.6691 H   0  0  0  0  0  0  0  0  0  0  0  0
   47.7940   36.3491   42.2611 H   0  0  0  0  0  0  0  0  0  0  0  0
  1  6  2  0
  2  1  1  0
  3  2  2  0
  3  4  1  0
  4  5  2  0
  5  6  1  0
  5  7  1  0
  7 11  1  0
  7  8  1  0
  8  9  2  0
 10  9  1  0
 11 10  2  0
 12  3  1  0
 13 12  1  0
 14 15  1  0
 14 13  1  0
 15 16  1  0
 16 12  1  0
  1 17  1  0
  2 18  1  0
  9 19  1  0
 10 20  1  0
 11 21  1  0
 12 22  1  0
 13 23  1  0
 13 24  1  0
 14 25  1  0
 14 26  1  0
 15 27  1  0
 15 28  1  0
 16 29  1  0
 16 30  1  0
M  ISO  8  17  14  18  14  19  14  20  14  21  14  22  13  23  13  24  13
M  ISO  6  25  13  26  13  27  13  28  13  29  13  30  13
M  END
>  <minimizedAffinity>  (1) 
-6.1918788

>  <minimizedRMSD>  (1) 
0.381287605

$$$$
