
     RDKit          3D

 31 33  0  0  0  0  0  0  0  0999 V2000
   44.6110   35.6060   44.6590 C   0  0  0  0  0  0  0  0  0  0  0  0
   45.3520   35.4870   43.4640 C   0  0  0  0  0  0  0  0  0  0  0  0
   46.3400   34.4830   43.3970 C   0  0  0  0  0  0  0  0  0  0  0  0
   46.5180   33.6960   44.4840 N   0  0  0  0  0  0  0  0  0  0  0  0
   45.7850   33.8420   45.6180 C   0  0  0  0  0  0  0  0  0  0  0  0
   44.8370   34.7950   45.6980 N   0  0  0  0  0  0  0  0  0  0  0  0
   47.1670   34.2720   42.2030 C   0  0  0  0  0  0  0  0  0  0  0  0
   46.4460   34.2670   40.9100 C   0  0  0  0  0  0  0  0  0  0  0  0
   47.6160   34.2530   39.9330 C   0  0  0  0  0  0  0  0  0  0  0  0
   48.5860   35.2230   40.5740 C   0  0  0  0  0  0  0  0  0  0  0  0
   48.1830   35.3860   42.0050 C   0  0  0  0  0  0  0  0  0  0  0  0
   46.0150   32.9750   46.7490 C   0  0  0  0  0  0  0  0  0  0  0  0
   47.1360   32.2140   46.8540 C   0  0  0  0  0  0  0  0  0  0  0  0
   47.4220   31.3600   47.9140 C   0  0  0  0  0  0  0  0  0  0  0  0
   46.5130   31.2780   48.9180 N   0  0  0  0  0  0  0  0  0  0  0  0
   45.4000   32.0350   48.8110 C   0  0  0  0  0  0  0  0  0  0  0  0
   45.1440   32.8650   47.7610 N   0  0  0  0  0  0  0  0  0  0  0  0
   43.8333   36.3800   44.7373 H   0  0  0  0  0  0  0  0  0  0  0  0
   45.1648   36.1564   42.6114 H   0  0  0  0  0  0  0  0  0  0  0  0
   47.5998   33.2839   42.4181 H   0  0  0  0  0  0  0  0  0  0  0  0
   45.8162   33.3718   40.8008 H   0  0  0  0  0  0  0  0  0  0  0  0
   45.7478   35.1060   40.7737 H   0  0  0  0  0  0  0  0  0  0  0  0
   47.3063   34.6001   38.9362 H   0  0  0  0  0  0  0  0  0  0  0  0
   48.0398   33.2513   39.7690 H   0  0  0  0  0  0  0  0  0  0  0  0
   49.6093   34.8238   40.5156 H   0  0  0  0  0  0  0  0  0  0  0  0
   48.5641   36.1919   40.0537 H   0  0  0  0  0  0  0  0  0  0  0  0
   49.0455   35.2583   42.6757 H   0  0  0  0  0  0  0  0  0  0  0  0
   47.7811   36.3846   42.2312 H   0  0  0  0  0  0  0  0  0  0  0  0
   47.8725   32.2782   46.0395 H   0  0  0  0  0  0  0  0  0  0  0  0
   48.3516   30.7723   47.9375 H   0  0  0  0  0  0  0  0  0  0  0  0
   44.6560   31.9783   49.6192 H   0  0  0  0  0  0  0  0  0  0  0  0
  1  6  2  0
  2  1  1  0
  3  2  2  0
  3  4  1  0
  4  5  2  0
  5  6  1  0
  5 12  1  0
  7  3  1  0
  8  7  1  0
  9 10  1  0
  9  8  1  0
 10 11  1  0
 11  7  1  0
 12 13  2  0
 12 17  1  0
 13 14  1  0
 14 15  2  0
 16 15  1  0
 17 16  2  0
  1 18  1  0
  2 19  1  0
  7 20  1  0
  8 21  1  0
  8 22  1  0
  9 23  1  0
  9 24  1  0
 10 25  1  0
 10 26  1  0
 11 27  1  0
 11 28  1  0
 13 29  1  0
 14 30  1  0
 16 31  1  0
M  ISO  8  18  14  19  14  20  13  21  13  22  13  23  13  24  13  25  13
M  ISO  6  26  13  27  13  28  13  29  14  30  14  31  14
M  END
>  <minimizedAffinity>  (1) 
-6.10028219

>  <minimizedRMSD>  (1) 
0.534636736

$$$$
