
     RDKit          3D

 30 32  0  0  0  0  0  0  0  0999 V2000
   44.5460   35.7510   44.6180 C   0  0  0  0  0  0  0  0  0  0  0  0
   45.3010   35.5490   43.4520 C   0  0  0  0  0  0  0  0  0  0  0  0
   46.2560   34.5330   43.3930 C   0  0  0  0  0  0  0  0  0  0  0  0
   46.4010   33.7790   44.4980 N   0  0  0  0  0  0  0  0  0  0  0  0
   45.6760   33.9740   45.6200 C   0  0  0  0  0  0  0  0  0  0  0  0
   44.7400   34.9710   45.6760 N   0  0  0  0  0  0  0  0  0  0  0  0
   47.0670   34.2840   42.2080 C   0  0  0  0  0  0  0  0  0  0  0  0
   46.3640   34.3030   40.9070 C   0  0  0  0  0  0  0  0  0  0  0  0
   47.5350   34.1790   39.9490 C   0  0  0  0  0  0  0  0  0  0  0  0
   48.5120   35.1720   40.5520 C   0  0  0  0  0  0  0  0  0  0  0  0
   48.1420   35.3380   42.0020 C   0  0  0  0  0  0  0  0  0  0  0  0
   45.8790   33.1240   46.7910 C   0  0  0  0  0  0  0  0  0  0  0  0
   47.0280   32.4380   47.1000 C   0  0  0  0  0  0  0  0  0  0  0  0
   46.7980   31.7670   48.2770 C   0  0  0  0  0  0  0  0  0  0  0  0
   45.5000   32.0720   48.6460 C   0  0  0  0  0  0  0  0  0  0  0  0
   45.0330   32.8650   47.7320 O   0  0  0  0  0  0  0  0  0  0  0  0
   43.7949   36.5538   44.6558 H   0  0  0  0  0  0  0  0  0  0  0  0
   45.1386   36.1966   42.5778 H   0  0  0  0  0  0  0  0  0  0  0  0
   47.4399   33.2755   42.4404 H   0  0  0  0  0  0  0  0  0  0  0  0
   45.6698   33.4553   40.8096 H   0  0  0  0  0  0  0  0  0  0  0  0
   45.7334   35.1892   40.7430 H   0  0  0  0  0  0  0  0  0  0  0  0
   47.2507   34.4635   38.9252 H   0  0  0  0  0  0  0  0  0  0  0  0
   47.9316   33.1579   39.8488 H   0  0  0  0  0  0  0  0  0  0  0  0
   49.5395   34.7885   40.4670 H   0  0  0  0  0  0  0  0  0  0  0  0
   48.4637   36.1360   40.0244 H   0  0  0  0  0  0  0  0  0  0  0  0
   49.0079   35.1511   42.6541 H   0  0  0  0  0  0  0  0  0  0  0  0
   47.8020   36.3550   42.2471 H   0  0  0  0  0  0  0  0  0  0  0  0
   47.9591   32.4276   46.5143 H   0  0  0  0  0  0  0  0  0  0  0  0
   47.5035   31.1183   48.8168 H   0  0  0  0  0  0  0  0  0  0  0  0
   44.9683   31.7125   49.5393 H   0  0  0  0  0  0  0  0  0  0  0  0
  1  6  2  0
  2  1  1  0
  3  2  2  0
  3  4  1  0
  4  5  2  0
  5  6  1  0
  5 12  1  0
  7  3  1  0
  8  7  1  0
  9 10  1  0
  9  8  1  0
 10 11  1  0
 11  7  1  0
 12 13  2  0
 12 16  1  0
 13 14  1  0
 14 15  2  0
 16 15  1  0
  1 17  1  0
  2 18  1  0
  7 19  1  0
  8 20  1  0
  8 21  1  0
  9 22  1  0
  9 23  1  0
 10 24  1  0
 10 25  1  0
 11 26  1  0
 11 27  1  0
 13 28  1  0
 14 29  1  0
 15 30  1  0
M  ISO  8  17  14  18  14  19  13  20  13  21  13  22  13  23  13  24  13
M  ISO  6  25  13  26  13  27  13  28  14  29  14  30  14
M  END
>  <minimizedAffinity>  (1) 
-5.9648509

>  <minimizedRMSD>  (1) 
0.63000071

$$$$
