
     RDKit          3D

 31 33  0  0  0  0  0  0  0  0999 V2000
   44.6250   35.4480   44.8450 C   0  0  0  0  0  0  0  0  0  0  0  0
   45.3510   35.3440   43.6460 C   0  0  0  0  0  0  0  0  0  0  0  0
   46.3690   34.3750   43.5350 C   0  0  0  0  0  0  0  0  0  0  0  0
   46.5980   33.5830   44.6060 N   0  0  0  0  0  0  0  0  0  0  0  0
   45.8730   33.7120   45.7570 C   0  0  0  0  0  0  0  0  0  0  0  0
   44.8870   34.6480   45.8680 N   0  0  0  0  0  0  0  0  0  0  0  0
   47.1580   34.2170   42.3190 C   0  0  0  0  0  0  0  0  0  0  0  0
   46.4210   34.3000   41.0410 C   0  0  0  0  0  0  0  0  0  0  0  0
   47.5790   34.2700   40.0470 C   0  0  0  0  0  0  0  0  0  0  0  0
   48.5710   35.2130   40.7010 C   0  0  0  0  0  0  0  0  0  0  0  0
   48.2370   35.2750   42.1680 C   0  0  0  0  0  0  0  0  0  0  0  0
   46.1540   32.8460   46.8700 C   0  0  0  0  0  0  0  0  0  0  0  0
   45.2310   32.6310   47.8550 C   0  0  0  0  0  0  0  0  0  0  0  0
   45.4390   31.8140   48.9450 C   0  0  0  0  0  0  0  0  0  0  0  0
   46.6330   31.2150   49.0020 N   0  0  0  0  0  0  0  0  0  0  0  0
   47.5500   31.4100   48.0510 C   0  0  0  0  0  0  0  0  0  0  0  0
   47.3220   32.2160   46.9910 N   0  0  0  0  0  0  0  0  0  0  0  0
   43.8298   36.2027   44.9351 H   0  0  0  0  0  0  0  0  0  0  0  0
   45.1269   36.0127   42.8018 H   0  0  0  0  0  0  0  0  0  0  0  0
   47.5471   33.1997   42.4730 H   0  0  0  0  0  0  0  0  0  0  0  0
   45.7470   33.4414   40.9048 H   0  0  0  0  0  0  0  0  0  0  0  0
   45.7617   35.1757   40.9491 H   0  0  0  0  0  0  0  0  0  0  0  0
   47.2681   34.6380   39.0581 H   0  0  0  0  0  0  0  0  0  0  0  0
   47.9787   33.2628   39.8578 H   0  0  0  0  0  0  0  0  0  0  0  0
   49.5949   34.8347   40.5646 H   0  0  0  0  0  0  0  0  0  0  0  0
   48.5115   36.2134   40.2475 H   0  0  0  0  0  0  0  0  0  0  0  0
   49.1159   35.0338   42.7839 H   0  0  0  0  0  0  0  0  0  0  0  0
   47.9132   36.2736   42.4965 H   0  0  0  0  0  0  0  0  0  0  0  0
   44.2607   33.1426   47.7723 H   0  0  0  0  0  0  0  0  0  0  0  0
   44.6717   31.6642   49.7188 H   0  0  0  0  0  0  0  0  0  0  0  0
   48.5205   30.8988   48.1332 H   0  0  0  0  0  0  0  0  0  0  0  0
  1  6  2  0
  2  1  1  0
  3  2  2  0
  3  4  1  0
  4  5  2  0
  5  6  1  0
  5 12  1  0
  7  3  1  0
  8  7  1  0
  9 10  1  0
  9  8  1  0
 10 11  1  0
 11  7  1  0
 12 17  1  0
 12 13  2  0
 13 14  1  0
 14 15  2  0
 16 15  1  0
 17 16  2  0
  1 18  1  0
  2 19  1  0
  7 20  1  0
  8 21  1  0
  8 22  1  0
  9 23  1  0
  9 24  1  0
 10 25  1  0
 10 26  1  0
 11 27  1  0
 11 28  1  0
 13 29  1  0
 14 30  1  0
 16 31  1  0
M  ISO  8  18  14  19  14  20  13  21  13  22  13  23  13  24  13  25  13
M  ISO  6  26  13  27  13  28  13  29  14  30  14  31  14
M  END
>  <minimizedAffinity>  (1) 
-6.07231951

>  <minimizedRMSD>  (1) 
0.750222564

$$$$
