
     RDKit          3D

 25 26  0  0  0  0  0  0  0  0999 V2000
   47.0340   34.3720   42.1890 C   0  0  0  0  0  0  0  0  0  0  0  0
   46.3710   34.3040   40.8660 C   0  0  0  0  0  0  0  0  0  0  0  0
   47.5960   34.0600   39.9810 C   0  0  0  0  0  0  0  0  0  0  0  0
   48.5250   35.1320   40.5140 C   0  0  0  0  0  0  0  0  0  0  0  0
   48.1610   35.3660   41.9680 C   0  0  0  0  0  0  0  0  0  0  0  0
   44.5550   36.1160   44.4400 C   0  0  0  0  0  0  0  0  0  0  0  0
   45.3370   35.8700   43.2940 C   0  0  0  0  0  0  0  0  0  0  0  0
   46.1700   34.7360   43.3150 C   0  0  0  0  0  0  0  0  0  0  0  0
   46.1560   33.9700   44.4300 N   0  0  0  0  0  0  0  0  0  0  0  0
   45.3970   34.2290   45.5140 C   0  0  0  0  0  0  0  0  0  0  0  0
   44.5840   35.3270   45.5060 N   0  0  0  0  0  0  0  0  0  0  0  0
   45.4480   33.3650   46.6440 N   0  0  0  0  0  0  0  0  0  0  0  0
   47.3774   33.3753   42.5031 H   0  0  0  0  0  0  0  0  0  0  0  0
   45.6521   33.4733   40.8096 H   0  0  0  0  0  0  0  0  0  0  0  0
   45.7685   35.1847   40.5987 H   0  0  0  0  0  0  0  0  0  0  0  0
   47.3666   34.2116   38.9159 H   0  0  0  0  0  0  0  0  0  0  0  0
   47.9989   33.0372   40.0201 H   0  0  0  0  0  0  0  0  0  0  0  0
   49.5697   34.7962   40.4373 H   0  0  0  0  0  0  0  0  0  0  0  0
   48.4204   36.0603   39.9333 H   0  0  0  0  0  0  0  0  0  0  0  0
   49.0134   35.1542   42.6302 H   0  0  0  0  0  0  0  0  0  0  0  0
   47.8776   36.4060   42.1871 H   0  0  0  0  0  0  0  0  0  0  0  0
   43.8952   36.9960   44.4511 H   0  0  0  0  0  0  0  0  0  0  0  0
   45.2980   36.5364   42.4197 H   0  0  0  0  0  0  0  0  0  0  0  0
   44.8676   33.5642   47.4712 H   0  0  0  0  0  0  0  0  0  0  0  0
   46.0653   32.5405   46.6345 H   0  0  0  0  0  0  0  0  0  0  0  0
  1  8  1  0
  2  1  1  0
  3  4  1  0
  3  2  1  0
  4  5  1  0
  5  1  1  0
  6 11  2  0
  7  8  2  0
  7  6  1  0
  8  9  1  0
  9 10  2  0
 10 12  1  0
 11 10  1  0
  1 13  1  0
  2 14  1  0
  2 15  1  0
  3 16  1  0
  3 17  1  0
  4 18  1  0
  4 19  1  0
  5 20  1  0
  5 21  1  0
  6 22  1  0
  7 23  1  0
 12 24  1  0
 12 25  1  0
M  ISO  8  13  13  14  13  15  13  16  13  17  13  18  13  19  13  20  13
M  ISO  3  21  13  22  14  23  14
M  END
>  <minimizedAffinity>  (1) 
-5.17176771

>  <minimizedRMSD>  (1) 
0.11767368

$$$$
