
     RDKit          3D

 35 36  0  0  0  0  0  0  0  0999 V2000
   47.0070   34.0990   42.4550 C   0  0  0  0  0  0  0  0  0  0  0  0
   46.2710   34.3670   41.1980 C   0  0  0  0  0  0  0  0  0  0  0  0
   47.4030   34.2670   40.1880 C   0  0  0  0  0  0  0  0  0  0  0  0
   48.4710   35.1000   40.8920 C   0  0  0  0  0  0  0  0  0  0  0  0
   48.2000   35.0340   42.3660 C   0  0  0  0  0  0  0  0  0  0  0  0
   44.6620   35.4430   45.1080 C   0  0  0  0  0  0  0  0  0  0  0  0
   45.3460   35.3620   43.8750 C   0  0  0  0  0  0  0  0  0  0  0  0
   46.2370   34.2860   43.6940 C   0  0  0  0  0  0  0  0  0  0  0  0
   46.3710   33.4120   44.7110 N   0  0  0  0  0  0  0  0  0  0  0  0
   45.7030   33.5130   45.8830 C   0  0  0  0  0  0  0  0  0  0  0  0
   44.8420   34.5430   46.0710 N   0  0  0  0  0  0  0  0  0  0  0  0
   45.9780   32.4570   46.8870 C   0  0  0  0  0  0  0  0  0  0  0  0
   47.3640   32.6090   47.5020 C   0  0  0  0  0  0  0  0  0  0  0  0
   44.9660   32.5350   47.9980 C   0  0  0  0  0  0  0  0  0  0  0  0
   45.9340   31.1360   46.1480 C   0  0  0  0  0  0  0  0  0  0  0  0
   47.2773   33.0353   42.5297 H   0  0  0  0  0  0  0  0  0  0  0  0
   45.4938   33.6108   41.0132 H   0  0  0  0  0  0  0  0  0  0  0  0
   45.7244   35.3215   41.1812 H   0  0  0  0  0  0  0  0  0  0  0  0
   47.1220   34.7017   39.2174 H   0  0  0  0  0  0  0  0  0  0  0  0
   47.7094   33.2401   39.9400 H   0  0  0  0  0  0  0  0  0  0  0  0
   49.4688   34.6908   40.6755 H   0  0  0  0  0  0  0  0  0  0  0  0
   48.4419   36.1419   40.5404 H   0  0  0  0  0  0  0  0  0  0  0  0
   49.0646   34.6238   42.9085 H   0  0  0  0  0  0  0  0  0  0  0  0
   48.0112   36.0200   42.8156 H   0  0  0  0  0  0  0  0  0  0  0  0
   43.9608   36.2735   45.2768 H   0  0  0  0  0  0  0  0  0  0  0  0
   45.1888   36.1114   43.0852 H   0  0  0  0  0  0  0  0  0  0  0  0
   47.2814   32.5999   48.5989 H   0  0  0  0  0  0  0  0  0  0  0  0
   48.0034   31.7756   47.1755 H   0  0  0  0  0  0  0  0  0  0  0  0
   47.8076   33.5612   47.1755 H   0  0  0  0  0  0  0  0  0  0  0  0
   45.4828   32.4952   48.9682 H   0  0  0  0  0  0  0  0  0  0  0  0
   44.4067   33.4789   47.9190 H   0  0  0  0  0  0  0  0  0  0  0  0
   44.2687   31.6879   47.9190 H   0  0  0  0  0  0  0  0  0  0  0  0
   45.9065   30.3103   46.8743 H   0  0  0  0  0  0  0  0  0  0  0  0
   45.0341   31.0990   45.5165 H   0  0  0  0  0  0  0  0  0  0  0  0
   46.8294   31.0392   45.5165 H   0  0  0  0  0  0  0  0  0  0  0  0
  1  8  1  0
  2  1  1  0
  3  4  1  0
  3  2  1  0
  4  5  1  0
  5  1  1  0
  6 11  2  0
  7  6  1  0
  8  7  2  0
  8  9  1  0
  9 10  2  0
 10 11  1  0
 10 12  1  0
 12 13  1  0
 12 14  1  0
 15 12  1  0
  1 16  1  0
  2 17  1  0
  2 18  1  0
  3 19  1  0
  3 20  1  0
  4 21  1  0
  4 22  1  0
  5 23  1  0
  5 24  1  0
  6 25  1  0
  7 26  1  0
 13 27  1  0
 13 28  1  0
 13 29  1  0
 14 30  1  0
 14 31  1  0
 14 32  1  0
 15 33  1  0
 15 34  1  0
 15 35  1  0
M  ISO  8  16  13  17  13  18  13  19  13  20  13  21  13  22  13  23  13
M  ISO  8  24  13  25  14  26  14  27   8  28   8  29   8  30   8  31   8
M  ISO  4  32   8  33   8  34   8  35   8
M  END
>  <minimizedAffinity>  (1) 
-5.1497097

>  <minimizedRMSD>  (1) 
0.703480661

$$$$
