
     RDKit          3D

 25 26  0  0  0  0  0  0  0  0999 V2000
   47.0800   34.3050   42.2020 C   0  0  0  0  0  0  0  0  0  0  0  0
   46.3700   34.2950   40.9020 C   0  0  0  0  0  0  0  0  0  0  0  0
   47.5490   34.1900   39.9410 C   0  0  0  0  0  0  0  0  0  0  0  0
   48.5260   35.1930   40.5460 C   0  0  0  0  0  0  0  0  0  0  0  0
   48.1660   35.3470   42.0030 C   0  0  0  0  0  0  0  0  0  0  0  0
   44.5830   35.7950   44.6140 C   0  0  0  0  0  0  0  0  0  0  0  0
   45.3350   35.6350   43.4300 C   0  0  0  0  0  0  0  0  0  0  0  0
   46.2490   34.5610   43.3830 C   0  0  0  0  0  0  0  0  0  0  0  0
   46.3430   33.7620   44.4660 N   0  0  0  0  0  0  0  0  0  0  0  0
   45.6070   33.9450   45.5850 C   0  0  0  0  0  0  0  0  0  0  0  0
   44.7290   34.9630   45.6520 N   0  0  0  0  0  0  0  0  0  0  0  0
   45.7960   33.0140   46.6950 C   0  0  0  0  0  0  0  0  0  0  0  0
   44.9900   33.0930   47.6600 O   0  0  0  0  0  0  0  0  0  0  0  0
   47.4676   33.3036   42.4405 H   0  0  0  0  0  0  0  0  0  0  0  0
   45.6963   33.4299   40.8141 H   0  0  0  0  0  0  0  0  0  0  0  0
   45.7156   35.1625   40.7309 H   0  0  0  0  0  0  0  0  0  0  0  0
   47.2608   34.4765   38.9188 H   0  0  0  0  0  0  0  0  0  0  0  0
   47.9558   33.1730   39.8403 H   0  0  0  0  0  0  0  0  0  0  0  0
   49.5563   34.8197   40.4502 H   0  0  0  0  0  0  0  0  0  0  0  0
   48.4639   36.1599   40.0252 H   0  0  0  0  0  0  0  0  0  0  0  0
   49.0332   35.1415   42.6478 H   0  0  0  0  0  0  0  0  0  0  0  0
   47.8406   36.3652   42.2624 H   0  0  0  0  0  0  0  0  0  0  0  0
   43.8610   36.6219   44.6849 H   0  0  0  0  0  0  0  0  0  0  0  0
   45.2133   36.3202   42.5781 H   0  0  0  0  0  0  0  0  0  0  0  0
   46.6095   32.2737   46.6884 H   0  0  0  0  0  0  0  0  0  0  0  0
  1  8  1  0
  2  1  1  0
  3  4  1  0
  3  2  1  0
  4  5  1  0
  5  1  1  0
  6 11  2  0
  7  6  1  0
  8  7  2  0
  8  9  1  0
  9 10  2  0
 10 11  1  0
 10 12  1  0
 12 13  2  0
  1 14  1  0
  2 15  1  0
  2 16  1  0
  3 17  1  0
  3 18  1  0
  4 19  1  0
  4 20  1  0
  5 21  1  0
  5 22  1  0
  6 23  1  0
  7 24  1  0
 12 25  1  0
M  ISO  8  14  13  15  13  16  13  17  13  18  13  19  13  20  13  21  13
M  ISO  4  22  13  23  14  24  14  25   6
M  END
>  <minimizedAffinity>  (1) 
-4.97861481

>  <minimizedRMSD>  (1) 
0.267954051

$$$$
