
     RDKit          3D

 51 54  0  0  1  0  0  0  0  0999 V2000
   45.6200   34.1680   42.2290 C   0  0  0  0  0  0  0  0  0  0  0  0
   47.0240   34.2740   42.3240 C   0  0  0  0  0  0  0  0  0  0  0  0
   47.6340   33.9160   43.5340 C   0  0  0  0  0  0  0  0  0  0  0  0
   46.8880   33.4880   44.5550 N   0  0  0  0  0  0  0  0  0  0  0  0
   45.5440   33.3870   44.4610 C   0  0  0  0  0  0  0  0  0  0  0  0
   44.9490   33.7240   43.3200 N   0  0  0  0  0  0  0  0  0  0  0  0
   44.8400   34.5380   41.1040 C   0  0  0  0  0  0  0  0  0  0  0  0
   43.9290   33.3510   40.6640 C   0  0  0  0  0  0  0  0  0  0  0  0
   42.9860   34.0710   39.7090 C   0  0  0  0  0  0  0  0  0  0  0  0
   42.8830   35.4570   40.2700 C   0  0  0  0  0  0  0  0  0  0  0  0
   43.7620   35.4980   41.5110 C   0  0  0  0  0  0  0  0  0  0  0  0
   47.8140   34.7630   41.1850 C   0  0  1  0  0  0  0  0  0  0  0  0
   48.8190   35.7760   41.5650 C   0  0  0  0  0  0  0  0  0  0  0  0
   48.3740   33.5780   40.4470 C   0  0  0  0  0  0  0  0  0  0  0  0
   47.9290   33.5030   39.0830 N   0  0  0  0  0  0  0  0  0  0  0  0
   48.4400   34.4690   38.3150 N   0  0  0  0  0  0  0  0  0  0  0  0
   47.9860   34.3340   37.0640 C   0  0  0  0  0  0  0  0  0  0  0  0
   47.1560   33.2440   37.0260 C   0  0  0  0  0  0  0  0  0  0  0  0
   47.1430   32.7460   38.3100 C   0  0  0  0  0  0  0  0  0  0  0  0
   46.4650   31.6430   38.8820 N   0  0  0  0  0  0  0  0  0  0  0  0
   45.3100   31.1150   38.1300 C   0  0  0  0  0  0  0  0  0  0  0  0
   45.1390   29.7030   38.6420 C   0  0  0  0  0  0  0  0  0  0  0  0
   45.3930   29.9460   40.1090 C   0  0  0  0  0  0  0  0  0  0  0  0
   46.5990   30.8560   40.0620 C   0  0  0  0  0  0  0  0  0  0  0  0
   48.7263   33.9876   43.6423 H   0  0  0  0  0  0  0  0  0  0  0  0
   44.9502   33.0311   45.3159 H   0  0  0  0  0  0  0  0  0  0  0  0
   45.5594   34.9029   40.3562 H   0  0  0  0  0  0  0  0  0  0  0  0
   44.5037   32.5647   40.1527 H   0  0  0  0  0  0  0  0  0  0  0  0
   43.4317   32.8215   41.4901 H   0  0  0  0  0  0  0  0  0  0  0  0
   42.0004   33.5828   39.6918 H   0  0  0  0  0  0  0  0  0  0  0  0
   43.3499   34.0624   38.6710 H   0  0  0  0  0  0  0  0  0  0  0  0
   43.2369   36.1913   39.5314 H   0  0  0  0  0  0  0  0  0  0  0  0
   41.8403   35.7050   40.5177 H   0  0  0  0  0  0  0  0  0  0  0  0
   43.2224   35.1500   42.4042 H   0  0  0  0  0  0  0  0  0  0  0  0
   44.1182   36.5002   41.7914 H   0  0  0  0  0  0  0  0  0  0  0  0
   47.1583   35.3157   40.4961 H   0  0  0  0  0  0  0  0  0  0  0  0
   48.8806   35.8381   42.6615 H   0  0  0  0  0  0  0  0  0  0  0  0
   49.8001   35.4897   41.1583 H   0  0  0  0  0  0  0  0  0  0  0  0
   48.5249   36.7548   41.1583 H   0  0  0  0  0  0  0  0  0  0  0  0
   49.4718   33.6478   40.4540 H   0  0  0  0  0  0  0  0  0  0  0  0
   48.0161   32.6728   40.9595 H   0  0  0  0  0  0  0  0  0  0  0  0
   48.2356   34.9850   36.2132 H   0  0  0  0  0  0  0  0  0  0  0  0
   46.6142   32.8499   36.1536 H   0  0  0  0  0  0  0  0  0  0  0  0
   45.5167   31.1145   37.0496 H   0  0  0  0  0  0  0  0  0  0  0  0
   44.4049   31.7239   38.2714 H   0  0  0  0  0  0  0  0  0  0  0  0
   44.1250   29.3184   38.4580 H   0  0  0  0  0  0  0  0  0  0  0  0
   45.7865   28.9492   38.1703 H   0  0  0  0  0  0  0  0  0  0  0  0
   44.5353   30.4407   40.5883 H   0  0  0  0  0  0  0  0  0  0  0  0
   45.5479   29.0277   40.6945 H   0  0  0  0  0  0  0  0  0  0  0  0
   47.5230   30.2607   40.0191 H   0  0  0  0  0  0  0  0  0  0  0  0
   46.6547   31.4899   40.9592 H   0  0  0  0  0  0  0  0  0  0  0  0
  1  2  1  0
  1  6  2  0
  2  3  2  0
  3  4  1  0
  5  4  2  0
  6  5  1  0
  7 11  1  0
  7  1  1  0
  8  7  1  0
  9 10  1  0
  9  8  1  0
 10 11  1  0
 12 13  1  0
 12  2  1  0
 14 12  1  0
 15 14  1  0
 16 15  1  0
 17 16  2  0
 18 17  1  0
 18 19  2  0
 19 20  1  0
 19 15  1  0
 20 24  1  0
 21 22  1  0
 21 20  1  0
 22 23  1  0
 24 23  1  0
  3 25  1  0
  5 26  1  0
  7 27  1  0
  8 28  1  0
  8 29  1  0
  9 30  1  0
  9 31  1  0
 10 32  1  0
 10 33  1  0
 11 34  1  0
 11 35  1  0
 12 36  1  6
 13 37  1  0
 13 38  1  0
 13 39  1  0
 14 40  1  0
 14 41  1  0
 17 42  1  0
 18 43  1  0
 21 44  1  0
 21 45  1  0
 22 46  1  0
 22 47  1  0
 23 48  1  0
 23 49  1  0
 24 50  1  0
 24 51  1  0
M  ISO  8  25  14  26  14  27  13  28  13  29  13  30  13  31  13  32  13
M  ISO  8  33  13  34  13  35  13  36   8  37   8  38   8  39   8  40   8
M  ISO  8  41   8  42  14  43  14  44  13  45  13  46  13  47  13  48  13
M  ISO  3  49  13  50  13  51  13
M  END
>  <minimizedAffinity>  (1) 
-4.96885872

>  <minimizedRMSD>  (1) 
1.19479191

$$$$
