
     RDKit          3D

 39 41  0  0  0  0  0  0  0  0999 V2000
   44.6110   36.0100   44.5470 C   0  0  0  0  0  0  0  0  0  0  0  0
   45.3970   35.7960   43.3930 C   0  0  0  0  0  0  0  0  0  0  0  0
   46.2320   34.6490   43.3590 C   0  0  0  0  0  0  0  0  0  0  0  0
   46.2100   33.8390   44.4450 N   0  0  0  0  0  0  0  0  0  0  0  0
   45.4480   34.0630   45.5420 C   0  0  0  0  0  0  0  0  0  0  0  0
   44.6510   35.1540   45.5820 N   0  0  0  0  0  0  0  0  0  0  0  0
   47.0860   34.3340   42.2150 C   0  0  0  0  0  0  0  0  0  0  0  0
   46.4190   34.2750   40.9090 C   0  0  0  0  0  0  0  0  0  0  0  0
   47.6240   34.1480   39.9870 C   0  0  0  0  0  0  0  0  0  0  0  0
   48.5760   35.1520   40.5650 C   0  0  0  0  0  0  0  0  0  0  0  0
   48.1640   35.3990   42.0080 C   0  0  0  0  0  0  0  0  0  0  0  0
   45.4920   33.1260   46.6750 C   0  0  0  0  0  0  0  0  0  0  0  0
   46.7000   32.3770   46.7310 N   0  0  0  0  0  0  0  0  0  0  0  0
   47.5100   32.5480   47.8820 C   0  0  0  0  0  0  0  0  0  0  0  0
   47.7860   31.2750   48.6450 C   0  0  0  0  0  0  0  0  0  0  0  0
   46.6470   30.4760   48.5280 O   0  0  0  0  0  0  0  0  0  0  0  0
   46.6680   29.9660   47.2190 C   0  0  0  0  0  0  0  0  0  0  0  0
   46.6390   31.0630   46.1910 C   0  0  0  0  0  0  0  0  0  0  0  0
   43.9555   36.8918   44.5992 H   0  0  0  0  0  0  0  0  0  0  0  0
   45.3629   36.4973   42.5462 H   0  0  0  0  0  0  0  0  0  0  0  0
   47.4667   33.3398   42.4918 H   0  0  0  0  0  0  0  0  0  0  0  0
   45.7546   33.4017   40.8315 H   0  0  0  0  0  0  0  0  0  0  0  0
   45.7630   35.1305   40.6905 H   0  0  0  0  0  0  0  0  0  0  0  0
   47.3601   34.4007   38.9495 H   0  0  0  0  0  0  0  0  0  0  0  0
   48.0351   33.1289   39.9374 H   0  0  0  0  0  0  0  0  0  0  0  0
   49.6027   34.7587   40.5302 H   0  0  0  0  0  0  0  0  0  0  0  0
   48.5461   36.0887   39.9891 H   0  0  0  0  0  0  0  0  0  0  0  0
   49.0093   35.2517   42.6963 H   0  0  0  0  0  0  0  0  0  0  0  0
   47.8182   36.4250   42.2021 H   0  0  0  0  0  0  0  0  0  0  0  0
   45.3918   33.6996   47.6082 H   0  0  0  0  0  0  0  0  0  0  0  0
   44.6673   32.4103   46.5420 H   0  0  0  0  0  0  0  0  0  0  0  0
   48.4730   32.9746   47.5647 H   0  0  0  0  0  0  0  0  0  0  0  0
   46.9524   33.2076   48.5631 H   0  0  0  0  0  0  0  0  0  0  0  0
   48.6565   30.7578   48.2152 H   0  0  0  0  0  0  0  0  0  0  0  0
   48.0092   31.4896   49.7005 H   0  0  0  0  0  0  0  0  0  0  0  0
   47.5851   29.3742   47.0822 H   0  0  0  0  0  0  0  0  0  0  0  0
   45.7714   29.3441   47.0803 H   0  0  0  0  0  0  0  0  0  0  0  0
   45.7060   30.9706   45.6158 H   0  0  0  0  0  0  0  0  0  0  0  0
   47.5394   30.9364   45.5719 H   0  0  0  0  0  0  0  0  0  0  0  0
  1  6  2  0
  2  1  1  0
  3  2  2  0
  3  4  1  0
  4  5  2  0
  5  6  1  0
  5 12  1  0
  7  3  1  0
  8  7  1  0
  9 10  1  0
  9  8  1  0
 10 11  1  0
 11  7  1  0
 12 13  1  0
 13 14  1  0
 14 15  1  0
 16 15  1  0
 17 16  1  0
 18 13  1  0
 18 17  1  0
  1 19  1  0
  2 20  1  0
  7 21  1  0
  8 22  1  0
  8 23  1  0
  9 24  1  0
  9 25  1  0
 10 26  1  0
 10 27  1  0
 11 28  1  0
 11 29  1  0
 12 30  1  0
 12 31  1  0
 14 32  1  0
 14 33  1  0
 15 34  1  0
 15 35  1  0
 17 36  1  0
 17 37  1  0
 18 38  1  0
 18 39  1  0
M  ISO  8  19  14  20  14  21  13  22  13  23  13  24  13  25  13  26  13
M  ISO  8  27  13  28  13  29  13  30   8  31   8  32  13  33  13  34  13
M  ISO  5  35  13  36  13  37  13  38  13  39  13
M  END
>  <minimizedAffinity>  (1) 
-5.72656012

>  <minimizedRMSD>  (1) 
1.2714138

$$$$
