
     RDKit          3D

 36 38  0  0  0  0  0  0  0  0999 V2000
   44.8600   35.1500   44.5240 C   0  0  0  0  0  0  0  0  0  0  0  0
   45.6030   35.1820   43.3180 C   0  0  0  0  0  0  0  0  0  0  0  0
   46.7560   34.3560   43.2370 C   0  0  0  0  0  0  0  0  0  0  0  0
   47.0470   33.6030   44.3260 N   0  0  0  0  0  0  0  0  0  0  0  0
   46.3350   33.5810   45.4610 C   0  0  0  0  0  0  0  0  0  0  0  0
   45.2320   34.3650   45.5540 N   0  0  0  0  0  0  0  0  0  0  0  0
   47.6080   34.3040   42.0470 C   0  0  0  0  0  0  0  0  0  0  0  0
   46.9070   34.2490   40.7610 C   0  0  0  0  0  0  0  0  0  0  0  0
   48.0360   34.4840   39.7880 C   0  0  0  0  0  0  0  0  0  0  0  0
   48.8550   35.5310   40.4580 C   0  0  0  0  0  0  0  0  0  0  0  0
   48.4670   35.5630   41.9280 C   0  0  0  0  0  0  0  0  0  0  0  0
   46.7100   32.7420   46.5990 C   0  0  0  0  0  0  0  0  0  0  0  0
   46.0090   31.4580   46.4890 N   0  0  0  0  0  0  0  0  0  0  0  0
   46.1310   30.6710   45.3980 C   0  0  0  0  0  0  0  0  0  0  0  0
   45.4350   29.4790   45.3800 C   0  0  0  0  0  0  0  0  0  0  0  0
   44.6370   29.0840   46.4280 C   0  0  0  0  0  0  0  0  0  0  0  0
   43.9760   28.0170   46.4840 O   0  0  0  0  0  0  0  0  0  0  0  0
   44.5790   29.9350   47.4710 N   0  0  0  0  0  0  0  0  0  0  0  0
   45.2420   31.1170   47.5390 C   0  0  0  0  0  0  0  0  0  0  0  0
   45.1180   31.8290   48.5510 O   0  0  0  0  0  0  0  0  0  0  0  0
   43.9622   35.7781   44.6213 H   0  0  0  0  0  0  0  0  0  0  0  0
   45.2987   35.8219   42.4766 H   0  0  0  0  0  0  0  0  0  0  0  0
   48.1722   33.3736   42.2086 H   0  0  0  0  0  0  0  0  0  0  0  0
   46.4379   33.2669   40.6015 H   0  0  0  0  0  0  0  0  0  0  0  0
   46.0817   34.9706   40.6707 H   0  0  0  0  0  0  0  0  0  0  0  0
   47.6540   34.8420   38.8206 H   0  0  0  0  0  0  0  0  0  0  0  0
   48.6064   33.5708   39.5626 H   0  0  0  0  0  0  0  0  0  0  0  0
   49.9235   35.2889   40.3593 H   0  0  0  0  0  0  0  0  0  0  0  0
   48.6745   36.5119   39.9940 H   0  0  0  0  0  0  0  0  0  0  0  0
   49.3526   35.5076   42.5781 H   0  0  0  0  0  0  0  0  0  0  0  0
   47.9531   36.4859   42.2351 H   0  0  0  0  0  0  0  0  0  0  0  0
   47.7968   32.5721   46.5912 H   0  0  0  0  0  0  0  0  0  0  0  0
   46.4325   33.2407   47.5394 H   0  0  0  0  0  0  0  0  0  0  0  0
   46.7650   30.9705   44.5505 H   0  0  0  0  0  0  0  0  0  0  0  0
   45.5214   28.8247   44.5000 H   0  0  0  0  0  0  0  0  0  0  0  0
   43.9899   29.6697   48.2732 H   0  0  0  0  0  0  0  0  0  0  0  0
  1  6  2  0
  2  1  1  0
  3  2  2  0
  3  4  1  0
  4  5  2  0
  5  6  1  0
  5 12  1  0
  7  3  1  0
  8  7  1  0
  9 10  1  0
  9  8  1  0
 10 11  1  0
 11  7  1  0
 13 12  1  0
 13 19  1  0
 14 13  1  0
 15 14  2  0
 15 16  1  0
 16 17  2  0
 16 18  1  0
 18 19  1  0
 19 20  2  0
  1 21  1  0
  2 22  1  0
  7 23  1  0
  8 24  1  0
  8 25  1  0
  9 26  1  0
  9 27  1  0
 10 28  1  0
 10 29  1  0
 11 30  1  0
 11 31  1  0
 12 32  1  0
 12 33  1  0
 14 34  1  0
 15 35  1  0
 18 36  1  0
M  ISO  8  21  14  22  14  23  13  24  13  25  13  26  13  27  13  28  13
M  ISO  8  29  13  30  13  31  13  32   8  33   8  34  14  35  14  36   9
M  END
>  <minimizedAffinity>  (1) 
-5.88747263

>  <minimizedRMSD>  (1) 
1.18500841

$$$$
