
     RDKit          3D

 40 42  0  0  0  0  0  0  0  0999 V2000
   44.9230   35.2250   44.6290 C   0  0  0  0  0  0  0  0  0  0  0  0
   45.7100   35.2900   43.4570 C   0  0  0  0  0  0  0  0  0  0  0  0
   46.6950   34.2850   43.2640 C   0  0  0  0  0  0  0  0  0  0  0  0
   46.8040   33.3430   44.2130 N   0  0  0  0  0  0  0  0  0  0  0  0
   46.0530   33.2870   45.3240 C   0  0  0  0  0  0  0  0  0  0  0  0
   45.1170   34.2270   45.5260 N   0  0  0  0  0  0  0  0  0  0  0  0
   47.5620   34.2700   42.0760 C   0  0  0  0  0  0  0  0  0  0  0  0
   46.8820   34.2740   40.7750 C   0  0  0  0  0  0  0  0  0  0  0  0
   48.0660   34.4650   39.8420 C   0  0  0  0  0  0  0  0  0  0  0  0
   48.8450   35.5530   40.5540 C   0  0  0  0  0  0  0  0  0  0  0  0
   48.4470   35.5170   42.0110 C   0  0  0  0  0  0  0  0  0  0  0  0
   46.2220   32.2210   46.3090 C   0  0  0  0  0  0  0  0  0  0  0  0
   46.3350   32.6930   47.6680 N   0  0  0  0  0  0  0  0  0  0  0  0
   45.3530   32.1770   48.5680 C   0  0  0  0  0  0  0  0  0  0  0  0
   45.6130   30.7850   49.0500 C   0  0  0  0  0  0  0  0  0  0  0  0
   46.9590   30.5630   49.5160 N   0  0  0  0  0  0  0  0  0  0  0  0
   47.9090   30.9830   48.5000 C   0  0  0  0  0  0  0  0  0  0  0  0
   47.6770   32.4400   48.1190 C   0  0  0  0  0  0  0  0  0  0  0  0
   44.1508   35.9863   44.8140 H   0  0  0  0  0  0  0  0  0  0  0  0
   45.5646   36.0923   42.7187 H   0  0  0  0  0  0  0  0  0  0  0  0
   48.1047   33.3233   42.2144 H   0  0  0  0  0  0  0  0  0  0  0  0
   46.3648   33.3221   40.5846 H   0  0  0  0  0  0  0  0  0  0  0  0
   46.0924   35.0331   40.6737 H   0  0  0  0  0  0  0  0  0  0  0  0
   47.7410   34.7924   38.8434 H   0  0  0  0  0  0  0  0  0  0  0  0
   48.6444   33.5471   39.6605 H   0  0  0  0  0  0  0  0  0  0  0  0
   49.9248   35.3680   40.4549 H   0  0  0  0  0  0  0  0  0  0  0  0
   48.6240   36.5376   40.1162 H   0  0  0  0  0  0  0  0  0  0  0  0
   49.3276   35.4150   42.6622 H   0  0  0  0  0  0  0  0  0  0  0  0
   47.9434   36.4332   42.3530 H   0  0  0  0  0  0  0  0  0  0  0  0
   45.3522   31.5506   46.2464 H   0  0  0  0  0  0  0  0  0  0  0  0
   47.1665   31.7110   46.0686 H   0  0  0  0  0  0  0  0  0  0  0  0
   45.3103   32.8402   49.4446 H   0  0  0  0  0  0  0  0  0  0  0  0
   44.4081   32.1385   48.0061 H   0  0  0  0  0  0  0  0  0  0  0  0
   44.9215   30.5720   49.8785 H   0  0  0  0  0  0  0  0  0  0  0  0
   45.4630   30.1186   48.1878 H   0  0  0  0  0  0  0  0  0  0  0  0
   47.1166   31.1065   50.3766 H   0  0  0  0  0  0  0  0  0  0  0  0
   48.9307   30.8699   48.8915 H   0  0  0  0  0  0  0  0  0  0  0  0
   47.7727   30.3565   47.6062 H   0  0  0  0  0  0  0  0  0  0  0  0
   48.3749   32.7073   47.3119 H   0  0  0  0  0  0  0  0  0  0  0  0
   47.8426   33.0477   49.0208 H   0  0  0  0  0  0  0  0  0  0  0  0
  1  6  2  0
  2  1  1  0
  3  2  2  0
  3  4  1  0
  4  5  2  0
  5  6  1  0
  5 12  1  0
  7  3  1  0
  8  7  1  0
  9 10  1  0
  9  8  1  0
 10 11  1  0
 11  7  1  0
 12 13  1  0
 13 18  1  0
 13 14  1  0
 14 15  1  0
 15 16  1  0
 17 16  1  0
 18 17  1  0
  1 19  1  0
  2 20  1  0
  7 21  1  0
  8 22  1  0
  8 23  1  0
  9 24  1  0
  9 25  1  0
 10 26  1  0
 10 27  1  0
 11 28  1  0
 11 29  1  0
 12 30  1  0
 12 31  1  0
 14 32  1  0
 14 33  1  0
 15 34  1  0
 15 35  1  0
 16 36  1  0
 17 37  1  0
 17 38  1  0
 18 39  1  0
 18 40  1  0
M  ISO  8  19  14  20  14  21  13  22  13  23  13  24  13  25  13  26  13
M  ISO  8  27  13  28  13  29  13  30   8  31   8  32  13  33  13  34  13
M  ISO  6  35  13  36   5  37  13  38  13  39  13  40  13
M  END
>  <minimizedAffinity>  (1) 
-5.9763484

>  <minimizedRMSD>  (1) 
1.25082922

$$$$
