
     RDKit          3D

 41 43  0  0  0  0  0  0  0  0999 V2000
   44.6070   35.9640   44.4900 C   0  0  0  0  0  0  0  0  0  0  0  0
   45.3800   35.7680   43.3280 C   0  0  0  0  0  0  0  0  0  0  0  0
   46.2470   34.6460   43.3060 C   0  0  0  0  0  0  0  0  0  0  0  0
   46.2570   33.8660   44.3970 N   0  0  0  0  0  0  0  0  0  0  0  0
   45.5180   34.0540   45.5060 C   0  0  0  0  0  0  0  0  0  0  0  0
   44.6860   35.1280   45.5300 N   0  0  0  0  0  0  0  0  0  0  0  0
   47.1050   34.3390   42.1560 C   0  0  0  0  0  0  0  0  0  0  0  0
   46.4410   34.2940   40.8490 C   0  0  0  0  0  0  0  0  0  0  0  0
   47.6210   34.1920   39.9140 C   0  0  0  0  0  0  0  0  0  0  0  0
   48.5910   35.1710   40.5070 C   0  0  0  0  0  0  0  0  0  0  0  0
   48.1650   35.4210   41.9320 C   0  0  0  0  0  0  0  0  0  0  0  0
   45.6140   33.1230   46.6260 C   0  0  0  0  0  0  0  0  0  0  0  0
   46.8160   32.3460   46.6710 N   0  0  0  0  0  0  0  0  0  0  0  0
   46.4040   30.9760   46.4170 C   0  0  0  0  0  0  0  0  0  0  0  0
   47.4130   29.9700   46.8720 C   0  0  0  0  0  0  0  0  0  0  0  0
   47.9060   30.1480   48.2670 C   0  0  0  0  0  0  0  0  0  0  0  0
   47.1930   31.3370   48.8740 C   0  0  0  0  0  0  0  0  0  0  0  0
   47.4560   32.4980   47.9360 C   0  0  0  0  0  0  0  0  0  0  0  0
   43.9234   36.8242   44.5423 H   0  0  0  0  0  0  0  0  0  0  0  0
   45.3136   36.4571   42.4732 H   0  0  0  0  0  0  0  0  0  0  0  0
   47.4911   33.3488   42.4397 H   0  0  0  0  0  0  0  0  0  0  0  0
   45.7832   33.4166   40.7627 H   0  0  0  0  0  0  0  0  0  0  0  0
   45.7848   35.1541   40.6500 H   0  0  0  0  0  0  0  0  0  0  0  0
   47.3423   34.4795   38.8895 H   0  0  0  0  0  0  0  0  0  0  0  0
   48.0248   33.1725   39.8273 H   0  0  0  0  0  0  0  0  0  0  0  0
   49.6079   34.7521   40.4866 H   0  0  0  0  0  0  0  0  0  0  0  0
   48.5959   36.1092   39.9328 H   0  0  0  0  0  0  0  0  0  0  0  0
   49.0095   35.2999   42.6264 H   0  0  0  0  0  0  0  0  0  0  0  0
   47.7932   36.4416   42.1058 H   0  0  0  0  0  0  0  0  0  0  0  0
   45.5490   33.7038   47.5579 H   0  0  0  0  0  0  0  0  0  0  0  0
   44.7907   32.4049   46.4978 H   0  0  0  0  0  0  0  0  0  0  0  0
   45.4588   30.7897   46.9480 H   0  0  0  0  0  0  0  0  0  0  0  0
   46.2921   30.8617   45.3287 H   0  0  0  0  0  0  0  0  0  0  0  0
   46.9554   28.9724   46.7981 H   0  0  0  0  0  0  0  0  0  0  0  0
   48.2894   30.1025   46.2206 H   0  0  0  0  0  0  0  0  0  0  0  0
   47.6904   29.2444   48.8560 H   0  0  0  0  0  0  0  0  0  0  0  0
   48.9929   30.3172   48.2665 H   0  0  0  0  0  0  0  0  0  0  0  0
   46.1132   31.1401   48.9467 H   0  0  0  0  0  0  0  0  0  0  0  0
   47.5526   31.5488   49.8918 H   0  0  0  0  0  0  0  0  0  0  0  0
   48.5409   32.5785   47.7729 H   0  0  0  0  0  0  0  0  0  0  0  0
   47.0443   33.4026   48.4073 H   0  0  0  0  0  0  0  0  0  0  0  0
  1  6  2  0
  2  1  1  0
  3  2  2  0
  3  4  1  0
  4  5  2  0
  5  6  1  0
  5 12  1  0
  7  3  1  0
  8  7  1  0
  9 10  1  0
  9  8  1  0
 10 11  1  0
 11  7  1  0
 12 13  1  0
 13 18  1  0
 14 13  1  0
 14 15  1  0
 15 16  1  0
 16 17  1  0
 18 17  1  0
  1 19  1  0
  2 20  1  0
  7 21  1  0
  8 22  1  0
  8 23  1  0
  9 24  1  0
  9 25  1  0
 10 26  1  0
 10 27  1  0
 11 28  1  0
 11 29  1  0
 12 30  1  0
 12 31  1  0
 14 32  1  0
 14 33  1  0
 15 34  1  0
 15 35  1  0
 16 36  1  0
 16 37  1  0
 17 38  1  0
 17 39  1  0
 18 40  1  0
 18 41  1  0
M  ISO  8  19  14  20  14  21  13  22  13  23  13  24  13  25  13  26  13
M  ISO  8  27  13  28  13  29  13  30   8  31   8  32  13  33  13  34  13
M  ISO  7  35  13  36  13  37  13  38  13  39  13  40  13  41  13
M  END
>  <minimizedAffinity>  (1) 
-5.92211533

>  <minimizedRMSD>  (1) 
1.32570767

$$$$
