
     RDKit          3D

 34 36  0  0  0  0  0  0  0  0999 V2000
   44.8430   35.1180   44.5310 C   0  0  0  0  0  0  0  0  0  0  0  0
   45.6000   35.1320   43.3380 C   0  0  0  0  0  0  0  0  0  0  0  0
   46.7660   34.3250   43.2620 C   0  0  0  0  0  0  0  0  0  0  0  0
   47.0690   33.5940   44.3490 N   0  0  0  0  0  0  0  0  0  0  0  0
   46.3310   33.5960   45.4830 C   0  0  0  0  0  0  0  0  0  0  0  0
   45.2280   34.3550   45.5650 N   0  0  0  0  0  0  0  0  0  0  0  0
   47.5940   34.2950   42.0560 C   0  0  0  0  0  0  0  0  0  0  0  0
   46.8790   34.2530   40.7740 C   0  0  0  0  0  0  0  0  0  0  0  0
   48.0310   34.4250   39.7990 C   0  0  0  0  0  0  0  0  0  0  0  0
   48.8540   35.5050   40.4650 C   0  0  0  0  0  0  0  0  0  0  0  0
   48.4600   35.5480   41.9210 C   0  0  0  0  0  0  0  0  0  0  0  0
   46.7560   32.7560   46.6250 C   0  0  0  0  0  0  0  0  0  0  0  0
   46.0230   31.4460   46.6020 C   0  0  0  0  0  0  0  0  0  0  0  0
   45.5400   30.9630   47.8150 C   0  0  0  0  0  0  0  0  0  0  0  0
   44.8710   29.7720   47.8110 C   0  0  0  0  0  0  0  0  0  0  0  0
   44.6590   29.0450   46.6780 N   0  0  0  0  0  0  0  0  0  0  0  0
   45.1530   29.5650   45.5180 C   0  0  0  0  0  0  0  0  0  0  0  0
   45.8190   30.7340   45.4690 N   0  0  0  0  0  0  0  0  0  0  0  0
   43.9355   35.7344   44.6121 H   0  0  0  0  0  0  0  0  0  0  0  0
   45.2924   35.7553   42.4855 H   0  0  0  0  0  0  0  0  0  0  0  0
   48.1538   33.3613   42.2137 H   0  0  0  0  0  0  0  0  0  0  0  0
   46.3656   33.2911   40.6283 H   0  0  0  0  0  0  0  0  0  0  0  0
   46.0813   35.0036   40.6730 H   0  0  0  0  0  0  0  0  0  0  0  0
   47.6723   34.7490   38.8109 H   0  0  0  0  0  0  0  0  0  0  0  0
   48.5907   33.4974   39.6084 H   0  0  0  0  0  0  0  0  0  0  0  0
   49.9248   35.2706   40.3732 H   0  0  0  0  0  0  0  0  0  0  0  0
   48.6718   36.4788   39.9871 H   0  0  0  0  0  0  0  0  0  0  0  0
   49.3428   35.4955   42.5752 H   0  0  0  0  0  0  0  0  0  0  0  0
   47.9452   36.4752   42.2128 H   0  0  0  0  0  0  0  0  0  0  0  0
   47.8378   32.5690   46.5565 H   0  0  0  0  0  0  0  0  0  0  0  0
   46.5260   33.2811   47.5638 H   0  0  0  0  0  0  0  0  0  0  0  0
   45.6925   31.5237   48.7490 H   0  0  0  0  0  0  0  0  0  0  0  0
   44.4862   29.3823   48.7650 H   0  0  0  0  0  0  0  0  0  0  0  0
   45.0009   29.0057   44.5831 H   0  0  0  0  0  0  0  0  0  0  0  0
  1  6  2  0
  2  1  1  0
  3  2  2  0
  3  4  1  0
  4  5  2  0
  5  6  1  0
  5 12  1  0
  7  3  1  0
  8  7  1  0
  9 10  1  0
  9  8  1  0
 10 11  1  0
 11  7  1  0
 13 12  1  0
 13 14  2  0
 15 14  1  0
 16 15  2  0
 17 16  1  0
 18 17  2  0
 18 13  1  0
  1 19  1  0
  2 20  1  0
  7 21  1  0
  8 22  1  0
  8 23  1  0
  9 24  1  0
  9 25  1  0
 10 26  1  0
 10 27  1  0
 11 28  1  0
 11 29  1  0
 12 30  1  0
 12 31  1  0
 14 32  1  0
 15 33  1  0
 17 34  1  0
M  ISO  8  19  14  20  14  21  13  22  13  23  13  24  13  25  13  26  13
M  ISO  8  27  13  28  13  29  13  30   8  31   8  32  14  33  14  34  14
M  END
>  <minimizedAffinity>  (1) 
-5.46404743

>  <minimizedRMSD>  (1) 
1.15593755

$$$$
