
     RDKit          3D

 47 50  0  0  1  0  0  0  0  0999 V2000
   47.7740   34.7380   41.1920 C   0  0  1  0  0  0  0  0  0  0  0  0
   45.6000   34.0940   42.2430 C   0  0  0  0  0  0  0  0  0  0  0  0
   46.9850   34.2450   42.3290 C   0  0  0  0  0  0  0  0  0  0  0  0
   47.6250   33.9210   43.5500 C   0  0  0  0  0  0  0  0  0  0  0  0
   46.8840   33.4840   44.5770 N   0  0  0  0  0  0  0  0  0  0  0  0
   45.5470   33.3420   44.4830 C   0  0  0  0  0  0  0  0  0  0  0  0
   44.9390   33.6420   43.3410 N   0  0  0  0  0  0  0  0  0  0  0  0
   44.8040   34.4170   41.1100 C   0  0  0  0  0  0  0  0  0  0  0  0
   43.8020   33.2630   40.8030 C   0  0  0  0  0  0  0  0  0  0  0  0
   42.8750   33.9780   39.8110 C   0  0  0  0  0  0  0  0  0  0  0  0
   42.8900   35.4150   40.2630 C   0  0  0  0  0  0  0  0  0  0  0  0
   43.8230   35.4950   41.4550 C   0  0  0  0  0  0  0  0  0  0  0  0
   48.7730   35.7640   41.5610 C   0  0  0  0  0  0  0  0  0  0  0  0
   48.3260   33.5460   40.4540 C   0  0  0  0  0  0  0  0  0  0  0  0
   47.9080   33.5170   39.0660 N   0  0  0  0  0  0  0  0  0  0  0  0
   48.4710   34.4580   38.3100 N   0  0  0  0  0  0  0  0  0  0  0  0
   48.0200   34.3470   37.0540 C   0  0  0  0  0  0  0  0  0  0  0  0
   47.1390   33.2990   37.0050 C   0  0  0  0  0  0  0  0  0  0  0  0
   47.0930   32.8020   38.2780 C   0  0  0  0  0  0  0  0  0  0  0  0
   46.3550   31.7110   38.8430 C   0  0  0  0  0  0  0  0  0  0  0  0
   45.2490   31.2960   38.1190 C   0  0  0  0  0  0  0  0  0  0  0  0
   44.3970   30.2820   38.4540 C   0  0  0  0  0  0  0  0  0  0  0  0
   44.6730   29.6230   39.6180 N   0  0  0  0  0  0  0  0  0  0  0  0
   45.7500   30.0070   40.3480 C   0  0  0  0  0  0  0  0  0  0  0  0
   46.5360   31.0020   39.9610 N   0  0  0  0  0  0  0  0  0  0  0  0
   47.1227   35.2964   40.5036 H   0  0  0  0  0  0  0  0  0  0  0  0
   48.7150   34.0266   43.6537 H   0  0  0  0  0  0  0  0  0  0  0  0
   44.9650   32.9811   45.3438 H   0  0  0  0  0  0  0  0  0  0  0  0
   45.5172   34.6565   40.3075 H   0  0  0  0  0  0  0  0  0  0  0  0
   44.3028   32.3978   40.3440 H   0  0  0  0  0  0  0  0  0  0  0  0
   43.3000   32.8364   41.6839 H   0  0  0  0  0  0  0  0  0  0  0  0
   41.8571   33.5640   39.8600 H   0  0  0  0  0  0  0  0  0  0  0  0
   43.2028   33.8606   38.7676 H   0  0  0  0  0  0  0  0  0  0  0  0
   43.2563   36.0622   39.4524 H   0  0  0  0  0  0  0  0  0  0  0  0
   41.8784   35.7521   40.5330 H   0  0  0  0  0  0  0  0  0  0  0  0
   43.2974   35.2789   42.3968 H   0  0  0  0  0  0  0  0  0  0  0  0
   44.2714   36.4860   41.6192 H   0  0  0  0  0  0  0  0  0  0  0  0
   48.8402   35.8330   42.6568 H   0  0  0  0  0  0  0  0  0  0  0  0
   49.7545   35.4845   41.1504 H   0  0  0  0  0  0  0  0  0  0  0  0
   48.4675   36.7377   41.1504 H   0  0  0  0  0  0  0  0  0  0  0  0
   49.4247   33.5840   40.4920 H   0  0  0  0  0  0  0  0  0  0  0  0
   47.9386   32.6391   40.9414 H   0  0  0  0  0  0  0  0  0  0  0  0
   48.3075   34.9873   36.2071 H   0  0  0  0  0  0  0  0  0  0  0  0
   46.5856   32.9344   36.1271 H   0  0  0  0  0  0  0  0  0  0  0  0
   45.0364   31.8351   37.1840 H   0  0  0  0  0  0  0  0  0  0  0  0
   43.5379   30.0118   37.8224 H   0  0  0  0  0  0  0  0  0  0  0  0
   45.9771   29.4789   41.2858 H   0  0  0  0  0  0  0  0  0  0  0  0
  1 13  1  0
  1  3  1  0
  2  3  1  0
  2  7  2  0
  3  4  2  0
  4  5  1  0
  6  5  2  0
  7  6  1  0
  8 12  1  0
  8  2  1  0
  9  8  1  0
 10 11  1  0
 10  9  1  0
 11 12  1  0
 14  1  1  0
 15 14  1  0
 16 15  1  0
 17 16  2  0
 18 17  1  0
 18 19  2  0
 19 20  1  0
 19 15  1  0
 20 25  2  0
 21 22  2  0
 21 20  1  0
 22 23  1  0
 23 24  2  0
 25 24  1  0
  1 26  1  6
  4 27  1  0
  6 28  1  0
  8 29  1  0
  9 30  1  0
  9 31  1  0
 10 32  1  0
 10 33  1  0
 11 34  1  0
 11 35  1  0
 12 36  1  0
 12 37  1  0
 13 38  1  0
 13 39  1  0
 13 40  1  0
 14 41  1  0
 14 42  1  0
 17 43  1  0
 18 44  1  0
 21 45  1  0
 22 46  1  0
 24 47  1  0
M  ISO  8  26   8  27  14  28  14  29  13  30  13  31  13  32  13  33  13
M  ISO  8  34  13  35  13  36  13  37  13  38   8  39   8  40   8  41   8
M  ISO  6  42   8  43  14  44  14  45  14  46  14  47  14
M  END
>  <minimizedAffinity>  (1) 
-4.96307373

>  <minimizedRMSD>  (1) 
1.44303405

$$$$
