
     RDKit          3D

 33 35  0  0  0  0  0  0  0  0999 V2000
   44.8540   35.1350   44.5520 C   0  0  0  0  0  0  0  0  0  0  0  0
   45.5910   35.1760   43.3440 C   0  0  0  0  0  0  0  0  0  0  0  0
   46.7420   34.3500   43.2620 C   0  0  0  0  0  0  0  0  0  0  0  0
   47.0340   33.5970   44.3440 N   0  0  0  0  0  0  0  0  0  0  0  0
   46.3240   33.5670   45.4860 C   0  0  0  0  0  0  0  0  0  0  0  0
   45.2350   34.3410   45.5830 N   0  0  0  0  0  0  0  0  0  0  0  0
   47.5930   34.3030   42.0670 C   0  0  0  0  0  0  0  0  0  0  0  0
   46.8880   34.2540   40.7790 C   0  0  0  0  0  0  0  0  0  0  0  0
   48.0320   34.4500   39.8090 C   0  0  0  0  0  0  0  0  0  0  0  0
   48.8620   35.5130   40.4890 C   0  0  0  0  0  0  0  0  0  0  0  0
   48.4430   35.5690   41.9380 C   0  0  0  0  0  0  0  0  0  0  0  0
   46.7210   32.7200   46.6040 C   0  0  0  0  0  0  0  0  0  0  0  0
   45.9860   31.4440   46.6810 C   0  0  0  0  0  0  0  0  0  0  0  0
   45.2700   30.7000   47.6800 C   0  0  0  0  0  0  0  0  0  0  0  0
   44.7440   29.5200   47.2660 C   0  0  0  0  0  0  0  0  0  0  0  0
   44.8620   29.0360   45.9990 C   0  0  0  0  0  0  0  0  0  0  0  0
   45.8500   30.3510   45.1400 S   0  0  0  0  0  0  0  0  0  0  0  0
   43.9545   35.7596   44.6563 H   0  0  0  0  0  0  0  0  0  0  0  0
   45.2850   35.8196   42.5061 H   0  0  0  0  0  0  0  0  0  0  0  0
   48.1597   33.3748   42.2320 H   0  0  0  0  0  0  0  0  0  0  0  0
   46.3929   33.2835   40.6273 H   0  0  0  0  0  0  0  0  0  0  0  0
   46.0799   34.9935   40.6787 H   0  0  0  0  0  0  0  0  0  0  0  0
   47.6680   34.7960   38.8304 H   0  0  0  0  0  0  0  0  0  0  0  0
   48.5909   33.5261   39.5992 H   0  0  0  0  0  0  0  0  0  0  0  0
   49.9294   35.2568   40.4178 H   0  0  0  0  0  0  0  0  0  0  0  0
   48.7066   36.4891   40.0062 H   0  0  0  0  0  0  0  0  0  0  0  0
   49.3144   35.5364   42.6085 H   0  0  0  0  0  0  0  0  0  0  0  0
   47.9118   36.4922   42.2128 H   0  0  0  0  0  0  0  0  0  0  0  0
   47.7933   32.4959   46.5043 H   0  0  0  0  0  0  0  0  0  0  0  0
   46.4881   33.2771   47.5234 H   0  0  0  0  0  0  0  0  0  0  0  0
   45.1559   31.0631   48.7121 H   0  0  0  0  0  0  0  0  0  0  0  0
   44.1880   28.9172   47.9991 H   0  0  0  0  0  0  0  0  0  0  0  0
   44.4681   28.0957   45.5857 H   0  0  0  0  0  0  0  0  0  0  0  0
  1  6  2  0
  2  1  1  0
  3  2  2  0
  3  4  1  0
  4  5  2  0
  5  6  1  0
  5 12  1  0
  7  3  1  0
  8  7  1  0
  9 10  1  0
  9  8  1  0
 10 11  1  0
 11  7  1  0
 12 13  1  0
 13 14  2  0
 15 14  1  0
 16 15  2  0
 17 16  1  0
 17 13  1  0
  1 18  1  0
  2 19  1  0
  7 20  1  0
  8 21  1  0
  8 22  1  0
  9 23  1  0
  9 24  1  0
 10 25  1  0
 10 26  1  0
 11 27  1  0
 11 28  1  0
 12 29  1  0
 12 30  1  0
 14 31  1  0
 15 32  1  0
 16 33  1  0
M  ISO  8  18  14  19  14  20  13  21  13  22  13  23  13  24  13  25  13
M  ISO  8  26  13  27  13  28  13  29   8  30   8  31  14  32  14  33  14
M  END
>  <minimizedAffinity>  (1) 
-5.38495207

>  <minimizedRMSD>  (1) 
0.982304811

$$$$
