
     RDKit          3D

 32 34  0  0  0  0  0  0  0  0999 V2000
   44.8320   35.1930   44.5520 C   0  0  0  0  0  0  0  0  0  0  0  0
   45.5810   35.2070   43.3490 C   0  0  0  0  0  0  0  0  0  0  0  0
   46.7120   34.3530   43.2710 C   0  0  0  0  0  0  0  0  0  0  0  0
   46.9730   33.6000   44.3550 N   0  0  0  0  0  0  0  0  0  0  0  0
   46.2650   33.5870   45.4910 C   0  0  0  0  0  0  0  0  0  0  0  0
   45.1810   34.3960   45.5830 N   0  0  0  0  0  0  0  0  0  0  0  0
   47.5600   34.2850   42.0840 C   0  0  0  0  0  0  0  0  0  0  0  0
   46.8630   34.2810   40.7900 C   0  0  0  0  0  0  0  0  0  0  0  0
   48.0450   34.4040   39.8400 C   0  0  0  0  0  0  0  0  0  0  0  0
   48.8410   35.5050   40.4990 C   0  0  0  0  0  0  0  0  0  0  0  0
   48.4760   35.5050   41.9670 C   0  0  0  0  0  0  0  0  0  0  0  0
   46.6200   32.7340   46.6240 C   0  0  0  0  0  0  0  0  0  0  0  0
   45.9690   31.4600   46.5910 N   0  0  0  0  0  0  0  0  0  0  0  0
   45.3510   31.0020   47.7150 C   0  0  0  0  0  0  0  0  0  0  0  0
   44.7980   29.7860   47.4830 N   0  0  0  0  0  0  0  0  0  0  0  0
   45.0790   29.4810   46.1870 C   0  0  0  0  0  0  0  0  0  0  0  0
   45.7860   30.5160   45.6840 N   0  0  0  0  0  0  0  0  0  0  0  0
   43.9502   35.8437   44.6468 H   0  0  0  0  0  0  0  0  0  0  0  0
   45.2965   35.8554   42.5072 H   0  0  0  0  0  0  0  0  0  0  0  0
   48.0786   33.3288   42.2478 H   0  0  0  0  0  0  0  0  0  0  0  0
   46.3087   33.3445   40.6299 H   0  0  0  0  0  0  0  0  0  0  0  0
   46.0999   35.0652   40.6772 H   0  0  0  0  0  0  0  0  0  0  0  0
   47.7208   34.6913   38.8289 H   0  0  0  0  0  0  0  0  0  0  0  0
   48.6050   33.4685   39.6943 H   0  0  0  0  0  0  0  0  0  0  0  0
   49.9178   35.3152   40.3786 H   0  0  0  0  0  0  0  0  0  0  0  0
   48.6137   36.4787   40.0405 H   0  0  0  0  0  0  0  0  0  0  0  0
   49.3698   35.3923   42.5983 H   0  0  0  0  0  0  0  0  0  0  0  0
   48.0028   36.4406   42.2998 H   0  0  0  0  0  0  0  0  0  0  0  0
   47.7079   32.5720   46.6133 H   0  0  0  0  0  0  0  0  0  0  0  0
   46.2901   33.2482   47.5387 H   0  0  0  0  0  0  0  0  0  0  0  0
   45.3069   31.5410   48.6729 H   0  0  0  0  0  0  0  0  0  0  0  0
   44.7862   28.5660   45.6512 H   0  0  0  0  0  0  0  0  0  0  0  0
  1  6  2  0
  2  1  1  0
  3  2  2  0
  3  4  1  0
  4  5  2  0
  5  6  1  0
  5 12  1  0
  7  3  1  0
  8  7  1  0
  9 10  1  0
  9  8  1  0
 10 11  1  0
 11  7  1  0
 13 12  1  0
 13 14  1  0
 15 14  2  0
 16 15  1  0
 17 16  2  0
 17 13  1  0
  1 18  1  0
  2 19  1  0
  7 20  1  0
  8 21  1  0
  8 22  1  0
  9 23  1  0
  9 24  1  0
 10 25  1  0
 10 26  1  0
 11 27  1  0
 11 28  1  0
 12 29  1  0
 12 30  1  0
 14 31  1  0
 16 32  1  0
M  ISO  8  18  14  19  14  20  13  21  13  22  13  23  13  24  13  25  13
M  ISO  7  26  13  27  13  28  13  29   8  30   8  31  14  32  14
M  END
>  <minimizedAffinity>  (1) 
-5.29421854

>  <minimizedRMSD>  (1) 
0.970535517

$$$$
