
     RDKit          3D

 28 29  0  0  0  0  0  0  0  0999 V2000
   47.0600   34.3000   42.2070 C   0  0  0  0  0  0  0  0  0  0  0  0
   46.3580   34.2920   40.9150 C   0  0  0  0  0  0  0  0  0  0  0  0
   47.5310   34.1820   39.9560 C   0  0  0  0  0  0  0  0  0  0  0  0
   48.5240   35.1510   40.5620 C   0  0  0  0  0  0  0  0  0  0  0  0
   48.1320   35.3710   42.0050 C   0  0  0  0  0  0  0  0  0  0  0  0
   44.5640   35.8320   44.6120 C   0  0  0  0  0  0  0  0  0  0  0  0
   45.3170   35.6560   43.4290 C   0  0  0  0  0  0  0  0  0  0  0  0
   46.2320   34.5710   43.3840 C   0  0  0  0  0  0  0  0  0  0  0  0
   46.3140   33.7840   44.4770 N   0  0  0  0  0  0  0  0  0  0  0  0
   45.5780   33.9780   45.5970 C   0  0  0  0  0  0  0  0  0  0  0  0
   44.7120   34.9960   45.6560 N   0  0  0  0  0  0  0  0  0  0  0  0
   45.7180   33.0510   46.7230 C   0  0  0  0  0  0  0  0  0  0  0  0
   45.5720   31.7120   46.1360 N   0  0  0  0  0  0  0  0  0  0  0  0
   47.4488   33.2983   42.4426 H   0  0  0  0  0  0  0  0  0  0  0  0
   45.6808   33.4296   40.8273 H   0  0  0  0  0  0  0  0  0  0  0  0
   45.7089   35.1633   40.7434 H   0  0  0  0  0  0  0  0  0  0  0  0
   47.2453   34.4865   38.9383 H   0  0  0  0  0  0  0  0  0  0  0  0
   47.9198   33.1589   39.8460 H   0  0  0  0  0  0  0  0  0  0  0  0
   49.5384   34.7289   40.5099 H   0  0  0  0  0  0  0  0  0  0  0  0
   48.5164   36.1036   40.0120 H   0  0  0  0  0  0  0  0  0  0  0  0
   48.9863   35.2144   42.6801 H   0  0  0  0  0  0  0  0  0  0  0  0
   47.7860   36.3926   42.2209 H   0  0  0  0  0  0  0  0  0  0  0  0
   43.8472   36.6636   44.6802 H   0  0  0  0  0  0  0  0  0  0  0  0
   45.1984   36.3361   42.5726 H   0  0  0  0  0  0  0  0  0  0  0  0
   46.7063   33.1609   47.1933 H   0  0  0  0  0  0  0  0  0  0  0  0
   44.9717   33.2406   47.5085 H   0  0  0  0  0  0  0  0  0  0  0  0
   45.4958   31.0134   46.8891 H   0  0  0  0  0  0  0  0  0  0  0  0
   44.7229   31.6831   45.5537 H   0  0  0  0  0  0  0  0  0  0  0  0
  1  8  1  0
  2  1  1  0
  3  4  1  0
  3  2  1  0
  4  5  1  0
  5  1  1  0
  6 11  2  0
  7  6  1  0
  8  7  2  0
  8  9  1  0
  9 10  2  0
 10 11  1  0
 10 12  1  0
 13 12  1  0
  1 14  1  0
  2 15  1  0
  2 16  1  0
  3 17  1  0
  3 18  1  0
  4 19  1  0
  4 20  1  0
  5 21  1  0
  5 22  1  0
  6 23  1  0
  7 24  1  0
 12 25  1  0
 12 26  1  0
 13 27  1  0
 13 28  1  0
M  ISO  8  14  13  15  13  16  13  17  13  18  13  19  13  20  13  21  13
M  ISO  7  22  13  23  14  24  14  25   8  26   8  27   5  28   5
M  END
>  <minimizedAffinity>  (1) 
-5.02395821

>  <minimizedRMSD>  (1) 
0.268671632

$$$$
