
     RDKit          3D

 33 35  0  0  0  0  0  0  0  0999 V2000
   45.1640   34.9280   44.5240 C   0  0  0  0  0  0  0  0  0  0  0  0
   45.9620   35.1270   43.3690 C   0  0  0  0  0  0  0  0  0  0  0  0
   46.7670   34.0380   42.9400 C   0  0  0  0  0  0  0  0  0  0  0  0
   46.7070   32.9010   43.6660 N   0  0  0  0  0  0  0  0  0  0  0  0
   45.9430   32.7360   44.7580 C   0  0  0  0  0  0  0  0  0  0  0  0
   45.1750   33.7550   45.1790 N   0  0  0  0  0  0  0  0  0  0  0  0
   47.6360   34.1270   41.7630 C   0  0  0  0  0  0  0  0  0  0  0  0
   46.9610   34.1730   40.4610 C   0  0  0  0  0  0  0  0  0  0  0  0
   48.1440   34.4780   39.5490 C   0  0  0  0  0  0  0  0  0  0  0  0
   48.8680   35.5520   40.3200 C   0  0  0  0  0  0  0  0  0  0  0  0
   48.4530   35.4200   41.7610 C   0  0  0  0  0  0  0  0  0  0  0  0
   45.9210   31.4670   45.4840 C   0  0  0  0  0  0  0  0  0  0  0  0
   46.1770   31.6440   46.9170 N   0  0  0  0  0  0  0  0  0  0  0  0
   45.2360   31.4670   47.8100 N   0  0  0  0  0  0  0  0  0  0  0  0
   45.6740   31.6780   49.0640 C   0  0  0  0  0  0  0  0  0  0  0  0
   46.9970   32.0100   48.8840 C   0  0  0  0  0  0  0  0  0  0  0  0
   47.3130   31.9910   47.5500 C   0  0  0  0  0  0  0  0  0  0  0  0
   44.5262   35.7464   44.8893 H   0  0  0  0  0  0  0  0  0  0  0  0
   45.9579   36.0846   42.8278 H   0  0  0  0  0  0  0  0  0  0  0  0
   48.2238   33.2023   41.8601 H   0  0  0  0  0  0  0  0  0  0  0  0
   46.4930   33.2094   40.2114 H   0  0  0  0  0  0  0  0  0  0  0  0
   46.1336   34.8951   40.3975 H   0  0  0  0  0  0  0  0  0  0  0  0
   47.8078   34.8477   38.5690 H   0  0  0  0  0  0  0  0  0  0  0  0
   48.7664   33.5997   39.3225 H   0  0  0  0  0  0  0  0  0  0  0  0
   49.9555   35.4152   40.2267 H   0  0  0  0  0  0  0  0  0  0  0  0
   48.6170   36.5497   39.9306 H   0  0  0  0  0  0  0  0  0  0  0  0
   49.3301   35.3352   42.4194 H   0  0  0  0  0  0  0  0  0  0  0  0
   47.8916   36.2897   42.1333 H   0  0  0  0  0  0  0  0  0  0  0  0
   44.9322   31.0025   45.3555 H   0  0  0  0  0  0  0  0  0  0  0  0
   46.7189   30.8299   45.0746 H   0  0  0  0  0  0  0  0  0  0  0  0
   45.1107   31.6032   50.0058 H   0  0  0  0  0  0  0  0  0  0  0  0
   47.7000   32.2553   49.6937 H   0  0  0  0  0  0  0  0  0  0  0  0
   48.2889   32.2126   47.0934 H   0  0  0  0  0  0  0  0  0  0  0  0
  1  6  2  0
  2  1  1  0
  3  2  2  0
  3  4  1  0
  4  5  2  0
  5  6  1  0
  5 12  1  0
  7  3  1  0
  8  7  1  0
  9 10  1  0
  9  8  1  0
 10 11  1  0
 11  7  1  0
 12 13  1  0
 13 17  1  0
 13 14  1  0
 14 15  2  0
 16 15  1  0
 17 16  2  0
  1 18  1  0
  2 19  1  0
  7 20  1  0
  8 21  1  0
  8 22  1  0
  9 23  1  0
  9 24  1  0
 10 25  1  0
 10 26  1  0
 11 27  1  0
 11 28  1  0
 12 29  1  0
 12 30  1  0
 15 31  1  0
 16 32  1  0
 17 33  1  0
M  ISO  8  18  14  19  14  20  13  21  13  22  13  23  13  24  13  25  13
M  ISO  8  26  13  27  13  28  13  29   8  30   8  31  14  32  14  33  14
M  END
>  <minimizedAffinity>  (1) 
-4.75150061

>  <minimizedRMSD>  (1) 
1.66479909

$$$$
