
     RDKit          3D

 39 41  0  0  0  0  0  0  0  0999 V2000
   45.0270   33.7950   43.5160 C   0  0  0  0  0  0  0  0  0  0  0  0
   45.8520   34.2080   42.4470 C   0  0  0  0  0  0  0  0  0  0  0  0
   46.8580   33.3250   41.9790 C   0  0  0  0  0  0  0  0  0  0  0  0
   46.9390   32.1460   42.6070 N   0  0  0  0  0  0  0  0  0  0  0  0
   46.1580   31.7440   43.6260 C   0  0  0  0  0  0  0  0  0  0  0  0
   45.2010   32.5860   44.0710 N   0  0  0  0  0  0  0  0  0  0  0  0
   47.7490   33.6780   40.8830 C   0  0  0  0  0  0  0  0  0  0  0  0
   47.1440   33.7580   39.5490 C   0  0  0  0  0  0  0  0  0  0  0  0
   48.2720   34.3410   38.7320 C   0  0  0  0  0  0  0  0  0  0  0  0
   48.8500   35.3690   39.6590 C   0  0  0  0  0  0  0  0  0  0  0  0
   48.3360   35.0830   41.0530 C   0  0  0  0  0  0  0  0  0  0  0  0
   46.3440   30.4190   44.2410 C   0  0  0  0  0  0  0  0  0  0  0  0
   46.2810   30.5650   45.6870 N   0  0  0  0  0  0  0  0  0  0  0  0
   47.1540   31.2830   46.4050 C   0  0  0  0  0  0  0  0  0  0  0  0
   46.9860   31.3430   47.7650 C   0  0  0  0  0  0  0  0  0  0  0  0
   47.9240   32.1240   48.6070 C   0  0  0  0  0  0  0  0  0  0  0  0
   45.9320   30.6670   48.3440 C   0  0  0  0  0  0  0  0  0  0  0  0
   45.7160   30.6770   49.5870 O   0  0  0  0  0  0  0  0  0  0  0  0
   45.0520   29.9420   47.6170 N   0  0  0  0  0  0  0  0  0  0  0  0
   45.2510   29.9070   46.2730 C   0  0  0  0  0  0  0  0  0  0  0  0
   44.4150   29.2220   45.6090 O   0  0  0  0  0  0  0  0  0  0  0  0
   44.2409   34.4652   43.8941 H   0  0  0  0  0  0  0  0  0  0  0  0
   45.7167   35.1973   41.9854 H   0  0  0  0  0  0  0  0  0  0  0  0
   48.4747   32.8529   40.9346 H   0  0  0  0  0  0  0  0  0  0  0  0
   46.8551   32.7628   39.1800 H   0  0  0  0  0  0  0  0  0  0  0  0
   46.2175   34.3500   39.5151 H   0  0  0  0  0  0  0  0  0  0  0  0
   49.0166   33.5723   38.4776 H   0  0  0  0  0  0  0  0  0  0  0  0
   47.9444   34.7564   37.7676 H   0  0  0  0  0  0  0  0  0  0  0  0
   49.9482   35.3078   39.6462 H   0  0  0  0  0  0  0  0  0  0  0  0
   48.5530   36.3796   39.3420 H   0  0  0  0  0  0  0  0  0  0  0  0
   47.5639   35.8070   41.3525 H   0  0  0  0  0  0  0  0  0  0  0  0
   49.1045   35.1550   41.8367 H   0  0  0  0  0  0  0  0  0  0  0  0
   45.5489   29.7385   43.9023 H   0  0  0  0  0  0  0  0  0  0  0  0
   47.3188   30.0023   43.9477 H   0  0  0  0  0  0  0  0  0  0  0  0
   47.9855   31.8117   45.9161 H   0  0  0  0  0  0  0  0  0  0  0  0
   47.7034   31.9403   49.6689 H   0  0  0  0  0  0  0  0  0  0  0  0
   48.9569   31.8153   48.3884 H   0  0  0  0  0  0  0  0  0  0  0  0
   47.8075   33.1957   48.3884 H   0  0  0  0  0  0  0  0  0  0  0  0
   44.2690   29.4407   48.0602 H   0  0  0  0  0  0  0  0  0  0  0  0
  1  6  2  0
  2  1  1  0
  3  2  2  0
  3  4  1  0
  4  5  2  0
  5  6  1  0
  5 12  1  0
  7 11  1  0
  7  3  1  0
  8  7  1  0
  9  8  1  0
  9 10  1  0
 10 11  1  0
 12 13  1  0
 13 20  1  0
 13 14  1  0
 14 15  2  0
 15 17  1  0
 15 16  1  0
 17 18  2  0
 19 17  1  0
 20 19  1  0
 21 20  2  0
  1 22  1  0
  2 23  1  0
  7 24  1  0
  8 25  1  0
  8 26  1  0
  9 27  1  0
  9 28  1  0
 10 29  1  0
 10 30  1  0
 11 31  1  0
 11 32  1  0
 12 33  1  0
 12 34  1  0
 14 35  1  0
 16 36  1  0
 16 37  1  0
 16 38  1  0
 19 39  1  0
M  ISO  8  22  14  23  14  24  13  25  13  26  13  27  13  28  13  29  13
M  ISO  8  30  13  31  13  32  13  33   8  34   8  35  14  36   8  37   8
M  ISO  2  38   8  39   9
M  END
>  <minimizedAffinity>  (1) 
-4.4160881

>  <minimizedRMSD>  (1) 
3.58321381

$$$$
