
     RDKit          3D

 48 51  0  0  1  0  0  0  0  0999 V2000
   47.7570   34.7340   41.2040 C   0  0  1  0  0  0  0  0  0  0  0  0
   45.5900   34.0780   42.2650 C   0  0  0  0  0  0  0  0  0  0  0  0
   46.9770   34.2370   42.3470 C   0  0  0  0  0  0  0  0  0  0  0  0
   47.6210   33.9170   43.5640 C   0  0  0  0  0  0  0  0  0  0  0  0
   46.8880   33.4760   44.5950 N   0  0  0  0  0  0  0  0  0  0  0  0
   45.5510   33.3250   44.5080 C   0  0  0  0  0  0  0  0  0  0  0  0
   44.9350   33.6220   43.3680 N   0  0  0  0  0  0  0  0  0  0  0  0
   44.7880   34.4010   41.1410 C   0  0  0  0  0  0  0  0  0  0  0  0
   43.7640   33.2540   40.8640 C   0  0  0  0  0  0  0  0  0  0  0  0
   42.8450   33.9970   39.8570 C   0  0  0  0  0  0  0  0  0  0  0  0
   42.8980   35.4250   40.2800 C   0  0  0  0  0  0  0  0  0  0  0  0
   43.8160   35.4850   41.4860 C   0  0  0  0  0  0  0  0  0  0  0  0
   48.7590   35.7570   41.5710 C   0  0  0  0  0  0  0  0  0  0  0  0
   48.3040   33.5440   40.4610 C   0  0  0  0  0  0  0  0  0  0  0  0
   47.9040   33.5350   39.0670 N   0  0  0  0  0  0  0  0  0  0  0  0
   48.4970   34.4700   38.3280 N   0  0  0  0  0  0  0  0  0  0  0  0
   48.0580   34.3790   37.0640 C   0  0  0  0  0  0  0  0  0  0  0  0
   47.1540   33.3520   36.9910 C   0  0  0  0  0  0  0  0  0  0  0  0
   47.0850   32.8470   38.2620 C   0  0  0  0  0  0  0  0  0  0  0  0
   46.3150   31.7670   38.8120 C   0  0  0  0  0  0  0  0  0  0  0  0
   46.7620   31.2490   40.0120 C   0  0  0  0  0  0  0  0  0  0  0  0
   46.1830   30.2240   40.7070 C   0  0  0  0  0  0  0  0  0  0  0  0
   45.0490   29.6300   40.1930 C   0  0  0  0  0  0  0  0  0  0  0  0
   44.6070   30.1510   38.9970 C   0  0  0  0  0  0  0  0  0  0  0  0
   45.2150   31.1600   38.3560 N   0  0  0  0  0  0  0  0  0  0  0  0
   47.1016   35.2940   40.5208 H   0  0  0  0  0  0  0  0  0  0  0  0
   48.7108   34.0287   43.6633 H   0  0  0  0  0  0  0  0  0  0  0  0
   44.9758   32.9598   45.3715 H   0  0  0  0  0  0  0  0  0  0  0  0
   45.4963   34.6285   40.3307 H   0  0  0  0  0  0  0  0  0  0  0  0
   44.2428   32.3718   40.4139 H   0  0  0  0  0  0  0  0  0  0  0  0
   43.2616   32.8403   41.7508 H   0  0  0  0  0  0  0  0  0  0  0  0
   41.8158   33.6131   39.9148 H   0  0  0  0  0  0  0  0  0  0  0  0
   43.1709   33.8588   38.8155 H   0  0  0  0  0  0  0  0  0  0  0  0
   43.2988   36.0474   39.4664 H   0  0  0  0  0  0  0  0  0  0  0  0
   41.8949   35.8039   40.5253 H   0  0  0  0  0  0  0  0  0  0  0  0
   43.2763   35.2650   42.4189 H   0  0  0  0  0  0  0  0  0  0  0  0
   44.2718   36.4696   41.6674 H   0  0  0  0  0  0  0  0  0  0  0  0
   48.8274   35.8268   42.6667 H   0  0  0  0  0  0  0  0  0  0  0  0
   49.7393   35.4743   41.1597 H   0  0  0  0  0  0  0  0  0  0  0  0
   48.4560   36.7312   41.1597 H   0  0  0  0  0  0  0  0  0  0  0  0
   49.4025   33.5682   40.5138 H   0  0  0  0  0  0  0  0  0  0  0  0
   47.8993   32.6368   40.9334 H   0  0  0  0  0  0  0  0  0  0  0  0
   48.3709   35.0206   36.2271 H   0  0  0  0  0  0  0  0  0  0  0  0
   46.6029   33.0076   36.1035 H   0  0  0  0  0  0  0  0  0  0  0  0
   47.6649   31.7019   40.4475 H   0  0  0  0  0  0  0  0  0  0  0  0
   46.6135   29.8792   41.6587 H   0  0  0  0  0  0  0  0  0  0  0  0
   44.5352   28.8007   40.7012 H   0  0  0  0  0  0  0  0  0  0  0  0
   43.7051   29.7152   38.5423 H   0  0  0  0  0  0  0  0  0  0  0  0
  1 13  1  0
  1  3  1  0
  2  3  1  0
  2  7  2  0
  3  4  2  0
  4  5  1  0
  6  5  2  0
  7  6  1  0
  8 12  1  0
  8  2  1  0
  9  8  1  0
 10 11  1  0
 10  9  1  0
 11 12  1  0
 14  1  1  0
 15 14  1  0
 16 15  1  0
 17 16  2  0
 18 17  1  0
 18 19  2  0
 19 20  1  0
 19 15  1  0
 20 21  2  0
 21 22  1  0
 23 22  2  0
 24 23  1  0
 25 20  1  0
 25 24  2  0
  1 26  1  6
  4 27  1  0
  6 28  1  0
  8 29  1  0
  9 30  1  0
  9 31  1  0
 10 32  1  0
 10 33  1  0
 11 34  1  0
 11 35  1  0
 12 36  1  0
 12 37  1  0
 13 38  1  0
 13 39  1  0
 13 40  1  0
 14 41  1  0
 14 42  1  0
 17 43  1  0
 18 44  1  0
 21 45  1  0
 22 46  1  0
 23 47  1  0
 24 48  1  0
M  ISO  8  26   8  27  14  28  14  29  13  30  13  31  13  32  13  33  13
M  ISO  8  34  13  35  13  36  13  37  13  38   8  39   8  40   8  41   8
M  ISO  7  42   8  43  14  44  14  45  14  46  14  47  14  48  14
M  END
>  <minimizedAffinity>  (1) 
-4.95385981

>  <minimizedRMSD>  (1) 
1.43470097

$$$$
