
     RDKit          3D

 36 38  0  0  0  0  0  0  0  0999 V2000
   45.2370   34.5130   45.3160 C   0  0  0  0  0  0  0  0  0  0  0  0
   45.9400   34.7870   44.1170 C   0  0  0  0  0  0  0  0  0  0  0  0
   46.7690   33.7590   43.5860 C   0  0  0  0  0  0  0  0  0  0  0  0
   46.8120   32.6020   44.2780 N   0  0  0  0  0  0  0  0  0  0  0  0
   46.1370   32.3540   45.4190 C   0  0  0  0  0  0  0  0  0  0  0  0
   45.3560   33.3100   45.9270 N   0  0  0  0  0  0  0  0  0  0  0  0
   47.5180   33.9500   42.3610 C   0  0  0  0  0  0  0  0  0  0  0  0
   46.7250   34.2470   41.1490 C   0  0  0  0  0  0  0  0  0  0  0  0
   47.8370   34.5230   40.1510 C   0  0  0  0  0  0  0  0  0  0  0  0
   48.7890   35.3480   40.9630 C   0  0  0  0  0  0  0  0  0  0  0  0
   48.4970   35.1000   42.4430 C   0  0  0  0  0  0  0  0  0  0  0  0
   46.2590   31.0510   46.0840 C   0  0  0  0  0  0  0  0  0  0  0  0
   47.0530   31.0670   47.2790 N   0  0  0  0  0  0  0  0  0  0  0  0
   48.3790   31.0880   47.4400 C   0  0  0  0  0  0  0  0  0  0  0  0
   48.7210   31.0970   48.7700 C   0  0  0  0  0  0  0  0  0  0  0  0
   47.5710   31.0810   49.4390 N   0  0  0  0  0  0  0  0  0  0  0  0
   46.5680   31.0630   48.5330 C   0  0  0  0  0  0  0  0  0  0  0  0
   45.1730   31.0420   49.0310 C   0  0  0  0  0  0  0  0  0  0  0  0
   44.2730   31.6820   48.2360 F   0  0  0  0  0  0  0  0  0  0  0  0
   44.7240   29.7430   49.1700 F   0  0  0  0  0  0  0  0  0  0  0  0
   45.0780   31.6350   50.2810 F   0  0  0  0  0  0  0  0  0  0  0  0
   44.5880   35.2849   45.7552 H   0  0  0  0  0  0  0  0  0  0  0  0
   45.8484   35.7608   43.6136 H   0  0  0  0  0  0  0  0  0  0  0  0
   48.0000   32.9658   42.2658 H   0  0  0  0  0  0  0  0  0  0  0  0
   46.1107   33.3867   40.8448 H   0  0  0  0  0  0  0  0  0  0  0  0
   45.9997   35.0659   41.2651 H   0  0  0  0  0  0  0  0  0  0  0  0
   47.4634   35.0841   39.2818 H   0  0  0  0  0  0  0  0  0  0  0  0
   48.2886   33.6134   39.7283 H   0  0  0  0  0  0  0  0  0  0  0  0
   49.8241   35.0548   40.7339 H   0  0  0  0  0  0  0  0  0  0  0  0
   48.6639   36.4147   40.7255 H   0  0  0  0  0  0  0  0  0  0  0  0
   48.0433   35.9825   42.9177 H   0  0  0  0  0  0  0  0  0  0  0  0
   49.3899   34.8902   43.0502 H   0  0  0  0  0  0  0  0  0  0  0  0
   45.2491   30.7030   46.3467 H   0  0  0  0  0  0  0  0  0  0  0  0
   46.7719   30.3840   45.3755 H   0  0  0  0  0  0  0  0  0  0  0  0
   49.1042   31.0969   46.6130 H   0  0  0  0  0  0  0  0  0  0  0  0
   49.7357   31.1139   49.1944 H   0  0  0  0  0  0  0  0  0  0  0  0
  1  6  2  0
  2  1  1  0
  3  2  2  0
  3  4  1  0
  4  5  2  0
  5  6  1  0
  5 12  1  0
  7 11  1  0
  7  3  1  0
  8  7  1  0
  9 10  1  0
  9  8  1  0
 10 11  1  0
 12 13  1  0
 13 14  1  0
 13 17  1  0
 14 15  2  0
 15 16  1  0
 17 18  1  0
 17 16  2  0
 18 20  1  0
 18 21  1  0
 19 18  1  0
  1 22  1  0
  2 23  1  0
  7 24  1  0
  8 25  1  0
  8 26  1  0
  9 27  1  0
  9 28  1  0
 10 29  1  0
 10 30  1  0
 11 31  1  0
 11 32  1  0
 12 33  1  0
 12 34  1  0
 14 35  1  0
 15 36  1  0
M  ISO  8  22  14  23  14  24  13  25  13  26  13  27  13  28  13  29  13
M  ISO  7  30  13  31  13  32  13  33   8  34   8  35  14  36  14
M  END
>  <minimizedAffinity>  (1) 
-5.52272177

>  <minimizedRMSD>  (1) 
1.26569128

$$$$
