
     RDKit          3D

 49 52  0  0  1  0  0  0  0  0999 V2000
   47.6300   34.6680   41.2260 C   0  0  1  0  0  0  0  0  0  0  0  0
   45.5070   33.9960   42.3610 C   0  0  0  0  0  0  0  0  0  0  0  0
   46.8950   34.1730   42.3990 C   0  0  0  0  0  0  0  0  0  0  0  0
   47.5810   33.8820   43.5980 C   0  0  0  0  0  0  0  0  0  0  0  0
   46.8850   33.4460   44.6580 N   0  0  0  0  0  0  0  0  0  0  0  0
   45.5460   33.2770   44.6130 C   0  0  0  0  0  0  0  0  0  0  0  0
   44.8930   33.5480   43.4890 N   0  0  0  0  0  0  0  0  0  0  0  0
   44.6660   34.2910   41.2550 C   0  0  0  0  0  0  0  0  0  0  0  0
   43.4540   33.3080   41.2250 C   0  0  0  0  0  0  0  0  0  0  0  0
   42.5780   34.0420   40.1810 C   0  0  0  0  0  0  0  0  0  0  0  0
   42.8770   35.4880   40.3980 C   0  0  0  0  0  0  0  0  0  0  0  0
   43.9180   35.5640   41.4960 C   0  0  0  0  0  0  0  0  0  0  0  0
   48.6620   35.6730   41.5510 C   0  0  0  0  0  0  0  0  0  0  0  0
   48.1300   33.4890   40.4400 C   0  0  0  0  0  0  0  0  0  0  0  0
   47.7720   33.5520   39.0460 N   0  0  0  0  0  0  0  0  0  0  0  0
   48.4990   34.4180   38.3530 N   0  0  0  0  0  0  0  0  0  0  0  0
   48.1100   34.4130   37.0720 C   0  0  0  0  0  0  0  0  0  0  0  0
   47.0910   33.5060   36.9380 C   0  0  0  0  0  0  0  0  0  0  0  0
   46.9120   32.9910   38.1910 C   0  0  0  0  0  0  0  0  0  0  0  0
   45.9810   31.9830   38.6620 C   0  0  0  0  0  0  0  0  0  0  0  0
   44.7930   31.9950   37.9210 C   0  0  0  0  0  0  0  0  0  0  0  0
   43.7500   31.1350   38.1850 C   0  0  0  0  0  0  0  0  0  0  0  0
   43.8630   30.2290   39.2090 C   0  0  0  0  0  0  0  0  0  0  0  0
   45.0130   30.2120   39.9330 C   0  0  0  0  0  0  0  0  0  0  0  0
   46.0660   31.0640   39.6820 C   0  0  0  0  0  0  0  0  0  0  0  0
   46.9417   35.2387   40.5853 H   0  0  0  0  0  0  0  0  0  0  0  0
   48.6715   34.0111   43.6619 H   0  0  0  0  0  0  0  0  0  0  0  0
   45.0015   32.9183   45.4989 H   0  0  0  0  0  0  0  0  0  0  0  0
   45.3223   34.2781   40.3723 H   0  0  0  0  0  0  0  0  0  0  0  0
   43.7456   32.3029   40.8862 H   0  0  0  0  0  0  0  0  0  0  0  0
   42.9744   33.1162   42.1962 H   0  0  0  0  0  0  0  0  0  0  0  0
   41.5114   33.8348   40.3529 H   0  0  0  0  0  0  0  0  0  0  0  0
   42.7924   33.7189   39.1516 H   0  0  0  0  0  0  0  0  0  0  0  0
   43.2698   35.9357   39.4732 H   0  0  0  0  0  0  0  0  0  0  0  0
   41.9678   36.0394   40.6796 H   0  0  0  0  0  0  0  0  0  0  0  0
   43.4549   35.5797   42.4936 H   0  0  0  0  0  0  0  0  0  0  0  0
   44.5400   36.4710   41.4744 H   0  0  0  0  0  0  0  0  0  0  0  0
   48.7547   35.7633   42.6434 H   0  0  0  0  0  0  0  0  0  0  0  0
   49.6266   35.3587   41.1259 H   0  0  0  0  0  0  0  0  0  0  0  0
   48.3734   36.6456   41.1259 H   0  0  0  0  0  0  0  0  0  0  0  0
   49.2266   33.4537   40.5195 H   0  0  0  0  0  0  0  0  0  0  0  0
   47.6598   32.5881   40.8612 H   0  0  0  0  0  0  0  0  0  0  0  0
   48.5346   35.0300   36.2664 H   0  0  0  0  0  0  0  0  0  0  0  0
   46.5384   33.2490   36.0223 H   0  0  0  0  0  0  0  0  0  0  0  0
   44.6889   32.7175   37.0981 H   0  0  0  0  0  0  0  0  0  0  0  0
   42.8328   31.1743   37.5790 H   0  0  0  0  0  0  0  0  0  0  0  0
   43.0426   29.5331   39.4385 H   0  0  0  0  0  0  0  0  0  0  0  0
   45.1070   29.4868   40.7547 H   0  0  0  0  0  0  0  0  0  0  0  0
   46.9758   31.0094   40.2979 H   0  0  0  0  0  0  0  0  0  0  0  0
  1 13  1  0
  1  3  1  0
  2  3  1  0
  2  7  2  0
  3  4  2  0
  4  5  1  0
  6  5  2  0
  7  6  1  0
  8 12  1  0
  8  2  1  0
  9  8  1  0
 10 11  1  0
 10  9  1  0
 11 12  1  0
 14  1  1  0
 15 14  1  0
 16 15  1  0
 17 16  2  0
 18 17  1  0
 18 19  2  0
 19 20  1  0
 19 15  1  0
 20 25  2  0
 21 22  2  0
 21 20  1  0
 22 23  1  0
 23 24  2  0
 25 24  1  0
  1 26  1  6
  4 27  1  0
  6 28  1  0
  8 29  1  0
  9 30  1  0
  9 31  1  0
 10 32  1  0
 10 33  1  0
 11 34  1  0
 11 35  1  0
 12 36  1  0
 12 37  1  0
 13 38  1  0
 13 39  1  0
 13 40  1  0
 14 41  1  0
 14 42  1  0
 17 43  1  0
 18 44  1  0
 21 45  1  0
 22 46  1  0
 23 47  1  0
 24 48  1  0
 25 49  1  0
M  ISO  8  26   8  27  14  28  14  29  13  30  13  31  13  32  13  33  13
M  ISO  8  34  13  35  13  36  13  37  13  38   8  39   8  40   8  41   8
M  ISO  8  42   8  43  14  44  14  45  14  46  14  47  14  48  14  49  14
M  END
>  <minimizedAffinity>  (1) 
-4.93605757

>  <minimizedRMSD>  (1) 
1.85819805

$$$$
