
     RDKit          3D

 44 48  0  0  0  0  0  0  0  0999 V2000
   45.2030   34.4200   45.0710 C   0  0  0  0  0  0  0  0  0  0  0  0
   45.8320   34.6620   43.8250 C   0  0  0  0  0  0  0  0  0  0  0  0
   46.9690   33.8640   43.5020 C   0  0  0  0  0  0  0  0  0  0  0  0
   47.3600   32.9440   44.4050 N   0  0  0  0  0  0  0  0  0  0  0  0
   46.7520   32.7270   45.5870 C   0  0  0  0  0  0  0  0  0  0  0  0
   45.6740   33.4670   45.9160 N   0  0  0  0  0  0  0  0  0  0  0  0
   47.6810   34.0340   42.2310 C   0  0  0  0  0  0  0  0  0  0  0  0
   46.8240   34.1990   41.0390 C   0  0  0  0  0  0  0  0  0  0  0  0
   47.8680   34.5300   39.9920 C   0  0  0  0  0  0  0  0  0  0  0  0
   48.7950   35.4510   40.7360 C   0  0  0  0  0  0  0  0  0  0  0  0
   48.5730   35.2520   42.2230 C   0  0  0  0  0  0  0  0  0  0  0  0
   47.2420   31.7020   46.5080 C   0  0  0  0  0  0  0  0  0  0  0  0
   46.3920   31.4560   47.6400 N   0  0  0  0  0  0  0  0  0  0  0  0
   46.2010   32.1630   48.7530 C   0  0  0  0  0  0  0  0  0  0  0  0
   45.2800   31.5370   49.5750 C   0  0  0  0  0  0  0  0  0  0  0  0
   44.9020   30.4100   48.9310 N   0  0  0  0  0  0  0  0  0  0  0  0
   45.5820   30.3810   47.7720 C   0  0  0  0  0  0  0  0  0  0  0  0
   45.3590   29.2800   46.9020 N   0  0  0  0  0  0  0  0  0  0  0  0
   44.2410   28.7970   46.3220 C   0  0  0  0  0  0  0  0  0  0  0  0
   44.5090   27.7290   45.5730 N   0  0  0  0  0  0  0  0  0  0  0  0
   45.8260   27.4780   45.6410 C   0  0  0  0  0  0  0  0  0  0  0  0
   46.6150   26.5180   45.0730 C   0  0  0  0  0  0  0  0  0  0  0  0
   47.9390   26.5160   45.3300 N   0  0  0  0  0  0  0  0  0  0  0  0
   48.4590   27.4610   46.1410 C   0  0  0  0  0  0  0  0  0  0  0  0
   47.6700   28.4060   46.6960 N   0  0  0  0  0  0  0  0  0  0  0  0
   46.3480   28.4600   46.4800 C   0  0  0  0  0  0  0  0  0  0  0  0
   44.3213   35.0119   45.3579 H   0  0  0  0  0  0  0  0  0  0  0  0
   45.4589   35.4334   43.1352 H   0  0  0  0  0  0  0  0  0  0  0  0
   48.2400   33.0888   42.1669 H   0  0  0  0  0  0  0  0  0  0  0  0
   46.2843   33.2720   40.7954 H   0  0  0  0  0  0  0  0  0  0  0  0
   46.0285   34.9511   41.1469 H   0  0  0  0  0  0  0  0  0  0  0  0
   47.4160   35.0356   39.1260 H   0  0  0  0  0  0  0  0  0  0  0  0
   48.3702   33.6432   39.5781 H   0  0  0  0  0  0  0  0  0  0  0  0
   49.8384   35.2140   40.4808 H   0  0  0  0  0  0  0  0  0  0  0  0
   48.5926   36.4963   40.4595 H   0  0  0  0  0  0  0  0  0  0  0  0
   49.5199   35.0606   42.7490 H   0  0  0  0  0  0  0  0  0  0  0  0
   48.1444   36.1264   42.7345 H   0  0  0  0  0  0  0  0  0  0  0  0
   47.3481   30.7610   45.9483 H   0  0  0  0  0  0  0  0  0  0  0  0
   48.1949   32.0760   46.9105 H   0  0  0  0  0  0  0  0  0  0  0  0
   46.7052   33.1124   48.9863 H   0  0  0  0  0  0  0  0  0  0  0  0
   44.9263   31.8866   50.5562 H   0  0  0  0  0  0  0  0  0  0  0  0
   43.2378   29.2293   46.4510 H   0  0  0  0  0  0  0  0  0  0  0  0
   46.1753   25.7553   44.4135 H   0  0  0  0  0  0  0  0  0  0  0  0
   49.5385   27.4615   46.3525 H   0  0  0  0  0  0  0  0  0  0  0  0
  1  6  2  0
  2  1  1  0
  3  2  2  0
  3  4  1  0
  4  5  2  0
  5  6  1  0
  5 12  1  0
  7  3  1  0
  8  7  1  0
  9 10  1  0
  9  8  1  0
 10 11  1  0
 11  7  1  0
 12 13  1  0
 13 17  1  0
 13 14  1  0
 14 15  2  0
 16 15  1  0
 17 16  2  0
 18 17  1  0
 19 18  1  0
 20 21  1  0
 20 19  2  0
 21 26  2  0
 22 23  2  0
 22 21  1  0
 23 24  1  0
 24 25  2  0
 26 25  1  0
 26 18  1  0
  1 27  1  0
  2 28  1  0
  7 29  1  0
  8 30  1  0
  8 31  1  0
  9 32  1  0
  9 33  1  0
 10 34  1  0
 10 35  1  0
 11 36  1  0
 11 37  1  0
 12 38  1  0
 12 39  1  0
 14 40  1  0
 15 41  1  0
 19 42  1  0
 22 43  1  0
 24 44  1  0
M  ISO  8  27  14  28  14  29  13  30  13  31  13  32  13  33  13  34  13
M  ISO  8  35  13  36  13  37  13  38   8  39   8  40  14  41  14  42  14
M  ISO  2  43  14  44  14
M  END
>  <minimizedAffinity>  (1) 
-6.12236309

>  <minimizedRMSD>  (1) 
3.25452209

$$$$
