
     RDKit          3D

 42 44  0  0  1  0  0  0  0  0999 V2000
   45.6170   34.2960   42.2360 C   0  0  0  0  0  0  0  0  0  0  0  0
   47.0120   34.3070   42.3110 C   0  0  0  0  0  0  0  0  0  0  0  0
   47.6270   33.9330   43.5320 C   0  0  0  0  0  0  0  0  0  0  0  0
   46.8540   33.5830   44.5680 N   0  0  0  0  0  0  0  0  0  0  0  0
   45.5070   33.5750   44.4880 C   0  0  0  0  0  0  0  0  0  0  0  0
   44.9220   33.9240   43.3460 N   0  0  0  0  0  0  0  0  0  0  0  0
   44.8500   34.6910   41.1100 C   0  0  0  0  0  0  0  0  0  0  0  0
   44.3460   33.4300   40.3360 C   0  0  0  0  0  0  0  0  0  0  0  0
   43.3030   34.1160   39.4130 C   0  0  0  0  0  0  0  0  0  0  0  0
   42.7920   35.2610   40.2170 C   0  0  0  0  0  0  0  0  0  0  0  0
   43.5230   35.2300   41.5440 C   0  0  0  0  0  0  0  0  0  0  0  0
   47.8380   34.7070   41.1630 C   0  0  1  0  0  0  0  0  0  0  0  0
   48.8600   35.7220   41.4900 C   0  0  0  0  0  0  0  0  0  0  0  0
   48.3660   33.4550   40.5120 C   0  0  0  0  0  0  0  0  0  0  0  0
   48.0440   33.3890   39.1010 N   0  0  0  0  0  0  0  0  0  0  0  0
   48.3290   34.4900   38.4280 N   0  0  0  0  0  0  0  0  0  0  0  0
   47.9920   34.3350   37.1400 C   0  0  0  0  0  0  0  0  0  0  0  0
   47.4670   33.0780   36.9860 C   0  0  0  0  0  0  0  0  0  0  0  0
   47.5190   32.5230   38.2320 C   0  0  0  0  0  0  0  0  0  0  0  0
   47.1090   31.2100   38.7010 C   0  0  0  0  0  0  0  0  0  0  0  0
   45.8960   30.9190   38.5390 O   0  0  0  0  0  0  0  0  0  0  0  0
   47.8690   30.2470   39.2950 O   0  0  0  0  0  0  0  0  0  0  0  0
   48.7229   33.9303   43.6272 H   0  0  0  0  0  0  0  0  0  0  0  0
   44.8998   33.2831   45.3576 H   0  0  0  0  0  0  0  0  0  0  0  0
   45.4902   35.3855   40.5462 H   0  0  0  0  0  0  0  0  0  0  0  0
   45.1515   32.9483   39.7623 H   0  0  0  0  0  0  0  0  0  0  0  0
   43.9598   32.6123   40.9622 H   0  0  0  0  0  0  0  0  0  0  0  0
   42.4876   33.4211   39.1635 H   0  0  0  0  0  0  0  0  0  0  0  0
   43.7383   34.4377   38.4554 H   0  0  0  0  0  0  0  0  0  0  0  0
   42.9940   36.2086   39.6962 H   0  0  0  0  0  0  0  0  0  0  0  0
   41.7048   35.1831   40.3652 H   0  0  0  0  0  0  0  0  0  0  0  0
   43.0289   34.5617   42.2646 H   0  0  0  0  0  0  0  0  0  0  0  0
   43.5688   36.1974   42.0655 H   0  0  0  0  0  0  0  0  0  0  0  0
   47.2192   35.2428   40.4282 H   0  0  0  0  0  0  0  0  0  0  0  0
   48.9508   35.8122   42.5825 H   0  0  0  0  0  0  0  0  0  0  0  0
   49.8281   35.4176   41.0655 H   0  0  0  0  0  0  0  0  0  0  0  0
   48.5623   36.6921   41.0655 H   0  0  0  0  0  0  0  0  0  0  0  0
   49.4598   33.4316   40.6263 H   0  0  0  0  0  0  0  0  0  0  0  0
   47.8910   32.5942   41.0053 H   0  0  0  0  0  0  0  0  0  0  0  0
   48.1152   35.0854   36.3452 H   0  0  0  0  0  0  0  0  0  0  0  0
   47.0874   32.6179   36.0618 H   0  0  0  0  0  0  0  0  0  0  0  0
   47.4568   29.3891   39.5674 H   0  0  0  0  0  0  0  0  0  0  0  0
  1  2  1  0
  1  6  2  0
  2  3  2  0
  3  4  1  0
  5  4  2  0
  6  5  1  0
  7 11  1  0
  7  1  1  0
  8  7  1  0
  9 10  1  0
  9  8  1  0
 10 11  1  0
 12 13  1  0
 12  2  1  0
 14 12  1  0
 15 14  1  0
 16 15  1  0
 17 16  2  0
 18 17  1  0
 18 19  2  0
 19 20  1  0
 19 15  1  0
 20 22  1  0
 21 20  2  0
  3 23  1  0
  5 24  1  0
  7 25  1  0
  8 26  1  0
  8 27  1  0
  9 28  1  0
  9 29  1  0
 10 30  1  0
 10 31  1  0
 11 32  1  0
 11 33  1  0
 12 34  1  6
 13 35  1  0
 13 36  1  0
 13 37  1  0
 14 38  1  0
 14 39  1  0
 17 40  1  0
 18 41  1  0
 22 42  1  0
M  ISO  8  23  14  24  14  25  13  26  13  27  13  28  13  29  13  30  13
M  ISO  8  31  13  32  13  33  13  34   8  35   8  36   8  37   8  38   8
M  ISO  4  39   8  40  14  41  14  42   3
M  END
>  <minimizedAffinity>  (1) 
-4.93560362

>  <minimizedRMSD>  (1) 
0.936674714

$$$$
