
     RDKit          3D

 45 47  0  0  0  0  0  0  0  0999 V2000
   44.5940   36.0170   44.0000 C   0  0  0  0  0  0  0  0  0  0  0  0
   45.1860   35.0080   44.7980 C   0  0  0  0  0  0  0  0  0  0  0  0
   45.2200   33.6870   44.2830 C   0  0  0  0  0  0  0  0  0  0  0  0
   44.6810   33.5050   43.0670 N   0  0  0  0  0  0  0  0  0  0  0  0
   44.1170   34.4580   42.3050 C   0  0  0  0  0  0  0  0  0  0  0  0
   44.0780   35.7040   42.7780 N   0  0  0  0  0  0  0  0  0  0  0  0
   45.8090   32.6010   45.0350 C   0  0  0  0  0  0  0  0  0  0  0  0
   47.0830   32.0640   44.5090 C   0  0  0  0  0  0  0  0  0  0  0  0
   47.4500   31.0840   45.6180 C   0  0  0  0  0  0  0  0  0  0  0  0
   47.1000   31.8600   46.8540 C   0  0  0  0  0  0  0  0  0  0  0  0
   46.1220   32.9530   46.4660 C   0  0  0  0  0  0  0  0  0  0  0  0
   43.5580   34.1630   40.9860 C   0  0  0  0  0  0  0  0  0  0  0  0
   42.3650   33.3750   41.0000 N   0  0  0  0  0  0  0  0  0  0  0  0
   42.1870   32.0820   41.3690 C   0  0  0  0  0  0  0  0  0  0  0  0
   40.8760   31.7360   41.2190 C   0  0  0  0  0  0  0  0  0  0  0  0
   40.2360   32.8170   40.7570 N   0  0  0  0  0  0  0  0  0  0  0  0
   41.1530   33.7990   40.6310 C   0  0  0  0  0  0  0  0  0  0  0  0
   40.6320   35.0640   40.1220 C   0  0  0  0  0  0  0  0  0  0  0  0
   40.6430   36.2560   40.9400 C   0  0  0  0  0  0  0  0  0  0  0  0
   39.1620   34.8280   39.7170 C   0  0  0  0  0  0  0  0  0  0  0  0
   41.2970   35.4200   38.7820 C   0  0  0  0  0  0  0  0  0  0  0  0
   44.5506   37.0533   44.3664 H   0  0  0  0  0  0  0  0  0  0  0  0
   45.6067   35.2417   45.7872 H   0  0  0  0  0  0  0  0  0  0  0  0
   45.0098   31.8505   44.9452 H   0  0  0  0  0  0  0  0  0  0  0  0
   46.9412   31.5525   43.5455 H   0  0  0  0  0  0  0  0  0  0  0  0
   47.8488   32.8248   44.2975 H   0  0  0  0  0  0  0  0  0  0  0  0
   46.8577   30.1599   45.5460 H   0  0  0  0  0  0  0  0  0  0  0  0
   48.4985   30.7529   45.5861 H   0  0  0  0  0  0  0  0  0  0  0  0
   46.6368   31.1916   47.5947 H   0  0  0  0  0  0  0  0  0  0  0  0
   48.0062   32.3001   47.2958 H   0  0  0  0  0  0  0  0  0  0  0  0
   46.5848   33.9481   46.5406 H   0  0  0  0  0  0  0  0  0  0  0  0
   45.2346   33.0042   47.1140 H   0  0  0  0  0  0  0  0  0  0  0  0
   44.3190   33.6204   40.4060 H   0  0  0  0  0  0  0  0  0  0  0  0
   43.2824   35.1319   40.5441 H   0  0  0  0  0  0  0  0  0  0  0  0
   42.9803   31.4131   41.7342 H   0  0  0  0  0  0  0  0  0  0  0  0
   40.4294   30.7545   41.4365 H   0  0  0  0  0  0  0  0  0  0  0  0
   40.6404   35.9715   42.0026 H   0  0  0  0  0  0  0  0  0  0  0  0
   41.5466   36.8434   40.7199 H   0  0  0  0  0  0  0  0  0  0  0  0
   39.7504   36.8600   40.7199 H   0  0  0  0  0  0  0  0  0  0  0  0
   38.5439   34.7288   40.6215 H   0  0  0  0  0  0  0  0  0  0  0  0
   38.8047   35.6803   39.1204 H   0  0  0  0  0  0  0  0  0  0  0  0
   39.0894   33.9067   39.1204 H   0  0  0  0  0  0  0  0  0  0  0  0
   42.2523   35.9314   38.9712 H   0  0  0  0  0  0  0  0  0  0  0  0
   41.4811   34.4998   38.2081 H   0  0  0  0  0  0  0  0  0  0  0  0
   40.6333   36.0834   38.2081 H   0  0  0  0  0  0  0  0  0  0  0  0
  1  2  2  0
  3  2  1  0
  3  7  1  0
  4  3  2  0
  5  6  2  0
  5  4  1  0
  6  1  1  0
  7 11  1  0
  8  7  1  0
  8  9  1  0
  9 10  1  0
 11 10  1  0
 12 13  1  0
 12  5  1  0
 13 14  1  0
 15 14  2  0
 16 15  1  0
 17 16  2  0
 17 13  1  0
 18 17  1  0
 18 19  1  0
 20 18  1  0
 21 18  1  0
  1 22  1  0
  2 23  1  0
  7 24  1  0
  8 25  1  0
  8 26  1  0
  9 27  1  0
  9 28  1  0
 10 29  1  0
 10 30  1  0
 11 31  1  0
 11 32  1  0
 12 33  1  0
 12 34  1  0
 14 35  1  0
 15 36  1  0
 19 37  1  0
 19 38  1  0
 19 39  1  0
 20 40  1  0
 20 41  1  0
 20 42  1  0
 21 43  1  0
 21 44  1  0
 21 45  1  0
M  ISO  8  22  14  23  14  24  13  25  13  26  13  27  13  28  13  29  13
M  ISO  8  30  13  31  13  32  13  33   8  34   8  35  14  36  14  37   8
M  ISO  8  38   8  39   8  40   8  41   8  42   8  43   8  44   8  45   8
M  END
>  <minimizedAffinity>  (1) 
-5.42692137

>  <minimizedRMSD>  (1) 
6.94799614

$$$$
