
     RDKit          3D

 42 45  0  0  0  0  0  0  0  0999 V2000
   45.1230   34.8670   44.5810 C   0  0  0  0  0  0  0  0  0  0  0  0
   45.9300   35.0730   43.4370 C   0  0  0  0  0  0  0  0  0  0  0  0
   46.7820   34.0020   43.0300 C   0  0  0  0  0  0  0  0  0  0  0  0
   46.7510   32.8760   43.7690 N   0  0  0  0  0  0  0  0  0  0  0  0
   45.9730   32.7020   44.8560 C   0  0  0  0  0  0  0  0  0  0  0  0
   45.1660   33.6950   45.2550 N   0  0  0  0  0  0  0  0  0  0  0  0
   47.6510   34.1150   41.8530 C   0  0  0  0  0  0  0  0  0  0  0  0
   46.9430   34.1380   40.5500 C   0  0  0  0  0  0  0  0  0  0  0  0
   48.1050   34.4520   39.6200 C   0  0  0  0  0  0  0  0  0  0  0  0
   48.8350   35.5200   40.3810 C   0  0  0  0  0  0  0  0  0  0  0  0
   48.4610   35.3910   41.8550 C   0  0  0  0  0  0  0  0  0  0  0  0
   46.0090   31.4310   45.5930 C   0  0  0  0  0  0  0  0  0  0  0  0
   46.6970   31.4960   46.8530 N   0  0  0  0  0  0  0  0  0  0  0  0
   47.3290   32.5100   47.4450 C   0  0  0  0  0  0  0  0  0  0  0  0
   47.8520   32.1130   48.6620 C   0  0  0  0  0  0  0  0  0  0  0  0
   47.5280   30.8200   48.8130 N   0  0  0  0  0  0  0  0  0  0  0  0
   46.8330   30.4540   47.7200 C   0  0  0  0  0  0  0  0  0  0  0  0
   46.3330   29.0670   47.5960 C   0  0  0  0  0  0  0  0  0  0  0  0
   47.2740   28.1320   47.1970 C   0  0  0  0  0  0  0  0  0  0  0  0
   46.9500   26.8000   47.0380 C   0  0  0  0  0  0  0  0  0  0  0  0
   45.6510   26.3590   47.2790 C   0  0  0  0  0  0  0  0  0  0  0  0
   44.7820   27.3590   47.6730 C   0  0  0  0  0  0  0  0  0  0  0  0
   45.0730   28.6630   47.8340 N   0  0  0  0  0  0  0  0  0  0  0  0
   44.4534   35.6687   44.9259 H   0  0  0  0  0  0  0  0  0  0  0  0
   45.9020   36.0224   42.8822 H   0  0  0  0  0  0  0  0  0  0  0  0
   48.2687   33.2090   41.9400 H   0  0  0  0  0  0  0  0  0  0  0  0
   46.4858   33.1650   40.3171 H   0  0  0  0  0  0  0  0  0  0  0  0
   46.1019   34.8446   40.4935 H   0  0  0  0  0  0  0  0  0  0  0  0
   47.7494   34.8258   38.6485 H   0  0  0  0  0  0  0  0  0  0  0  0
   48.7266   33.5777   39.3766 H   0  0  0  0  0  0  0  0  0  0  0  0
   49.9204   35.3893   40.2588 H   0  0  0  0  0  0  0  0  0  0  0  0
   48.5574   36.5150   40.0029 H   0  0  0  0  0  0  0  0  0  0  0  0
   47.8594   36.2477   42.1928 H   0  0  0  0  0  0  0  0  0  0  0  0
   49.3249   35.3713   42.5356 H   0  0  0  0  0  0  0  0  0  0  0  0
   44.9730   31.1134   45.7824 H   0  0  0  0  0  0  0  0  0  0  0  0
   46.5671   30.7198   44.9663 H   0  0  0  0  0  0  0  0  0  0  0  0
   47.4215   33.5219   47.0237 H   0  0  0  0  0  0  0  0  0  0  0  0
   48.4218   32.7353   49.3677 H   0  0  0  0  0  0  0  0  0  0  0  0
   48.3058   28.4596   47.0019 H   0  0  0  0  0  0  0  0  0  0  0  0
   47.7212   26.0832   46.7195 H   0  0  0  0  0  0  0  0  0  0  0  0
   45.3441   25.3087   47.1659 H   0  0  0  0  0  0  0  0  0  0  0  0
   43.7439   27.0574   47.8762 H   0  0  0  0  0  0  0  0  0  0  0  0
  1  6  2  0
  2  1  1  0
  3  2  2  0
  3  4  1  0
  4  5  2  0
  5  6  1  0
  5 12  1  0
  7 11  1  0
  7  3  1  0
  8  7  1  0
  9 10  1  0
  9  8  1  0
 10 11  1  0
 12 13  1  0
 13 14  1  0
 13 17  1  0
 14 15  2  0
 15 16  1  0
 17 16  2  0
 18 17  1  0
 18 23  1  0
 19 18  2  0
 20 19  1  0
 20 21  2  0
 21 22  1  0
 22 23  2  0
  1 24  1  0
  2 25  1  0
  7 26  1  0
  8 27  1  0
  8 28  1  0
  9 29  1  0
  9 30  1  0
 10 31  1  0
 10 32  1  0
 11 33  1  0
 11 34  1  0
 12 35  1  0
 12 36  1  0
 14 37  1  0
 15 38  1  0
 19 39  1  0
 20 40  1  0
 21 41  1  0
 22 42  1  0
M  ISO  8  24  14  25  14  26  13  27  13  28  13  29  13  30  13  31  13
M  ISO  8  32  13  33  13  34  13  35   8  36   8  37  14  38  14  39  14
M  ISO  3  40  14  41  14  42  14
M  END
>  <minimizedAffinity>  (1) 
-5.23564196

>  <minimizedRMSD>  (1) 
2.7873919

$$$$
