
     RDKit          3D

 39 42  0  0  0  0  0  0  0  0999 V2000
   45.0920   34.9030   44.7160 C   0  0  0  0  0  0  0  0  0  0  0  0
   45.9010   35.0970   43.5740 C   0  0  0  0  0  0  0  0  0  0  0  0
   46.7550   34.0320   43.1540 C   0  0  0  0  0  0  0  0  0  0  0  0
   46.7280   32.8990   43.8880 N   0  0  0  0  0  0  0  0  0  0  0  0
   45.9440   32.7300   44.9800 C   0  0  0  0  0  0  0  0  0  0  0  0
   45.1380   33.7170   45.3880 N   0  0  0  0  0  0  0  0  0  0  0  0
   47.6090   34.1650   41.9880 C   0  0  0  0  0  0  0  0  0  0  0  0
   46.9160   34.2130   40.6820 C   0  0  0  0  0  0  0  0  0  0  0  0
   48.0900   34.5130   39.7610 C   0  0  0  0  0  0  0  0  0  0  0  0
   48.8510   35.5470   40.5490 C   0  0  0  0  0  0  0  0  0  0  0  0
   48.4460   35.4250   42.0070 C   0  0  0  0  0  0  0  0  0  0  0  0
   45.9770   31.4630   45.7150 C   0  0  0  0  0  0  0  0  0  0  0  0
   46.7130   31.5060   46.9500 N   0  0  0  0  0  0  0  0  0  0  0  0
   47.3580   32.5110   47.5450 C   0  0  0  0  0  0  0  0  0  0  0  0
   47.9260   32.0790   48.7320 C   0  0  0  0  0  0  0  0  0  0  0  0
   47.6200   30.7840   48.8610 N   0  0  0  0  0  0  0  0  0  0  0  0
   46.8850   30.4390   47.7820 C   0  0  0  0  0  0  0  0  0  0  0  0
   46.3450   29.0800   47.5430 C   0  0  0  0  0  0  0  0  0  0  0  0
   47.2290   28.0680   46.9390 C   0  0  0  0  0  0  0  0  0  0  0  0
   46.2240   26.6250   46.8290 S   0  0  0  0  0  0  0  0  0  0  0  0
   44.7290   27.5370   47.6040 C   0  0  0  0  0  0  0  0  0  0  0  0
   45.1490   28.5730   47.7840 N   0  0  0  0  0  0  0  0  0  0  0  0
   44.4262   35.7071   45.0625 H   0  0  0  0  0  0  0  0  0  0  0  0
   45.8737   36.0473   43.0206 H   0  0  0  0  0  0  0  0  0  0  0  0
   48.2075   33.2455   42.0676 H   0  0  0  0  0  0  0  0  0  0  0  0
   46.4424   33.2509   40.4372 H   0  0  0  0  0  0  0  0  0  0  0  0
   46.0902   34.9375   40.6257 H   0  0  0  0  0  0  0  0  0  0  0  0
   47.7482   34.9173   38.7968 H   0  0  0  0  0  0  0  0  0  0  0  0
   48.6869   33.6265   39.5006 H   0  0  0  0  0  0  0  0  0  0  0  0
   49.9321   35.3716   40.4469 H   0  0  0  0  0  0  0  0  0  0  0  0
   48.6214   36.5553   40.1740 H   0  0  0  0  0  0  0  0  0  0  0  0
   47.8555   36.2938   42.3333 H   0  0  0  0  0  0  0  0  0  0  0  0
   49.2954   35.3865   42.7048 H   0  0  0  0  0  0  0  0  0  0  0  0
   44.9411   31.1716   45.9430 H   0  0  0  0  0  0  0  0  0  0  0  0
   46.4961   30.7407   45.0678 H   0  0  0  0  0  0  0  0  0  0  0  0
   47.4285   33.5351   47.1498 H   0  0  0  0  0  0  0  0  0  0  0  0
   48.5163   32.6857   49.4345 H   0  0  0  0  0  0  0  0  0  0  0  0
   48.2774   28.1863   46.6277 H   0  0  0  0  0  0  0  0  0  0  0  0
   43.7209   27.1529   47.8191 H   0  0  0  0  0  0  0  0  0  0  0  0
  1  6  2  0
  2  1  1  0
  3  2  2  0
  3  4  1  0
  4  5  2  0
  5  6  1  0
  5 12  1  0
  7 11  1  0
  7  3  1  0
  8  7  1  0
  9 10  1  0
  9  8  1  0
 10 11  1  0
 12 13  1  0
 13 14  1  0
 13 17  1  0
 14 15  2  0
 15 16  1  0
 17 16  2  0
 18 17  1  0
 18 22  1  0
 19 18  2  0
 20 19  1  0
 20 21  1  0
 21 22  2  0
  1 23  1  0
  2 24  1  0
  7 25  1  0
  8 26  1  0
  8 27  1  0
  9 28  1  0
  9 29  1  0
 10 30  1  0
 10 31  1  0
 11 32  1  0
 11 33  1  0
 12 34  1  0
 12 35  1  0
 14 36  1  0
 15 37  1  0
 19 38  1  0
 21 39  1  0
M  ISO  8  23  14  24  14  25  13  26  13  27  13  28  13  29  13  30  13
M  ISO  8  31  13  32  13  33  13  34   8  35   8  36  14  37  14  38  14
M  ISO  1  39  14
M  END
>  <minimizedAffinity>  (1) 
-5.13050699

>  <minimizedRMSD>  (1) 
2.47284198

$$$$
