
     RDKit          3D

 42 44  0  0  1  0  0  0  0  0999 V2000
   45.6510   34.1900   42.2140 C   0  0  0  0  0  0  0  0  0  0  0  0
   47.0400   34.2770   42.3140 C   0  0  0  0  0  0  0  0  0  0  0  0
   47.6550   33.9080   43.5360 C   0  0  0  0  0  0  0  0  0  0  0  0
   46.8860   33.4880   44.5490 N   0  0  0  0  0  0  0  0  0  0  0  0
   45.5430   33.4050   44.4430 C   0  0  0  0  0  0  0  0  0  0  0  0
   44.9580   33.7510   43.2990 N   0  0  0  0  0  0  0  0  0  0  0  0
   44.8810   34.5720   41.0860 C   0  0  0  0  0  0  0  0  0  0  0  0
   44.0830   33.3510   40.5330 C   0  0  0  0  0  0  0  0  0  0  0  0
   43.1180   34.0650   39.5860 C   0  0  0  0  0  0  0  0  0  0  0  0
   42.8990   35.4120   40.2290 C   0  0  0  0  0  0  0  0  0  0  0  0
   43.7220   35.4210   41.5050 C   0  0  0  0  0  0  0  0  0  0  0  0
   47.8620   34.7510   41.1900 C   0  0  1  0  0  0  0  0  0  0  0  0
   48.8440   35.7910   41.5670 C   0  0  0  0  0  0  0  0  0  0  0  0
   48.4420   33.5500   40.4970 C   0  0  0  0  0  0  0  0  0  0  0  0
   47.9740   33.4210   39.1280 N   0  0  0  0  0  0  0  0  0  0  0  0
   48.3160   34.4300   38.3450 N   0  0  0  0  0  0  0  0  0  0  0  0
   47.8380   34.2290   37.1090 C   0  0  0  0  0  0  0  0  0  0  0  0
   47.1610   33.0360   37.1080 C   0  0  0  0  0  0  0  0  0  0  0  0
   47.2660   32.5590   38.3860 C   0  0  0  0  0  0  0  0  0  0  0  0
   46.7680   31.3280   39.0590 C   0  0  0  0  0  0  0  0  0  0  0  0
   46.6610   31.4790   40.4290 F   0  0  0  0  0  0  0  0  0  0  0  0
   47.7190   30.3280   38.8360 F   0  0  0  0  0  0  0  0  0  0  0  0
   45.5990   30.8540   38.5160 F   0  0  0  0  0  0  0  0  0  0  0  0
   48.7475   33.9656   43.6510 H   0  0  0  0  0  0  0  0  0  0  0  0
   44.9387   33.0552   45.2930 H   0  0  0  0  0  0  0  0  0  0  0  0
   45.5960   35.0385   40.3923 H   0  0  0  0  0  0  0  0  0  0  0  0
   44.7356   32.6475   39.9953 H   0  0  0  0  0  0  0  0  0  0  0  0
   43.6001   32.7291   41.3012 H   0  0  0  0  0  0  0  0  0  0  0  0
   42.1703   33.5125   39.5050 H   0  0  0  0  0  0  0  0  0  0  0  0
   43.5134   34.1454   38.5627 H   0  0  0  0  0  0  0  0  0  0  0  0
   43.2348   36.2137   39.5549 H   0  0  0  0  0  0  0  0  0  0  0  0
   41.8333   35.5818   40.4424 H   0  0  0  0  0  0  0  0  0  0  0  0
   43.1728   34.9725   42.3460 H   0  0  0  0  0  0  0  0  0  0  0  0
   43.9945   36.4228   41.8684 H   0  0  0  0  0  0  0  0  0  0  0  0
   47.2287   35.2905   40.4703 H   0  0  0  0  0  0  0  0  0  0  0  0
   48.9059   35.8566   42.6633 H   0  0  0  0  0  0  0  0  0  0  0  0
   49.8312   35.5283   41.1590 H   0  0  0  0  0  0  0  0  0  0  0  0
   48.5251   36.7615   41.1590 H   0  0  0  0  0  0  0  0  0  0  0  0
   49.5381   33.6422   40.4884 H   0  0  0  0  0  0  0  0  0  0  0  0
   48.1171   32.6553   41.0482 H   0  0  0  0  0  0  0  0  0  0  0  0
   47.9659   34.9016   36.2480 H   0  0  0  0  0  0  0  0  0  0  0  0
   46.6437   32.5634   36.2600 H   0  0  0  0  0  0  0  0  0  0  0  0
  1  2  1  0
  1  6  2  0
  2  3  2  0
  3  4  1  0
  5  4  2  0
  6  5  1  0
  7 11  1  0
  7  1  1  0
  8  7  1  0
  9 10  1  0
  9  8  1  0
 10 11  1  0
 12 13  1  0
 12  2  1  0
 14 12  1  0
 15 14  1  0
 16 15  1  0
 17 16  2  0
 18 17  1  0
 18 19  2  0
 19 20  1  0
 19 15  1  0
 20 21  1  0
 22 20  1  0
 23 20  1  0
  3 24  1  0
  5 25  1  0
  7 26  1  0
  8 27  1  0
  8 28  1  0
  9 29  1  0
  9 30  1  0
 10 31  1  0
 10 32  1  0
 11 33  1  0
 11 34  1  0
 12 35  1  6
 13 36  1  0
 13 37  1  0
 13 38  1  0
 14 39  1  0
 14 40  1  0
 17 41  1  0
 18 42  1  0
M  ISO  8  24  14  25  14  26  13  27  13  28  13  29  13  30  13  31  13
M  ISO  8  32  13  33  13  34  13  35   8  36   8  37   8  38   8  39   8
M  ISO  3  40   8  41  14  42  14
M  END
>  <minimizedAffinity>  (1) 
-4.92639303

>  <minimizedRMSD>  (1) 
0.762631178

$$$$
