
     RDKit          3D

 36 38  0  0  0  0  0  0  0  0999 V2000
   45.1730   34.7400   44.8890 C   0  0  0  0  0  0  0  0  0  0  0  0
   45.9490   34.9920   43.7320 C   0  0  0  0  0  0  0  0  0  0  0  0
   46.7930   33.9380   43.2640 C   0  0  0  0  0  0  0  0  0  0  0  0
   46.7950   32.7700   43.9530 N   0  0  0  0  0  0  0  0  0  0  0  0
   46.0340   32.5670   45.0620 C   0  0  0  0  0  0  0  0  0  0  0  0
   45.2380   33.5370   45.5190 N   0  0  0  0  0  0  0  0  0  0  0  0
   47.6280   34.1000   42.0720 C   0  0  0  0  0  0  0  0  0  0  0  0
   46.8920   34.2000   40.7900 C   0  0  0  0  0  0  0  0  0  0  0  0
   48.0450   34.5110   39.8520 C   0  0  0  0  0  0  0  0  0  0  0  0
   48.8480   35.5020   40.6460 C   0  0  0  0  0  0  0  0  0  0  0  0
   48.4460   35.3720   42.1140 C   0  0  0  0  0  0  0  0  0  0  0  0
   46.0940   31.2710   45.7470 C   0  0  0  0  0  0  0  0  0  0  0  0
   46.7950   31.2920   47.0000 N   0  0  0  0  0  0  0  0  0  0  0  0
   48.1020   31.2440   47.2640 C   0  0  0  0  0  0  0  0  0  0  0  0
   48.3130   31.2930   48.6340 C   0  0  0  0  0  0  0  0  0  0  0  0
   47.1070   31.3740   49.2130 N   0  0  0  0  0  0  0  0  0  0  0  0
   46.2110   31.3720   48.2190 C   0  0  0  0  0  0  0  0  0  0  0  0
   44.7280   31.4490   48.4310 C   0  0  0  0  0  0  0  0  0  0  0  0
   44.5108   35.5254   45.2822 H   0  0  0  0  0  0  0  0  0  0  0  0
   45.9040   35.9611   43.2136 H   0  0  0  0  0  0  0  0  0  0  0  0
   48.2336   33.1821   42.0990 H   0  0  0  0  0  0  0  0  0  0  0  0
   46.3960   33.2537   40.5284 H   0  0  0  0  0  0  0  0  0  0  0  0
   46.0736   34.9349   40.7801 H   0  0  0  0  0  0  0  0  0  0  0  0
   47.6847   34.9531   38.9114 H   0  0  0  0  0  0  0  0  0  0  0  0
   48.6181   33.6220   39.5500 H   0  0  0  0  0  0  0  0  0  0  0  0
   49.9211   35.2881   40.5330 H   0  0  0  0  0  0  0  0  0  0  0  0
   48.6545   36.5237   40.2872 H   0  0  0  0  0  0  0  0  0  0  0  0
   47.8433   36.2301   42.4463 H   0  0  0  0  0  0  0  0  0  0  0  0
   49.2914   35.3469   42.8173 H   0  0  0  0  0  0  0  0  0  0  0  0
   45.0640   30.9337   45.9351 H   0  0  0  0  0  0  0  0  0  0  0  0
   46.6544   30.5933   45.0862 H   0  0  0  0  0  0  0  0  0  0  0  0
   48.8961   31.1756   46.5059 H   0  0  0  0  0  0  0  0  0  0  0  0
   49.2854   31.2698   49.1477 H   0  0  0  0  0  0  0  0  0  0  0  0
   44.5119   31.4602   49.5095 H   0  0  0  0  0  0  0  0  0  0  0  0
   44.3389   32.3686   47.9695 H   0  0  0  0  0  0  0  0  0  0  0  0
   44.2457   30.5747   47.9695 H   0  0  0  0  0  0  0  0  0  0  0  0
  1  6  2  0
  2  1  1  0
  3  2  2  0
  3  4  1  0
  4  5  2  0
  5  6  1  0
  5 12  1  0
  7 11  1  0
  7  3  1  0
  8  7  1  0
  9 10  1  0
  9  8  1  0
 10 11  1  0
 12 13  1  0
 13 14  1  0
 13 17  1  0
 14 15  2  0
 15 16  1  0
 17 18  1  0
 17 16  2  0
  1 19  1  0
  2 20  1  0
  7 21  1  0
  8 22  1  0
  8 23  1  0
  9 24  1  0
  9 25  1  0
 10 26  1  0
 10 27  1  0
 11 28  1  0
 11 29  1  0
 12 30  1  0
 12 31  1  0
 14 32  1  0
 15 33  1  0
 18 34  1  0
 18 35  1  0
 18 36  1  0
M  ISO  8  19  14  20  14  21  13  22  13  23  13  24  13  25  13  26  13
M  ISO  8  27  13  28  13  29  13  30   8  31   8  32  14  33  14  34   8
M  ISO  2  35   8  36   8
M  END
>  <minimizedAffinity>  (1) 
-4.63380194

>  <minimizedRMSD>  (1) 
0.688602686

$$$$
