
     RDKit          3D

 44 47  0  0  0  0  0  0  0  0999 V2000
   45.1940   34.4580   45.0330 C   0  0  0  0  0  0  0  0  0  0  0  0
   45.8150   34.6730   43.7780 C   0  0  0  0  0  0  0  0  0  0  0  0
   46.9810   33.8860   43.4740 C   0  0  0  0  0  0  0  0  0  0  0  0
   47.3950   33.0030   44.4050 N   0  0  0  0  0  0  0  0  0  0  0  0
   46.7770   32.8240   45.5970 C   0  0  0  0  0  0  0  0  0  0  0  0
   45.6920   33.5450   45.8990 N   0  0  0  0  0  0  0  0  0  0  0  0
   47.6910   34.0410   42.2000 C   0  0  0  0  0  0  0  0  0  0  0  0
   46.8330   34.2710   41.0260 C   0  0  0  0  0  0  0  0  0  0  0  0
   47.9060   34.5570   39.9820 C   0  0  0  0  0  0  0  0  0  0  0  0
   48.8230   35.4800   40.7170 C   0  0  0  0  0  0  0  0  0  0  0  0
   48.6260   35.2460   42.2110 C   0  0  0  0  0  0  0  0  0  0  0  0
   47.3090   31.8340   46.5500 C   0  0  0  0  0  0  0  0  0  0  0  0
   46.3960   31.4880   47.6080 N   0  0  0  0  0  0  0  0  0  0  0  0
   46.1590   32.0820   48.7860 C   0  0  0  0  0  0  0  0  0  0  0  0
   45.1850   31.3870   49.4850 C   0  0  0  0  0  0  0  0  0  0  0  0
   44.8240   30.3530   48.7210 N   0  0  0  0  0  0  0  0  0  0  0  0
   45.5600   30.4210   47.5880 C   0  0  0  0  0  0  0  0  0  0  0  0
   45.4630   29.2470   46.2010 S   0  0  0  0  0  0  0  0  0  0  0  0
   44.5280   27.8480   46.8020 C   0  0  0  0  0  0  0  0  0  0  0  0
   44.8640   27.1930   47.9700 C   0  0  0  0  0  0  0  0  0  0  0  0
   44.1430   26.1120   48.4360 C   0  0  0  0  0  0  0  0  0  0  0  0
   43.0520   25.6560   47.7300 C   0  0  0  0  0  0  0  0  0  0  0  0
   42.6900   26.2990   46.5450 C   0  0  0  0  0  0  0  0  0  0  0  0
   43.4400   27.3910   46.1000 C   0  0  0  0  0  0  0  0  0  0  0  0
   44.2999   35.0378   45.3058 H   0  0  0  0  0  0  0  0  0  0  0  0
   45.4217   35.4119   43.0644 H   0  0  0  0  0  0  0  0  0  0  0  0
   48.2119   33.0763   42.1101 H   0  0  0  0  0  0  0  0  0  0  0  0
   46.2393   33.3808   40.7710 H   0  0  0  0  0  0  0  0  0  0  0  0
   46.0757   35.0595   41.1470 H   0  0  0  0  0  0  0  0  0  0  0  0
   47.4781   35.0440   39.0933 H   0  0  0  0  0  0  0  0  0  0  0  0
   48.4025   33.6529   39.5998 H   0  0  0  0  0  0  0  0  0  0  0  0
   49.8664   35.2687   40.4401 H   0  0  0  0  0  0  0  0  0  0  0  0
   48.5996   36.5261   40.4606 H   0  0  0  0  0  0  0  0  0  0  0  0
   48.1584   36.1149   42.6971 H   0  0  0  0  0  0  0  0  0  0  0  0
   49.5597   35.0885   42.7708 H   0  0  0  0  0  0  0  0  0  0  0  0
   47.5570   30.9178   45.9941 H   0  0  0  0  0  0  0  0  0  0  0  0
   48.1881   32.2924   47.0265 H   0  0  0  0  0  0  0  0  0  0  0  0
   46.6647   32.9901   49.1459 H   0  0  0  0  0  0  0  0  0  0  0  0
   44.7858   31.6388   50.4786 H   0  0  0  0  0  0  0  0  0  0  0  0
   45.7327   27.5432   48.5468 H   0  0  0  0  0  0  0  0  0  0  0  0
   44.4399   25.6148   49.3712 H   0  0  0  0  0  0  0  0  0  0  0  0
   42.4727   24.7953   48.0955 H   0  0  0  0  0  0  0  0  0  0  0  0
   41.8221   25.9492   45.9667 H   0  0  0  0  0  0  0  0  0  0  0  0
   43.1522   27.8959   45.1661 H   0  0  0  0  0  0  0  0  0  0  0  0
  1  6  2  0
  2  1  1  0
  3  2  2  0
  3  4  1  0
  4  5  2  0
  5  6  1  0
  5 12  1  0
  7 11  1  0
  7  3  1  0
  8  7  1  0
  9 10  1  0
  9  8  1  0
 10 11  1  0
 12 13  1  0
 13 14  1  0
 14 15  2  0
 16 15  1  0
 17 13  1  0
 17 16  2  0
 18 19  1  0
 18 17  1  0
 19 20  2  0
 20 21  1  0
 22 21  2  0
 23 22  1  0
 24 23  2  0
 24 19  1  0
  1 25  1  0
  2 26  1  0
  7 27  1  0
  8 28  1  0
  8 29  1  0
  9 30  1  0
  9 31  1  0
 10 32  1  0
 10 33  1  0
 11 34  1  0
 11 35  1  0
 12 36  1  0
 12 37  1  0
 14 38  1  0
 15 39  1  0
 20 40  1  0
 21 41  1  0
 22 42  1  0
 23 43  1  0
 24 44  1  0
M  ISO  8  25  14  26  14  27  13  28  13  29  13  30  13  31  13  32  13
M  ISO  8  33  13  34  13  35  13  36   8  37   8  38  14  39  14  40  14
M  ISO  4  41  14  42  14  43  14  44  14
M  END
>  <minimizedAffinity>  (1) 
-6.34435272

>  <minimizedRMSD>  (1) 
2.33720565

$$$$
