
     RDKit          3D

 44 47  0  0  0  0  0  0  0  0999 V2000
   45.1990   34.4530   45.0380 C   0  0  0  0  0  0  0  0  0  0  0  0
   45.8250   34.6740   43.7870 C   0  0  0  0  0  0  0  0  0  0  0  0
   46.9820   33.8800   43.4730 C   0  0  0  0  0  0  0  0  0  0  0  0
   47.3850   32.9850   44.3890 N   0  0  0  0  0  0  0  0  0  0  0  0
   46.7680   32.7920   45.5800 C   0  0  0  0  0  0  0  0  0  0  0  0
   45.6880   33.5220   45.8910 N   0  0  0  0  0  0  0  0  0  0  0  0
   47.6900   34.0520   42.1940 C   0  0  0  0  0  0  0  0  0  0  0  0
   46.8270   34.2690   41.0220 C   0  0  0  0  0  0  0  0  0  0  0  0
   47.9100   34.5510   39.9760 C   0  0  0  0  0  0  0  0  0  0  0  0
   48.8210   35.4760   40.7120 C   0  0  0  0  0  0  0  0  0  0  0  0
   48.6190   35.2610   42.2150 C   0  0  0  0  0  0  0  0  0  0  0  0
   47.2880   31.7870   46.5170 C   0  0  0  0  0  0  0  0  0  0  0  0
   46.3920   31.4630   47.5960 N   0  0  0  0  0  0  0  0  0  0  0  0
   46.1930   32.0620   48.7730 C   0  0  0  0  0  0  0  0  0  0  0  0
   45.2180   31.3840   49.4920 C   0  0  0  0  0  0  0  0  0  0  0  0
   44.8190   30.3510   48.7270 N   0  0  0  0  0  0  0  0  0  0  0  0
   45.5430   30.4180   47.5840 C   0  0  0  0  0  0  0  0  0  0  0  0
   45.3880   29.2440   46.2080 S   0  0  0  0  0  0  0  0  0  0  0  0
   44.5350   27.8160   46.9030 C   0  0  0  0  0  0  0  0  0  0  0  0
   43.4650   27.3850   46.1430 C   0  0  0  0  0  0  0  0  0  0  0  0
   42.6890   26.2920   46.5250 C   0  0  0  0  0  0  0  0  0  0  0  0
   43.0680   25.6840   47.7060 C   0  0  0  0  0  0  0  0  0  0  0  0
   44.1300   26.0870   48.4900 C   0  0  0  0  0  0  0  0  0  0  0  0
   44.8790   27.1740   48.0810 C   0  0  0  0  0  0  0  0  0  0  0  0
   44.3119   35.0401   45.3179 H   0  0  0  0  0  0  0  0  0  0  0  0
   45.4403   35.4253   43.0816 H   0  0  0  0  0  0  0  0  0  0  0  0
   48.2226   33.0948   42.0938 H   0  0  0  0  0  0  0  0  0  0  0  0
   46.2364   33.3749   40.7735 H   0  0  0  0  0  0  0  0  0  0  0  0
   46.0633   35.0525   41.1354 H   0  0  0  0  0  0  0  0  0  0  0  0
   47.4867   35.0340   39.0830 H   0  0  0  0  0  0  0  0  0  0  0  0
   48.4082   33.6456   39.5991 H   0  0  0  0  0  0  0  0  0  0  0  0
   49.8656   35.2602   40.4431 H   0  0  0  0  0  0  0  0  0  0  0  0
   48.5949   36.5192   40.4462 H   0  0  0  0  0  0  0  0  0  0  0  0
   48.1436   36.1315   42.6905 H   0  0  0  0  0  0  0  0  0  0  0  0
   49.5466   35.1193   42.7889 H   0  0  0  0  0  0  0  0  0  0  0  0
   47.4958   30.8655   45.9534 H   0  0  0  0  0  0  0  0  0  0  0  0
   48.1891   32.2204   46.9754 H   0  0  0  0  0  0  0  0  0  0  0  0
   46.7236   32.9604   49.1214 H   0  0  0  0  0  0  0  0  0  0  0  0
   44.8437   31.6414   50.4938 H   0  0  0  0  0  0  0  0  0  0  0  0
   43.2191   27.9179   45.2127 H   0  0  0  0  0  0  0  0  0  0  0  0
   41.8352   25.9386   45.9282 H   0  0  0  0  0  0  0  0  0  0  0  0
   42.4819   24.8173   48.0457 H   0  0  0  0  0  0  0  0  0  0  0  0
   44.3750   25.5543   49.4207 H   0  0  0  0  0  0  0  0  0  0  0  0
   45.7329   27.5230   48.6802 H   0  0  0  0  0  0  0  0  0  0  0  0
  1  6  2  0
  2  1  1  0
  3  2  2  0
  3  4  1  0
  4  5  2  0
  5  6  1  0
  5 12  1  0
  7 11  1  0
  7  3  1  0
  8  7  1  0
  9 10  1  0
  9  8  1  0
 10 11  1  0
 12 13  1  0
 13 14  1  0
 14 15  2  0
 16 15  1  0
 17 13  1  0
 17 16  2  0
 18 19  1  0
 18 17  1  0
 19 24  2  0
 20 21  2  0
 20 19  1  0
 21 22  1  0
 22 23  2  0
 24 23  1  0
  1 25  1  0
  2 26  1  0
  7 27  1  0
  8 28  1  0
  8 29  1  0
  9 30  1  0
  9 31  1  0
 10 32  1  0
 10 33  1  0
 11 34  1  0
 11 35  1  0
 12 36  1  0
 12 37  1  0
 14 38  1  0
 15 39  1  0
 20 40  1  0
 21 41  1  0
 22 42  1  0
 23 43  1  0
 24 44  1  0
M  ISO  8  25  14  26  14  27  13  28  13  29  13  30  13  31  13  32  13
M  ISO  8  33  13  34  13  35  13  36   8  37   8  38  14  39  14  40  14
M  ISO  4  41  14  42  14  43  14  44  14
M  END
>  <minimizedAffinity>  (1) 
-6.36466122

>  <minimizedRMSD>  (1) 
2.39482307

$$$$
