
     RDKit          3D

 42 45  0  0  0  0  0  0  0  0999 V2000
   45.2360   34.3930   44.9750 C   0  0  0  0  0  0  0  0  0  0  0  0
   45.8960   34.6650   43.7520 C   0  0  0  0  0  0  0  0  0  0  0  0
   47.0160   33.8330   43.4080 C   0  0  0  0  0  0  0  0  0  0  0  0
   47.3600   32.8540   44.2730 N   0  0  0  0  0  0  0  0  0  0  0  0
   46.7020   32.6230   45.4360 C   0  0  0  0  0  0  0  0  0  0  0  0
   45.6550   33.3850   45.7800 N   0  0  0  0  0  0  0  0  0  0  0  0
   47.7620   34.0470   42.1600 C   0  0  0  0  0  0  0  0  0  0  0  0
   46.9330   34.2430   40.9620 C   0  0  0  0  0  0  0  0  0  0  0  0
   48.0280   34.5960   39.9600 C   0  0  0  0  0  0  0  0  0  0  0  0
   48.8820   35.5420   40.7350 C   0  0  0  0  0  0  0  0  0  0  0  0
   48.6350   35.2950   42.2240 C   0  0  0  0  0  0  0  0  0  0  0  0
   47.1470   31.5320   46.3180 C   0  0  0  0  0  0  0  0  0  0  0  0
   46.3850   31.4010   47.5290 N   0  0  0  0  0  0  0  0  0  0  0  0
   46.2680   32.2420   48.5710 C   0  0  0  0  0  0  0  0  0  0  0  0
   45.4150   31.6860   49.5200 C   0  0  0  0  0  0  0  0  0  0  0  0
   45.0090   30.4860   49.0400 N   0  0  0  0  0  0  0  0  0  0  0  0
   45.6070   30.3290   47.8310 C   0  0  0  0  0  0  0  0  0  0  0  0
   45.3900   28.8870   46.7780 S   0  0  0  0  0  0  0  0  0  0  0  0
   45.5650   27.3730   47.6690 C   0  0  0  0  0  0  0  0  0  0  0  0
   44.5990   26.7800   48.4560 C   0  0  0  0  0  0  0  0  0  0  0  0
   44.7780   25.5930   49.1370 C   0  0  0  0  0  0  0  0  0  0  0  0
   45.9960   24.9900   49.0060 N   0  0  0  0  0  0  0  0  0  0  0  0
   46.9510   25.5710   48.2310 C   0  0  0  0  0  0  0  0  0  0  0  0
   46.7700   26.7390   47.5630 N   0  0  0  0  0  0  0  0  0  0  0  0
   44.3737   35.0062   45.2756 H   0  0  0  0  0  0  0  0  0  0  0  0
   45.5647   35.4802   43.0920 H   0  0  0  0  0  0  0  0  0  0  0  0
   48.3388   33.1145   42.0719 H   0  0  0  0  0  0  0  0  0  0  0  0
   46.3964   33.3255   40.6786 H   0  0  0  0  0  0  0  0  0  0  0  0
   46.1297   34.9877   41.0626 H   0  0  0  0  0  0  0  0  0  0  0  0
   47.6079   35.0806   39.0663 H   0  0  0  0  0  0  0  0  0  0  0  0
   48.5755   33.7200   39.5820 H   0  0  0  0  0  0  0  0  0  0  0  0
   49.9419   35.3664   40.4988 H   0  0  0  0  0  0  0  0  0  0  0  0
   48.6323   36.5812   40.4747 H   0  0  0  0  0  0  0  0  0  0  0  0
   48.1049   36.1373   42.6925 H   0  0  0  0  0  0  0  0  0  0  0  0
   49.5483   35.1840   42.8270 H   0  0  0  0  0  0  0  0  0  0  0  0
   47.0727   30.5866   45.7606 H   0  0  0  0  0  0  0  0  0  0  0  0
   48.1775   31.7716   46.6192 H   0  0  0  0  0  0  0  0  0  0  0  0
   46.7684   33.2176   48.6599 H   0  0  0  0  0  0  0  0  0  0  0  0
   45.1247   32.1368   50.4805 H   0  0  0  0  0  0  0  0  0  0  0  0
   43.6258   27.2847   48.5462 H   0  0  0  0  0  0  0  0  0  0  0  0
   43.9798   25.1549   49.7541 H   0  0  0  0  0  0  0  0  0  0  0  0
   47.9242   25.0664   48.1404 H   0  0  0  0  0  0  0  0  0  0  0  0
  1  6  2  0
  2  1  1  0
  3  2  2  0
  3  4  1  0
  4  5  2  0
  5  6  1  0
  5 12  1  0
  7 11  1  0
  7  3  1  0
  8  7  1  0
  9 10  1  0
  9  8  1  0
 10 11  1  0
 12 13  1  0
 13 17  1  0
 13 14  1  0
 14 15  2  0
 16 15  1  0
 17 16  2  0
 18 19  1  0
 18 17  1  0
 19 20  2  0
 20 21  1  0
 22 21  2  0
 23 22  1  0
 24 19  1  0
 24 23  2  0
  1 25  1  0
  2 26  1  0
  7 27  1  0
  8 28  1  0
  8 29  1  0
  9 30  1  0
  9 31  1  0
 10 32  1  0
 10 33  1  0
 11 34  1  0
 11 35  1  0
 12 36  1  0
 12 37  1  0
 14 38  1  0
 15 39  1  0
 20 40  1  0
 21 41  1  0
 23 42  1  0
M  ISO  8  25  14  26  14  27  13  28  13  29  13  30  13  31  13  32  13
M  ISO  8  33  13  34  13  35  13  36   8  37   8  38  14  39  14  40  14
M  ISO  2  41  14  42  14
M  END
>  <minimizedAffinity>  (1) 
-5.94737101

>  <minimizedRMSD>  (1) 
2.43931818

$$$$
