
     RDKit          3D

 42 45  0  0  0  0  0  0  0  0999 V2000
   45.1980   34.4780   44.9980 C   0  0  0  0  0  0  0  0  0  0  0  0
   45.8350   34.6950   43.7530 C   0  0  0  0  0  0  0  0  0  0  0  0
   46.9970   33.9070   43.4440 C   0  0  0  0  0  0  0  0  0  0  0  0
   47.3980   33.0110   44.3690 N   0  0  0  0  0  0  0  0  0  0  0  0
   46.7670   32.8210   45.5590 C   0  0  0  0  0  0  0  0  0  0  0  0
   45.6860   33.5460   45.8590 N   0  0  0  0  0  0  0  0  0  0  0  0
   47.7110   34.0790   42.1780 C   0  0  0  0  0  0  0  0  0  0  0  0
   46.8560   34.2730   40.9950 C   0  0  0  0  0  0  0  0  0  0  0  0
   47.9400   34.5680   39.9580 C   0  0  0  0  0  0  0  0  0  0  0  0
   48.8420   35.5030   40.6890 C   0  0  0  0  0  0  0  0  0  0  0  0
   48.6260   35.2970   42.1930 C   0  0  0  0  0  0  0  0  0  0  0  0
   47.2840   31.8190   46.5000 C   0  0  0  0  0  0  0  0  0  0  0  0
   46.3890   31.5150   47.5850 N   0  0  0  0  0  0  0  0  0  0  0  0
   46.2220   32.1060   48.7770 C   0  0  0  0  0  0  0  0  0  0  0  0
   45.2370   31.4630   49.5000 C   0  0  0  0  0  0  0  0  0  0  0  0
   44.7900   30.4520   48.7300 N   0  0  0  0  0  0  0  0  0  0  0  0
   45.5020   30.5030   47.5750 C   0  0  0  0  0  0  0  0  0  0  0  0
   45.2790   29.3540   46.2050 S   0  0  0  0  0  0  0  0  0  0  0  0
   44.5320   27.8850   46.9130 C   0  0  0  0  0  0  0  0  0  0  0  0
   43.4890   27.2320   46.2860 C   0  0  0  0  0  0  0  0  0  0  0  0
   42.8460   26.1030   46.7390 C   0  0  0  0  0  0  0  0  0  0  0  0
   43.2930   25.6060   47.9060 N   0  0  0  0  0  0  0  0  0  0  0  0
   44.3070   26.2130   48.5490 C   0  0  0  0  0  0  0  0  0  0  0  0
   44.9230   27.3220   48.0820 N   0  0  0  0  0  0  0  0  0  0  0  0
   44.3074   35.0639   45.2692 H   0  0  0  0  0  0  0  0  0  0  0  0
   45.4527   35.4437   43.0435 H   0  0  0  0  0  0  0  0  0  0  0  0
   48.2577   33.1282   42.0945 H   0  0  0  0  0  0  0  0  0  0  0  0
   46.2843   33.3666   40.7468 H   0  0  0  0  0  0  0  0  0  0  0  0
   46.0779   35.0439   41.0965 H   0  0  0  0  0  0  0  0  0  0  0  0
   47.5142   35.0451   39.0630 H   0  0  0  0  0  0  0  0  0  0  0  0
   48.4502   33.6660   39.5891 H   0  0  0  0  0  0  0  0  0  0  0  0
   49.8895   35.2889   40.4302 H   0  0  0  0  0  0  0  0  0  0  0  0
   48.6175   36.5434   40.4113 H   0  0  0  0  0  0  0  0  0  0  0  0
   48.1368   36.1667   42.6559 H   0  0  0  0  0  0  0  0  0  0  0  0
   49.5503   35.1687   42.7754 H   0  0  0  0  0  0  0  0  0  0  0  0
   47.4797   30.8907   45.9432 H   0  0  0  0  0  0  0  0  0  0  0  0
   48.1935   32.2449   46.9489 H   0  0  0  0  0  0  0  0  0  0  0  0
   46.7897   32.9799   49.1292 H   0  0  0  0  0  0  0  0  0  0  0  0
   44.8855   31.7253   50.5088 H   0  0  0  0  0  0  0  0  0  0  0  0
   43.1387   27.6551   45.3330 H   0  0  0  0  0  0  0  0  0  0  0  0
   42.0195   25.6369   46.1825 H   0  0  0  0  0  0  0  0  0  0  0  0
   44.6519   25.7856   49.5021 H   0  0  0  0  0  0  0  0  0  0  0  0
  1  6  2  0
  2  1  1  0
  3  2  2  0
  3  4  1  0
  4  5  2  0
  5  6  1  0
  5 12  1  0
  7 11  1  0
  7  3  1  0
  8  7  1  0
  9 10  1  0
  9  8  1  0
 10 11  1  0
 12 13  1  0
 13 14  1  0
 14 15  2  0
 16 15  1  0
 17 13  1  0
 17 16  2  0
 18 19  1  0
 18 17  1  0
 19 24  2  0
 20 21  2  0
 20 19  1  0
 21 22  1  0
 22 23  2  0
 24 23  1  0
  1 25  1  0
  2 26  1  0
  7 27  1  0
  8 28  1  0
  8 29  1  0
  9 30  1  0
  9 31  1  0
 10 32  1  0
 10 33  1  0
 11 34  1  0
 11 35  1  0
 12 36  1  0
 12 37  1  0
 14 38  1  0
 15 39  1  0
 20 40  1  0
 21 41  1  0
 23 42  1  0
M  ISO  8  25  14  26  14  27  13  28  13  29  13  30  13  31  13  32  13
M  ISO  8  33  13  34  13  35  13  36   8  37   8  38  14  39  14  40  14
M  ISO  2  41  14  42  14
M  END
>  <minimizedAffinity>  (1) 
-6.05983019

>  <minimizedRMSD>  (1) 
2.37667656

$$$$
