
     RDKit          3D

 41 44  0  0  0  0  0  0  0  0999 V2000
   45.2160   34.4310   45.0320 C   0  0  0  0  0  0  0  0  0  0  0  0
   45.8500   34.6640   43.7850 C   0  0  0  0  0  0  0  0  0  0  0  0
   47.0010   33.8670   43.4600 C   0  0  0  0  0  0  0  0  0  0  0  0
   47.3920   32.9530   44.3730 N   0  0  0  0  0  0  0  0  0  0  0  0
   46.7680   32.7510   45.5550 C   0  0  0  0  0  0  0  0  0  0  0  0
   45.6950   33.4850   45.8720 N   0  0  0  0  0  0  0  0  0  0  0  0
   47.7190   34.0470   42.1940 C   0  0  0  0  0  0  0  0  0  0  0  0
   46.8660   34.3050   41.0230 C   0  0  0  0  0  0  0  0  0  0  0  0
   47.9580   34.5880   39.9920 C   0  0  0  0  0  0  0  0  0  0  0  0
   48.8730   35.5030   40.7510 C   0  0  0  0  0  0  0  0  0  0  0  0
   48.6700   35.2370   42.2430 C   0  0  0  0  0  0  0  0  0  0  0  0
   47.2780   31.7270   46.4820 C   0  0  0  0  0  0  0  0  0  0  0  0
   46.3970   31.4390   47.5880 N   0  0  0  0  0  0  0  0  0  0  0  0
   46.2470   32.0410   48.7640 C   0  0  0  0  0  0  0  0  0  0  0  0
   45.2680   31.4030   49.5110 C   0  0  0  0  0  0  0  0  0  0  0  0
   44.8140   30.3790   48.7520 N   0  0  0  0  0  0  0  0  0  0  0  0
   45.5140   30.4230   47.5900 C   0  0  0  0  0  0  0  0  0  0  0  0
   45.2780   29.2590   46.2360 S   0  0  0  0  0  0  0  0  0  0  0  0
   44.5430   27.7880   46.9630 C   0  0  0  0  0  0  0  0  0  0  0  0
   44.7790   27.1170   48.0740 C   0  0  0  0  0  0  0  0  0  0  0  0
   44.0490   25.9990   48.3920 C   0  0  0  0  0  0  0  0  0  0  0  0
   43.0870   25.6340   47.5090 C   0  0  0  0  0  0  0  0  0  0  0  0
   43.2210   26.9380   46.1580 S   0  0  0  0  0  0  0  0  0  0  0  0
   44.3324   35.0211   45.3169 H   0  0  0  0  0  0  0  0  0  0  0  0
   45.4735   35.4289   43.0899 H   0  0  0  0  0  0  0  0  0  0  0  0
   48.2345   33.0822   42.0786 H   0  0  0  0  0  0  0  0  0  0  0  0
   46.2601   33.4277   40.7523 H   0  0  0  0  0  0  0  0  0  0  0  0
   46.1160   35.0997   41.1490 H   0  0  0  0  0  0  0  0  0  0  0  0
   47.5470   35.0834   39.1000 H   0  0  0  0  0  0  0  0  0  0  0  0
   48.4526   33.6829   39.6097 H   0  0  0  0  0  0  0  0  0  0  0  0
   49.9181   35.3008   40.4739 H   0  0  0  0  0  0  0  0  0  0  0  0
   48.6478   36.5534   40.5145 H   0  0  0  0  0  0  0  0  0  0  0  0
   48.2130   36.0999   42.7496 H   0  0  0  0  0  0  0  0  0  0  0  0
   49.5987   35.0551   42.8037 H   0  0  0  0  0  0  0  0  0  0  0  0
   47.4363   30.7973   45.9159 H   0  0  0  0  0  0  0  0  0  0  0  0
   48.2075   32.1264   46.9139 H   0  0  0  0  0  0  0  0  0  0  0  0
   46.8182   32.9201   49.0971 H   0  0  0  0  0  0  0  0  0  0  0  0
   44.9278   31.6756   50.5209 H   0  0  0  0  0  0  0  0  0  0  0  0
   45.5722   27.4584   48.7554 H   0  0  0  0  0  0  0  0  0  0  0  0
   44.2346   25.4293   49.3145 H   0  0  0  0  0  0  0  0  0  0  0  0
   42.3948   24.7811   47.5679 H   0  0  0  0  0  0  0  0  0  0  0  0
  1  6  2  0
  2  1  1  0
  3  2  2  0
  3  4  1  0
  4  5  2  0
  5  6  1  0
  5 12  1  0
  7 11  1  0
  7  3  1  0
  8  7  1  0
  9 10  1  0
  9  8  1  0
 10 11  1  0
 12 13  1  0
 13 17  1  0
 13 14  1  0
 14 15  2  0
 16 15  1  0
 17 16  2  0
 18 19  1  0
 18 17  1  0
 19 20  2  0
 20 21  1  0
 22 21  2  0
 23 19  1  0
 23 22  1  0
  1 24  1  0
  2 25  1  0
  7 26  1  0
  8 27  1  0
  8 28  1  0
  9 29  1  0
  9 30  1  0
 10 31  1  0
 10 32  1  0
 11 33  1  0
 11 34  1  0
 12 35  1  0
 12 36  1  0
 14 37  1  0
 15 38  1  0
 20 39  1  0
 21 40  1  0
 22 41  1  0
M  ISO  8  24  14  25  14  26  13  27  13  28  13  29  13  30  13  31  13
M  ISO  8  32  13  33  13  34  13  35   8  36   8  37  14  38  14  39  14
M  ISO  2  40  14  41  14
M  END
>  <minimizedAffinity>  (1) 
-5.9830699

>  <minimizedRMSD>  (1) 
2.26913929

$$$$
