
     RDKit          3D

 40 42  0  0  0  0  0  0  0  0999 V2000
   44.6170   35.9190   44.4340 C   0  0  0  0  0  0  0  0  0  0  0  0
   45.4300   35.7470   43.2850 C   0  0  0  0  0  0  0  0  0  0  0  0
   46.3440   34.6390   43.2810 C   0  0  0  0  0  0  0  0  0  0  0  0
   46.3400   33.8620   44.3800 N   0  0  0  0  0  0  0  0  0  0  0  0
   45.5600   34.0420   45.4620 C   0  0  0  0  0  0  0  0  0  0  0  0
   44.7010   35.0690   45.4860 N   0  0  0  0  0  0  0  0  0  0  0  0
   47.2220   34.3840   42.1470 C   0  0  0  0  0  0  0  0  0  0  0  0
   46.5590   34.3120   40.8350 C   0  0  0  0  0  0  0  0  0  0  0  0
   47.7880   34.2070   39.9390 C   0  0  0  0  0  0  0  0  0  0  0  0
   48.6850   35.2550   40.5210 C   0  0  0  0  0  0  0  0  0  0  0  0
   48.2540   35.4910   41.9570 C   0  0  0  0  0  0  0  0  0  0  0  0
   45.6450   33.1290   46.6080 C   0  0  0  0  0  0  0  0  0  0  0  0
   46.1830   31.8350   46.3050 N   0  0  0  0  0  0  0  0  0  0  0  0
   45.9090   30.9760   45.3350 C   0  0  0  0  0  0  0  0  0  0  0  0
   46.6990   29.8350   45.4480 C   0  0  0  0  0  0  0  0  0  0  0  0
   47.4790   30.0300   46.5380 N   0  0  0  0  0  0  0  0  0  0  0  0
   47.1540   31.2360   47.0380 C   0  0  0  0  0  0  0  0  0  0  0  0
   47.9220   31.9600   48.5180 S   0  0  0  0  0  0  0  0  0  0  0  0
   48.8280   30.6860   49.4300 C   0  0  0  0  0  0  0  0  0  0  0  0
   50.0310   31.3930   50.0520 C   0  0  0  0  0  0  0  0  0  0  0  0
   43.9056   36.7572   44.4720 H   0  0  0  0  0  0  0  0  0  0  0  0
   45.3633   36.4355   42.4298 H   0  0  0  0  0  0  0  0  0  0  0  0
   47.6530   33.4091   42.4188 H   0  0  0  0  0  0  0  0  0  0  0  0
   45.9120   33.4264   40.7500 H   0  0  0  0  0  0  0  0  0  0  0  0
   45.8817   35.1479   40.6056 H   0  0  0  0  0  0  0  0  0  0  0  0
   47.5393   34.4303   38.8910 H   0  0  0  0  0  0  0  0  0  0  0  0
   48.2356   33.2025   39.9145 H   0  0  0  0  0  0  0  0  0  0  0  0
   49.7291   34.9096   40.4959 H   0  0  0  0  0  0  0  0  0  0  0  0
   48.6133   36.1868   39.9408 H   0  0  0  0  0  0  0  0  0  0  0  0
   49.0976   35.3786   42.6539 H   0  0  0  0  0  0  0  0  0  0  0  0
   47.8688   36.5030   42.1505 H   0  0  0  0  0  0  0  0  0  0  0  0
   46.2849   33.5959   47.3712 H   0  0  0  0  0  0  0  0  0  0  0  0
   44.6128   32.9637   46.9505 H   0  0  0  0  0  0  0  0  0  0  0  0
   45.1593   31.1414   44.5472 H   0  0  0  0  0  0  0  0  0  0  0  0
   46.6912   28.9555   44.7874 H   0  0  0  0  0  0  0  0  0  0  0  0
   48.1915   30.2515   50.2149 H   0  0  0  0  0  0  0  0  0  0  0  0
   49.1396   29.8619   48.7714 H   0  0  0  0  0  0  0  0  0  0  0  0
   49.9557   31.3487   51.1485 H   0  0  0  0  0  0  0  0  0  0  0  0
   50.9568   30.8953   49.7277 H   0  0  0  0  0  0  0  0  0  0  0  0
   50.0467   32.4440   49.7277 H   0  0  0  0  0  0  0  0  0  0  0  0
  1  6  2  0
  2  1  1  0
  3  2  2  0
  3  4  1  0
  4  5  2  0
  5  6  1  0
  5 12  1  0
  7  3  1  0
  8  7  1  0
  9 10  1  0
  9  8  1  0
 10 11  1  0
 11  7  1  0
 13 12  1  0
 13 17  1  0
 14 15  2  0
 14 13  1  0
 15 16  1  0
 16 17  2  0
 17 18  1  0
 18 19  1  0
 19 20  1  0
  1 21  1  0
  2 22  1  0
  7 23  1  0
  8 24  1  0
  8 25  1  0
  9 26  1  0
  9 27  1  0
 10 28  1  0
 10 29  1  0
 11 30  1  0
 11 31  1  0
 12 32  1  0
 12 33  1  0
 14 34  1  0
 15 35  1  0
 19 36  1  0
 19 37  1  0
 20 38  1  0
 20 39  1  0
 20 40  1  0
M  ISO  8  21  14  22  14  23  13  24  13  25  13  26  13  27  13  28  13
M  ISO  8  29  13  30  13  31  13  32   8  33   8  34  14  35  14  36   8
M  ISO  4  37   8  38   8  39   8  40   8
M  END
>  <minimizedAffinity>  (1) 
-5.6140914

>  <minimizedRMSD>  (1) 
2.52162027

$$$$
