
     RDKit          3D

 32 33  0  0  0  0  0  0  0  0999 V2000
   45.6880   34.8890   42.5040 C   0  0  0  0  0  0  0  0  0  0  0  0
   45.2520   36.1450   43.0700 C   0  0  0  0  0  0  0  0  0  0  0  0
   44.8000   35.9130   44.5090 C   0  0  0  0  0  0  0  0  0  0  0  0
   45.0920   34.4620   44.8290 C   0  0  0  0  0  0  0  0  0  0  0  0
   45.1150   33.8080   43.5100 C   0  0  0  0  0  0  0  0  0  0  0  0
   44.9960   34.5700   41.2000 C   0  0  0  0  0  0  0  0  0  0  0  0
   43.9660   35.1480   40.8390 O   0  0  0  0  0  0  0  0  0  0  0  0
   45.5850   33.5540   40.3880 N   0  0  0  0  0  0  0  0  0  0  0  0
   45.0070   33.1770   39.1410 C   0  0  0  0  0  0  0  0  0  0  0  0
   43.9260   33.8270   38.8250 N   0  0  0  0  0  0  0  0  0  0  0  0
   45.6680   32.1520   38.4000 N   0  0  0  0  0  0  0  0  0  0  0  0
   43.5000   33.5500   37.9070 H   0  0  0  0  0  0  0  0  0  0  0  0
   47.1180   34.6110   42.4690 C   0  0  0  0  0  0  0  0  0  0  0  0
   48.0050   35.6330   42.0600 C   0  0  0  0  0  0  0  0  0  0  0  0
   49.3860   35.3900   42.0240 C   0  0  0  0  0  0  0  0  0  0  0  0
   49.7890   34.1460   42.3990 N   0  0  0  0  0  0  0  0  0  0  0  0
   48.9150   33.1730   42.7900 C   0  0  0  0  0  0  0  0  0  0  0  0
   47.5910   33.4160   42.8200 N   0  0  0  0  0  0  0  0  0  0  0  0
   46.0844   36.8640   43.0566 H   0  0  0  0  0  0  0  0  0  0  0  0
   44.4163   36.5480   42.4791 H   0  0  0  0  0  0  0  0  0  0  0  0
   45.3570   36.5712   45.1920 H   0  0  0  0  0  0  0  0  0  0  0  0
   43.7295   36.1365   44.6281 H   0  0  0  0  0  0  0  0  0  0  0  0
   46.0641   34.3602   45.3337 H   0  0  0  0  0  0  0  0  0  0  0  0
   44.3500   34.0194   45.5099 H   0  0  0  0  0  0  0  0  0  0  0  0
   44.0991   33.5084   43.2130 H   0  0  0  0  0  0  0  0  0  0  0  0
   45.7310   32.8967   43.5200 H   0  0  0  0  0  0  0  0  0  0  0  0
   46.4437   33.0847   40.7094 H   0  0  0  0  0  0  0  0  0  0  0  0
   45.2880   31.8456   37.4930 H   0  0  0  0  0  0  0  0  0  0  0  0
   46.5251   31.7186   38.7722 H   0  0  0  0  0  0  0  0  0  0  0  0
   47.6122   36.6187   41.7700 H   0  0  0  0  0  0  0  0  0  0  0  0
   50.1034   36.1625   41.7100 H   0  0  0  0  0  0  0  0  0  0  0  0
   49.2952   32.1832   43.0827 H   0  0  0  0  0  0  0  0  0  0  0  0
  1  2  1  0
  1  5  1  0
  2  3  1  0
  3  4  1  0
  5  4  1  0
  6  1  1  0
  7  6  2  0
  8  6  1  0
  9  8  1  0
 10  9  2  0
 11  9  1  0
 12 10  1  0
 13  1  1  0
 13 18  1  0
 14 13  2  0
 15 14  1  0
 15 16  2  0
 16 17  1  0
 17 18  2  0
  2 19  1  0
  2 20  1  0
  3 21  1  0
  3 22  1  0
  4 23  1  0
  4 24  1  0
  5 25  1  0
  5 26  1  0
  8 27  1  0
 11 28  1  0
 11 29  1  0
 14 30  1  0
 15 31  1  0
 17 32  1  0
M  ISO  8  19  13  20  13  21  13  22  13  23  13  24  13  25  13  26  13
M  ISO  3  30  14  31  14  32  14
M  END
>  <minimizedAffinity>  (1) 
-4.91239548

>  <minimizedRMSD>  (1) 
0.234161705

$$$$
