
     RDKit          3D

 40 42  0  0  0  0  0  0  0  0999 V2000
   45.6480   34.9210   42.6130 C   0  0  0  0  0  0  0  0  0  0  0  0
   45.1670   36.1220   43.2920 C   0  0  0  0  0  0  0  0  0  0  0  0
   44.7580   35.7500   44.7090 C   0  0  0  0  0  0  0  0  0  0  0  0
   45.1680   34.3130   44.9270 C   0  0  0  0  0  0  0  0  0  0  0  0
   45.1720   33.7560   43.5640 C   0  0  0  0  0  0  0  0  0  0  0  0
   47.0880   34.7380   42.5170 C   0  0  0  0  0  0  0  0  0  0  0  0
   47.8710   35.7150   41.8480 C   0  0  0  0  0  0  0  0  0  0  0  0
   49.2580   35.5640   41.7530 C   0  0  0  0  0  0  0  0  0  0  0  0
   49.7910   34.4510   42.3270 N   0  0  0  0  0  0  0  0  0  0  0  0
   49.0170   33.5200   42.9680 C   0  0  0  0  0  0  0  0  0  0  0  0
   47.6890   33.6840   43.0470 N   0  0  0  0  0  0  0  0  0  0  0  0
   44.9250   34.6760   41.3220 C   0  0  0  0  0  0  0  0  0  0  0  0
   43.9530   35.3490   40.9650 O   0  0  0  0  0  0  0  0  0  0  0  0
   45.1090   33.7330   40.2800 N   0  0  0  0  0  0  0  0  0  0  0  0
   46.3830   33.0450   40.2910 C   0  0  0  0  0  0  0  0  0  0  0  0
   47.0440   33.3730   38.9600 C   0  0  0  0  0  0  0  0  0  0  0  0
   46.2710   32.6240   37.8970 C   0  0  0  0  0  0  0  0  0  0  0  0
   44.8640   32.2760   38.3310 C   0  0  0  0  0  0  0  0  0  0  0  0
   44.2370   33.3260   39.1840 C   0  0  0  0  0  0  0  0  0  0  0  0
   45.9680   36.8753   43.3236 H   0  0  0  0  0  0  0  0  0  0  0  0
   44.3053   36.5392   42.7504 H   0  0  0  0  0  0  0  0  0  0  0  0
   45.2690   36.4021   45.4327 H   0  0  0  0  0  0  0  0  0  0  0  0
   43.6739   35.8732   44.8486 H   0  0  0  0  0  0  0  0  0  0  0  0
   46.1680   34.2523   45.3812 H   0  0  0  0  0  0  0  0  0  0  0  0
   44.4995   33.7721   45.6130 H   0  0  0  0  0  0  0  0  0  0  0  0
   44.1609   33.4249   43.2846 H   0  0  0  0  0  0  0  0  0  0  0  0
   45.8362   32.8822   43.4904 H   0  0  0  0  0  0  0  0  0  0  0  0
   47.3844   36.5950   41.4022 H   0  0  0  0  0  0  0  0  0  0  0  0
   49.8864   36.3071   41.2403 H   0  0  0  0  0  0  0  0  0  0  0  0
   49.4873   32.6341   43.4198 H   0  0  0  0  0  0  0  0  0  0  0  0
   47.0041   33.4027   41.1254 H   0  0  0  0  0  0  0  0  0  0  0  0
   46.2558   31.9604   40.4230 H   0  0  0  0  0  0  0  0  0  0  0  0
   46.9986   34.4556   38.7703 H   0  0  0  0  0  0  0  0  0  0  0  0
   48.1040   33.0791   38.9606 H   0  0  0  0  0  0  0  0  0  0  0  0
   46.8072   31.6924   37.6633 H   0  0  0  0  0  0  0  0  0  0  0  0
   46.1935   33.2816   37.0186 H   0  0  0  0  0  0  0  0  0  0  0  0
   44.2445   32.1393   37.4324 H   0  0  0  0  0  0  0  0  0  0  0  0
   44.9250   31.3578   38.9337 H   0  0  0  0  0  0  0  0  0  0  0  0
   44.0165   34.2050   38.5605 H   0  0  0  0  0  0  0  0  0  0  0  0
   43.3182   32.9059   39.6192 H   0  0  0  0  0  0  0  0  0  0  0  0
  1  2  1  0
  1  5  1  0
  2  3  1  0
  3  4  1  0
  5  4  1  0
  6  1  1  0
  6 11  1  0
  7  6  2  0
  8  7  1  0
  8  9  2  0
  9 10  1  0
 10 11  2  0
 12  1  1  0
 13 12  2  0
 14 15  1  0
 14 12  1  0
 16 15  1  0
 17 18  1  0
 17 16  1  0
 18 19  1  0
 19 14  1  0
  2 20  1  0
  2 21  1  0
  3 22  1  0
  3 23  1  0
  4 24  1  0
  4 25  1  0
  5 26  1  0
  5 27  1  0
  7 28  1  0
  8 29  1  0
 10 30  1  0
 15 31  1  0
 15 32  1  0
 16 33  1  0
 16 34  1  0
 17 35  1  0
 17 36  1  0
 18 37  1  0
 18 38  1  0
 19 39  1  0
 19 40  1  0
M  ISO  8  20  13  21  13  22  13  23  13  24  13  25  13  26  13  27  13
M  ISO  8  28  14  29  14  30  14  31  13  32  13  33  13  34  13  35  13
M  ISO  5  36  13  37  13  38  13  39  13  40  13
M  END
>  <minimizedAffinity>  (1) 
-5.10067844

>  <minimizedRMSD>  (1) 
0.381080598

$$$$
