
     RDKit          3D

 35 37  0  0  0  0  0  0  0  0999 V2000
   45.5920   34.9530   42.5350 C   0  0  0  0  0  0  0  0  0  0  0  0
   45.1760   36.1990   43.1830 C   0  0  0  0  0  0  0  0  0  0  0  0
   44.7750   35.9210   44.6240 C   0  0  0  0  0  0  0  0  0  0  0  0
   45.0800   34.4590   44.8820 C   0  0  0  0  0  0  0  0  0  0  0  0
   45.0690   33.8520   43.5440 C   0  0  0  0  0  0  0  0  0  0  0  0
   47.0330   34.7030   42.4810 C   0  0  0  0  0  0  0  0  0  0  0  0
   47.8990   35.6440   41.8920 C   0  0  0  0  0  0  0  0  0  0  0  0
   49.2680   35.4260   41.8110 C   0  0  0  0  0  0  0  0  0  0  0  0
   49.7190   34.2480   42.3380 N   0  0  0  0  0  0  0  0  0  0  0  0
   48.8820   33.3510   42.9020 C   0  0  0  0  0  0  0  0  0  0  0  0
   47.5760   33.6000   42.9570 N   0  0  0  0  0  0  0  0  0  0  0  0
   44.8770   34.6680   41.2670 C   0  0  0  0  0  0  0  0  0  0  0  0
   43.8740   35.3670   40.9670 O   0  0  0  0  0  0  0  0  0  0  0  0
   44.9480   33.7480   40.1330 C   0  0  0  0  0  0  0  0  0  0  0  0
   43.8240   33.4650   39.4000 C   0  0  0  0  0  0  0  0  0  0  0  0
   43.8400   32.5750   38.3100 C   0  0  0  0  0  0  0  0  0  0  0  0
   45.0160   31.9800   37.9800 C   0  0  0  0  0  0  0  0  0  0  0  0
   46.1710   32.2210   38.6710 C   0  0  0  0  0  0  0  0  0  0  0  0
   46.0620   33.1040   39.7220 C   0  0  0  0  0  0  0  0  0  0  0  0
   46.0109   36.9150   43.1678 H   0  0  0  0  0  0  0  0  0  0  0  0
   44.3164   36.6208   42.6415 H   0  0  0  0  0  0  0  0  0  0  0  0
   45.3551   36.5567   45.3091 H   0  0  0  0  0  0  0  0  0  0  0  0
   43.7098   36.1400   44.7895 H   0  0  0  0  0  0  0  0  0  0  0  0
   46.0659   34.3430   45.3559 H   0  0  0  0  0  0  0  0  0  0  0  0
   44.3570   33.9900   45.5656 H   0  0  0  0  0  0  0  0  0  0  0  0
   44.0467   33.5477   43.2751 H   0  0  0  0  0  0  0  0  0  0  0  0
   45.7059   32.9557   43.5132 H   0  0  0  0  0  0  0  0  0  0  0  0
   47.4801   36.5763   41.4853 H   0  0  0  0  0  0  0  0  0  0  0  0
   49.9486   36.1572   41.3505 H   0  0  0  0  0  0  0  0  0  0  0  0
   49.2803   32.4132   43.3165 H   0  0  0  0  0  0  0  0  0  0  0  0
   42.8760   33.9511   39.6739 H   0  0  0  0  0  0  0  0  0  0  0  0
   42.9231   32.3662   37.7393 H   0  0  0  0  0  0  0  0  0  0  0  0
   45.0397   31.2822   37.1300 H   0  0  0  0  0  0  0  0  0  0  0  0
   47.1244   31.7412   38.4049 H   0  0  0  0  0  0  0  0  0  0  0  0
   46.9826   33.3071   40.2888 H   0  0  0  0  0  0  0  0  0  0  0  0
  1  2  1  0
  1  5  1  0
  2  3  1  0
  3  4  1  0
  5  4  1  0
  6  1  1  0
  6 11  1  0
  7  6  2  0
  8  7  1  0
  8  9  2  0
  9 10  1  0
 10 11  2  0
 12  1  1  0
 13 12  2  0
 14 12  1  0
 15 14  2  0
 16 15  1  0
 17 16  2  0
 17 18  1  0
 18 19  2  0
 19 14  1  0
  2 20  1  0
  2 21  1  0
  3 22  1  0
  3 23  1  0
  4 24  1  0
  4 25  1  0
  5 26  1  0
  5 27  1  0
  7 28  1  0
  8 29  1  0
 10 30  1  0
 15 31  1  0
 16 32  1  0
 17 33  1  0
 18 34  1  0
 19 35  1  0
M  ISO  8  20  13  21  13  22  13  23  13  24  13  25  13  26  13  27  13
M  ISO  8  28  14  29  14  30  14  31  14  32  14  33  14  34  14  35  14
M  END
>  <minimizedAffinity>  (1) 
-4.84264326

>  <minimizedRMSD>  (1) 
0.451533765

$$$$
