
     RDKit          3D

 38 40  0  0  0  0  0  0  0  0999 V2000
   45.6760   34.5470   42.4780 C   0  0  0  0  0  0  0  0  0  0  0  0
   45.1770   35.9160   42.7620 C   0  0  0  0  0  0  0  0  0  0  0  0
   44.7520   35.9620   44.2240 C   0  0  0  0  0  0  0  0  0  0  0  0
   45.1210   34.6280   44.8260 C   0  0  0  0  0  0  0  0  0  0  0  0
   45.1760   33.7150   43.6670 C   0  0  0  0  0  0  0  0  0  0  0  0
   47.1350   34.4380   42.4450 C   0  0  0  0  0  0  0  0  0  0  0  0
   47.9680   35.5110   42.0780 C   0  0  0  0  0  0  0  0  0  0  0  0
   49.3590   35.3140   42.0690 C   0  0  0  0  0  0  0  0  0  0  0  0
   49.8330   34.0770   42.4210 N   0  0  0  0  0  0  0  0  0  0  0  0
   49.0010   33.0670   42.7670 C   0  0  0  0  0  0  0  0  0  0  0  0
   47.6790   33.2470   42.7780 N   0  0  0  0  0  0  0  0  0  0  0  0
   45.0110   33.9880   41.2660 C   0  0  0  0  0  0  0  0  0  0  0  0
   45.5310   34.0180   40.1340 O   0  0  0  0  0  0  0  0  0  0  0  0
   43.7550   33.3180   40.8310 C   0  0  0  0  0  0  0  0  0  0  0  0
   42.6080   33.8350   41.6780 C   0  0  0  0  0  0  0  0  0  0  0  0
   42.2260   35.1820   41.1480 C   0  0  0  0  0  0  0  0  0  0  0  0
   42.6760   35.1640   39.7020 C   0  0  0  0  0  0  0  0  0  0  0  0
   43.3460   33.8290   39.4650 C   0  0  0  0  0  0  0  0  0  0  0  0
   45.9756   36.6505   42.5811 H   0  0  0  0  0  0  0  0  0  0  0  0
   44.3275   36.1592   42.1068 H   0  0  0  0  0  0  0  0  0  0  0  0
   45.2803   36.7729   44.7469 H   0  0  0  0  0  0  0  0  0  0  0  0
   43.6725   36.1522   44.3161 H   0  0  0  0  0  0  0  0  0  0  0  0
   46.0986   34.6825   45.3274 H   0  0  0  0  0  0  0  0  0  0  0  0
   44.4042   34.2967   45.5918 H   0  0  0  0  0  0  0  0  0  0  0  0
   44.1752   33.3113   43.4538 H   0  0  0  0  0  0  0  0  0  0  0  0
   45.8432   32.8629   43.8640 H   0  0  0  0  0  0  0  0  0  0  0  0
   47.5382   36.4856   41.8033 H   0  0  0  0  0  0  0  0  0  0  0  0
   50.0456   36.1263   41.7885 H   0  0  0  0  0  0  0  0  0  0  0  0
   49.4192   32.0875   43.0420 H   0  0  0  0  0  0  0  0  0  0  0  0
   43.9304   32.2332   40.8802 H   0  0  0  0  0  0  0  0  0  0  0  0
   41.7516   33.1481   41.6093 H   0  0  0  0  0  0  0  0  0  0  0  0
   42.9085   33.9060   42.7338 H   0  0  0  0  0  0  0  0  0  0  0  0
   41.1382   35.3315   41.2146 H   0  0  0  0  0  0  0  0  0  0  0  0
   42.6872   36.0015   41.7187 H   0  0  0  0  0  0  0  0  0  0  0  0
   41.8085   35.2752   39.0348 H   0  0  0  0  0  0  0  0  0  0  0  0
   43.3685   35.9934   39.4956 H   0  0  0  0  0  0  0  0  0  0  0  0
   42.6440   33.1283   38.9894 H   0  0  0  0  0  0  0  0  0  0  0  0
   44.2133   33.9270   38.7955 H   0  0  0  0  0  0  0  0  0  0  0  0
  1  2  1  0
  1  5  1  0
  2  3  1  0
  3  4  1  0
  5  4  1  0
  6  1  1  0
  6 11  1  0
  7  6  2  0
  8  7  1  0
  8  9  2  0
  9 10  1  0
 10 11  2  0
 12  1  1  0
 13 12  2  0
 14 12  1  0
 14 15  1  0
 16 15  1  0
 17 16  1  0
 18 17  1  0
 18 14  1  0
  2 19  1  0
  2 20  1  0
  3 21  1  0
  3 22  1  0
  4 23  1  0
  4 24  1  0
  5 25  1  0
  5 26  1  0
  7 27  1  0
  8 28  1  0
 10 29  1  0
 14 30  1  0
 15 31  1  0
 15 32  1  0
 16 33  1  0
 16 34  1  0
 17 35  1  0
 17 36  1  0
 18 37  1  0
 18 38  1  0
M  ISO  8  19  13  20  13  21  13  22  13  23  13  24  13  25  13  26  13
M  ISO  8  27  14  28  14  29  14  30  13  31  13  32  13  33  13  34  13
M  ISO  4  35  13  36  13  37  13  38  13
M  END
>  <minimizedAffinity>  (1) 
-4.76226616

>  <minimizedRMSD>  (1) 
1.19308174

$$$$
