
     RDKit          3D

 32 34  0  0  0  0  0  0  0  0999 V2000
   45.6870   34.8660   42.5100 C   0  0  0  0  0  0  0  0  0  0  0  0
   45.2270   36.1350   43.0850 C   0  0  0  0  0  0  0  0  0  0  0  0
   44.7960   35.9120   44.5260 C   0  0  0  0  0  0  0  0  0  0  0  0
   45.1190   34.4800   44.8640 C   0  0  0  0  0  0  0  0  0  0  0  0
   45.1480   33.8040   43.5550 C   0  0  0  0  0  0  0  0  0  0  0  0
   47.1220   34.6270   42.4960 C   0  0  0  0  0  0  0  0  0  0  0  0
   47.9900   35.6330   42.0100 C   0  0  0  0  0  0  0  0  0  0  0  0
   49.3670   35.4310   41.9820 C   0  0  0  0  0  0  0  0  0  0  0  0
   49.8150   34.2290   42.4430 N   0  0  0  0  0  0  0  0  0  0  0  0
   48.9730   33.2770   42.9050 C   0  0  0  0  0  0  0  0  0  0  0  0
   47.6600   33.5000   42.9180 N   0  0  0  0  0  0  0  0  0  0  0  0
   44.9980   34.5160   41.2380 C   0  0  0  0  0  0  0  0  0  0  0  0
   43.9430   35.1020   40.9130 O   0  0  0  0  0  0  0  0  0  0  0  0
   45.2610   33.5620   40.1690 C   0  0  0  0  0  0  0  0  0  0  0  0
   44.7600   32.3070   39.9260 C   0  0  0  0  0  0  0  0  0  0  0  0
   45.2820   31.7760   38.8040 N   0  0  0  0  0  0  0  0  0  0  0  0
   46.1390   32.7040   38.3080 C   0  0  0  0  0  0  0  0  0  0  0  0
   46.1030   33.7730   39.1590 N   0  0  0  0  0  0  0  0  0  0  0  0
   46.0461   36.8687   43.0567 H   0  0  0  0  0  0  0  0  0  0  0  0
   44.3748   36.5141   42.5019 H   0  0  0  0  0  0  0  0  0  0  0  0
   45.3453   36.5914   45.1944 H   0  0  0  0  0  0  0  0  0  0  0  0
   43.7217   36.1128   44.6507 H   0  0  0  0  0  0  0  0  0  0  0  0
   46.0961   34.4068   45.3638 H   0  0  0  0  0  0  0  0  0  0  0  0
   44.3900   34.0330   45.5559 H   0  0  0  0  0  0  0  0  0  0  0  0
   44.1363   33.4754   43.2749 H   0  0  0  0  0  0  0  0  0  0  0  0
   45.7915   32.9123   43.5828 H   0  0  0  0  0  0  0  0  0  0  0  0
   47.5723   36.5850   41.6504 H   0  0  0  0  0  0  0  0  0  0  0  0
   50.0575   36.2011   41.6075 H   0  0  0  0  0  0  0  0  0  0  0  0
   49.3722   32.3191   43.2698 H   0  0  0  0  0  0  0  0  0  0  0  0
   44.0246   31.7991   40.5673 H   0  0  0  0  0  0  0  0  0  0  0  0
   46.7465   32.6132   37.3955 H   0  0  0  0  0  0  0  0  0  0  0  0
   46.6568   34.6326   39.0349 H   0  0  0  0  0  0  0  0  0  0  0  0
  1  2  1  0
  1  5  1  0
  2  3  1  0
  3  4  1  0
  5  4  1  0
  6  1  1  0
  6 11  1  0
  7  6  2  0
  8  7  1  0
  8  9  2  0
  9 10  1  0
 10 11  2  0
 12  1  1  0
 13 12  2  0
 14 12  1  0
 15 14  2  0
 16 15  1  0
 17 16  2  0
 17 18  1  0
 18 14  1  0
  2 19  1  0
  2 20  1  0
  3 21  1  0
  3 22  1  0
  4 23  1  0
  4 24  1  0
  5 25  1  0
  5 26  1  0
  7 27  1  0
  8 28  1  0
 10 29  1  0
 15 30  1  0
 17 31  1  0
 18 32  1  0
M  ISO  8  19  13  20  13  21  13  22  13  23  13  24  13  25  13  26  13
M  ISO  6  27  14  28  14  29  14  30  14  31  14  32   9
M  END
>  <minimizedAffinity>  (1) 
-4.81300592

>  <minimizedRMSD>  (1) 
0.313916355

$$$$
