
     RDKit          3D

 32 34  0  0  0  0  0  0  0  0999 V2000
   45.6740   34.9230   42.4960 C   0  0  0  0  0  0  0  0  0  0  0  0
   45.2190   36.1920   43.0150 C   0  0  0  0  0  0  0  0  0  0  0  0
   44.7700   36.0220   44.4570 C   0  0  0  0  0  0  0  0  0  0  0  0
   45.0760   34.5860   44.8390 C   0  0  0  0  0  0  0  0  0  0  0  0
   45.1000   33.8770   43.5440 C   0  0  0  0  0  0  0  0  0  0  0  0
   47.1010   34.6450   42.4830 C   0  0  0  0  0  0  0  0  0  0  0  0
   47.9840   35.6350   41.9820 C   0  0  0  0  0  0  0  0  0  0  0  0
   49.3630   35.4150   41.9610 C   0  0  0  0  0  0  0  0  0  0  0  0
   49.7840   34.2080   42.4470 N   0  0  0  0  0  0  0  0  0  0  0  0
   48.9210   33.2790   42.9180 C   0  0  0  0  0  0  0  0  0  0  0  0
   47.5970   33.5030   42.9330 N   0  0  0  0  0  0  0  0  0  0  0  0
   44.9800   34.5370   41.2110 C   0  0  0  0  0  0  0  0  0  0  0  0
   43.9340   35.0870   40.8420 O   0  0  0  0  0  0  0  0  0  0  0  0
   45.5290   33.4830   40.3590 C   0  0  0  0  0  0  0  0  0  0  0  0
   45.0930   32.1750   40.4300 C   0  0  0  0  0  0  0  0  0  0  0  0
   45.7960   31.4020   39.5010 C   0  0  0  0  0  0  0  0  0  0  0  0
   46.6320   32.2690   38.9020 N   0  0  0  0  0  0  0  0  0  0  0  0
   46.4740   33.4810   39.4030 N   0  0  0  0  0  0  0  0  0  0  0  0
   46.0412   36.9214   42.9712 H   0  0  0  0  0  0  0  0  0  0  0  0
   44.3743   36.5524   42.4096 H   0  0  0  0  0  0  0  0  0  0  0  0
   45.3211   36.7144   45.1104 H   0  0  0  0  0  0  0  0  0  0  0  0
   43.6980   36.2424   44.5676 H   0  0  0  0  0  0  0  0  0  0  0  0
   46.0505   34.5136   45.3440 H   0  0  0  0  0  0  0  0  0  0  0  0
   44.3412   34.1659   45.5415 H   0  0  0  0  0  0  0  0  0  0  0  0
   44.0847   33.5646   43.2582 H   0  0  0  0  0  0  0  0  0  0  0  0
   45.7154   32.9664   43.5895 H   0  0  0  0  0  0  0  0  0  0  0  0
   47.5787   36.5860   41.6061 H   0  0  0  0  0  0  0  0  0  0  0  0
   50.0679   36.1670   41.5768 H   0  0  0  0  0  0  0  0  0  0  0  0
   49.3109   32.3223   43.2957 H   0  0  0  0  0  0  0  0  0  0  0  0
   44.3146   31.7998   41.1107 H   0  0  0  0  0  0  0  0  0  0  0  0
   45.6893   30.3251   39.3039 H   0  0  0  0  0  0  0  0  0  0  0  0
   47.3005   32.0228   38.1582 H   0  0  0  0  0  0  0  0  0  0  0  0
  1  2  1  0
  1  5  1  0
  2  3  1  0
  3  4  1  0
  5  4  1  0
  6  1  1  0
  6 11  1  0
  7  6  2  0
  8  7  1  0
  8  9  2  0
  9 10  1  0
 10 11  2  0
 12  1  1  0
 13 12  2  0
 14 15  1  0
 14 12  1  0
 16 15  2  0
 17 18  1  0
 17 16  1  0
 18 14  2  0
  2 19  1  0
  2 20  1  0
  3 21  1  0
  3 22  1  0
  4 23  1  0
  4 24  1  0
  5 25  1  0
  5 26  1  0
  7 27  1  0
  8 28  1  0
 10 29  1  0
 15 30  1  0
 16 31  1  0
 17 32  1  0
M  ISO  8  19  13  20  13  21  13  22  13  23  13  24  13  25  13  26  13
M  ISO  6  27  14  28  14  29  14  30  14  31  14  32   9
M  END
>  <minimizedAffinity>  (1) 
-4.58136463

>  <minimizedRMSD>  (1) 
0.519833565

$$$$
