
     RDKit          3D

 17 18  0  0  0  0  0  0  0  0999 V2000
   44.5380   36.0200   44.5180 C   0  0  0  0  0  0  0  0  0  0  0  0
   45.2840   35.9190   43.3300 C   0  0  0  0  0  0  0  0  0  0  0  0
   46.1740   34.8520   43.2130 C   0  0  0  0  0  0  0  0  0  0  0  0
   46.2770   33.9670   44.2450 N   0  0  0  0  0  0  0  0  0  0  0  0
   45.5470   34.0940   45.3690 C   0  0  0  0  0  0  0  0  0  0  0  0
   44.6790   35.1200   45.5020 N   0  0  0  0  0  0  0  0  0  0  0  0
   46.9220   34.7610   42.0080 N   0  0  0  0  0  0  0  0  0  0  0  0
   46.4910   34.0690   40.9330 C   0  0  0  0  0  0  0  0  0  0  0  0
   47.4840   34.2170   39.9700 C   0  0  0  0  0  0  0  0  0  0  0  0
   48.4820   34.9840   40.4760 N   0  0  0  0  0  0  0  0  0  0  0  0
   48.1190   35.3180   41.7470 C   0  0  0  0  0  0  0  0  0  0  0  0
   43.8275   36.8506   44.6419 H   0  0  0  0  0  0  0  0  0  0  0  0
   45.1694   36.6560   42.5214 H   0  0  0  0  0  0  0  0  0  0  0  0
   45.6578   33.3603   46.1810 H   0  0  0  0  0  0  0  0  0  0  0  0
   45.5510   33.5056   40.8379 H   0  0  0  0  0  0  0  0  0  0  0  0
   47.4633   33.7818   38.9600 H   0  0  0  0  0  0  0  0  0  0  0  0
   48.7052   35.9377   42.4415 H   0  0  0  0  0  0  0  0  0  0  0  0
  1  6  2  0
  2  1  1  0
  3  2  2  0
  3  4  1  0
  4  5  2  0
  5  6  1  0
  7  3  1  0
  8  7  1  0
  9 10  1  0
  9  8  2  0
 10 11  2  0
 11  7  1  0
  1 12  1  0
  2 13  1  0
  5 14  1  0
  8 15  1  0
  9 16  1  0
 11 17  1  0
M  ISO  6  12  14  13  14  14  14  15  14  16  14  17  14
M  END
>  <minimizedAffinity>  (1) 
-4.03193283

>  <minimizedRMSD>  (1) 
0.884024918

$$$$
