
     RDKit          3D

 26 27  0  0  0  0  0  0  0  0999 V2000
   45.6490   34.8920   42.4790 C   0  0  0  0  0  0  0  0  0  0  0  0
   45.2430   36.1880   42.9810 C   0  0  0  0  0  0  0  0  0  0  0  0
   44.8000   36.0380   44.4390 C   0  0  0  0  0  0  0  0  0  0  0  0
   45.0610   34.6070   44.8280 C   0  0  0  0  0  0  0  0  0  0  0  0
   45.0600   33.8790   43.5450 C   0  0  0  0  0  0  0  0  0  0  0  0
   47.0690   34.5820   42.4530 C   0  0  0  0  0  0  0  0  0  0  0  0
   47.9860   35.5940   42.0450 C   0  0  0  0  0  0  0  0  0  0  0  0
   49.3620   35.3170   42.0300 C   0  0  0  0  0  0  0  0  0  0  0  0
   49.7340   34.0510   42.4220 N   0  0  0  0  0  0  0  0  0  0  0  0
   48.8380   33.1110   42.8040 C   0  0  0  0  0  0  0  0  0  0  0  0
   47.5110   33.3670   42.8220 N   0  0  0  0  0  0  0  0  0  0  0  0
   44.9420   34.5260   41.2030 C   0  0  0  0  0  0  0  0  0  0  0  0
   43.9180   35.0930   40.8100 O   0  0  0  0  0  0  0  0  0  0  0  0
   45.5550   33.4810   40.5040 O   0  0  0  0  0  0  0  0  0  0  0  0
   46.0891   36.8884   42.9223 H   0  0  0  0  0  0  0  0  0  0  0  0
   44.4107   36.5780   42.3766 H   0  0  0  0  0  0  0  0  0  0  0  0
   45.3789   36.7169   45.0824 H   0  0  0  0  0  0  0  0  0  0  0  0
   43.7359   36.2911   44.5562 H   0  0  0  0  0  0  0  0  0  0  0  0
   46.0345   34.5105   45.3309 H   0  0  0  0  0  0  0  0  0  0  0  0
   44.3125   34.2184   45.5343 H   0  0  0  0  0  0  0  0  0  0  0  0
   44.0359   33.5858   43.2709 H   0  0  0  0  0  0  0  0  0  0  0  0
   45.6553   32.9557   43.6008 H   0  0  0  0  0  0  0  0  0  0  0  0
   47.6177   36.5858   41.7438 H   0  0  0  0  0  0  0  0  0  0  0  0
   50.1022   36.0701   41.7220 H   0  0  0  0  0  0  0  0  0  0  0  0
   49.1979   32.1166   43.1065 H   0  0  0  0  0  0  0  0  0  0  0  0
   45.1684   33.1629   39.6499 H   0  0  0  0  0  0  0  0  0  0  0  0
  1  2  1  0
  1  5  1  0
  2  3  1  0
  3  4  1  0
  5  4  1  0
  6  1  1  0
  6 11  1  0
  7  6  2  0
  8  7  1  0
  8  9  2  0
  9 10  1  0
 10 11  2  0
 12  1  1  0
 13 12  2  0
 14 12  1  0
  2 15  1  0
  2 16  1  0
  3 17  1  0
  3 18  1  0
  4 19  1  0
  4 20  1  0
  5 21  1  0
  5 22  1  0
  7 23  1  0
  8 24  1  0
 10 25  1  0
 14 26  1  0
M  ISO  8  15  13  16  13  17  13  18  13  19  13  20  13  21  13  22  13
M  ISO  4  23  14  24  14  25  14  26   3
M  END
>  <minimizedAffinity>  (1) 
-4.26237106

>  <minimizedRMSD>  (1) 
0.108436964

$$$$
