
     RDKit          3D

 27 28  0  0  0  0  0  0  0  0999 V2000
   45.6720   34.8620   42.5140 C   0  0  0  0  0  0  0  0  0  0  0  0
   45.2150   36.1250   43.0560 C   0  0  0  0  0  0  0  0  0  0  0  0
   44.7900   35.9260   44.5040 C   0  0  0  0  0  0  0  0  0  0  0  0
   45.1100   34.4810   44.8500 C   0  0  0  0  0  0  0  0  0  0  0  0
   45.1190   33.7960   43.5440 C   0  0  0  0  0  0  0  0  0  0  0  0
   47.1030   34.6020   42.4730 C   0  0  0  0  0  0  0  0  0  0  0  0
   47.9670   35.6340   42.0240 C   0  0  0  0  0  0  0  0  0  0  0  0
   49.3510   35.4300   41.9730 C   0  0  0  0  0  0  0  0  0  0  0  0
   49.7910   34.1990   42.3760 N   0  0  0  0  0  0  0  0  0  0  0  0
   48.9330   33.2250   42.8030 C   0  0  0  0  0  0  0  0  0  0  0  0
   47.6080   33.4360   42.8470 N   0  0  0  0  0  0  0  0  0  0  0  0
   44.9680   34.5120   41.2220 C   0  0  0  0  0  0  0  0  0  0  0  0
   43.9650   35.1170   40.8310 O   0  0  0  0  0  0  0  0  0  0  0  0
   45.5790   33.4290   40.5230 N   0  0  0  0  0  0  0  0  0  0  0  0
   46.0309   36.8613   43.0103 H   0  0  0  0  0  0  0  0  0  0  0  0
   44.3605   36.4911   42.4679 H   0  0  0  0  0  0  0  0  0  0  0  0
   45.3492   36.6076   45.1618 H   0  0  0  0  0  0  0  0  0  0  0  0
   43.7196   36.1408   44.6387 H   0  0  0  0  0  0  0  0  0  0  0  0
   46.0924   34.4042   45.3388 H   0  0  0  0  0  0  0  0  0  0  0  0
   44.3861   34.0433   45.5531 H   0  0  0  0  0  0  0  0  0  0  0  0
   44.1014   33.4842   43.2660 H   0  0  0  0  0  0  0  0  0  0  0  0
   45.7377   32.8867   43.5633 H   0  0  0  0  0  0  0  0  0  0  0  0
   47.5461   36.6017   41.7136 H   0  0  0  0  0  0  0  0  0  0  0  0
   50.0433   36.2127   41.6294 H   0  0  0  0  0  0  0  0  0  0  0  0
   49.3353   32.2504   43.1164 H   0  0  0  0  0  0  0  0  0  0  0  0
   45.1834   33.1044   39.6291 H   0  0  0  0  0  0  0  0  0  0  0  0
   46.4158   32.9716   40.9122 H   0  0  0  0  0  0  0  0  0  0  0  0
  1  2  1  0
  1  5  1  0
  2  3  1  0
  3  4  1  0
  5  4  1  0
  6  1  1  0
  6 11  1  0
  7  6  2  0
  8  7  1  0
  8  9  2  0
  9 10  1  0
 10 11  2  0
 12  1  1  0
 13 12  2  0
 14 12  1  0
  2 15  1  0
  2 16  1  0
  3 17  1  0
  3 18  1  0
  4 19  1  0
  4 20  1  0
  5 21  1  0
  5 22  1  0
  7 23  1  0
  8 24  1  0
 10 25  1  0
 14 26  1  0
 14 27  1  0
M  ISO  8  15  13  16  13  17  13  18  13  19  13  20  13  21  13  22  13
M  ISO  3  23  14  24  14  25  14
M  END
>  <minimizedAffinity>  (1) 
-4.31601667

>  <minimizedRMSD>  (1) 
0.0766806975

$$$$
