
     RDKit          3D

 20 21  0  0  0  0  0  0  0  0999 V2000
   46.5310   34.4050   41.5900 N   0  0  0  0  0  0  0  0  0  0  0  0
   45.8330   33.8580   40.5680 C   0  0  0  0  0  0  0  0  0  0  0  0
   46.7560   33.7080   39.5270 C   0  0  0  0  0  0  0  0  0  0  0  0
   47.9750   34.1640   39.9480 N   0  0  0  0  0  0  0  0  0  0  0  0
   47.8020   34.5850   41.2200 C   0  0  0  0  0  0  0  0  0  0  0  0
   44.7140   36.2670   44.1920 C   0  0  0  0  0  0  0  0  0  0  0  0
   45.3140   35.9560   42.9660 C   0  0  0  0  0  0  0  0  0  0  0  0
   45.9290   34.7070   42.8290 C   0  0  0  0  0  0  0  0  0  0  0  0
   45.9090   33.8610   43.9050 N   0  0  0  0  0  0  0  0  0  0  0  0
   45.3270   34.1880   45.0630 C   0  0  0  0  0  0  0  0  0  0  0  0
   44.7270   35.3930   45.2100 N   0  0  0  0  0  0  0  0  0  0  0  0
   48.9020   35.1450   42.0100 C   0  0  0  0  0  0  0  0  0  0  0  0
   49.1470   36.4610   41.7850 F   0  0  0  0  0  0  0  0  0  0  0  0
   50.0540   34.4560   41.6060 F   0  0  0  0  0  0  0  0  0  0  0  0
   48.7830   34.8330   43.3680 F   0  0  0  0  0  0  0  0  0  0  0  0
   44.7666   33.5885   40.5577 H   0  0  0  0  0  0  0  0  0  0  0  0
   46.5371   33.2915   38.5327 H   0  0  0  0  0  0  0  0  0  0  0  0
   44.2242   37.2432   44.3228 H   0  0  0  0  0  0  0  0  0  0  0  0
   45.3022   36.6743   42.1330 H   0  0  0  0  0  0  0  0  0  0  0  0
   45.3355   33.4749   45.9005 H   0  0  0  0  0  0  0  0  0  0  0  0
  1  8  1  0
  2  1  1  0
  3  4  1  0
  3  2  2  0
  4  5  2  0
  5  1  1  0
  5 12  1  0
  6 11  2  0
  7  6  1  0
  8  7  2  0
  8  9  1  0
  9 10  2  0
 10 11  1  0
 12 15  1  0
 13 12  1  0
 14 12  1  0
  2 16  1  0
  3 17  1  0
  6 18  1  0
  7 19  1  0
 10 20  1  0
M  ISO  5  16  14  17  14  18  14  19  14  20  14
M  END
>  <minimizedAffinity>  (1) 
-4.85870075

>  <minimizedRMSD>  (1) 
0.883899808

$$$$
