
     RDKit          3D

 27 29  0  0  0  0  0  0  0  0999 V2000
   44.9620   34.0360   41.6830 N   0  0  0  0  0  0  0  0  0  0  0  0
   43.8550   33.8710   40.9490 C   0  0  0  0  0  0  0  0  0  0  0  0
   44.2820   33.5460   39.6750 C   0  0  0  0  0  0  0  0  0  0  0  0
   45.6360   33.5190   39.6580 N   0  0  0  0  0  0  0  0  0  0  0  0
   46.0650   33.8280   40.9280 C   0  0  0  0  0  0  0  0  0  0  0  0
   47.4270   33.9070   41.3380 N   0  0  0  0  0  0  0  0  0  0  0  0
   48.0600   35.0100   41.7900 C   0  0  0  0  0  0  0  0  0  0  0  0
   49.3870   34.9080   42.1460 C   0  0  0  0  0  0  0  0  0  0  0  0
   50.0710   33.7270   42.0530 C   0  0  0  0  0  0  0  0  0  0  0  0
   51.2820   33.6290   42.3770 O   0  0  0  0  0  0  0  0  0  0  0  0
   49.4150   32.6430   41.5990 N   0  0  0  0  0  0  0  0  0  0  0  0
   48.1150   32.7330   41.2470 C   0  0  0  0  0  0  0  0  0  0  0  0
   47.5960   31.6600   40.8350 O   0  0  0  0  0  0  0  0  0  0  0  0
   44.4160   36.0120   44.7390 C   0  0  0  0  0  0  0  0  0  0  0  0
   44.4520   35.6570   43.3780 C   0  0  0  0  0  0  0  0  0  0  0  0
   44.9210   34.3790   43.0570 C   0  0  0  0  0  0  0  0  0  0  0  0
   45.3180   33.5420   44.0620 N   0  0  0  0  0  0  0  0  0  0  0  0
   45.2610   33.9340   45.3520 C   0  0  0  0  0  0  0  0  0  0  0  0
   44.8150   35.1560   45.6910 N   0  0  0  0  0  0  0  0  0  0  0  0
   42.8145   33.9734   41.2908 H   0  0  0  0  0  0  0  0  0  0  0  0
   43.6279   33.3423   38.8144 H   0  0  0  0  0  0  0  0  0  0  0  0
   47.5281   35.9693   41.8723 H   0  0  0  0  0  0  0  0  0  0  0  0
   49.9114   35.8016   42.5155 H   0  0  0  0  0  0  0  0  0  0  0  0
   49.9068   31.7414   41.5199 H   0  0  0  0  0  0  0  0  0  0  0  0
   44.0540   37.0099   45.0274 H   0  0  0  0  0  0  0  0  0  0  0  0
   44.1238   36.3578   42.5962 H   0  0  0  0  0  0  0  0  0  0  0  0
   45.5858   33.2402   46.1414 H   0  0  0  0  0  0  0  0  0  0  0  0
  1 16  1  0
  2  1  1  0
  3  2  2  0
  4  3  1  0
  4  5  2  0
  5  6  1  0
  5  1  1  0
  6  7  1  0
  7  8  2  0
  9  8  1  0
  9 10  2  0
 11  9  1  0
 12  6  1  0
 12 11  1  0
 13 12  2  0
 14 19  2  0
 15 14  1  0
 16 15  2  0
 16 17  1  0
 17 18  2  0
 18 19  1  0
  2 20  1  0
  3 21  1  0
  7 22  1  0
  8 23  1  0
 11 24  1  0
 14 25  1  0
 15 26  1  0
 18 27  1  0
M  ISO  8  20  14  21  14  22  14  23  14  24   9  25  14  26  14  27  14
M  END
>  <minimizedAffinity>  (1) 
-5.20714903

>  <minimizedRMSD>  (1) 
3.0247488

$$$$
