
     RDKit          3D

 25 27  0  0  0  0  0  0  0  0999 V2000
   45.5550   34.1280   41.0330 N   0  0  0  0  0  0  0  0  0  0  0  0
   46.3850   33.9700   39.9880 C   0  0  0  0  0  0  0  0  0  0  0  0
   47.6590   34.2220   40.4780 C   0  0  0  0  0  0  0  0  0  0  0  0
   47.5750   34.5250   41.8000 N   0  0  0  0  0  0  0  0  0  0  0  0
   46.2520   34.4640   42.1370 C   0  0  0  0  0  0  0  0  0  0  0  0
   42.0110   34.8590   40.3490 C   0  0  0  0  0  0  0  0  0  0  0  0
   43.4110   35.0270   40.4530 C   0  0  0  0  0  0  0  0  0  0  0  0
   44.1430   33.9530   40.9300 C   0  0  0  0  0  0  0  0  0  0  0  0
   43.4930   32.8030   41.2710 N   0  0  0  0  0  0  0  0  0  0  0  0
   42.1580   32.6790   41.1580 C   0  0  0  0  0  0  0  0  0  0  0  0
   41.4150   33.7050   40.6970 N   0  0  0  0  0  0  0  0  0  0  0  0
   45.6890   34.7160   43.4590 C   0  0  0  0  0  0  0  0  0  0  0  0
   45.8870   33.7850   44.4660 C   0  0  0  0  0  0  0  0  0  0  0  0
   45.3600   34.0280   45.6920 C   0  0  0  0  0  0  0  0  0  0  0  0
   44.6570   35.1650   45.9080 N   0  0  0  0  0  0  0  0  0  0  0  0
   44.4760   36.0610   44.9080 C   0  0  0  0  0  0  0  0  0  0  0  0
   44.9880   35.8410   43.6910 N   0  0  0  0  0  0  0  0  0  0  0  0
   46.1115   33.6975   38.9580 H   0  0  0  0  0  0  0  0  0  0  0  0
   48.5880   34.1827   39.8902 H   0  0  0  0  0  0  0  0  0  0  0  0
   41.3958   35.6907   39.9751 H   0  0  0  0  0  0  0  0  0  0  0  0
   43.8980   35.9710   40.1671 H   0  0  0  0  0  0  0  0  0  0  0  0
   41.6702   31.7353   41.4433 H   0  0  0  0  0  0  0  0  0  0  0  0
   46.4607   32.8662   44.2748 H   0  0  0  0  0  0  0  0  0  0  0  0
   45.5032   33.3041   46.5078 H   0  0  0  0  0  0  0  0  0  0  0  0
   43.9018   36.9797   45.0984 H   0  0  0  0  0  0  0  0  0  0  0  0
  1  5  1  0
  2  3  2  0
  2  1  1  0
  3  4  1  0
  4  5  2  0
  5 12  1  0
  6  7  2  0
  6 11  1  0
  7  8  1  0
  8  1  1  0
  8  9  2  0
 10  9  1  0
 11 10  2  0
 12 17  1  0
 12 13  2  0
 13 14  1  0
 14 15  2  0
 16 15  1  0
 17 16  2  0
  2 18  1  0
  3 19  1  0
  6 20  1  0
  7 21  1  0
 10 22  1  0
 13 23  1  0
 14 24  1  0
 16 25  1  0
M  ISO  8  18  14  19  14  20  14  21  14  22  14  23  14  24  14  25  14
M  END
>  <minimizedAffinity>  (1) 
-4.61549044

>  <minimizedRMSD>  (1) 
4.20225954

$$$$
