
     RDKit          3D

 26 28  0  0  0  0  0  0  0  0999 V2000
   45.6680   33.9930   40.7710 N   0  0  0  0  0  0  0  0  0  0  0  0
   46.4730   33.8260   39.7150 C   0  0  0  0  0  0  0  0  0  0  0  0
   47.7300   34.2510   40.1440 C   0  0  0  0  0  0  0  0  0  0  0  0
   47.6520   34.6570   41.4300 N   0  0  0  0  0  0  0  0  0  0  0  0
   46.3500   34.4960   41.8290 C   0  0  0  0  0  0  0  0  0  0  0  0
   42.0470   34.3120   40.1370 C   0  0  0  0  0  0  0  0  0  0  0  0
   43.4150   34.6100   40.1770 C   0  0  0  0  0  0  0  0  0  0  0  0
   44.2760   33.6700   40.7400 C   0  0  0  0  0  0  0  0  0  0  0  0
   43.7530   32.5150   41.2190 N   0  0  0  0  0  0  0  0  0  0  0  0
   42.4270   32.2610   41.1650 C   0  0  0  0  0  0  0  0  0  0  0  0
   41.5830   33.1580   40.6250 N   0  0  0  0  0  0  0  0  0  0  0  0
   45.7610   34.7950   43.1370 C   0  0  0  0  0  0  0  0  0  0  0  0
   45.1230   36.0300   43.2660 C   0  0  0  0  0  0  0  0  0  0  0  0
   44.5840   36.2700   44.5120 C   0  0  0  0  0  0  0  0  0  0  0  0
   44.6870   35.3430   45.5190 C   0  0  0  0  0  0  0  0  0  0  0  0
   45.3330   34.1210   45.3450 C   0  0  0  0  0  0  0  0  0  0  0  0
   45.8460   33.9060   44.1440 N   0  0  0  0  0  0  0  0  0  0  0  0
   46.2016   33.4372   38.7224 H   0  0  0  0  0  0  0  0  0  0  0  0
   48.6431   34.2550   39.5306 H   0  0  0  0  0  0  0  0  0  0  0  0
   41.3458   35.0372   39.6983 H   0  0  0  0  0  0  0  0  0  0  0  0
   43.7989   35.5593   39.7753 H   0  0  0  0  0  0  0  0  0  0  0  0
   42.0353   31.3143   41.5654 H   0  0  0  0  0  0  0  0  0  0  0  0
   45.0558   36.7533   42.4400 H   0  0  0  0  0  0  0  0  0  0  0  0
   44.0629   37.2199   44.7023 H   0  0  0  0  0  0  0  0  0  0  0  0
   44.2434   35.5733   46.4989 H   0  0  0  0  0  0  0  0  0  0  0  0
   45.4118   33.3811   46.1551 H   0  0  0  0  0  0  0  0  0  0  0  0
  1  5  1  0
  2  3  2  0
  2  1  1  0
  3  4  1  0
  4  5  2  0
  5 12  1  0
  6  7  2  0
  6 11  1  0
  7  8  1  0
  8  1  1  0
  8  9  2  0
 10  9  1  0
 11 10  2  0
 12 13  2  0
 12 17  1  0
 13 14  1  0
 14 15  2  0
 16 15  1  0
 17 16  2  0
  2 18  1  0
  3 19  1  0
  6 20  1  0
  7 21  1  0
 10 22  1  0
 13 23  1  0
 14 24  1  0
 15 25  1  0
 16 26  1  0
M  ISO  8  18  14  19  14  20  14  21  14  22  14  23  14  24  14  25  14
M  ISO  1  26  14
M  END
>  <minimizedAffinity>  (1) 
-4.61458969

>  <minimizedRMSD>  (1) 
4.1447382

$$$$
