
     RDKit          3D

 22 24  0  0  0  0  0  0  0  0999 V2000
   44.8760   34.0810   40.7820 N   0  0  0  0  0  0  0  0  0  0  0  0
   45.5780   33.5430   39.7780 C   0  0  0  0  0  0  0  0  0  0  0  0
   46.9110   33.7020   40.1060 C   0  0  0  0  0  0  0  0  0  0  0  0
   46.9890   34.3270   41.2960 N   0  0  0  0  0  0  0  0  0  0  0  0
   45.7080   34.5680   41.7260 C   0  0  0  0  0  0  0  0  0  0  0  0
   41.4260   35.2580   40.2710 C   0  0  0  0  0  0  0  0  0  0  0  0
   42.8210   35.2080   40.2600 C   0  0  0  0  0  0  0  0  0  0  0  0
   43.4570   34.1070   40.8060 C   0  0  0  0  0  0  0  0  0  0  0  0
   42.6810   33.1070   41.3380 N   0  0  0  0  0  0  0  0  0  0  0  0
   41.3380   33.1720   41.3390 C   0  0  0  0  0  0  0  0  0  0  0  0
   40.7140   34.2440   40.8060 N   0  0  0  0  0  0  0  0  0  0  0  0
   45.2980   35.2250   42.9640 C   0  0  0  0  0  0  0  0  0  0  0  0
   45.1420   36.5090   43.2490 N   0  0  0  0  0  0  0  0  0  0  0  0
   44.7550   36.6270   44.5040 O   0  0  0  0  0  0  0  0  0  0  0  0
   44.6530   35.4410   45.0470 C   0  0  0  0  0  0  0  0  0  0  0  0
   44.9870   34.5460   44.1050 N   0  0  0  0  0  0  0  0  0  0  0  0
   45.1743   33.0684   38.8715 H   0  0  0  0  0  0  0  0  0  0  0  0
   47.7656   33.3729   39.4966 H   0  0  0  0  0  0  0  0  0  0  0  0
   40.9053   36.1269   39.8421 H   0  0  0  0  0  0  0  0  0  0  0  0
   43.4058   36.0313   39.8239 H   0  0  0  0  0  0  0  0  0  0  0  0
   40.7479   32.3519   41.7740 H   0  0  0  0  0  0  0  0  0  0  0  0
   44.3504   35.2194   46.0811 H   0  0  0  0  0  0  0  0  0  0  0  0
  1  8  1  0
  1  5  1  0
  2  3  2  0
  2  1  1  0
  3  4  1  0
  4  5  2  0
  5 12  1  0
  6 11  2  0
  7  6  1  0
  7  8  2  0
  8  9  1  0
  9 10  2  0
 11 10  1  0
 12 13  2  0
 12 16  1  0
 13 14  1  0
 14 15  1  0
 16 15  2  0
  2 17  1  0
  3 18  1  0
  6 19  1  0
  7 20  1  0
 10 21  1  0
 15 22  1  0
M  ISO  6  17  14  18  14  19  14  20  14  21  14  22  14
M  END
>  <minimizedAffinity>  (1) 
-4.4808073

>  <minimizedRMSD>  (1) 
4.20594168

$$$$
