
     RDKit          3D

 30 32  0  0  0  0  0  0  0  0999 V2000
   46.9050   34.5110   41.9590 N   0  0  0  0  0  0  0  0  0  0  0  0
   47.9460   35.1440   41.3780 C   0  0  0  0  0  0  0  0  0  0  0  0
   49.0480   34.8300   42.1770 C   0  0  0  0  0  0  0  0  0  0  0  0
   48.6510   34.0280   43.2070 N   0  0  0  0  0  0  0  0  0  0  0  0
   47.3150   33.8430   43.0490 C   0  0  0  0  0  0  0  0  0  0  0  0
   43.4060   35.5710   41.5180 C   0  0  0  0  0  0  0  0  0  0  0  0
   44.7130   35.4880   42.0160 C   0  0  0  0  0  0  0  0  0  0  0  0
   45.5870   34.5810   41.4410 C   0  0  0  0  0  0  0  0  0  0  0  0
   45.1300   33.8080   40.4110 N   0  0  0  0  0  0  0  0  0  0  0  0
   43.8710   33.9010   39.9420 C   0  0  0  0  0  0  0  0  0  0  0  0
   43.0090   34.7850   40.4990 N   0  0  0  0  0  0  0  0  0  0  0  0
   46.4590   33.0300   43.9490 C   0  0  0  0  0  0  0  0  0  0  0  0
   47.1930   31.8980   44.6250 C   0  0  0  0  0  0  0  0  0  0  0  0
   46.3470   31.6210   45.8750 C   0  0  0  0  0  0  0  0  0  0  0  0
   46.1080   33.0320   46.3560 C   0  0  0  0  0  0  0  0  0  0  0  0
   45.9420   33.8690   45.1060 C   0  0  0  0  0  0  0  0  0  0  0  0
   47.9301   35.7699   40.4736 H   0  0  0  0  0  0  0  0  0  0  0  0
   50.0775   35.1761   42.0026 H   0  0  0  0  0  0  0  0  0  0  0  0
   42.6975   36.2848   41.9635 H   0  0  0  0  0  0  0  0  0  0  0  0
   45.0383   36.1307   42.8473 H   0  0  0  0  0  0  0  0  0  0  0  0
   43.5437   33.2611   39.1093 H   0  0  0  0  0  0  0  0  0  0  0  0
   45.6671   32.6471   43.2885 H   0  0  0  0  0  0  0  0  0  0  0  0
   47.2353   31.0122   43.9742 H   0  0  0  0  0  0  0  0  0  0  0  0
   48.2388   32.1446   44.8605 H   0  0  0  0  0  0  0  0  0  0  0  0
   45.4050   31.1113   45.6243 H   0  0  0  0  0  0  0  0  0  0  0  0
   46.8196   30.9564   46.6132 H   0  0  0  0  0  0  0  0  0  0  0  0
   45.1978   33.0781   46.9720 H   0  0  0  0  0  0  0  0  0  0  0  0
   46.9387   33.3943   46.9795 H   0  0  0  0  0  0  0  0  0  0  0  0
   46.5249   34.7980   45.1912 H   0  0  0  0  0  0  0  0  0  0  0  0
   44.8892   34.1490   44.9533 H   0  0  0  0  0  0  0  0  0  0  0  0
  1  5  1  0
  2  1  1  0
  2  3  2  0
  3  4  1  0
  5  4  2  0
  5 12  1  0
  6  7  2  0
  8  1  1  0
  8  7  1  0
  9  8  2  0
 10  9  1  0
 10 11  2  0
 11  6  1  0
 12 13  1  0
 12 16  1  0
 13 14  1  0
 14 15  1  0
 16 15  1  0
  2 17  1  0
  3 18  1  0
  6 19  1  0
  7 20  1  0
 10 21  1  0
 12 22  1  0
 13 23  1  0
 13 24  1  0
 14 25  1  0
 14 26  1  0
 15 27  1  0
 15 28  1  0
 16 29  1  0
 16 30  1  0
M  ISO  8  17  14  18  14  19  14  20  14  21  14  22  13  23  13  24  13
M  ISO  6  25  13  26  13  27  13  28  13  29  13  30  13
M  END
>  <minimizedAffinity>  (1) 
-4.19629288

>  <minimizedRMSD>  (1) 
4.01955605

$$$$
