
     RDKit          3D

 25 27  0  0  0  0  0  0  0  0999 V2000
   46.4760   33.3590   39.3190 N   0  0  0  0  0  0  0  0  0  0  0  0
   46.0130   33.0820   38.0950 C   0  0  0  0  0  0  0  0  0  0  0  0
   47.0360   33.4140   37.2200 C   0  0  0  0  0  0  0  0  0  0  0  0
   48.0980   33.8850   37.9300 N   0  0  0  0  0  0  0  0  0  0  0  0
   47.7390   33.8470   39.2470 C   0  0  0  0  0  0  0  0  0  0  0  0
   44.1850   34.0150   42.1270 C   0  0  0  0  0  0  0  0  0  0  0  0
   44.9330   34.2230   40.9550 C   0  0  0  0  0  0  0  0  0  0  0  0
   45.7150   33.1540   40.5040 C   0  0  0  0  0  0  0  0  0  0  0  0
   45.7110   31.9880   41.2130 N   0  0  0  0  0  0  0  0  0  0  0  0
   44.9780   31.8350   42.3310 C   0  0  0  0  0  0  0  0  0  0  0  0
   44.2180   32.8510   42.7810 N   0  0  0  0  0  0  0  0  0  0  0  0
   48.5250   34.2470   40.4330 C   0  0  0  0  0  0  0  0  0  0  0  0
   49.1950   33.2970   41.1610 C   0  0  0  0  0  0  0  0  0  0  0  0
   49.9290   33.6420   42.2630 C   0  0  0  0  0  0  0  0  0  0  0  0
   49.9990   34.9140   42.6370 N   0  0  0  0  0  0  0  0  0  0  0  0
   49.3310   35.8540   41.9070 C   0  0  0  0  0  0  0  0  0  0  0  0
   48.6060   35.5250   40.8230 N   0  0  0  0  0  0  0  0  0  0  0  0
   45.0245   32.6748   37.8360 H   0  0  0  0  0  0  0  0  0  0  0  0
   46.9959   33.3129   36.1254 H   0  0  0  0  0  0  0  0  0  0  0  0
   43.5573   34.8308   42.5148 H   0  0  0  0  0  0  0  0  0  0  0  0
   44.9048   35.1822   40.4172 H   0  0  0  0  0  0  0  0  0  0  0  0
   44.9998   30.8803   42.8769 H   0  0  0  0  0  0  0  0  0  0  0  0
   49.1414   32.2420   40.8543 H   0  0  0  0  0  0  0  0  0  0  0  0
   50.4594   32.8680   42.8372 H   0  0  0  0  0  0  0  0  0  0  0  0
   49.3871   36.9090   42.2134 H   0  0  0  0  0  0  0  0  0  0  0  0
  1  8  1  0
  2  1  1  0
  3  4  1  0
  3  2  2  0
  4  5  2  0
  5  1  1  0
  5 12  1  0
  6 11  2  0
  7  6  1  0
  8  7  2  0
  8  9  1  0
  9 10  2  0
 10 11  1  0
 12 17  1  0
 12 13  2  0
 13 14  1  0
 14 15  2  0
 16 15  1  0
 17 16  2  0
  2 18  1  0
  3 19  1  0
  6 20  1  0
  7 21  1  0
 10 22  1  0
 13 23  1  0
 14 24  1  0
 16 25  1  0
M  ISO  8  18  14  19  14  20  14  21  14  22  14  23  14  24  14  25  14
M  END
>  <minimizedAffinity>  (1) 
-3.96594715

>  <minimizedRMSD>  (1) 
3.19433928

$$$$
