
     RDKit          3D

 24 26  0  0  0  0  0  0  0  0999 V2000
   47.3700   34.6640   42.2230 N   0  0  0  0  0  0  0  0  0  0  0  0
   48.3250   35.4170   41.6510 C   0  0  0  0  0  0  0  0  0  0  0  0
   49.5300   34.9390   42.1740 C   0  0  0  0  0  0  0  0  0  0  0  0
   49.2670   33.9210   43.0380 N   0  0  0  0  0  0  0  0  0  0  0  0
   47.9200   33.7550   43.0630 C   0  0  0  0  0  0  0  0  0  0  0  0
   47.1150   32.8340   43.7950 N   0  0  0  0  0  0  0  0  0  0  0  0
   47.0720   32.6280   45.1060 C   0  0  0  0  0  0  0  0  0  0  0  0
   46.1750   31.6540   45.4810 C   0  0  0  0  0  0  0  0  0  0  0  0
   45.6490   31.2540   44.3040 N   0  0  0  0  0  0  0  0  0  0  0  0
   46.2020   31.9500   43.2950 C   0  0  0  0  0  0  0  0  0  0  0  0
   43.8790   35.7680   42.6130 C   0  0  0  0  0  0  0  0  0  0  0  0
   45.2470   35.5860   42.8720 C   0  0  0  0  0  0  0  0  0  0  0  0
   45.9800   34.8410   41.9450 C   0  0  0  0  0  0  0  0  0  0  0  0
   45.3560   34.3340   40.8500 N   0  0  0  0  0  0  0  0  0  0  0  0
   44.0350   34.5370   40.6440 C   0  0  0  0  0  0  0  0  0  0  0  0
   43.3070   35.2480   41.5190 N   0  0  0  0  0  0  0  0  0  0  0  0
   48.1879   36.2337   40.9270 H   0  0  0  0  0  0  0  0  0  0  0  0
   50.5304   35.3240   41.9268 H   0  0  0  0  0  0  0  0  0  0  0  0
   47.6940   33.1829   45.8238 H   0  0  0  0  0  0  0  0  0  0  0  0
   45.9432   31.2902   46.4929 H   0  0  0  0  0  0  0  0  0  0  0  0
   45.9565   31.8262   42.2299 H   0  0  0  0  0  0  0  0  0  0  0  0
   43.2669   36.3471   43.3201 H   0  0  0  0  0  0  0  0  0  0  0  0
   45.7219   36.0124   43.7679 H   0  0  0  0  0  0  0  0  0  0  0  0
   43.5522   34.1151   39.7502 H   0  0  0  0  0  0  0  0  0  0  0  0
  1  5  1  0
  2  3  2  0
  2  1  1  0
  3  4  1  0
  4  5  2  0
  5  6  1  0
  6  7  1  0
  7  8  2  0
  9  8  1  0
 10  6  1  0
 10  9  2  0
 11 12  2  0
 13  1  1  0
 13 12  1  0
 14 13  2  0
 15 14  1  0
 15 16  2  0
 16 11  1  0
  2 17  1  0
  3 18  1  0
  7 19  1  0
  8 20  1  0
 10 21  1  0
 11 22  1  0
 12 23  1  0
 15 24  1  0
M  ISO  8  17  14  18  14  19  14  20  14  21  14  22  14  23  14  24  14
M  END
>  <minimizedAffinity>  (1) 
-4.14726639

>  <minimizedRMSD>  (1) 
4.05656719

$$$$
