
     RDKit          3D

 24 26  0  0  0  0  0  0  0  0999 V2000
   46.6900   33.5240   39.5840 N   0  0  0  0  0  0  0  0  0  0  0  0
   46.2190   33.2960   38.3500 C   0  0  0  0  0  0  0  0  0  0  0  0
   47.2770   33.5700   37.4790 C   0  0  0  0  0  0  0  0  0  0  0  0
   48.3630   33.9580   38.2090 N   0  0  0  0  0  0  0  0  0  0  0  0
   47.9800   33.9230   39.5080 C   0  0  0  0  0  0  0  0  0  0  0  0
   44.3620   34.2720   42.3210 C   0  0  0  0  0  0  0  0  0  0  0  0
   45.1370   34.4290   41.1650 C   0  0  0  0  0  0  0  0  0  0  0  0
   45.9090   33.3560   40.7540 C   0  0  0  0  0  0  0  0  0  0  0  0
   45.8840   32.2020   41.4860 N   0  0  0  0  0  0  0  0  0  0  0  0
   45.1250   32.0900   42.5950 C   0  0  0  0  0  0  0  0  0  0  0  0
   44.3640   33.1280   43.0090 N   0  0  0  0  0  0  0  0  0  0  0  0
   48.7520   34.2430   40.7040 C   0  0  0  0  0  0  0  0  0  0  0  0
   48.7930   35.5870   41.0750 C   0  0  0  0  0  0  0  0  0  0  0  0
   49.5740   35.6490   42.2230 C   0  0  0  0  0  0  0  0  0  0  0  0
   49.9590   34.3540   42.4810 C   0  0  0  0  0  0  0  0  0  0  0  0
   49.4590   33.5570   41.5700 O   0  0  0  0  0  0  0  0  0  0  0  0
   45.2068   32.9616   38.0784 H   0  0  0  0  0  0  0  0  0  0  0  0
   47.2404   33.4865   36.3828 H   0  0  0  0  0  0  0  0  0  0  0  0
   43.7387   35.1088   42.6693 H   0  0  0  0  0  0  0  0  0  0  0  0
   45.1324   35.3740   40.6021 H   0  0  0  0  0  0  0  0  0  0  0  0
   45.1250   31.1495   43.1656 H   0  0  0  0  0  0  0  0  0  0  0  0
   48.3051   36.4289   40.5619 H   0  0  0  0  0  0  0  0  0  0  0  0
   49.8308   36.5469   42.8043 H   0  0  0  0  0  0  0  0  0  0  0  0
   50.5904   34.0363   43.3238 H   0  0  0  0  0  0  0  0  0  0  0  0
  1  8  1  0
  2  1  1  0
  3  4  1  0
  3  2  2  0
  4  5  2  0
  5  1  1  0
  5 12  1  0
  6 11  2  0
  7  6  1  0
  8  7  2  0
  8  9  1  0
  9 10  2  0
 10 11  1  0
 12 13  2  0
 12 16  1  0
 13 14  1  0
 14 15  2  0
 16 15  1  0
  2 17  1  0
  3 18  1  0
  6 19  1  0
  7 20  1  0
 10 21  1  0
 13 22  1  0
 14 23  1  0
 15 24  1  0
M  ISO  8  17  14  18  14  19  14  20  14  21  14  22  14  23  14  24  14
M  END
>  <minimizedAffinity>  (1) 
-4.0599165

>  <minimizedRMSD>  (1) 
2.87986374

$$$$
