
     RDKit          3D

 24 26  0  0  0  0  0  0  0  0999 V2000
   46.4680   33.3660   39.1930 N   0  0  0  0  0  0  0  0  0  0  0  0
   46.1550   33.0930   37.9170 C   0  0  0  0  0  0  0  0  0  0  0  0
   47.2380   33.4930   37.1510 C   0  0  0  0  0  0  0  0  0  0  0  0
   48.1940   34.0040   37.9840 N   0  0  0  0  0  0  0  0  0  0  0  0
   47.6850   33.9110   39.2380 C   0  0  0  0  0  0  0  0  0  0  0  0
   43.7690   33.8130   41.6610 C   0  0  0  0  0  0  0  0  0  0  0  0
   44.6450   34.0710   40.5880 C   0  0  0  0  0  0  0  0  0  0  0  0
   45.5970   33.0930   40.2700 C   0  0  0  0  0  0  0  0  0  0  0  0
   45.6140   31.9620   41.0150 N   0  0  0  0  0  0  0  0  0  0  0  0
   44.7670   31.7440   42.0310 C   0  0  0  0  0  0  0  0  0  0  0  0
   43.8440   32.6740   42.3510 N   0  0  0  0  0  0  0  0  0  0  0  0
   48.4230   34.3590   40.3870 C   0  0  0  0  0  0  0  0  0  0  0  0
   48.6820   35.5560   40.9650 C   0  0  0  0  0  0  0  0  0  0  0  0
   49.4270   35.6860   42.0720 C   0  0  0  0  0  0  0  0  0  0  0  0
   49.9190   34.4270   42.5770 C   0  0  0  0  0  0  0  0  0  0  0  0
   49.2210   33.1890   41.3510 S   0  0  0  0  0  0  0  0  0  0  0  0
   45.2216   32.6404   37.5510 H   0  0  0  0  0  0  0  0  0  0  0  0
   47.3156   33.4129   36.0567 H   0  0  0  0  0  0  0  0  0  0  0  0
   43.0115   34.5625   41.9339 H   0  0  0  0  0  0  0  0  0  0  0  0
   44.5836   35.0099   40.0182 H   0  0  0  0  0  0  0  0  0  0  0  0
   44.8248   30.8066   42.6037 H   0  0  0  0  0  0  0  0  0  0  0  0
   48.2620   36.4628   40.5053 H   0  0  0  0  0  0  0  0  0  0  0  0
   49.6415   36.6545   42.5473 H   0  0  0  0  0  0  0  0  0  0  0  0
   50.5468   34.2395   43.4605 H   0  0  0  0  0  0  0  0  0  0  0  0
  1  5  1  0
  1  8  1  0
  2  1  1  0
  3  2  2  0
  3  4  1  0
  4  5  2  0
  5 12  1  0
  6 11  2  0
  7  6  1  0
  8  7  2  0
  8  9  1  0
  9 10  2  0
 10 11  1  0
 12 13  2  0
 12 16  1  0
 13 14  1  0
 14 15  2  0
 16 15  1  0
  2 17  1  0
  3 18  1  0
  6 19  1  0
  7 20  1  0
 10 21  1  0
 13 22  1  0
 14 23  1  0
 15 24  1  0
M  ISO  8  17  14  18  14  19  14  20  14  21  14  22  14  23  14  24  14
M  END
>  <minimizedAffinity>  (1) 
-4.12395191

>  <minimizedRMSD>  (1) 
3.30259061

$$$$
