
     RDKit          3D

 33 36  0  0  0  0  0  0  0  0999 V2000
   44.5910   35.9870   44.4220 C   0  0  0  0  0  0  0  0  0  0  0  0
   45.3580   35.7930   43.2470 C   0  0  0  0  0  0  0  0  0  0  0  0
   46.2110   34.6840   43.2540 C   0  0  0  0  0  0  0  0  0  0  0  0
   46.2500   33.8940   44.3460 N   0  0  0  0  0  0  0  0  0  0  0  0
   45.5070   34.1110   45.4420 C   0  0  0  0  0  0  0  0  0  0  0  0
   44.6680   35.1750   45.4730 N   0  0  0  0  0  0  0  0  0  0  0  0
   46.9860   34.4790   42.0800 N   0  0  0  0  0  0  0  0  0  0  0  0
   46.4200   34.3170   40.8640 C   0  0  0  0  0  0  0  0  0  0  0  0
   47.5210   34.1460   39.9970 C   0  0  0  0  0  0  0  0  0  0  0  0
   48.6720   34.2090   40.7000 N   0  0  0  0  0  0  0  0  0  0  0  0
   48.3260   34.4170   41.9950 C   0  0  0  0  0  0  0  0  0  0  0  0
   49.1950   34.5530   43.1160 N   0  0  0  0  0  0  0  0  0  0  0  0
   45.5950   33.2270   46.5760 C   0  0  0  0  0  0  0  0  0  0  0  0
   44.9510   33.3930   47.7870 C   0  0  0  0  0  0  0  0  0  0  0  0
   45.2980   32.3600   48.5610 N   0  0  0  0  0  0  0  0  0  0  0  0
   46.1350   31.5250   47.9230 C   0  0  0  0  0  0  0  0  0  0  0  0
   46.7700   30.3460   48.2650 C   0  0  0  0  0  0  0  0  0  0  0  0
   47.5910   29.7140   47.3580 C   0  0  0  0  0  0  0  0  0  0  0  0
   47.8250   30.2090   46.0780 C   0  0  0  0  0  0  0  0  0  0  0  0
   47.1590   31.4050   45.7850 C   0  0  0  0  0  0  0  0  0  0  0  0
   46.3290   32.0650   46.6700 C   0  0  0  0  0  0  0  0  0  0  0  0
   43.9034   36.8444   44.4673 H   0  0  0  0  0  0  0  0  0  0  0  0
   45.2875   36.4712   42.3838 H   0  0  0  0  0  0  0  0  0  0  0  0
   45.3500   34.3181   40.6088 H   0  0  0  0  0  0  0  0  0  0  0  0
   47.4515   33.9854   38.9110 H   0  0  0  0  0  0  0  0  0  0  0  0
   48.8030   34.7092   44.0556 H   0  0  0  0  0  0  0  0  0  0  0  0
   50.2152   34.4951   42.9868 H   0  0  0  0  0  0  0  0  0  0  0  0
   44.2793   34.2195   48.0623 H   0  0  0  0  0  0  0  0  0  0  0  0
   44.9653   32.2215   49.5259 H   0  0  0  0  0  0  0  0  0  0  0  0
   46.6192   29.9114   49.2642 H   0  0  0  0  0  0  0  0  0  0  0  0
   48.0834   28.7772   47.6579 H   0  0  0  0  0  0  0  0  0  0  0  0
   48.4804   29.7012   45.3551 H   0  0  0  0  0  0  0  0  0  0  0  0
   47.3058   31.8465   44.7882 H   0  0  0  0  0  0  0  0  0  0  0  0
  1  6  2  0
  2  3  2  0
  2  1  1  0
  3  4  1  0
  4  5  2  0
  5  6  1  0
  5 13  1  0
  7  3  1  0
  8  7  1  0
  9 10  1  0
  9  8  2  0
 10 11  2  0
 11  7  1  0
 11 12  1  0
 13 21  1  0
 13 14  2  0
 14 15  1  0
 16 17  2  0
 16 15  1  0
 18 17  1  0
 19 18  2  0
 20 19  1  0
 20 21  2  0
 21 16  1  0
  1 22  1  0
  2 23  1  0
  8 24  1  0
  9 25  1  0
 12 26  1  0
 12 27  1  0
 14 28  1  0
 15 29  1  0
 17 30  1  0
 18 31  1  0
 19 32  1  0
 20 33  1  0
M  ISO  8  22  14  23  14  24  14  25  14  28  14  29   9  30  14  31  14
M  ISO  2  32  14  33  14
M  END
>  <minimizedAffinity>  (1) 
-6.29608345

>  <minimizedRMSD>  (1) 
0.752310276

$$$$
