
     RDKit          3D

 30 32  0  0  0  0  0  0  0  0999 V2000
   44.5930   35.7290   44.3940 C   0  0  0  0  0  0  0  0  0  0  0  0
   45.3610   35.6240   43.2170 C   0  0  0  0  0  0  0  0  0  0  0  0
   46.3390   34.6210   43.1750 C   0  0  0  0  0  0  0  0  0  0  0  0
   46.4820   33.8280   44.2530 N   0  0  0  0  0  0  0  0  0  0  0  0
   45.7350   33.9500   45.3650 C   0  0  0  0  0  0  0  0  0  0  0  0
   44.7830   34.9180   45.4210 N   0  0  0  0  0  0  0  0  0  0  0  0
   45.9370   33.0710   46.4840 N   0  0  0  0  0  0  0  0  0  0  0  0
   45.2620   33.2780   47.6280 C   0  0  0  0  0  0  0  0  0  0  0  0
   45.4500   32.4380   48.7060 C   0  0  0  0  0  0  0  0  0  0  0  0
   46.3590   31.4250   48.4850 C   0  0  0  0  0  0  0  0  0  0  0  0
   46.6500   30.4820   49.5180 N   0  0  0  0  0  0  0  0  0  0  0  0
   47.0390   31.2060   47.3540 N   0  0  0  0  0  0  0  0  0  0  0  0
   46.8190   32.0600   46.3180 C   0  0  0  0  0  0  0  0  0  0  0  0
   47.4190   31.9190   45.2300 O   0  0  0  0  0  0  0  0  0  0  0  0
   47.1100   34.5170   41.9890 N   0  0  0  0  0  0  0  0  0  0  0  0
   46.5230   34.3040   40.7710 C   0  0  0  0  0  0  0  0  0  0  0  0
   47.6030   34.2650   39.8820 C   0  0  0  0  0  0  0  0  0  0  0  0
   48.7590   34.4480   40.5550 N   0  0  0  0  0  0  0  0  0  0  0  0
   48.4260   34.6030   41.8620 C   0  0  0  0  0  0  0  0  0  0  0  0
   49.3010   34.8220   42.9630 N   0  0  0  0  0  0  0  0  0  0  0  0
   43.8161   36.5050   44.4600 H   0  0  0  0  0  0  0  0  0  0  0  0
   45.1994   36.3018   42.3658 H   0  0  0  0  0  0  0  0  0  0  0  0
   44.5578   34.1195   47.7047 H   0  0  0  0  0  0  0  0  0  0  0  0
   44.9196   32.5655   49.6612 H   0  0  0  0  0  0  0  0  0  0  0  0
   47.3296   29.7266   49.3492 H   0  0  0  0  0  0  0  0  0  0  0  0
   46.1802   30.5575   50.4315 H   0  0  0  0  0  0  0  0  0  0  0  0
   45.4527   34.1901   40.5441 H   0  0  0  0  0  0  0  0  0  0  0  0
   47.5221   34.1085   38.7962 H   0  0  0  0  0  0  0  0  0  0  0  0
   48.9173   34.9239   43.9134 H   0  0  0  0  0  0  0  0  0  0  0  0
   50.3179   34.8786   42.8093 H   0  0  0  0  0  0  0  0  0  0  0  0
  1  6  2  0
  2  1  1  0
  3  2  2  0
  3  4  1  0
  4  5  2  0
  5  6  1  0
  5  7  1  0
  7  8  1  0
  8  9  2  0
 10  9  1  0
 10 11  1  0
 12 10  2  0
 13  7  1  0
 13 12  1  0
 14 13  2  0
 15  3  1  0
 16 15  1  0
 17 18  1  0
 17 16  2  0
 18 19  2  0
 19 15  1  0
 19 20  1  0
  1 21  1  0
  2 22  1  0
  8 23  1  0
  9 24  1  0
 11 25  1  0
 11 26  1  0
 16 27  1  0
 17 28  1  0
 20 29  1  0
 20 30  1  0
M  ISO  6  21  14  22  14  23  14  24  14  27  14  28  14
M  END
>  <minimizedAffinity>  (1) 
-6.48762035

>  <minimizedRMSD>  (1) 
0.413969159

$$$$
