
     RDKit          3D

 32 35  0  0  0  0  0  0  0  0999 V2000
   47.3190   33.6800   39.4800 C   0  0  0  0  0  0  0  0  0  0  0  0
   48.5420   32.9910   39.2800 C   0  0  0  0  0  0  0  0  0  0  0  0
   49.1280   32.4070   40.4100 C   0  0  0  0  0  0  0  0  0  0  0  0
   48.4930   32.5390   41.6040 N   0  0  0  0  0  0  0  0  0  0  0  0
   47.3390   33.1950   41.7580 C   0  0  0  0  0  0  0  0  0  0  0  0
   46.7490   33.7720   40.6710 N   0  0  0  0  0  0  0  0  0  0  0  0
   46.6910   33.3210   43.0200 N   0  0  0  0  0  0  0  0  0  0  0  0
   46.6260   32.4120   44.0200 C   0  0  0  0  0  0  0  0  0  0  0  0
   45.9060   32.9460   45.0450 N   0  0  0  0  0  0  0  0  0  0  0  0
   45.5140   34.1800   44.7140 C   0  0  0  0  0  0  0  0  0  0  0  0
   44.7870   35.1950   45.3010 C   0  0  0  0  0  0  0  0  0  0  0  0
   44.5800   36.3510   44.6500 N   0  0  0  0  0  0  0  0  0  0  0  0
   45.0510   36.5920   43.4160 C   0  0  0  0  0  0  0  0  0  0  0  0
   45.7580   35.5940   42.8540 N   0  0  0  0  0  0  0  0  0  0  0  0
   46.0060   34.4120   43.4470 C   0  0  0  0  0  0  0  0  0  0  0  0
   50.3410   31.7230   40.2190 N   0  0  0  0  0  0  0  0  0  0  0  0
   50.4530   30.6780   39.3420 C   0  0  0  0  0  0  0  0  0  0  0  0
   51.7920   30.2810   39.4440 C   0  0  0  0  0  0  0  0  0  0  0  0
   52.4360   31.0640   40.3450 N   0  0  0  0  0  0  0  0  0  0  0  0
   51.5200   31.9570   40.8190 C   0  0  0  0  0  0  0  0  0  0  0  0
   51.7070   32.9850   41.7810 N   0  0  0  0  0  0  0  0  0  0  0  0
   44.2610   34.9960   46.6090 N   0  0  0  0  0  0  0  0  0  0  0  0
   46.8279   34.1535   38.6171 H   0  0  0  0  0  0  0  0  0  0  0  0
   49.0077   32.9187   38.2861 H   0  0  0  0  0  0  0  0  0  0  0  0
   47.0789   31.4096   44.0072 H   0  0  0  0  0  0  0  0  0  0  0  0
   44.8705   37.5449   42.8970 H   0  0  0  0  0  0  0  0  0  0  0  0
   49.6687   30.2475   38.7020 H   0  0  0  0  0  0  0  0  0  0  0  0
   52.2525   29.4576   38.8783 H   0  0  0  0  0  0  0  0  0  0  0  0
   52.6317   33.1242   42.2128 H   0  0  0  0  0  0  0  0  0  0  0  0
   50.9179   33.5913   42.0468 H   0  0  0  0  0  0  0  0  0  0  0  0
   43.7157   35.7421   47.0638 H   0  0  0  0  0  0  0  0  0  0  0  0
   44.4258   34.1059   47.1005 H   0  0  0  0  0  0  0  0  0  0  0  0
  1  6  2  0
  2  1  1  0
  2  3  2  0
  3  4  1  0
  4  5  2  0
  5  7  1  0
  6  5  1  0
  7 15  1  0
  7  8  1  0
  8  9  2  0
 10  9  1  0
 10 11  2  0
 11 22  1  0
 12 11  1  0
 13 12  2  0
 14 13  1  0
 14 15  2  0
 15 10  1  0
 16  3  1  0
 16 20  1  0
 17 18  2  0
 17 16  1  0
 18 19  1  0
 19 20  2  0
 20 21  1  0
  1 23  1  0
  2 24  1  0
  8 25  1  0
 13 26  1  0
 17 27  1  0
 18 28  1  0
 21 29  1  0
 21 30  1  0
 22 31  1  0
 22 32  1  0
M  ISO  6  23  14  24  14  25  14  26  14  27  14  28  14
M  END
>  <minimizedAffinity>  (1) 
-6.46228313

>  <minimizedRMSD>  (1) 
5.03751898

$$$$
