
     RDKit          3D

 35 38  0  0  0  0  0  0  0  0999 V2000
   44.5470   35.8500   44.7150 C   0  0  0  0  0  0  0  0  0  0  0  0
   45.2830   35.7170   43.5090 C   0  0  0  0  0  0  0  0  0  0  0  0
   46.1470   34.6370   43.4490 C   0  0  0  0  0  0  0  0  0  0  0  0
   46.1900   33.8520   44.5240 N   0  0  0  0  0  0  0  0  0  0  0  0
   45.5100   33.9630   45.6580 C   0  0  0  0  0  0  0  0  0  0  0  0
   44.6710   35.0050   45.7250 N   0  0  0  0  0  0  0  0  0  0  0  0
   46.9020   34.4540   42.2640 N   0  0  0  0  0  0  0  0  0  0  0  0
   46.2970   34.3360   41.0470 C   0  0  0  0  0  0  0  0  0  0  0  0
   47.3510   34.1720   40.1420 C   0  0  0  0  0  0  0  0  0  0  0  0
   48.5370   34.1930   40.8270 N   0  0  0  0  0  0  0  0  0  0  0  0
   48.2120   34.3680   42.1220 C   0  0  0  0  0  0  0  0  0  0  0  0
   49.1190   34.4510   43.2210 N   0  0  0  0  0  0  0  0  0  0  0  0
   45.8250   32.9080   46.6100 C   0  0  0  0  0  0  0  0  0  0  0  0
   45.3590   32.9290   47.9040 C   0  0  0  0  0  0  0  0  0  0  0  0
   45.6330   31.9520   48.8330 C   0  0  0  0  0  0  0  0  0  0  0  0
   46.4140   30.8690   48.5040 C   0  0  0  0  0  0  0  0  0  0  0  0
   46.9040   30.8020   47.2190 C   0  0  0  0  0  0  0  0  0  0  0  0
   47.6780   29.7180   46.9100 C   0  0  0  0  0  0  0  0  0  0  0  0
   48.2080   29.5720   45.6510 C   0  0  0  0  0  0  0  0  0  0  0  0
   47.9130   30.5780   44.7260 C   0  0  0  0  0  0  0  0  0  0  0  0
   47.1290   31.6480   45.0920 C   0  0  0  0  0  0  0  0  0  0  0  0
   46.5970   31.7980   46.3510 C   0  0  0  0  0  0  0  0  0  0  0  0
   43.8444   36.6905   44.8140 H   0  0  0  0  0  0  0  0  0  0  0  0
   45.1740   36.4264   42.6754 H   0  0  0  0  0  0  0  0  0  0  0  0
   45.2197   34.3637   40.8264 H   0  0  0  0  0  0  0  0  0  0  0  0
   47.2444   34.0463   39.0544 H   0  0  0  0  0  0  0  0  0  0  0  0
   48.7592   34.5868   44.1765 H   0  0  0  0  0  0  0  0  0  0  0  0
   50.1333   34.3751   43.0585 H   0  0  0  0  0  0  0  0  0  0  0  0
   44.7304   33.7767   48.2142 H   0  0  0  0  0  0  0  0  0  0  0  0
   45.2229   32.0380   49.8501 H   0  0  0  0  0  0  0  0  0  0  0  0
   46.6392   30.0842   49.2411 H   0  0  0  0  0  0  0  0  0  0  0  0
   47.8783   28.9554   47.6770 H   0  0  0  0  0  0  0  0  0  0  0  0
   48.8330   28.7071   45.3841 H   0  0  0  0  0  0  0  0  0  0  0  0
   48.3091   30.5139   43.7018 H   0  0  0  0  0  0  0  0  0  0  0  0
   46.9173   32.4221   44.3397 H   0  0  0  0  0  0  0  0  0  0  0  0
  1  6  2  0
  2  1  1  0
  3  2  2  0
  3  4  1  0
  4  5  2  0
  5  6  1  0
  5 13  1  0
  7  3  1  0
  8  7  1  0
  9 10  1  0
  9  8  2  0
 10 11  2  0
 11  7  1  0
 11 12  1  0
 13 14  2  0
 14 15  1  0
 16 15  2  0
 17 16  1  0
 18 17  2  0
 19 18  1  0
 20 21  1  0
 20 19  2  0
 21 22  2  0
 22 13  1  0
 22 17  1  0
  1 23  1  0
  2 24  1  0
  8 25  1  0
  9 26  1  0
 12 27  1  0
 12 28  1  0
 14 29  1  0
 15 30  1  0
 16 31  1  0
 18 32  1  0
 19 33  1  0
 20 34  1  0
 21 35  1  0
M  ISO  8  23  14  24  14  25  14  26  14  29  14  30  14  31  14  32  14
M  ISO  3  33  14  34  14  35  14
M  END
>  <minimizedAffinity>  (1) 
-6.71055889

>  <minimizedRMSD>  (1) 
0.511319399

$$$$
