
     RDKit          3D

 29 31  0  0  0  0  0  0  0  0999 V2000
   44.5740   35.4860   44.9760 C   0  0  0  0  0  0  0  0  0  0  0  0
   45.2510   35.4340   43.7370 C   0  0  0  0  0  0  0  0  0  0  0  0
   46.2270   34.4470   43.6110 C   0  0  0  0  0  0  0  0  0  0  0  0
   46.4750   33.6070   44.6530 N   0  0  0  0  0  0  0  0  0  0  0  0
   45.7960   33.7040   45.8150 C   0  0  0  0  0  0  0  0  0  0  0  0
   44.8400   34.6550   45.9690 N   0  0  0  0  0  0  0  0  0  0  0  0
   46.9150   34.3800   42.3750 N   0  0  0  0  0  0  0  0  0  0  0  0
   46.2490   34.2800   41.1890 C   0  0  0  0  0  0  0  0  0  0  0  0
   47.2520   34.2390   40.2160 C   0  0  0  0  0  0  0  0  0  0  0  0
   48.4580   34.3140   40.8160 N   0  0  0  0  0  0  0  0  0  0  0  0
   48.2320   34.4000   42.1560 C   0  0  0  0  0  0  0  0  0  0  0  0
   49.1890   34.5000   43.2150 N   0  0  0  0  0  0  0  0  0  0  0  0
   46.0610   32.8050   46.9320 C   0  0  0  0  0  0  0  0  0  0  0  0
   45.0860   32.6110   47.8990 C   0  0  0  0  0  0  0  0  0  0  0  0
   45.3380   31.7520   48.9670 C   0  0  0  0  0  0  0  0  0  0  0  0
   46.5630   31.1060   49.0410 C   0  0  0  0  0  0  0  0  0  0  0  0
   47.5550   31.2820   48.0890 C   0  0  0  0  0  0  0  0  0  0  0  0
   47.2650   32.1400   47.0490 C   0  0  0  0  0  0  0  0  0  0  0  0
   43.7944   36.2485   45.1201 H   0  0  0  0  0  0  0  0  0  0  0  0
   45.0210   36.1323   42.9188 H   0  0  0  0  0  0  0  0  0  0  0  0
   45.1609   34.2403   41.0324 H   0  0  0  0  0  0  0  0  0  0  0  0
   47.0843   34.1583   39.1319 H   0  0  0  0  0  0  0  0  0  0  0  0
   48.8708   34.5584   44.1929 H   0  0  0  0  0  0  0  0  0  0  0  0
   50.1961   34.5136   42.9995 H   0  0  0  0  0  0  0  0  0  0  0  0
   44.1200   33.1318   47.8235 H   0  0  0  0  0  0  0  0  0  0  0  0
   44.5746   31.5883   49.7419 H   0  0  0  0  0  0  0  0  0  0  0  0
   46.7545   30.4289   49.8865 H   0  0  0  0  0  0  0  0  0  0  0  0
   48.5230   30.7643   48.1594 H   0  0  0  0  0  0  0  0  0  0  0  0
   48.0300   32.3023   46.2754 H   0  0  0  0  0  0  0  0  0  0  0  0
  1  6  2  0
  2  1  1  0
  3  2  2  0
  3  4  1  0
  4  5  2  0
  5  6  1  0
  5 13  1  0
  7  3  1  0
  8  7  1  0
  9 10  1  0
  9  8  2  0
 10 11  2  0
 11  7  1  0
 11 12  1  0
 13 18  1  0
 13 14  2  0
 14 15  1  0
 15 16  2  0
 17 16  1  0
 18 17  2  0
  1 19  1  0
  2 20  1  0
  8 21  1  0
  9 22  1  0
 12 23  1  0
 12 24  1  0
 14 25  1  0
 15 26  1  0
 16 27  1  0
 17 28  1  0
 18 29  1  0
M  ISO  8  19  14  20  14  21  14  22  14  25  14  26  14  27  14  28  14
M  ISO  1  29  14
M  END
>  <minimizedAffinity>  (1) 
-6.15748358

>  <minimizedRMSD>  (1) 
0.964525223

$$$$
