
     RDKit          3D

 34 36  0  0  0  0  0  0  0  0999 V2000
   44.6670   35.6760   44.7940 C   0  0  0  0  0  0  0  0  0  0  0  0
   45.3790   35.5940   43.5800 C   0  0  0  0  0  0  0  0  0  0  0  0
   46.2430   34.5070   43.4200 C   0  0  0  0  0  0  0  0  0  0  0  0
   46.3460   33.6130   44.4190 N   0  0  0  0  0  0  0  0  0  0  0  0
   45.6570   33.7130   45.5700 C   0  0  0  0  0  0  0  0  0  0  0  0
   44.8140   34.7530   45.7520 N   0  0  0  0  0  0  0  0  0  0  0  0
   45.8030   32.7380   46.5960 N   0  0  0  0  0  0  0  0  0  0  0  0
   46.6630   31.5940   46.5210 C   0  0  0  0  0  0  0  0  0  0  0  0
   47.6410   31.7000   47.6740 C   0  0  0  0  0  0  0  0  0  0  0  0
   46.9270   31.6730   48.9840 C   0  0  0  0  0  0  0  0  0  0  0  0
   45.4570   31.9040   48.8670 C   0  0  0  0  0  0  0  0  0  0  0  0
   45.0440   32.8810   47.8190 C   0  0  0  0  0  0  0  0  0  0  0  0
   46.9560   34.4260   42.2040 N   0  0  0  0  0  0  0  0  0  0  0  0
   46.3260   34.2910   40.9960 C   0  0  0  0  0  0  0  0  0  0  0  0
   47.3480   34.2480   40.0530 C   0  0  0  0  0  0  0  0  0  0  0  0
   48.5430   34.3540   40.6840 N   0  0  0  0  0  0  0  0  0  0  0  0
   48.2730   34.4620   42.0100 C   0  0  0  0  0  0  0  0  0  0  0  0
   49.2080   34.5990   43.0960 N   0  0  0  0  0  0  0  0  0  0  0  0
   43.9761   36.5162   44.9573 H   0  0  0  0  0  0  0  0  0  0  0  0
   45.2597   36.3528   42.7926 H   0  0  0  0  0  0  0  0  0  0  0  0
   46.0721   30.6705   46.6102 H   0  0  0  0  0  0  0  0  0  0  0  0
   47.1930   31.5632   45.5576 H   0  0  0  0  0  0  0  0  0  0  0  0
   48.3430   30.8543   47.6293 H   0  0  0  0  0  0  0  0  0  0  0  0
   48.1817   32.6541   47.5888 H   0  0  0  0  0  0  0  0  0  0  0  0
   47.0887   30.6890   49.4482 H   0  0  0  0  0  0  0  0  0  0  0  0
   47.3357   32.4938   49.5916 H   0  0  0  0  0  0  0  0  0  0  0  0
   44.9791   30.9398   48.6391 H   0  0  0  0  0  0  0  0  0  0  0  0
   45.1413   32.3382   49.8271 H   0  0  0  0  0  0  0  0  0  0  0  0
   45.1917   33.8991   48.2085 H   0  0  0  0  0  0  0  0  0  0  0  0
   43.9877   32.6875   47.5805 H   0  0  0  0  0  0  0  0  0  0  0  0
   45.2435   34.2297   40.8107 H   0  0  0  0  0  0  0  0  0  0  0  0
   47.2084   34.1443   38.9668 H   0  0  0  0  0  0  0  0  0  0  0  0
   48.8653   34.6718   44.0646 H   0  0  0  0  0  0  0  0  0  0  0  0
   50.2197   34.6242   42.9044 H   0  0  0  0  0  0  0  0  0  0  0  0
  1  6  2  0
  2  1  1  0
  3  2  2  0
  3  4  1  0
  4  5  2  0
  5  6  1  0
  5  7  1  0
  7 12  1  0
  8  7  1  0
  8  9  1  0
  9 10  1  0
 11 10  1  0
 12 11  1  0
 13  3  1  0
 14 13  1  0
 15 16  1  0
 15 14  2  0
 16 17  2  0
 17 13  1  0
 17 18  1  0
  1 19  1  0
  2 20  1  0
  8 21  1  0
  8 22  1  0
  9 23  1  0
  9 24  1  0
 10 25  1  0
 10 26  1  0
 11 27  1  0
 11 28  1  0
 12 29  1  0
 12 30  1  0
 14 31  1  0
 15 32  1  0
 18 33  1  0
 18 34  1  0
M  ISO  8  19  14  20  14  21  13  22  13  23  13  24  13  25  13  26  13
M  ISO  6  27  13  28  13  29  13  30  13  31  14  32  14
M  END
>  <minimizedAffinity>  (1) 
-6.08785963

>  <minimizedRMSD>  (1) 
0.44754529

$$$$
