
     RDKit          3D

 33 35  0  0  0  0  0  0  0  0999 V2000
   44.5780   35.5110   44.9420 C   0  0  0  0  0  0  0  0  0  0  0  0
   45.2610   35.4520   43.7070 C   0  0  0  0  0  0  0  0  0  0  0  0
   46.2310   34.4560   43.5660 C   0  0  0  0  0  0  0  0  0  0  0  0
   46.4420   33.6320   44.6150 N   0  0  0  0  0  0  0  0  0  0  0  0
   45.7860   33.7010   45.7800 C   0  0  0  0  0  0  0  0  0  0  0  0
   44.8420   34.6620   45.9290 N   0  0  0  0  0  0  0  0  0  0  0  0
   46.0800   32.7850   46.8300 N   0  0  0  0  0  0  0  0  0  0  0  0
   45.1400   32.6970   47.9020 C   0  0  0  0  0  0  0  0  0  0  0  0
   45.6320   32.0520   49.1510 C   0  0  0  0  0  0  0  0  0  0  0  0
   46.5090   30.9660   48.8350 N   0  0  0  0  0  0  0  0  0  0  0  0
   47.6710   31.4610   48.1180 C   0  0  0  0  0  0  0  0  0  0  0  0
   47.2940   32.0030   46.7560 C   0  0  0  0  0  0  0  0  0  0  0  0
   46.9230   34.3880   42.3270 N   0  0  0  0  0  0  0  0  0  0  0  0
   46.2600   34.2770   41.1540 C   0  0  0  0  0  0  0  0  0  0  0  0
   47.2590   34.2390   40.1830 C   0  0  0  0  0  0  0  0  0  0  0  0
   48.4770   34.3260   40.8010 N   0  0  0  0  0  0  0  0  0  0  0  0
   48.2360   34.4170   42.1280 C   0  0  0  0  0  0  0  0  0  0  0  0
   49.1890   34.5280   43.1860 N   0  0  0  0  0  0  0  0  0  0  0  0
   43.8065   36.2809   45.0905 H   0  0  0  0  0  0  0  0  0  0  0  0
   45.0394   36.1581   42.8931 H   0  0  0  0  0  0  0  0  0  0  0  0
   44.8208   33.7190   48.1543 H   0  0  0  0  0  0  0  0  0  0  0  0
   44.3301   32.0502   47.5336 H   0  0  0  0  0  0  0  0  0  0  0  0
   46.1759   32.7946   49.7533 H   0  0  0  0  0  0  0  0  0  0  0  0
   44.7721   31.6653   49.7176 H   0  0  0  0  0  0  0  0  0  0  0  0
   46.8144   30.5091   49.7062 H   0  0  0  0  0  0  0  0  0  0  0  0
   48.1378   32.2651   48.7058 H   0  0  0  0  0  0  0  0  0  0  0  0
   48.3700   30.6239   47.9745 H   0  0  0  0  0  0  0  0  0  0  0  0
   47.1391   31.1621   46.0640 H   0  0  0  0  0  0  0  0  0  0  0  0
   48.1079   32.6505   46.3977 H   0  0  0  0  0  0  0  0  0  0  0  0
   45.1720   34.2276   41.0000 H   0  0  0  0  0  0  0  0  0  0  0  0
   47.0955   34.1532   39.0986 H   0  0  0  0  0  0  0  0  0  0  0  0
   48.8689   34.5902   44.1630 H   0  0  0  0  0  0  0  0  0  0  0  0
   50.1964   34.5458   42.9720 H   0  0  0  0  0  0  0  0  0  0  0  0
  1  6  2  0
  2  1  1  0
  3  2  2  0
  3  4  1  0
  4  5  2  0
  5  6  1  0
  5  7  1  0
  7  8  1  0
  8  9  1  0
 10  9  1  0
 11 10  1  0
 12  7  1  0
 12 11  1  0
 13  3  1  0
 14 13  1  0
 15 16  1  0
 15 14  2  0
 16 17  2  0
 17 13  1  0
 17 18  1  0
  1 19  1  0
  2 20  1  0
  8 21  1  0
  8 22  1  0
  9 23  1  0
  9 24  1  0
 10 25  1  0
 11 26  1  0
 11 27  1  0
 12 28  1  0
 12 29  1  0
 14 30  1  0
 15 31  1  0
 18 32  1  0
 18 33  1  0
M  ISO  8  19  14  20  14  21  13  22  13  23  13  24  13  25   5  26  13
M  ISO  5  27  13  28  13  29  13  30  14  31  14
M  END
>  <minimizedAffinity>  (1) 
-6.03267765

>  <minimizedRMSD>  (1) 
0.548411846

$$$$
