
     RDKit          3D

 29 31  0  0  0  0  0  0  0  0999 V2000
   44.5570   35.5190   44.9650 C   0  0  0  0  0  0  0  0  0  0  0  0
   45.2390   35.4490   43.7310 C   0  0  0  0  0  0  0  0  0  0  0  0
   46.2120   34.4550   43.6080 C   0  0  0  0  0  0  0  0  0  0  0  0
   46.4340   33.6360   44.6610 N   0  0  0  0  0  0  0  0  0  0  0  0
   45.7710   33.7290   45.8160 C   0  0  0  0  0  0  0  0  0  0  0  0
   44.8230   34.6770   45.9720 N   0  0  0  0  0  0  0  0  0  0  0  0
   46.9000   34.3790   42.3730 N   0  0  0  0  0  0  0  0  0  0  0  0
   46.2470   34.2800   41.1870 C   0  0  0  0  0  0  0  0  0  0  0  0
   47.2650   34.2300   40.2210 C   0  0  0  0  0  0  0  0  0  0  0  0
   48.4690   34.2990   40.8370 N   0  0  0  0  0  0  0  0  0  0  0  0
   48.2130   34.3900   42.1640 C   0  0  0  0  0  0  0  0  0  0  0  0
   49.1730   34.4860   43.2290 N   0  0  0  0  0  0  0  0  0  0  0  0
   46.0510   32.8180   46.9220 C   0  0  0  0  0  0  0  0  0  0  0  0
   47.2490   32.1540   47.0030 C   0  0  0  0  0  0  0  0  0  0  0  0
   47.5660   31.2830   48.0240 C   0  0  0  0  0  0  0  0  0  0  0  0
   46.5850   31.1040   48.9960 C   0  0  0  0  0  0  0  0  0  0  0  0
   45.3520   31.7430   48.9760 C   0  0  0  0  0  0  0  0  0  0  0  0
   45.1130   32.6060   47.9080 C   0  0  0  0  0  0  0  0  0  0  0  0
   43.7834   36.2886   45.1037 H   0  0  0  0  0  0  0  0  0  0  0  0
   45.0151   36.1429   42.9074 H   0  0  0  0  0  0  0  0  0  0  0  0
   45.1603   34.2464   41.0196 H   0  0  0  0  0  0  0  0  0  0  0  0
   47.1090   34.1478   39.1352 H   0  0  0  0  0  0  0  0  0  0  0  0
   48.8535   34.5504   44.2061 H   0  0  0  0  0  0  0  0  0  0  0  0
   50.1806   34.4904   43.0153 H   0  0  0  0  0  0  0  0  0  0  0  0
   47.9949   32.3253   46.2129 H   0  0  0  0  0  0  0  0  0  0  0  0
   48.5338   30.7619   48.0679 H   0  0  0  0  0  0  0  0  0  0  0  0
   46.7990   30.4167   49.8278 H   0  0  0  0  0  0  0  0  0  0  0  0
   44.6020   31.5764   49.7633 H   0  0  0  0  0  0  0  0  0  0  0  0
   44.1487   33.1323   47.8510 H   0  0  0  0  0  0  0  0  0  0  0  0
  1  6  2  0
  2  1  1  0
  3  2  2  0
  3  4  1  0
  4  5  2  0
  5  6  1  0
  5 13  1  0
  7  3  1  0
  8  7  1  0
  9 10  1  0
  9  8  2  0
 10 11  2  0
 11  7  1  0
 11 12  1  0
 13 14  2  0
 13 18  1  0
 14 15  1  0
 15 16  2  0
 17 16  1  0
 18 17  2  0
  1 19  1  0
  2 20  1  0
  8 21  1  0
  9 22  1  0
 12 23  1  0
 12 24  1  0
 14 25  1  0
 15 26  1  0
 16 27  1  0
 17 28  1  0
 18 29  1  0
M  ISO  8  19  14  20  14  21  14  22  14  25  14  26  14  27  14  28  14
M  ISO  1  29  14
M  END
>  <minimizedAffinity>  (1) 
-6.17230511

>  <minimizedRMSD>  (1) 
0.734202445

$$$$
