
     RDKit          3D

 26 28  0  0  0  0  0  0  0  0999 V2000
   44.5730   35.7510   44.7310 C   0  0  0  0  0  0  0  0  0  0  0  0
   45.3020   35.6000   43.5410 C   0  0  0  0  0  0  0  0  0  0  0  0
   46.2100   34.5480   43.4430 C   0  0  0  0  0  0  0  0  0  0  0  0
   46.3300   33.7330   44.5100 N   0  0  0  0  0  0  0  0  0  0  0  0
   45.6240   33.8940   45.6390 C   0  0  0  0  0  0  0  0  0  0  0  0
   44.7420   34.9080   45.7480 N   0  0  0  0  0  0  0  0  0  0  0  0
   46.9330   34.4150   42.2340 N   0  0  0  0  0  0  0  0  0  0  0  0
   46.3030   34.2860   41.0350 C   0  0  0  0  0  0  0  0  0  0  0  0
   47.3460   34.1840   40.1030 C   0  0  0  0  0  0  0  0  0  0  0  0
   48.5420   34.2530   40.7600 N   0  0  0  0  0  0  0  0  0  0  0  0
   48.2550   34.3960   42.0710 C   0  0  0  0  0  0  0  0  0  0  0  0
   49.1770   34.5140   43.1690 N   0  0  0  0  0  0  0  0  0  0  0  0
   45.8270   32.9580   46.7350 C   0  0  0  0  0  0  0  0  0  0  0  0
   45.1240   32.7960   47.9020 C   0  0  0  0  0  0  0  0  0  0  0  0
   45.4500   31.8620   48.8330 C   0  0  0  0  0  0  0  0  0  0  0  0
   46.5840   30.9990   48.5910 C   0  0  0  0  0  0  0  0  0  0  0  0
   47.1740   31.6250   46.8960 S   0  0  0  0  0  0  0  0  0  0  0  0
   43.8524   36.5768   44.8248 H   0  0  0  0  0  0  0  0  0  0  0  0
   45.1592   36.2981   42.7030 H   0  0  0  0  0  0  0  0  0  0  0  0
   45.2205   34.2662   40.8406 H   0  0  0  0  0  0  0  0  0  0  0  0
   47.2211   34.0671   39.0164 H   0  0  0  0  0  0  0  0  0  0  0  0
   48.8223   34.6191   44.1303 H   0  0  0  0  0  0  0  0  0  0  0  0
   50.1918   34.4934   42.9938 H   0  0  0  0  0  0  0  0  0  0  0  0
   44.2601   33.4499   48.0918 H   0  0  0  0  0  0  0  0  0  0  0  0
   44.8603   31.7640   49.7564 H   0  0  0  0  0  0  0  0  0  0  0  0
   46.9953   30.1953   49.2194 H   0  0  0  0  0  0  0  0  0  0  0  0
  1  6  2  0
  2  1  1  0
  3  2  2  0
  3  4  1  0
  4  5  2  0
  5  6  1  0
  5 13  1  0
  7  3  1  0
  8  7  1  0
  9 10  1  0
  9  8  2  0
 10 11  2  0
 11  7  1  0
 11 12  1  0
 13 17  1  0
 13 14  2  0
 14 15  1  0
 16 15  2  0
 17 16  1  0
  1 18  1  0
  2 19  1  0
  8 20  1  0
  9 21  1  0
 12 22  1  0
 12 23  1  0
 14 24  1  0
 15 25  1  0
 16 26  1  0
M  ISO  7  18  14  19  14  20  14  21  14  24  14  25  14  26  14
M  END
>  <minimizedAffinity>  (1) 
-5.7169137

>  <minimizedRMSD>  (1) 
0.27515164

$$$$
