
     RDKit          3D

 33 36  0  0  0  0  0  0  0  0999 V2000
   44.5950   36.0460   44.1390 C   0  0  0  0  0  0  0  0  0  0  0  0
   45.4200   35.8370   43.0180 C   0  0  0  0  0  0  0  0  0  0  0  0
   46.3140   34.7530   43.0530 C   0  0  0  0  0  0  0  0  0  0  0  0
   46.3230   33.9860   44.1580 N   0  0  0  0  0  0  0  0  0  0  0  0
   45.5280   34.2060   45.2150 C   0  0  0  0  0  0  0  0  0  0  0  0
   44.6560   35.2460   45.2030 N   0  0  0  0  0  0  0  0  0  0  0  0
   45.5440   33.3880   46.3810 N   0  0  0  0  0  0  0  0  0  0  0  0
   45.0400   33.4890   47.6340 C   0  0  0  0  0  0  0  0  0  0  0  0
   45.3760   32.3870   48.3320 N   0  0  0  0  0  0  0  0  0  0  0  0
   46.0880   31.5750   47.5520 C   0  0  0  0  0  0  0  0  0  0  0  0
   46.6450   30.3400   47.8320 C   0  0  0  0  0  0  0  0  0  0  0  0
   46.5520   29.7640   48.9450 O   0  0  0  0  0  0  0  0  0  0  0  0
   47.3340   29.6940   46.8730 N   0  0  0  0  0  0  0  0  0  0  0  0
   47.4340   30.3170   45.6680 C   0  0  0  0  0  0  0  0  0  0  0  0
   48.1380   29.7230   44.5900 N   0  0  0  0  0  0  0  0  0  0  0  0
   46.9040   31.5150   45.3680 N   0  0  0  0  0  0  0  0  0  0  0  0
   46.2030   32.1930   46.3170 C   0  0  0  0  0  0  0  0  0  0  0  0
   47.1280   34.5600   41.9240 N   0  0  0  0  0  0  0  0  0  0  0  0
   46.5980   34.3310   40.6860 C   0  0  0  0  0  0  0  0  0  0  0  0
   47.6980   34.1940   39.8390 C   0  0  0  0  0  0  0  0  0  0  0  0
   48.8410   34.3390   40.5700 N   0  0  0  0  0  0  0  0  0  0  0  0
   48.4540   34.5640   41.8510 C   0  0  0  0  0  0  0  0  0  0  0  0
   49.2850   34.7800   42.9940 N   0  0  0  0  0  0  0  0  0  0  0  0
   43.8856   36.8867   44.1368 H   0  0  0  0  0  0  0  0  0  0  0  0
   45.3668   36.5008   42.1425 H   0  0  0  0  0  0  0  0  0  0  0  0
   44.4513   34.3345   48.0195 H   0  0  0  0  0  0  0  0  0  0  0  0
   47.7641   28.7737   47.0432 H   0  0  0  0  0  0  0  0  0  0  0  0
   48.2021   30.2113   43.6854 H   0  0  0  0  0  0  0  0  0  0  0  0
   48.5853   28.8032   44.7116 H   0  0  0  0  0  0  0  0  0  0  0  0
   45.5337   34.2682   40.4154 H   0  0  0  0  0  0  0  0  0  0  0  0
   47.6515   34.0004   38.7572 H   0  0  0  0  0  0  0  0  0  0  0  0
   48.8586   34.9404   43.9178 H   0  0  0  0  0  0  0  0  0  0  0  0
   50.3101   34.7753   42.8937 H   0  0  0  0  0  0  0  0  0  0  0  0
  1  6  2  0
  2  3  2  0
  2  1  1  0
  3  4  1  0
  4  5  2  0
  5  7  1  0
  6  5  1  0
  7  8  1  0
  8  9  2  0
 10 11  1  0
 10  9  1  0
 11 12  2  0
 13 11  1  0
 14 13  1  0
 15 14  1  0
 16 14  2  0
 16 17  1  0
 17  7  1  0
 17 10  2  0
 18  3  1  0
 19 18  1  0
 20 21  1  0
 20 19  2  0
 21 22  2  0
 22 18  1  0
 22 23  1  0
  1 24  1  0
  2 25  1  0
  8 26  1  0
 13 27  1  0
 15 28  1  0
 15 29  1  0
 19 30  1  0
 20 31  1  0
 23 32  1  0
 23 33  1  0
M  ISO  6  24  14  25  14  26  14  27   9  30  14  31  14
M  END
>  <minimizedAffinity>  (1) 
-5.94041348

>  <minimizedRMSD>  (1) 
0.332414359

$$$$
