
     RDKit          3D

 32 34  0  0  0  0  0  0  0  0999 V2000
   44.6770   35.4020   44.8970 C   0  0  0  0  0  0  0  0  0  0  0  0
   45.4000   35.3820   43.6950 C   0  0  0  0  0  0  0  0  0  0  0  0
   46.4120   34.4070   43.5650 C   0  0  0  0  0  0  0  0  0  0  0  0
   46.5970   33.5800   44.6050 N   0  0  0  0  0  0  0  0  0  0  0  0
   45.8970   33.6180   45.7370 C   0  0  0  0  0  0  0  0  0  0  0  0
   44.9250   34.5430   45.8830 N   0  0  0  0  0  0  0  0  0  0  0  0
   46.1520   32.7100   46.7930 N   0  0  0  0  0  0  0  0  0  0  0  0
   45.3840   32.7600   48.0210 C   0  0  0  0  0  0  0  0  0  0  0  0
   44.8640   31.3540   48.2710 C   0  0  0  0  0  0  0  0  0  0  0  0
   45.9120   30.4680   48.2010 O   0  0  0  0  0  0  0  0  0  0  0  0
   46.5040   30.3670   46.9580 C   0  0  0  0  0  0  0  0  0  0  0  0
   47.1900   31.7020   46.6740 C   0  0  0  0  0  0  0  0  0  0  0  0
   47.1350   34.3950   42.3510 N   0  0  0  0  0  0  0  0  0  0  0  0
   46.5050   34.2800   41.1410 C   0  0  0  0  0  0  0  0  0  0  0  0
   47.5440   34.3080   40.2120 C   0  0  0  0  0  0  0  0  0  0  0  0
   48.7320   34.4350   40.8640 N   0  0  0  0  0  0  0  0  0  0  0  0
   48.4470   34.4850   42.1800 C   0  0  0  0  0  0  0  0  0  0  0  0
   49.3650   34.6160   43.2780 N   0  0  0  0  0  0  0  0  0  0  0  0
   43.8813   36.1500   45.0286 H   0  0  0  0  0  0  0  0  0  0  0  0
   45.1868   36.0971   42.8868 H   0  0  0  0  0  0  0  0  0  0  0  0
   46.0247   33.0808   48.8556 H   0  0  0  0  0  0  0  0  0  0  0  0
   44.5553   33.4787   47.9393 H   0  0  0  0  0  0  0  0  0  0  0  0
   44.4047   31.3032   49.2692 H   0  0  0  0  0  0  0  0  0  0  0  0
   44.1103   31.0972   47.5121 H   0  0  0  0  0  0  0  0  0  0  0  0
   47.2459   29.5548   46.9589 H   0  0  0  0  0  0  0  0  0  0  0  0
   45.7539   30.1416   46.1856 H   0  0  0  0  0  0  0  0  0  0  0  0
   47.6148   31.7068   45.6593 H   0  0  0  0  0  0  0  0  0  0  0  0
   48.0195   31.8889   47.3719 H   0  0  0  0  0  0  0  0  0  0  0  0
   45.4264   34.1869   40.9464 H   0  0  0  0  0  0  0  0  0  0  0  0
   47.4225   34.2383   39.1210 H   0  0  0  0  0  0  0  0  0  0  0  0
   49.0111   34.6416   44.2449 H   0  0  0  0  0  0  0  0  0  0  0  0
   50.3768   34.6843   43.0980 H   0  0  0  0  0  0  0  0  0  0  0  0
  1  6  2  0
  2  1  1  0
  3  2  2  0
  3  4  1  0
  4  5  2  0
  5  6  1  0
  5  7  1  0
  7  8  1  0
  8  9  1  0
 10  9  1  0
 11 10  1  0
 12  7  1  0
 12 11  1  0
 13  3  1  0
 14 13  1  0
 15 16  1  0
 15 14  2  0
 16 17  2  0
 17 13  1  0
 17 18  1  0
  1 19  1  0
  2 20  1  0
  8 21  1  0
  8 22  1  0
  9 23  1  0
  9 24  1  0
 11 25  1  0
 11 26  1  0
 12 27  1  0
 12 28  1  0
 14 29  1  0
 15 30  1  0
 18 31  1  0
 18 32  1  0
M  ISO  8  19  14  20  14  21  13  22  13  23  13  24  13  25  13  26  13
M  ISO  4  27  13  28  13  29  14  30  14
M  END
>  <minimizedAffinity>  (1) 
-5.8002634

>  <minimizedRMSD>  (1) 
0.67564106

$$$$
