
     RDKit          3D

 28 29  0  0  0  0  0  0  0  0999 V2000
   44.6940   35.3550   44.8330 C   0  0  0  0  0  0  0  0  0  0  0  0
   45.4220   35.3380   43.6310 C   0  0  0  0  0  0  0  0  0  0  0  0
   46.4720   34.4270   43.5110 C   0  0  0  0  0  0  0  0  0  0  0  0
   46.7210   33.6170   44.5620 N   0  0  0  0  0  0  0  0  0  0  0  0
   46.0080   33.6520   45.7080 C   0  0  0  0  0  0  0  0  0  0  0  0
   44.9880   34.5300   45.8350 N   0  0  0  0  0  0  0  0  0  0  0  0
   47.2010   34.4130   42.3020 N   0  0  0  0  0  0  0  0  0  0  0  0
   46.5730   34.2850   41.0940 C   0  0  0  0  0  0  0  0  0  0  0  0
   47.6280   34.3160   40.1630 C   0  0  0  0  0  0  0  0  0  0  0  0
   48.8070   34.4570   40.8130 N   0  0  0  0  0  0  0  0  0  0  0  0
   48.5230   34.5150   42.1460 C   0  0  0  0  0  0  0  0  0  0  0  0
   49.4320   34.6590   43.2260 N   0  0  0  0  0  0  0  0  0  0  0  0
   46.4010   32.6920   46.7870 C   0  0  0  0  0  0  0  0  0  0  0  0
   46.5570   31.3400   46.1390 C   0  0  0  0  0  0  0  0  0  0  0  0
   45.3090   32.6130   47.8520 C   0  0  0  0  0  0  0  0  0  0  0  0
   43.8627   36.0661   44.9482 H   0  0  0  0  0  0  0  0  0  0  0  0
   45.1711   36.0235   42.8081 H   0  0  0  0  0  0  0  0  0  0  0  0
   45.4958   34.1820   40.8963 H   0  0  0  0  0  0  0  0  0  0  0  0
   47.5120   34.2375   39.0719 H   0  0  0  0  0  0  0  0  0  0  0  0
   49.0812   34.6888   44.1939 H   0  0  0  0  0  0  0  0  0  0  0  0
   50.4427   34.7337   43.0420 H   0  0  0  0  0  0  0  0  0  0  0  0
   47.3331   33.0197   47.2706 H   0  0  0  0  0  0  0  0  0  0  0  0
   46.6461   30.5682   46.9177 H   0  0  0  0  0  0  0  0  0  0  0  0
   45.6772   31.1296   45.5132 H   0  0  0  0  0  0  0  0  0  0  0  0
   47.4616   31.3355   45.5132 H   0  0  0  0  0  0  0  0  0  0  0  0
   45.7681   32.6462   48.8511 H   0  0  0  0  0  0  0  0  0  0  0  0
   44.6214   33.4638   47.7360 H   0  0  0  0  0  0  0  0  0  0  0  0
   44.7510   31.6721   47.7360 H   0  0  0  0  0  0  0  0  0  0  0  0
  1  6  2  0
  2  1  1  0
  3  2  2  0
  3  4  1  0
  4  5  2  0
  5  6  1  0
  5 13  1  0
  7  3  1  0
  8  7  1  0
  9 10  1  0
  9  8  2  0
 10 11  2  0
 11  7  1  0
 11 12  1  0
 13 15  1  0
 14 13  1  0
  1 16  1  0
  2 17  1  0
  8 18  1  0
  9 19  1  0
 12 20  1  0
 12 21  1  0
 13 22  1  0
 14 23  1  0
 14 24  1  0
 14 25  1  0
 15 26  1  0
 15 27  1  0
 15 28  1  0
M  ISO  8  16  14  17  14  18  14  19  14  22   8  23   8  24   8  25   8
M  ISO  3  26   8  27   8  28   8
M  END
>  <minimizedAffinity>  (1) 
-4.98207855

>  <minimizedRMSD>  (1) 
0.597700834

$$$$
