
     RDKit          3D

 25 27  0  0  0  0  0  0  0  0999 V2000
   44.5120   35.9170   44.5670 C   0  0  0  0  0  0  0  0  0  0  0  0
   45.2600   35.7270   43.3860 C   0  0  0  0  0  0  0  0  0  0  0  0
   46.1610   34.6460   43.3740 C   0  0  0  0  0  0  0  0  0  0  0  0
   46.2520   33.8700   44.4850 N   0  0  0  0  0  0  0  0  0  0  0  0
   45.5170   34.0920   45.5870 C   0  0  0  0  0  0  0  0  0  0  0  0
   44.6450   35.1210   45.6240 N   0  0  0  0  0  0  0  0  0  0  0  0
   46.9120   34.4510   42.1920 N   0  0  0  0  0  0  0  0  0  0  0  0
   46.3280   34.3150   40.9840 C   0  0  0  0  0  0  0  0  0  0  0  0
   47.3970   34.1440   40.0910 C   0  0  0  0  0  0  0  0  0  0  0  0
   48.5620   34.1810   40.7730 N   0  0  0  0  0  0  0  0  0  0  0  0
   48.2490   34.3720   42.0780 C   0  0  0  0  0  0  0  0  0  0  0  0
   49.1390   34.4830   43.2000 N   0  0  0  0  0  0  0  0  0  0  0  0
   45.7910   33.1160   46.6640 C   0  0  0  0  0  0  0  0  0  0  0  0
   46.9130   32.4280   46.4010 C   0  0  0  0  0  0  0  0  0  0  0  0
   47.0820   31.2620   47.8590 S   0  0  0  0  0  0  0  0  0  0  0  0
   45.4810   31.9980   48.5800 C   0  0  0  0  0  0  0  0  0  0  0  0
   45.2290   32.7520   47.7940 N   0  0  0  0  0  0  0  0  0  0  0  0
   43.7957   36.7504   44.6151 H   0  0  0  0  0  0  0  0  0  0  0  0
   45.1446   36.3914   42.5169 H   0  0  0  0  0  0  0  0  0  0  0  0
   45.2532   34.3339   40.7507 H   0  0  0  0  0  0  0  0  0  0  0  0
   47.3009   34.0019   39.0045 H   0  0  0  0  0  0  0  0  0  0  0  0
   48.7591   34.6285   44.1463 H   0  0  0  0  0  0  0  0  0  0  0  0
   50.1571   34.4171   43.0583 H   0  0  0  0  0  0  0  0  0  0  0  0
   47.5792   32.5257   45.5312 H   0  0  0  0  0  0  0  0  0  0  0  0
   44.9510   31.7501   49.5115 H   0  0  0  0  0  0  0  0  0  0  0  0
  1  6  2  0
  2  1  1  0
  3  2  2  0
  3  4  1  0
  4  5  2  0
  5  6  1  0
  5 13  1  0
  7  3  1  0
  8  7  1  0
  9 10  1  0
  9  8  2  0
 10 11  2  0
 11  7  1  0
 11 12  1  0
 13 17  1  0
 14 13  2  0
 14 15  1  0
 15 16  1  0
 17 16  2  0
  1 18  1  0
  2 19  1  0
  8 20  1  0
  9 21  1  0
 12 22  1  0
 12 23  1  0
 14 24  1  0
 16 25  1  0
M  ISO  6  18  14  19  14  20  14  21  14  24  14  25  14
M  END
>  <minimizedAffinity>  (1) 
-5.61649036

>  <minimizedRMSD>  (1) 
0.167123422

$$$$
