
     RDKit          3D

 32 34  0  0  0  0  0  0  0  0999 V2000
   44.4800   34.9670   42.7830 C   0  0  0  0  0  0  0  0  0  0  0  0
   45.1200   34.8930   41.5280 C   0  0  0  0  0  0  0  0  0  0  0  0
   46.2510   34.0720   41.4280 C   0  0  0  0  0  0  0  0  0  0  0  0
   46.6580   33.4040   42.5320 N   0  0  0  0  0  0  0  0  0  0  0  0
   46.0270   33.4920   43.7230 C   0  0  0  0  0  0  0  0  0  0  0  0
   44.9350   34.2790   43.8380 N   0  0  0  0  0  0  0  0  0  0  0  0
   46.8910   33.9940   40.1810 N   0  0  0  0  0  0  0  0  0  0  0  0
   46.3580   33.2780   39.1430 C   0  0  0  0  0  0  0  0  0  0  0  0
   47.2610   33.4380   38.0970 C   0  0  0  0  0  0  0  0  0  0  0  0
   48.2890   34.2190   38.5030 N   0  0  0  0  0  0  0  0  0  0  0  0
   48.0380   34.5510   39.7960 C   0  0  0  0  0  0  0  0  0  0  0  0
   48.8260   35.3580   40.6610 N   0  0  0  0  0  0  0  0  0  0  0  0
   47.3600   31.4560   47.1760 C   0  0  0  0  0  0  0  0  0  0  0  0
   46.7690   32.6880   47.2900 C   0  0  0  0  0  0  0  0  0  0  0  0
   46.3430   33.3300   46.1460 C   0  0  0  0  0  0  0  0  0  0  0  0
   46.5030   32.7530   44.8870 C   0  0  0  0  0  0  0  0  0  0  0  0
   47.0980   31.5160   44.7820 C   0  0  0  0  0  0  0  0  0  0  0  0
   47.5240   30.8810   45.9550 C   0  0  0  0  0  0  0  0  0  0  0  0
   47.9140   30.6160   48.6280 S   0  0  0  0  0  0  0  0  0  0  0  0
   48.6480   29.3810   48.2060 O   0  0  0  0  0  0  0  0  0  0  0  0
   48.9160   31.4830   49.3570 O   0  0  0  0  0  0  0  0  0  0  0  0
   43.5895   35.6025   42.8973 H   0  0  0  0  0  0  0  0  0  0  0  0
   44.7457   35.4579   40.6616 H   0  0  0  0  0  0  0  0  0  0  0  0
   45.4208   32.7022   39.1373 H   0  0  0  0  0  0  0  0  0  0  0  0
   47.1557   32.9976   37.0945 H   0  0  0  0  0  0  0  0  0  0  0  0
   48.5161   35.5314   41.6278 H   0  0  0  0  0  0  0  0  0  0  0  0
   49.7070   35.7693   40.3210 H   0  0  0  0  0  0  0  0  0  0  0  0
   46.6369   33.1562   48.2766 H   0  0  0  0  0  0  0  0  0  0  0  0
   45.8669   34.3182   46.2288 H   0  0  0  0  0  0  0  0  0  0  0  0
   47.2354   31.0382   43.8008 H   0  0  0  0  0  0  0  0  0  0  0  0
   48.0029   29.8931   45.8869 H   0  0  0  0  0  0  0  0  0  0  0  0
   46.8377   30.3287   49.4254 H   0  0  0  0  0  0  0  0  0  0  0  0
  1  6  2  0
  2  1  1  0
  3  2  2  0
  3  4  1  0
  4  5  2  0
  5  6  1  0
  5 16  1  0
  7  3  1  0
  8  7  1  0
  9 10  1  0
  9  8  2  0
 10 11  2  0
 11  7  1  0
 11 12  1  0
 13 14  2  0
 13 19  1  0
 15 14  1  0
 16 15  2  0
 17 16  1  0
 17 18  2  0
 18 13  1  0
 19 21  2  0
 20 19  2  0
  1 22  1  0
  2 23  1  0
  8 24  1  0
  9 25  1  0
 12 26  1  0
 12 27  1  0
 14 28  1  0
 15 29  1  0
 17 30  1  0
 18 31  1  0
 19 32  1  0
M  ISO  8  22  14  23  14  24  14  25  14  28  14  29  14  30  14  31  14
M  ISO  1  32  11
M  END
>  <minimizedAffinity>  (1) 
-5.28106976

>  <minimizedRMSD>  (1) 
2.30312586

$$$$
