
     RDKit          3D

 20 21  0  0  0  0  0  0  0  0999 V2000
   46.9250   34.4650   42.1830 N   0  0  0  0  0  0  0  0  0  0  0  0
   46.3370   34.3090   40.9570 C   0  0  0  0  0  0  0  0  0  0  0  0
   47.4210   34.0830   40.0920 C   0  0  0  0  0  0  0  0  0  0  0  0
   48.5770   34.1080   40.7880 N   0  0  0  0  0  0  0  0  0  0  0  0
   48.2550   34.3470   42.0870 C   0  0  0  0  0  0  0  0  0  0  0  0
   49.1220   34.4660   43.2130 N   0  0  0  0  0  0  0  0  0  0  0  0
   44.4940   36.0350   44.4580 C   0  0  0  0  0  0  0  0  0  0  0  0
   45.2660   35.7830   43.3030 C   0  0  0  0  0  0  0  0  0  0  0  0
   46.1570   34.7130   43.3370 C   0  0  0  0  0  0  0  0  0  0  0  0
   46.2110   33.9980   44.4780 N   0  0  0  0  0  0  0  0  0  0  0  0
   45.4720   34.2470   45.5670 C   0  0  0  0  0  0  0  0  0  0  0  0
   44.6080   35.2830   45.5390 N   0  0  0  0  0  0  0  0  0  0  0  0
   45.6120   33.4380   46.6960 O   0  0  0  0  0  0  0  0  0  0  0  0
   45.2665   34.3508   40.7073 H   0  0  0  0  0  0  0  0  0  0  0  0
   47.3395   33.9112   39.0086 H   0  0  0  0  0  0  0  0  0  0  0  0
   48.7301   34.6503   44.1475 H   0  0  0  0  0  0  0  0  0  0  0  0
   50.1401   34.3677   43.0917 H   0  0  0  0  0  0  0  0  0  0  0  0
   43.7831   36.8744   44.4582 H   0  0  0  0  0  0  0  0  0  0  0  0
   45.1670   36.4113   42.4055 H   0  0  0  0  0  0  0  0  0  0  0  0
   45.0685   33.6172   47.5038 H   0  0  0  0  0  0  0  0  0  0  0  0
  1  9  1  0
  2  1  1  0
  3  4  1  0
  3  2  2  0
  4  5  2  0
  5  1  1  0
  5  6  1  0
  7 12  2  0
  8  9  2  0
  8  7  1  0
  9 10  1  0
 10 11  2  0
 11 13  1  0
 12 11  1  0
  2 14  1  0
  3 15  1  0
  6 16  1  0
  6 17  1  0
  7 18  1  0
  8 19  1  0
 13 20  1  0
M  ISO  5  14  14  15  14  18  14  19  14  20   3
M  END
>  <minimizedAffinity>  (1) 
-4.79892302

>  <minimizedRMSD>  (1) 
0.108693995

$$$$
