
     RDKit          3D

 33 36  0  0  0  0  0  0  0  0999 V2000
   44.6300   35.5620   45.0210 C   0  0  0  0  0  0  0  0  0  0  0  0
   44.0970   35.4470   43.7330 C   0  0  0  0  0  0  0  0  0  0  0  0
   44.4190   34.3430   42.9660 C   0  0  0  0  0  0  0  0  0  0  0  0
   45.2440   33.4600   43.5600 N   0  0  0  0  0  0  0  0  0  0  0  0
   45.7580   33.5710   44.8030 C   0  0  0  0  0  0  0  0  0  0  0  0
   45.4270   34.6370   45.5020 N   0  0  0  0  0  0  0  0  0  0  0  0
   46.5690   32.4060   44.8240 C   0  0  0  0  0  0  0  0  0  0  0  0
   47.2810   31.3810   44.8460 N   0  0  0  0  0  0  0  0  0  0  0  0
   47.9580   30.3930   44.9020 C   0  0  0  0  0  0  0  0  0  0  0  0
   47.7710   30.0940   46.1860 N   0  0  0  0  0  0  0  0  0  0  0  0
   46.9590   30.9350   46.9030 C   0  0  0  0  0  0  0  0  0  0  0  0
   46.8280   30.4930   48.2410 C   0  0  0  0  0  0  0  0  0  0  0  0
   46.0200   31.2470   49.0330 C   0  0  0  0  0  0  0  0  0  0  0  0
   45.3600   32.3580   48.6140 C   0  0  0  0  0  0  0  0  0  0  0  0
   45.6040   32.6340   47.2970 C   0  0  0  0  0  0  0  0  0  0  0  0
   46.3790   32.0560   46.2330 C   0  0  0  0  0  0  0  0  0  0  0  0
   43.8670   34.2440   41.6760 N   0  0  0  0  0  0  0  0  0  0  0  0
   42.5410   34.1900   41.4500 C   0  0  0  0  0  0  0  0  0  0  0  0
   42.4150   34.0950   40.0630 C   0  0  0  0  0  0  0  0  0  0  0  0
   43.6660   34.0930   39.4960 N   0  0  0  0  0  0  0  0  0  0  0  0
   44.5550   34.1860   40.5140 C   0  0  0  0  0  0  0  0  0  0  0  0
   45.9780   34.2160   40.4250 N   0  0  0  0  0  0  0  0  0  0  0  0
   44.3783   36.4375   45.6376 H   0  0  0  0  0  0  0  0  0  0  0  0
   43.4296   36.2257   43.3352 H   0  0  0  0  0  0  0  0  0  0  0  0
   48.5531   29.8870   44.1275 H   0  0  0  0  0  0  0  0  0  0  0  0
   47.3460   29.5979   48.6158 H   0  0  0  0  0  0  0  0  0  0  0  0
   45.8925   30.9374   50.0808 H   0  0  0  0  0  0  0  0  0  0  0  0
   44.7062   32.9643   49.2582 H   0  0  0  0  0  0  0  0  0  0  0  0
   45.0663   33.5343   46.9647 H   0  0  0  0  0  0  0  0  0  0  0  0
   41.7328   34.2152   42.1958 H   0  0  0  0  0  0  0  0  0  0  0  0
   41.4651   34.0318   39.5119 H   0  0  0  0  0  0  0  0  0  0  0  0
   46.5461   34.2896   41.2810 H   0  0  0  0  0  0  0  0  0  0  0  0
   46.4377   34.1640   39.5047 H   0  0  0  0  0  0  0  0  0  0  0  0
  1  6  2  0
  2  1  1  0
  3  4  1  0
  3  2  2  0
  4  5  2  0
  5  7  1  0
  5  6  1  0
  7  8  2  0
  7 16  1  0
  8  9  1  0
  9 10  2  0
 10 11  1  0
 11 12  1  0
 12 13  2  0
 14 13  1  0
 15 14  2  0
 16 11  2  0
 16 15  1  0
 17  3  1  0
 18 17  1  0
 19 18  2  0
 20 19  1  0
 20 21  2  0
 21 17  1  0
 22 21  1  0
  1 23  1  0
  2 24  1  0
  9 25  1  0
 12 26  1  0
 13 27  1  0
 14 28  1  0
 15 29  1  0
 18 30  1  0
 19 31  1  0
 22 32  1  0
 22 33  1  0
M  ISO  8  23  14  24  14  25  14  26  14  27  14  28  14  29  14  30  14
M  ISO  1  31  14
M  END
>  <minimizedAffinity>  (1) 
-5.64444494

>  <minimizedRMSD>  (1) 
3.03338838

$$$$
