
     RDKit          3D

 21 22  0  0  0  0  0  0  0  0999 V2000
   44.5440   36.1380   44.4550 C   0  0  0  0  0  0  0  0  0  0  0  0
   45.3200   35.8770   43.3020 C   0  0  0  0  0  0  0  0  0  0  0  0
   46.1360   34.7270   43.3380 C   0  0  0  0  0  0  0  0  0  0  0  0
   46.1260   33.9580   44.4540 N   0  0  0  0  0  0  0  0  0  0  0  0
   45.3660   34.2530   45.5280 C   0  0  0  0  0  0  0  0  0  0  0  0
   44.5720   35.3510   45.5210 N   0  0  0  0  0  0  0  0  0  0  0  0
   45.5290   33.2990   46.5720 N   0  0  0  0  0  0  0  0  0  0  0  0
   46.9070   34.4720   42.1850 N   0  0  0  0  0  0  0  0  0  0  0  0
   46.3540   34.3190   40.9630 C   0  0  0  0  0  0  0  0  0  0  0  0
   47.4380   34.0860   40.1050 C   0  0  0  0  0  0  0  0  0  0  0  0
   48.5820   34.1040   40.8190 N   0  0  0  0  0  0  0  0  0  0  0  0
   48.2440   34.3440   42.1120 C   0  0  0  0  0  0  0  0  0  0  0  0
   49.1060   34.4560   43.2540 N   0  0  0  0  0  0  0  0  0  0  0  0
   43.8942   37.0255   44.4676 H   0  0  0  0  0  0  0  0  0  0  0  0
   45.2889   36.5368   42.4224 H   0  0  0  0  0  0  0  0  0  0  0  0
   45.0050   33.4045   47.4525 H   0  0  0  0  0  0  0  0  0  0  0  0
   46.1709   32.5033   46.4469 H   0  0  0  0  0  0  0  0  0  0  0  0
   45.2873   34.3667   40.6986 H   0  0  0  0  0  0  0  0  0  0  0  0
   47.3667   33.9154   39.0206 H   0  0  0  0  0  0  0  0  0  0  0  0
   48.7061   34.6422   44.1848 H   0  0  0  0  0  0  0  0  0  0  0  0
   50.1245   34.3501   43.1428 H   0  0  0  0  0  0  0  0  0  0  0  0
  1  6  2  0
  2  3  2  0
  2  1  1  0
  3  4  1  0
  4  5  2  0
  5  7  1  0
  6  5  1  0
  8  3  1  0
  9  8  1  0
 10 11  1  0
 10  9  2  0
 11 12  2  0
 12  8  1  0
 12 13  1  0
  1 14  1  0
  2 15  1  0
  7 16  1  0
  7 17  1  0
  9 18  1  0
 10 19  1  0
 13 20  1  0
 13 21  1  0
M  ISO  4  14  14  15  14  18  14  19  14
M  END
>  <minimizedAffinity>  (1) 
-4.87399673

>  <minimizedRMSD>  (1) 
0.145249158

$$$$
