
     RDKit          3D

 21 22  0  0  0  0  0  0  0  0999 V2000
   44.5750   35.7790   44.6800 C   0  0  0  0  0  0  0  0  0  0  0  0
   45.3060   35.6450   43.4750 C   0  0  0  0  0  0  0  0  0  0  0  0
   46.2130   34.5790   43.4060 C   0  0  0  0  0  0  0  0  0  0  0  0
   46.3340   33.7560   44.4800 N   0  0  0  0  0  0  0  0  0  0  0  0
   45.6200   33.9220   45.6030 C   0  0  0  0  0  0  0  0  0  0  0  0
   44.7350   34.9350   45.7100 N   0  0  0  0  0  0  0  0  0  0  0  0
   46.9440   34.4400   42.2110 N   0  0  0  0  0  0  0  0  0  0  0  0
   46.3200   34.2970   41.0010 C   0  0  0  0  0  0  0  0  0  0  0  0
   47.3640   34.1900   40.0740 C   0  0  0  0  0  0  0  0  0  0  0  0
   48.5470   34.2680   40.7220 N   0  0  0  0  0  0  0  0  0  0  0  0
   48.2690   34.4220   42.0410 C   0  0  0  0  0  0  0  0  0  0  0  0
   49.1830   34.5520   43.1400 N   0  0  0  0  0  0  0  0  0  0  0  0
   45.7710   33.0250   46.7340 C   0  0  0  0  0  0  0  0  0  0  0  0
   44.9870   33.0460   47.7180 O   0  0  0  0  0  0  0  0  0  0  0  0
   43.8519   36.6025   44.7746 H   0  0  0  0  0  0  0  0  0  0  0  0
   45.1689   36.3424   42.6354 H   0  0  0  0  0  0  0  0  0  0  0  0
   45.2386   34.2718   40.8013 H   0  0  0  0  0  0  0  0  0  0  0  0
   47.2404   34.0624   38.9884 H   0  0  0  0  0  0  0  0  0  0  0  0
   48.8232   34.6637   44.0986 H   0  0  0  0  0  0  0  0  0  0  0  0
   50.1987   34.5336   42.9700 H   0  0  0  0  0  0  0  0  0  0  0  0
   46.5997   32.3016   46.7309 H   0  0  0  0  0  0  0  0  0  0  0  0
  1  6  2  0
  2  1  1  0
  3  2  2  0
  3  4  1  0
  4  5  2  0
  5  6  1  0
  5 13  1  0
  7  3  1  0
  8  7  1  0
  9 10  1  0
  9  8  2  0
 10 11  2  0
 11  7  1  0
 11 12  1  0
 13 14  2  0
  1 15  1  0
  2 16  1  0
  8 17  1  0
  9 18  1  0
 12 19  1  0
 12 20  1  0
 13 21  1  0
M  ISO  5  15  14  16  14  17  14  18  14  21   6
M  END
>  <minimizedAffinity>  (1) 
-4.75153065

>  <minimizedRMSD>  (1) 
0.270744354

$$$$
