
     RDKit          3D

 43 47  0  0  0  0  0  0  0  0999 V2000
   44.6620   35.6780   44.9850 C   0  0  0  0  0  0  0  0  0  0  0  0
   44.0480   35.5560   43.7240 C   0  0  0  0  0  0  0  0  0  0  0  0
   44.2950   34.4240   42.9530 C   0  0  0  0  0  0  0  0  0  0  0  0
   45.1270   33.5180   43.5070 N   0  0  0  0  0  0  0  0  0  0  0  0
   45.7090   33.6350   44.7050 C   0  0  0  0  0  0  0  0  0  0  0  0
   45.4530   34.7290   45.4170 N   0  0  0  0  0  0  0  0  0  0  0  0
   46.4910   32.5040   44.7530 C   0  0  0  0  0  0  0  0  0  0  0  0
   47.2410   31.4710   44.6990 N   0  0  0  0  0  0  0  0  0  0  0  0
   47.9240   30.5010   44.7190 C   0  0  0  0  0  0  0  0  0  0  0  0
   47.7900   30.1840   45.9960 N   0  0  0  0  0  0  0  0  0  0  0  0
   46.9820   31.0030   46.7690 C   0  0  0  0  0  0  0  0  0  0  0  0
   46.8870   30.5680   48.1070 C   0  0  0  0  0  0  0  0  0  0  0  0
   46.0900   31.2940   48.9180 C   0  0  0  0  0  0  0  0  0  0  0  0
   45.4070   32.3760   48.5000 C   0  0  0  0  0  0  0  0  0  0  0  0
   45.5960   32.6900   47.1680 C   0  0  0  0  0  0  0  0  0  0  0  0
   46.3670   32.1130   46.1300 C   0  0  0  0  0  0  0  0  0  0  0  0
   43.6870   34.3270   41.6950 N   0  0  0  0  0  0  0  0  0  0  0  0
   42.3640   34.3300   41.5350 C   0  0  0  0  0  0  0  0  0  0  0  0
   42.1640   34.2190   40.1540 C   0  0  0  0  0  0  0  0  0  0  0  0
   43.3960   34.1520   39.5260 N   0  0  0  0  0  0  0  0  0  0  0  0
   44.3220   34.2220   40.4940 C   0  0  0  0  0  0  0  0  0  0  0  0
   45.7310   34.1930   40.3390 N   0  0  0  0  0  0  0  0  0  0  0  0
   40.8360   34.1810   39.5010 C   0  0  0  0  0  0  0  0  0  0  0  0
   40.7310   34.4780   38.1370 C   0  0  0  0  0  0  0  0  0  0  0  0
   39.4660   34.4290   37.5700 C   0  0  0  0  0  0  0  0  0  0  0  0
   38.3940   34.0950   38.3670 C   0  0  0  0  0  0  0  0  0  0  0  0
   38.4820   33.8020   39.7110 C   0  0  0  0  0  0  0  0  0  0  0  0
   39.7550   33.8490   40.2900 C   0  0  0  0  0  0  0  0  0  0  0  0
   44.4776   36.5677   45.6050 H   0  0  0  0  0  0  0  0  0  0  0  0
   43.3801   36.3470   43.3521 H   0  0  0  0  0  0  0  0  0  0  0  0
   48.4964   30.0124   43.9168 H   0  0  0  0  0  0  0  0  0  0  0  0
   47.4331   29.6847   48.4697 H   0  0  0  0  0  0  0  0  0  0  0  0
   45.9938   30.9874   49.9700 H   0  0  0  0  0  0  0  0  0  0  0  0
   44.7532   32.9611   49.1634 H   0  0  0  0  0  0  0  0  0  0  0  0
   45.0276   33.5750   46.8459 H   0  0  0  0  0  0  0  0  0  0  0  0
   41.5955   34.4037   42.3185 H   0  0  0  0  0  0  0  0  0  0  0  0
   46.3415   34.2549   41.1663 H   0  0  0  0  0  0  0  0  0  0  0  0
   46.1441   34.1100   39.3991 H   0  0  0  0  0  0  0  0  0  0  0  0
   41.6162   34.7398   37.5388 H   0  0  0  0  0  0  0  0  0  0  0  0
   39.3218   34.6530   36.5027 H   0  0  0  0  0  0  0  0  0  0  0  0
   37.3991   34.0596   37.8990 H   0  0  0  0  0  0  0  0  0  0  0  0
   37.5912   33.5428   40.3020 H   0  0  0  0  0  0  0  0  0  0  0  0
   39.8913   33.6245   41.3582 H   0  0  0  0  0  0  0  0  0  0  0  0
  1  6  2  0
  2  1  1  0
  3  4  1  0
  3  2  2  0
  4  5  2  0
  5  7  1  0
  5  6  1  0
  7 16  2  0
  8  9  2  0
  8  7  1  0
  9 10  1  0
 10 11  2  0
 11 12  1  0
 12 13  2  0
 14 13  1  0
 15 14  2  0
 16 11  1  0
 16 15  1  0
 17  3  1  0
 18 17  1  0
 19 18  2  0
 20 19  1  0
 20 21  2  0
 21 17  1  0
 22 21  1  0
 23 19  1  0
 23 28  1  0
 24 23  2  0
 25 24  1  0
 25 26  2  0
 26 27  1  0
 27 28  2  0
  1 29  1  0
  2 30  1  0
  9 31  1  0
 12 32  1  0
 13 33  1  0
 14 34  1  0
 15 35  1  0
 18 36  1  0
 22 37  1  0
 22 38  1  0
 24 39  1  0
 25 40  1  0
 26 41  1  0
 27 42  1  0
 28 43  1  0
M  ISO  8  29  14  30  14  31  14  32  14  33  14  34  14  35  14  36  14
M  ISO  5  39  14  40  14  41  14  42  14  43  14
M  END
>  <minimizedAffinity>  (1) 
-7.56025314

>  <minimizedRMSD>  (1) 
0.542862833

$$$$
