
     RDKit          3D

 40 44  0  0  0  0  0  0  0  0999 V2000
   44.6150   35.6020   45.0280 C   0  0  0  0  0  0  0  0  0  0  0  0
   44.0770   35.5200   43.7280 C   0  0  0  0  0  0  0  0  0  0  0  0
   44.3780   34.4160   42.9360 C   0  0  0  0  0  0  0  0  0  0  0  0
   45.1840   33.4930   43.5080 N   0  0  0  0  0  0  0  0  0  0  0  0
   45.6930   33.5770   44.7450 C   0  0  0  0  0  0  0  0  0  0  0  0
   45.3850   34.6440   45.4730 N   0  0  0  0  0  0  0  0  0  0  0  0
   46.4820   32.4550   44.8000 C   0  0  0  0  0  0  0  0  0  0  0  0
   47.2360   31.4280   44.7600 N   0  0  0  0  0  0  0  0  0  0  0  0
   47.9300   30.4570   44.7860 C   0  0  0  0  0  0  0  0  0  0  0  0
   47.8010   30.1480   46.0760 N   0  0  0  0  0  0  0  0  0  0  0  0
   46.9900   30.9740   46.8350 C   0  0  0  0  0  0  0  0  0  0  0  0
   46.9020   30.5570   48.1680 C   0  0  0  0  0  0  0  0  0  0  0  0
   46.1130   31.2830   48.9800 C   0  0  0  0  0  0  0  0  0  0  0  0
   45.4280   32.3600   48.5580 C   0  0  0  0  0  0  0  0  0  0  0  0
   45.6020   32.6650   47.2240 C   0  0  0  0  0  0  0  0  0  0  0  0
   46.3670   32.0720   46.1910 C   0  0  0  0  0  0  0  0  0  0  0  0
   43.8470   34.3570   41.6420 N   0  0  0  0  0  0  0  0  0  0  0  0
   42.5380   34.4250   41.3970 C   0  0  0  0  0  0  0  0  0  0  0  0
   42.4200   34.3310   40.0100 C   0  0  0  0  0  0  0  0  0  0  0  0
   43.6770   34.2080   39.4580 N   0  0  0  0  0  0  0  0  0  0  0  0
   44.5450   34.2260   40.4830 C   0  0  0  0  0  0  0  0  0  0  0  0
   45.9630   34.1280   40.4160 N   0  0  0  0  0  0  0  0  0  0  0  0
   41.1550   34.3600   39.2820 C   0  0  0  0  0  0  0  0  0  0  0  0
   39.9040   34.4030   39.8620 C   0  0  0  0  0  0  0  0  0  0  0  0
   38.9270   34.4220   38.9370 N   0  0  0  0  0  0  0  0  0  0  0  0
   39.5800   34.3880   37.7400 C   0  0  0  0  0  0  0  0  0  0  0  0
   40.9180   34.3520   37.9510 N   0  0  0  0  0  0  0  0  0  0  0  0
   44.3878   36.4689   45.6658 H   0  0  0  0  0  0  0  0  0  0  0  0
   43.4266   36.3195   43.3437 H   0  0  0  0  0  0  0  0  0  0  0  0
   48.5033   29.9654   43.9862 H   0  0  0  0  0  0  0  0  0  0  0  0
   47.4519   29.6775   48.5342 H   0  0  0  0  0  0  0  0  0  0  0  0
   46.0244   30.9827   50.0345 H   0  0  0  0  0  0  0  0  0  0  0  0
   44.7807   32.9506   49.2230 H   0  0  0  0  0  0  0  0  0  0  0  0
   45.0313   33.5467   46.8970 H   0  0  0  0  0  0  0  0  0  0  0  0
   41.7256   34.5322   42.1309 H   0  0  0  0  0  0  0  0  0  0  0  0
   46.5225   34.1545   41.2804 H   0  0  0  0  0  0  0  0  0  0  0  0
   46.4299   34.0306   39.5031 H   0  0  0  0  0  0  0  0  0  0  0  0
   39.7269   34.4197   40.9475 H   0  0  0  0  0  0  0  0  0  0  0  0
   39.0942   34.3896   36.7531 H   0  0  0  0  0  0  0  0  0  0  0  0
   41.6386   34.3232   37.2156 H   0  0  0  0  0  0  0  0  0  0  0  0
  1  6  2  0
  2  1  1  0
  3  4  1  0
  3  2  2  0
  4  5  2  0
  5  7  1  0
  5  6  1  0
  7 16  2  0
  8  9  2  0
  8  7  1  0
  9 10  1  0
 10 11  2  0
 11 12  1  0
 12 13  2  0
 14 13  1  0
 15 14  2  0
 16 11  1  0
 16 15  1  0
 17  3  1  0
 18 17  1  0
 19 18  2  0
 20 19  1  0
 20 21  2  0
 21 17  1  0
 22 21  1  0
 23 24  2  0
 23 19  1  0
 25 24  1  0
 26 27  1  0
 26 25  2  0
 27 23  1  0
  1 28  1  0
  2 29  1  0
  9 30  1  0
 12 31  1  0
 13 32  1  0
 14 33  1  0
 15 34  1  0
 18 35  1  0
 22 36  1  0
 22 37  1  0
 24 38  1  0
 26 39  1  0
 27 40  1  0
M  ISO  8  28  14  29  14  30  14  31  14  32  14  33  14  34  14  35  14
M  ISO  3  38  14  39  14  40   9
M  END
>  <minimizedAffinity>  (1) 
-6.87009716

>  <minimizedRMSD>  (1) 
0.264545232

$$$$
