
     RDKit          3D

 40 44  0  0  0  0  0  0  0  0999 V2000
   44.6420   35.5880   45.0960 C   0  0  0  0  0  0  0  0  0  0  0  0
   44.0780   35.4990   43.8190 C   0  0  0  0  0  0  0  0  0  0  0  0
   44.3620   34.4050   43.0310 C   0  0  0  0  0  0  0  0  0  0  0  0
   45.1880   33.4800   43.5780 N   0  0  0  0  0  0  0  0  0  0  0  0
   45.7260   33.5710   44.8000 C   0  0  0  0  0  0  0  0  0  0  0  0
   45.4300   34.6410   45.5310 N   0  0  0  0  0  0  0  0  0  0  0  0
   46.5130   32.4400   44.8400 C   0  0  0  0  0  0  0  0  0  0  0  0
   47.2640   31.4090   44.7830 N   0  0  0  0  0  0  0  0  0  0  0  0
   47.9490   30.4440   44.7910 C   0  0  0  0  0  0  0  0  0  0  0  0
   47.8330   30.1200   46.0780 N   0  0  0  0  0  0  0  0  0  0  0  0
   47.0300   30.9420   46.8540 C   0  0  0  0  0  0  0  0  0  0  0  0
   46.9490   30.5080   48.1920 C   0  0  0  0  0  0  0  0  0  0  0  0
   46.1570   31.2330   49.0090 C   0  0  0  0  0  0  0  0  0  0  0  0
   45.4650   32.3140   48.5990 C   0  0  0  0  0  0  0  0  0  0  0  0
   45.6410   32.6260   47.2670 C   0  0  0  0  0  0  0  0  0  0  0  0
   46.4040   32.0490   46.2220 C   0  0  0  0  0  0  0  0  0  0  0  0
   43.8060   34.3360   41.7390 N   0  0  0  0  0  0  0  0  0  0  0  0
   42.4840   34.3270   41.5200 C   0  0  0  0  0  0  0  0  0  0  0  0
   42.3600   34.2370   40.1420 C   0  0  0  0  0  0  0  0  0  0  0  0
   43.5890   34.1960   39.5560 N   0  0  0  0  0  0  0  0  0  0  0  0
   44.4930   34.2580   40.5630 C   0  0  0  0  0  0  0  0  0  0  0  0
   45.9190   34.2400   40.4740 N   0  0  0  0  0  0  0  0  0  0  0  0
   41.0990   34.1890   39.3490 C   0  0  0  0  0  0  0  0  0  0  0  0
   40.8360   34.7800   38.2050 C   0  0  0  0  0  0  0  0  0  0  0  0
   39.6070   34.6180   37.6180 C   0  0  0  0  0  0  0  0  0  0  0  0
   38.7010   33.8270   38.2820 C   0  0  0  0  0  0  0  0  0  0  0  0
   39.6490   33.3000   39.7950 S   0  0  0  0  0  0  0  0  0  0  0  0
   44.4218   36.4562   45.7346 H   0  0  0  0  0  0  0  0  0  0  0  0
   43.4147   36.2941   43.4478 H   0  0  0  0  0  0  0  0  0  0  0  0
   48.5123   29.9600   43.9796 H   0  0  0  0  0  0  0  0  0  0  0  0
   47.5010   29.6267   48.5507 H   0  0  0  0  0  0  0  0  0  0  0  0
   46.0720   30.9264   50.0620 H   0  0  0  0  0  0  0  0  0  0  0  0
   44.8158   32.8973   49.2686 H   0  0  0  0  0  0  0  0  0  0  0  0
   45.0679   33.5094   46.9489 H   0  0  0  0  0  0  0  0  0  0  0  0
   41.6777   34.3793   42.2664 H   0  0  0  0  0  0  0  0  0  0  0  0
   46.4892   34.2944   41.3301 H   0  0  0  0  0  0  0  0  0  0  0  0
   46.3768   34.1727   39.5538 H   0  0  0  0  0  0  0  0  0  0  0  0
   41.6006   35.4038   37.7189 H   0  0  0  0  0  0  0  0  0  0  0  0
   39.3584   35.0989   36.6604 H   0  0  0  0  0  0  0  0  0  0  0  0
   37.6717   33.5692   37.9919 H   0  0  0  0  0  0  0  0  0  0  0  0
  1  6  2  0
  2  1  1  0
  3  4  1  0
  3  2  2  0
  4  5  2  0
  5  7  1  0
  5  6  1  0
  7 16  2  0
  8  9  2  0
  8  7  1  0
  9 10  1  0
 10 11  2  0
 11 12  1  0
 12 13  2  0
 14 13  1  0
 15 14  2  0
 16 11  1  0
 16 15  1  0
 17  3  1  0
 18 17  1  0
 19 18  2  0
 20 19  1  0
 20 21  2  0
 21 17  1  0
 22 21  1  0
 23 27  1  0
 23 19  1  0
 24 23  2  0
 25 24  1  0
 25 26  2  0
 26 27  1  0
  1 28  1  0
  2 29  1  0
  9 30  1  0
 12 31  1  0
 13 32  1  0
 14 33  1  0
 15 34  1  0
 18 35  1  0
 22 36  1  0
 22 37  1  0
 24 38  1  0
 25 39  1  0
 26 40  1  0
M  ISO  8  28  14  29  14  30  14  31  14  32  14  33  14  34  14  35  14
M  ISO  3  38  14  39  14  40  14
M  END
>  <minimizedAffinity>  (1) 
-6.90291357

>  <minimizedRMSD>  (1) 
0.369881272

$$$$
