
     RDKit          3D

 47 51  0  0  0  0  0  0  0  0999 V2000
   44.6360   35.6780   45.2930 C   0  0  0  0  0  0  0  0  0  0  0  0
   44.0540   35.7360   44.0170 C   0  0  0  0  0  0  0  0  0  0  0  0
   44.2860   34.7000   43.1190 C   0  0  0  0  0  0  0  0  0  0  0  0
   45.0750   33.7020   43.5730 N   0  0  0  0  0  0  0  0  0  0  0  0
   45.6280   33.6530   44.7880 C   0  0  0  0  0  0  0  0  0  0  0  0
   45.3880   34.6590   45.6230 N   0  0  0  0  0  0  0  0  0  0  0  0
   46.3750   32.4990   44.7150 C   0  0  0  0  0  0  0  0  0  0  0  0
   47.0840   31.4490   44.5470 N   0  0  0  0  0  0  0  0  0  0  0  0
   47.7350   30.4610   44.4620 C   0  0  0  0  0  0  0  0  0  0  0  0
   47.6970   30.0840   45.7280 N   0  0  0  0  0  0  0  0  0  0  0  0
   46.9850   30.8830   46.6060 C   0  0  0  0  0  0  0  0  0  0  0  0
   46.9870   30.3830   47.9260 C   0  0  0  0  0  0  0  0  0  0  0  0
   46.2850   31.0910   48.8360 C   0  0  0  0  0  0  0  0  0  0  0  0
   45.6060   32.2130   48.5300 C   0  0  0  0  0  0  0  0  0  0  0  0
   45.6930   32.5870   47.2040 C   0  0  0  0  0  0  0  0  0  0  0  0
   46.3530   32.0420   46.0760 C   0  0  0  0  0  0  0  0  0  0  0  0
   43.7090   34.7780   41.8410 N   0  0  0  0  0  0  0  0  0  0  0  0
   42.4310   35.1070   41.6440 C   0  0  0  0  0  0  0  0  0  0  0  0
   42.2580   35.0660   40.2630 C   0  0  0  0  0  0  0  0  0  0  0  0
   43.4370   34.7130   39.6650 N   0  0  0  0  0  0  0  0  0  0  0  0
   44.3330   34.5360   40.6560 C   0  0  0  0  0  0  0  0  0  0  0  0
   45.7040   34.1610   40.5370 N   0  0  0  0  0  0  0  0  0  0  0  0
   41.0550   35.3430   39.5590 N   0  0  0  0  0  0  0  0  0  0  0  0
   39.8140   35.5840   40.2670 C   0  0  0  0  0  0  0  0  0  0  0  0
   38.8390   34.5360   39.8070 C   0  0  0  0  0  0  0  0  0  0  0  0
   39.2340   33.7930   38.6780 N   0  0  0  0  0  0  0  0  0  0  0  0
   40.0060   34.3840   37.6690 C   0  0  0  0  0  0  0  0  0  0  0  0
   41.0400   35.3920   38.1110 C   0  0  0  0  0  0  0  0  0  0  0  0
   44.4601   36.4887   46.0153 H   0  0  0  0  0  0  0  0  0  0  0  0
   43.4225   36.5901   43.7311 H   0  0  0  0  0  0  0  0  0  0  0  0
   48.2232   29.9981   43.5917 H   0  0  0  0  0  0  0  0  0  0  0  0
   47.5309   29.4665   48.1983 H   0  0  0  0  0  0  0  0  0  0  0  0
   46.2667   30.7347   49.8765 H   0  0  0  0  0  0  0  0  0  0  0  0
   45.0305   32.7834   49.2740 H   0  0  0  0  0  0  0  0  0  0  0  0
   45.1296   33.5036   46.9749 H   0  0  0  0  0  0  0  0  0  0  0  0
   41.6782   35.3563   42.4064 H   0  0  0  0  0  0  0  0  0  0  0  0
   46.2852   34.0590   41.3812 H   0  0  0  0  0  0  0  0  0  0  0  0
   46.1129   33.9922   39.6068 H   0  0  0  0  0  0  0  0  0  0  0  0
   39.9750   35.5008   41.3520 H   0  0  0  0  0  0  0  0  0  0  0  0
   39.4325   36.5949   40.0606 H   0  0  0  0  0  0  0  0  0  0  0  0
   38.6815   33.8321   40.6375 H   0  0  0  0  0  0  0  0  0  0  0  0
   37.9309   35.0797   39.5075 H   0  0  0  0  0  0  0  0  0  0  0  0
   39.7735   32.9887   39.0287 H   0  0  0  0  0  0  0  0  0  0  0  0
   39.3183   34.8928   36.9775 H   0  0  0  0  0  0  0  0  0  0  0  0
   40.5788   33.5585   37.2213 H   0  0  0  0  0  0  0  0  0  0  0  0
   42.0289   35.1256   37.7097 H   0  0  0  0  0  0  0  0  0  0  0  0
   40.7997   36.4012   37.7453 H   0  0  0  0  0  0  0  0  0  0  0  0
  1  6  2  0
  2  1  1  0
  3  4  1  0
  3  2  2  0
  4  5  2  0
  5  6  1  0
  7  5  1  0
  7 16  1  0
  8  7  2  0
  9  8  1  0
  9 10  2  0
 10 11  1  0
 11 12  1  0
 12 13  2  0
 14 13  1  0
 15 14  2  0
 16 11  2  0
 16 15  1  0
 17  3  1  0
 18 17  1  0
 19 18  2  0
 20 19  1  0
 20 21  2  0
 21 17  1  0
 22 21  1  0
 23 19  1  0
 23 24  1  0
 25 24  1  0
 26 25  1  0
 27 28  1  0
 27 26  1  0
 28 23  1  0
  1 29  1  0
  2 30  1  0
  9 31  1  0
 12 32  1  0
 13 33  1  0
 14 34  1  0
 15 35  1  0
 18 36  1  0
 22 37  1  0
 22 38  1  0
 24 39  1  0
 24 40  1  0
 25 41  1  0
 25 42  1  0
 26 43  1  0
 27 44  1  0
 27 45  1  0
 28 46  1  0
 28 47  1  0
M  ISO  8  29  14  30  14  31  14  32  14  33  14  34  14  35  14  36  14
M  ISO  8  39  13  40  13  41  13  42  13  43   5  44  13  45  13  46  13
M  ISO  1  47  13
M  END
>  <minimizedAffinity>  (1) 
-6.97734404

>  <minimizedRMSD>  (1) 
0.979497254

$$$$
