
     RDKit          3D

 41 45  0  0  0  0  0  0  0  0999 V2000
   44.6700   35.6250   45.1040 C   0  0  0  0  0  0  0  0  0  0  0  0
   44.0720   35.5420   43.8390 C   0  0  0  0  0  0  0  0  0  0  0  0
   44.3260   34.4380   43.0470 C   0  0  0  0  0  0  0  0  0  0  0  0
   45.1550   33.5070   43.5760 N   0  0  0  0  0  0  0  0  0  0  0  0
   45.7230   33.5930   44.7850 C   0  0  0  0  0  0  0  0  0  0  0  0
   45.4580   34.6670   45.5210 N   0  0  0  0  0  0  0  0  0  0  0  0
   46.5010   32.4590   44.8120 C   0  0  0  0  0  0  0  0  0  0  0  0
   47.2460   31.4250   44.7390 N   0  0  0  0  0  0  0  0  0  0  0  0
   47.9270   30.4510   44.7380 C   0  0  0  0  0  0  0  0  0  0  0  0
   47.8130   30.1190   46.0130 N   0  0  0  0  0  0  0  0  0  0  0  0
   47.0200   30.9340   46.8050 C   0  0  0  0  0  0  0  0  0  0  0  0
   46.9450   30.4910   48.1410 C   0  0  0  0  0  0  0  0  0  0  0  0
   46.1700   31.2160   48.9700 C   0  0  0  0  0  0  0  0  0  0  0  0
   45.4860   32.3090   48.5710 C   0  0  0  0  0  0  0  0  0  0  0  0
   45.6510   32.6310   47.2430 C   0  0  0  0  0  0  0  0  0  0  0  0
   46.3970   32.0540   46.1890 C   0  0  0  0  0  0  0  0  0  0  0  0
   43.7270   34.3660   41.7740 N   0  0  0  0  0  0  0  0  0  0  0  0
   42.3960   34.3900   41.6010 C   0  0  0  0  0  0  0  0  0  0  0  0
   42.2190   34.2890   40.2300 C   0  0  0  0  0  0  0  0  0  0  0  0
   43.4250   34.2070   39.6040 N   0  0  0  0  0  0  0  0  0  0  0  0
   44.3730   34.2560   40.5820 C   0  0  0  0  0  0  0  0  0  0  0  0
   45.7860   34.2030   40.4420 N   0  0  0  0  0  0  0  0  0  0  0  0
   40.9490   34.2650   39.4850 C   0  0  0  0  0  0  0  0  0  0  0  0
   39.7800   33.9310   40.1430 C   0  0  0  0  0  0  0  0  0  0  0  0
   38.5660   33.8980   39.4740 C   0  0  0  0  0  0  0  0  0  0  0  0
   38.5840   34.2020   38.1800 N   0  0  0  0  0  0  0  0  0  0  0  0
   39.6900   34.5300   37.5060 C   0  0  0  0  0  0  0  0  0  0  0  0
   40.8800   34.5640   38.1540 N   0  0  0  0  0  0  0  0  0  0  0  0
   44.4767   36.4964   45.7469 H   0  0  0  0  0  0  0  0  0  0  0  0
   43.4098   36.3443   43.4815 H   0  0  0  0  0  0  0  0  0  0  0  0
   48.4850   29.9698   43.9212 H   0  0  0  0  0  0  0  0  0  0  0  0
   47.4903   29.6008   48.4878 H   0  0  0  0  0  0  0  0  0  0  0  0
   46.0907   30.9028   50.0215 H   0  0  0  0  0  0  0  0  0  0  0  0
   44.8493   32.8941   49.2509 H   0  0  0  0  0  0  0  0  0  0  0  0
   45.0845   33.5232   46.9378 H   0  0  0  0  0  0  0  0  0  0  0  0
   41.6187   34.4717   42.3751 H   0  0  0  0  0  0  0  0  0  0  0  0
   46.3883   34.2509   41.2762 H   0  0  0  0  0  0  0  0  0  0  0  0
   46.2079   34.1167   39.5064 H   0  0  0  0  0  0  0  0  0  0  0  0
   39.8135   33.6874   41.2152 H   0  0  0  0  0  0  0  0  0  0  0  0
   37.6315   33.6326   39.9900 H   0  0  0  0  0  0  0  0  0  0  0  0
   39.6353   34.7705   36.4340 H   0  0  0  0  0  0  0  0  0  0  0  0
  1  6  2  0
  2  1  1  0
  3  4  1  0
  3  2  2  0
  4  5  2  0
  5  7  1  0
  5  6  1  0
  7 16  1  0
  8  7  2  0
  9  8  1  0
  9 10  2  0
 10 11  1  0
 11 12  1  0
 12 13  2  0
 14 13  1  0
 15 14  2  0
 16 11  2  0
 16 15  1  0
 17  3  1  0
 18 17  1  0
 19 18  2  0
 20 19  1  0
 20 21  2  0
 21 17  1  0
 22 21  1  0
 23 24  2  0
 23 19  1  0
 25 24  1  0
 26 25  2  0
 27 28  2  0
 27 26  1  0
 28 23  1  0
  1 29  1  0
  2 30  1  0
  9 31  1  0
 12 32  1  0
 13 33  1  0
 14 34  1  0
 15 35  1  0
 18 36  1  0
 22 37  1  0
 22 38  1  0
 24 39  1  0
 25 40  1  0
 27 41  1  0
M  ISO  8  29  14  30  14  31  14  32  14  33  14  34  14  35  14  36  14
M  ISO  3  39  14  40  14  41  14
M  END
>  <minimizedAffinity>  (1) 
-6.93108511

>  <minimizedRMSD>  (1) 
0.271434784

$$$$
