
     RDKit          3D

 41 45  0  0  0  0  0  0  0  0999 V2000
   44.6520   35.6320   45.0950 C   0  0  0  0  0  0  0  0  0  0  0  0
   44.0570   35.5490   43.8270 C   0  0  0  0  0  0  0  0  0  0  0  0
   44.3130   34.4420   43.0320 C   0  0  0  0  0  0  0  0  0  0  0  0
   45.1390   33.5140   43.5660 N   0  0  0  0  0  0  0  0  0  0  0  0
   45.7040   33.5960   44.7720 C   0  0  0  0  0  0  0  0  0  0  0  0
   45.4390   34.6680   45.5110 N   0  0  0  0  0  0  0  0  0  0  0  0
   46.4830   32.4630   44.8030 C   0  0  0  0  0  0  0  0  0  0  0  0
   47.2280   31.4300   44.7300 N   0  0  0  0  0  0  0  0  0  0  0  0
   47.9110   30.4570   44.7300 C   0  0  0  0  0  0  0  0  0  0  0  0
   47.8040   30.1300   46.0060 N   0  0  0  0  0  0  0  0  0  0  0  0
   47.0130   30.9470   46.7970 C   0  0  0  0  0  0  0  0  0  0  0  0
   46.9420   30.5040   48.1370 C   0  0  0  0  0  0  0  0  0  0  0  0
   46.1650   31.2280   48.9650 C   0  0  0  0  0  0  0  0  0  0  0  0
   45.4800   32.3180   48.5620 C   0  0  0  0  0  0  0  0  0  0  0  0
   45.6400   32.6390   47.2340 C   0  0  0  0  0  0  0  0  0  0  0  0
   46.3860   32.0650   46.1780 C   0  0  0  0  0  0  0  0  0  0  0  0
   43.7230   34.3740   41.7550 N   0  0  0  0  0  0  0  0  0  0  0  0
   42.4030   34.4100   41.5710 C   0  0  0  0  0  0  0  0  0  0  0  0
   42.2170   34.3150   40.2020 C   0  0  0  0  0  0  0  0  0  0  0  0
   43.4450   34.2220   39.5820 N   0  0  0  0  0  0  0  0  0  0  0  0
   44.3600   34.2610   40.5670 C   0  0  0  0  0  0  0  0  0  0  0  0
   45.7610   34.1910   40.4290 N   0  0  0  0  0  0  0  0  0  0  0  0
   40.9750   34.3040   39.4500 C   0  0  0  0  0  0  0  0  0  0  0  0
   40.8960   34.6000   38.1100 C   0  0  0  0  0  0  0  0  0  0  0  0
   39.6270   34.5290   37.6020 C   0  0  0  0  0  0  0  0  0  0  0  0
   38.5410   34.2010   38.3340 N   0  0  0  0  0  0  0  0  0  0  0  0
   38.6660   33.9190   39.6430 C   0  0  0  0  0  0  0  0  0  0  0  0
   39.8970   33.9770   40.1830 N   0  0  0  0  0  0  0  0  0  0  0  0
   44.4592   36.5029   45.7387 H   0  0  0  0  0  0  0  0  0  0  0  0
   43.3960   36.3517   43.4682 H   0  0  0  0  0  0  0  0  0  0  0  0
   48.4660   29.9735   43.9125 H   0  0  0  0  0  0  0  0  0  0  0  0
   47.4912   29.6166   48.4846 H   0  0  0  0  0  0  0  0  0  0  0  0
   46.0853   30.9166   50.0170 H   0  0  0  0  0  0  0  0  0  0  0  0
   44.8437   32.9039   49.2417 H   0  0  0  0  0  0  0  0  0  0  0  0
   45.0682   33.5280   46.9295 H   0  0  0  0  0  0  0  0  0  0  0  0
   41.6253   34.4969   42.3440 H   0  0  0  0  0  0  0  0  0  0  0  0
   46.3633   34.2313   41.2635 H   0  0  0  0  0  0  0  0  0  0  0  0
   46.1824   34.0995   39.4936 H   0  0  0  0  0  0  0  0  0  0  0  0
   41.7721   34.8692   37.5018 H   0  0  0  0  0  0  0  0  0  0  0  0
   39.4835   34.7523   36.5345 H   0  0  0  0  0  0  0  0  0  0  0  0
   37.7906   33.6498   40.2522 H   0  0  0  0  0  0  0  0  0  0  0  0
  1  6  2  0
  2  1  1  0
  3  4  1  0
  3  2  2  0
  4  5  2  0
  5  7  1  0
  5  6  1  0
  7 16  1  0
  8  7  2  0
  9  8  1  0
  9 10  2  0
 10 11  1  0
 11 12  1  0
 12 13  2  0
 14 13  1  0
 15 14  2  0
 16 11  2  0
 16 15  1  0
 17  3  1  0
 18 17  1  0
 19 18  2  0
 20 19  1  0
 20 21  2  0
 21 17  1  0
 22 21  1  0
 23 28  1  0
 23 19  1  0
 24 23  2  0
 25 24  1  0
 25 26  2  0
 26 27  1  0
 27 28  2  0
  1 29  1  0
  2 30  1  0
  9 31  1  0
 12 32  1  0
 13 33  1  0
 14 34  1  0
 15 35  1  0
 18 36  1  0
 22 37  1  0
 22 38  1  0
 24 39  1  0
 25 40  1  0
 27 41  1  0
M  ISO  8  29  14  30  14  31  14  32  14  33  14  34  14  35  14  36  14
M  ISO  3  39  14  40  14  41  14
M  END
>  <minimizedAffinity>  (1) 
-6.98602247

>  <minimizedRMSD>  (1) 
0.530468345

$$$$
