
     RDKit          3D

 40 44  0  0  0  0  0  0  0  0999 V2000
   44.6400   35.6410   44.9440 C   0  0  0  0  0  0  0  0  0  0  0  0
   44.0550   35.5160   43.6720 C   0  0  0  0  0  0  0  0  0  0  0  0
   44.3240   34.3820   42.9080 C   0  0  0  0  0  0  0  0  0  0  0  0
   45.1480   33.4770   43.4800 N   0  0  0  0  0  0  0  0  0  0  0  0
   45.7020   33.6040   44.6930 C   0  0  0  0  0  0  0  0  0  0  0  0
   45.4250   34.6960   45.3930 N   0  0  0  0  0  0  0  0  0  0  0  0
   46.4900   32.4820   44.7590 C   0  0  0  0  0  0  0  0  0  0  0  0
   47.2450   31.4550   44.7260 N   0  0  0  0  0  0  0  0  0  0  0  0
   47.9390   30.4860   44.7620 C   0  0  0  0  0  0  0  0  0  0  0  0
   47.8000   30.1760   46.0420 N   0  0  0  0  0  0  0  0  0  0  0  0
   46.9810   31.0030   46.7910 C   0  0  0  0  0  0  0  0  0  0  0  0
   46.8800   30.5840   48.1350 C   0  0  0  0  0  0  0  0  0  0  0  0
   46.0780   31.3150   48.9310 C   0  0  0  0  0  0  0  0  0  0  0  0
   45.3950   32.3910   48.5010 C   0  0  0  0  0  0  0  0  0  0  0  0
   45.5840   32.6940   47.1700 C   0  0  0  0  0  0  0  0  0  0  0  0
   46.3600   32.1010   46.1470 C   0  0  0  0  0  0  0  0  0  0  0  0
   43.7490   34.2820   41.6330 N   0  0  0  0  0  0  0  0  0  0  0  0
   42.4310   34.2740   41.4360 C   0  0  0  0  0  0  0  0  0  0  0  0
   42.2770   34.1610   40.0520 C   0  0  0  0  0  0  0  0  0  0  0  0
   43.5130   34.1040   39.4570 N   0  0  0  0  0  0  0  0  0  0  0  0
   44.4180   34.1810   40.4520 C   0  0  0  0  0  0  0  0  0  0  0  0
   45.8380   34.1590   40.3360 N   0  0  0  0  0  0  0  0  0  0  0  0
   40.9760   34.1070   39.3130 C   0  0  0  0  0  0  0  0  0  0  0  0
   40.6720   35.2190   38.3710 C   0  0  0  0  0  0  0  0  0  0  0  0
   39.9120   35.0780   39.6450 C   0  0  0  0  0  0  0  0  0  0  0  0
   44.4384   36.5301   45.5595 H   0  0  0  0  0  0  0  0  0  0  0  0
   43.3927   36.3040   43.2842 H   0  0  0  0  0  0  0  0  0  0  0  0
   48.5214   29.9955   43.9682 H   0  0  0  0  0  0  0  0  0  0  0  0
   47.4273   29.7072   48.5115 H   0  0  0  0  0  0  0  0  0  0  0  0
   45.9760   31.0179   49.9852 H   0  0  0  0  0  0  0  0  0  0  0  0
   44.7391   32.9809   49.1581 H   0  0  0  0  0  0  0  0  0  0  0  0
   45.0167   33.5751   46.8356 H   0  0  0  0  0  0  0  0  0  0  0  0
   41.6386   34.3415   42.1960 H   0  0  0  0  0  0  0  0  0  0  0  0
   46.4248   34.2258   41.1799 H   0  0  0  0  0  0  0  0  0  0  0  0
   46.2777   34.0762   39.4083 H   0  0  0  0  0  0  0  0  0  0  0  0
   41.0179   33.0097   39.2479 H   0  0  0  0  0  0  0  0  0  0  0  0
   41.3871   36.0452   38.2441 H   0  0  0  0  0  0  0  0  0  0  0  0
   40.4049   35.2892   37.3062 H   0  0  0  0  0  0  0  0  0  0  0  0
   38.8574   34.7660   39.6240 H   0  0  0  0  0  0  0  0  0  0  0  0
   39.7010   35.7366   40.5004 H   0  0  0  0  0  0  0  0  0  0  0  0
  1  6  2  0
  2  1  1  0
  3  4  1  0
  3  2  2  0
  4  5  2  0
  5  7  1  0
  5  6  1  0
  7 16  1  0
  8  7  2  0
  8  9  1  0
  9 10  2  0
 10 11  1  0
 11 12  1  0
 12 13  2  0
 14 13  1  0
 15 14  2  0
 16 11  2  0
 16 15  1  0
 17  3  1  0
 18 17  1  0
 19 18  2  0
 20 19  1  0
 20 21  2  0
 21 17  1  0
 22 21  1  0
 23 25  1  0
 23 19  1  0
 24 23  1  0
 24 25  1  0
  1 26  1  0
  2 27  1  0
  9 28  1  0
 12 29  1  0
 13 30  1  0
 14 31  1  0
 15 32  1  0
 18 33  1  0
 22 34  1  0
 22 35  1  0
 23 36  1  0
 24 37  1  0
 24 38  1  0
 25 39  1  0
 25 40  1  0
M  ISO  8  26  14  27  14  28  14  29  14  30  14  31  14  32  14  33  14
M  ISO  5  36  13  37  13  38  13  39  13  40  13
M  END
>  <minimizedAffinity>  (1) 
-6.46915865

>  <minimizedRMSD>  (1) 
0.139321372

$$$$
