
     RDKit          3D

 40 44  0  0  0  0  0  0  0  0999 V2000
   44.6330   35.6300   45.0690 C   0  0  0  0  0  0  0  0  0  0  0  0
   44.0520   35.5470   43.7870 C   0  0  0  0  0  0  0  0  0  0  0  0
   44.3240   34.4400   42.9890 C   0  0  0  0  0  0  0  0  0  0  0  0
   45.1460   33.5180   43.5360 N   0  0  0  0  0  0  0  0  0  0  0  0
   45.6950   33.6020   44.7520 C   0  0  0  0  0  0  0  0  0  0  0  0
   45.4170   34.6700   45.4900 N   0  0  0  0  0  0  0  0  0  0  0  0
   46.4760   32.4700   44.7880 C   0  0  0  0  0  0  0  0  0  0  0  0
   47.2230   31.4380   44.7220 N   0  0  0  0  0  0  0  0  0  0  0  0
   47.9070   30.4680   44.7270 C   0  0  0  0  0  0  0  0  0  0  0  0
   47.7970   30.1420   46.0080 N   0  0  0  0  0  0  0  0  0  0  0  0
   47.0010   30.9630   46.7920 C   0  0  0  0  0  0  0  0  0  0  0  0
   46.9290   30.5250   48.1310 C   0  0  0  0  0  0  0  0  0  0  0  0
   46.1480   31.2500   48.9540 C   0  0  0  0  0  0  0  0  0  0  0  0
   45.4610   32.3370   48.5470 C   0  0  0  0  0  0  0  0  0  0  0  0
   45.6240   32.6540   47.2170 C   0  0  0  0  0  0  0  0  0  0  0  0
   46.3740   32.0770   46.1680 C   0  0  0  0  0  0  0  0  0  0  0  0
   43.7520   34.3800   41.7110 N   0  0  0  0  0  0  0  0  0  0  0  0
   42.4340   34.4420   41.5110 C   0  0  0  0  0  0  0  0  0  0  0  0
   42.2760   34.3490   40.1250 C   0  0  0  0  0  0  0  0  0  0  0  0
   43.5160   34.2340   39.5320 N   0  0  0  0  0  0  0  0  0  0  0  0
   44.4140   34.2560   40.5320 C   0  0  0  0  0  0  0  0  0  0  0  0
   45.8320   34.1670   40.4180 N   0  0  0  0  0  0  0  0  0  0  0  0
   40.9920   34.3750   39.4680 N   0  0  0  0  0  0  0  0  0  0  0  0
   39.8540   34.3690   40.2070 C   0  0  0  0  0  0  0  0  0  0  0  0
   38.8610   34.3980   39.2500 C   0  0  0  0  0  0  0  0  0  0  0  0
   39.3690   34.4200   38.0180 N   0  0  0  0  0  0  0  0  0  0  0  0
   40.7170   34.4060   38.1520 C   0  0  0  0  0  0  0  0  0  0  0  0
   44.4283   36.4981   45.7129 H   0  0  0  0  0  0  0  0  0  0  0  0
   43.3918   36.3476   43.4221 H   0  0  0  0  0  0  0  0  0  0  0  0
   48.4655   29.9838   43.9123 H   0  0  0  0  0  0  0  0  0  0  0  0
   47.4801   29.6405   48.4831 H   0  0  0  0  0  0  0  0  0  0  0  0
   46.0665   30.9416   50.0067 H   0  0  0  0  0  0  0  0  0  0  0  0
   44.8217   32.9233   49.2234 H   0  0  0  0  0  0  0  0  0  0  0  0
   45.0514   33.5405   46.9069 H   0  0  0  0  0  0  0  0  0  0  0  0
   41.6447   34.5440   42.2704 H   0  0  0  0  0  0  0  0  0  0  0  0
   46.4194   34.1954   41.2636 H   0  0  0  0  0  0  0  0  0  0  0  0
   46.2693   34.0743   39.4900 H   0  0  0  0  0  0  0  0  0  0  0  0
   39.7490   34.3465   41.3017 H   0  0  0  0  0  0  0  0  0  0  0  0
   37.7844   34.4024   39.4755 H   0  0  0  0  0  0  0  0  0  0  0  0
   41.4522   34.4178   37.3339 H   0  0  0  0  0  0  0  0  0  0  0  0
  1  6  2  0
  2  1  1  0
  3  4  1  0
  3  2  2  0
  4  5  2  0
  5  7  1  0
  5  6  1  0
  7 16  2  0
  8  9  2  0
  8  7  1  0
  9 10  1  0
 10 11  2  0
 11 12  1  0
 12 13  2  0
 14 13  1  0
 15 14  2  0
 16 11  1  0
 16 15  1  0
 17  3  1  0
 18 17  1  0
 19 18  2  0
 20 19  1  0
 20 21  2  0
 21 17  1  0
 22 21  1  0
 23 19  1  0
 23 24  1  0
 25 24  2  0
 26 27  2  0
 26 25  1  0
 27 23  1  0
  1 28  1  0
  2 29  1  0
  9 30  1  0
 12 31  1  0
 13 32  1  0
 14 33  1  0
 15 34  1  0
 18 35  1  0
 22 36  1  0
 22 37  1  0
 24 38  1  0
 25 39  1  0
 27 40  1  0
M  ISO  8  28  14  29  14  30  14  31  14  32  14  33  14  34  14  35  14
M  ISO  3  38  14  39  14  40  14
M  END
>  <minimizedAffinity>  (1) 
-6.71652317

>  <minimizedRMSD>  (1) 
0.238146991

$$$$
