
     RDKit          3D

 39 43  0  0  0  0  0  0  0  0999 V2000
   44.6310   35.6380   45.0600 C   0  0  0  0  0  0  0  0  0  0  0  0
   44.0440   35.5550   43.7840 C   0  0  0  0  0  0  0  0  0  0  0  0
   44.3060   34.4430   42.9870 C   0  0  0  0  0  0  0  0  0  0  0  0
   45.1250   33.5160   43.5310 N   0  0  0  0  0  0  0  0  0  0  0  0
   45.6800   33.6050   44.7490 C   0  0  0  0  0  0  0  0  0  0  0  0
   45.4110   34.6780   45.4820 N   0  0  0  0  0  0  0  0  0  0  0  0
   46.4660   32.4780   44.7800 C   0  0  0  0  0  0  0  0  0  0  0  0
   47.2130   31.4490   44.7170 N   0  0  0  0  0  0  0  0  0  0  0  0
   47.9050   30.4700   44.7270 C   0  0  0  0  0  0  0  0  0  0  0  0
   47.7880   30.1480   45.9970 N   0  0  0  0  0  0  0  0  0  0  0  0
   46.9900   30.9650   46.7820 C   0  0  0  0  0  0  0  0  0  0  0  0
   46.9200   30.5290   48.1190 C   0  0  0  0  0  0  0  0  0  0  0  0
   46.1470   31.2550   48.9460 C   0  0  0  0  0  0  0  0  0  0  0  0
   45.4620   32.3440   48.5480 C   0  0  0  0  0  0  0  0  0  0  0  0
   45.6180   32.6630   47.2170 C   0  0  0  0  0  0  0  0  0  0  0  0
   46.3630   32.0760   46.1660 C   0  0  0  0  0  0  0  0  0  0  0  0
   43.7330   34.3840   41.7100 N   0  0  0  0  0  0  0  0  0  0  0  0
   42.4170   34.4480   41.5110 C   0  0  0  0  0  0  0  0  0  0  0  0
   42.2530   34.3570   40.1250 C   0  0  0  0  0  0  0  0  0  0  0  0
   43.4960   34.2410   39.5340 N   0  0  0  0  0  0  0  0  0  0  0  0
   44.3960   34.2610   40.5280 C   0  0  0  0  0  0  0  0  0  0  0  0
   45.8110   34.1660   40.4150 N   0  0  0  0  0  0  0  0  0  0  0  0
   41.0310   34.3770   39.3940 N   0  0  0  0  0  0  0  0  0  0  0  0
   39.7790   34.3910   39.8880 C   0  0  0  0  0  0  0  0  0  0  0  0
   38.8650   34.4080   38.8990 N   0  0  0  0  0  0  0  0  0  0  0  0
   39.5770   34.4040   37.7560 C   0  0  0  0  0  0  0  0  0  0  0  0
   40.9020   34.3850   38.0850 N   0  0  0  0  0  0  0  0  0  0  0  0
   44.4337   36.5096   45.7014 H   0  0  0  0  0  0  0  0  0  0  0  0
   43.3863   36.3583   43.4203 H   0  0  0  0  0  0  0  0  0  0  0  0
   48.4692   29.9857   43.9163 H   0  0  0  0  0  0  0  0  0  0  0  0
   47.4684   29.6418   48.4685 H   0  0  0  0  0  0  0  0  0  0  0  0
   46.0705   30.9443   49.9984 H   0  0  0  0  0  0  0  0  0  0  0  0
   44.8294   32.9310   49.2302 H   0  0  0  0  0  0  0  0  0  0  0  0
   45.0493   33.5528   46.9088 H   0  0  0  0  0  0  0  0  0  0  0  0
   41.6297   34.5503   42.2723 H   0  0  0  0  0  0  0  0  0  0  0  0
   46.3982   34.1939   41.2608 H   0  0  0  0  0  0  0  0  0  0  0  0
   46.2482   34.0693   39.4874 H   0  0  0  0  0  0  0  0  0  0  0  0
   39.5341   34.3888   40.9604 H   0  0  0  0  0  0  0  0  0  0  0  0
   39.1638   34.4142   36.7366 H   0  0  0  0  0  0  0  0  0  0  0  0
  1  6  2  0
  2  1  1  0
  3  4  1  0
  3  2  2  0
  4  5  2  0
  5  7  1  0
  5  6  1  0
  7 16  2  0
  8  9  2  0
  8  7  1  0
  9 10  1  0
 10 11  2  0
 11 12  1  0
 12 13  2  0
 14 13  1  0
 15 14  2  0
 16 11  1  0
 16 15  1  0
 17  3  1  0
 18 17  1  0
 19 18  2  0
 20 19  1  0
 20 21  2  0
 21 17  1  0
 22 21  1  0
 23 24  1  0
 23 19  1  0
 25 24  2  0
 26 27  2  0
 26 25  1  0
 27 23  1  0
  1 28  1  0
  2 29  1  0
  9 30  1  0
 12 31  1  0
 13 32  1  0
 14 33  1  0
 15 34  1  0
 18 35  1  0
 22 36  1  0
 22 37  1  0
 24 38  1  0
 26 39  1  0
M  ISO  8  28  14  29  14  30  14  31  14  32  14  33  14  34  14  35  14
M  ISO  2  38  14  39  14
M  END
>  <minimizedAffinity>  (1) 
-6.70441294

>  <minimizedRMSD>  (1) 
0.408225179

$$$$
