
     RDKit          3D

 45 48  0  0  1  0  0  0  0  0999 V2000
   45.9480   31.0350   47.2390 C   0  0  2  0  0  0  0  0  0  0  0  0
   44.7120   34.9040   45.9640 C   0  0  0  0  0  0  0  0  0  0  0  0
   44.5510   35.5630   44.7500 C   0  0  0  0  0  0  0  0  0  0  0  0
   45.1460   35.0020   43.6050 C   0  0  0  0  0  0  0  0  0  0  0  0
   45.8420   33.8530   43.7360 N   0  0  0  0  0  0  0  0  0  0  0  0
   45.9910   33.2180   44.9380 C   0  0  0  0  0  0  0  0  0  0  0  0
   45.4210   33.7580   46.0270 N   0  0  0  0  0  0  0  0  0  0  0  0
   46.7190   32.0210   45.0950 N   0  0  0  0  0  0  0  0  0  0  0  0
   47.5960   31.7270   44.0950 C   0  0  0  0  0  0  0  0  0  0  0  0
   48.1960   30.5110   44.4920 C   0  0  0  0  0  0  0  0  0  0  0  0
   47.6640   30.1310   45.6900 N   0  0  0  0  0  0  0  0  0  0  0  0
   46.7680   31.0660   46.0350 C   0  0  0  0  0  0  0  0  0  0  0  0
   46.7360   31.8380   48.3180 C   0  0  0  0  0  0  0  0  0  0  0  0
   45.8210   29.6380   47.7670 C   0  0  0  0  0  0  0  0  0  0  0  0
   44.8930   28.8410   47.0390 N   0  0  0  0  0  0  0  0  0  0  0  0
   43.9740   29.3060   46.1900 N   0  0  0  0  0  0  0  0  0  0  0  0
   43.2830   28.2460   45.7100 C   0  0  0  0  0  0  0  0  0  0  0  0
   43.7590   27.0870   46.2520 C   0  0  0  0  0  0  0  0  0  0  0  0
   44.7880   27.4850   47.0990 C   0  0  0  0  0  0  0  0  0  0  0  0
   45.5510   26.5830   47.8680 N   0  0  0  0  0  0  0  0  0  0  0  0
   46.8960   26.1100   47.9120 C   0  0  0  0  0  0  0  0  0  0  0  0
   46.6600   24.6170   47.6630 C   0  0  0  0  0  0  0  0  0  0  0  0
   45.5790   24.3650   48.6960 C   0  0  0  0  0  0  0  0  0  0  0  0
   45.0680   25.7840   48.9850 C   0  0  0  0  0  0  0  0  0  0  0  0
   44.9484   31.4371   47.0173 H   0  0  0  0  0  0  0  0  0  0  0  0
   44.2594   35.3189   46.8767 H   0  0  0  0  0  0  0  0  0  0  0  0
   43.9742   36.4975   44.6866 H   0  0  0  0  0  0  0  0  0  0  0  0
   45.0461   35.4895   42.6240 H   0  0  0  0  0  0  0  0  0  0  0  0
   47.7932   32.3073   43.1815 H   0  0  0  0  0  0  0  0  0  0  0  0
   48.9647   29.9615   43.9288 H   0  0  0  0  0  0  0  0  0  0  0  0
   46.4186   31.5145   49.3203 H   0  0  0  0  0  0  0  0  0  0  0  0
   47.8138   31.6540   48.1976 H   0  0  0  0  0  0  0  0  0  0  0  0
   46.5317   32.9121   48.1976 H   0  0  0  0  0  0  0  0  0  0  0  0
   46.8084   29.1557   47.7183 H   0  0  0  0  0  0  0  0  0  0  0  0
   45.4457   29.7133   48.7982 H   0  0  0  0  0  0  0  0  0  0  0  0
   42.4565   28.3092   44.9869 H   0  0  0  0  0  0  0  0  0  0  0  0
   43.4061   26.0628   46.0608 H   0  0  0  0  0  0  0  0  0  0  0  0
   47.5142   26.5629   47.1229 H   0  0  0  0  0  0  0  0  0  0  0  0
   47.4402   26.3453   48.8385 H   0  0  0  0  0  0  0  0  0  0  0  0
   46.3052   24.4216   46.6403 H   0  0  0  0  0  0  0  0  0  0  0  0
   47.5517   23.9788   47.7499 H   0  0  0  0  0  0  0  0  0  0  0  0
   44.7794   23.7285   48.2892 H   0  0  0  0  0  0  0  0  0  0  0  0
   45.9383   23.8348   49.5903 H   0  0  0  0  0  0  0  0  0  0  0  0
   45.4768   26.1579   49.9353 H   0  0  0  0  0  0  0  0  0  0  0  0
   43.9729   25.8213   49.0818 H   0  0  0  0  0  0  0  0  0  0  0  0
  1 14  1  0
  1 13  1  0
  2  7  2  0
  3  2  1  0
  4  5  1  0
  4  3  2  0
  5  6  2  0
  6  8  1  0
  6  7  1  0
  8 12  1  0
  9 10  2  0
  9  8  1  0
 10 11  1  0
 11 12  2  0
 12  1  1  0
 15 19  1  0
 15 14  1  0
 16 15  1  0
 17 16  2  0
 17 18  1  0
 18 19  2  0
 19 20  1  0
 20 21  1  0
 20 24  1  0
 22 21  1  0
 22 23  1  0
 23 24  1  0
  1 25  1  6
  2 26  1  0
  3 27  1  0
  4 28  1  0
  9 29  1  0
 10 30  1  0
 13 31  1  0
 13 32  1  0
 13 33  1  0
 14 34  1  0
 14 35  1  0
 17 36  1  0
 18 37  1  0
 21 38  1  0
 21 39  1  0
 22 40  1  0
 22 41  1  0
 23 42  1  0
 23 43  1  0
 24 44  1  0
 24 45  1  0
M  ISO  8  25   8  26  14  27  14  28  14  29  14  30  14  31   8  32   8
M  ISO  8  33   8  34   8  35   8  36  14  37  14  38  13  39  13  40  13
M  ISO  5  41  13  42  13  43  13  44  13  45  13
M  END
>  <minimizedAffinity>  (1) 
-4.66820908

>  <minimizedRMSD>  (1) 
0.878940344

$$$$
