
     RDKit          3D

 35 38  0  0  0  0  0  0  0  0999 V2000
   44.6440   35.6230   44.9660 C   0  0  0  0  0  0  0  0  0  0  0  0
   44.0760   35.5070   43.6890 C   0  0  0  0  0  0  0  0  0  0  0  0
   44.3570   34.3820   42.9190 C   0  0  0  0  0  0  0  0  0  0  0  0
   45.1770   33.4750   43.4940 N   0  0  0  0  0  0  0  0  0  0  0  0
   45.7170   33.5910   44.7120 C   0  0  0  0  0  0  0  0  0  0  0  0
   45.4270   34.6780   45.4190 N   0  0  0  0  0  0  0  0  0  0  0  0
   46.5050   32.4620   44.7790 C   0  0  0  0  0  0  0  0  0  0  0  0
   47.2590   31.4310   44.7440 N   0  0  0  0  0  0  0  0  0  0  0  0
   47.9460   30.4670   44.7800 C   0  0  0  0  0  0  0  0  0  0  0  0
   47.8060   30.1640   46.0630 N   0  0  0  0  0  0  0  0  0  0  0  0
   46.9890   30.9900   46.8180 C   0  0  0  0  0  0  0  0  0  0  0  0
   46.8850   30.5700   48.1630 C   0  0  0  0  0  0  0  0  0  0  0  0
   46.0770   31.3030   48.9560 C   0  0  0  0  0  0  0  0  0  0  0  0
   45.3910   32.3760   48.5180 C   0  0  0  0  0  0  0  0  0  0  0  0
   45.5910   32.6740   47.1840 C   0  0  0  0  0  0  0  0  0  0  0  0
   46.3730   32.0890   46.1580 C   0  0  0  0  0  0  0  0  0  0  0  0
   43.7930   34.2840   41.6370 N   0  0  0  0  0  0  0  0  0  0  0  0
   42.4760   34.2830   41.4260 C   0  0  0  0  0  0  0  0  0  0  0  0
   42.3350   34.1680   40.0440 C   0  0  0  0  0  0  0  0  0  0  0  0
   43.5760   34.1040   39.4570 N   0  0  0  0  0  0  0  0  0  0  0  0
   44.4740   34.1770   40.4620 C   0  0  0  0  0  0  0  0  0  0  0  0
   45.8910   34.1530   40.3610 N   0  0  0  0  0  0  0  0  0  0  0  0
   41.0340   34.1310   39.4230 N   0  0  0  0  0  0  0  0  0  0  0  0
   44.4315   36.5068   45.5855 H   0  0  0  0  0  0  0  0  0  0  0  0
   43.4158   36.2963   43.3002 H   0  0  0  0  0  0  0  0  0  0  0  0
   48.5259   29.9719   43.9872 H   0  0  0  0  0  0  0  0  0  0  0  0
   47.4323   29.6944   48.5421 H   0  0  0  0  0  0  0  0  0  0  0  0
   45.9733   31.0104   50.0113 H   0  0  0  0  0  0  0  0  0  0  0  0
   44.7274   32.9654   49.1677 H   0  0  0  0  0  0  0  0  0  0  0  0
   45.0217   33.5527   46.8467 H   0  0  0  0  0  0  0  0  0  0  0  0
   41.6764   34.3568   42.1778 H   0  0  0  0  0  0  0  0  0  0  0  0
   46.4691   34.2168   41.2111 H   0  0  0  0  0  0  0  0  0  0  0  0
   46.3402   34.0718   39.4377 H   0  0  0  0  0  0  0  0  0  0  0  0
   40.9540   34.0456   38.3997 H   0  0  0  0  0  0  0  0  0  0  0  0
   40.1847   34.1900   40.0028 H   0  0  0  0  0  0  0  0  0  0  0  0
  1  6  2  0
  2  1  1  0
  3  4  1  0
  3  2  2  0
  4  5  2  0
  5  7  1  0
  5  6  1  0
  7 16  1  0
  8  7  2  0
  8  9  1  0
  9 10  2  0
 10 11  1  0
 11 12  1  0
 12 13  2  0
 14 13  1  0
 15 14  2  0
 16 11  2  0
 16 15  1  0
 17  3  1  0
 18 17  1  0
 19 18  2  0
 20 19  1  0
 20 21  2  0
 21 17  1  0
 22 21  1  0
 23 19  1  0
  1 24  1  0
  2 25  1  0
  9 26  1  0
 12 27  1  0
 13 28  1  0
 14 29  1  0
 15 30  1  0
 18 31  1  0
 22 32  1  0
 22 33  1  0
 23 34  1  0
 23 35  1  0
M  ISO  8  24  14  25  14  26  14  27  14  28  14  29  14  30  14  31  14
M  END
>  <minimizedAffinity>  (1) 
-5.87012577

>  <minimizedRMSD>  (1) 
0.104580648

$$$$
