
     RDKit          3D

 27 29  0  0  0  0  0  0  0  0999 V2000
   46.8670   31.9310   45.5360 C   0  0  0  0  0  0  0  0  0  0  0  0
   47.4290   30.9120   44.7780 C   0  0  0  0  0  0  0  0  0  0  0  0
   47.9040   31.4840   43.5960 C   0  0  0  0  0  0  0  0  0  0  0  0
   47.6150   32.8060   43.6840 N   0  0  0  0  0  0  0  0  0  0  0  0
   47.0090   33.0610   44.8200 N   0  0  0  0  0  0  0  0  0  0  0  0
   45.8200   32.1940   49.0570 C   0  0  0  0  0  0  0  0  0  0  0  0
   45.1450   30.9680   49.2530 C   0  0  0  0  0  0  0  0  0  0  0  0
   45.0710   30.0950   48.1770 C   0  0  0  0  0  0  0  0  0  0  0  0
   45.6410   30.4390   46.9870 N   0  0  0  0  0  0  0  0  0  0  0  0
   46.2840   31.6330   46.8380 C   0  0  0  0  0  0  0  0  0  0  0  0
   46.3720   32.4980   47.8620 N   0  0  0  0  0  0  0  0  0  0  0  0
   47.9680   33.6930   42.6310 C   0  0  0  0  0  0  0  0  0  0  0  0
   48.9560   34.6550   42.8590 C   0  0  0  0  0  0  0  0  0  0  0  0
   49.3410   35.5500   41.8630 C   0  0  0  0  0  0  0  0  0  0  0  0
   48.7180   35.4600   40.6370 C   0  0  0  0  0  0  0  0  0  0  0  0
   47.7420   34.5160   40.3970 C   0  0  0  0  0  0  0  0  0  0  0  0
   47.3640   33.6310   41.3880 C   0  0  0  0  0  0  0  0  0  0  0  0
   47.4889   29.8497   45.0573 H   0  0  0  0  0  0  0  0  0  0  0  0
   48.4083   30.9687   42.7652 H   0  0  0  0  0  0  0  0  0  0  0  0
   45.8970   32.9102   49.8884 H   0  0  0  0  0  0  0  0  0  0  0  0
   44.6943   30.7148   50.2240 H   0  0  0  0  0  0  0  0  0  0  0  0
   44.5547   29.1295   48.2835 H   0  0  0  0  0  0  0  0  0  0  0  0
   49.4398   34.7066   43.8456 H   0  0  0  0  0  0  0  0  0  0  0  0
   50.1185   36.3054   42.0495 H   0  0  0  0  0  0  0  0  0  0  0  0
   49.0050   36.1549   39.8341 H   0  0  0  0  0  0  0  0  0  0  0  0
   47.2608   34.4673   39.4090 H   0  0  0  0  0  0  0  0  0  0  0  0
   46.5855   32.8797   41.1895 H   0  0  0  0  0  0  0  0  0  0  0  0
  1 10  1  0
  2  1  1  0
  3  4  1  0
  3  2  2  0
  4  5  1  0
  5  1  2  0
  6  7  2  0
  8  7  1  0
  9  8  2  0
 10  9  1  0
 10 11  2  0
 11  6  1  0
 12 13  2  0
 12  4  1  0
 14 13  1  0
 15 14  2  0
 16 15  1  0
 16 17  2  0
 17 12  1  0
  2 18  1  0
  3 19  1  0
  6 20  1  0
  7 21  1  0
  8 22  1  0
 13 23  1  0
 14 24  1  0
 15 25  1  0
 16 26  1  0
 17 27  1  0
M  ISO  8  18  14  19  14  20  14  21  14  22  14  23  14  24  14  25  14
M  ISO  2  26  14  27  14
M  END
>  <minimizedAffinity>  (1) 
-5.30530787

>  <minimizedRMSD>  (1) 
7.35357141

$$$$
