
     RDKit          3D

 33 36  0  0  0  0  0  0  0  0999 V2000
   45.9770   33.0010   46.4790 C   0  0  0  0  0  0  0  0  0  0  0  0
   45.2080   32.9270   47.6270 C   0  0  0  0  0  0  0  0  0  0  0  0
   45.7270   31.9020   48.4140 C   0  0  0  0  0  0  0  0  0  0  0  0
   46.7790   31.3890   47.7300 N   0  0  0  0  0  0  0  0  0  0  0  0
   46.9130   32.0430   46.6000 N   0  0  0  0  0  0  0  0  0  0  0  0
   47.7130   30.3460   47.9800 C   0  0  0  0  0  0  0  0  0  0  0  0
   47.4720   29.0780   47.4400 C   0  0  0  0  0  0  0  0  0  0  0  0
   48.2570   27.9640   47.5760 C   0  0  0  0  0  0  0  0  0  0  0  0
   49.4050   28.1300   48.3290 C   0  0  0  0  0  0  0  0  0  0  0  0
   49.7100   29.3650   48.8960 C   0  0  0  0  0  0  0  0  0  0  0  0
   50.8590   29.5240   49.6470 C   0  0  0  0  0  0  0  0  0  0  0  0
   51.1570   30.7680   50.2120 C   0  0  0  0  0  0  0  0  0  0  0  0
   50.2850   31.8350   50.0080 C   0  0  0  0  0  0  0  0  0  0  0  0
   49.1520   31.6710   49.2660 C   0  0  0  0  0  0  0  0  0  0  0  0
   48.8660   30.4410   48.7120 C   0  0  0  0  0  0  0  0  0  0  0  0
   44.5140   35.8580   44.6930 C   0  0  0  0  0  0  0  0  0  0  0  0
   45.1890   35.7910   43.4450 C   0  0  0  0  0  0  0  0  0  0  0  0
   46.1260   34.7650   43.2610 C   0  0  0  0  0  0  0  0  0  0  0  0
   46.3410   33.8910   44.2740 N   0  0  0  0  0  0  0  0  0  0  0  0
   45.6700   33.9920   45.4550 C   0  0  0  0  0  0  0  0  0  0  0  0
   44.7730   34.9540   45.6650 N   0  0  0  0  0  0  0  0  0  0  0  0
   44.3442   33.5620   47.8731 H   0  0  0  0  0  0  0  0  0  0  0  0
   45.3566   31.5736   49.3963 H   0  0  0  0  0  0  0  0  0  0  0  0
   46.5551   28.9637   46.8431 H   0  0  0  0  0  0  0  0  0  0  0  0
   47.9918   27.0004   47.1164 H   0  0  0  0  0  0  0  0  0  0  0  0
   50.0840   27.2781   48.4816 H   0  0  0  0  0  0  0  0  0  0  0  0
   51.5387   28.6728   49.8003 H   0  0  0  0  0  0  0  0  0  0  0  0
   52.0698   30.9025   50.8109 H   0  0  0  0  0  0  0  0  0  0  0  0
   50.5117   32.8171   50.4485 H   0  0  0  0  0  0  0  0  0  0  0  0
   48.4680   32.5182   49.1100 H   0  0  0  0  0  0  0  0  0  0  0  0
   43.7740   36.6523   44.8705 H   0  0  0  0  0  0  0  0  0  0  0  0
   44.9829   36.5210   42.6484 H   0  0  0  0  0  0  0  0  0  0  0  0
   46.6760   34.6711   42.3130 H   0  0  0  0  0  0  0  0  0  0  0  0
  1  5  2  0
  1  2  1  0
  2  3  2  0
  4  6  1  0
  4  3  1  0
  5  4  1  0
  6 15  2  0
  7  8  2  0
  7  6  1  0
  8  9  1  0
  9 10  2  0
 10 11  1  0
 11 12  2  0
 13 12  1  0
 14 13  2  0
 15 10  1  0
 15 14  1  0
 16 21  2  0
 17 16  1  0
 18 17  2  0
 18 19  1  0
 19 20  2  0
 20 21  1  0
 20  1  1  0
  2 22  1  0
  3 23  1  0
  7 24  1  0
  8 25  1  0
  9 26  1  0
 11 27  1  0
 12 28  1  0
 13 29  1  0
 14 30  1  0
 16 31  1  0
 17 32  1  0
 18 33  1  0
M  ISO  8  22  14  23  14  24  14  25  14  26  14  27  14  28  14  29  14
M  ISO  4  30  14  31  14  32  14  33  14
M  END
>  <minimizedAffinity>  (1) 
-5.99660587

>  <minimizedRMSD>  (1) 
2.2042737

$$$$
