
     RDKit          3D

 30 32  0  0  0  0  0  0  0  0999 V2000
   46.0880   33.0940   46.5460 C   0  0  0  0  0  0  0  0  0  0  0  0
   45.2380   32.8530   47.6070 C   0  0  0  0  0  0  0  0  0  0  0  0
   45.8360   31.9410   48.4530 C   0  0  0  0  0  0  0  0  0  0  0  0
   47.0310   31.6510   47.8890 N   0  0  0  0  0  0  0  0  0  0  0  0
   47.1880   32.3300   46.7560 N   0  0  0  0  0  0  0  0  0  0  0  0
   44.4830   35.8020   44.6710 C   0  0  0  0  0  0  0  0  0  0  0  0
   45.1110   35.7220   43.4100 C   0  0  0  0  0  0  0  0  0  0  0  0
   46.0700   34.7340   43.2470 C   0  0  0  0  0  0  0  0  0  0  0  0
   46.3510   33.9110   44.2880 N   0  0  0  0  0  0  0  0  0  0  0  0
   45.7240   34.0230   45.4800 C   0  0  0  0  0  0  0  0  0  0  0  0
   44.7840   34.9640   45.6950 N   0  0  0  0  0  0  0  0  0  0  0  0
   49.8890   29.0750   49.4950 C   0  0  0  0  0  0  0  0  0  0  0  0
   49.6520   30.2710   50.1330 C   0  0  0  0  0  0  0  0  0  0  0  0
   48.6950   31.0930   49.5630 C   0  0  0  0  0  0  0  0  0  0  0  0
   48.0060   30.7430   48.4140 C   0  0  0  0  0  0  0  0  0  0  0  0
   48.2640   29.5500   47.8050 C   0  0  0  0  0  0  0  0  0  0  0  0
   49.2170   28.6880   48.3390 C   0  0  0  0  0  0  0  0  0  0  0  0
   51.0600   27.9400   50.0910 S   0  0  0  0  0  0  0  0  0  0  0  0
   50.9160   27.9100   51.6070 O   0  0  0  0  0  0  0  0  0  0  0  0
   52.4350   28.3490   49.7100 O   0  0  0  0  0  0  0  0  0  0  0  0
   44.2489   33.3115   47.7537 H   0  0  0  0  0  0  0  0  0  0  0  0
   45.4266   31.5349   49.3898 H   0  0  0  0  0  0  0  0  0  0  0  0
   43.7176   36.5758   44.8306 H   0  0  0  0  0  0  0  0  0  0  0  0
   44.8516   36.4120   42.5935 H   0  0  0  0  0  0  0  0  0  0  0  0
   46.5953   34.6192   42.2874 H   0  0  0  0  0  0  0  0  0  0  0  0
   50.1936   30.5583   51.0463 H   0  0  0  0  0  0  0  0  0  0  0  0
   48.4739   32.0592   50.0401 H   0  0  0  0  0  0  0  0  0  0  0  0
   47.7187   29.2694   46.8918 H   0  0  0  0  0  0  0  0  0  0  0  0
   49.4344   27.7227   47.8585 H   0  0  0  0  0  0  0  0  0  0  0  0
   50.8453   26.6991   49.5516 H   0  0  0  0  0  0  0  0  0  0  0  0
  1  5  2  0
  1  2  1  0
  2  3  2  0
  4 15  1  0
  4  3  1  0
  5  4  1  0
  6 11  2  0
  7  6  1  0
  8  7  2  0
  8  9  1  0
  9 10  2  0
 10 11  1  0
 10  1  1  0
 12 18  1  0
 12 13  2  0
 14 13  1  0
 15 14  2  0
 16 17  2  0
 16 15  1  0
 17 12  1  0
 18 19  2  0
 20 18  2  0
  2 21  1  0
  3 22  1  0
  6 23  1  0
  7 24  1  0
  8 25  1  0
 13 26  1  0
 14 27  1  0
 16 28  1  0
 17 29  1  0
 18 30  1  0
M  ISO  8  21  14  22  14  23  14  24  14  25  14  26  14  27  14  28  14
M  ISO  2  29  14  30  11
M  END
>  <minimizedAffinity>  (1) 
-5.49705029

>  <minimizedRMSD>  (1) 
2.10566592

$$$$
