
     RDKit          3D

 31 34  0  0  0  0  0  0  0  0999 V2000
   45.9370   33.1270   46.4290 C   0  0  0  0  0  0  0  0  0  0  0  0
   45.1550   33.0570   47.5510 C   0  0  0  0  0  0  0  0  0  0  0  0
   45.6790   32.0500   48.3640 C   0  0  0  0  0  0  0  0  0  0  0  0
   46.7560   31.5500   47.7070 N   0  0  0  0  0  0  0  0  0  0  0  0
   46.9120   32.1840   46.5620 N   0  0  0  0  0  0  0  0  0  0  0  0
   47.6560   30.5130   48.0770 C   0  0  0  0  0  0  0  0  0  0  0  0
   47.5050   29.1890   47.7020 C   0  0  0  0  0  0  0  0  0  0  0  0
   48.5630   28.5300   48.2540 N   0  0  0  0  0  0  0  0  0  0  0  0
   49.3350   29.3950   48.9360 C   0  0  0  0  0  0  0  0  0  0  0  0
   50.5020   29.2460   49.6660 C   0  0  0  0  0  0  0  0  0  0  0  0
   51.1000   30.3410   50.2840 C   0  0  0  0  0  0  0  0  0  0  0  0
   50.5420   31.5980   50.1820 C   0  0  0  0  0  0  0  0  0  0  0  0
   49.3640   31.7880   49.4550 C   0  0  0  0  0  0  0  0  0  0  0  0
   48.8020   30.6650   48.8540 C   0  0  0  0  0  0  0  0  0  0  0  0
   44.5090   35.9420   44.5510 C   0  0  0  0  0  0  0  0  0  0  0  0
   45.1850   35.8470   43.3160 C   0  0  0  0  0  0  0  0  0  0  0  0
   46.1100   34.8270   43.1560 C   0  0  0  0  0  0  0  0  0  0  0  0
   46.3220   33.9710   44.1880 N   0  0  0  0  0  0  0  0  0  0  0  0
   45.6460   34.0930   45.3730 C   0  0  0  0  0  0  0  0  0  0  0  0
   44.7470   35.0650   45.5650 N   0  0  0  0  0  0  0  0  0  0  0  0
   44.2755   33.6798   47.7713 H   0  0  0  0  0  0  0  0  0  0  0  0
   45.2951   31.7263   49.3427 H   0  0  0  0  0  0  0  0  0  0  0  0
   46.7003   28.7590   47.0876 H   0  0  0  0  0  0  0  0  0  0  0  0
   48.7442   27.5202   48.1625 H   0  0  0  0  0  0  0  0  0  0  0  0
   50.9620   28.2511   49.7588 H   0  0  0  0  0  0  0  0  0  0  0  0
   52.0271   30.2020   50.8595 H   0  0  0  0  0  0  0  0  0  0  0  0
   51.0260   32.4541   50.6747 H   0  0  0  0  0  0  0  0  0  0  0  0
   48.9009   32.7814   49.3616 H   0  0  0  0  0  0  0  0  0  0  0  0
   43.7713   36.7446   44.6982 H   0  0  0  0  0  0  0  0  0  0  0  0
   44.9839   36.5614   42.5041 H   0  0  0  0  0  0  0  0  0  0  0  0
   46.6615   34.7135   42.2111 H   0  0  0  0  0  0  0  0  0  0  0  0
  1  5  2  0
  1  2  1  0
  2  3  2  0
  4  6  1  0
  4  3  1  0
  5  4  1  0
  6 14  1  0
  7  6  2  0
  7  8  1  0
  8  9  1  0
  9 10  2  0
 10 11  1  0
 12 11  2  0
 13 12  1  0
 14  9  1  0
 14 13  2  0
 15 20  2  0
 16 15  1  0
 17 16  2  0
 17 18  1  0
 18 19  2  0
 19 20  1  0
 19  1  1  0
  2 21  1  0
  3 22  1  0
  7 23  1  0
  8 24  1  0
 10 25  1  0
 11 26  1  0
 12 27  1  0
 13 28  1  0
 15 29  1  0
 16 30  1  0
 17 31  1  0
M  ISO  8  21  14  22  14  23  14  24   9  25  14  26  14  27  14  28  14
M  ISO  3  29  14  30  14  31  14
M  END
>  <minimizedAffinity>  (1) 
-5.9454875

>  <minimizedRMSD>  (1) 
1.8948158

$$$$
