
     RDKit          3D

 24 26  0  0  0  0  0  0  0  0999 V2000
   46.5790   34.0920   43.7210 C   0  0  0  0  0  0  0  0  0  0  0  0
   45.5070   34.8320   44.1710 C   0  0  0  0  0  0  0  0  0  0  0  0
   45.1970   34.4440   45.4590 C   0  0  0  0  0  0  0  0  0  0  0  0
   46.0980   33.4690   45.7590 N   0  0  0  0  0  0  0  0  0  0  0  0
   46.9020   33.2670   44.7400 N   0  0  0  0  0  0  0  0  0  0  0  0
   46.0840   32.8230   47.0270 C   0  0  0  0  0  0  0  0  0  0  0  0
   47.0580   32.3310   47.8690 C   0  0  0  0  0  0  0  0  0  0  0  0
   46.4960   31.7910   48.9990 C   0  0  0  0  0  0  0  0  0  0  0  0
   45.1550   31.9720   48.8180 N   0  0  0  0  0  0  0  0  0  0  0  0
   44.9110   32.5710   47.6730 N   0  0  0  0  0  0  0  0  0  0  0  0
   48.6290   35.2870   40.9190 C   0  0  0  0  0  0  0  0  0  0  0  0
   48.0550   34.5950   39.8260 C   0  0  0  0  0  0  0  0  0  0  0  0
   46.9890   33.7430   40.0750 C   0  0  0  0  0  0  0  0  0  0  0  0
   46.5600   33.6250   41.3530 N   0  0  0  0  0  0  0  0  0  0  0  0
   47.1210   34.2940   42.3860 C   0  0  0  0  0  0  0  0  0  0  0  0
   48.1540   35.1270   42.1870 N   0  0  0  0  0  0  0  0  0  0  0  0
   44.9819   35.6084   43.5953 H   0  0  0  0  0  0  0  0  0  0  0  0
   44.3963   34.8372   46.1026 H   0  0  0  0  0  0  0  0  0  0  0  0
   48.1381   32.3662   47.6636 H   0  0  0  0  0  0  0  0  0  0  0  0
   47.0074   31.3215   49.8522 H   0  0  0  0  0  0  0  0  0  0  0  0
   44.4308   31.6785   49.4890 H   0  0  0  0  0  0  0  0  0  0  0  0
   49.4750   35.9674   40.7420 H   0  0  0  0  0  0  0  0  0  0  0  0
   48.4440   34.7292   38.8059 H   0  0  0  0  0  0  0  0  0  0  0  0
   46.5082   33.1817   39.2603 H   0  0  0  0  0  0  0  0  0  0  0  0
  1  2  1  0
  1  5  2  0
  2  3  2  0
  3  4  1  0
  4  6  1  0
  5  4  1  0
  6 10  2  0
  6  7  1  0
  7  8  2  0
  9  8  1  0
 10  9  1  0
 11 16  2  0
 12 13  2  0
 12 11  1  0
 13 14  1  0
 14 15  2  0
 15  1  1  0
 16 15  1  0
  2 17  1  0
  3 18  1  0
  7 19  1  0
  8 20  1  0
  9 21  1  0
 11 22  1  0
 12 23  1  0
 13 24  1  0
M  ISO  8  17  14  18  14  19  14  20  14  21   9  22  14  23  14  24  14
M  END
>  <minimizedAffinity>  (1) 
-5.25047159

>  <minimizedRMSD>  (1) 
4.39190531

$$$$
