
     RDKit          3D

 24 26  0  0  0  0  0  0  0  0999 V2000
   46.1960   33.0840   46.9190 C   0  0  0  0  0  0  0  0  0  0  0  0
   45.2530   32.5860   47.7790 C   0  0  0  0  0  0  0  0  0  0  0  0
   45.8840   31.8800   48.7830 C   0  0  0  0  0  0  0  0  0  0  0  0
   47.2140   31.9710   48.5000 N   0  0  0  0  0  0  0  0  0  0  0  0
   47.4080   32.6850   47.3950 N   0  0  0  0  0  0  0  0  0  0  0  0
   44.4960   35.5350   44.7720 C   0  0  0  0  0  0  0  0  0  0  0  0
   45.1480   35.3160   43.5220 C   0  0  0  0  0  0  0  0  0  0  0  0
   46.1380   34.3470   43.4580 C   0  0  0  0  0  0  0  0  0  0  0  0
   46.4460   33.6470   44.5830 N   0  0  0  0  0  0  0  0  0  0  0  0
   45.8080   33.8780   45.7540 C   0  0  0  0  0  0  0  0  0  0  0  0
   44.8410   34.8090   45.8630 N   0  0  0  0  0  0  0  0  0  0  0  0
   48.3640   31.4440   49.1790 C   0  0  0  0  0  0  0  0  0  0  0  0
   49.6050   32.0200   49.3630 C   0  0  0  0  0  0  0  0  0  0  0  0
   50.3040   31.1100   50.0560 N   0  0  0  0  0  0  0  0  0  0  0  0
   49.5270   30.0380   50.2810 C   0  0  0  0  0  0  0  0  0  0  0  0
   48.3050   30.2160   49.7440 N   0  0  0  0  0  0  0  0  0  0  0  0
   44.1661   32.7265   47.6844 H   0  0  0  0  0  0  0  0  0  0  0  0
   45.4147   31.3567   49.6291 H   0  0  0  0  0  0  0  0  0  0  0  0
   43.7079   36.2984   44.8507 H   0  0  0  0  0  0  0  0  0  0  0  0
   44.8725   35.9007   42.6319 H   0  0  0  0  0  0  0  0  0  0  0  0
   46.6653   34.1478   42.5134 H   0  0  0  0  0  0  0  0  0  0  0  0
   49.9451   33.0074   49.0174 H   0  0  0  0  0  0  0  0  0  0  0  0
   49.8450   29.1385   50.8285 H   0  0  0  0  0  0  0  0  0  0  0  0
   47.5068   29.5652   49.7598 H   0  0  0  0  0  0  0  0  0  0  0  0
  1  5  2  0
  1  2  1  0
  2  3  2  0
  4  3  1  0
  4 12  1  0
  5  4  1  0
  6 11  2  0
  7  6  1  0
  8  7  2  0
  8  9  1  0
  9 10  2  0
 10 11  1  0
 10  1  1  0
 12 13  2  0
 12 16  1  0
 13 14  1  0
 14 15  2  0
 16 15  1  0
  2 17  1  0
  3 18  1  0
  6 19  1  0
  7 20  1  0
  8 21  1  0
 13 22  1  0
 15 23  1  0
 16 24  1  0
M  ISO  8  17  14  18  14  19  14  20  14  21  14  22  14  23  14  24   9
M  END
>  <minimizedAffinity>  (1) 
-5.10966969

>  <minimizedRMSD>  (1) 
1.05751288

$$$$
