
     RDKit          3D

 28 31  0  0  0  0  0  0  0  0999 V2000
   46.7310   33.2990   43.9050 C   0  0  0  0  0  0  0  0  0  0  0  0
   45.8410   34.2590   44.3550 C   0  0  0  0  0  0  0  0  0  0  0  0
   45.4280   33.9030   45.6310 C   0  0  0  0  0  0  0  0  0  0  0  0
   46.0770   32.7450   45.9130 N   0  0  0  0  0  0  0  0  0  0  0  0
   46.8510   32.3830   44.8920 N   0  0  0  0  0  0  0  0  0  0  0  0
   45.1820   28.7130   47.9620 N   0  0  0  0  0  0  0  0  0  0  0  0
   45.2370   28.6520   46.6030 C   0  0  0  0  0  0  0  0  0  0  0  0
   45.4990   29.8480   46.0700 N   0  0  0  0  0  0  0  0  0  0  0  0
   45.6230   30.7280   47.0700 C   0  0  0  0  0  0  0  0  0  0  0  0
   45.8860   32.0870   47.1600 C   0  0  0  0  0  0  0  0  0  0  0  0
   45.9430   32.6870   48.3650 N   0  0  0  0  0  0  0  0  0  0  0  0
   45.7430   31.9530   49.4960 C   0  0  0  0  0  0  0  0  0  0  0  0
   45.4830   30.6190   49.4550 N   0  0  0  0  0  0  0  0  0  0  0  0
   45.4240   30.0110   48.2410 C   0  0  0  0  0  0  0  0  0  0  0  0
   47.3440   34.2880   40.4160 C   0  0  0  0  0  0  0  0  0  0  0  0
   48.5310   33.5870   40.1140 C   0  0  0  0  0  0  0  0  0  0  0  0
   49.0780   32.8010   41.1170 C   0  0  0  0  0  0  0  0  0  0  0  0
   48.4650   32.7360   42.3280 N   0  0  0  0  0  0  0  0  0  0  0  0
   47.3260   33.4210   42.5860 C   0  0  0  0  0  0  0  0  0  0  0  0
   46.7700   34.1900   41.6360 N   0  0  0  0  0  0  0  0  0  0  0  0
   45.5171   35.1502   43.7974 H   0  0  0  0  0  0  0  0  0  0  0  0
   44.7228   34.4454   46.2779 H   0  0  0  0  0  0  0  0  0  0  0  0
   44.9982   27.9458   48.6242 H   0  0  0  0  0  0  0  0  0  0  0  0
   45.0848   27.7332   46.0177 H   0  0  0  0  0  0  0  0  0  0  0  0
   45.7935   32.4559   50.4730 H   0  0  0  0  0  0  0  0  0  0  0  0
   46.8792   34.9233   39.6476 H   0  0  0  0  0  0  0  0  0  0  0  0
   49.0031   33.6611   39.1232 H   0  0  0  0  0  0  0  0  0  0  0  0
   50.0024   32.2337   40.9335 H   0  0  0  0  0  0  0  0  0  0  0  0
  1  2  1  0
  1  5  2  0
  2  3  2  0
  3  4  1  0
  4 10  1  0
  5  4  1  0
  6 14  1  0
  7  6  1  0
  8  7  2  0
  8  9  1  0
  9 10  1  0
  9 14  2  0
 10 11  2  0
 11 12  1  0
 13 12  2  0
 14 13  1  0
 15 20  2  0
 16 15  1  0
 16 17  2  0
 17 18  1  0
 18 19  2  0
 19  1  1  0
 20 19  1  0
  2 21  1  0
  3 22  1  0
  6 23  1  0
  7 24  1  0
 12 25  1  0
 15 26  1  0
 16 27  1  0
 17 28  1  0
M  ISO  8  21  14  22  14  23   9  24  14  25  14  26  14  27  14  28  14
M  END
>  <minimizedAffinity>  (1) 
-4.87274837

>  <minimizedRMSD>  (1) 
4.60177135

$$$$
