
     RDKit          3D

 25 27  0  0  0  0  0  0  0  0999 V2000
   46.0800   32.9990   46.7300 C   0  0  0  0  0  0  0  0  0  0  0  0
   45.2020   32.7970   47.7600 C   0  0  0  0  0  0  0  0  0  0  0  0
   45.7620   31.9080   48.6550 C   0  0  0  0  0  0  0  0  0  0  0  0
   46.9760   31.5930   48.1380 N   0  0  0  0  0  0  0  0  0  0  0  0
   47.1770   32.2370   46.9920 N   0  0  0  0  0  0  0  0  0  0  0  0
   44.5330   35.6710   44.7330 C   0  0  0  0  0  0  0  0  0  0  0  0
   45.2060   35.5410   43.4990 C   0  0  0  0  0  0  0  0  0  0  0  0
   46.1780   34.5390   43.3760 C   0  0  0  0  0  0  0  0  0  0  0  0
   46.4080   33.7550   44.4580 N   0  0  0  0  0  0  0  0  0  0  0  0
   45.7520   33.9000   45.6270 C   0  0  0  0  0  0  0  0  0  0  0  0
   44.8160   34.8520   45.7700 N   0  0  0  0  0  0  0  0  0  0  0  0
   47.9990   30.7280   48.6170 C   0  0  0  0  0  0  0  0  0  0  0  0
   48.1860   29.6060   47.8130 C   0  0  0  0  0  0  0  0  0  0  0  0
   49.1680   28.6940   48.1970 C   0  0  0  0  0  0  0  0  0  0  0  0
   49.8850   28.9310   49.3130 N   0  0  0  0  0  0  0  0  0  0  0  0
   49.6860   30.0250   50.0760 C   0  0  0  0  0  0  0  0  0  0  0  0
   48.7590   30.9090   49.7350 N   0  0  0  0  0  0  0  0  0  0  0  0
   44.2120   33.2663   47.8585 H   0  0  0  0  0  0  0  0  0  0  0  0
   45.3180   31.5342   49.5894 H   0  0  0  0  0  0  0  0  0  0  0  0
   43.7665   36.4509   44.8523 H   0  0  0  0  0  0  0  0  0  0  0  0
   44.9736   36.2086   42.6562 H   0  0  0  0  0  0  0  0  0  0  0  0
   46.7331   34.3941   42.4375 H   0  0  0  0  0  0  0  0  0  0  0  0
   47.5811   29.4455   46.9084 H   0  0  0  0  0  0  0  0  0  0  0  0
   49.3553   27.7918   47.5962 H   0  0  0  0  0  0  0  0  0  0  0  0
   50.2921   30.1836   50.9801 H   0  0  0  0  0  0  0  0  0  0  0  0
  1  5  2  0
  1  2  1  0
  2  3  2  0
  4 12  1  0
  4  3  1  0
  5  4  1  0
  6 11  2  0
  7  6  1  0
  8  7  2  0
  8  9  1  0
  9 10  2  0
 10 11  1  0
 10  1  1  0
 12 17  2  0
 13 14  2  0
 13 12  1  0
 14 15  1  0
 15 16  2  0
 17 16  1  0
  2 18  1  0
  3 19  1  0
  6 20  1  0
  7 21  1  0
  8 22  1  0
 13 23  1  0
 14 24  1  0
 16 25  1  0
M  ISO  8  18  14  19  14  20  14  21  14  22  14  23  14  24  14  25  14
M  END
>  <minimizedAffinity>  (1) 
-5.20699406

>  <minimizedRMSD>  (1) 
1.51628673

$$$$
