
     RDKit          3D

 32 34  0  0  0  0  0  0  0  0999 V2000
   46.0220   33.0180   46.5010 C   0  0  0  0  0  0  0  0  0  0  0  0
   45.2110   32.9320   47.6240 C   0  0  0  0  0  0  0  0  0  0  0  0
   45.7430   31.9360   48.4470 C   0  0  0  0  0  0  0  0  0  0  0  0
   46.8390   31.4600   47.8040 N   0  0  0  0  0  0  0  0  0  0  0  0
   47.0060   32.0940   46.6600 N   0  0  0  0  0  0  0  0  0  0  0  0
   44.5300   35.8210   44.6520 C   0  0  0  0  0  0  0  0  0  0  0  0
   45.2170   35.7460   43.4190 C   0  0  0  0  0  0  0  0  0  0  0  0
   46.1670   34.7390   43.2580 C   0  0  0  0  0  0  0  0  0  0  0  0
   46.3970   33.8780   44.2790 N   0  0  0  0  0  0  0  0  0  0  0  0
   45.7220   33.9790   45.4480 C   0  0  0  0  0  0  0  0  0  0  0  0
   44.8000   34.9340   45.6380 N   0  0  0  0  0  0  0  0  0  0  0  0
   50.5560   30.4980   48.5230 N   0  0  0  0  0  0  0  0  0  0  0  0
   49.8620   29.3490   47.9840 C   0  0  0  0  0  0  0  0  0  0  0  0
   48.6260   29.8560   47.2810 C   0  0  0  0  0  0  0  0  0  0  0  0
   47.6840   30.4050   48.3270 C   0  0  0  0  0  0  0  0  0  0  0  0
   48.3590   30.7840   49.5950 C   0  0  0  0  0  0  0  0  0  0  0  0
   49.7640   31.2880   49.4280 C   0  0  0  0  0  0  0  0  0  0  0  0
   44.3149   33.5363   47.8284 H   0  0  0  0  0  0  0  0  0  0  0  0
   45.3520   31.6045   49.4203 H   0  0  0  0  0  0  0  0  0  0  0  0
   43.7731   36.6032   44.8108 H   0  0  0  0  0  0  0  0  0  0  0  0
   45.0080   36.4615   42.6101 H   0  0  0  0  0  0  0  0  0  0  0  0
   46.7233   34.6442   42.3138 H   0  0  0  0  0  0  0  0  0  0  0  0
   50.8467   31.0984   47.7382 H   0  0  0  0  0  0  0  0  0  0  0  0
   50.5099   28.8194   47.2700 H   0  0  0  0  0  0  0  0  0  0  0  0
   49.5915   28.6473   48.7867 H   0  0  0  0  0  0  0  0  0  0  0  0
   48.8999   30.6509   46.5717 H   0  0  0  0  0  0  0  0  0  0  0  0
   48.1429   29.0404   46.7230 H   0  0  0  0  0  0  0  0  0  0  0  0
   47.0184   29.5714   48.5956 H   0  0  0  0  0  0  0  0  0  0  0  0
   47.7655   31.5751   50.0767 H   0  0  0  0  0  0  0  0  0  0  0  0
   48.4260   29.8672   50.1991 H   0  0  0  0  0  0  0  0  0  0  0  0
   50.2540   31.2844   50.4128 H   0  0  0  0  0  0  0  0  0  0  0  0
   49.6952   32.2983   48.9984 H   0  0  0  0  0  0  0  0  0  0  0  0
  1  5  2  0
  1  2  1  0
  2  3  2  0
  4 15  1  0
  4  3  1  0
  5  4  1  0
  6 11  2  0
  7  6  1  0
  8  7  2  0
  8  9  1  0
  9 10  2  0
 10 11  1  0
 10  1  1  0
 12 17  1  0
 13 12  1  0
 14 13  1  0
 14 15  1  0
 15 16  1  0
 17 16  1  0
  2 18  1  0
  3 19  1  0
  6 20  1  0
  7 21  1  0
  8 22  1  0
 12 23  1  0
 13 24  1  0
 13 25  1  0
 14 26  1  0
 14 27  1  0
 15 28  1  0
 16 29  1  0
 16 30  1  0
 17 31  1  0
 17 32  1  0
M  ISO  8  18  14  19  14  20  14  21  14  22  14  23   5  24  13  25  13
M  ISO  7  26  13  27  13  28  13  29  13  30  13  31  13  32  13
M  END
>  <minimizedAffinity>  (1) 
-4.97624445

>  <minimizedRMSD>  (1) 
1.64876044

$$$$
