
     RDKit          3D

 24 26  0  0  0  0  0  0  0  0999 V2000
   46.0740   33.0590   46.7740 C   0  0  0  0  0  0  0  0  0  0  0  0
   45.1070   32.7820   47.6990 C   0  0  0  0  0  0  0  0  0  0  0  0
   45.6290   31.9700   48.6910 C   0  0  0  0  0  0  0  0  0  0  0  0
   46.9200   31.7790   48.3270 N   0  0  0  0  0  0  0  0  0  0  0  0
   47.1960   32.4180   47.1940 N   0  0  0  0  0  0  0  0  0  0  0  0
   46.2120   34.5090   43.4010 C   0  0  0  0  0  0  0  0  0  0  0  0
   45.2200   35.5230   43.4850 C   0  0  0  0  0  0  0  0  0  0  0  0
   44.5400   35.6800   44.6840 C   0  0  0  0  0  0  0  0  0  0  0  0
   44.8540   34.8570   45.7140 N   0  0  0  0  0  0  0  0  0  0  0  0
   45.8020   33.8980   45.6120 C   0  0  0  0  0  0  0  0  0  0  0  0
   46.4810   33.7170   44.4680 N   0  0  0  0  0  0  0  0  0  0  0  0
   47.8270   30.9660   49.1250 C   0  0  0  0  0  0  0  0  0  0  0  0
   48.9700   30.2640   48.4120 C   0  0  0  0  0  0  0  0  0  0  0  0
   49.2530   31.4310   49.2810 C   0  0  0  0  0  0  0  0  0  0  0  0
   44.0707   33.1488   47.6610 H   0  0  0  0  0  0  0  0  0  0  0  0
   45.1121   31.5699   49.5757 H   0  0  0  0  0  0  0  0  0  0  0  0
   46.7666   34.3654   42.4619 H   0  0  0  0  0  0  0  0  0  0  0  0
   44.9970   36.1669   42.6215 H   0  0  0  0  0  0  0  0  0  0  0  0
   43.7655   36.4530   44.7959 H   0  0  0  0  0  0  0  0  0  0  0  0
   47.0213   30.6629   49.8098 H   0  0  0  0  0  0  0  0  0  0  0  0
   49.2782   29.2564   48.7280 H   0  0  0  0  0  0  0  0  0  0  0  0
   49.1892   30.0042   47.3658 H   0  0  0  0  0  0  0  0  0  0  0  0
   49.5700   32.3836   48.8316 H   0  0  0  0  0  0  0  0  0  0  0  0
   49.9164   31.6106   50.1399 H   0  0  0  0  0  0  0  0  0  0  0  0
  1  5  2  0
  1  2  1  0
  2  3  2  0
  4  3  1  0
  4 12  1  0
  5  4  1  0
  6  7  2  0
  6 11  1  0
  7  8  1  0
  8  9  2  0
 10  9  1  0
 10  1  1  0
 11 10  2  0
 12 14  1  0
 13 12  1  0
 13 14  1  0
  2 15  1  0
  3 16  1  0
  6 17  1  0
  7 18  1  0
  8 19  1  0
 12 20  1  0
 13 21  1  0
 13 22  1  0
 14 23  1  0
 14 24  1  0
M  ISO  8  15  14  16  14  17  14  18  14  19  14  20  13  21  13  22  13
M  ISO  2  23  13  24  13
M  END
>  <minimizedAffinity>  (1) 
-4.78354502

>  <minimizedRMSD>  (1) 
1.86434245

$$$$
