
     RDKit          3D

 37 40  0  0  0  0  0  0  0  0999 V2000
   44.5350   35.9750   44.3220 C   0  0  0  0  0  0  0  0  0  0  0  0
   45.2540   35.7940   43.1070 C   0  0  0  0  0  0  0  0  0  0  0  0
   46.1860   34.7840   43.0390 C   0  0  0  0  0  0  0  0  0  0  0  0
   46.3680   34.0200   44.1230 N   0  0  0  0  0  0  0  0  0  0  0  0
   45.6830   34.1960   45.2740 C   0  0  0  0  0  0  0  0  0  0  0  0
   44.7650   35.1620   45.3980 N   0  0  0  0  0  0  0  0  0  0  0  0
   45.9680   33.3050   46.3850 C   0  0  0  0  0  0  0  0  0  0  0  0
   45.0740   33.1670   47.4340 C   0  0  0  0  0  0  0  0  0  0  0  0
   45.5830   32.2650   48.3500 C   0  0  0  0  0  0  0  0  0  0  0  0
   46.7850   31.8730   47.8290 N   0  0  0  0  0  0  0  0  0  0  0  0
   47.0090   32.4890   46.6700 N   0  0  0  0  0  0  0  0  0  0  0  0
   48.9960   29.2120   48.7650 N   0  0  0  0  0  0  0  0  0  0  0  0
   47.9140   29.6560   48.1160 N   0  0  0  0  0  0  0  0  0  0  0  0
   47.7670   30.9690   48.3070 C   0  0  0  0  0  0  0  0  0  0  0  0
   48.8220   31.3870   49.1300 C   0  0  0  0  0  0  0  0  0  0  0  0
   49.5690   30.2680   49.3970 C   0  0  0  0  0  0  0  0  0  0  0  0
   46.8980   34.6150   41.8170 N   0  0  0  0  0  0  0  0  0  0  0  0
   46.2090   33.9390   40.8700 C   0  0  0  0  0  0  0  0  0  0  0  0
   46.7440   33.6840   39.6250 C   0  0  0  0  0  0  0  0  0  0  0  0
   45.9640   32.9340   38.5960 C   0  0  0  0  0  0  0  0  0  0  0  0
   48.0310   34.1360   39.3340 C   0  0  0  0  0  0  0  0  0  0  0  0
   48.4780   33.8860   38.2030 O   0  0  0  0  0  0  0  0  0  0  0  0
   48.6690   34.8020   40.3140 N   0  0  0  0  0  0  0  0  0  0  0  0
   48.1390   35.0460   41.5240 C   0  0  0  0  0  0  0  0  0  0  0  0
   48.7190   35.6580   42.4280 O   0  0  0  0  0  0  0  0  0  0  0  0
   43.7862   36.7773   44.3966 H   0  0  0  0  0  0  0  0  0  0  0  0
   45.0687   36.4471   42.2415 H   0  0  0  0  0  0  0  0  0  0  0  0
   44.1115   33.6919   47.5240 H   0  0  0  0  0  0  0  0  0  0  0  0
   45.1216   31.9347   49.2924 H   0  0  0  0  0  0  0  0  0  0  0  0
   49.3350   28.2395   48.7822 H   0  0  0  0  0  0  0  0  0  0  0  0
   49.0128   32.4088   49.4900 H   0  0  0  0  0  0  0  0  0  0  0  0
   50.4769   30.2324   50.0171 H   0  0  0  0  0  0  0  0  0  0  0  0
   45.1938   33.5827   41.0991 H   0  0  0  0  0  0  0  0  0  0  0  0
   45.2573   32.2545   39.0949 H   0  0  0  0  0  0  0  0  0  0  0  0
   45.4075   33.6449   37.9676 H   0  0  0  0  0  0  0  0  0  0  0  0
   46.6526   32.3501   37.9676 H   0  0  0  0  0  0  0  0  0  0  0  0
   49.6214   35.1455   40.1248 H   0  0  0  0  0  0  0  0  0  0  0  0
  1  6  2  0
  2  1  1  0
  3  2  2  0
  3  4  1  0
  4  5  2  0
  5  6  1  0
  5  7  1  0
  7 11  2  0
  7  8  1  0
  8  9  2  0
 10 14  1  0
 10  9  1  0
 11 10  1  0
 12 16  1  0
 13 14  2  0
 13 12  1  0
 14 15  1  0
 15 16  2  0
 17  3  1  0
 18 17  1  0
 19 18  2  0
 20 19  1  0
 21 19  1  0
 21 23  1  0
 22 21  2  0
 23 24  1  0
 24 17  1  0
 24 25  2  0
  1 26  1  0
  2 27  1  0
  8 28  1  0
  9 29  1  0
 12 30  1  0
 15 31  1  0
 16 32  1  0
 18 33  1  0
 20 34  1  0
 20 35  1  0
 20 36  1  0
 23 37  1  0
M  ISO  8  26  14  27  14  28  14  29  14  30   9  31  14  32  14  33  14
M  ISO  4  34   8  35   8  36   8  37   9
M  END
>  <minimizedAffinity>  (1) 
-7.45088148

>  <minimizedRMSD>  (1) 
0.358648092

$$$$
