
     RDKit          3D

 32 33  0  0  1  0  0  0  0  0999 V2000
   44.6140   35.8510   44.8500 C   0  0  0  0  0  0  0  0  0  0  0  0
   45.1290   35.6930   43.5270 C   0  0  0  0  0  0  0  0  0  0  0  0
   45.8360   34.5230   43.2450 C   0  0  0  0  0  0  0  0  0  0  0  0
   46.0000   33.6030   44.2270 N   0  0  0  0  0  0  0  0  0  0  0  0
   45.5040   33.7790   45.4610 C   0  0  0  0  0  0  0  0  0  0  0  0
   44.8200   34.8850   45.7760 N   0  0  0  0  0  0  0  0  0  0  0  0
   45.6970   32.7750   46.4730 N   0  0  0  0  0  0  0  0  0  0  0  0
   45.1330   32.9460   47.8040 C   0  0  0  0  0  0  0  0  0  0  0  0
   45.9620   32.3310   48.8850 C   0  0  0  0  0  0  0  0  0  0  0  0
   47.3580   32.1130   48.3580 C   0  0  0  0  0  0  0  0  0  0  0  0
   47.2390   31.0380   47.2830 C   0  0  0  0  0  0  0  0  0  0  0  0
   46.4630   31.5870   46.1450 C   0  0  1  0  0  0  0  0  0  0  0  0
   45.5930   30.6010   45.5460 N   0  0  0  0  0  0  0  0  0  0  0  0
   44.9270   29.6320   46.3470 C   0  0  0  0  0  0  0  0  0  0  0  0
   45.4060   29.3260   47.5080 N   0  0  0  0  0  0  0  0  0  0  0  0
   43.7490   28.9810   45.9210 N   0  0  0  0  0  0  0  0  0  0  0  0
   46.2510   29.7240   47.9360 H   0  0  0  0  0  0  0  0  0  0  0  0
   44.0502   36.7572   45.1164 H   0  0  0  0  0  0  0  0  0  0  0  0
   44.9741   36.4649   42.7588 H   0  0  0  0  0  0  0  0  0  0  0  0
   46.2534   34.3503   42.2420 H   0  0  0  0  0  0  0  0  0  0  0  0
   45.0392   34.0230   48.0069 H   0  0  0  0  0  0  0  0  0  0  0  0
   44.1592   32.4344   47.8116 H   0  0  0  0  0  0  0  0  0  0  0  0
   45.9953   33.0041   49.7544 H   0  0  0  0  0  0  0  0  0  0  0  0
   45.5234   31.3706   49.1936 H   0  0  0  0  0  0  0  0  0  0  0  0
   47.7528   33.0441   47.9253 H   0  0  0  0  0  0  0  0  0  0  0  0
   48.0475   31.8072   49.1587 H   0  0  0  0  0  0  0  0  0  0  0  0
   48.2422   30.7451   46.9398 H   0  0  0  0  0  0  0  0  0  0  0  0
   46.7288   30.1536   47.6924 H   0  0  0  0  0  0  0  0  0  0  0  0
   47.2295   31.8826   45.4135 H   0  0  0  0  0  0  0  0  0  0  0  0
   45.4531   30.5997   44.5255 H   0  0  0  0  0  0  0  0  0  0  0  0
   43.2962   28.2849   46.5303 H   0  0  0  0  0  0  0  0  0  0  0  0
   43.3423   29.2022   45.0009 H   0  0  0  0  0  0  0  0  0  0  0  0
  1  6  2  0
  2  1  1  0
  3  2  2  0
  3  4  1  0
  4  5  2  0
  5  6  1  0
  5  7  1  0
  7  8  1  0
  8  9  1  0
 10  9  1  0
 11 10  1  0
 12  7  1  0
 12 11  1  0
 13 12  1  0
 13 14  1  0
 14 15  2  0
 15 17  1  0
 16 14  1  0
  1 18  1  0
  2 19  1  0
  3 20  1  0
  8 21  1  0
  8 22  1  0
  9 23  1  0
  9 24  1  0
 10 25  1  0
 10 26  1  0
 11 27  1  0
 11 28  1  0
 12 29  1  6
 13 30  1  0
 16 31  1  0
 16 32  1  0
M  ISO  8  18  14  19  14  20  14  21  13  22  13  23  13  24  13  25  13
M  ISO  4  26  13  27  13  28  13  29  13
M  END
>  <minimizedAffinity>  (1) 
-5.30650043

>  <minimizedRMSD>  (1) 
0.707792282

$$$$
