
     RDKit          3D

 33 35  0  0  1  0  0  0  0  0999 V2000
   44.6030   35.7390   44.8940 C   0  0  0  0  0  0  0  0  0  0  0  0
   45.2060   35.6310   43.6070 C   0  0  0  0  0  0  0  0  0  0  0  0
   46.0060   34.5320   43.3390 C   0  0  0  0  0  0  0  0  0  0  0  0
   46.1750   33.6140   44.3140 N   0  0  0  0  0  0  0  0  0  0  0  0
   45.5990   33.7300   45.5240 C   0  0  0  0  0  0  0  0  0  0  0  0
   44.8210   34.7760   45.8190 N   0  0  0  0  0  0  0  0  0  0  0  0
   45.8130   32.7160   46.5300 N   0  0  0  0  0  0  0  0  0  0  0  0
   45.2050   32.8660   47.8620 C   0  0  0  0  0  0  0  0  0  0  0  0
   46.0380   32.2670   48.9460 C   0  0  0  0  0  0  0  0  0  0  0  0
   47.4540   32.1170   48.4550 C   0  0  0  0  0  0  0  0  0  0  0  0
   47.3970   31.0470   47.3750 C   0  0  0  0  0  0  0  0  0  0  0  0
   46.6280   31.5620   46.2140 C   0  0  1  0  0  0  0  0  0  0  0  0
   45.7330   30.5230   45.6500 C   0  0  0  0  0  0  0  0  0  0  0  0
   45.1030   29.6180   46.5090 C   0  0  0  0  0  0  0  0  0  0  0  0
   44.2920   28.6880   45.9200 C   0  0  0  0  0  0  0  0  0  0  0  0
   44.0850   28.6120   44.6010 N   0  0  0  0  0  0  0  0  0  0  0  0
   44.6950   29.4850   43.7790 C   0  0  0  0  0  0  0  0  0  0  0  0
   45.4960   30.4070   44.3370 N   0  0  0  0  0  0  0  0  0  0  0  0
   43.9635   36.6012   45.1340 H   0  0  0  0  0  0  0  0  0  0  0  0
   45.0397   36.4041   42.8424 H   0  0  0  0  0  0  0  0  0  0  0  0
   46.4901   34.4109   42.3587 H   0  0  0  0  0  0  0  0  0  0  0  0
   45.0741   33.9381   48.0704 H   0  0  0  0  0  0  0  0  0  0  0  0
   44.2425   32.3336   47.8498 H   0  0  0  0  0  0  0  0  0  0  0  0
   46.0219   32.9238   49.8282 H   0  0  0  0  0  0  0  0  0  0  0  0
   45.6350   31.2810   49.2205 H   0  0  0  0  0  0  0  0  0  0  0  0
   47.8187   33.0667   48.0367 H   0  0  0  0  0  0  0  0  0  0  0  0
   48.1414   31.8407   49.2681 H   0  0  0  0  0  0  0  0  0  0  0  0
   48.4184   30.7926   47.0555 H   0  0  0  0  0  0  0  0  0  0  0  0
   46.9048   30.1474   47.7732 H   0  0  0  0  0  0  0  0  0  0  0  0
   47.3940   31.8577   45.4820 H   0  0  0  0  0  0  0  0  0  0  0  0
   45.2514   29.6521   47.5984 H   0  0  0  0  0  0  0  0  0  0  0  0
   43.7807   27.9609   46.5680 H   0  0  0  0  0  0  0  0  0  0  0  0
   44.5432   29.4450   42.6903 H   0  0  0  0  0  0  0  0  0  0  0  0
  1  6  2  0
  2  1  1  0
  3  2  2  0
  3  4  1  0
  4  5  2  0
  5  6  1  0
  5  7  1  0
  7  8  1  0
  8  9  1  0
 10  9  1  0
 11 10  1  0
 12  7  1  0
 12 11  1  0
 13 12  1  0
 13 14  2  0
 15 14  1  0
 16 15  2  0
 17 18  2  0
 17 16  1  0
 18 13  1  0
  1 19  1  0
  2 20  1  0
  3 21  1  0
  8 22  1  0
  8 23  1  0
  9 24  1  0
  9 25  1  0
 10 26  1  0
 10 27  1  0
 11 28  1  0
 11 29  1  0
 12 30  1  6
 14 31  1  0
 15 32  1  0
 17 33  1  0
M  ISO  8  19  14  20  14  21  14  22  13  23  13  24  13  25  13  26  13
M  ISO  7  27  13  28  13  29  13  30  13  31  14  32  14  33  14
M  END
>  <minimizedAffinity>  (1) 
-5.23584414

>  <minimizedRMSD>  (1) 
0.780649006

$$$$
