
     RDKit          3D

 31 34  0  0  0  0  0  0  0  0999 V2000
   45.9240   33.2740   46.4960 C   0  0  0  0  0  0  0  0  0  0  0  0
   45.0480   33.0720   47.5430 C   0  0  0  0  0  0  0  0  0  0  0  0
   45.5810   32.1440   48.4140 C   0  0  0  0  0  0  0  0  0  0  0  0
   46.7730   31.7930   47.8830 N   0  0  0  0  0  0  0  0  0  0  0  0
   46.9850   32.4570   46.7460 N   0  0  0  0  0  0  0  0  0  0  0  0
   49.0560   29.1290   48.6630 N   0  0  0  0  0  0  0  0  0  0  0  0
   47.9540   29.5760   48.0420 N   0  0  0  0  0  0  0  0  0  0  0  0
   47.7810   30.8880   48.3060 C   0  0  0  0  0  0  0  0  0  0  0  0
   48.8340   31.2950   49.1420 C   0  0  0  0  0  0  0  0  0  0  0  0
   49.5970   30.1720   49.3340 C   0  0  0  0  0  0  0  0  0  0  0  0
   44.4420   35.9810   44.5410 C   0  0  0  0  0  0  0  0  0  0  0  0
   45.1570   35.8940   43.3280 C   0  0  0  0  0  0  0  0  0  0  0  0
   46.1290   34.9070   43.2190 C   0  0  0  0  0  0  0  0  0  0  0  0
   46.3350   34.0930   44.2620 N   0  0  0  0  0  0  0  0  0  0  0  0
   45.6280   34.2020   45.4190 C   0  0  0  0  0  0  0  0  0  0  0  0
   44.6790   35.1390   45.5770 N   0  0  0  0  0  0  0  0  0  0  0  0
   46.9100   34.7570   41.9940 C   0  0  0  0  0  0  0  0  0  0  0  0
   48.1510   35.3140   41.7580 C   0  0  0  0  0  0  0  0  0  0  0  0
   48.5690   34.9510   40.4930 C   0  0  0  0  0  0  0  0  0  0  0  0
   47.5320   34.1730   40.0150 C   0  0  0  0  0  0  0  0  0  0  0  0
   46.5700   34.0730   40.9110 O   0  0  0  0  0  0  0  0  0  0  0  0
   44.0762   33.5728   47.6643 H   0  0  0  0  0  0  0  0  0  0  0  0
   45.1304   31.7689   49.3447 H   0  0  0  0  0  0  0  0  0  0  0  0
   49.4233   28.1671   48.6342 H   0  0  0  0  0  0  0  0  0  0  0  0
   49.0090   32.2996   49.5544 H   0  0  0  0  0  0  0  0  0  0  0  0
   50.5122   30.1259   49.9426 H   0  0  0  0  0  0  0  0  0  0  0  0
   43.6686   36.7556   44.6497 H   0  0  0  0  0  0  0  0  0  0  0  0
   44.9520   36.5843   42.4964 H   0  0  0  0  0  0  0  0  0  0  0  0
   48.7144   35.9437   42.4622 H   0  0  0  0  0  0  0  0  0  0  0  0
   49.5073   35.2184   39.9850 H   0  0  0  0  0  0  0  0  0  0  0  0
   47.5118   33.7010   39.0216 H   0  0  0  0  0  0  0  0  0  0  0  0
  1  5  2  0
  1  2  1  0
  2  3  2  0
  4  8  1  0
  4  3  1  0
  5  4  1  0
  6 10  1  0
  7  8  2  0
  7  6  1  0
  8  9  1  0
  9 10  2  0
 11 16  2  0
 12 11  1  0
 13 12  2  0
 13 14  1  0
 14 15  2  0
 15 16  1  0
 15  1  1  0
 17 13  1  0
 18 17  2  0
 19 18  1  0
 20 19  2  0
 20 21  1  0
 21 17  1  0
  2 22  1  0
  3 23  1  0
  6 24  1  0
  9 25  1  0
 10 26  1  0
 11 27  1  0
 12 28  1  0
 18 29  1  0
 19 30  1  0
 20 31  1  0
M  ISO  8  22  14  23  14  24   9  25  14  26  14  27  14  28  14  29  14
M  ISO  2  30  14  31  14
M  END
>  <minimizedAffinity>  (1) 
-6.85412788

>  <minimizedRMSD>  (1) 
0.664284229

$$$$
