
     RDKit          3D

 32 35  0  0  0  0  0  0  0  0999 V2000
   45.9570   33.1680   46.5990 C   0  0  0  0  0  0  0  0  0  0  0  0
   45.0600   32.9460   47.6320 C   0  0  0  0  0  0  0  0  0  0  0  0
   45.5930   32.0150   48.5030 C   0  0  0  0  0  0  0  0  0  0  0  0
   46.7970   31.6920   47.9810 N   0  0  0  0  0  0  0  0  0  0  0  0
   47.0270   32.3670   46.8500 N   0  0  0  0  0  0  0  0  0  0  0  0
   49.1000   29.0360   48.7460 N   0  0  0  0  0  0  0  0  0  0  0  0
   48.0030   29.4860   48.1160 N   0  0  0  0  0  0  0  0  0  0  0  0
   47.8150   30.7950   48.4090 C   0  0  0  0  0  0  0  0  0  0  0  0
   48.8390   31.1820   49.2600 C   0  0  0  0  0  0  0  0  0  0  0  0
   49.6160   30.0660   49.4460 C   0  0  0  0  0  0  0  0  0  0  0  0
   44.4360   35.9050   44.6910 C   0  0  0  0  0  0  0  0  0  0  0  0
   45.1320   35.8010   43.4480 C   0  0  0  0  0  0  0  0  0  0  0  0
   46.0930   34.7970   43.3180 C   0  0  0  0  0  0  0  0  0  0  0  0
   46.3120   33.9850   44.3700 N   0  0  0  0  0  0  0  0  0  0  0  0
   45.6300   34.1070   45.5470 C   0  0  0  0  0  0  0  0  0  0  0  0
   44.7090   35.0490   45.7080 N   0  0  0  0  0  0  0  0  0  0  0  0
   46.8150   34.6730   42.0610 C   0  0  0  0  0  0  0  0  0  0  0  0
   48.0320   35.3070   41.9120 C   0  0  0  0  0  0  0  0  0  0  0  0
   48.6030   35.1040   40.6660 C   0  0  0  0  0  0  0  0  0  0  0  0
   48.0590   34.3780   39.6960 N   0  0  0  0  0  0  0  0  0  0  0  0
   46.8700   33.7920   39.9170 C   0  0  0  0  0  0  0  0  0  0  0  0
   46.2500   33.9360   41.0880 N   0  0  0  0  0  0  0  0  0  0  0  0
   44.0799   33.4333   47.7411 H   0  0  0  0  0  0  0  0  0  0  0  0
   45.1359   31.6216   49.4229 H   0  0  0  0  0  0  0  0  0  0  0  0
   49.4781   28.0789   48.7024 H   0  0  0  0  0  0  0  0  0  0  0  0
   48.9964   32.1793   49.6967 H   0  0  0  0  0  0  0  0  0  0  0  0
   50.5205   30.0193   50.0702 H   0  0  0  0  0  0  0  0  0  0  0  0
   43.6724   36.6854   44.8250 H   0  0  0  0  0  0  0  0  0  0  0  0
   44.9173   36.4910   42.6186 H   0  0  0  0  0  0  0  0  0  0  0  0
   48.5009   35.9119   42.7021 H   0  0  0  0  0  0  0  0  0  0  0  0
   49.5755   35.5776   40.4661 H   0  0  0  0  0  0  0  0  0  0  0  0
   46.4043   33.1881   39.1243 H   0  0  0  0  0  0  0  0  0  0  0  0
  1  5  2  0
  1  2  1  0
  2  3  2  0
  4  8  1  0
  4  3  1  0
  5  4  1  0
  6 10  1  0
  7  8  2  0
  7  6  1  0
  8  9  1  0
  9 10  2  0
 11 16  2  0
 12 11  1  0
 13 12  2  0
 13 14  1  0
 14 15  2  0
 15 16  1  0
 15  1  1  0
 17 13  1  0
 18 17  2  0
 19 18  1  0
 20 21  1  0
 20 19  2  0
 21 22  2  0
 22 17  1  0
  2 23  1  0
  3 24  1  0
  6 25  1  0
  9 26  1  0
 10 27  1  0
 11 28  1  0
 12 29  1  0
 18 30  1  0
 19 31  1  0
 21 32  1  0
M  ISO  8  23  14  24  14  25   9  26  14  27  14  28  14  29  14  30  14
M  ISO  2  31  14  32  14
M  END
>  <minimizedAffinity>  (1) 
-6.89194298

>  <minimizedRMSD>  (1) 
0.668043554

$$$$
