
     RDKit          3D

 31 34  0  0  0  0  0  0  0  0999 V2000
   45.9740   33.3320   46.3640 C   0  0  0  0  0  0  0  0  0  0  0  0
   45.0760   33.1920   47.4080 C   0  0  0  0  0  0  0  0  0  0  0  0
   45.5650   32.2710   48.3150 C   0  0  0  0  0  0  0  0  0  0  0  0
   46.7460   31.8710   47.8060 N   0  0  0  0  0  0  0  0  0  0  0  0
   46.9960   32.4950   46.6500 N   0  0  0  0  0  0  0  0  0  0  0  0
   48.9320   29.1450   48.6560 N   0  0  0  0  0  0  0  0  0  0  0  0
   47.8650   29.6210   48.0210 N   0  0  0  0  0  0  0  0  0  0  0  0
   47.7250   30.9450   48.2630 C   0  0  0  0  0  0  0  0  0  0  0  0
   48.7650   31.3190   49.0980 C   0  0  0  0  0  0  0  0  0  0  0  0
   49.4980   30.1760   49.3240 C   0  0  0  0  0  0  0  0  0  0  0  0
   44.4640   35.9550   44.3000 C   0  0  0  0  0  0  0  0  0  0  0  0
   45.2780   35.9020   43.1330 C   0  0  0  0  0  0  0  0  0  0  0  0
   46.3060   34.9750   43.1030 C   0  0  0  0  0  0  0  0  0  0  0  0
   46.4900   34.1700   44.1720 N   0  0  0  0  0  0  0  0  0  0  0  0
   45.6940   34.2420   45.2790 C   0  0  0  0  0  0  0  0  0  0  0  0
   44.6970   35.1190   45.3440 N   0  0  0  0  0  0  0  0  0  0  0  0
   47.1740   34.8720   41.9360 C   0  0  0  0  0  0  0  0  0  0  0  0
   46.8930   34.1550   40.7960 C   0  0  0  0  0  0  0  0  0  0  0  0
   48.0180   34.3760   40.0030 C   0  0  0  0  0  0  0  0  0  0  0  0
   48.9040   35.1680   40.6280 N   0  0  0  0  0  0  0  0  0  0  0  0
   48.3730   35.4670   41.8170 N   0  0  0  0  0  0  0  0  0  0  0  0
   44.1213   33.7303   47.5013 H   0  0  0  0  0  0  0  0  0  0  0  0
   45.0920   31.9369   49.2502 H   0  0  0  0  0  0  0  0  0  0  0  0
   49.2659   28.1707   48.6418 H   0  0  0  0  0  0  0  0  0  0  0  0
   48.9644   32.3239   49.4986 H   0  0  0  0  0  0  0  0  0  0  0  0
   50.4010   30.1113   49.9488 H   0  0  0  0  0  0  0  0  0  0  0  0
   43.6387   36.6800   44.3562 H   0  0  0  0  0  0  0  0  0  0  0  0
   45.0960   36.5758   42.2827 H   0  0  0  0  0  0  0  0  0  0  0  0
   46.0001   33.5549   40.5666 H   0  0  0  0  0  0  0  0  0  0  0  0
   48.1612   33.9562   38.9964 H   0  0  0  0  0  0  0  0  0  0  0  0
   49.8140   35.4831   40.2627 H   0  0  0  0  0  0  0  0  0  0  0  0
  1  5  2  0
  1  2  1  0
  2  3  2  0
  4  8  1  0
  4  3  1  0
  5  4  1  0
  6 10  1  0
  7  8  2  0
  7  6  1  0
  8  9  1  0
  9 10  2  0
 11 16  2  0
 12 11  1  0
 13 12  2  0
 13 14  1  0
 14 15  2  0
 15 16  1  0
 15  1  1  0
 17 13  1  0
 18 17  1  0
 19 20  1  0
 19 18  2  0
 20 21  1  0
 21 17  2  0
  2 22  1  0
  3 23  1  0
  6 24  1  0
  9 25  1  0
 10 26  1  0
 11 27  1  0
 12 28  1  0
 18 29  1  0
 19 30  1  0
 20 31  1  0
M  ISO  8  22  14  23  14  24   9  25  14  26  14  27  14  28  14  29  14
M  ISO  2  30  14  31   9
M  END
>  <minimizedAffinity>  (1) 
-6.90225554

>  <minimizedRMSD>  (1) 
0.497159928

$$$$
