
     RDKit          3D

 31 33  0  0  0  0  0  0  0  0999 V2000
   44.5070   35.9090   44.3900 C   0  0  0  0  0  0  0  0  0  0  0  0
   45.2670   35.7870   43.2010 C   0  0  0  0  0  0  0  0  0  0  0  0
   46.2580   34.8100   43.1410 C   0  0  0  0  0  0  0  0  0  0  0  0
   46.4140   34.0520   44.2330 N   0  0  0  0  0  0  0  0  0  0  0  0
   45.6850   34.1750   45.3630 C   0  0  0  0  0  0  0  0  0  0  0  0
   44.7310   35.0940   45.4600 N   0  0  0  0  0  0  0  0  0  0  0  0
   45.9880   33.2640   46.4550 C   0  0  0  0  0  0  0  0  0  0  0  0
   45.0860   33.1050   47.4960 C   0  0  0  0  0  0  0  0  0  0  0  0
   45.6100   32.1910   48.3960 C   0  0  0  0  0  0  0  0  0  0  0  0
   46.8070   31.8200   47.8900 N   0  0  0  0  0  0  0  0  0  0  0  0
   47.0350   32.4520   46.7390 N   0  0  0  0  0  0  0  0  0  0  0  0
   49.0360   29.1500   48.7710 N   0  0  0  0  0  0  0  0  0  0  0  0
   47.9710   29.6090   48.1350 N   0  0  0  0  0  0  0  0  0  0  0  0
   47.8000   30.9160   48.3590 C   0  0  0  0  0  0  0  0  0  0  0  0
   48.8280   31.3290   49.1990 C   0  0  0  0  0  0  0  0  0  0  0  0
   49.5810   30.1990   49.4370 C   0  0  0  0  0  0  0  0  0  0  0  0
   47.0340   34.6730   41.9580 N   0  0  0  0  0  0  0  0  0  0  0  0
   48.4170   34.9780   41.9690 C   0  0  0  0  0  0  0  0  0  0  0  0
   49.1280   34.7050   42.9890 N   0  0  0  0  0  0  0  0  0  0  0  0
   49.0210   35.5920   40.8340 N   0  0  0  0  0  0  0  0  0  0  0  0
   48.8570   34.2700   43.8690 H   0  0  0  0  0  0  0  0  0  0  0  0
   43.7209   36.6760   44.4514 H   0  0  0  0  0  0  0  0  0  0  0  0
   45.0787   36.4496   42.3434 H   0  0  0  0  0  0  0  0  0  0  0  0
   44.1176   33.6180   47.5913 H   0  0  0  0  0  0  0  0  0  0  0  0
   45.1471   31.8397   49.3300 H   0  0  0  0  0  0  0  0  0  0  0  0
   49.3851   28.1810   48.7624 H   0  0  0  0  0  0  0  0  0  0  0  0
   49.0032   32.3419   49.5904 H   0  0  0  0  0  0  0  0  0  0  0  0
   50.4814   30.1548   50.0673 H   0  0  0  0  0  0  0  0  0  0  0  0
   46.5879   34.3500   41.0876 H   0  0  0  0  0  0  0  0  0  0  0  0
   50.0269   35.8136   40.8426 H   0  0  0  0  0  0  0  0  0  0  0  0
   48.4518   35.8143   40.0049 H   0  0  0  0  0  0  0  0  0  0  0  0
  1  6  2  0
  2  1  1  0
  3  2  2  0
  3  4  1  0
  4  5  2  0
  5  6  1  0
  5  7  1  0
  7 11  2  0
  7  8  1  0
  8  9  2  0
 10 14  1  0
 10  9  1  0
 11 10  1  0
 12 16  1  0
 13 14  2  0
 13 12  1  0
 14 15  1  0
 15 16  2  0
 17 18  1  0
 17  3  1  0
 18 19  2  0
 19 21  1  0
 20 18  1  0
  1 22  1  0
  2 23  1  0
  8 24  1  0
  9 25  1  0
 12 26  1  0
 15 27  1  0
 16 28  1  0
 17 29  1  0
 20 30  1  0
 20 31  1  0
M  ISO  7  22  14  23  14  24  14  25  14  26   9  27  14  28  14
M  END
>  <minimizedAffinity>  (1) 
-6.799088

>  <minimizedRMSD>  (1) 
0.450854987

$$$$
