
     RDKit          3D

 37 40  0  0  0  0  0  0  0  0999 V2000
   45.9840   33.1000   46.6640 C   0  0  0  0  0  0  0  0  0  0  0  0
   45.0930   32.8980   47.6990 C   0  0  0  0  0  0  0  0  0  0  0  0
   45.6300   31.9870   48.5910 C   0  0  0  0  0  0  0  0  0  0  0  0
   46.8430   31.6540   48.0780 N   0  0  0  0  0  0  0  0  0  0  0  0
   47.0590   32.3110   46.9330 N   0  0  0  0  0  0  0  0  0  0  0  0
   49.1450   29.0410   48.9290 N   0  0  0  0  0  0  0  0  0  0  0  0
   48.0610   29.4720   48.2820 N   0  0  0  0  0  0  0  0  0  0  0  0
   47.8560   30.7720   48.5350 C   0  0  0  0  0  0  0  0  0  0  0  0
   48.8690   31.1960   49.3930 C   0  0  0  0  0  0  0  0  0  0  0  0
   49.6570   30.0980   49.6220 C   0  0  0  0  0  0  0  0  0  0  0  0
   44.4940   35.8000   44.6900 C   0  0  0  0  0  0  0  0  0  0  0  0
   45.1850   35.6690   43.4610 C   0  0  0  0  0  0  0  0  0  0  0  0
   46.1260   34.6710   43.3550 C   0  0  0  0  0  0  0  0  0  0  0  0
   46.3510   33.8700   44.4050 N   0  0  0  0  0  0  0  0  0  0  0  0
   45.6770   34.0100   45.5800 C   0  0  0  0  0  0  0  0  0  0  0  0
   44.7600   34.9620   45.7210 N   0  0  0  0  0  0  0  0  0  0  0  0
   46.8460   34.5000   42.1410 N   0  0  0  0  0  0  0  0  0  0  0  0
   47.9940   35.3030   41.8290 C   0  0  0  0  0  0  0  0  0  0  0  0
   48.7880   34.5330   40.7660 C   0  0  0  0  0  0  0  0  0  0  0  0
   47.9810   34.5430   39.6330 O   0  0  0  0  0  0  0  0  0  0  0  0
   46.8550   33.7660   39.7800 C   0  0  0  0  0  0  0  0  0  0  0  0
   46.4330   33.5070   41.1890 C   0  0  0  0  0  0  0  0  0  0  0  0
   44.1114   33.3844   47.7987 H   0  0  0  0  0  0  0  0  0  0  0  0
   45.1722   31.6121   49.5183 H   0  0  0  0  0  0  0  0  0  0  0  0
   49.5259   28.0842   48.9088 H   0  0  0  0  0  0  0  0  0  0  0  0
   49.0081   32.2071   49.8034 H   0  0  0  0  0  0  0  0  0  0  0  0
   50.5535   30.0736   50.2590 H   0  0  0  0  0  0  0  0  0  0  0  0
   43.7356   36.5879   44.8086 H   0  0  0  0  0  0  0  0  0  0  0  0
   44.9760   36.3438   42.6178 H   0  0  0  0  0  0  0  0  0  0  0  0
   47.6785   36.2800   41.4341 H   0  0  0  0  0  0  0  0  0  0  0  0
   48.6048   35.4889   42.7247 H   0  0  0  0  0  0  0  0  0  0  0  0
   49.7462   35.0333   40.5621 H   0  0  0  0  0  0  0  0  0  0  0  0
   49.0285   33.5102   41.0917 H   0  0  0  0  0  0  0  0  0  0  0  0
   46.0248   34.2713   39.2648 H   0  0  0  0  0  0  0  0  0  0  0  0
   47.1079   32.7836   39.3547 H   0  0  0  0  0  0  0  0  0  0  0  0
   45.3347   33.4500   41.2108 H   0  0  0  0  0  0  0  0  0  0  0  0
   46.9263   32.5708   41.4894 H   0  0  0  0  0  0  0  0  0  0  0  0
  1  5  2  0
  1  2  1  0
  2  3  2  0
  4  8  1  0
  4  3  1  0
  5  4  1  0
  6 10  1  0
  7  8  2  0
  7  6  1  0
  8  9  1  0
  9 10  2  0
 11 16  2  0
 12 11  1  0
 13 12  2  0
 13 14  1  0
 14 15  2  0
 15 16  1  0
 15  1  1  0
 17 13  1  0
 18 17  1  0
 19 18  1  0
 20 21  1  0
 20 19  1  0
 21 22  1  0
 22 17  1  0
  2 23  1  0
  3 24  1  0
  6 25  1  0
  9 26  1  0
 10 27  1  0
 11 28  1  0
 12 29  1  0
 18 30  1  0
 18 31  1  0
 19 32  1  0
 19 33  1  0
 21 34  1  0
 21 35  1  0
 22 36  1  0
 22 37  1  0
M  ISO  8  23  14  24  14  25   9  26  14  27  14  28  14  29  14  30  13
M  ISO  7  31  13  32  13  33  13  34  13  35  13  36  13  37  13
M  END
>  <minimizedAffinity>  (1) 
-6.51506138

>  <minimizedRMSD>  (1) 
0.0976752043

$$$$
