
     RDKit          3D

 31 34  0  0  0  0  0  0  0  0999 V2000
   45.9190   33.2160   46.5880 C   0  0  0  0  0  0  0  0  0  0  0  0
   45.0460   32.9680   47.6100 C   0  0  0  0  0  0  0  0  0  0  0  0
   45.5790   32.0430   48.4760 C   0  0  0  0  0  0  0  0  0  0  0  0
   46.7900   31.7410   47.9540 N   0  0  0  0  0  0  0  0  0  0  0  0
   46.9970   32.4270   46.8420 N   0  0  0  0  0  0  0  0  0  0  0  0
   49.1100   29.1100   48.7290 N   0  0  0  0  0  0  0  0  0  0  0  0
   48.0050   29.5410   48.1010 N   0  0  0  0  0  0  0  0  0  0  0  0
   47.8200   30.8510   48.3860 C   0  0  0  0  0  0  0  0  0  0  0  0
   48.8460   31.2540   49.2210 C   0  0  0  0  0  0  0  0  0  0  0  0
   49.6450   30.1570   49.4280 C   0  0  0  0  0  0  0  0  0  0  0  0
   44.4180   35.9470   44.6790 C   0  0  0  0  0  0  0  0  0  0  0  0
   45.1200   35.8760   43.4590 C   0  0  0  0  0  0  0  0  0  0  0  0
   46.0920   34.8910   43.3190 C   0  0  0  0  0  0  0  0  0  0  0  0
   46.3150   34.0520   44.3610 N   0  0  0  0  0  0  0  0  0  0  0  0
   45.6130   34.1610   45.5190 C   0  0  0  0  0  0  0  0  0  0  0  0
   44.6610   35.0960   45.7050 N   0  0  0  0  0  0  0  0  0  0  0  0
   46.8630   34.7500   42.0890 C   0  0  0  0  0  0  0  0  0  0  0  0
   46.4210   34.0830   40.9650 C   0  0  0  0  0  0  0  0  0  0  0  0
   47.4270   34.1860   40.0630 N   0  0  0  0  0  0  0  0  0  0  0  0
   48.4410   34.8970   40.6400 C   0  0  0  0  0  0  0  0  0  0  0  0
   48.0790   35.2390   41.8920 N   0  0  0  0  0  0  0  0  0  0  0  0
   44.0591   33.4405   47.7232 H   0  0  0  0  0  0  0  0  0  0  0  0
   45.1220   31.6380   49.3909 H   0  0  0  0  0  0  0  0  0  0  0  0
   49.4905   28.1536   48.6911 H   0  0  0  0  0  0  0  0  0  0  0  0
   48.9936   32.2606   49.6392 H   0  0  0  0  0  0  0  0  0  0  0  0
   50.5542   30.1256   50.0463 H   0  0  0  0  0  0  0  0  0  0  0  0
   43.6457   36.7205   44.8026 H   0  0  0  0  0  0  0  0  0  0  0  0
   44.9054   36.5794   42.6410 H   0  0  0  0  0  0  0  0  0  0  0  0
   45.4550   33.5745   40.8296 H   0  0  0  0  0  0  0  0  0  0  0  0
   49.3981   35.1494   40.1601 H   0  0  0  0  0  0  0  0  0  0  0  0
   48.6402   35.7777   42.5671 H   0  0  0  0  0  0  0  0  0  0  0  0
  1  5  2  0
  1  2  1  0
  2  3  2  0
  4  8  1  0
  4  3  1  0
  5  4  1  0
  6 10  1  0
  7  8  2  0
  7  6  1  0
  8  9  1  0
  9 10  2  0
 11 16  2  0
 12 11  1  0
 13 12  2  0
 13 14  1  0
 14 15  2  0
 15 16  1  0
 15  1  1  0
 17 13  1  0
 18 17  2  0
 19 20  2  0
 19 18  1  0
 20 21  1  0
 21 17  1  0
  2 22  1  0
  3 23  1  0
  6 24  1  0
  9 25  1  0
 10 26  1  0
 11 27  1  0
 12 28  1  0
 18 29  1  0
 20 30  1  0
 21 31  1  0
M  ISO  8  22  14  23  14  24   9  25  14  26  14  27  14  28  14  29  14
M  ISO  2  30  14  31   9
M  END
>  <minimizedAffinity>  (1) 
-6.55141544

>  <minimizedRMSD>  (1) 
0.570034981

$$$$
