
     RDKit          3D

 29 32  0  0  0  0  0  0  0  0999 V2000
   45.9420   33.2630   46.5040 C   0  0  0  0  0  0  0  0  0  0  0  0
   45.0540   33.0600   47.5240 C   0  0  0  0  0  0  0  0  0  0  0  0
   45.5830   32.1360   48.4030 C   0  0  0  0  0  0  0  0  0  0  0  0
   46.7870   31.7960   47.8930 N   0  0  0  0  0  0  0  0  0  0  0  0
   47.0030   32.4650   46.7660 N   0  0  0  0  0  0  0  0  0  0  0  0
   49.0640   29.1500   48.7010 N   0  0  0  0  0  0  0  0  0  0  0  0
   47.9660   29.5840   48.0650 N   0  0  0  0  0  0  0  0  0  0  0  0
   47.8010   30.9000   48.3350 C   0  0  0  0  0  0  0  0  0  0  0  0
   48.8360   31.3070   49.1740 C   0  0  0  0  0  0  0  0  0  0  0  0
   49.6140   30.1930   49.3880 C   0  0  0  0  0  0  0  0  0  0  0  0
   44.4380   35.9680   44.5280 C   0  0  0  0  0  0  0  0  0  0  0  0
   45.1760   35.8890   43.3200 C   0  0  0  0  0  0  0  0  0  0  0  0
   46.1530   34.9220   43.2270 C   0  0  0  0  0  0  0  0  0  0  0  0
   46.3690   34.0950   44.2730 N   0  0  0  0  0  0  0  0  0  0  0  0
   45.6430   34.1940   45.4250 C   0  0  0  0  0  0  0  0  0  0  0  0
   44.6840   35.1190   45.5580 N   0  0  0  0  0  0  0  0  0  0  0  0
   46.9530   34.7790   42.0170 C   0  0  0  0  0  0  0  0  0  0  0  0
   48.1710   35.2400   41.6790 N   0  0  0  0  0  0  0  0  0  0  0  0
   48.5160   34.8820   40.4980 O   0  0  0  0  0  0  0  0  0  0  0  0
   47.5180   34.1600   40.0140 C   0  0  0  0  0  0  0  0  0  0  0  0
   46.5170   34.0730   40.9360 N   0  0  0  0  0  0  0  0  0  0  0  0
   44.0762   33.5532   47.6274 H   0  0  0  0  0  0  0  0  0  0  0  0
   45.1207   31.7560   49.3259 H   0  0  0  0  0  0  0  0  0  0  0  0
   49.4315   28.1882   48.6752 H   0  0  0  0  0  0  0  0  0  0  0  0
   48.9983   32.3153   49.5827 H   0  0  0  0  0  0  0  0  0  0  0  0
   50.5228   30.1502   50.0063 H   0  0  0  0  0  0  0  0  0  0  0  0
   43.6523   36.7307   44.6323 H   0  0  0  0  0  0  0  0  0  0  0  0
   44.9753   36.5766   42.4852 H   0  0  0  0  0  0  0  0  0  0  0  0
   47.4988   33.6984   39.0157 H   0  0  0  0  0  0  0  0  0  0  0  0
  1  5  2  0
  1  2  1  0
  2  3  2  0
  4  8  1  0
  4  3  1  0
  5  4  1  0
  6 10  1  0
  7  8  2  0
  7  6  1  0
  8  9  1  0
  9 10  2  0
 11 16  2  0
 12 11  1  0
 13 12  2  0
 13 14  1  0
 14 15  2  0
 15 16  1  0
 15  1  1  0
 17 13  1  0
 18 17  2  0
 19 18  1  0
 20 19  1  0
 20 21  2  0
 21 17  1  0
  2 22  1  0
  3 23  1  0
  6 24  1  0
  9 25  1  0
 10 26  1  0
 11 27  1  0
 12 28  1  0
 20 29  1  0
M  ISO  8  22  14  23  14  24   9  25  14  26  14  27  14  28  14  29  14
M  END
>  <minimizedAffinity>  (1) 
-6.52033138

>  <minimizedRMSD>  (1) 
0.562211096

$$$$
