
     RDKit          3D

 30 33  0  0  0  0  0  0  0  0999 V2000
   45.9520   33.1700   46.5950 C   0  0  0  0  0  0  0  0  0  0  0  0
   45.0610   32.9560   47.6330 C   0  0  0  0  0  0  0  0  0  0  0  0
   45.5900   32.0250   48.5070 C   0  0  0  0  0  0  0  0  0  0  0  0
   46.8010   31.6980   47.9690 N   0  0  0  0  0  0  0  0  0  0  0  0
   47.0300   32.3700   46.8340 N   0  0  0  0  0  0  0  0  0  0  0  0
   49.0950   29.0370   48.7400 N   0  0  0  0  0  0  0  0  0  0  0  0
   48.0110   29.4870   48.1160 N   0  0  0  0  0  0  0  0  0  0  0  0
   47.8170   30.7970   48.4000 C   0  0  0  0  0  0  0  0  0  0  0  0
   48.8360   31.1980   49.2480 C   0  0  0  0  0  0  0  0  0  0  0  0
   49.6150   30.0670   49.4380 C   0  0  0  0  0  0  0  0  0  0  0  0
   44.4470   35.8920   44.6600 C   0  0  0  0  0  0  0  0  0  0  0  0
   45.1280   35.7900   43.4320 C   0  0  0  0  0  0  0  0  0  0  0  0
   46.0750   34.7990   43.3150 C   0  0  0  0  0  0  0  0  0  0  0  0
   46.3140   33.9740   44.3590 N   0  0  0  0  0  0  0  0  0  0  0  0
   45.6240   34.1120   45.5350 C   0  0  0  0  0  0  0  0  0  0  0  0
   44.7010   35.0550   45.6960 N   0  0  0  0  0  0  0  0  0  0  0  0
   46.8660   34.5450   42.1450 N   0  0  0  0  0  0  0  0  0  0  0  0
   46.8840   33.6550   41.1350 C   0  0  0  0  0  0  0  0  0  0  0  0
   47.9020   33.9510   40.3210 N   0  0  0  0  0  0  0  0  0  0  0  0
   48.5330   35.0200   40.8000 C   0  0  0  0  0  0  0  0  0  0  0  0
   47.8790   35.3830   41.9370 N   0  0  0  0  0  0  0  0  0  0  0  0
   44.0845   33.4499   47.7447 H   0  0  0  0  0  0  0  0  0  0  0  0
   45.1363   31.6348   49.4300 H   0  0  0  0  0  0  0  0  0  0  0  0
   49.4689   28.0782   48.6981 H   0  0  0  0  0  0  0  0  0  0  0  0
   48.9933   32.1982   49.6780 H   0  0  0  0  0  0  0  0  0  0  0  0
   50.5191   30.0174   50.0627 H   0  0  0  0  0  0  0  0  0  0  0  0
   43.6848   36.6755   44.7828 H   0  0  0  0  0  0  0  0  0  0  0  0
   44.9115   36.4754   42.5993 H   0  0  0  0  0  0  0  0  0  0  0  0
   46.1779   32.8222   41.0017 H   0  0  0  0  0  0  0  0  0  0  0  0
   49.4126   35.5144   40.3620 H   0  0  0  0  0  0  0  0  0  0  0  0
  1  5  2  0
  1  2  1  0
  2  3  2  0
  4  8  1  0
  4  3  1  0
  5  4  1  0
  6 10  1  0
  7  8  2  0
  7  6  1  0
  8  9  1  0
  9 10  2  0
 11 16  2  0
 12 11  1  0
 13 12  2  0
 13 14  1  0
 14 15  2  0
 15 16  1  0
 15  1  1  0
 17 13  1  0
 18 17  1  0
 19 20  1  0
 19 18  2  0
 20 21  2  0
 21 17  1  0
  2 22  1  0
  3 23  1  0
  6 24  1  0
  9 25  1  0
 10 26  1  0
 11 27  1  0
 12 28  1  0
 18 29  1  0
 20 30  1  0
M  ISO  8  22  14  23  14  24   9  25  14  26  14  27  14  28  14  29  14
M  ISO  1  30  14
M  END
>  <minimizedAffinity>  (1) 
-6.40690756

>  <minimizedRMSD>  (1) 
0.389568478

$$$$
