
     RDKit          3D

 26 28  0  0  0  0  0  0  0  0999 V2000
   45.9780   33.1500   46.5890 C   0  0  0  0  0  0  0  0  0  0  0  0
   45.0890   32.9550   47.6210 C   0  0  0  0  0  0  0  0  0  0  0  0
   45.6110   32.0390   48.5090 C   0  0  0  0  0  0  0  0  0  0  0  0
   46.8260   31.6960   47.9840 N   0  0  0  0  0  0  0  0  0  0  0  0
   47.0350   32.3530   46.8570 N   0  0  0  0  0  0  0  0  0  0  0  0
   49.0990   29.0570   48.8300 N   0  0  0  0  0  0  0  0  0  0  0  0
   48.0200   29.4930   48.1780 N   0  0  0  0  0  0  0  0  0  0  0  0
   47.8340   30.7970   48.4420 C   0  0  0  0  0  0  0  0  0  0  0  0
   48.8440   31.2140   49.3050 C   0  0  0  0  0  0  0  0  0  0  0  0
   49.6200   30.0880   49.5240 C   0  0  0  0  0  0  0  0  0  0  0  0
   44.4900   35.8490   44.5980 C   0  0  0  0  0  0  0  0  0  0  0  0
   45.2120   35.7390   43.3910 C   0  0  0  0  0  0  0  0  0  0  0  0
   46.1780   34.7580   43.2880 C   0  0  0  0  0  0  0  0  0  0  0  0
   46.3750   33.9550   44.3570 N   0  0  0  0  0  0  0  0  0  0  0  0
   45.6770   34.0700   45.5070 C   0  0  0  0  0  0  0  0  0  0  0  0
   44.7380   35.0080   45.6400 N   0  0  0  0  0  0  0  0  0  0  0  0
   46.9690   34.5870   42.0550 C   0  0  0  0  0  0  0  0  0  0  0  0
   47.9130   35.4000   41.8480 O   0  0  0  0  0  0  0  0  0  0  0  0
   44.1133   33.4528   47.7217 H   0  0  0  0  0  0  0  0  0  0  0  0
   45.1512   31.6660   49.4361 H   0  0  0  0  0  0  0  0  0  0  0  0
   49.4704   28.0966   48.8069 H   0  0  0  0  0  0  0  0  0  0  0  0
   48.9933   32.2206   49.7227 H   0  0  0  0  0  0  0  0  0  0  0  0
   50.5158   30.0426   50.1608 H   0  0  0  0  0  0  0  0  0  0  0  0
   43.7164   36.6245   44.6988 H   0  0  0  0  0  0  0  0  0  0  0  0
   45.0098   36.4196   42.5508 H   0  0  0  0  0  0  0  0  0  0  0  0
   46.7448   33.7804   41.3414 H   0  0  0  0  0  0  0  0  0  0  0  0
  1  5  2  0
  1  2  1  0
  2  3  2  0
  4  8  1  0
  4  3  1  0
  5  4  1  0
  6 10  1  0
  7  8  2  0
  7  6  1  0
  8  9  1  0
  9 10  2  0
 11 16  2  0
 12 11  1  0
 13 12  2  0
 13 14  1  0
 14 15  2  0
 15 16  1  0
 15  1  1  0
 17 13  1  0
 18 17  2  0
  2 19  1  0
  3 20  1  0
  6 21  1  0
  9 22  1  0
 10 23  1  0
 11 24  1  0
 12 25  1  0
 17 26  1  0
M  ISO  8  19  14  20  14  21   9  22  14  23  14  24  14  25  14  26   6
M  END
>  <minimizedAffinity>  (1) 
-5.73062944

>  <minimizedRMSD>  (1) 
0.0868865401

$$$$
