
     RDKit          3D

 25 27  0  0  0  0  0  0  0  0999 V2000
   45.9680   33.1620   46.5970 C   0  0  0  0  0  0  0  0  0  0  0  0
   45.0940   32.9640   47.6270 C   0  0  0  0  0  0  0  0  0  0  0  0
   45.6290   32.0480   48.5170 C   0  0  0  0  0  0  0  0  0  0  0  0
   46.8260   31.7090   48.0020 N   0  0  0  0  0  0  0  0  0  0  0  0
   47.0440   32.3600   46.8630 N   0  0  0  0  0  0  0  0  0  0  0  0
   49.1270   29.0790   48.8380 N   0  0  0  0  0  0  0  0  0  0  0  0
   48.0290   29.5110   48.1970 N   0  0  0  0  0  0  0  0  0  0  0  0
   47.8400   30.8200   48.4480 C   0  0  0  0  0  0  0  0  0  0  0  0
   48.8750   31.2490   49.2970 C   0  0  0  0  0  0  0  0  0  0  0  0
   49.6580   30.1330   49.5160 C   0  0  0  0  0  0  0  0  0  0  0  0
   44.4980   35.8410   44.5970 C   0  0  0  0  0  0  0  0  0  0  0  0
   45.2030   35.7270   43.3830 C   0  0  0  0  0  0  0  0  0  0  0  0
   46.1580   34.7410   43.2820 C   0  0  0  0  0  0  0  0  0  0  0  0
   46.3650   33.9380   44.3510 N   0  0  0  0  0  0  0  0  0  0  0  0
   45.6660   34.0750   45.5140 C   0  0  0  0  0  0  0  0  0  0  0  0
   44.7210   35.0270   45.6570 N   0  0  0  0  0  0  0  0  0  0  0  0
   47.1060   34.5110   41.7850 S   0  0  0  0  0  0  0  0  0  0  0  0
   44.1160   33.4561   47.7334 H   0  0  0  0  0  0  0  0  0  0  0  0
   45.1732   31.6765   49.4466 H   0  0  0  0  0  0  0  0  0  0  0  0
   49.5013   28.1196   48.8198 H   0  0  0  0  0  0  0  0  0  0  0  0
   49.0287   32.2603   49.7015 H   0  0  0  0  0  0  0  0  0  0  0  0
   50.5647   30.1009   50.1381 H   0  0  0  0  0  0  0  0  0  0  0  0
   43.7325   36.6256   44.6886 H   0  0  0  0  0  0  0  0  0  0  0  0
   44.9968   36.4050   42.5417 H   0  0  0  0  0  0  0  0  0  0  0  0
   48.3999   34.1971   42.1076 H   0  0  0  0  0  0  0  0  0  0  0  0
  1  5  2  0
  1  2  1  0
  2  3  2  0
  4  8  1  0
  4  3  1  0
  5  4  1  0
  6 10  1  0
  7  8  2  0
  7  6  1  0
  8  9  1  0
  9 10  2  0
 11 16  2  0
 12 11  1  0
 13 12  2  0
 13 14  1  0
 14 15  2  0
 15 16  1  0
 15  1  1  0
 17 13  1  0
  2 18  1  0
  3 19  1  0
  6 20  1  0
  9 21  1  0
 10 22  1  0
 11 23  1  0
 12 24  1  0
 17 25  1  0
M  ISO  8  18  14  19  14  20   9  21  14  22  14  23  14  24  14  25  11
M  END
>  <minimizedAffinity>  (1) 
-5.69883871

>  <minimizedRMSD>  (1) 
0.0748337135

$$$$
