
     RDKit          3D

 27 29  0  0  0  0  0  0  0  0999 V2000
   45.9860   33.1700   46.5640 C   0  0  0  0  0  0  0  0  0  0  0  0
   45.0910   32.9780   47.6020 C   0  0  0  0  0  0  0  0  0  0  0  0
   45.6050   32.0670   48.4930 C   0  0  0  0  0  0  0  0  0  0  0  0
   46.8100   31.7160   47.9810 N   0  0  0  0  0  0  0  0  0  0  0  0
   47.0370   32.3700   46.8360 N   0  0  0  0  0  0  0  0  0  0  0  0
   49.0990   29.0790   48.8220 N   0  0  0  0  0  0  0  0  0  0  0  0
   48.0120   29.5140   48.1800 N   0  0  0  0  0  0  0  0  0  0  0  0
   47.8170   30.8220   48.4300 C   0  0  0  0  0  0  0  0  0  0  0  0
   48.8400   31.2340   49.2780 C   0  0  0  0  0  0  0  0  0  0  0  0
   49.6220   30.1230   49.5020 C   0  0  0  0  0  0  0  0  0  0  0  0
   44.4850   35.8630   44.5810 C   0  0  0  0  0  0  0  0  0  0  0  0
   45.1900   35.7580   43.3680 C   0  0  0  0  0  0  0  0  0  0  0  0
   46.1590   34.7670   43.2660 C   0  0  0  0  0  0  0  0  0  0  0  0
   46.3780   33.9570   44.3290 N   0  0  0  0  0  0  0  0  0  0  0  0
   45.6740   34.0900   45.4870 C   0  0  0  0  0  0  0  0  0  0  0  0
   44.7380   35.0280   45.6180 N   0  0  0  0  0  0  0  0  0  0  0  0
   46.9720   34.5620   42.0240 C   0  0  0  0  0  0  0  0  0  0  0  0
   44.1163   33.4786   47.6990 H   0  0  0  0  0  0  0  0  0  0  0  0
   45.1397   31.7018   49.4204 H   0  0  0  0  0  0  0  0  0  0  0  0
   49.4721   28.1192   48.8024 H   0  0  0  0  0  0  0  0  0  0  0  0
   48.9932   32.2436   49.6870 H   0  0  0  0  0  0  0  0  0  0  0  0
   50.5239   30.0907   50.1309 H   0  0  0  0  0  0  0  0  0  0  0  0
   43.7127   36.6387   44.6899 H   0  0  0  0  0  0  0  0  0  0  0  0
   44.9812   36.4375   42.5285 H   0  0  0  0  0  0  0  0  0  0  0  0
   48.0044   34.3017   42.3004 H   0  0  0  0  0  0  0  0  0  0  0  0
   46.5346   33.7460   41.4300 H   0  0  0  0  0  0  0  0  0  0  0  0
   46.9738   35.4878   41.4300 H   0  0  0  0  0  0  0  0  0  0  0  0
  1  5  2  0
  1  2  1  0
  2  3  2  0
  4  8  1  0
  4  3  1  0
  5  4  1  0
  6 10  1  0
  7  8  2  0
  7  6  1  0
  8  9  1  0
  9 10  2  0
 11 16  2  0
 12 11  1  0
 13 12  2  0
 13 14  1  0
 14 15  2  0
 15 16  1  0
 15  1  1  0
 17 13  1  0
  2 18  1  0
  3 19  1  0
  6 20  1  0
  9 21  1  0
 10 22  1  0
 11 23  1  0
 12 24  1  0
 17 25  1  0
 17 26  1  0
 17 27  1  0
M  ISO  8  18  14  19  14  20   9  21  14  22  14  23  14  24  14  25   8
M  ISO  2  26   8  27   8
M  END
>  <minimizedAffinity>  (1) 
-5.78787374

>  <minimizedRMSD>  (1) 
0.0920708254

$$$$
