
     RDKit          3D

 25 27  0  0  0  0  0  0  0  0999 V2000
   46.0020   33.1590   46.5850 C   0  0  0  0  0  0  0  0  0  0  0  0
   45.1040   32.9560   47.6180 C   0  0  0  0  0  0  0  0  0  0  0  0
   45.6260   32.0480   48.5160 C   0  0  0  0  0  0  0  0  0  0  0  0
   46.8310   31.7160   48.0100 N   0  0  0  0  0  0  0  0  0  0  0  0
   47.0630   32.3700   46.8650 N   0  0  0  0  0  0  0  0  0  0  0  0
   49.1210   29.0790   48.8630 N   0  0  0  0  0  0  0  0  0  0  0  0
   48.0410   29.5240   48.2280 N   0  0  0  0  0  0  0  0  0  0  0  0
   47.8470   30.8290   48.4710 C   0  0  0  0  0  0  0  0  0  0  0  0
   48.8670   31.2420   49.3130 C   0  0  0  0  0  0  0  0  0  0  0  0
   49.6450   30.1340   49.5420 C   0  0  0  0  0  0  0  0  0  0  0  0
   44.4940   35.8350   44.5970 C   0  0  0  0  0  0  0  0  0  0  0  0
   45.1940   35.7260   43.3800 C   0  0  0  0  0  0  0  0  0  0  0  0
   46.1560   34.7410   43.2820 C   0  0  0  0  0  0  0  0  0  0  0  0
   46.3870   33.9300   44.3460 N   0  0  0  0  0  0  0  0  0  0  0  0
   45.6790   34.0760   45.5110 C   0  0  0  0  0  0  0  0  0  0  0  0
   44.7440   35.0110   45.6460 N   0  0  0  0  0  0  0  0  0  0  0  0
   46.9040   34.5570   42.1110 O   0  0  0  0  0  0  0  0  0  0  0  0
   44.1227   33.4445   47.7093 H   0  0  0  0  0  0  0  0  0  0  0  0
   45.1614   31.6765   49.4413 H   0  0  0  0  0  0  0  0  0  0  0  0
   49.4905   28.1177   48.8441 H   0  0  0  0  0  0  0  0  0  0  0  0
   49.0222   32.2535   49.7166 H   0  0  0  0  0  0  0  0  0  0  0  0
   50.5459   30.1047   50.1724 H   0  0  0  0  0  0  0  0  0  0  0  0
   43.7215   36.6112   44.7005 H   0  0  0  0  0  0  0  0  0  0  0  0
   44.9819   36.4013   42.5380 H   0  0  0  0  0  0  0  0  0  0  0  0
   47.5880   33.8426   42.0677 H   0  0  0  0  0  0  0  0  0  0  0  0
  1  5  2  0
  1  2  1  0
  2  3  2  0
  4  8  1  0
  4  3  1  0
  5  4  1  0
  6 10  1  0
  7  8  2  0
  7  6  1  0
  8  9  1  0
  9 10  2  0
 11 16  2  0
 12 11  1  0
 13 12  2  0
 13 14  1  0
 14 15  2  0
 15 16  1  0
 15  1  1  0
 17 13  1  0
  2 18  1  0
  3 19  1  0
  6 20  1  0
  9 21  1  0
 10 22  1  0
 11 23  1  0
 12 24  1  0
 17 25  1  0
M  ISO  8  18  14  19  14  20   9  21  14  22  14  23  14  24  14  25   3
M  END
>  <minimizedAffinity>  (1) 
-5.66773558

>  <minimizedRMSD>  (1) 
0.0605342425

$$$$
