
     RDKit          3D

 30 32  0  0  0  0  0  0  0  0999 V2000
   46.0000   33.2820   46.3990 C   0  0  0  0  0  0  0  0  0  0  0  0
   45.1070   33.1520   47.4490 C   0  0  0  0  0  0  0  0  0  0  0  0
   45.6030   32.2600   48.3720 C   0  0  0  0  0  0  0  0  0  0  0  0
   46.7920   31.8610   47.8670 N   0  0  0  0  0  0  0  0  0  0  0  0
   47.0320   32.4640   46.6990 N   0  0  0  0  0  0  0  0  0  0  0  0
   48.9920   29.1770   48.7910 N   0  0  0  0  0  0  0  0  0  0  0  0
   47.9160   29.6230   48.1370 N   0  0  0  0  0  0  0  0  0  0  0  0
   47.7750   30.9550   48.3490 C   0  0  0  0  0  0  0  0  0  0  0  0
   48.8080   31.3670   49.1750 C   0  0  0  0  0  0  0  0  0  0  0  0
   49.5500   30.2320   49.4340 C   0  0  0  0  0  0  0  0  0  0  0  0
   44.5370   35.9090   44.3090 C   0  0  0  0  0  0  0  0  0  0  0  0
   45.2560   35.7610   43.1070 C   0  0  0  0  0  0  0  0  0  0  0  0
   46.2170   34.7660   43.0550 C   0  0  0  0  0  0  0  0  0  0  0  0
   46.4250   33.9890   44.1430 N   0  0  0  0  0  0  0  0  0  0  0  0
   45.6970   34.1750   45.2900 C   0  0  0  0  0  0  0  0  0  0  0  0
   44.7660   35.1170   45.3830 N   0  0  0  0  0  0  0  0  0  0  0  0
   47.0310   34.5280   41.8310 C   0  0  0  0  0  0  0  0  0  0  0  0
   48.2510   35.4170   41.9250 C   0  0  0  0  0  0  0  0  0  0  0  0
   44.1465   33.6815   47.5327 H   0  0  0  0  0  0  0  0  0  0  0  0
   45.1344   31.9412   49.3148 H   0  0  0  0  0  0  0  0  0  0  0  0
   49.3359   28.2062   48.8043 H   0  0  0  0  0  0  0  0  0  0  0  0
   48.9973   32.3849   49.5465 H   0  0  0  0  0  0  0  0  0  0  0  0
   50.4516   30.1903   50.0628 H   0  0  0  0  0  0  0  0  0  0  0  0
   43.7666   36.6912   44.3772 H   0  0  0  0  0  0  0  0  0  0  0  0
   45.0612   36.4118   42.2418 H   0  0  0  0  0  0  0  0  0  0  0  0
   46.4469   34.7832   40.9345 H   0  0  0  0  0  0  0  0  0  0  0  0
   47.3236   33.4703   41.7564 H   0  0  0  0  0  0  0  0  0  0  0  0
   48.4947   35.5946   42.9829 H   0  0  0  0  0  0  0  0  0  0  0  0
   49.1017   34.9256   41.4302 H   0  0  0  0  0  0  0  0  0  0  0  0
   48.0439   36.3774   41.4302 H   0  0  0  0  0  0  0  0  0  0  0  0
  1  5  2  0
  1  2  1  0
  2  3  2  0
  4  8  1  0
  4  3  1  0
  5  4  1  0
  6 10  1  0
  7  8  2  0
  7  6  1  0
  8  9  1  0
  9 10  2  0
 11 16  2  0
 12 11  1  0
 13 12  2  0
 13 14  1  0
 14 15  2  0
 15 16  1  0
 15  1  1  0
 17 18  1  0
 17 13  1  0
  2 19  1  0
  3 20  1  0
  6 21  1  0
  9 22  1  0
 10 23  1  0
 11 24  1  0
 12 25  1  0
 17 26  1  0
 17 27  1  0
 18 28  1  0
 18 29  1  0
 18 30  1  0
M  ISO  8  19  14  20  14  21   9  22  14  23  14  24  14  25  14  26   8
M  ISO  4  27   8  28   8  29   8  30   8
M  END
>  <minimizedAffinity>  (1) 
-5.93016958

>  <minimizedRMSD>  (1) 
0.415117741

$$$$
