
     RDKit          3D

 37 39  0  0  0  0  0  0  0  0999 V2000
   44.5020   35.8140   44.3420 C   0  0  0  0  0  0  0  0  0  0  0  0
   44.7180   35.2850   43.0620 C   0  0  0  0  0  0  0  0  0  0  0  0
   45.3220   34.0430   42.9660 C   0  0  0  0  0  0  0  0  0  0  0  0
   45.6800   33.3870   44.0940 N   0  0  0  0  0  0  0  0  0  0  0  0
   45.4490   33.9440   45.3210 C   0  0  0  0  0  0  0  0  0  0  0  0
   44.8690   35.1400   45.4580 N   0  0  0  0  0  0  0  0  0  0  0  0
   45.8650   33.1670   46.4760 C   0  0  0  0  0  0  0  0  0  0  0  0
   45.0750   33.1230   47.6140 C   0  0  0  0  0  0  0  0  0  0  0  0
   45.6780   32.3280   48.5640 C   0  0  0  0  0  0  0  0  0  0  0  0
   46.8150   31.9040   47.9930 N   0  0  0  0  0  0  0  0  0  0  0  0
   46.9460   32.3900   46.7560 N   0  0  0  0  0  0  0  0  0  0  0  0
   49.1680   29.3580   48.9490 N   0  0  0  0  0  0  0  0  0  0  0  0
   48.0290   29.7190   48.3620 N   0  0  0  0  0  0  0  0  0  0  0  0
   47.8620   31.0610   48.4610 C   0  0  0  0  0  0  0  0  0  0  0  0
   48.9580   31.5730   49.1500 C   0  0  0  0  0  0  0  0  0  0  0  0
   49.7480   30.4780   49.4360 C   0  0  0  0  0  0  0  0  0  0  0  0
   45.5900   33.3980   41.6380 C   0  0  0  0  0  0  0  0  0  0  0  0
   46.6190   34.2320   40.9470 C   0  0  0  0  0  0  0  0  0  0  0  0
   46.5810   33.9980   39.5260 N   0  0  0  0  0  0  0  0  0  0  0  0
   47.7220   34.0350   38.6980 C   0  0  0  0  0  0  0  0  0  0  0  0
   48.8740   33.7690   39.1980 N   0  0  0  0  0  0  0  0  0  0  0  0
   47.5940   34.3670   37.3180 N   0  0  0  0  0  0  0  0  0  0  0  0
   49.7220   33.7960   38.5920 H   0  0  0  0  0  0  0  0  0  0  0  0
   44.0234   36.7993   44.4424 H   0  0  0  0  0  0  0  0  0  0  0  0
   44.4168   35.8398   42.1612 H   0  0  0  0  0  0  0  0  0  0  0  0
   44.1139   33.6431   47.7394 H   0  0  0  0  0  0  0  0  0  0  0  0
   45.3072   32.0921   49.5724 H   0  0  0  0  0  0  0  0  0  0  0  0
   49.5397   28.4000   49.0193 H   0  0  0  0  0  0  0  0  0  0  0  0
   49.1525   32.6239   49.4104 H   0  0  0  0  0  0  0  0  0  0  0  0
   50.7046   30.5115   49.9780 H   0  0  0  0  0  0  0  0  0  0  0  0
   45.9684   32.3755   41.7842 H   0  0  0  0  0  0  0  0  0  0  0  0
   44.6693   33.3348   41.0394 H   0  0  0  0  0  0  0  0  0  0  0  0
   46.4172   35.2950   41.1451 H   0  0  0  0  0  0  0  0  0  0  0  0
   47.6145   33.9598   41.3277 H   0  0  0  0  0  0  0  0  0  0  0  0
   45.6704   33.7924   39.0908 H   0  0  0  0  0  0  0  0  0  0  0  0
   46.6666   34.5794   36.9233 H   0  0  0  0  0  0  0  0  0  0  0  0
   48.4288   34.3946   36.7154 H   0  0  0  0  0  0  0  0  0  0  0  0
  1  6  2  0
  2  1  1  0
  3  2  2  0
  3  4  1  0
  4  5  2  0
  5  6  1  0
  5  7  1  0
  7 11  2  0
  7  8  1  0
  8  9  2  0
 10 14  1  0
 10  9  1  0
 11 10  1  0
 12 16  1  0
 13 14  2  0
 13 12  1  0
 14 15  1  0
 15 16  2  0
 17  3  1  0
 18 17  1  0
 19 18  1  0
 20 21  2  0
 20 19  1  0
 22 20  1  0
 23 21  1  0
  1 24  1  0
  2 25  1  0
  8 26  1  0
  9 27  1  0
 12 28  1  0
 15 29  1  0
 16 30  1  0
 17 31  1  0
 17 32  1  0
 18 33  1  0
 18 34  1  0
 19 35  1  0
 22 36  1  0
 22 37  1  0
M  ISO  8  24  14  25  14  26  14  27  14  28   9  29  14  30  14  31   8
M  ISO  3  32   8  33   8  34   8
M  END
>  <minimizedAffinity>  (1) 
-6.2620635

>  <minimizedRMSD>  (1) 
1.74956155

$$$$
