
     RDKit          3D

 43 46  0  0  0  0  0  0  0  0999 V2000
   44.4100   35.9860   44.7210 C   0  0  0  0  0  0  0  0  0  0  0  0
   44.9020   35.7570   43.4200 C   0  0  0  0  0  0  0  0  0  0  0  0
   45.7250   34.6480   43.2280 C   0  0  0  0  0  0  0  0  0  0  0  0
   46.0100   33.8530   44.2800 N   0  0  0  0  0  0  0  0  0  0  0  0
   45.5020   34.1270   45.5220 C   0  0  0  0  0  0  0  0  0  0  0  0
   44.7190   35.1650   45.7490 N   0  0  0  0  0  0  0  0  0  0  0  0
   45.8760   33.2010   46.5810 C   0  0  0  0  0  0  0  0  0  0  0  0
   45.0170   32.9920   47.6580 C   0  0  0  0  0  0  0  0  0  0  0  0
   45.5720   32.0850   48.5300 C   0  0  0  0  0  0  0  0  0  0  0  0
   46.7630   31.7500   47.9760 N   0  0  0  0  0  0  0  0  0  0  0  0
   46.9430   32.4100   46.8260 N   0  0  0  0  0  0  0  0  0  0  0  0
   49.1040   29.1460   48.7390 N   0  0  0  0  0  0  0  0  0  0  0  0
   47.9820   29.5630   48.1260 N   0  0  0  0  0  0  0  0  0  0  0  0
   47.7910   30.8700   48.3890 C   0  0  0  0  0  0  0  0  0  0  0  0
   48.8350   31.3010   49.2050 C   0  0  0  0  0  0  0  0  0  0  0  0
   49.6390   30.2070   49.4070 C   0  0  0  0  0  0  0  0  0  0  0  0
   46.2920   34.3240   41.8920 C   0  0  0  0  0  0  0  0  0  0  0  0
   47.6630   34.9840   41.8210 C   0  0  0  0  0  0  0  0  0  0  0  0
   48.4450   34.2290   40.7770 C   0  0  0  0  0  0  0  0  0  0  0  0
   47.6950   34.0220   39.4960 C   0  0  0  0  0  0  0  0  0  0  0  0
   48.6370   33.0480   38.7780 C   0  0  0  0  0  0  0  0  0  0  0  0
   49.3520   32.2820   39.8910 C   0  0  0  0  0  0  0  0  0  0  0  0
   48.7260   32.8030   41.1920 C   0  0  0  0  0  0  0  0  0  0  0  0
   43.7590   36.8537   44.9038 H   0  0  0  0  0  0  0  0  0  0  0  0
   44.6461   36.4284   42.5871 H   0  0  0  0  0  0  0  0  0  0  0  0
   44.0402   33.4800   47.7909 H   0  0  0  0  0  0  0  0  0  0  0  0
   45.1430   31.7125   49.4719 H   0  0  0  0  0  0  0  0  0  0  0  0
   49.4913   28.1920   48.7090 H   0  0  0  0  0  0  0  0  0  0  0  0
   48.9847   32.3141   49.6065 H   0  0  0  0  0  0  0  0  0  0  0  0
   50.5606   30.1894   50.0073 H   0  0  0  0  0  0  0  0  0  0  0  0
   46.3903   33.2345   41.7770 H   0  0  0  0  0  0  0  0  0  0  0  0
   45.6371   34.6894   41.0873 H   0  0  0  0  0  0  0  0  0  0  0  0
   47.5622   36.0403   41.5309 H   0  0  0  0  0  0  0  0  0  0  0  0
   48.1701   34.9561   42.7968 H   0  0  0  0  0  0  0  0  0  0  0  0
   49.3421   34.8540   40.6558 H   0  0  0  0  0  0  0  0  0  0  0  0
   46.7054   33.5752   39.6720 H   0  0  0  0  0  0  0  0  0  0  0  0
   47.4755   34.9442   38.9380 H   0  0  0  0  0  0  0  0  0  0  0  0
   48.0645   32.3573   38.1415 H   0  0  0  0  0  0  0  0  0  0  0  0
   49.3462   33.5731   38.1213 H   0  0  0  0  0  0  0  0  0  0  0  0
   49.1836   31.2000   39.7864 H   0  0  0  0  0  0  0  0  0  0  0  0
   50.4412   32.4335   39.8651 H   0  0  0  0  0  0  0  0  0  0  0  0
   49.4299   32.7519   42.0358 H   0  0  0  0  0  0  0  0  0  0  0  0
   47.8532   32.2384   41.5516 H   0  0  0  0  0  0  0  0  0  0  0  0
  1  6  2  0
  2  1  1  0
  3  2  2  0
  3  4  1  0
  4  5  2  0
  5  6  1  0
  5  7  1  0
  7 11  2  0
  7  8  1  0
  8  9  2  0
 10 14  1  0
 10  9  1  0
 11 10  1  0
 12 16  1  0
 13 14  2  0
 13 12  1  0
 14 15  1  0
 15 16  2  0
 17  3  1  0
 18 17  1  0
 19 23  1  0
 19 18  1  0
 20 19  1  0
 21 20  1  0
 21 22  1  0
 22 23  1  0
  1 24  1  0
  2 25  1  0
  8 26  1  0
  9 27  1  0
 12 28  1  0
 15 29  1  0
 16 30  1  0
 17 31  1  0
 17 32  1  0
 18 33  1  0
 18 34  1  0
 19 35  1  0
 20 36  1  0
 20 37  1  0
 21 38  1  0
 21 39  1  0
 22 40  1  0
 22 41  1  0
 23 42  1  0
 23 43  1  0
M  ISO  8  24  14  25  14  26  14  27  14  28   9  29  14  30  14  31   8
M  ISO  8  32   8  33   8  34   8  35  13  36  13  37  13  38  13  39  13
M  ISO  4  40  13  41  13  42  13  43  13
M  END
>  <minimizedAffinity>  (1) 
-6.29758739

>  <minimizedRMSD>  (1) 
0.895770907

$$$$
