
     RDKit          3D

 37 40  0  0  0  0  0  0  0  0999 V2000
   44.5040   35.7950   44.5240 C   0  0  0  0  0  0  0  0  0  0  0  0
   44.8510   35.3830   43.2180 C   0  0  0  0  0  0  0  0  0  0  0  0
   45.5530   34.2050   43.0850 C   0  0  0  0  0  0  0  0  0  0  0  0
   45.8780   33.5000   44.1900 N   0  0  0  0  0  0  0  0  0  0  0  0
   45.5220   33.9360   45.4400 C   0  0  0  0  0  0  0  0  0  0  0  0
   44.8420   35.0720   45.6130 N   0  0  0  0  0  0  0  0  0  0  0  0
   45.9160   33.1090   46.5670 C   0  0  0  0  0  0  0  0  0  0  0  0
   45.1020   33.0000   47.6770 C   0  0  0  0  0  0  0  0  0  0  0  0
   45.6830   32.1710   48.6020 C   0  0  0  0  0  0  0  0  0  0  0  0
   46.8540   31.7810   48.0410 N   0  0  0  0  0  0  0  0  0  0  0  0
   46.9970   32.3360   46.8310 N   0  0  0  0  0  0  0  0  0  0  0  0
   49.1890   29.2030   48.9310 N   0  0  0  0  0  0  0  0  0  0  0  0
   48.0690   29.6010   48.3350 N   0  0  0  0  0  0  0  0  0  0  0  0
   47.8890   30.9330   48.4950 C   0  0  0  0  0  0  0  0  0  0  0  0
   48.9620   31.4120   49.2390 C   0  0  0  0  0  0  0  0  0  0  0  0
   49.7490   30.3020   49.4920 C   0  0  0  0  0  0  0  0  0  0  0  0
   45.9630   33.6870   41.7640 C   0  0  0  0  0  0  0  0  0  0  0  0
   47.2150   34.4430   41.3370 C   0  0  0  0  0  0  0  0  0  0  0  0
   47.3610   34.1310   39.8690 C   0  0  0  0  0  0  0  0  0  0  0  0
   46.6630   33.2770   39.0150 C   0  0  0  0  0  0  0  0  0  0  0  0
   47.2750   33.4330   37.7770 C   0  0  0  0  0  0  0  0  0  0  0  0
   48.3050   34.3670   37.9480 C   0  0  0  0  0  0  0  0  0  0  0  0
   48.3080   34.7470   39.2120 O   0  0  0  0  0  0  0  0  0  0  0  0
   43.9425   36.7314   44.6575 H   0  0  0  0  0  0  0  0  0  0  0  0
   44.5707   35.9814   42.3386 H   0  0  0  0  0  0  0  0  0  0  0  0
   44.1318   33.5033   47.8009 H   0  0  0  0  0  0  0  0  0  0  0  0
   45.2849   31.8843   49.5866 H   0  0  0  0  0  0  0  0  0  0  0  0
   49.5601   28.2426   48.9606 H   0  0  0  0  0  0  0  0  0  0  0  0
   49.1455   32.4488   49.5575 H   0  0  0  0  0  0  0  0  0  0  0  0
   50.6890   30.3106   50.0633 H   0  0  0  0  0  0  0  0  0  0  0  0
   46.1811   32.6112   41.8349 H   0  0  0  0  0  0  0  0  0  0  0  0
   45.1579   33.8292   41.0281 H   0  0  0  0  0  0  0  0  0  0  0  0
   47.0890   35.5244   41.4942 H   0  0  0  0  0  0  0  0  0  0  0  0
   48.1011   34.1475   41.9180 H   0  0  0  0  0  0  0  0  0  0  0  0
   45.8145   32.6236   39.2662 H   0  0  0  0  0  0  0  0  0  0  0  0
   47.0028   32.9212   36.8421 H   0  0  0  0  0  0  0  0  0  0  0  0
   48.9916   34.7218   37.1653 H   0  0  0  0  0  0  0  0  0  0  0  0
  1  6  2  0
  2  1  1  0
  3  2  2  0
  3  4  1  0
  4  5  2  0
  5  6  1  0
  5  7  1  0
  7 11  2  0
  7  8  1  0
  8  9  2  0
 10 14  1  0
 10  9  1  0
 11 10  1  0
 12 16  1  0
 13 14  2  0
 13 12  1  0
 14 15  1  0
 15 16  2  0
 17  3  1  0
 18 17  1  0
 19 18  1  0
 20 19  2  0
 21 22  2  0
 21 20  1  0
 22 23  1  0
 23 19  1  0
  1 24  1  0
  2 25  1  0
  8 26  1  0
  9 27  1  0
 12 28  1  0
 15 29  1  0
 16 30  1  0
 17 31  1  0
 17 32  1  0
 18 33  1  0
 18 34  1  0
 20 35  1  0
 21 36  1  0
 22 37  1  0
M  ISO  8  24  14  25  14  26  14  27  14  28   9  29  14  30  14  31   8
M  ISO  6  32   8  33   8  34   8  35  14  36  14  37  14
M  END
>  <minimizedAffinity>  (1) 
-6.21412706

>  <minimizedRMSD>  (1) 
1.29871452

$$$$
