
     RDKit          3D

 42 45  0  0  0  0  0  0  0  0999 V2000
   44.4100   35.9580   44.7220 C   0  0  0  0  0  0  0  0  0  0  0  0
   44.9960   35.7990   43.4520 C   0  0  0  0  0  0  0  0  0  0  0  0
   45.8860   34.7380   43.2910 C   0  0  0  0  0  0  0  0  0  0  0  0
   46.1530   33.9190   44.3310 N   0  0  0  0  0  0  0  0  0  0  0  0
   45.5470   34.1300   45.5460 C   0  0  0  0  0  0  0  0  0  0  0  0
   44.6880   35.1290   45.7490 N   0  0  0  0  0  0  0  0  0  0  0  0
   45.8870   33.2020   46.6080 C   0  0  0  0  0  0  0  0  0  0  0  0
   45.0210   32.9830   47.6620 C   0  0  0  0  0  0  0  0  0  0  0  0
   45.5760   32.0610   48.5320 C   0  0  0  0  0  0  0  0  0  0  0  0
   46.7720   31.7350   47.9910 N   0  0  0  0  0  0  0  0  0  0  0  0
   46.9640   32.4070   46.8500 N   0  0  0  0  0  0  0  0  0  0  0  0
   49.0980   29.1240   48.7600 N   0  0  0  0  0  0  0  0  0  0  0  0
   47.9830   29.5410   48.1360 N   0  0  0  0  0  0  0  0  0  0  0  0
   47.7950   30.8490   48.4110 C   0  0  0  0  0  0  0  0  0  0  0  0
   48.8330   31.2670   49.2420 C   0  0  0  0  0  0  0  0  0  0  0  0
   49.6280   30.1690   49.4410 C   0  0  0  0  0  0  0  0  0  0  0  0
   46.5510   34.4930   41.9910 C   0  0  0  0  0  0  0  0  0  0  0  0
   47.9820   34.9130   42.1210 C   0  0  0  0  0  0  0  0  0  0  0  0
   48.8570   33.9090   42.6730 N   0  0  0  0  0  0  0  0  0  0  0  0
   48.7450   32.6430   42.0220 C   0  0  0  0  0  0  0  0  0  0  0  0
   50.1270   32.0430   42.0880 C   0  0  0  0  0  0  0  0  0  0  0  0
   51.0930   33.1620   42.2840 C   0  0  0  0  0  0  0  0  0  0  0  0
   50.2120   34.3540   42.4420 C   0  0  0  0  0  0  0  0  0  0  0  0
   43.7026   36.7850   44.8820 H   0  0  0  0  0  0  0  0  0  0  0  0
   44.7618   36.4824   42.6224 H   0  0  0  0  0  0  0  0  0  0  0  0
   44.0415   33.4669   47.7899 H   0  0  0  0  0  0  0  0  0  0  0  0
   45.1380   31.6755   49.4645 H   0  0  0  0  0  0  0  0  0  0  0  0
   49.4849   28.1700   48.7263 H   0  0  0  0  0  0  0  0  0  0  0  0
   48.9836   32.2754   49.6549 H   0  0  0  0  0  0  0  0  0  0  0  0
   50.5429   30.1405   50.0511 H   0  0  0  0  0  0  0  0  0  0  0  0
   46.0588   35.0812   41.2025 H   0  0  0  0  0  0  0  0  0  0  0  0
   46.4866   33.4284   41.7218 H   0  0  0  0  0  0  0  0  0  0  0  0
   48.3534   35.1784   41.1202 H   0  0  0  0  0  0  0  0  0  0  0  0
   47.9950   35.7576   42.8256 H   0  0  0  0  0  0  0  0  0  0  0  0
   48.4302   32.7732   40.9761 H   0  0  0  0  0  0  0  0  0  0  0  0
   47.9929   31.9987   42.5008 H   0  0  0  0  0  0  0  0  0  0  0  0
   50.1911   31.3396   42.9313 H   0  0  0  0  0  0  0  0  0  0  0  0
   50.3547   31.4923   41.1634 H   0  0  0  0  0  0  0  0  0  0  0  0
   51.7039   33.0017   43.1846 H   0  0  0  0  0  0  0  0  0  0  0  0
   51.8080   33.2629   41.4542 H   0  0  0  0  0  0  0  0  0  0  0  0
   50.5540   34.9548   43.2976 H   0  0  0  0  0  0  0  0  0  0  0  0
   50.2514   34.9691   41.5309 H   0  0  0  0  0  0  0  0  0  0  0  0
  1  6  2  0
  2  1  1  0
  3  2  2  0
  3  4  1  0
  4  5  2  0
  5  6  1  0
  5  7  1  0
  7 11  2  0
  7  8  1  0
  8  9  2  0
 10 14  1  0
 10  9  1  0
 11 10  1  0
 12 16  1  0
 13 14  2  0
 13 12  1  0
 14 15  1  0
 15 16  2  0
 17 18  1  0
 17  3  1  0
 18 19  1  0
 20 21  1  0
 20 19  1  0
 21 22  1  0
 22 23  1  0
 23 19  1  0
  1 24  1  0
  2 25  1  0
  8 26  1  0
  9 27  1  0
 12 28  1  0
 15 29  1  0
 16 30  1  0
 17 31  1  0
 17 32  1  0
 18 33  1  0
 18 34  1  0
 20 35  1  0
 20 36  1  0
 21 37  1  0
 21 38  1  0
 22 39  1  0
 22 40  1  0
 23 41  1  0
 23 42  1  0
M  ISO  8  24  14  25  14  26  14  27  14  28   9  29  14  30  14  31   8
M  ISO  8  32   8  33   8  34   8  35  13  36  13  37  13  38  13  39  13
M  ISO  3  40  13  41  13  42  13
M  END
>  <minimizedAffinity>  (1) 
-6.3667388

>  <minimizedRMSD>  (1) 
0.90412432

$$$$
