
     RDKit          3D

 38 41  0  0  0  0  0  0  0  0999 V2000
   44.4280   35.9570   44.6830 C   0  0  0  0  0  0  0  0  0  0  0  0
   44.8490   35.6440   43.3660 C   0  0  0  0  0  0  0  0  0  0  0  0
   45.6010   34.5090   43.1750 C   0  0  0  0  0  0  0  0  0  0  0  0
   45.9020   33.7440   44.2490 N   0  0  0  0  0  0  0  0  0  0  0  0
   45.4830   34.0690   45.5060 C   0  0  0  0  0  0  0  0  0  0  0  0
   44.7500   35.1650   45.7310 N   0  0  0  0  0  0  0  0  0  0  0  0
   45.8690   33.1710   46.5840 C   0  0  0  0  0  0  0  0  0  0  0  0
   45.0260   32.9910   47.6720 C   0  0  0  0  0  0  0  0  0  0  0  0
   45.6050   32.1050   48.5490 C   0  0  0  0  0  0  0  0  0  0  0  0
   46.7790   31.7620   47.9860 N   0  0  0  0  0  0  0  0  0  0  0  0
   46.9420   32.3900   46.8230 N   0  0  0  0  0  0  0  0  0  0  0  0
   49.1310   29.1640   48.7690 N   0  0  0  0  0  0  0  0  0  0  0  0
   48.0120   29.5730   48.1680 N   0  0  0  0  0  0  0  0  0  0  0  0
   47.8200   30.8860   48.4080 C   0  0  0  0  0  0  0  0  0  0  0  0
   48.8640   31.3280   49.1980 C   0  0  0  0  0  0  0  0  0  0  0  0
   49.6700   30.2290   49.4070 C   0  0  0  0  0  0  0  0  0  0  0  0
   46.0860   34.1000   41.8400 C   0  0  0  0  0  0  0  0  0  0  0  0
   47.4780   34.6930   41.6690 C   0  0  0  0  0  0  0  0  0  0  0  0
   48.1050   33.8920   40.5580 C   0  0  0  0  0  0  0  0  0  0  0  0
   48.9170   32.8020   40.8170 C   0  0  0  0  0  0  0  0  0  0  0  0
   49.4760   32.0910   39.7540 C   0  0  0  0  0  0  0  0  0  0  0  0
   49.2350   32.4490   38.4780 N   0  0  0  0  0  0  0  0  0  0  0  0
   48.4500   33.5010   38.2570 C   0  0  0  0  0  0  0  0  0  0  0  0
   47.8860   34.2210   39.2520 N   0  0  0  0  0  0  0  0  0  0  0  0
   43.8274   36.8622   44.8560 H   0  0  0  0  0  0  0  0  0  0  0  0
   44.5809   36.2924   42.5188 H   0  0  0  0  0  0  0  0  0  0  0  0
   44.0502   33.4795   47.8103 H   0  0  0  0  0  0  0  0  0  0  0  0
   45.1962   31.7514   49.5070 H   0  0  0  0  0  0  0  0  0  0  0  0
   49.5157   28.2087   48.7506 H   0  0  0  0  0  0  0  0  0  0  0  0
   49.0200   32.3472   49.5814 H   0  0  0  0  0  0  0  0  0  0  0  0
   50.5990   30.2194   49.9959 H   0  0  0  0  0  0  0  0  0  0  0  0
   46.1325   33.0029   41.7751 H   0  0  0  0  0  0  0  0  0  0  0  0
   45.4083   34.4572   41.0506 H   0  0  0  0  0  0  0  0  0  0  0  0
   47.4149   35.7558   41.3923 H   0  0  0  0  0  0  0  0  0  0  0  0
   48.0660   34.6454   42.5974 H   0  0  0  0  0  0  0  0  0  0  0  0
   49.1207   32.4977   41.8543 H   0  0  0  0  0  0  0  0  0  0  0  0
   50.1228   31.2257   39.9612 H   0  0  0  0  0  0  0  0  0  0  0  0
   48.2512   33.7980   37.2167 H   0  0  0  0  0  0  0  0  0  0  0  0
  1  6  2  0
  2  1  1  0
  3  2  2  0
  3  4  1  0
  4  5  2  0
  5  6  1  0
  5  7  1  0
  7 11  2  0
  7  8  1  0
  8  9  2  0
 10 14  1  0
 10  9  1  0
 11 10  1  0
 12 16  1  0
 13 14  2  0
 13 12  1  0
 14 15  1  0
 15 16  2  0
 17  3  1  0
 18 17  1  0
 19 20  2  0
 19 18  1  0
 21 20  1  0
 22 21  2  0
 23 22  1  0
 23 24  2  0
 24 19  1  0
  1 25  1  0
  2 26  1  0
  8 27  1  0
  9 28  1  0
 12 29  1  0
 15 30  1  0
 16 31  1  0
 17 32  1  0
 17 33  1  0
 18 34  1  0
 18 35  1  0
 20 36  1  0
 21 37  1  0
 23 38  1  0
M  ISO  8  25  14  26  14  27  14  28  14  29   9  30  14  31  14  32   8
M  ISO  6  33   8  34   8  35   8  36  14  37  14  38  14
M  END
>  <minimizedAffinity>  (1) 
-6.24583006

>  <minimizedRMSD>  (1) 
1.12286317

$$$$
