
     RDKit          3D

 35 38  0  0  0  0  0  0  0  0999 V2000
   44.4560   36.0800   44.4620 C   0  0  0  0  0  0  0  0  0  0  0  0
   45.0320   35.8820   43.2020 C   0  0  0  0  0  0  0  0  0  0  0  0
   45.9010   34.8040   43.0610 C   0  0  0  0  0  0  0  0  0  0  0  0
   46.1390   34.0180   44.1310 N   0  0  0  0  0  0  0  0  0  0  0  0
   45.5490   34.2560   45.3440 C   0  0  0  0  0  0  0  0  0  0  0  0
   44.7170   35.2710   45.5130 N   0  0  0  0  0  0  0  0  0  0  0  0
   45.8860   33.3370   46.4200 C   0  0  0  0  0  0  0  0  0  0  0  0
   45.0200   33.1910   47.4940 C   0  0  0  0  0  0  0  0  0  0  0  0
   45.5400   32.2790   48.3810 C   0  0  0  0  0  0  0  0  0  0  0  0
   46.7090   31.8850   47.8360 N   0  0  0  0  0  0  0  0  0  0  0  0
   46.9210   32.5120   46.6660 N   0  0  0  0  0  0  0  0  0  0  0  0
   48.9260   29.1800   48.6240 N   0  0  0  0  0  0  0  0  0  0  0  0
   47.8420   29.6410   48.0140 N   0  0  0  0  0  0  0  0  0  0  0  0
   47.7010   30.9680   48.2650 C   0  0  0  0  0  0  0  0  0  0  0  0
   48.7520   31.3480   49.0710 C   0  0  0  0  0  0  0  0  0  0  0  0
   49.5110   30.2140   49.2870 C   0  0  0  0  0  0  0  0  0  0  0  0
   46.5840   34.4810   41.7680 C   0  0  0  0  0  0  0  0  0  0  0  0
   47.9320   35.1390   41.8100 C   0  0  0  0  0  0  0  0  0  0  0  0
   49.0450   34.1660   41.7800 C   0  0  0  0  0  0  0  0  0  0  0  0
   49.2670   33.0370   41.0830 N   0  0  0  0  0  0  0  0  0  0  0  0
   50.4150   32.5200   41.4100 O   0  0  0  0  0  0  0  0  0  0  0  0
   50.9710   33.3000   42.3290 C   0  0  0  0  0  0  0  0  0  0  0  0
   50.1410   34.3270   42.5760 N   0  0  0  0  0  0  0  0  0  0  0  0
   43.7656   36.9248   44.6022 H   0  0  0  0  0  0  0  0  0  0  0  0
   44.8072   36.5507   42.3580 H   0  0  0  0  0  0  0  0  0  0  0  0
   44.0650   33.7229   47.6166 H   0  0  0  0  0  0  0  0  0  0  0  0
   45.0980   31.9429   49.3306 H   0  0  0  0  0  0  0  0  0  0  0  0
   49.2658   28.2080   48.5999 H   0  0  0  0  0  0  0  0  0  0  0  0
   48.9482   32.3561   49.4650 H   0  0  0  0  0  0  0  0  0  0  0  0
   50.4290   30.1570   49.8903 H   0  0  0  0  0  0  0  0  0  0  0  0
   45.9984   34.8722   40.9230 H   0  0  0  0  0  0  0  0  0  0  0  0
   46.6811   33.3934   41.6353 H   0  0  0  0  0  0  0  0  0  0  0  0
   48.0248   35.8062   40.9404 H   0  0  0  0  0  0  0  0  0  0  0  0
   48.0012   35.6927   42.7580 H   0  0  0  0  0  0  0  0  0  0  0  0
   51.9472   33.1334   42.8078 H   0  0  0  0  0  0  0  0  0  0  0  0
  1  6  2  0
  2  1  1  0
  3  2  2  0
  3  4  1  0
  4  5  2  0
  5  6  1  0
  5  7  1  0
  7 11  2  0
  7  8  1  0
  8  9  2  0
 10 14  1  0
 10  9  1  0
 11 10  1  0
 12 16  1  0
 13 14  2  0
 13 12  1  0
 14 15  1  0
 15 16  2  0
 17 18  1  0
 17  3  1  0
 19 18  1  0
 19 23  1  0
 20 21  1  0
 20 19  2  0
 21 22  1  0
 22 23  2  0
  1 24  1  0
  2 25  1  0
  8 26  1  0
  9 27  1  0
 12 28  1  0
 15 29  1  0
 16 30  1  0
 17 31  1  0
 17 32  1  0
 18 33  1  0
 18 34  1  0
 22 35  1  0
M  ISO  8  24  14  25  14  26  14  27  14  28   9  29  14  30  14  31   8
M  ISO  4  32   8  33   8  34   8  35  14
M  END
>  <minimizedAffinity>  (1) 
-6.54545784

>  <minimizedRMSD>  (1) 
1.41189373

$$$$
