
     RDKit          3D

 32 34  0  0  0  0  0  0  0  0999 V2000
   44.4940   35.8280   44.6170 C   0  0  0  0  0  0  0  0  0  0  0  0
   45.2090   35.7420   43.4120 C   0  0  0  0  0  0  0  0  0  0  0  0
   46.1880   34.7660   43.3140 C   0  0  0  0  0  0  0  0  0  0  0  0
   46.4140   33.9450   44.3640 N   0  0  0  0  0  0  0  0  0  0  0  0
   45.6880   34.0700   45.5190 C   0  0  0  0  0  0  0  0  0  0  0  0
   44.7470   34.9900   45.6470 N   0  0  0  0  0  0  0  0  0  0  0  0
   46.0140   33.1330   46.5880 C   0  0  0  0  0  0  0  0  0  0  0  0
   45.1010   32.9310   47.6180 C   0  0  0  0  0  0  0  0  0  0  0  0
   45.6170   32.0130   48.5060 C   0  0  0  0  0  0  0  0  0  0  0  0
   46.8260   31.6760   48.0050 N   0  0  0  0  0  0  0  0  0  0  0  0
   47.0560   32.3390   46.8740 N   0  0  0  0  0  0  0  0  0  0  0  0
   49.0880   29.0230   48.8330 N   0  0  0  0  0  0  0  0  0  0  0  0
   48.0170   29.4610   48.1800 N   0  0  0  0  0  0  0  0  0  0  0  0
   47.8280   30.7840   48.4620 C   0  0  0  0  0  0  0  0  0  0  0  0
   48.8270   31.1950   49.3300 C   0  0  0  0  0  0  0  0  0  0  0  0
   49.6040   30.0610   49.5430 C   0  0  0  0  0  0  0  0  0  0  0  0
   47.0160   34.5760   42.0850 C   0  0  0  0  0  0  0  0  0  0  0  0
   48.1900   33.7050   42.4710 C   0  0  0  0  0  0  0  0  0  0  0  0
   49.1890   34.5240   43.1300 N   0  0  0  0  0  0  0  0  0  0  0  0
   43.7114   36.5934   44.7253 H   0  0  0  0  0  0  0  0  0  0  0  0
   44.9997   36.4249   42.5754 H   0  0  0  0  0  0  0  0  0  0  0  0
   44.1227   33.4256   47.7089 H   0  0  0  0  0  0  0  0  0  0  0  0
   45.1460   31.6353   49.4255 H   0  0  0  0  0  0  0  0  0  0  0  0
   49.4622   28.0638   48.8059 H   0  0  0  0  0  0  0  0  0  0  0  0
   48.9735   32.1981   49.7570 H   0  0  0  0  0  0  0  0  0  0  0  0
   50.4958   30.0120   50.1851 H   0  0  0  0  0  0  0  0  0  0  0  0
   47.3730   35.5489   41.7163 H   0  0  0  0  0  0  0  0  0  0  0  0
   46.4263   34.1063   41.2840 H   0  0  0  0  0  0  0  0  0  0  0  0
   47.8523   32.9130   43.1556 H   0  0  0  0  0  0  0  0  0  0  0  0
   48.6224   33.2438   41.5708 H   0  0  0  0  0  0  0  0  0  0  0  0
   49.0842   34.4381   44.1511 H   0  0  0  0  0  0  0  0  0  0  0  0
   50.1293   34.2074   42.8535 H   0  0  0  0  0  0  0  0  0  0  0  0
  1  6  2  0
  2  1  1  0
  3  2  2  0
  3  4  1  0
  4  5  2  0
  5  6  1  0
  5  7  1  0
  7 11  2  0
  7  8  1  0
  8  9  2  0
 10 14  1  0
 10  9  1  0
 11 10  1  0
 12 16  1  0
 13 14  2  0
 13 12  1  0
 14 15  1  0
 15 16  2  0
 17 18  1  0
 17  3  1  0
 18 19  1  0
  1 20  1  0
  2 21  1  0
  8 22  1  0
  9 23  1  0
 12 24  1  0
 15 25  1  0
 16 26  1  0
 17 27  1  0
 17 28  1  0
 18 29  1  0
 18 30  1  0
 19 31  1  0
 19 32  1  0
M  ISO  8  20  14  21  14  22  14  23  14  24   9  25  14  26  14  27   8
M  ISO  5  28   8  29   8  30   8  31   5  32   5
M  END
>  <minimizedAffinity>  (1) 
-5.91548538

>  <minimizedRMSD>  (1) 
0.822005987

$$$$
