
     RDKit          3D

 43 46  0  0  0  0  0  0  0  0999 V2000
   44.4360   35.9240   44.6710 C   0  0  0  0  0  0  0  0  0  0  0  0
   44.8260   35.5990   43.3650 C   0  0  0  0  0  0  0  0  0  0  0  0
   45.5760   34.4370   43.1780 C   0  0  0  0  0  0  0  0  0  0  0  0
   45.8790   33.7010   44.2610 N   0  0  0  0  0  0  0  0  0  0  0  0
   45.4810   34.0500   45.5160 C   0  0  0  0  0  0  0  0  0  0  0  0
   44.7650   35.1510   45.7240 N   0  0  0  0  0  0  0  0  0  0  0  0
   45.8830   33.1530   46.5910 C   0  0  0  0  0  0  0  0  0  0  0  0
   45.0370   32.9800   47.6780 C   0  0  0  0  0  0  0  0  0  0  0  0
   45.6170   32.0940   48.5710 C   0  0  0  0  0  0  0  0  0  0  0  0
   46.7900   31.7550   48.0070 N   0  0  0  0  0  0  0  0  0  0  0  0
   46.9510   32.3810   46.8320 N   0  0  0  0  0  0  0  0  0  0  0  0
   49.1460   29.1510   48.7890 N   0  0  0  0  0  0  0  0  0  0  0  0
   48.0280   29.5760   48.2020 N   0  0  0  0  0  0  0  0  0  0  0  0
   47.8340   30.8870   48.4300 C   0  0  0  0  0  0  0  0  0  0  0  0
   48.8860   31.3270   49.2070 C   0  0  0  0  0  0  0  0  0  0  0  0
   49.6890   30.2150   49.4130 C   0  0  0  0  0  0  0  0  0  0  0  0
   46.0230   34.0320   41.8300 C   0  0  0  0  0  0  0  0  0  0  0  0
   47.3900   34.6520   41.6020 C   0  0  0  0  0  0  0  0  0  0  0  0
   48.1750   33.9290   40.6520 N   0  0  0  0  0  0  0  0  0  0  0  0
   48.6580   32.6570   41.1060 C   0  0  0  0  0  0  0  0  0  0  0  0
   49.6390   32.1340   40.0750 C   0  0  0  0  0  0  0  0  0  0  0  0
   49.1470   32.1300   38.7880 O   0  0  0  0  0  0  0  0  0  0  0  0
   48.5630   33.3090   38.3890 C   0  0  0  0  0  0  0  0  0  0  0  0
   47.4760   33.7050   39.3970 C   0  0  0  0  0  0  0  0  0  0  0  0
   43.8447   36.8358   44.8411 H   0  0  0  0  0  0  0  0  0  0  0  0
   44.5498   36.2393   42.5143 H   0  0  0  0  0  0  0  0  0  0  0  0
   44.0605   33.4691   47.8094 H   0  0  0  0  0  0  0  0  0  0  0  0
   45.2081   31.7445   49.5305 H   0  0  0  0  0  0  0  0  0  0  0  0
   49.5231   28.1927   48.7696 H   0  0  0  0  0  0  0  0  0  0  0  0
   49.0529   32.3467   49.5843 H   0  0  0  0  0  0  0  0  0  0  0  0
   50.6227   30.2034   49.9945 H   0  0  0  0  0  0  0  0  0  0  0  0
   46.0922   32.9358   41.7699 H   0  0  0  0  0  0  0  0  0  0  0  0
   45.3092   34.3712   41.0649 H   0  0  0  0  0  0  0  0  0  0  0  0
   47.2528   35.6798   41.2349 H   0  0  0  0  0  0  0  0  0  0  0  0
   47.9278   34.6294   42.5613 H   0  0  0  0  0  0  0  0  0  0  0  0
   49.1629   32.7739   42.0763 H   0  0  0  0  0  0  0  0  0  0  0  0
   47.8222   31.9528   41.2304 H   0  0  0  0  0  0  0  0  0  0  0  0
   50.5382   32.7671   40.1001 H   0  0  0  0  0  0  0  0  0  0  0  0
   49.8519   31.0875   40.3388 H   0  0  0  0  0  0  0  0  0  0  0  0
   49.3264   34.0996   38.3427 H   0  0  0  0  0  0  0  0  0  0  0  0
   48.1120   33.1779   37.3943 H   0  0  0  0  0  0  0  0  0  0  0  0
   46.9658   34.6236   39.0715 H   0  0  0  0  0  0  0  0  0  0  0  0
   46.7041   32.9271   39.4923 H   0  0  0  0  0  0  0  0  0  0  0  0
  1  6  2  0
  2  1  1  0
  3  2  2  0
  3  4  1  0
  4  5  2  0
  5  6  1  0
  5  7  1  0
  7 11  2  0
  7  8  1  0
  8  9  2  0
 10 14  1  0
 10  9  1  0
 11 10  1  0
 12 16  1  0
 13 14  2  0
 13 12  1  0
 14 15  1  0
 15 16  2  0
 17  3  1  0
 18 17  1  0
 19 20  1  0
 19 18  1  0
 21 20  1  0
 22 21  1  0
 23 22  1  0
 23 24  1  0
 24 19  1  0
  1 25  1  0
  2 26  1  0
  8 27  1  0
  9 28  1  0
 12 29  1  0
 15 30  1  0
 16 31  1  0
 17 32  1  0
 17 33  1  0
 18 34  1  0
 18 35  1  0
 20 36  1  0
 20 37  1  0
 21 38  1  0
 21 39  1  0
 23 40  1  0
 23 41  1  0
 24 42  1  0
 24 43  1  0
M  ISO  8  25  14  26  14  27  14  28  14  29   9  30  14  31  14  32   8
M  ISO  8  33   8  34   8  35   8  36  13  37  13  38  13  39  13  40  13
M  ISO  3  41  13  42  13  43  13
M  END
>  <minimizedAffinity>  (1) 
-6.01481438

>  <minimizedRMSD>  (1) 
1.3234477

$$$$
