
     RDKit          3D

 36 39  0  0  0  0  0  0  0  0999 V2000
   44.4650   35.8370   44.5930 C   0  0  0  0  0  0  0  0  0  0  0  0
   44.8220   35.4430   43.2830 C   0  0  0  0  0  0  0  0  0  0  0  0
   45.5420   34.2620   43.1240 C   0  0  0  0  0  0  0  0  0  0  0  0
   45.8610   33.5540   44.2230 N   0  0  0  0  0  0  0  0  0  0  0  0
   45.4960   33.9700   45.4730 C   0  0  0  0  0  0  0  0  0  0  0  0
   44.8140   35.0860   45.6620 N   0  0  0  0  0  0  0  0  0  0  0  0
   45.9010   33.1180   46.5870 C   0  0  0  0  0  0  0  0  0  0  0  0
   45.0800   32.9900   47.6940 C   0  0  0  0  0  0  0  0  0  0  0  0
   45.6690   32.1430   48.6030 C   0  0  0  0  0  0  0  0  0  0  0  0
   46.8350   31.7670   48.0410 N   0  0  0  0  0  0  0  0  0  0  0  0
   46.9690   32.3460   46.8490 N   0  0  0  0  0  0  0  0  0  0  0  0
   49.1910   29.2080   48.8910 N   0  0  0  0  0  0  0  0  0  0  0  0
   48.0590   29.5890   48.2940 N   0  0  0  0  0  0  0  0  0  0  0  0
   47.8770   30.9140   48.4790 C   0  0  0  0  0  0  0  0  0  0  0  0
   48.9490   31.3870   49.2310 C   0  0  0  0  0  0  0  0  0  0  0  0
   49.7520   30.2890   49.4700 C   0  0  0  0  0  0  0  0  0  0  0  0
   45.9570   33.7740   41.7920 C   0  0  0  0  0  0  0  0  0  0  0  0
   47.2500   34.5010   41.4440 C   0  0  0  0  0  0  0  0  0  0  0  0
   47.4430   34.2180   40.0130 N   0  0  0  0  0  0  0  0  0  0  0  0
   46.6890   33.3710   39.2610 C   0  0  0  0  0  0  0  0  0  0  0  0
   47.1350   33.3450   37.9900 N   0  0  0  0  0  0  0  0  0  0  0  0
   48.1820   34.1890   37.9530 C   0  0  0  0  0  0  0  0  0  0  0  0
   48.3520   34.7040   39.1770 N   0  0  0  0  0  0  0  0  0  0  0  0
   43.8961   36.7662   44.7446 H   0  0  0  0  0  0  0  0  0  0  0  0
   44.5385   36.0531   42.4127 H   0  0  0  0  0  0  0  0  0  0  0  0
   44.1081   33.4881   47.8259 H   0  0  0  0  0  0  0  0  0  0  0  0
   45.2723   31.8368   49.5822 H   0  0  0  0  0  0  0  0  0  0  0  0
   49.5712   28.2509   48.9066 H   0  0  0  0  0  0  0  0  0  0  0  0
   49.1208   32.4208   49.5654 H   0  0  0  0  0  0  0  0  0  0  0  0
   50.6936   30.2952   50.0387 H   0  0  0  0  0  0  0  0  0  0  0  0
   46.1289   32.6879   41.8226 H   0  0  0  0  0  0  0  0  0  0  0  0
   45.1788   33.9675   41.0391 H   0  0  0  0  0  0  0  0  0  0  0  0
   47.1498   35.5824   41.6187 H   0  0  0  0  0  0  0  0  0  0  0  0
   48.1001   34.1713   42.0593 H   0  0  0  0  0  0  0  0  0  0  0  0
   45.8350   32.7891   39.6380 H   0  0  0  0  0  0  0  0  0  0  0  0
   48.7941   34.4171   37.0679 H   0  0  0  0  0  0  0  0  0  0  0  0
  1  6  2  0
  2  1  1  0
  3  2  2  0
  3  4  1  0
  4  5  2  0
  5  6  1  0
  5  7  1  0
  7 11  2  0
  7  8  1  0
  8  9  2  0
 10 14  1  0
 10  9  1  0
 11 10  1  0
 12 16  1  0
 13 14  2  0
 13 12  1  0
 14 15  1  0
 15 16  2  0
 17  3  1  0
 18 17  1  0
 19 18  1  0
 20 19  1  0
 21 20  2  0
 22 21  1  0
 22 23  2  0
 23 19  1  0
  1 24  1  0
  2 25  1  0
  8 26  1  0
  9 27  1  0
 12 28  1  0
 15 29  1  0
 16 30  1  0
 17 31  1  0
 17 32  1  0
 18 33  1  0
 18 34  1  0
 20 35  1  0
 22 36  1  0
M  ISO  8  24  14  25  14  26  14  27  14  28   9  29  14  30  14  31   8
M  ISO  5  32   8  33   8  34   8  35  14  36  14
M  END
>  <minimizedAffinity>  (1) 
-6.0200839

>  <minimizedRMSD>  (1) 
1.27056432

$$$$
