
     RDKit          3D

 31 33  0  0  0  0  0  0  0  0999 V2000
   44.5440   35.8910   44.3600 C   0  0  0  0  0  0  0  0  0  0  0  0
   45.2640   35.7530   43.1600 C   0  0  0  0  0  0  0  0  0  0  0  0
   46.2320   34.7550   43.1000 C   0  0  0  0  0  0  0  0  0  0  0  0
   46.4450   33.9680   44.1720 N   0  0  0  0  0  0  0  0  0  0  0  0
   45.7040   34.1550   45.3220 C   0  0  0  0  0  0  0  0  0  0  0  0
   44.7620   35.0960   45.4350 N   0  0  0  0  0  0  0  0  0  0  0  0
   46.0040   33.2540   46.4330 C   0  0  0  0  0  0  0  0  0  0  0  0
   45.1050   33.1200   47.4790 C   0  0  0  0  0  0  0  0  0  0  0  0
   45.6020   32.2240   48.3990 C   0  0  0  0  0  0  0  0  0  0  0  0
   46.7840   31.8310   47.9000 N   0  0  0  0  0  0  0  0  0  0  0  0
   47.0240   32.4390   46.7380 N   0  0  0  0  0  0  0  0  0  0  0  0
   49.0070   29.1620   48.8020 N   0  0  0  0  0  0  0  0  0  0  0  0
   47.9280   29.5910   48.1420 N   0  0  0  0  0  0  0  0  0  0  0  0
   47.7750   30.9250   48.3750 C   0  0  0  0  0  0  0  0  0  0  0  0
   48.7940   31.3240   49.2060 C   0  0  0  0  0  0  0  0  0  0  0  0
   49.5490   30.2070   49.4580 C   0  0  0  0  0  0  0  0  0  0  0  0
   47.0350   34.5430   41.8760 C   0  0  0  0  0  0  0  0  0  0  0  0
   48.3910   35.1910   42.1230 C   0  0  0  0  0  0  0  0  0  0  0  0
   49.0510   34.5630   43.1740 O   0  0  0  0  0  0  0  0  0  0  0  0
   43.7746   36.6742   44.4284 H   0  0  0  0  0  0  0  0  0  0  0  0
   45.0691   36.4102   42.2997 H   0  0  0  0  0  0  0  0  0  0  0  0
   44.1433   33.6476   47.5616 H   0  0  0  0  0  0  0  0  0  0  0  0
   45.1319   31.9005   49.3394 H   0  0  0  0  0  0  0  0  0  0  0  0
   49.3644   28.1960   48.8085 H   0  0  0  0  0  0  0  0  0  0  0  0
   48.9695   32.3387   49.5927 H   0  0  0  0  0  0  0  0  0  0  0  0
   50.4480   30.1702   50.0908 H   0  0  0  0  0  0  0  0  0  0  0  0
   46.5416   35.0138   41.0129 H   0  0  0  0  0  0  0  0  0  0  0  0
   47.1437   33.4708   41.6555 H   0  0  0  0  0  0  0  0  0  0  0  0
   49.0020   35.1087   41.2120 H   0  0  0  0  0  0  0  0  0  0  0  0
   48.2359   36.2483   42.3837 H   0  0  0  0  0  0  0  0  0  0  0  0
   48.6966   34.9002   44.0347 H   0  0  0  0  0  0  0  0  0  0  0  0
  1  6  2  0
  2  1  1  0
  3  2  2  0
  3  4  1  0
  4  5  2  0
  5  6  1  0
  5  7  1  0
  7 11  2  0
  7  8  1  0
  8  9  2  0
 10 14  1  0
 10  9  1  0
 11 10  1  0
 12 16  1  0
 13 14  2  0
 13 12  1  0
 14 15  1  0
 15 16  2  0
 17 18  1  0
 17  3  1  0
 18 19  1  0
  1 20  1  0
  2 21  1  0
  8 22  1  0
  9 23  1  0
 12 24  1  0
 15 25  1  0
 16 26  1  0
 17 27  1  0
 17 28  1  0
 18 29  1  0
 18 30  1  0
 19 31  1  0
M  ISO  8  20  14  21  14  22  14  23  14  24   9  25  14  26  14  27   8
M  ISO  4  28   8  29   8  30   8  31   3
M  END
>  <minimizedAffinity>  (1) 
-5.96134138

>  <minimizedRMSD>  (1) 
0.153018862

$$$$
