
     RDKit          3D

 51 56  0  0  1  0  0  0  0  0999 V2000
   46.5460   34.5110   42.0000 C   0  0  0  0  0  0  0  0  0  0  0  0
   44.4060   35.9560   44.7370 C   0  0  0  0  0  0  0  0  0  0  0  0
   45.0020   35.7840   43.4790 C   0  0  0  0  0  0  0  0  0  0  0  0
   45.8890   34.7370   43.3180 C   0  0  0  0  0  0  0  0  0  0  0  0
   46.1450   33.9330   44.3550 N   0  0  0  0  0  0  0  0  0  0  0  0
   45.5560   34.1180   45.5660 C   0  0  0  0  0  0  0  0  0  0  0  0
   44.6890   35.1180   45.7740 N   0  0  0  0  0  0  0  0  0  0  0  0
   45.9060   33.1830   46.6300 C   0  0  0  0  0  0  0  0  0  0  0  0
   45.0430   32.9550   47.6730 C   0  0  0  0  0  0  0  0  0  0  0  0
   45.6040   32.0390   48.5360 C   0  0  0  0  0  0  0  0  0  0  0  0
   46.7870   31.7320   48.0010 N   0  0  0  0  0  0  0  0  0  0  0  0
   46.9830   32.4030   46.8680 N   0  0  0  0  0  0  0  0  0  0  0  0
   49.1240   29.1060   48.7420 N   0  0  0  0  0  0  0  0  0  0  0  0
   48.0140   29.5210   48.1270 N   0  0  0  0  0  0  0  0  0  0  0  0
   47.8270   30.8480   48.4200 C   0  0  0  0  0  0  0  0  0  0  0  0
   48.8600   31.2580   49.2420 C   0  0  0  0  0  0  0  0  0  0  0  0
   49.6520   30.1500   49.4240 C   0  0  0  0  0  0  0  0  0  0  0  0
   47.8090   35.3190   41.9600 C   0  0  0  0  0  0  0  0  0  0  0  0
   49.0110   34.6420   41.4240 C   0  0  1  0  0  0  0  0  0  0  0  0
   50.0670   34.2990   42.4650 C   0  0  0  0  0  0  0  0  0  0  0  0
   49.3040   33.2370   41.6670 C   0  0  2  0  0  0  0  0  0  0  0  0
   50.2300   32.4090   40.8700 C   0  0  0  0  0  0  0  0  0  0  0  0
   51.4810   32.0740   41.3110 N   0  0  0  0  0  0  0  0  0  0  0  0
   52.3460   31.3310   40.6270 C   0  0  0  0  0  0  0  0  0  0  0  0
   52.0520   30.8350   39.4110 N   0  0  0  0  0  0  0  0  0  0  0  0
   50.8580   31.1070   38.9010 C   0  0  0  0  0  0  0  0  0  0  0  0
   50.4970   30.6180   37.6460 C   0  0  0  0  0  0  0  0  0  0  0  0
   49.2500   30.8910   37.0870 C   0  0  0  0  0  0  0  0  0  0  0  0
   48.3550   31.6700   37.8150 C   0  0  0  0  0  0  0  0  0  0  0  0
   48.7530   32.1300   39.0500 C   0  0  0  0  0  0  0  0  0  0  0  0
   49.9730   31.8790   39.6230 C   0  0  0  0  0  0  0  0  0  0  0  0
   46.7832   33.4435   41.8806 H   0  0  0  0  0  0  0  0  0  0  0  0
   45.8744   34.8160   41.1839 H   0  0  0  0  0  0  0  0  0  0  0  0
   43.6968   36.7829   44.8895 H   0  0  0  0  0  0  0  0  0  0  0  0
   44.7700   36.4628   42.6451 H   0  0  0  0  0  0  0  0  0  0  0  0
   44.0585   33.4290   47.7998 H   0  0  0  0  0  0  0  0  0  0  0  0
   45.1696   31.6452   49.4667 H   0  0  0  0  0  0  0  0  0  0  0  0
   49.5129   28.1530   48.7041 H   0  0  0  0  0  0  0  0  0  0  0  0
   49.0156   32.2623   49.6629 H   0  0  0  0  0  0  0  0  0  0  0  0
   50.5704   30.1163   50.0285 H   0  0  0  0  0  0  0  0  0  0  0  0
   47.6189   36.2051   41.3365 H   0  0  0  0  0  0  0  0  0  0  0  0
   48.0452   35.5410   43.0112 H   0  0  0  0  0  0  0  0  0  0  0  0
   48.9467   35.2100   40.4842 H   0  0  0  0  0  0  0  0  0  0  0  0
   51.1315   34.4903   42.2644 H   0  0  0  0  0  0  0  0  0  0  0  0
   50.2387   34.5243   43.5279 H   0  0  0  0  0  0  0  0  0  0  0  0
   48.6013   32.4026   41.8084 H   0  0  0  0  0  0  0  0  0  0  0  0
   53.3305   31.1155   41.0679 H   0  0  0  0  0  0  0  0  0  0  0  0
   51.2139   30.0018   37.0836 H   0  0  0  0  0  0  0  0  0  0  0  0
   48.9795   30.5005   36.0948 H   0  0  0  0  0  0  0  0  0  0  0  0
   47.3590   31.9109   37.4152 H   0  0  0  0  0  0  0  0  0  0  0  0
   48.0396   32.7442   39.6190 H   0  0  0  0  0  0  0  0  0  0  0  0
  1  4  1  0
  2  7  2  0
  3  2  1  0
  4  3  2  0
  4  5  1  0
  5  6  2  0
  6  7  1  0
  6  8  1  0
  8 12  2  0
  8  9  1  0
  9 10  2  0
 11 15  1  0
 11 10  1  0
 12 11  1  0
 13 17  1  0
 14 15  2  0
 14 13  1  0
 15 16  1  0
 16 17  2  0
 18  1  1  0
 19 21  1  0
 19 18  1  0
 19 20  1  0
 21 20  1  0
 22 23  2  0
 22 21  1  0
 24 23  1  0
 25 24  2  0
 26 25  1  0
 26 31  2  0
 27 26  1  0
 28 27  2  0
 28 29  1  0
 29 30  2  0
 30 31  1  0
 31 22  1  0
  1 32  1  0
  1 33  1  0
  2 34  1  0
  3 35  1  0
  9 36  1  0
 10 37  1  0
 13 38  1  0
 16 39  1  0
 17 40  1  0
 18 41  1  0
 18 42  1  0
 19 43  1  6
 20 44  1  0
 20 45  1  0
 21 46  1  1
 24 47  1  0
 27 48  1  0
 28 49  1  0
 29 50  1  0
 30 51  1  0
M  ISO  8  32   8  33   8  34  14  35  14  36  14  37  14  38   9  39  14
M  ISO  8  40  14  41   8  42   8  43  13  44  13  45  13  46  13  47  14
M  ISO  4  48  14  49  14  50  14  51  14
M  END
>  <minimizedAffinity>  (1) 
-7.28102255

>  <minimizedRMSD>  (1) 
1.37396455

$$$$
