
     RDKit          3D

 48 52  0  0  1  0  0  0  0  0999 V2000
   44.4030   35.9570   44.7310 C   0  0  0  0  0  0  0  0  0  0  0  0
   44.9970   35.7940   43.4750 C   0  0  0  0  0  0  0  0  0  0  0  0
   45.8960   34.7440   43.3030 C   0  0  0  0  0  0  0  0  0  0  0  0
   46.1390   33.9510   44.3540 N   0  0  0  0  0  0  0  0  0  0  0  0
   45.5490   34.1340   45.5570 C   0  0  0  0  0  0  0  0  0  0  0  0
   44.6890   35.1220   45.7570 N   0  0  0  0  0  0  0  0  0  0  0  0
   45.9030   33.1950   46.6210 C   0  0  0  0  0  0  0  0  0  0  0  0
   45.0300   32.9620   47.6660 C   0  0  0  0  0  0  0  0  0  0  0  0
   45.5860   32.0510   48.5260 C   0  0  0  0  0  0  0  0  0  0  0  0
   46.7840   31.7430   47.9950 N   0  0  0  0  0  0  0  0  0  0  0  0
   46.9760   32.4170   46.8690 N   0  0  0  0  0  0  0  0  0  0  0  0
   49.1080   29.1130   48.7250 N   0  0  0  0  0  0  0  0  0  0  0  0
   48.0090   29.5420   48.1170 N   0  0  0  0  0  0  0  0  0  0  0  0
   47.8200   30.8660   48.4160 C   0  0  0  0  0  0  0  0  0  0  0  0
   48.8460   31.2560   49.2380 C   0  0  0  0  0  0  0  0  0  0  0  0
   49.6360   30.1520   49.4190 C   0  0  0  0  0  0  0  0  0  0  0  0
   46.5590   34.5160   41.9990 C   0  0  0  0  0  0  0  0  0  0  0  0
   47.8090   35.3460   41.9720 C   0  0  0  0  0  0  0  0  0  0  0  0
   49.0230   34.6810   41.4540 C   0  0  1  0  0  0  0  0  0  0  0  0
   50.0470   34.2840   42.4970 C   0  0  0  0  0  0  0  0  0  0  0  0
   49.2890   33.2600   41.6910 C   0  0  2  0  0  0  0  0  0  0  0  0
   50.1130   32.4280   40.8800 N   0  0  0  0  0  0  0  0  0  0  0  0
   51.3680   32.1980   41.3270 C   0  0  0  0  0  0  0  0  0  0  0  0
   52.2030   31.3970   40.5730 C   0  0  0  0  0  0  0  0  0  0  0  0
   51.6890   30.8820   39.4010 C   0  0  0  0  0  0  0  0  0  0  0  0
   52.4530   30.0460   38.5420 N   0  0  0  0  0  0  0  0  0  0  0  0
   50.4120   31.1510   39.0010 N   0  0  0  0  0  0  0  0  0  0  0  0
   49.6030   31.9370   39.7480 C   0  0  0  0  0  0  0  0  0  0  0  0
   48.4420   32.1600   39.3510 O   0  0  0  0  0  0  0  0  0  0  0  0
   43.6898   36.7796   44.8877 H   0  0  0  0  0  0  0  0  0  0  0  0
   44.7605   36.4767   42.6455 H   0  0  0  0  0  0  0  0  0  0  0  0
   44.0437   33.4335   47.7886 H   0  0  0  0  0  0  0  0  0  0  0  0
   45.1464   31.6554   49.4535 H   0  0  0  0  0  0  0  0  0  0  0  0
   49.4925   28.1586   48.6781 H   0  0  0  0  0  0  0  0  0  0  0  0
   49.0033   32.2567   49.6668 H   0  0  0  0  0  0  0  0  0  0  0  0
   50.5508   30.1140   50.0286 H   0  0  0  0  0  0  0  0  0  0  0  0
   46.8135   33.4515   41.8891 H   0  0  0  0  0  0  0  0  0  0  0  0
   45.8908   34.7985   41.1722 H   0  0  0  0  0  0  0  0  0  0  0  0
   47.6138   36.2262   41.3419 H   0  0  0  0  0  0  0  0  0  0  0  0
   48.0286   35.5816   43.0238 H   0  0  0  0  0  0  0  0  0  0  0  0
   48.9952   35.2811   40.5326 H   0  0  0  0  0  0  0  0  0  0  0  0
   51.1188   34.4516   42.3151 H   0  0  0  0  0  0  0  0  0  0  0  0
   50.2045   34.4879   43.5664 H   0  0  0  0  0  0  0  0  0  0  0  0
   48.5861   32.4279   41.8445 H   0  0  0  0  0  0  0  0  0  0  0  0
   51.7169   32.6398   42.2720 H   0  0  0  0  0  0  0  0  0  0  0  0
   53.2327   31.1792   40.8929 H   0  0  0  0  0  0  0  0  0  0  0  0
   52.0353   29.6799   37.6746 H   0  0  0  0  0  0  0  0  0  0  0  0
   53.4243   29.8064   38.7869 H   0  0  0  0  0  0  0  0  0  0  0  0
  1  6  2  0
  2  1  1  0
  3  2  2  0
  3  4  1  0
  4  5  2  0
  5  6  1  0
  5  7  1  0
  7 11  2  0
  7  8  1  0
  8  9  2  0
 10 14  1  0
 10  9  1  0
 11 10  1  0
 12 16  1  0
 13 14  2  0
 13 12  1  0
 14 15  1  0
 15 16  2  0
 17  3  1  0
 18 17  1  0
 19 21  1  0
 19 18  1  0
 19 20  1  0
 21 20  1  0
 22 23  1  0
 22 21  1  0
 24 23  2  0
 25 24  1  0
 26 25  1  0
 27 25  2  0
 27 28  1  0
 28 22  1  0
 29 28  2  0
  1 30  1  0
  2 31  1  0
  8 32  1  0
  9 33  1  0
 12 34  1  0
 15 35  1  0
 16 36  1  0
 17 37  1  0
 17 38  1  0
 18 39  1  0
 18 40  1  0
 19 41  1  6
 20 42  1  0
 20 43  1  0
 21 44  1  1
 23 45  1  0
 24 46  1  0
 26 47  1  0
 26 48  1  0
M  ISO  8  30  14  31  14  32  14  33  14  34   9  35  14  36  14  37   8
M  ISO  8  38   8  39   8  40   8  41  13  42  13  43  13  44  13  45  14
M  ISO  1  46  14
M  END
>  <minimizedAffinity>  (1) 
-7.13039637

>  <minimizedRMSD>  (1) 
0.99428761

$$$$
