
     RDKit          3D

 44 48  0  0  1  0  0  0  0  0999 V2000
   44.4300   35.9100   44.7110 C   0  0  0  0  0  0  0  0  0  0  0  0
   45.0160   35.7360   43.4540 C   0  0  0  0  0  0  0  0  0  0  0  0
   45.9020   34.6900   43.2890 C   0  0  0  0  0  0  0  0  0  0  0  0
   46.1590   33.8930   44.3410 N   0  0  0  0  0  0  0  0  0  0  0  0
   45.5650   34.0950   45.5580 C   0  0  0  0  0  0  0  0  0  0  0  0
   44.7070   35.0930   45.7520 N   0  0  0  0  0  0  0  0  0  0  0  0
   45.9220   33.1620   46.6310 C   0  0  0  0  0  0  0  0  0  0  0  0
   45.0590   32.9530   47.6700 C   0  0  0  0  0  0  0  0  0  0  0  0
   45.6160   32.0420   48.5400 C   0  0  0  0  0  0  0  0  0  0  0  0
   46.7990   31.7230   48.0070 N   0  0  0  0  0  0  0  0  0  0  0  0
   46.9990   32.3820   46.8670 N   0  0  0  0  0  0  0  0  0  0  0  0
   49.1480   29.1190   48.7870 N   0  0  0  0  0  0  0  0  0  0  0  0
   48.0320   29.5210   48.1610 N   0  0  0  0  0  0  0  0  0  0  0  0
   47.8370   30.8370   48.4320 C   0  0  0  0  0  0  0  0  0  0  0  0
   48.8700   31.2530   49.2510 C   0  0  0  0  0  0  0  0  0  0  0  0
   49.6640   30.1630   49.4520 C   0  0  0  0  0  0  0  0  0  0  0  0
   46.5660   34.4380   41.9850 C   0  0  0  0  0  0  0  0  0  0  0  0
   47.7610   35.3660   41.9070 C   0  0  0  0  0  0  0  0  0  0  0  0
   49.0220   34.7130   41.4800 C   0  0  1  0  0  0  0  0  0  0  0  0
   50.0920   34.5740   42.5390 C   0  0  0  0  0  0  0  0  0  0  0  0
   49.4200   33.3620   41.9360 C   0  0  2  0  0  0  0  0  0  0  0  0
   50.3010   32.4970   41.1490 C   0  0  0  0  0  0  0  0  0  0  0  0
   49.9460   31.7160   40.0530 C   0  0  0  0  0  0  0  0  0  0  0  0
   51.0770   31.0410   39.5860 C   0  0  0  0  0  0  0  0  0  0  0  0
   52.0570   31.4640   40.4400 C   0  0  0  0  0  0  0  0  0  0  0  0
   51.6050   32.3030   41.3400 O   0  0  0  0  0  0  0  0  0  0  0  0
   43.7209   36.7380   44.8579 H   0  0  0  0  0  0  0  0  0  0  0  0
   44.7781   36.4129   42.6202 H   0  0  0  0  0  0  0  0  0  0  0  0
   44.0776   33.4348   47.7918 H   0  0  0  0  0  0  0  0  0  0  0  0
   45.1799   31.6588   49.4743 H   0  0  0  0  0  0  0  0  0  0  0  0
   49.5426   28.1679   48.7613 H   0  0  0  0  0  0  0  0  0  0  0  0
   49.0214   32.2631   49.6595 H   0  0  0  0  0  0  0  0  0  0  0  0
   50.5797   30.1432   50.0611 H   0  0  0  0  0  0  0  0  0  0  0  0
   46.8971   33.3907   41.9263 H   0  0  0  0  0  0  0  0  0  0  0  0
   45.8728   34.6212   41.1508 H   0  0  0  0  0  0  0  0  0  0  0  0
   47.5282   36.1657   41.1885 H   0  0  0  0  0  0  0  0  0  0  0  0
   47.9330   35.7397   42.9272 H   0  0  0  0  0  0  0  0  0  0  0  0
   48.9242   35.1502   40.4754 H   0  0  0  0  0  0  0  0  0  0  0  0
   51.1411   34.8020   42.2994 H   0  0  0  0  0  0  0  0  0  0  0  0
   50.2455   34.9624   43.5566 H   0  0  0  0  0  0  0  0  0  0  0  0
   48.8251   32.5022   42.2777 H   0  0  0  0  0  0  0  0  0  0  0  0
   48.9362   31.6419   39.6230 H   0  0  0  0  0  0  0  0  0  0  0  0
   51.1585   30.3422   38.7404 H   0  0  0  0  0  0  0  0  0  0  0  0
   53.1056   31.1375   40.3789 H   0  0  0  0  0  0  0  0  0  0  0  0
  1  6  2  0
  2  1  1  0
  3  2  2  0
  3  4  1  0
  4  5  2  0
  5  6  1  0
  5  7  1  0
  7 11  2  0
  7  8  1  0
  8  9  2  0
 10 14  1  0
 10  9  1  0
 11 10  1  0
 12 16  1  0
 13 14  2  0
 13 12  1  0
 14 15  1  0
 15 16  2  0
 17  3  1  0
 18 17  1  0
 19 18  1  0
 19 21  1  0
 19 20  1  0
 21 20  1  0
 22 26  1  0
 22 21  1  0
 23 22  2  0
 24 23  1  0
 24 25  2  0
 25 26  1  0
  1 27  1  0
  2 28  1  0
  8 29  1  0
  9 30  1  0
 12 31  1  0
 15 32  1  0
 16 33  1  0
 17 34  1  0
 17 35  1  0
 18 36  1  0
 18 37  1  0
 19 38  1  6
 20 39  1  0
 20 40  1  0
 21 41  1  1
 23 42  1  0
 24 43  1  0
 25 44  1  0
M  ISO  8  27  14  28  14  29  14  30  14  31   9  32  14  33  14  34   8
M  ISO  8  35   8  36   8  37   8  38  13  39  13  40  13  41  13  42  14
M  ISO  2  43  14  44  14
M  END
>  <minimizedAffinity>  (1) 
-6.92338276

>  <minimizedRMSD>  (1) 
0.494238824

$$$$
