
     RDKit          3D

 51 55  0  0  1  0  0  0  0  0999 V2000
   44.4170   35.9540   44.7020 C   0  0  0  0  0  0  0  0  0  0  0  0
   45.0030   35.7790   43.4380 C   0  0  0  0  0  0  0  0  0  0  0  0
   45.8910   34.7290   43.2690 C   0  0  0  0  0  0  0  0  0  0  0  0
   46.1430   33.9340   44.3190 N   0  0  0  0  0  0  0  0  0  0  0  0
   45.5580   34.1280   45.5350 C   0  0  0  0  0  0  0  0  0  0  0  0
   44.7010   35.1280   45.7330 N   0  0  0  0  0  0  0  0  0  0  0  0
   45.9100   33.1980   46.6010 C   0  0  0  0  0  0  0  0  0  0  0  0
   45.0490   32.9780   47.6440 C   0  0  0  0  0  0  0  0  0  0  0  0
   45.6020   32.0680   48.5130 C   0  0  0  0  0  0  0  0  0  0  0  0
   46.7900   31.7520   47.9820 N   0  0  0  0  0  0  0  0  0  0  0  0
   46.9950   32.4150   46.8400 N   0  0  0  0  0  0  0  0  0  0  0  0
   49.1230   29.1290   48.7230 N   0  0  0  0  0  0  0  0  0  0  0  0
   48.0260   29.5520   48.1190 N   0  0  0  0  0  0  0  0  0  0  0  0
   47.8250   30.8730   48.4020 C   0  0  0  0  0  0  0  0  0  0  0  0
   48.8650   31.2680   49.2260 C   0  0  0  0  0  0  0  0  0  0  0  0
   49.6480   30.1610   49.4020 C   0  0  0  0  0  0  0  0  0  0  0  0
   46.5490   34.4810   41.9630 C   0  0  0  0  0  0  0  0  0  0  0  0
   47.8200   35.2970   41.9340 C   0  0  0  0  0  0  0  0  0  0  0  0
   49.0150   34.5690   41.4600 C   0  0  1  0  0  0  0  0  0  0  0  0
   50.1230   34.3480   42.4940 C   0  0  0  0  0  0  0  0  0  0  0  0
   49.3570   33.2060   41.8940 C   0  0  2  0  0  0  0  0  0  0  0  0
   50.0510   32.2570   41.1320 N   0  0  0  0  0  0  0  0  0  0  0  0
   51.4140   32.0210   41.3840 C   0  0  0  0  0  0  0  0  0  0  0  0
   52.1810   31.4860   40.1960 C   0  0  0  0  0  0  0  0  0  0  0  0
   51.4740   30.5730   39.3740 N   0  0  0  0  0  0  0  0  0  0  0  0
   50.0540   30.6320   39.4080 C   0  0  0  0  0  0  0  0  0  0  0  0
   49.5910   31.9970   39.8160 C   0  0  0  0  0  0  0  0  0  0  0  0
   43.7104   36.7827   44.8565 H   0  0  0  0  0  0  0  0  0  0  0  0
   44.7637   36.4566   42.6052 H   0  0  0  0  0  0  0  0  0  0  0  0
   44.0661   33.4563   47.7669 H   0  0  0  0  0  0  0  0  0  0  0  0
   45.1629   31.6821   49.4448 H   0  0  0  0  0  0  0  0  0  0  0  0
   49.5077   28.1745   48.6801 H   0  0  0  0  0  0  0  0  0  0  0  0
   49.0282   32.2688   49.6524 H   0  0  0  0  0  0  0  0  0  0  0  0
   50.5662   30.1222   50.0065 H   0  0  0  0  0  0  0  0  0  0  0  0
   46.7863   33.4120   41.8588 H   0  0  0  0  0  0  0  0  0  0  0  0
   45.8853   34.7671   41.1337 H   0  0  0  0  0  0  0  0  0  0  0  0
   47.6582   36.1582   41.2690 H   0  0  0  0  0  0  0  0  0  0  0  0
   48.0264   35.5844   42.9756 H   0  0  0  0  0  0  0  0  0  0  0  0
   48.9012   35.0162   40.4615 H   0  0  0  0  0  0  0  0  0  0  0  0
   51.1763   34.5134   42.2233 H   0  0  0  0  0  0  0  0  0  0  0  0
   50.3360   34.7074   43.5116 H   0  0  0  0  0  0  0  0  0  0  0  0
   48.7250   32.3802   42.2528 H   0  0  0  0  0  0  0  0  0  0  0  0
   51.8766   32.9695   41.6944 H   0  0  0  0  0  0  0  0  0  0  0  0
   51.4615   31.2477   42.1648 H   0  0  0  0  0  0  0  0  0  0  0  0
   52.4803   32.3415   39.5727 H   0  0  0  0  0  0  0  0  0  0  0  0
   53.0290   30.9228   40.6128 H   0  0  0  0  0  0  0  0  0  0  0  0
   51.7513   29.6224   39.6573 H   0  0  0  0  0  0  0  0  0  0  0  0
   49.6588   30.4005   38.4079 H   0  0  0  0  0  0  0  0  0  0  0  0
   49.6868   29.8996   40.1420 H   0  0  0  0  0  0  0  0  0  0  0  0
   50.0003   32.7488   39.1252 H   0  0  0  0  0  0  0  0  0  0  0  0
   48.4925   32.0455   39.7858 H   0  0  0  0  0  0  0  0  0  0  0  0
  1  6  2  0
  2  1  1  0
  3  2  2  0
  3  4  1  0
  4  5  2  0
  5  6  1  0
  5  7  1  0
  7 11  2  0
  7  8  1  0
  8  9  2  0
 10 14  1  0
 10  9  1  0
 11 10  1  0
 12 16  1  0
 13 14  2  0
 13 12  1  0
 14 15  1  0
 15 16  2  0
 17  3  1  0
 18 17  1  0
 19 21  1  0
 19 18  1  0
 19 20  1  0
 21 20  1  0
 22 23  1  0
 22 21  1  0
 24 23  1  0
 25 26  1  0
 25 24  1  0
 26 27  1  0
 27 22  1  0
  1 28  1  0
  2 29  1  0
  8 30  1  0
  9 31  1  0
 12 32  1  0
 15 33  1  0
 16 34  1  0
 17 35  1  0
 17 36  1  0
 18 37  1  0
 18 38  1  0
 19 39  1  6
 20 40  1  0
 20 41  1  0
 21 42  1  1
 23 43  1  0
 23 44  1  0
 24 45  1  0
 24 46  1  0
 25 47  1  0
 26 48  1  0
 26 49  1  0
 27 50  1  0
 27 51  1  0
M  ISO  8  28  14  29  14  30  14  31  14  32   9  33  14  34  14  35   8
M  ISO  8  36   8  37   8  38   8  39  13  40  13  41  13  42  13  43  13
M  ISO  8  44  13  45  13  46  13  47   5  48  13  49  13  50  13  51  13
M  END
>  <minimizedAffinity>  (1) 
-6.90124273

>  <minimizedRMSD>  (1) 
0.618569672

$$$$
