
     RDKit          3D

 44 48  0  0  1  0  0  0  0  0999 V2000
   44.4060   35.9150   44.7340 C   0  0  0  0  0  0  0  0  0  0  0  0
   44.9350   35.6960   43.4590 C   0  0  0  0  0  0  0  0  0  0  0  0
   45.7860   34.6180   43.2730 C   0  0  0  0  0  0  0  0  0  0  0  0
   46.0580   33.8360   44.3340 N   0  0  0  0  0  0  0  0  0  0  0  0
   45.5250   34.0780   45.5640 C   0  0  0  0  0  0  0  0  0  0  0  0
   44.7100   35.0950   45.7810 N   0  0  0  0  0  0  0  0  0  0  0  0
   45.8980   33.1560   46.6340 C   0  0  0  0  0  0  0  0  0  0  0  0
   45.0460   32.9470   47.6920 C   0  0  0  0  0  0  0  0  0  0  0  0
   45.6160   32.0400   48.5690 C   0  0  0  0  0  0  0  0  0  0  0  0
   46.8000   31.7210   48.0230 N   0  0  0  0  0  0  0  0  0  0  0  0
   46.9820   32.3770   46.8720 N   0  0  0  0  0  0  0  0  0  0  0  0
   49.1550   29.1170   48.7650 N   0  0  0  0  0  0  0  0  0  0  0  0
   48.0480   29.5270   48.1640 N   0  0  0  0  0  0  0  0  0  0  0  0
   47.8440   30.8450   48.4400 C   0  0  0  0  0  0  0  0  0  0  0  0
   48.8810   31.2620   49.2540 C   0  0  0  0  0  0  0  0  0  0  0  0
   49.6820   30.1670   49.4410 C   0  0  0  0  0  0  0  0  0  0  0  0
   46.3830   34.3240   41.9550 C   0  0  0  0  0  0  0  0  0  0  0  0
   47.4990   35.3260   41.7330 C   0  0  0  0  0  0  0  0  0  0  0  0
   48.8310   34.7230   41.4350 C   0  0  1  0  0  0  0  0  0  0  0  0
   49.8550   34.8160   42.5590 C   0  0  0  0  0  0  0  0  0  0  0  0
   49.2980   33.4850   42.0680 C   0  0  2  0  0  0  0  0  0  0  0  0
   50.3150   32.6320   41.4330 C   0  0  0  0  0  0  0  0  0  0  0  0
   50.0780   31.8330   40.3290 C   0  0  0  0  0  0  0  0  0  0  0  0
   51.2880   31.2060   40.0610 C   0  0  0  0  0  0  0  0  0  0  0  0
   52.2110   31.6200   40.9720 N   0  0  0  0  0  0  0  0  0  0  0  0
   51.6230   32.4660   41.7820 N   0  0  0  0  0  0  0  0  0  0  0  0
   43.7298   36.7672   44.8968 H   0  0  0  0  0  0  0  0  0  0  0  0
   44.6818   36.3638   42.6224 H   0  0  0  0  0  0  0  0  0  0  0  0
   44.0642   33.4258   47.8217 H   0  0  0  0  0  0  0  0  0  0  0  0
   45.1904   31.6622   49.5103 H   0  0  0  0  0  0  0  0  0  0  0  0
   49.5472   28.1654   48.7255 H   0  0  0  0  0  0  0  0  0  0  0  0
   49.0321   32.2699   49.6679 H   0  0  0  0  0  0  0  0  0  0  0  0
   50.6030   30.1435   50.0419 H   0  0  0  0  0  0  0  0  0  0  0  0
   46.7876   33.3012   41.9446 H   0  0  0  0  0  0  0  0  0  0  0  0
   45.6274   34.3994   41.1592 H   0  0  0  0  0  0  0  0  0  0  0  0
   47.2176   35.9697   40.8865 H   0  0  0  0  0  0  0  0  0  0  0  0
   47.6130   35.8771   42.6781 H   0  0  0  0  0  0  0  0  0  0  0  0
   48.7553   35.0157   40.3774 H   0  0  0  0  0  0  0  0  0  0  0  0
   50.8958   35.0980   42.3419 H   0  0  0  0  0  0  0  0  0  0  0  0
   49.9253   35.3370   43.5252 H   0  0  0  0  0  0  0  0  0  0  0  0
   48.7418   32.6279   42.4755 H   0  0  0  0  0  0  0  0  0  0  0  0
   49.1318   31.7185   39.7798 H   0  0  0  0  0  0  0  0  0  0  0  0
   51.4708   30.4911   39.2452 H   0  0  0  0  0  0  0  0  0  0  0  0
   53.1958   31.3216   41.0167 H   0  0  0  0  0  0  0  0  0  0  0  0
  1  6  2  0
  2  1  1  0
  3  2  2  0
  3  4  1  0
  4  5  2  0
  5  6  1  0
  5  7  1  0
  7 11  2  0
  7  8  1  0
  8  9  2  0
 10 14  1  0
 10  9  1  0
 11 10  1  0
 12 16  1  0
 13 14  2  0
 13 12  1  0
 14 15  1  0
 15 16  2  0
 17  3  1  0
 18 17  1  0
 19 18  1  0
 19 21  1  0
 19 20  1  0
 21 20  1  0
 22 26  2  0
 22 21  1  0
 23 22  1  0
 24 23  2  0
 24 25  1  0
 25 26  1  0
  1 27  1  0
  2 28  1  0
  8 29  1  0
  9 30  1  0
 12 31  1  0
 15 32  1  0
 16 33  1  0
 17 34  1  0
 17 35  1  0
 18 36  1  0
 18 37  1  0
 19 38  1  6
 20 39  1  0
 20 40  1  0
 21 41  1  1
 23 42  1  0
 24 43  1  0
 25 44  1  0
M  ISO  8  27  14  28  14  29  14  30  14  31   9  32  14  33  14  34   8
M  ISO  8  35   8  36   8  37   8  38  13  39  13  40  13  41  13  42  14
M  ISO  2  43  14  44   9
M  END
>  <minimizedAffinity>  (1) 
-6.87272787

>  <minimizedRMSD>  (1) 
0.361726791

$$$$
