
     RDKit          3D

 44 48  0  0  1  0  0  0  0  0999 V2000
   44.4160   35.9430   44.7200 C   0  0  0  0  0  0  0  0  0  0  0  0
   45.0040   35.7620   43.4560 C   0  0  0  0  0  0  0  0  0  0  0  0
   45.8920   34.7130   43.2760 C   0  0  0  0  0  0  0  0  0  0  0  0
   46.1470   33.9160   44.3280 N   0  0  0  0  0  0  0  0  0  0  0  0
   45.5550   34.1200   45.5480 C   0  0  0  0  0  0  0  0  0  0  0  0
   44.7060   35.1110   45.7460 N   0  0  0  0  0  0  0  0  0  0  0  0
   45.9150   33.1810   46.6170 C   0  0  0  0  0  0  0  0  0  0  0  0
   45.0470   32.9640   47.6610 C   0  0  0  0  0  0  0  0  0  0  0  0
   45.6030   32.0490   48.5320 C   0  0  0  0  0  0  0  0  0  0  0  0
   46.7930   31.7320   47.9960 N   0  0  0  0  0  0  0  0  0  0  0  0
   46.9960   32.3940   46.8610 N   0  0  0  0  0  0  0  0  0  0  0  0
   49.1230   29.1040   48.7360 N   0  0  0  0  0  0  0  0  0  0  0  0
   48.0190   29.5260   48.1230 N   0  0  0  0  0  0  0  0  0  0  0  0
   47.8270   30.8520   48.4160 C   0  0  0  0  0  0  0  0  0  0  0  0
   48.8530   31.2490   49.2390 C   0  0  0  0  0  0  0  0  0  0  0  0
   49.6430   30.1440   49.4210 C   0  0  0  0  0  0  0  0  0  0  0  0
   46.5500   34.4620   41.9730 C   0  0  0  0  0  0  0  0  0  0  0  0
   47.7840   35.3180   41.9130 C   0  0  0  0  0  0  0  0  0  0  0  0
   49.0240   34.6350   41.4540 C   0  0  1  0  0  0  0  0  0  0  0  0
   50.1010   34.4360   42.5230 C   0  0  0  0  0  0  0  0  0  0  0  0
   49.3850   33.2760   41.8730 C   0  0  2  0  0  0  0  0  0  0  0  0
   50.2320   32.4380   41.0630 N   0  0  0  0  0  0  0  0  0  0  0  0
   51.5020   32.2080   41.3610 N   0  0  0  0  0  0  0  0  0  0  0  0
   52.0520   31.3880   40.4300 C   0  0  0  0  0  0  0  0  0  0  0  0
   51.0420   31.1220   39.5330 C   0  0  0  0  0  0  0  0  0  0  0  0
   49.9030   31.7820   39.9340 C   0  0  0  0  0  0  0  0  0  0  0  0
   43.7106   36.7724   44.8766 H   0  0  0  0  0  0  0  0  0  0  0  0
   44.7637   36.4408   42.6245 H   0  0  0  0  0  0  0  0  0  0  0  0
   44.0647   33.4438   47.7828 H   0  0  0  0  0  0  0  0  0  0  0  0
   45.1657   31.6626   49.4644 H   0  0  0  0  0  0  0  0  0  0  0  0
   49.5119   28.1511   48.6947 H   0  0  0  0  0  0  0  0  0  0  0  0
   49.0088   32.2509   49.6655 H   0  0  0  0  0  0  0  0  0  0  0  0
   50.5582   30.1101   50.0304 H   0  0  0  0  0  0  0  0  0  0  0  0
   46.8259   33.4003   41.8908 H   0  0  0  0  0  0  0  0  0  0  0  0
   45.8699   34.7071   41.1439 H   0  0  0  0  0  0  0  0  0  0  0  0
   47.5832   36.1519   41.2242 H   0  0  0  0  0  0  0  0  0  0  0  0
   47.9812   35.6311   42.9489 H   0  0  0  0  0  0  0  0  0  0  0  0
   48.9343   35.0949   40.4588 H   0  0  0  0  0  0  0  0  0  0  0  0
   51.1576   34.6373   42.2924 H   0  0  0  0  0  0  0  0  0  0  0  0
   50.2681   34.7860   43.5524 H   0  0  0  0  0  0  0  0  0  0  0  0
   48.7624   32.4269   42.1915 H   0  0  0  0  0  0  0  0  0  0  0  0
   53.0863   31.0147   40.3987 H   0  0  0  0  0  0  0  0  0  0  0  0
   51.1310   30.4852   38.6405 H   0  0  0  0  0  0  0  0  0  0  0  0
   48.9232   31.7751   39.4340 H   0  0  0  0  0  0  0  0  0  0  0  0
  1  6  2  0
  2  1  1  0
  3  2  2  0
  3  4  1  0
  4  5  2  0
  5  6  1  0
  5  7  1  0
  7 11  2  0
  7  8  1  0
  8  9  2  0
 10 14  1  0
 10  9  1  0
 11 10  1  0
 12 16  1  0
 13 14  2  0
 13 12  1  0
 14 15  1  0
 15 16  2  0
 17  3  1  0
 18 17  1  0
 19 21  1  0
 19 18  1  0
 19 20  1  0
 21 20  1  0
 22 23  1  0
 22 21  1  0
 24 23  2  0
 25 26  2  0
 25 24  1  0
 26 22  1  0
  1 27  1  0
  2 28  1  0
  8 29  1  0
  9 30  1  0
 12 31  1  0
 15 32  1  0
 16 33  1  0
 17 34  1  0
 17 35  1  0
 18 36  1  0
 18 37  1  0
 19 38  1  6
 20 39  1  0
 20 40  1  0
 21 41  1  1
 24 42  1  0
 25 43  1  0
 26 44  1  0
M  ISO  8  27  14  28  14  29  14  30  14  31   9  32  14  33  14  34   8
M  ISO  8  35   8  36   8  37   8  38  13  39  13  40  13  41  13  42  14
M  ISO  2  43  14  44  14
M  END
>  <minimizedAffinity>  (1) 
-6.87336493

>  <minimizedRMSD>  (1) 
0.557827711

$$$$
