
     RDKit          3D

 40 43  0  0  1  0  0  0  0  0999 V2000
   44.4880   35.8090   44.6140 C   0  0  0  0  0  0  0  0  0  0  0  0
   45.0290   35.5520   43.3470 C   0  0  0  0  0  0  0  0  0  0  0  0
   45.8840   34.4690   43.2100 C   0  0  0  0  0  0  0  0  0  0  0  0
   46.1520   33.7210   44.2930 N   0  0  0  0  0  0  0  0  0  0  0  0
   45.6030   34.0030   45.5170 C   0  0  0  0  0  0  0  0  0  0  0  0
   44.7800   35.0300   45.6910 N   0  0  0  0  0  0  0  0  0  0  0  0
   45.9760   33.1120   46.6120 C   0  0  0  0  0  0  0  0  0  0  0  0
   45.1130   32.9450   47.6770 C   0  0  0  0  0  0  0  0  0  0  0  0
   45.6680   32.0690   48.5770 C   0  0  0  0  0  0  0  0  0  0  0  0
   46.8530   31.7160   48.0520 N   0  0  0  0  0  0  0  0  0  0  0  0
   47.0490   32.3330   46.8770 N   0  0  0  0  0  0  0  0  0  0  0  0
   49.2020   29.1490   48.9120 N   0  0  0  0  0  0  0  0  0  0  0  0
   48.0850   29.5250   48.2750 N   0  0  0  0  0  0  0  0  0  0  0  0
   47.8880   30.8460   48.5010 C   0  0  0  0  0  0  0  0  0  0  0  0
   48.9190   31.3040   49.3050 C   0  0  0  0  0  0  0  0  0  0  0  0
   49.7190   30.2140   49.5400 C   0  0  0  0  0  0  0  0  0  0  0  0
   46.4940   34.1370   41.9000 C   0  0  0  0  0  0  0  0  0  0  0  0
   47.5340   35.1950   41.6130 C   0  0  0  0  0  0  0  0  0  0  0  0
   48.9210   34.6810   41.4920 C   0  0  1  0  0  0  0  0  0  0  0  0
   49.8970   35.1460   42.5580 C   0  0  0  0  0  0  0  0  0  0  0  0
   49.4910   33.6900   42.4190 C   0  0  2  0  0  0  0  0  0  0  0  0
   50.4530   32.7100   41.8710 C   0  0  0  0  0  0  0  0  0  0  0  0
   50.2290   31.5290   41.5800 O   0  0  0  0  0  0  0  0  0  0  0  0
   51.7860   32.9520   41.5860 O   0  0  0  0  0  0  0  0  0  0  0  0
   43.8083   36.6644   44.7415 H   0  0  0  0  0  0  0  0  0  0  0  0
   44.7825   36.1909   42.4862 H   0  0  0  0  0  0  0  0  0  0  0  0
   44.1350   33.4363   47.7870 H   0  0  0  0  0  0  0  0  0  0  0  0
   45.2335   31.7279   49.5282 H   0  0  0  0  0  0  0  0  0  0  0  0
   49.5981   28.1982   48.9181 H   0  0  0  0  0  0  0  0  0  0  0  0
   49.0659   32.3285   49.6776 H   0  0  0  0  0  0  0  0  0  0  0  0
   50.6369   30.2144   50.1463 H   0  0  0  0  0  0  0  0  0  0  0  0
   46.9673   33.1450   41.9448 H   0  0  0  0  0  0  0  0  0  0  0  0
   45.7312   34.1129   41.1079 H   0  0  0  0  0  0  0  0  0  0  0  0
   47.2679   35.6902   40.6675 H   0  0  0  0  0  0  0  0  0  0  0  0
   47.5290   35.8790   42.4745 H   0  0  0  0  0  0  0  0  0  0  0  0
   48.8468   34.6971   40.3946 H   0  0  0  0  0  0  0  0  0  0  0  0
   50.9111   35.4689   42.2798 H   0  0  0  0  0  0  0  0  0  0  0  0
   49.8881   35.8945   43.3640 H   0  0  0  0  0  0  0  0  0  0  0  0
   49.0830   32.9447   43.1176 H   0  0  0  0  0  0  0  0  0  0  0  0
   52.3532   32.2280   41.2196 H   0  0  0  0  0  0  0  0  0  0  0  0
  1  6  2  0
  2  1  1  0
  3  2  2  0
  3  4  1  0
  4  5  2  0
  5  6  1  0
  5  7  1  0
  7 11  2  0
  7  8  1  0
  8  9  2  0
 10 14  1  0
 10  9  1  0
 11 10  1  0
 12 16  1  0
 13 14  2  0
 13 12  1  0
 14 15  1  0
 15 16  2  0
 17  3  1  0
 18 17  1  0
 19 18  1  0
 19 21  1  0
 19 20  1  0
 21 20  1  0
 22 21  1  0
 23 22  2  0
 24 22  1  0
  1 25  1  0
  2 26  1  0
  8 27  1  0
  9 28  1  0
 12 29  1  0
 15 30  1  0
 16 31  1  0
 17 32  1  0
 17 33  1  0
 18 34  1  0
 18 35  1  0
 19 36  1  6
 20 37  1  0
 20 38  1  0
 21 39  1  1
 24 40  1  0
M  ISO  8  25  14  26  14  27  14  28  14  29   9  30  14  31  14  32   8
M  ISO  8  33   8  34   8  35   8  36  13  37  13  38  13  39  13  40   3
M  END
>  <minimizedAffinity>  (1) 
-6.86883736

>  <minimizedRMSD>  (1) 
0.247220576

$$$$
