
     RDKit          3D

 43 47  0  0  1  0  0  0  0  0999 V2000
   44.4140   35.9360   44.7240 C   0  0  0  0  0  0  0  0  0  0  0  0
   45.0000   35.7520   43.4700 C   0  0  0  0  0  0  0  0  0  0  0  0
   45.8890   34.7030   43.2930 C   0  0  0  0  0  0  0  0  0  0  0  0
   46.1400   33.9120   44.3450 N   0  0  0  0  0  0  0  0  0  0  0  0
   45.5640   34.1000   45.5600 C   0  0  0  0  0  0  0  0  0  0  0  0
   44.7090   35.0980   45.7580 N   0  0  0  0  0  0  0  0  0  0  0  0
   45.9210   33.1710   46.6280 C   0  0  0  0  0  0  0  0  0  0  0  0
   45.0500   32.9550   47.6740 C   0  0  0  0  0  0  0  0  0  0  0  0
   45.6050   32.0450   48.5450 C   0  0  0  0  0  0  0  0  0  0  0  0
   46.7930   31.7330   48.0080 N   0  0  0  0  0  0  0  0  0  0  0  0
   46.9950   32.3900   46.8730 N   0  0  0  0  0  0  0  0  0  0  0  0
   49.1240   29.0940   48.7390 N   0  0  0  0  0  0  0  0  0  0  0  0
   48.0320   29.5310   48.1380 N   0  0  0  0  0  0  0  0  0  0  0  0
   47.8380   30.8470   48.4320 C   0  0  0  0  0  0  0  0  0  0  0  0
   48.8630   31.2410   49.2540 C   0  0  0  0  0  0  0  0  0  0  0  0
   49.6550   30.1300   49.4320 C   0  0  0  0  0  0  0  0  0  0  0  0
   46.5440   34.4570   41.9830 C   0  0  0  0  0  0  0  0  0  0  0  0
   47.7550   35.3460   41.9040 C   0  0  0  0  0  0  0  0  0  0  0  0
   49.0120   34.6930   41.4610 C   0  0  1  0  0  0  0  0  0  0  0  0
   50.0890   34.5460   42.5390 C   0  0  0  0  0  0  0  0  0  0  0  0
   49.4040   33.3440   41.9010 C   0  0  2  0  0  0  0  0  0  0  0  0
   50.2650   32.4950   41.1380 N   0  0  0  0  0  0  0  0  0  0  0  0
   49.8900   31.8320   40.0250 C   0  0  0  0  0  0  0  0  0  0  0  0
   50.9280   31.1210   39.5430 N   0  0  0  0  0  0  0  0  0  0  0  0
   51.9780   31.3490   40.3790 C   0  0  0  0  0  0  0  0  0  0  0  0
   51.5540   32.1980   41.3580 N   0  0  0  0  0  0  0  0  0  0  0  0
   43.7077   36.7649   44.8790 H   0  0  0  0  0  0  0  0  0  0  0  0
   44.7602   36.4283   42.6362 H   0  0  0  0  0  0  0  0  0  0  0  0
   44.0670   33.4339   47.7938 H   0  0  0  0  0  0  0  0  0  0  0  0
   45.1689   31.6583   49.4779 H   0  0  0  0  0  0  0  0  0  0  0  0
   49.5035   28.1377   48.6897 H   0  0  0  0  0  0  0  0  0  0  0  0
   49.0199   32.2415   49.6835 H   0  0  0  0  0  0  0  0  0  0  0  0
   50.5714   30.0895   50.0390 H   0  0  0  0  0  0  0  0  0  0  0  0
   46.8477   33.4024   41.9080 H   0  0  0  0  0  0  0  0  0  0  0  0
   45.8503   34.6760   41.1579 H   0  0  0  0  0  0  0  0  0  0  0  0
   47.5306   36.1588   41.1976 H   0  0  0  0  0  0  0  0  0  0  0  0
   47.9428   35.6845   42.9336 H   0  0  0  0  0  0  0  0  0  0  0  0
   48.9173   35.1342   40.4578 H   0  0  0  0  0  0  0  0  0  0  0  0
   51.1405   34.7737   42.3098 H   0  0  0  0  0  0  0  0  0  0  0  0
   50.2406   34.9196   43.5625 H   0  0  0  0  0  0  0  0  0  0  0  0
   48.7966   32.4845   42.2209 H   0  0  0  0  0  0  0  0  0  0  0  0
   48.8858   31.8666   39.5773 H   0  0  0  0  0  0  0  0  0  0  0  0
   52.9880   30.9242   40.2820 H   0  0  0  0  0  0  0  0  0  0  0  0
  1  6  2  0
  2  1  1  0
  3  2  2  0
  3  4  1  0
  4  5  2  0
  5  6  1  0
  5  7  1  0
  7 11  2  0
  7  8  1  0
  8  9  2  0
 10 14  1  0
 10  9  1  0
 11 10  1  0
 12 16  1  0
 13 14  2  0
 13 12  1  0
 14 15  1  0
 15 16  2  0
 17  3  1  0
 18 17  1  0
 19 21  1  0
 19 18  1  0
 19 20  1  0
 21 20  1  0
 22 26  1  0
 22 21  1  0
 23 22  1  0
 24 23  2  0
 24 25  1  0
 25 26  2  0
  1 27  1  0
  2 28  1  0
  8 29  1  0
  9 30  1  0
 12 31  1  0
 15 32  1  0
 16 33  1  0
 17 34  1  0
 17 35  1  0
 18 36  1  0
 18 37  1  0
 19 38  1  6
 20 39  1  0
 20 40  1  0
 21 41  1  1
 23 42  1  0
 25 43  1  0
M  ISO  8  27  14  28  14  29  14  30  14  31   9  32  14  33  14  34   8
M  ISO  8  35   8  36   8  37   8  38  13  39  13  40  13  41  13  42  14
M  ISO  1  43  14
M  END
>  <minimizedAffinity>  (1) 
-6.85740614

>  <minimizedRMSD>  (1) 
0.525677621

$$$$
