
     RDKit          3D

 50 54  0  0  1  0  0  0  0  0999 V2000
   44.4030   36.0440   44.6600 C   0  0  0  0  0  0  0  0  0  0  0  0
   44.9580   35.8410   43.3850 C   0  0  0  0  0  0  0  0  0  0  0  0
   45.8130   34.7680   43.1970 C   0  0  0  0  0  0  0  0  0  0  0  0
   46.0700   33.9700   44.2480 N   0  0  0  0  0  0  0  0  0  0  0  0
   45.5160   34.1920   45.4730 C   0  0  0  0  0  0  0  0  0  0  0  0
   44.6900   35.2110   45.6940 N   0  0  0  0  0  0  0  0  0  0  0  0
   45.8720   33.2520   46.5380 C   0  0  0  0  0  0  0  0  0  0  0  0
   45.0220   33.0630   47.6070 C   0  0  0  0  0  0  0  0  0  0  0  0
   45.5750   32.1420   48.4640 C   0  0  0  0  0  0  0  0  0  0  0  0
   46.7460   31.7880   47.9050 N   0  0  0  0  0  0  0  0  0  0  0  0
   46.9360   32.4390   46.7630 N   0  0  0  0  0  0  0  0  0  0  0  0
   49.0250   29.1140   48.6210 N   0  0  0  0  0  0  0  0  0  0  0  0
   47.9150   29.5590   48.0300 N   0  0  0  0  0  0  0  0  0  0  0  0
   47.7700   30.8770   48.3090 C   0  0  0  0  0  0  0  0  0  0  0  0
   48.8330   31.2680   49.1050 C   0  0  0  0  0  0  0  0  0  0  0  0
   49.5950   30.1510   49.2820 C   0  0  0  0  0  0  0  0  0  0  0  0
   46.4320   34.4990   41.8790 C   0  0  0  0  0  0  0  0  0  0  0  0
   47.7400   35.2570   41.8290 C   0  0  0  0  0  0  0  0  0  0  0  0
   48.9340   34.4220   41.5530 C   0  0  1  0  0  0  0  0  0  0  0  0
   49.9740   34.3430   42.6520 C   0  0  0  0  0  0  0  0  0  0  0  0
   49.1710   33.1230   42.1980 C   0  0  2  0  0  0  0  0  0  0  0  0
   50.0080   32.0500   41.6030 C   0  0  0  0  0  0  0  0  0  0  0  0
   49.6520   31.9680   40.1240 C   0  0  0  0  0  0  0  0  0  0  0  0
   50.7570   31.1000   39.5960 C   0  0  0  0  0  0  0  0  0  0  0  0
   51.9570   31.5430   40.3770 C   0  0  0  0  0  0  0  0  0  0  0  0
   51.4700   32.3290   41.5640 C   0  0  0  0  0  0  0  0  0  0  0  0
   43.7234   36.8933   44.8238 H   0  0  0  0  0  0  0  0  0  0  0  0
   44.7183   36.5203   42.5537 H   0  0  0  0  0  0  0  0  0  0  0  0
   44.0557   33.5686   47.7509 H   0  0  0  0  0  0  0  0  0  0  0  0
   45.1495   31.7721   49.4085 H   0  0  0  0  0  0  0  0  0  0  0  0
   49.3861   28.1502   48.5819 H   0  0  0  0  0  0  0  0  0  0  0  0
   49.0237   32.2724   49.5109 H   0  0  0  0  0  0  0  0  0  0  0  0
   50.5245   30.0997   49.8680 H   0  0  0  0  0  0  0  0  0  0  0  0
   46.6178   33.4209   41.7642 H   0  0  0  0  0  0  0  0  0  0  0  0
   45.7660   34.8206   41.0648 H   0  0  0  0  0  0  0  0  0  0  0  0
   47.6644   36.0176   41.0380 H   0  0  0  0  0  0  0  0  0  0  0  0
   47.8875   35.6854   42.8314 H   0  0  0  0  0  0  0  0  0  0  0  0
   48.9006   34.7147   40.4932 H   0  0  0  0  0  0  0  0  0  0  0  0
   51.0443   34.4252   42.4119 H   0  0  0  0  0  0  0  0  0  0  0  0
   50.1574   34.8589   43.6061 H   0  0  0  0  0  0  0  0  0  0  0  0
   48.4628   32.3904   42.6125 H   0  0  0  0  0  0  0  0  0  0  0  0
   49.8162   31.1613   42.2222 H   0  0  0  0  0  0  0  0  0  0  0  0
   48.6676   31.5009   39.9733 H   0  0  0  0  0  0  0  0  0  0  0  0
   49.5748   32.9463   39.6271 H   0  0  0  0  0  0  0  0  0  0  0  0
   50.5415   30.0366   39.7767 H   0  0  0  0  0  0  0  0  0  0  0  0
   50.8947   31.1974   38.5090 H   0  0  0  0  0  0  0  0  0  0  0  0
   52.5264   30.6656   40.7175 H   0  0  0  0  0  0  0  0  0  0  0  0
   52.6155   32.1625   39.7504 H   0  0  0  0  0  0  0  0  0  0  0  0
   51.9587   31.9858   42.4878 H   0  0  0  0  0  0  0  0  0  0  0  0
   51.6949   33.4027   41.4830 H   0  0  0  0  0  0  0  0  0  0  0  0
  1  6  2  0
  2  1  1  0
  3  2  2  0
  3  4  1  0
  4  5  2  0
  5  6  1  0
  5  7  1  0
  7 11  2  0
  7  8  1  0
  8  9  2  0
 10 14  1  0
 10  9  1  0
 11 10  1  0
 12 16  1  0
 13 14  2  0
 13 12  1  0
 14 15  1  0
 15 16  2  0
 17  3  1  0
 18 17  1  0
 19 18  1  0
 19 21  1  0
 19 20  1  0
 21 20  1  0
 22 21  1  0
 23 22  1  0
 24 23  1  0
 24 25  1  0
 25 26  1  0
 26 22  1  0
  1 27  1  0
  2 28  1  0
  8 29  1  0
  9 30  1  0
 12 31  1  0
 15 32  1  0
 16 33  1  0
 17 34  1  0
 17 35  1  0
 18 36  1  0
 18 37  1  0
 19 38  1  6
 20 39  1  0
 20 40  1  0
 21 41  1  1
 22 42  1  0
 23 43  1  0
 23 44  1  0
 24 45  1  0
 24 46  1  0
 25 47  1  0
 25 48  1  0
 26 49  1  0
 26 50  1  0
M  ISO  8  27  14  28  14  29  14  30  14  31   9  32  14  33  14  34   8
M  ISO  8  35   8  36   8  37   8  38  13  39  13  40  13  41  13  42  13
M  ISO  8  43  13  44  13  45  13  46  13  47  13  48  13  49  13  50  13
M  END
>  <minimizedAffinity>  (1) 
-6.80624151

>  <minimizedRMSD>  (1) 
0.323273897

$$$$
