
     RDKit          3D

 46 49  0  0  1  0  0  0  0  0999 V2000
   44.4560   35.8640   44.6750 C   0  0  0  0  0  0  0  0  0  0  0  0
   45.0360   35.6660   43.4110 C   0  0  0  0  0  0  0  0  0  0  0  0
   45.9260   34.6100   43.2540 C   0  0  0  0  0  0  0  0  0  0  0  0
   46.1850   33.8300   44.3250 N   0  0  0  0  0  0  0  0  0  0  0  0
   45.5960   34.0600   45.5350 C   0  0  0  0  0  0  0  0  0  0  0  0
   44.7450   35.0570   45.7180 N   0  0  0  0  0  0  0  0  0  0  0  0
   45.9630   33.1370   46.6220 C   0  0  0  0  0  0  0  0  0  0  0  0
   45.0970   32.9480   47.6720 C   0  0  0  0  0  0  0  0  0  0  0  0
   45.6490   32.0550   48.5520 C   0  0  0  0  0  0  0  0  0  0  0  0
   46.8390   31.7160   48.0240 N   0  0  0  0  0  0  0  0  0  0  0  0
   47.0310   32.3620   46.8670 N   0  0  0  0  0  0  0  0  0  0  0  0
   49.1730   29.1100   48.8250 N   0  0  0  0  0  0  0  0  0  0  0  0
   48.0670   29.5180   48.2070 N   0  0  0  0  0  0  0  0  0  0  0  0
   47.8740   30.8360   48.4580 C   0  0  0  0  0  0  0  0  0  0  0  0
   48.9090   31.2670   49.2700 C   0  0  0  0  0  0  0  0  0  0  0  0
   49.6980   30.1550   49.4740 C   0  0  0  0  0  0  0  0  0  0  0  0
   46.5800   34.3340   41.9540 C   0  0  0  0  0  0  0  0  0  0  0  0
   47.7530   35.2780   41.8380 C   0  0  0  0  0  0  0  0  0  0  0  0
   49.0440   34.6110   41.5410 C   0  0  1  0  0  0  0  0  0  0  0  0
   50.1150   34.7580   42.6250 C   0  0  0  0  0  0  0  0  0  0  0  0
   49.5280   33.4180   42.2620 C   0  0  2  0  0  0  0  0  0  0  0  0
   50.4770   32.4730   41.5790 C   0  0  0  0  0  0  0  0  0  0  0  0
   49.8450   31.9560   40.3240 C   0  0  0  0  0  0  0  0  0  0  0  0
   50.8210   31.3550   42.5610 C   0  0  0  0  0  0  0  0  0  0  0  0
   43.7503   36.6955   44.8182 H   0  0  0  0  0  0  0  0  0  0  0  0
   44.7923   36.3291   42.5678 H   0  0  0  0  0  0  0  0  0  0  0  0
   44.1177   33.4355   47.7874 H   0  0  0  0  0  0  0  0  0  0  0  0
   45.2110   31.6913   49.4932 H   0  0  0  0  0  0  0  0  0  0  0  0
   49.5579   28.1548   48.8066 H   0  0  0  0  0  0  0  0  0  0  0  0
   49.0679   32.2803   49.6675 H   0  0  0  0  0  0  0  0  0  0  0  0
   50.6174   30.1309   50.0774 H   0  0  0  0  0  0  0  0  0  0  0  0
   46.9298   33.2916   41.9214 H   0  0  0  0  0  0  0  0  0  0  0  0
   45.8754   34.4809   41.1222 H   0  0  0  0  0  0  0  0  0  0  0  0
   47.5409   35.9939   41.0302 H   0  0  0  0  0  0  0  0  0  0  0  0
   47.8664   35.7628   42.8189 H   0  0  0  0  0  0  0  0  0  0  0  0
   48.9231   34.8131   40.4665 H   0  0  0  0  0  0  0  0  0  0  0  0
   51.1520   35.0023   42.3513 H   0  0  0  0  0  0  0  0  0  0  0  0
   50.2277   35.3459   43.5479 H   0  0  0  0  0  0  0  0  0  0  0  0
   49.0041   32.6096   42.7930 H   0  0  0  0  0  0  0  0  0  0  0  0
   51.4095   32.9783   41.2873 H   0  0  0  0  0  0  0  0  0  0  0  0
   49.0174   31.2790   40.5822 H   0  0  0  0  0  0  0  0  0  0  0  0
   49.4580   32.7998   39.7339 H   0  0  0  0  0  0  0  0  0  0  0  0
   50.5953   31.4094   39.7339 H   0  0  0  0  0  0  0  0  0  0  0  0
   50.7075   31.7239   43.5911 H   0  0  0  0  0  0  0  0  0  0  0  0
   50.1432   30.5038   42.3996 H   0  0  0  0  0  0  0  0  0  0  0  0
   51.8601   31.0321   42.3996 H   0  0  0  0  0  0  0  0  0  0  0  0
  1  6  2  0
  2  1  1  0
  3  2  2  0
  3  4  1  0
  4  5  2  0
  5  6  1  0
  5  7  1  0
  7 11  2  0
  7  8  1  0
  8  9  2  0
 10 14  1  0
 10  9  1  0
 11 10  1  0
 12 16  1  0
 13 14  2  0
 13 12  1  0
 14 15  1  0
 15 16  2  0
 17  3  1  0
 18 17  1  0
 19 18  1  0
 19 21  1  0
 19 20  1  0
 21 20  1  0
 22 21  1  0
 22 24  1  0
 23 22  1  0
  1 25  1  0
  2 26  1  0
  8 27  1  0
  9 28  1  0
 12 29  1  0
 15 30  1  0
 16 31  1  0
 17 32  1  0
 17 33  1  0
 18 34  1  0
 18 35  1  0
 19 36  1  6
 20 37  1  0
 20 38  1  0
 21 39  1  1
 22 40  1  0
 23 41  1  0
 23 42  1  0
 23 43  1  0
 24 44  1  0
 24 45  1  0
 24 46  1  0
M  ISO  8  25  14  26  14  27  14  28  14  29   9  30  14  31  14  32   8
M  ISO  8  33   8  34   8  35   8  36  13  37  13  38  13  39  13  40   8
M  ISO  6  41   8  42   8  43   8  44   8  45   8  46   8
M  END
>  <minimizedAffinity>  (1) 
-6.62219429

>  <minimizedRMSD>  (1) 
0.228178874

$$$$
