
     RDKit          3D

 38 41  0  0  1  0  0  0  0  0999 V2000
   44.4720   35.8580   44.6490 C   0  0  0  0  0  0  0  0  0  0  0  0
   45.0370   35.6330   43.3910 C   0  0  0  0  0  0  0  0  0  0  0  0
   45.9080   34.5620   43.2340 C   0  0  0  0  0  0  0  0  0  0  0  0
   46.1650   33.7930   44.3050 N   0  0  0  0  0  0  0  0  0  0  0  0
   45.5980   34.0380   45.5240 C   0  0  0  0  0  0  0  0  0  0  0  0
   44.7620   35.0530   45.7040 N   0  0  0  0  0  0  0  0  0  0  0  0
   45.9500   33.1370   46.6140 C   0  0  0  0  0  0  0  0  0  0  0  0
   45.0990   32.9500   47.6740 C   0  0  0  0  0  0  0  0  0  0  0  0
   45.6560   32.0610   48.5600 C   0  0  0  0  0  0  0  0  0  0  0  0
   46.8340   31.7230   48.0270 N   0  0  0  0  0  0  0  0  0  0  0  0
   47.0250   32.3510   46.8720 N   0  0  0  0  0  0  0  0  0  0  0  0
   49.1750   29.1170   48.8320 N   0  0  0  0  0  0  0  0  0  0  0  0
   48.0790   29.5270   48.2180 N   0  0  0  0  0  0  0  0  0  0  0  0
   47.8740   30.8410   48.4660 C   0  0  0  0  0  0  0  0  0  0  0  0
   48.9030   31.2790   49.2850 C   0  0  0  0  0  0  0  0  0  0  0  0
   49.7000   30.1770   49.4950 C   0  0  0  0  0  0  0  0  0  0  0  0
   46.5440   34.2570   41.9380 C   0  0  0  0  0  0  0  0  0  0  0  0
   47.7150   35.2100   41.7790 C   0  0  0  0  0  0  0  0  0  0  0  0
   49.0190   34.5410   41.5720 C   0  0  1  0  0  0  0  0  0  0  0  0
   50.0880   34.8240   42.6330 C   0  0  0  0  0  0  0  0  0  0  0  0
   49.5100   33.4360   42.4200 C   0  0  2  0  0  0  0  0  0  0  0  0
   50.7290   32.2680   41.7670 S   0  0  0  0  0  0  0  0  0  0  0  0
   43.7802   36.7019   44.7875 H   0  0  0  0  0  0  0  0  0  0  0  0
   44.7971   36.2904   42.5423 H   0  0  0  0  0  0  0  0  0  0  0  0
   44.1205   33.4376   47.7954 H   0  0  0  0  0  0  0  0  0  0  0  0
   45.2246   31.7033   49.5066 H   0  0  0  0  0  0  0  0  0  0  0  0
   49.5615   28.1625   48.8108 H   0  0  0  0  0  0  0  0  0  0  0  0
   49.0512   32.2936   49.6832 H   0  0  0  0  0  0  0  0  0  0  0  0
   50.6163   30.1589   50.1033 H   0  0  0  0  0  0  0  0  0  0  0  0
   46.9006   33.2165   41.9285 H   0  0  0  0  0  0  0  0  0  0  0  0
   45.8270   34.3773   41.1125 H   0  0  0  0  0  0  0  0  0  0  0  0
   47.5178   35.8569   40.9114 H   0  0  0  0  0  0  0  0  0  0  0  0
   47.7946   35.7723   42.7211 H   0  0  0  0  0  0  0  0  0  0  0  0
   48.9035   34.6275   40.4815 H   0  0  0  0  0  0  0  0  0  0  0  0
   51.1227   35.0470   42.3337 H   0  0  0  0  0  0  0  0  0  0  0  0
   50.1939   35.5137   43.4834 H   0  0  0  0  0  0  0  0  0  0  0  0
   48.9732   32.6795   43.0112 H   0  0  0  0  0  0  0  0  0  0  0  0
   51.3730   31.6510   42.8069 H   0  0  0  0  0  0  0  0  0  0  0  0
  1  6  2  0
  2  1  1  0
  3  2  2  0
  3  4  1  0
  4  5  2  0
  5  6  1  0
  5  7  1  0
  7 11  2  0
  7  8  1  0
  8  9  2  0
 10 14  1  0
 10  9  1  0
 11 10  1  0
 12 16  1  0
 13 14  2  0
 13 12  1  0
 14 15  1  0
 15 16  2  0
 17  3  1  0
 18 17  1  0
 19 18  1  0
 19 21  1  0
 19 20  1  0
 21 20  1  0
 22 21  1  0
  1 23  1  0
  2 24  1  0
  8 25  1  0
  9 26  1  0
 12 27  1  0
 15 28  1  0
 16 29  1  0
 17 30  1  0
 17 31  1  0
 18 32  1  0
 18 33  1  0
 19 34  1  6
 20 35  1  0
 20 36  1  0
 21 37  1  1
 22 38  1  0
M  ISO  8  23  14  24  14  25  14  26  14  27   9  28  14  29  14  30   8
M  ISO  8  31   8  32   8  33   8  34  13  35  13  36  13  37  13  38  11
M  END
>  <minimizedAffinity>  (1) 
-6.48619652

>  <minimizedRMSD>  (1) 
0.0333867632

$$$$
