
     RDKit          3D

 39 42  0  0  1  0  0  0  0  0999 V2000
   44.5060   35.7430   44.5680 C   0  0  0  0  0  0  0  0  0  0  0  0
   44.9330   35.3560   43.2900 C   0  0  0  0  0  0  0  0  0  0  0  0
   45.7030   34.2050   43.1660 C   0  0  0  0  0  0  0  0  0  0  0  0
   46.0020   33.5200   44.2730 N   0  0  0  0  0  0  0  0  0  0  0  0
   45.5730   33.9180   45.5110 C   0  0  0  0  0  0  0  0  0  0  0  0
   44.8340   35.0140   45.6670 N   0  0  0  0  0  0  0  0  0  0  0  0
   45.9670   33.0820   46.6410 C   0  0  0  0  0  0  0  0  0  0  0  0
   45.1260   32.9620   47.7250 C   0  0  0  0  0  0  0  0  0  0  0  0
   45.7170   32.1240   48.6580 C   0  0  0  0  0  0  0  0  0  0  0  0
   46.8860   31.7640   48.1220 N   0  0  0  0  0  0  0  0  0  0  0  0
   47.0520   32.3230   46.9230 N   0  0  0  0  0  0  0  0  0  0  0  0
   49.2370   29.2020   49.0210 N   0  0  0  0  0  0  0  0  0  0  0  0
   48.1270   29.5860   48.4160 N   0  0  0  0  0  0  0  0  0  0  0  0
   47.9340   30.9240   48.5880 C   0  0  0  0  0  0  0  0  0  0  0  0
   48.9870   31.3940   49.3420 C   0  0  0  0  0  0  0  0  0  0  0  0
   49.7800   30.2930   49.5940 C   0  0  0  0  0  0  0  0  0  0  0  0
   46.1860   33.7430   41.8400 C   0  0  0  0  0  0  0  0  0  0  0  0
   46.9500   34.8860   41.2180 C   0  0  0  0  0  0  0  0  0  0  0  0
   48.4200   34.7330   41.2400 C   0  0  1  0  0  0  0  0  0  0  0  0
   49.2090   35.9850   41.6350 C   0  0  0  0  0  0  0  0  0  0  0  0
   49.2170   34.7080   42.4710 C   0  0  2  0  0  0  0  0  0  0  0  0
   50.5460   34.0260   42.4950 C   0  0  0  0  0  0  0  0  0  0  0  0
   50.6770   33.0070   41.8380 O   0  0  0  0  0  0  0  0  0  0  0  0
   43.8959   36.6510   44.6830 H   0  0  0  0  0  0  0  0  0  0  0  0
   44.6645   35.9503   42.4042 H   0  0  0  0  0  0  0  0  0  0  0  0
   44.1464   33.4507   47.8328 H   0  0  0  0  0  0  0  0  0  0  0  0
   45.3093   31.8200   49.6334 H   0  0  0  0  0  0  0  0  0  0  0  0
   49.6168   28.2450   49.0492 H   0  0  0  0  0  0  0  0  0  0  0  0
   49.1593   32.4287   49.6733 H   0  0  0  0  0  0  0  0  0  0  0  0
   50.7140   30.3048   50.1749 H   0  0  0  0  0  0  0  0  0  0  0  0
   46.8459   32.8715   41.9624 H   0  0  0  0  0  0  0  0  0  0  0  0
   45.3423   33.4445   41.2004 H   0  0  0  0  0  0  0  0  0  0  0  0
   46.6934   35.8062   41.7634 H   0  0  0  0  0  0  0  0  0  0  0  0
   46.6572   34.9141   40.1581 H   0  0  0  0  0  0  0  0  0  0  0  0
   48.3701   34.0286   40.3966 H   0  0  0  0  0  0  0  0  0  0  0  0
   50.1015   36.2840   41.0657 H   0  0  0  0  0  0  0  0  0  0  0  0
   48.9776   37.0461   41.8098 H   0  0  0  0  0  0  0  0  0  0  0  0
   48.9614   34.4103   43.4986 H   0  0  0  0  0  0  0  0  0  0  0  0
   51.3804   34.4304   43.0869 H   0  0  0  0  0  0  0  0  0  0  0  0
  1  6  2  0
  2  1  1  0
  3  2  2  0
  3  4  1  0
  4  5  2  0
  5  6  1  0
  5  7  1  0
  7 11  2  0
  7  8  1  0
  8  9  2  0
 10 14  1  0
 10  9  1  0
 11 10  1  0
 12 16  1  0
 13 14  2  0
 13 12  1  0
 14 15  1  0
 15 16  2  0
 17  3  1  0
 18 19  1  0
 18 17  1  0
 19 20  1  0
 19 21  1  0
 20 21  1  0
 21 22  1  0
 23 22  2  0
  1 24  1  0
  2 25  1  0
  8 26  1  0
  9 27  1  0
 12 28  1  0
 15 29  1  0
 16 30  1  0
 17 31  1  0
 17 32  1  0
 18 33  1  0
 18 34  1  0
 19 35  1  6
 20 36  1  0
 20 37  1  0
 21 38  1  1
 22 39  1  0
M  ISO  8  24  14  25  14  26  14  27  14  28   9  29  14  30  14  31   8
M  ISO  8  32   8  33   8  34   8  35  13  36  13  37  13  38  13  39   6
M  END
>  <minimizedAffinity>  (1) 
-6.63267469

>  <minimizedRMSD>  (1) 
0.789742172

$$$$
