
     RDKit          3D

 47 51  0  0  1  0  0  0  0  0999 V2000
   44.4500   35.8390   44.7110 C   0  0  0  0  0  0  0  0  0  0  0  0
   45.0350   35.6380   43.4480 C   0  0  0  0  0  0  0  0  0  0  0  0
   45.9190   34.5840   43.3100 C   0  0  0  0  0  0  0  0  0  0  0  0
   46.1760   33.8140   44.3610 N   0  0  0  0  0  0  0  0  0  0  0  0
   45.6030   34.0200   45.5730 C   0  0  0  0  0  0  0  0  0  0  0  0
   44.7370   35.0290   45.7640 N   0  0  0  0  0  0  0  0  0  0  0  0
   45.9550   33.1160   46.6520 C   0  0  0  0  0  0  0  0  0  0  0  0
   45.0790   32.9140   47.6990 C   0  0  0  0  0  0  0  0  0  0  0  0
   45.6430   32.0160   48.5890 C   0  0  0  0  0  0  0  0  0  0  0  0
   46.8450   31.7000   48.0570 N   0  0  0  0  0  0  0  0  0  0  0  0
   47.0150   32.3560   46.9170 N   0  0  0  0  0  0  0  0  0  0  0  0
   49.1870   29.1340   48.8910 N   0  0  0  0  0  0  0  0  0  0  0  0
   48.0820   29.5200   48.2560 N   0  0  0  0  0  0  0  0  0  0  0  0
   47.8790   30.8370   48.5020 C   0  0  0  0  0  0  0  0  0  0  0  0
   48.9020   31.2670   49.3180 C   0  0  0  0  0  0  0  0  0  0  0  0
   49.6970   30.1980   49.5450 C   0  0  0  0  0  0  0  0  0  0  0  0
   46.5760   34.3050   42.0240 C   0  0  0  0  0  0  0  0  0  0  0  0
   47.6300   35.3830   41.8110 C   0  0  0  0  0  0  0  0  0  0  0  0
   48.9420   34.8600   41.4080 C   0  0  1  0  0  0  0  0  0  0  0  0
   50.0150   34.9020   42.4820 C   0  0  0  0  0  0  0  0  0  0  0  0
   49.4800   33.5960   41.8540 C   0  0  1  0  0  0  0  0  0  0  0  0
   49.0900   32.7880   42.8960 O   0  0  0  0  0  0  0  0  0  0  0  0
   49.7050   31.4710   42.6190 C   0  0  0  0  0  0  0  0  0  0  0  0
   51.0270   31.2350   42.4790 C   0  0  0  0  0  0  0  0  0  0  0  0
   51.4880   29.9870   42.2340 C   0  0  0  0  0  0  0  0  0  0  0  0
   50.6790   28.8880   42.1110 C   0  0  0  0  0  0  0  0  0  0  0  0
   49.3360   29.1190   42.2520 C   0  0  0  0  0  0  0  0  0  0  0  0
   48.9210   30.3540   42.4900 N   0  0  0  0  0  0  0  0  0  0  0  0
   43.7439   36.6709   44.8499 H   0  0  0  0  0  0  0  0  0  0  0  0
   44.7975   36.2965   42.5995 H   0  0  0  0  0  0  0  0  0  0  0  0
   44.0930   33.3892   47.8086 H   0  0  0  0  0  0  0  0  0  0  0  0
   45.2072   31.6406   49.5266 H   0  0  0  0  0  0  0  0  0  0  0  0
   49.5849   28.1840   48.8840 H   0  0  0  0  0  0  0  0  0  0  0  0
   49.0445   32.2850   49.7097 H   0  0  0  0  0  0  0  0  0  0  0  0
   50.6085   30.1958   50.1607 H   0  0  0  0  0  0  0  0  0  0  0  0
   47.0517   33.3136   42.0516 H   0  0  0  0  0  0  0  0  0  0  0  0
   45.8435   34.3089   41.2034 H   0  0  0  0  0  0  0  0  0  0  0  0
   47.2733   36.0661   41.0261 H   0  0  0  0  0  0  0  0  0  0  0  0
   47.7705   35.8882   42.7780 H   0  0  0  0  0  0  0  0  0  0  0  0
   48.7954   35.2480   40.3892 H   0  0  0  0  0  0  0  0  0  0  0  0
   51.0277   35.2621   42.2481 H   0  0  0  0  0  0  0  0  0  0  0  0
   50.1159   35.3188   43.4950 H   0  0  0  0  0  0  0  0  0  0  0  0
   49.7145   32.7383   41.2064 H   0  0  0  0  0  0  0  0  0  0  0  0
   51.7390   32.0690   42.5653 H   0  0  0  0  0  0  0  0  0  0  0  0
   52.5738   29.8465   42.1275 H   0  0  0  0  0  0  0  0  0  0  0  0
   51.0822   27.8841   41.9117 H   0  0  0  0  0  0  0  0  0  0  0  0
   48.6146   28.2928   42.1689 H   0  0  0  0  0  0  0  0  0  0  0  0
  1  6  2  0
  2  1  1  0
  3  2  2  0
  3  4  1  0
  4  5  2  0
  5  6  1  0
  5  7  1  0
  7 11  2  0
  7  8  1  0
  8  9  2  0
 10 14  1  0
 10  9  1  0
 11 10  1  0
 12 16  1  0
 13 14  2  0
 13 12  1  0
 14 15  1  0
 15 16  2  0
 17  3  1  0
 18 17  1  0
 19 18  1  0
 19 21  1  0
 19 20  1  0
 21 20  1  0
 21 22  1  0
 23 22  1  0
 24 23  2  0
 25 24  1  0
 26 25  2  0
 26 27  1  0
 27 28  2  0
 28 23  1  0
  1 29  1  0
  2 30  1  0
  8 31  1  0
  9 32  1  0
 12 33  1  0
 15 34  1  0
 16 35  1  0
 17 36  1  0
 17 37  1  0
 18 38  1  0
 18 39  1  0
 19 40  1  6
 20 41  1  0
 20 42  1  0
 21 43  1  6
 24 44  1  0
 25 45  1  0
 26 46  1  0
 27 47  1  0
M  ISO  8  29  14  30  14  31  14  32  14  33   9  34  14  35  14  36   8
M  ISO  8  37   8  38   8  39   8  40  13  41  13  42  13  43  13  44  14
M  ISO  3  45  14  46  14  47  14
M  END
>  <minimizedAffinity>  (1) 
-6.42466927

>  <minimizedRMSD>  (1) 
1.17779458

$$$$
