
     RDKit          3D

 28 29  0  0  1  0  0  0  0  0999 V2000
   44.5380   35.9390   44.8490 C   0  0  0  0  0  0  0  0  0  0  0  0
   45.1300   35.9040   43.5480 C   0  0  0  0  0  0  0  0  0  0  0  0
   45.9550   34.8140   43.2270 C   0  0  0  0  0  0  0  0  0  0  0  0
   46.1340   33.8570   44.1900 N   0  0  0  0  0  0  0  0  0  0  0  0
   45.5590   33.9290   45.3960 C   0  0  0  0  0  0  0  0  0  0  0  0
   44.7670   34.9600   45.7260 N   0  0  0  0  0  0  0  0  0  0  0  0
   45.7980   32.8780   46.3500 N   0  0  0  0  0  0  0  0  0  0  0  0
   45.1310   32.9200   47.6590 C   0  0  0  0  0  0  0  0  0  0  0  0
   45.9460   32.2830   48.7440 C   0  0  0  0  0  0  0  0  0  0  0  0
   47.4020   32.2690   48.3030 C   0  0  0  0  0  0  0  0  0  0  0  0
   47.4560   31.2640   47.1780 C   0  0  0  0  0  0  0  0  0  0  0  0
   46.6880   31.7940   46.0160 C   0  0  1  0  0  0  0  0  0  0  0  0
   46.0330   30.7440   45.1930 C   0  0  0  0  0  0  0  0  0  0  0  0
   46.4990   30.3750   44.0710 O   0  0  0  0  0  0  0  0  0  0  0  0
   44.8560   30.0800   45.5840 O   0  0  0  0  0  0  0  0  0  0  0  0
   43.8878   36.7808   45.1294 H   0  0  0  0  0  0  0  0  0  0  0  0
   44.9446   36.7074   42.8199 H   0  0  0  0  0  0  0  0  0  0  0  0
   46.4379   34.7322   42.2420 H   0  0  0  0  0  0  0  0  0  0  0  0
   44.9480   33.9710   47.9272 H   0  0  0  0  0  0  0  0  0  0  0  0
   44.1923   32.3531   47.5721 H   0  0  0  0  0  0  0  0  0  0  0  0
   45.8447   32.8620   49.6738 H   0  0  0  0  0  0  0  0  0  0  0  0
   45.5960   31.2564   48.9275 H   0  0  0  0  0  0  0  0  0  0  0  0
   47.7088   33.2641   47.9484 H   0  0  0  0  0  0  0  0  0  0  0  0
   48.0822   32.0064   49.1266 H   0  0  0  0  0  0  0  0  0  0  0  0
   48.5024   31.0967   46.8830 H   0  0  0  0  0  0  0  0  0  0  0  0
   47.0174   30.3113   47.5097 H   0  0  0  0  0  0  0  0  0  0  0  0
   47.4585   32.2346   45.3662 H   0  0  0  0  0  0  0  0  0  0  0  0
   44.4603   29.3874   44.9977 H   0  0  0  0  0  0  0  0  0  0  0  0
  1  6  2  0
  2  1  1  0
  3  2  2  0
  3  4  1  0
  4  5  2  0
  5  6  1  0
  5  7  1  0
  7  8  1  0
  8  9  1  0
 10  9  1  0
 11 10  1  0
 12  7  1  0
 12 11  1  0
 13 15  1  0
 13 12  1  0
 14 13  2  0
  1 16  1  0
  2 17  1  0
  3 18  1  0
  8 19  1  0
  8 20  1  0
  9 21  1  0
  9 22  1  0
 10 23  1  0
 10 24  1  0
 11 25  1  0
 11 26  1  0
 12 27  1  6
 15 28  1  0
M  ISO  8  16  14  17  14  18  14  19  13  20  13  21  13  22  13  23  13
M  ISO  5  24  13  25  13  26  13  27  13  28   3
M  END
>  <minimizedAffinity>  (1) 
-4.99027395

>  <minimizedRMSD>  (1) 
0.447990954

$$$$
