
     RDKit          3D

 50 53  0  0  1  0  0  0  0  0999 V2000
   44.4340   36.0760   44.4790 C   0  0  0  0  0  0  0  0  0  0  0  0
   45.0460   35.8810   43.2320 C   0  0  0  0  0  0  0  0  0  0  0  0
   45.9280   34.8250   43.1090 C   0  0  0  0  0  0  0  0  0  0  0  0
   46.1560   34.0480   44.1580 N   0  0  0  0  0  0  0  0  0  0  0  0
   45.5570   34.2480   45.3560 C   0  0  0  0  0  0  0  0  0  0  0  0
   44.6950   35.2600   45.5280 N   0  0  0  0  0  0  0  0  0  0  0  0
   45.8770   33.3340   46.4390 C   0  0  0  0  0  0  0  0  0  0  0  0
   45.0050   33.1780   47.4950 C   0  0  0  0  0  0  0  0  0  0  0  0
   45.5340   32.2590   48.3830 C   0  0  0  0  0  0  0  0  0  0  0  0
   46.7200   31.8780   47.8420 N   0  0  0  0  0  0  0  0  0  0  0  0
   46.8940   32.5240   46.7050 N   0  0  0  0  0  0  0  0  0  0  0  0
   48.9210   29.1730   48.6290 N   0  0  0  0  0  0  0  0  0  0  0  0
   47.8270   29.6430   48.0310 N   0  0  0  0  0  0  0  0  0  0  0  0
   47.7160   30.9700   48.2710 C   0  0  0  0  0  0  0  0  0  0  0  0
   48.7760   31.3170   49.0420 C   0  0  0  0  0  0  0  0  0  0  0  0
   49.5080   30.1890   49.2500 C   0  0  0  0  0  0  0  0  0  0  0  0
   46.6140   34.5540   41.8290 C   0  0  0  0  0  0  0  0  0  0  0  0
   47.9320   35.3300   41.8670 C   0  0  0  0  0  0  0  0  0  0  0  0
   49.1000   34.5160   41.4990 C   0  0  1  0  0  0  0  0  0  0  0  0
   50.2220   34.4760   42.5190 C   0  0  0  0  0  0  0  0  0  0  0  0
   49.4180   33.2430   42.1020 C   0  0  1  0  0  0  0  0  0  0  0  0
   48.9130   32.6190   43.2080 O   0  0  0  0  0  0  0  0  0  0  0  0
   48.8940   31.2290   42.7730 C   0  0  0  0  0  0  0  0  0  0  0  0
   47.9680   31.1250   41.5930 C   0  0  0  0  0  0  0  0  0  0  0  0
   48.6550   30.3110   43.9000 C   0  0  0  0  0  0  0  0  0  0  0  0
   50.2630   30.8560   42.2330 C   0  0  0  0  0  0  0  0  0  0  0  0
   43.7273   36.9091   44.6076 H   0  0  0  0  0  0  0  0  0  0  0  0
   44.8312   36.5455   42.3821 H   0  0  0  0  0  0  0  0  0  0  0  0
   44.0439   33.7000   47.6125 H   0  0  0  0  0  0  0  0  0  0  0  0
   45.0888   31.9108   49.3267 H   0  0  0  0  0  0  0  0  0  0  0  0
   49.2516   28.1976   48.6125 H   0  0  0  0  0  0  0  0  0  0  0  0
   49.0019   32.3223   49.4272 H   0  0  0  0  0  0  0  0  0  0  0  0
   50.4360   30.1287   49.8376 H   0  0  0  0  0  0  0  0  0  0  0  0
   45.9955   34.8974   40.9867 H   0  0  0  0  0  0  0  0  0  0  0  0
   46.7914   33.4768   41.6942 H   0  0  0  0  0  0  0  0  0  0  0  0
   47.8601   36.1739   41.1651 H   0  0  0  0  0  0  0  0  0  0  0  0
   48.0826   35.6635   42.9044 H   0  0  0  0  0  0  0  0  0  0  0  0
   48.9695   34.7952   40.4430 H   0  0  0  0  0  0  0  0  0  0  0  0
   51.2691   34.5938   42.2034 H   0  0  0  0  0  0  0  0  0  0  0  0
   50.4616   34.9904   43.4613 H   0  0  0  0  0  0  0  0  0  0  0  0
   49.4684   32.2760   41.5801 H   0  0  0  0  0  0  0  0  0  0  0  0
   46.9334   31.0088   41.9480 H   0  0  0  0  0  0  0  0  0  0  0  0
   48.0464   32.0376   40.9839 H   0  0  0  0  0  0  0  0  0  0  0  0
   48.2468   30.2525   40.9839 H   0  0  0  0  0  0  0  0  0  0  0  0
   48.7954   30.8503   44.8484 H   0  0  0  0  0  0  0  0  0  0  0  0
   47.6264   29.9249   43.8466 H   0  0  0  0  0  0  0  0  0  0  0  0
   49.3647   29.4723   43.8466 H   0  0  0  0  0  0  0  0  0  0  0  0
   50.9495   30.6689   43.0719 H   0  0  0  0  0  0  0  0  0  0  0  0
   50.1796   29.9478   41.6179 H   0  0  0  0  0  0  0  0  0  0  0  0
   50.6518   31.6810   41.6179 H   0  0  0  0  0  0  0  0  0  0  0  0
  1  6  2  0
  2  1  1  0
  3  2  2  0
  3  4  1  0
  4  5  2  0
  5  6  1  0
  5  7  1  0
  7 11  2  0
  7  8  1  0
  8  9  2  0
 10 14  1  0
 10  9  1  0
 11 10  1  0
 12 16  1  0
 13 14  2  0
 13 12  1  0
 14 15  1  0
 15 16  2  0
 17 18  1  0
 17  3  1  0
 19 18  1  0
 19 21  1  0
 19 20  1  0
 21 20  1  0
 21 22  1  0
 23 22  1  0
 23 25  1  0
 24 23  1  0
 26 23  1  0
  1 27  1  0
  2 28  1  0
  8 29  1  0
  9 30  1  0
 12 31  1  0
 15 32  1  0
 16 33  1  0
 17 34  1  0
 17 35  1  0
 18 36  1  0
 18 37  1  0
 19 38  1  6
 20 39  1  0
 20 40  1  0
 21 41  1  6
 24 42  1  0
 24 43  1  0
 24 44  1  0
 25 45  1  0
 25 46  1  0
 25 47  1  0
 26 48  1  0
 26 49  1  0
 26 50  1  0
M  ISO  8  27  14  28  14  29  14  30  14  31   9  32  14  33  14  34   8
M  ISO  8  35   8  36   8  37   8  38  13  39  13  40  13  41  13  42   8
M  ISO  8  43   8  44   8  45   8  46   8  47   8  48   8  49   8  50   8
M  END
>  <minimizedAffinity>  (1) 
-6.21785212

>  <minimizedRMSD>  (1) 
0.637184322

$$$$
