
     RDKit          3D

 44 48  0  0  1  0  0  0  0  0999 V2000
   44.4400   35.8520   44.6930 C   0  0  0  0  0  0  0  0  0  0  0  0
   45.0260   35.6640   43.4350 C   0  0  0  0  0  0  0  0  0  0  0  0
   45.9190   34.6200   43.2990 C   0  0  0  0  0  0  0  0  0  0  0  0
   46.1790   33.8510   44.3480 N   0  0  0  0  0  0  0  0  0  0  0  0
   45.6040   34.0470   45.5560 C   0  0  0  0  0  0  0  0  0  0  0  0
   44.7270   35.0470   45.7510 N   0  0  0  0  0  0  0  0  0  0  0  0
   45.9580   33.1430   46.6390 C   0  0  0  0  0  0  0  0  0  0  0  0
   45.0760   32.9380   47.6810 C   0  0  0  0  0  0  0  0  0  0  0  0
   45.6390   32.0450   48.5730 C   0  0  0  0  0  0  0  0  0  0  0  0
   46.8510   31.7340   48.0440 N   0  0  0  0  0  0  0  0  0  0  0  0
   47.0250   32.3890   46.9030 N   0  0  0  0  0  0  0  0  0  0  0  0
   49.1720   29.1490   48.8760 N   0  0  0  0  0  0  0  0  0  0  0  0
   48.0750   29.5550   48.2560 N   0  0  0  0  0  0  0  0  0  0  0  0
   47.8890   30.8760   48.4910 C   0  0  0  0  0  0  0  0  0  0  0  0
   48.9120   31.2900   49.2850 C   0  0  0  0  0  0  0  0  0  0  0  0
   49.6970   30.2140   49.5150 C   0  0  0  0  0  0  0  0  0  0  0  0
   46.5860   34.3510   42.0100 C   0  0  0  0  0  0  0  0  0  0  0  0
   47.7310   35.3640   41.8850 C   0  0  0  0  0  0  0  0  0  0  0  0
   49.0100   34.7770   41.4700 C   0  0  1  0  0  0  0  0  0  0  0  0
   50.1080   34.7880   42.5140 C   0  0  0  0  0  0  0  0  0  0  0  0
   49.5000   33.4940   41.9280 C   0  0  1  0  0  0  0  0  0  0  0  0
   49.0520   32.6830   42.9300 O   0  0  0  0  0  0  0  0  0  0  0  0
   49.2870   31.2980   42.6310 C   0  0  0  0  0  0  0  0  0  0  0  0
   50.6490   31.0030   42.5510 C   0  0  0  0  0  0  0  0  0  0  0  0
   50.5810   29.1290   42.1450 S   0  0  0  0  0  0  0  0  0  0  0  0
   48.6650   29.2300   42.1900 C   0  0  0  0  0  0  0  0  0  0  0  0
   48.4750   30.2980   42.4240 N   0  0  0  0  0  0  0  0  0  0  0  0
   43.7251   36.6767   44.8297 H   0  0  0  0  0  0  0  0  0  0  0  0
   44.7841   36.3228   42.5879 H   0  0  0  0  0  0  0  0  0  0  0  0
   44.0870   33.4084   47.7844 H   0  0  0  0  0  0  0  0  0  0  0  0
   45.2006   31.6678   49.5087 H   0  0  0  0  0  0  0  0  0  0  0  0
   49.5550   28.1929   48.8711 H   0  0  0  0  0  0  0  0  0  0  0  0
   49.0709   32.3088   49.6681 H   0  0  0  0  0  0  0  0  0  0  0  0
   50.6134   30.2081   50.1234 H   0  0  0  0  0  0  0  0  0  0  0  0
   46.9840   33.3256   41.9961 H   0  0  0  0  0  0  0  0  0  0  0  0
   45.8799   34.4473   41.1720 H   0  0  0  0  0  0  0  0  0  0  0  0
   47.4418   36.1217   41.1419 H   0  0  0  0  0  0  0  0  0  0  0  0
   47.8883   35.7888   42.8874 H   0  0  0  0  0  0  0  0  0  0  0  0
   48.8583   35.1566   40.4488 H   0  0  0  0  0  0  0  0  0  0  0  0
   51.1298   35.0964   42.2481 H   0  0  0  0  0  0  0  0  0  0  0  0
   50.2527   35.2194   43.5155 H   0  0  0  0  0  0  0  0  0  0  0  0
   49.7133   32.6124   41.3057 H   0  0  0  0  0  0  0  0  0  0  0  0
   51.5197   31.6620   42.6839 H   0  0  0  0  0  0  0  0  0  0  0  0
   47.9335   28.4254   42.0242 H   0  0  0  0  0  0  0  0  0  0  0  0
  1  6  2  0
  2  1  1  0
  3  2  2  0
  3  4  1  0
  4  5  2  0
  5  6  1  0
  5  7  1  0
  7 11  2  0
  7  8  1  0
  8  9  2  0
 10 14  1  0
 10  9  1  0
 11 10  1  0
 12 16  1  0
 13 14  2  0
 13 12  1  0
 14 15  1  0
 15 16  2  0
 17  3  1  0
 18 17  1  0
 19 18  1  0
 19 21  1  0
 19 20  1  0
 21 20  1  0
 21 22  1  0
 23 22  1  0
 24 23  2  0
 25 26  1  0
 25 24  1  0
 26 27  2  0
 27 23  1  0
  1 28  1  0
  2 29  1  0
  8 30  1  0
  9 31  1  0
 12 32  1  0
 15 33  1  0
 16 34  1  0
 17 35  1  0
 17 36  1  0
 18 37  1  0
 18 38  1  0
 19 39  1  6
 20 40  1  0
 20 41  1  0
 21 42  1  6
 24 43  1  0
 26 44  1  0
M  ISO  8  28  14  29  14  30  14  31  14  32   9  33  14  34  14  35   8
M  ISO  8  36   8  37   8  38   8  39  13  40  13  41  13  42  13  43  14
M  ISO  1  44  14
M  END
>  <minimizedAffinity>  (1) 
-6.2741456

>  <minimizedRMSD>  (1) 
1.35030723

$$$$
