
     RDKit          3D

 51 55  0  0  1  0  0  0  0  0999 V2000
   44.4090   35.9410   44.6860 C   0  0  0  0  0  0  0  0  0  0  0  0
   44.9850   35.7530   43.4200 C   0  0  0  0  0  0  0  0  0  0  0  0
   45.8650   34.7000   43.2720 C   0  0  0  0  0  0  0  0  0  0  0  0
   46.1160   33.9340   44.3190 N   0  0  0  0  0  0  0  0  0  0  0  0
   45.5570   34.1230   45.5350 C   0  0  0  0  0  0  0  0  0  0  0  0
   44.7030   35.1230   45.7280 N   0  0  0  0  0  0  0  0  0  0  0  0
   45.9130   33.2080   46.6030 C   0  0  0  0  0  0  0  0  0  0  0  0
   45.0290   32.9850   47.6410 C   0  0  0  0  0  0  0  0  0  0  0  0
   45.5880   32.0820   48.5200 C   0  0  0  0  0  0  0  0  0  0  0  0
   46.8020   31.7760   47.9940 N   0  0  0  0  0  0  0  0  0  0  0  0
   46.9870   32.4450   46.8630 N   0  0  0  0  0  0  0  0  0  0  0  0
   49.1420   29.1900   48.7900 N   0  0  0  0  0  0  0  0  0  0  0  0
   48.0370   29.6020   48.1700 N   0  0  0  0  0  0  0  0  0  0  0  0
   47.8350   30.9140   48.4290 C   0  0  0  0  0  0  0  0  0  0  0  0
   48.8570   31.2940   49.2300 C   0  0  0  0  0  0  0  0  0  0  0  0
   49.6530   30.2220   49.4450 C   0  0  0  0  0  0  0  0  0  0  0  0
   46.5190   34.4290   41.9720 C   0  0  0  0  0  0  0  0  0  0  0  0
   47.7350   35.3310   41.8800 C   0  0  0  0  0  0  0  0  0  0  0  0
   48.9920   34.6630   41.5230 C   0  0  1  0  0  0  0  0  0  0  0  0
   50.1320   34.7530   42.5150 C   0  0  0  0  0  0  0  0  0  0  0  0
   49.4950   33.4550   42.1660 C   0  0  1  0  0  0  0  0  0  0  0  0
   48.9860   32.7540   43.2080 O   0  0  0  0  0  0  0  0  0  0  0  0
   48.7230   31.4520   42.9020 C   0  0  0  0  0  0  0  0  0  0  0  0
   49.8480   30.5070   42.6620 C   0  0  0  0  0  0  0  0  0  0  0  0
   49.1510   29.1430   42.5300 C   0  0  0  0  0  0  0  0  0  0  0  0
   47.9440   29.2360   43.4320 C   0  0  0  0  0  0  0  0  0  0  0  0
   47.7190   30.7160   43.7310 C   0  0  0  0  0  0  0  0  0  0  0  0
   43.7028   36.7707   44.8370 H   0  0  0  0  0  0  0  0  0  0  0  0
   44.7444   36.4191   42.5783 H   0  0  0  0  0  0  0  0  0  0  0  0
   44.0391   33.4524   47.7487 H   0  0  0  0  0  0  0  0  0  0  0  0
   45.1454   31.6927   49.4487 H   0  0  0  0  0  0  0  0  0  0  0  0
   49.5307   28.2365   48.7645 H   0  0  0  0  0  0  0  0  0  0  0  0
   49.0139   32.3037   49.6373 H   0  0  0  0  0  0  0  0  0  0  0  0
   50.5665   30.2092   50.0576 H   0  0  0  0  0  0  0  0  0  0  0  0
   46.8280   33.3746   41.9190 H   0  0  0  0  0  0  0  0  0  0  0  0
   45.8263   34.6245   41.1402 H   0  0  0  0  0  0  0  0  0  0  0  0
   47.5309   36.0982   41.1186 H   0  0  0  0  0  0  0  0  0  0  0  0
   47.8860   35.7381   42.8907 H   0  0  0  0  0  0  0  0  0  0  0  0
   48.8018   34.9102   40.4681 H   0  0  0  0  0  0  0  0  0  0  0  0
   51.1512   34.9817   42.1702 H   0  0  0  0  0  0  0  0  0  0  0  0
   50.3283   35.3111   43.4424 H   0  0  0  0  0  0  0  0  0  0  0  0
   49.7345   32.4853   41.7052 H   0  0  0  0  0  0  0  0  0  0  0  0
   48.2862   31.7224   41.9293 H   0  0  0  0  0  0  0  0  0  0  0  0
   50.3867   30.7640   41.7380 H   0  0  0  0  0  0  0  0  0  0  0  0
   50.6016   30.5267   43.4631 H   0  0  0  0  0  0  0  0  0  0  0  0
   48.8436   28.9643   41.4890 H   0  0  0  0  0  0  0  0  0  0  0  0
   49.8135   28.3102   42.8085 H   0  0  0  0  0  0  0  0  0  0  0  0
   47.0622   28.8150   42.9268 H   0  0  0  0  0  0  0  0  0  0  0  0
   48.1053   28.6694   44.3609 H   0  0  0  0  0  0  0  0  0  0  0  0
   47.8799   30.9204   44.7998 H   0  0  0  0  0  0  0  0  0  0  0  0
   46.6906   31.0268   43.4949 H   0  0  0  0  0  0  0  0  0  0  0  0
  1  6  2  0
  2  1  1  0
  3  2  2  0
  3  4  1  0
  4  5  2  0
  5  6  1  0
  5  7  1  0
  7 11  2  0
  7  8  1  0
  8  9  2  0
 10 14  1  0
 10  9  1  0
 11 10  1  0
 12 16  1  0
 13 14  2  0
 13 12  1  0
 14 15  1  0
 15 16  2  0
 17  3  1  0
 18 17  1  0
 19 18  1  0
 19 21  1  0
 19 20  1  0
 21 20  1  0
 21 22  1  0
 23 22  1  0
 23 27  1  0
 24 23  1  0
 25 24  1  0
 25 26  1  0
 26 27  1  0
  1 28  1  0
  2 29  1  0
  8 30  1  0
  9 31  1  0
 12 32  1  0
 15 33  1  0
 16 34  1  0
 17 35  1  0
 17 36  1  0
 18 37  1  0
 18 38  1  0
 19 39  1  6
 20 40  1  0
 20 41  1  0
 21 42  1  6
 23 43  1  0
 24 44  1  0
 24 45  1  0
 25 46  1  0
 25 47  1  0
 26 48  1  0
 26 49  1  0
 27 50  1  0
 27 51  1  0
M  ISO  8  28  14  29  14  30  14  31  14  32   9  33  14  34  14  35   8
M  ISO  8  36   8  37   8  38   8  39  13  40  13  41  13  42  13  43  13
M  ISO  8  44  13  45  13  46  13  47  13  48  13  49  13  50  13  51  13
M  END
>  <minimizedAffinity>  (1) 
-6.27307558

>  <minimizedRMSD>  (1) 
0.744536161

$$$$
