
     RDKit          3D

 45 49  0  0  1  0  0  0  0  0999 V2000
   44.4370   35.8710   44.6970 C   0  0  0  0  0  0  0  0  0  0  0  0
   45.0280   35.6870   43.4400 C   0  0  0  0  0  0  0  0  0  0  0  0
   45.9190   34.6400   43.2970 C   0  0  0  0  0  0  0  0  0  0  0  0
   46.1710   33.8650   44.3430 N   0  0  0  0  0  0  0  0  0  0  0  0
   45.5930   34.0550   45.5530 C   0  0  0  0  0  0  0  0  0  0  0  0
   44.7250   35.0550   45.7440 N   0  0  0  0  0  0  0  0  0  0  0  0
   45.9470   33.1450   46.6320 C   0  0  0  0  0  0  0  0  0  0  0  0
   45.0710   32.9460   47.6810 C   0  0  0  0  0  0  0  0  0  0  0  0
   45.6370   32.0490   48.5670 C   0  0  0  0  0  0  0  0  0  0  0  0
   46.8440   31.7230   48.0320 N   0  0  0  0  0  0  0  0  0  0  0  0
   47.0060   32.3780   46.8920 N   0  0  0  0  0  0  0  0  0  0  0  0
   49.1600   29.1260   48.8380 N   0  0  0  0  0  0  0  0  0  0  0  0
   48.0640   29.5430   48.2240 N   0  0  0  0  0  0  0  0  0  0  0  0
   47.8740   30.8600   48.4720 C   0  0  0  0  0  0  0  0  0  0  0  0
   48.8980   31.2760   49.2740 C   0  0  0  0  0  0  0  0  0  0  0  0
   49.6870   30.1820   49.4890 C   0  0  0  0  0  0  0  0  0  0  0  0
   46.5840   34.3820   42.0100 C   0  0  0  0  0  0  0  0  0  0  0  0
   47.7400   35.3780   41.8950 C   0  0  0  0  0  0  0  0  0  0  0  0
   49.0030   34.7670   41.4610 C   0  0  1  0  0  0  0  0  0  0  0  0
   50.1010   34.7650   42.5070 C   0  0  0  0  0  0  0  0  0  0  0  0
   49.4860   33.4780   41.9180 C   0  0  1  0  0  0  0  0  0  0  0  0
   49.0350   32.6930   42.9360 O   0  0  0  0  0  0  0  0  0  0  0  0
   49.2400   31.2960   42.7390 C   0  0  0  0  0  0  0  0  0  0  0  0
   50.5180   30.7680   42.5180 C   0  0  0  0  0  0  0  0  0  0  0  0
   50.4750   29.3760   42.3520 C   0  0  0  0  0  0  0  0  0  0  0  0
   49.1660   29.1100   42.4790 N   0  0  0  0  0  0  0  0  0  0  0  0
   48.5000   30.1950   42.6940 N   0  0  0  0  0  0  0  0  0  0  0  0
   43.7230   36.6956   44.8393 H   0  0  0  0  0  0  0  0  0  0  0  0
   44.7912   36.3524   42.5966 H   0  0  0  0  0  0  0  0  0  0  0  0
   44.0859   33.4225   47.7928 H   0  0  0  0  0  0  0  0  0  0  0  0
   45.2028   31.6772   49.5068 H   0  0  0  0  0  0  0  0  0  0  0  0
   49.5407   28.1691   48.8213 H   0  0  0  0  0  0  0  0  0  0  0  0
   49.0560   32.2906   49.6685 H   0  0  0  0  0  0  0  0  0  0  0  0
   50.6045   30.1654   50.0956 H   0  0  0  0  0  0  0  0  0  0  0  0
   46.9691   33.3519   41.9838 H   0  0  0  0  0  0  0  0  0  0  0  0
   45.8793   34.5008   41.1737 H   0  0  0  0  0  0  0  0  0  0  0  0
   47.4601   36.1526   41.1659 H   0  0  0  0  0  0  0  0  0  0  0  0
   47.9106   35.7908   42.9002 H   0  0  0  0  0  0  0  0  0  0  0  0
   48.8479   35.1400   40.4378 H   0  0  0  0  0  0  0  0  0  0  0  0
   51.1253   35.0669   42.2431 H   0  0  0  0  0  0  0  0  0  0  0  0
   50.2474   35.1920   43.5101 H   0  0  0  0  0  0  0  0  0  0  0  0
   49.6901   32.5966   41.2923 H   0  0  0  0  0  0  0  0  0  0  0  0
   51.4387   31.3687   42.4795 H   0  0  0  0  0  0  0  0  0  0  0  0
   51.3048   28.6785   42.1649 H   0  0  0  0  0  0  0  0  0  0  0  0
   48.7499   28.1700   42.4140 H   0  0  0  0  0  0  0  0  0  0  0  0
  1  6  2  0
  2  1  1  0
  3  2  2  0
  3  4  1  0
  4  5  2  0
  5  6  1  0
  5  7  1  0
  7 11  2  0
  7  8  1  0
  8  9  2  0
 10 14  1  0
 10  9  1  0
 11 10  1  0
 12 16  1  0
 13 14  2  0
 13 12  1  0
 14 15  1  0
 15 16  2  0
 17  3  1  0
 18 17  1  0
 19 18  1  0
 19 21  1  0
 19 20  1  0
 21 20  1  0
 21 22  1  0
 23 22  1  0
 24 23  1  0
 25 26  1  0
 25 24  2  0
 26 27  1  0
 27 23  2  0
  1 28  1  0
  2 29  1  0
  8 30  1  0
  9 31  1  0
 12 32  1  0
 15 33  1  0
 16 34  1  0
 17 35  1  0
 17 36  1  0
 18 37  1  0
 18 38  1  0
 19 39  1  6
 20 40  1  0
 20 41  1  0
 21 42  1  6
 24 43  1  0
 25 44  1  0
 26 45  1  0
M  ISO  8  28  14  29  14  30  14  31  14  32   9  33  14  34  14  35   8
M  ISO  8  36   8  37   8  38   8  39  13  40  13  41  13  42  13  43  14
M  ISO  2  44  14  45   9
M  END
>  <minimizedAffinity>  (1) 
-6.302845

>  <minimizedRMSD>  (1) 
1.25906229

$$$$
