
     RDKit          3D

 41 44  0  0  1  0  0  0  0  0999 V2000
   44.4320   36.0260   44.4930 C   0  0  0  0  0  0  0  0  0  0  0  0
   45.0540   35.8490   43.2510 C   0  0  0  0  0  0  0  0  0  0  0  0
   45.9550   34.8150   43.1390 C   0  0  0  0  0  0  0  0  0  0  0  0
   46.1830   34.0490   44.1980 N   0  0  0  0  0  0  0  0  0  0  0  0
   45.5730   34.2310   45.3920 C   0  0  0  0  0  0  0  0  0  0  0  0
   44.6890   35.2210   45.5590 N   0  0  0  0  0  0  0  0  0  0  0  0
   45.9040   33.3220   46.4760 C   0  0  0  0  0  0  0  0  0  0  0  0
   45.0150   33.1440   47.5190 C   0  0  0  0  0  0  0  0  0  0  0  0
   45.5540   32.2360   48.4090 C   0  0  0  0  0  0  0  0  0  0  0  0
   46.7550   31.8860   47.8900 N   0  0  0  0  0  0  0  0  0  0  0  0
   46.9470   32.5370   46.7450 N   0  0  0  0  0  0  0  0  0  0  0  0
   48.9750   29.1990   48.6990 N   0  0  0  0  0  0  0  0  0  0  0  0
   47.8870   29.6510   48.0930 N   0  0  0  0  0  0  0  0  0  0  0  0
   47.7590   30.9990   48.3350 C   0  0  0  0  0  0  0  0  0  0  0  0
   48.8080   31.3640   49.1120 C   0  0  0  0  0  0  0  0  0  0  0  0
   49.5430   30.2240   49.3190 C   0  0  0  0  0  0  0  0  0  0  0  0
   46.6630   34.5540   41.8590 C   0  0  0  0  0  0  0  0  0  0  0  0
   47.9660   35.3250   41.9110 C   0  0  0  0  0  0  0  0  0  0  0  0
   49.1450   34.5530   41.4810 C   0  0  1  0  0  0  0  0  0  0  0  0
   50.2820   34.4530   42.5060 C   0  0  0  0  0  0  0  0  0  0  0  0
   49.5090   33.2550   42.0040 C   0  0  1  0  0  0  0  0  0  0  0  0
   48.9380   32.5070   42.9860 O   0  0  0  0  0  0  0  0  0  0  0  0
   49.4130   31.1700   42.7700 C   0  0  0  0  0  0  0  0  0  0  0  0
   49.1480   30.6860   41.5330 F   0  0  0  0  0  0  0  0  0  0  0  0
   50.7880   31.1210   42.9390 F   0  0  0  0  0  0  0  0  0  0  0  0
   48.8610   30.3590   43.7680 F   0  0  0  0  0  0  0  0  0  0  0  0
   43.7088   36.8464   44.6110 H   0  0  0  0  0  0  0  0  0  0  0  0
   44.8315   36.5094   42.3999 H   0  0  0  0  0  0  0  0  0  0  0  0
   44.0401   33.6427   47.6230 H   0  0  0  0  0  0  0  0  0  0  0  0
   45.1023   31.8729   49.3440 H   0  0  0  0  0  0  0  0  0  0  0  0
   49.3174   28.2276   48.6901 H   0  0  0  0  0  0  0  0  0  0  0  0
   49.0260   32.3706   49.4984 H   0  0  0  0  0  0  0  0  0  0  0  0
   50.4677   30.1687   49.9122 H   0  0  0  0  0  0  0  0  0  0  0  0
   46.0525   34.8998   41.0118 H   0  0  0  0  0  0  0  0  0  0  0  0
   46.8476   33.4781   41.7237 H   0  0  0  0  0  0  0  0  0  0  0  0
   47.8724   36.2041   41.2565 H   0  0  0  0  0  0  0  0  0  0  0  0
   48.1319   35.5924   42.9650 H   0  0  0  0  0  0  0  0  0  0  0  0
   48.9942   34.8964   40.4469 H   0  0  0  0  0  0  0  0  0  0  0  0
   51.3263   34.6127   42.1997 H   0  0  0  0  0  0  0  0  0  0  0  0
   50.5140   34.8985   43.4846 H   0  0  0  0  0  0  0  0  0  0  0  0
   49.6401   32.3215   41.4371 H   0  0  0  0  0  0  0  0  0  0  0  0
  1  6  2  0
  2  1  1  0
  3  2  2  0
  3  4  1  0
  4  5  2  0
  5  6  1  0
  5  7  1  0
  7 11  2  0
  7  8  1  0
  8  9  2  0
 10 14  1  0
 10  9  1  0
 11 10  1  0
 12 16  1  0
 13 14  2  0
 13 12  1  0
 14 15  1  0
 15 16  2  0
 17 18  1  0
 17  3  1  0
 19 18  1  0
 19 21  1  0
 19 20  1  0
 21 20  1  0
 21 22  1  0
 23 25  1  0
 23 22  1  0
 23 26  1  0
 24 23  1  0
  1 27  1  0
  2 28  1  0
  8 29  1  0
  9 30  1  0
 12 31  1  0
 15 32  1  0
 16 33  1  0
 17 34  1  0
 17 35  1  0
 18 36  1  0
 18 37  1  0
 19 38  1  6
 20 39  1  0
 20 40  1  0
 21 41  1  6
M  ISO  8  27  14  28  14  29  14  30  14  31   9  32  14  33  14  34   8
M  ISO  7  35   8  36   8  37   8  38  13  39  13  40  13  41  13
M  END
>  <minimizedAffinity>  (1) 
-6.2818737

>  <minimizedRMSD>  (1) 
0.60293746

$$$$
