
     RDKit          3D

 48 52  0  0  1  0  0  0  0  0999 V2000
   44.4190   36.0420   44.4950 C   0  0  0  0  0  0  0  0  0  0  0  0
   45.0320   35.8480   43.2420 C   0  0  0  0  0  0  0  0  0  0  0  0
   45.9220   34.8110   43.1250 C   0  0  0  0  0  0  0  0  0  0  0  0
   46.1510   34.0570   44.1920 N   0  0  0  0  0  0  0  0  0  0  0  0
   45.5650   34.2420   45.3870 C   0  0  0  0  0  0  0  0  0  0  0  0
   44.6930   35.2370   45.5510 N   0  0  0  0  0  0  0  0  0  0  0  0
   45.9000   33.3370   46.4750 C   0  0  0  0  0  0  0  0  0  0  0  0
   45.0050   33.1540   47.5100 C   0  0  0  0  0  0  0  0  0  0  0  0
   45.5370   32.2460   48.4040 C   0  0  0  0  0  0  0  0  0  0  0  0
   46.7360   31.9050   47.8870 N   0  0  0  0  0  0  0  0  0  0  0  0
   46.9420   32.5560   46.7470 N   0  0  0  0  0  0  0  0  0  0  0  0
   48.9490   29.1990   48.6870 N   0  0  0  0  0  0  0  0  0  0  0  0
   47.8620   29.6580   48.0890 N   0  0  0  0  0  0  0  0  0  0  0  0
   47.7420   31.0070   48.3290 C   0  0  0  0  0  0  0  0  0  0  0  0
   48.7950   31.3650   49.0970 C   0  0  0  0  0  0  0  0  0  0  0  0
   49.5280   30.2230   49.3030 C   0  0  0  0  0  0  0  0  0  0  0  0
   46.6030   34.5460   41.8430 C   0  0  0  0  0  0  0  0  0  0  0  0
   47.9010   35.3380   41.8500 C   0  0  0  0  0  0  0  0  0  0  0  0
   49.1090   34.5660   41.5310 C   0  0  1  0  0  0  0  0  0  0  0  0
   50.2480   34.6250   42.5260 C   0  0  0  0  0  0  0  0  0  0  0  0
   49.5120   33.3580   42.2180 C   0  0  1  0  0  0  0  0  0  0  0  0
   48.9260   32.6750   43.2450 O   0  0  0  0  0  0  0  0  0  0  0  0
   48.5000   31.3450   42.8450 C   0  0  0  0  0  0  0  0  0  0  0  0
   47.3300   30.9180   42.3090 C   0  0  0  0  0  0  0  0  0  0  0  0
   46.9800   29.6520   41.9350 C   0  0  0  0  0  0  0  0  0  0  0  0
   47.9090   28.6630   42.1150 C   0  0  0  0  0  0  0  0  0  0  0  0
   49.1370   28.9620   42.6520 C   0  0  0  0  0  0  0  0  0  0  0  0
   49.3940   30.2680   42.9940 C   0  0  0  0  0  0  0  0  0  0  0  0
   43.7010   36.8660   44.6199 H   0  0  0  0  0  0  0  0  0  0  0  0
   44.8054   36.5040   42.3886 H   0  0  0  0  0  0  0  0  0  0  0  0
   44.0281   33.6502   47.6067 H   0  0  0  0  0  0  0  0  0  0  0  0
   45.0819   31.8798   49.3361 H   0  0  0  0  0  0  0  0  0  0  0  0
   49.2849   28.2253   48.6767 H   0  0  0  0  0  0  0  0  0  0  0  0
   49.0198   32.3712   49.4805 H   0  0  0  0  0  0  0  0  0  0  0  0
   50.4562   30.1648   49.8905 H   0  0  0  0  0  0  0  0  0  0  0  0
   45.9683   34.8704   41.0052 H   0  0  0  0  0  0  0  0  0  0  0  0
   46.8027   33.4710   41.7223 H   0  0  0  0  0  0  0  0  0  0  0  0
   47.8095   36.1470   41.1103 H   0  0  0  0  0  0  0  0  0  0  0  0
   48.0329   35.6968   42.8814 H   0  0  0  0  0  0  0  0  0  0  0  0
   48.9442   34.7796   40.4646 H   0  0  0  0  0  0  0  0  0  0  0  0
   51.2827   34.7661   42.1804 H   0  0  0  0  0  0  0  0  0  0  0  0
   50.4811   35.2064   43.4303 H   0  0  0  0  0  0  0  0  0  0  0  0
   49.6957   32.3542   41.8074 H   0  0  0  0  0  0  0  0  0  0  0  0
   46.5633   31.6917   42.1555 H   0  0  0  0  0  0  0  0  0  0  0  0
   45.9905   29.4356   41.5060 H   0  0  0  0  0  0  0  0  0  0  0  0
   47.6717   27.6276   41.8292 H   0  0  0  0  0  0  0  0  0  0  0  0
   49.8937   28.1782   42.8041 H   0  0  0  0  0  0  0  0  0  0  0  0
   50.3831   30.4908   43.4207 H   0  0  0  0  0  0  0  0  0  0  0  0
  1  6  2  0
  2  1  1  0
  3  2  2  0
  3  4  1  0
  4  5  2  0
  5  6  1  0
  5  7  1  0
  7 11  2  0
  7  8  1  0
  8  9  2  0
 10 14  1  0
 10  9  1  0
 11 10  1  0
 12 16  1  0
 13 14  2  0
 13 12  1  0
 14 15  1  0
 15 16  2  0
 17 18  1  0
 17  3  1  0
 19 18  1  0
 19 21  1  0
 19 20  1  0
 21 20  1  0
 21 22  1  0
 23 28  1  0
 23 22  1  0
 24 23  2  0
 25 26  2  0
 25 24  1  0
 26 27  1  0
 27 28  2  0
  1 29  1  0
  2 30  1  0
  8 31  1  0
  9 32  1  0
 12 33  1  0
 15 34  1  0
 16 35  1  0
 17 36  1  0
 17 37  1  0
 18 38  1  0
 18 39  1  0
 19 40  1  6
 20 41  1  0
 20 42  1  0
 21 43  1  6
 24 44  1  0
 25 45  1  0
 26 46  1  0
 27 47  1  0
 28 48  1  0
M  ISO  8  29  14  30  14  31  14  32  14  33   9  34  14  35  14  36   8
M  ISO  8  37   8  38   8  39   8  40  13  41  13  42  13  43  13  44  14
M  ISO  4  45  14  46  14  47  14  48  14
M  END
>  <minimizedAffinity>  (1) 
-6.17047596

>  <minimizedRMSD>  (1) 
0.499520659

$$$$
