
     RDKit          3D

 45 49  0  0  1  0  0  0  0  0999 V2000
   44.4250   36.0820   44.4910 C   0  0  0  0  0  0  0  0  0  0  0  0
   45.0270   35.8910   43.2380 C   0  0  0  0  0  0  0  0  0  0  0  0
   45.8990   34.8390   43.1140 C   0  0  0  0  0  0  0  0  0  0  0  0
   46.1330   34.0630   44.1600 N   0  0  0  0  0  0  0  0  0  0  0  0
   45.5470   34.2580   45.3650 C   0  0  0  0  0  0  0  0  0  0  0  0
   44.6900   35.2640   45.5440 N   0  0  0  0  0  0  0  0  0  0  0  0
   45.8780   33.3400   46.4460 C   0  0  0  0  0  0  0  0  0  0  0  0
   44.9980   33.1720   47.4960 C   0  0  0  0  0  0  0  0  0  0  0  0
   45.5270   32.2560   48.3810 C   0  0  0  0  0  0  0  0  0  0  0  0
   46.7080   31.8960   47.8440 N   0  0  0  0  0  0  0  0  0  0  0  0
   46.9090   32.5400   46.7050 N   0  0  0  0  0  0  0  0  0  0  0  0
   48.9220   29.1920   48.6350 N   0  0  0  0  0  0  0  0  0  0  0  0
   47.8350   29.6550   48.0470 N   0  0  0  0  0  0  0  0  0  0  0  0
   47.7090   30.9840   48.2760 C   0  0  0  0  0  0  0  0  0  0  0  0
   48.7740   31.3210   49.0360 C   0  0  0  0  0  0  0  0  0  0  0  0
   49.5130   30.2050   49.2520 C   0  0  0  0  0  0  0  0  0  0  0  0
   46.5770   34.5690   41.8200 C   0  0  0  0  0  0  0  0  0  0  0  0
   47.9130   35.2940   41.8510 C   0  0  0  0  0  0  0  0  0  0  0  0
   49.0840   34.4700   41.5260 C   0  0  1  0  0  0  0  0  0  0  0  0
   50.2450   34.5250   42.4980 C   0  0  0  0  0  0  0  0  0  0  0  0
   49.4720   33.2700   42.2540 C   0  0  1  0  0  0  0  0  0  0  0  0
   48.8830   32.6560   43.3120 O   0  0  0  0  0  0  0  0  0  0  0  0
   48.5790   31.2640   43.0420 C   0  0  0  0  0  0  0  0  0  0  0  0
   48.0850   30.4500   43.9780 C   0  0  0  0  0  0  0  0  0  0  0  0
   47.7840   29.1300   43.7610 C   0  0  0  0  0  0  0  0  0  0  0  0
   48.0330   28.6690   42.4570 C   0  0  0  0  0  0  0  0  0  0  0  0
   48.7050   30.1950   41.5800 S   0  0  0  0  0  0  0  0  0  0  0  0
   43.7200   36.9157   44.6248 H   0  0  0  0  0  0  0  0  0  0  0  0
   44.8089   36.5571   42.3902 H   0  0  0  0  0  0  0  0  0  0  0  0
   44.0317   33.6853   47.6086 H   0  0  0  0  0  0  0  0  0  0  0  0
   45.0813   31.8977   49.3206 H   0  0  0  0  0  0  0  0  0  0  0  0
   49.2523   28.2166   48.6175 H   0  0  0  0  0  0  0  0  0  0  0  0
   49.0024   32.3282   49.4146 H   0  0  0  0  0  0  0  0  0  0  0  0
   50.4423   30.1500   49.8380 H   0  0  0  0  0  0  0  0  0  0  0  0
   45.9637   34.9449   40.9878 H   0  0  0  0  0  0  0  0  0  0  0  0
   46.7230   33.4885   41.6743 H   0  0  0  0  0  0  0  0  0  0  0  0
   47.8677   36.1203   41.1263 H   0  0  0  0  0  0  0  0  0  0  0  0
   48.0543   35.6251   42.8904 H   0  0  0  0  0  0  0  0  0  0  0  0
   48.8994   34.6478   40.4563 H   0  0  0  0  0  0  0  0  0  0  0  0
   51.2760   34.6237   42.1274 H   0  0  0  0  0  0  0  0  0  0  0  0
   50.5116   35.1304   43.3768 H   0  0  0  0  0  0  0  0  0  0  0  0
   49.6264   32.2470   41.8803 H   0  0  0  0  0  0  0  0  0  0  0  0
   47.9091   30.8626   44.9824 H   0  0  0  0  0  0  0  0  0  0  0  0
   47.3775   28.4797   44.5496 H   0  0  0  0  0  0  0  0  0  0  0  0
   47.8739   27.6606   42.0473 H   0  0  0  0  0  0  0  0  0  0  0  0
  1  6  2  0
  2  1  1  0
  3  2  2  0
  3  4  1  0
  4  5  2  0
  5  6  1  0
  5  7  1  0
  7 11  2  0
  7  8  1  0
  8  9  2  0
 10 14  1  0
 10  9  1  0
 11 10  1  0
 12 16  1  0
 13 14  2  0
 13 12  1  0
 14 15  1  0
 15 16  2  0
 17 18  1  0
 17  3  1  0
 19 18  1  0
 19 21  1  0
 19 20  1  0
 21 20  1  0
 21 22  1  0
 23 22  1  0
 23 24  2  0
 25 24  1  0
 26 25  2  0
 27 26  1  0
 27 23  1  0
  1 28  1  0
  2 29  1  0
  8 30  1  0
  9 31  1  0
 12 32  1  0
 15 33  1  0
 16 34  1  0
 17 35  1  0
 17 36  1  0
 18 37  1  0
 18 38  1  0
 19 39  1  6
 20 40  1  0
 20 41  1  0
 21 42  1  6
 24 43  1  0
 25 44  1  0
 26 45  1  0
M  ISO  8  28  14  29  14  30  14  31  14  32   9  33  14  34  14  35   8
M  ISO  8  36   8  37   8  38   8  39  13  40  13  41  13  42  13  43  14
M  ISO  2  44  14  45  14
M  END
>  <minimizedAffinity>  (1) 
-6.10768127

>  <minimizedRMSD>  (1) 
0.446238488

$$$$
