
     RDKit          3D

 45 49  0  0  1  0  0  0  0  0999 V2000
   44.4030   35.9510   44.6920 C   0  0  0  0  0  0  0  0  0  0  0  0
   44.9800   35.7680   43.4260 C   0  0  0  0  0  0  0  0  0  0  0  0
   45.8560   34.7250   43.2750 C   0  0  0  0  0  0  0  0  0  0  0  0
   46.1090   33.9520   44.3260 N   0  0  0  0  0  0  0  0  0  0  0  0
   45.5570   34.1280   45.5330 C   0  0  0  0  0  0  0  0  0  0  0  0
   44.6980   35.1290   45.7300 N   0  0  0  0  0  0  0  0  0  0  0  0
   45.9140   33.2100   46.5980 C   0  0  0  0  0  0  0  0  0  0  0  0
   45.0300   32.9780   47.6370 C   0  0  0  0  0  0  0  0  0  0  0  0
   45.5900   32.0760   48.5100 C   0  0  0  0  0  0  0  0  0  0  0  0
   46.8020   31.7760   47.9860 N   0  0  0  0  0  0  0  0  0  0  0  0
   46.9810   32.4540   46.8560 N   0  0  0  0  0  0  0  0  0  0  0  0
   49.1200   29.1500   48.7500 N   0  0  0  0  0  0  0  0  0  0  0  0
   48.0210   29.5740   48.1470 N   0  0  0  0  0  0  0  0  0  0  0  0
   47.8370   30.9100   48.4190 C   0  0  0  0  0  0  0  0  0  0  0  0
   48.8640   31.2980   49.2140 C   0  0  0  0  0  0  0  0  0  0  0  0
   49.6380   30.1830   49.3990 C   0  0  0  0  0  0  0  0  0  0  0  0
   46.5050   34.4760   41.9660 C   0  0  0  0  0  0  0  0  0  0  0  0
   47.7620   35.3220   41.9180 C   0  0  0  0  0  0  0  0  0  0  0  0
   48.9670   34.5810   41.5070 C   0  0  1  0  0  0  0  0  0  0  0  0
   50.1450   34.6910   42.4610 C   0  0  0  0  0  0  0  0  0  0  0  0
   49.4470   33.3820   42.1610 C   0  0  1  0  0  0  0  0  0  0  0  0
   48.9830   32.7260   43.2600 O   0  0  0  0  0  0  0  0  0  0  0  0
   48.5110   31.4800   42.8030 C   0  0  0  0  0  0  0  0  0  0  0  0
   47.5810   30.6720   43.6940 C   0  0  0  0  0  0  0  0  0  0  0  0
   48.9380   30.2060   43.4130 C   0  0  0  0  0  0  0  0  0  0  0  0
   43.6958   36.7793   44.8461 H   0  0  0  0  0  0  0  0  0  0  0  0
   44.7383   36.4365   42.5865 H   0  0  0  0  0  0  0  0  0  0  0  0
   44.0383   33.4411   47.7467 H   0  0  0  0  0  0  0  0  0  0  0  0
   45.1478   31.6818   49.4369 H   0  0  0  0  0  0  0  0  0  0  0  0
   49.5022   28.1940   48.7204 H   0  0  0  0  0  0  0  0  0  0  0  0
   49.0399   32.3026   49.6262 H   0  0  0  0  0  0  0  0  0  0  0  0
   50.5584   30.1497   50.0005 H   0  0  0  0  0  0  0  0  0  0  0  0
   46.7640   33.4112   41.8707 H   0  0  0  0  0  0  0  0  0  0  0  0
   45.8278   34.7374   41.1395 H   0  0  0  0  0  0  0  0  0  0  0  0
   47.5998   36.1424   41.2034 H   0  0  0  0  0  0  0  0  0  0  0  0
   47.9430   35.6818   42.9416 H   0  0  0  0  0  0  0  0  0  0  0  0
   48.7421   34.7780   40.4484 H   0  0  0  0  0  0  0  0  0  0  0  0
   51.1577   34.8842   42.0774 H   0  0  0  0  0  0  0  0  0  0  0  0
   50.3869   35.2748   43.3614 H   0  0  0  0  0  0  0  0  0  0  0  0
   49.6193   32.3939   41.7093 H   0  0  0  0  0  0  0  0  0  0  0  0
   48.5011   31.8756   41.7766 H   0  0  0  0  0  0  0  0  0  0  0  0
   47.3203   31.0398   44.6974 H   0  0  0  0  0  0  0  0  0  0  0  0
   46.5713   30.2480   43.5902 H   0  0  0  0  0  0  0  0  0  0  0  0
   49.0880   29.3218   42.7760 H   0  0  0  0  0  0  0  0  0  0  0  0
   49.7891   29.9082   44.0430 H   0  0  0  0  0  0  0  0  0  0  0  0
  1  6  2  0
  2  1  1  0
  3  2  2  0
  3  4  1  0
  4  5  2  0
  5  6  1  0
  5  7  1  0
  7 11  2  0
  7  8  1  0
  8  9  2  0
 10 14  1  0
 10  9  1  0
 11 10  1  0
 12 16  1  0
 13 14  2  0
 13 12  1  0
 14 15  1  0
 15 16  2  0
 17  3  1  0
 18 17  1  0
 19 18  1  0
 19 21  1  0
 19 20  1  0
 21 20  1  0
 21 22  1  0
 23 22  1  0
 23 25  1  0
 23 24  1  0
 25 24  1  0
  1 26  1  0
  2 27  1  0
  8 28  1  0
  9 29  1  0
 12 30  1  0
 15 31  1  0
 16 32  1  0
 17 33  1  0
 17 34  1  0
 18 35  1  0
 18 36  1  0
 19 37  1  6
 20 38  1  0
 20 39  1  0
 21 40  1  6
 23 41  1  0
 24 42  1  0
 24 43  1  0
 25 44  1  0
 25 45  1  0
M  ISO  8  26  14  27  14  28  14  29  14  30   9  31  14  32  14  33   8
M  ISO  8  34   8  35   8  36   8  37  13  38  13  39  13  40  13  41  13
M  ISO  4  42  13  43  13  44  13  45  13
M  END
>  <minimizedAffinity>  (1) 
-6.13405561

>  <minimizedRMSD>  (1) 
0.672771811

$$$$
