
     RDKit          3D

 45 49  0  0  1  0  0  0  0  0999 V2000
   44.4320   36.0130   44.5020 C   0  0  0  0  0  0  0  0  0  0  0  0
   45.0550   35.8320   43.2600 C   0  0  0  0  0  0  0  0  0  0  0  0
   45.9550   34.8020   43.1480 C   0  0  0  0  0  0  0  0  0  0  0  0
   46.1760   34.0490   44.2130 N   0  0  0  0  0  0  0  0  0  0  0  0
   45.5790   34.2220   45.4010 C   0  0  0  0  0  0  0  0  0  0  0  0
   44.7010   35.2050   45.5610 N   0  0  0  0  0  0  0  0  0  0  0  0
   45.9140   33.3150   46.4890 C   0  0  0  0  0  0  0  0  0  0  0  0
   45.0200   33.1300   47.5270 C   0  0  0  0  0  0  0  0  0  0  0  0
   45.5570   32.2180   48.4210 C   0  0  0  0  0  0  0  0  0  0  0  0
   46.7550   31.8790   47.9020 N   0  0  0  0  0  0  0  0  0  0  0  0
   46.9580   32.5320   46.7600 N   0  0  0  0  0  0  0  0  0  0  0  0
   48.9840   29.1960   48.7150 N   0  0  0  0  0  0  0  0  0  0  0  0
   47.8980   29.6420   48.1060 N   0  0  0  0  0  0  0  0  0  0  0  0
   47.7570   30.9880   48.3460 C   0  0  0  0  0  0  0  0  0  0  0  0
   48.7980   31.3550   49.1260 C   0  0  0  0  0  0  0  0  0  0  0  0
   49.5450   30.2220   49.3410 C   0  0  0  0  0  0  0  0  0  0  0  0
   46.6560   34.5490   41.8660 C   0  0  0  0  0  0  0  0  0  0  0  0
   47.9700   35.3070   41.9260 C   0  0  0  0  0  0  0  0  0  0  0  0
   49.1520   34.5380   41.5100 C   0  0  1  0  0  0  0  0  0  0  0  0
   50.2820   34.4360   42.5160 C   0  0  0  0  0  0  0  0  0  0  0  0
   49.5110   33.2380   42.0380 C   0  0  1  0  0  0  0  0  0  0  0  0
   48.8920   32.4610   42.9720 O   0  0  0  0  0  0  0  0  0  0  0  0
   49.2290   31.0640   42.8950 C   0  0  0  0  0  0  0  0  0  0  0  0
   50.5840   30.7110   42.6970 C   0  0  0  0  0  0  0  0  0  0  0  0
   50.7660   29.3580   42.6430 N   0  0  0  0  0  0  0  0  0  0  0  0
   49.5350   28.7890   42.8030 C   0  0  0  0  0  0  0  0  0  0  0  0
   48.7210   29.8350   42.9400 N   0  0  0  0  0  0  0  0  0  0  0  0
   43.7061   36.8306   44.6230 H   0  0  0  0  0  0  0  0  0  0  0  0
   44.8313   36.4902   42.4075 H   0  0  0  0  0  0  0  0  0  0  0  0
   44.0430   33.6254   47.6267 H   0  0  0  0  0  0  0  0  0  0  0  0
   45.1040   31.8497   49.3533 H   0  0  0  0  0  0  0  0  0  0  0  0
   49.3315   28.2265   48.7050 H   0  0  0  0  0  0  0  0  0  0  0  0
   49.0064   32.3634   49.5130 H   0  0  0  0  0  0  0  0  0  0  0  0
   50.4663   30.1733   49.9400 H   0  0  0  0  0  0  0  0  0  0  0  0
   46.0479   34.9118   41.0242 H   0  0  0  0  0  0  0  0  0  0  0  0
   46.8282   33.4729   41.7166 H   0  0  0  0  0  0  0  0  0  0  0  0
   47.8868   36.1860   41.2699 H   0  0  0  0  0  0  0  0  0  0  0  0
   48.1279   35.5640   42.9838 H   0  0  0  0  0  0  0  0  0  0  0  0
   49.0030   34.8861   40.4772 H   0  0  0  0  0  0  0  0  0  0  0  0
   51.3245   34.5899   42.2005 H   0  0  0  0  0  0  0  0  0  0  0  0
   50.5204   34.8890   43.4896 H   0  0  0  0  0  0  0  0  0  0  0  0
   49.6698   32.2914   41.5007 H   0  0  0  0  0  0  0  0  0  0  0  0
   51.3992   31.4429   42.5977 H   0  0  0  0  0  0  0  0  0  0  0  0
   49.2765   27.7199   42.8158 H   0  0  0  0  0  0  0  0  0  0  0  0
   47.7102   29.6938   43.0791 H   0  0  0  0  0  0  0  0  0  0  0  0
  1  6  2  0
  2  1  1  0
  3  2  2  0
  3  4  1  0
  4  5  2  0
  5  6  1  0
  5  7  1  0
  7 11  2  0
  7  8  1  0
  8  9  2  0
 10 14  1  0
 10  9  1  0
 11 10  1  0
 12 16  1  0
 13 14  2  0
 13 12  1  0
 14 15  1  0
 15 16  2  0
 17 18  1  0
 17  3  1  0
 19 18  1  0
 19 21  1  0
 19 20  1  0
 21 20  1  0
 21 22  1  0
 23 27  1  0
 23 22  1  0
 24 23  2  0
 25 24  1  0
 25 26  2  0
 26 27  1  0
  1 28  1  0
  2 29  1  0
  8 30  1  0
  9 31  1  0
 12 32  1  0
 15 33  1  0
 16 34  1  0
 17 35  1  0
 17 36  1  0
 18 37  1  0
 18 38  1  0
 19 39  1  6
 20 40  1  0
 20 41  1  0
 21 42  1  6
 24 43  1  0
 26 44  1  0
 27 45  1  0
M  ISO  8  28  14  29  14  30  14  31  14  32   9  33  14  34  14  35   8
M  ISO  8  36   8  37   8  38   8  39  13  40  13  41  13  42  13  43  14
M  ISO  2  44  14  45   9
M  END
>  <minimizedAffinity>  (1) 
-6.21771717

>  <minimizedRMSD>  (1) 
0.574152529

$$$$
