
     RDKit          3D

 38 40  0  0  1  0  0  0  0  0999 V2000
   44.5730   35.8250   44.8740 C   0  0  0  0  0  0  0  0  0  0  0  0
   45.1640   35.7650   43.5900 C   0  0  0  0  0  0  0  0  0  0  0  0
   45.9730   34.6790   43.3050 C   0  0  0  0  0  0  0  0  0  0  0  0
   46.1590   33.7290   44.2640 N   0  0  0  0  0  0  0  0  0  0  0  0
   45.5750   33.8230   45.4820 C   0  0  0  0  0  0  0  0  0  0  0  0
   44.7810   34.8710   45.7870 N   0  0  0  0  0  0  0  0  0  0  0  0
   45.8070   32.7870   46.4600 N   0  0  0  0  0  0  0  0  0  0  0  0
   45.1460   32.8530   47.7610 C   0  0  0  0  0  0  0  0  0  0  0  0
   46.0000   32.3010   48.8710 C   0  0  0  0  0  0  0  0  0  0  0  0
   47.4390   32.2380   48.4100 C   0  0  0  0  0  0  0  0  0  0  0  0
   47.4280   31.1620   47.3230 C   0  0  0  0  0  0  0  0  0  0  0  0
   46.6910   31.6990   46.1360 C   0  0  1  0  0  0  0  0  0  0  0  0
   46.0190   30.6520   45.3090 C   0  0  0  0  0  0  0  0  0  0  0  0
   47.0240   29.8190   44.5330 C   0  0  0  0  0  0  0  0  0  0  0  0
   46.1680   28.6670   44.0400 C   0  0  0  0  0  0  0  0  0  0  0  0
   44.9660   28.6040   44.9580 C   0  0  0  0  0  0  0  0  0  0  0  0
   45.2980   29.5770   46.0730 C   0  0  0  0  0  0  0  0  0  0  0  0
   43.9262   36.6779   45.1274 H   0  0  0  0  0  0  0  0  0  0  0  0
   44.9867   36.5540   42.8443 H   0  0  0  0  0  0  0  0  0  0  0  0
   46.4572   34.5844   42.3219 H   0  0  0  0  0  0  0  0  0  0  0  0
   44.9128   33.9044   47.9851 H   0  0  0  0  0  0  0  0  0  0  0  0
   44.2348   32.2394   47.7041 H   0  0  0  0  0  0  0  0  0  0  0  0
   45.9248   32.9548   49.7524 H   0  0  0  0  0  0  0  0  0  0  0  0
   45.6532   31.2912   49.1356 H   0  0  0  0  0  0  0  0  0  0  0  0
   47.7616   33.2062   47.9995 H   0  0  0  0  0  0  0  0  0  0  0  0
   48.1378   32.0087   49.2280 H   0  0  0  0  0  0  0  0  0  0  0  0
   48.4603   30.9115   47.0375 H   0  0  0  0  0  0  0  0  0  0  0  0
   46.9340   30.2526   47.6956 H   0  0  0  0  0  0  0  0  0  0  0  0
   47.4804   32.1179   45.4946 H   0  0  0  0  0  0  0  0  0  0  0  0
   45.3306   31.2652   44.7089 H   0  0  0  0  0  0  0  0  0  0  0  0
   47.4504   30.3875   43.6934 H   0  0  0  0  0  0  0  0  0  0  0  0
   47.8916   29.5020   45.1303 H   0  0  0  0  0  0  0  0  0  0  0  0
   45.8462   28.8484   43.0039 H   0  0  0  0  0  0  0  0  0  0  0  0
   46.7284   27.7205   44.0514 H   0  0  0  0  0  0  0  0  0  0  0  0
   44.0536   28.9147   44.4279 H   0  0  0  0  0  0  0  0  0  0  0  0
   44.7728   27.5870   45.3299 H   0  0  0  0  0  0  0  0  0  0  0  0
   45.9472   29.1158   46.8318 H   0  0  0  0  0  0  0  0  0  0  0  0
   44.4251   29.9315   46.6409 H   0  0  0  0  0  0  0  0  0  0  0  0
  1  6  2  0
  2  1  1  0
  3  2  2  0
  3  4  1  0
  4  5  2  0
  5  6  1  0
  5  7  1  0
  7  8  1  0
  8  9  1  0
 10  9  1  0
 11 10  1  0
 12  7  1  0
 12 11  1  0
 13 17  1  0
 13 12  1  0
 14 13  1  0
 15 14  1  0
 15 16  1  0
 16 17  1  0
  1 18  1  0
  2 19  1  0
  3 20  1  0
  8 21  1  0
  8 22  1  0
  9 23  1  0
  9 24  1  0
 10 25  1  0
 10 26  1  0
 11 27  1  0
 11 28  1  0
 12 29  1  6
 13 30  1  0
 14 31  1  0
 14 32  1  0
 15 33  1  0
 15 34  1  0
 16 35  1  0
 16 36  1  0
 17 37  1  0
 17 38  1  0
M  ISO  8  18  14  19  14  20  14  21  13  22  13  23  13  24  13  25  13
M  ISO  8  26  13  27  13  28  13  29  13  30  13  31  13  32  13  33  13
M  ISO  5  34  13  35  13  36  13  37  13  38  13
M  END
>  <minimizedAffinity>  (1) 
-4.97607946

>  <minimizedRMSD>  (1) 
0.660832822

$$$$
