
     RDKit          3D

 46 50  0  0  1  0  0  0  0  0999 V2000
   44.4250   36.0510   44.4930 C   0  0  0  0  0  0  0  0  0  0  0  0
   45.0350   35.8600   43.2430 C   0  0  0  0  0  0  0  0  0  0  0  0
   45.9210   34.8200   43.1250 C   0  0  0  0  0  0  0  0  0  0  0  0
   46.1470   34.0600   44.1890 N   0  0  0  0  0  0  0  0  0  0  0  0
   45.5610   34.2460   45.3820 C   0  0  0  0  0  0  0  0  0  0  0  0
   44.6950   35.2400   45.5480 N   0  0  0  0  0  0  0  0  0  0  0  0
   45.8960   33.3330   46.4680 C   0  0  0  0  0  0  0  0  0  0  0  0
   45.0020   33.1540   47.5070 C   0  0  0  0  0  0  0  0  0  0  0  0
   45.5320   32.2450   48.3970 C   0  0  0  0  0  0  0  0  0  0  0  0
   46.7250   31.9000   47.8740 N   0  0  0  0  0  0  0  0  0  0  0  0
   46.9380   32.5470   46.7330 N   0  0  0  0  0  0  0  0  0  0  0  0
   48.9550   29.2030   48.6880 N   0  0  0  0  0  0  0  0  0  0  0  0
   47.8700   29.6690   48.0940 N   0  0  0  0  0  0  0  0  0  0  0  0
   47.7320   30.9970   48.3160 C   0  0  0  0  0  0  0  0  0  0  0  0
   48.7870   31.3510   49.0830 C   0  0  0  0  0  0  0  0  0  0  0  0
   49.5280   30.2290   49.3000 C   0  0  0  0  0  0  0  0  0  0  0  0
   46.6040   34.5610   41.8350 C   0  0  0  0  0  0  0  0  0  0  0  0
   47.9210   35.3220   41.8650 C   0  0  0  0  0  0  0  0  0  0  0  0
   49.1080   34.5300   41.5240 C   0  0  1  0  0  0  0  0  0  0  0  0
   50.2560   34.5650   42.5080 C   0  0  0  0  0  0  0  0  0  0  0  0
   49.5080   33.2990   42.2050 C   0  0  1  0  0  0  0  0  0  0  0  0
   48.9050   32.6460   43.2360 O   0  0  0  0  0  0  0  0  0  0  0  0
   48.5030   31.3120   42.9740 C   0  0  0  0  0  0  0  0  0  0  0  0
   47.9940   30.5160   43.9770 C   0  0  0  0  0  0  0  0  0  0  0  0
   47.5790   29.2180   43.8170 C   0  0  0  0  0  0  0  0  0  0  0  0
   47.6540   28.6190   42.5970 N   0  0  0  0  0  0  0  0  0  0  0  0
   48.1480   29.3820   41.6110 C   0  0  0  0  0  0  0  0  0  0  0  0
   48.5270   30.6280   41.8450 N   0  0  0  0  0  0  0  0  0  0  0  0
   43.7109   36.8779   44.6208 H   0  0  0  0  0  0  0  0  0  0  0  0
   44.8109   36.5191   42.3913 H   0  0  0  0  0  0  0  0  0  0  0  0
   44.0277   33.6548   47.6070 H   0  0  0  0  0  0  0  0  0  0  0  0
   45.0796   31.8804   49.3310 H   0  0  0  0  0  0  0  0  0  0  0  0
   49.2906   28.2293   48.6772 H   0  0  0  0  0  0  0  0  0  0  0  0
   49.0068   32.3599   49.4623 H   0  0  0  0  0  0  0  0  0  0  0  0
   50.4553   30.1821   49.8899 H   0  0  0  0  0  0  0  0  0  0  0  0
   45.9817   34.9167   41.0006 H   0  0  0  0  0  0  0  0  0  0  0  0
   46.7774   33.4840   41.6933 H   0  0  0  0  0  0  0  0  0  0  0  0
   47.8497   36.1539   41.1489 H   0  0  0  0  0  0  0  0  0  0  0  0
   48.0609   35.6490   42.9059 H   0  0  0  0  0  0  0  0  0  0  0  0
   48.9318   34.7497   40.4607 H   0  0  0  0  0  0  0  0  0  0  0  0
   51.2883   34.6987   42.1524 H   0  0  0  0  0  0  0  0  0  0  0  0
   50.5016   35.1388   43.4138 H   0  0  0  0  0  0  0  0  0  0  0  0
   49.6898   32.2951   41.7938 H   0  0  0  0  0  0  0  0  0  0  0  0
   47.9143   30.9546   44.9826 H   0  0  0  0  0  0  0  0  0  0  0  0
   47.1840   28.6591   44.6782 H   0  0  0  0  0  0  0  0  0  0  0  0
   48.2392   28.9674   40.5962 H   0  0  0  0  0  0  0  0  0  0  0  0
  1  6  2  0
  2  1  1  0
  3  2  2  0
  3  4  1  0
  4  5  2  0
  5  6  1  0
  5  7  1  0
  7 11  2  0
  7  8  1  0
  8  9  2  0
 10 14  1  0
 10  9  1  0
 11 10  1  0
 12 16  1  0
 13 14  2  0
 13 12  1  0
 14 15  1  0
 15 16  2  0
 17 18  1  0
 17  3  1  0
 19 18  1  0
 19 21  1  0
 19 20  1  0
 21 20  1  0
 21 22  1  0
 23 22  1  0
 23 24  2  0
 25 24  1  0
 26 25  2  0
 27 28  2  0
 27 26  1  0
 28 23  1  0
  1 29  1  0
  2 30  1  0
  8 31  1  0
  9 32  1  0
 12 33  1  0
 15 34  1  0
 16 35  1  0
 17 36  1  0
 17 37  1  0
 18 38  1  0
 18 39  1  0
 19 40  1  6
 20 41  1  0
 20 42  1  0
 21 43  1  6
 24 44  1  0
 25 45  1  0
 27 46  1  0
M  ISO  8  29  14  30  14  31  14  32  14  33   9  34  14  35  14  36   8
M  ISO  8  37   8  38   8  39   8  40  13  41  13  42  13  43  13  44  14
M  ISO  2  45  14  46  14
M  END
>  <minimizedAffinity>  (1) 
-6.19416142

>  <minimizedRMSD>  (1) 
0.489469767

$$$$
