
     RDKit          3D

 47 50  0  0  1  0  0  0  0  0999 V2000
   44.4210   36.0720   44.4940 C   0  0  0  0  0  0  0  0  0  0  0  0
   45.0400   35.8870   43.2450 C   0  0  0  0  0  0  0  0  0  0  0  0
   45.9320   34.8370   43.1240 C   0  0  0  0  0  0  0  0  0  0  0  0
   46.1580   34.0630   44.1800 N   0  0  0  0  0  0  0  0  0  0  0  0
   45.5550   34.2550   45.3740 C   0  0  0  0  0  0  0  0  0  0  0  0
   44.6890   35.2490   45.5470 N   0  0  0  0  0  0  0  0  0  0  0  0
   45.8920   33.3340   46.4510 C   0  0  0  0  0  0  0  0  0  0  0  0
   45.0060   33.1670   47.5060 C   0  0  0  0  0  0  0  0  0  0  0  0
   45.5340   32.2560   48.3920 C   0  0  0  0  0  0  0  0  0  0  0  0
   46.7190   31.8930   47.8580 N   0  0  0  0  0  0  0  0  0  0  0  0
   46.9270   32.5340   46.7100 N   0  0  0  0  0  0  0  0  0  0  0  0
   48.9410   29.1940   48.6460 N   0  0  0  0  0  0  0  0  0  0  0  0
   47.8550   29.6460   48.0370 N   0  0  0  0  0  0  0  0  0  0  0  0
   47.7260   30.9900   48.2970 C   0  0  0  0  0  0  0  0  0  0  0  0
   48.7690   31.3460   49.0850 C   0  0  0  0  0  0  0  0  0  0  0  0
   49.5140   30.2110   49.2900 C   0  0  0  0  0  0  0  0  0  0  0  0
   46.6310   34.5680   41.8410 C   0  0  0  0  0  0  0  0  0  0  0  0
   47.9780   35.2730   41.9070 C   0  0  0  0  0  0  0  0  0  0  0  0
   49.1220   34.4290   41.4800 C   0  0  1  0  0  0  0  0  0  0  0  0
   50.2680   34.3390   42.4930 C   0  0  0  0  0  0  0  0  0  0  0  0
   49.4530   33.1390   42.0490 C   0  0  1  0  0  0  0  0  0  0  0  0
   48.8720   32.4880   43.0780 O   0  0  0  0  0  0  0  0  0  0  0  0
   48.8670   31.1030   42.9600 C   0  0  0  0  0  0  0  0  0  0  0  0
   50.2230   30.5090   42.6940 C   0  0  0  0  0  0  0  0  0  0  0  0
   48.2400   30.3990   44.1100 C   0  0  0  0  0  0  0  0  0  0  0  0
   43.7059   36.8977   44.6239 H   0  0  0  0  0  0  0  0  0  0  0  0
   44.8230   36.5523   42.3963 H   0  0  0  0  0  0  0  0  0  0  0  0
   44.0389   33.6795   47.6161 H   0  0  0  0  0  0  0  0  0  0  0  0
   45.0869   31.9006   49.3321 H   0  0  0  0  0  0  0  0  0  0  0  0
   49.2840   28.2230   48.6255 H   0  0  0  0  0  0  0  0  0  0  0  0
   48.9784   32.3497   49.4833 H   0  0  0  0  0  0  0  0  0  0  0  0
   50.4348   30.1506   49.8888 H   0  0  0  0  0  0  0  0  0  0  0  0
   46.0405   34.9611   41.0003 H   0  0  0  0  0  0  0  0  0  0  0  0
   46.7629   33.4868   41.6870 H   0  0  0  0  0  0  0  0  0  0  0  0
   47.9380   36.1575   41.2543 H   0  0  0  0  0  0  0  0  0  0  0  0
   48.1502   35.5329   42.9619 H   0  0  0  0  0  0  0  0  0  0  0  0
   48.9614   34.7262   40.4332 H   0  0  0  0  0  0  0  0  0  0  0  0
   51.3121   34.4568   42.1676 H   0  0  0  0  0  0  0  0  0  0  0  0
   50.5252   34.8175   43.4495 H   0  0  0  0  0  0  0  0  0  0  0  0
   49.5505   32.1799   41.5192 H   0  0  0  0  0  0  0  0  0  0  0  0
   48.2378   30.9364   42.0732 H   0  0  0  0  0  0  0  0  0  0  0  0
   50.7216   30.2906   43.6499 H   0  0  0  0  0  0  0  0  0  0  0  0
   50.1092   29.5783   42.1188 H   0  0  0  0  0  0  0  0  0  0  0  0
   50.8299   31.2237   42.1188 H   0  0  0  0  0  0  0  0  0  0  0  0
   48.6188   30.8243   45.0510 H   0  0  0  0  0  0  0  0  0  0  0  0
   47.1480   30.5233   44.0648 H   0  0  0  0  0  0  0  0  0  0  0  0
   48.4894   29.3286   44.0648 H   0  0  0  0  0  0  0  0  0  0  0  0
  1  6  2  0
  2  1  1  0
  3  2  2  0
  3  4  1  0
  4  5  2  0
  5  6  1  0
  5  7  1  0
  7 11  2  0
  7  8  1  0
  8  9  2  0
 10 14  1  0
 10  9  1  0
 11 10  1  0
 12 16  1  0
 13 14  2  0
 13 12  1  0
 14 15  1  0
 15 16  2  0
 17 18  1  0
 17  3  1  0
 19 18  1  0
 19 21  1  0
 19 20  1  0
 21 20  1  0
 21 22  1  0
 23 22  1  0
 23 25  1  0
 24 23  1  0
  1 26  1  0
  2 27  1  0
  8 28  1  0
  9 29  1  0
 12 30  1  0
 15 31  1  0
 16 32  1  0
 17 33  1  0
 17 34  1  0
 18 35  1  0
 18 36  1  0
 19 37  1  6
 20 38  1  0
 20 39  1  0
 21 40  1  6
 23 41  1  0
 24 42  1  0
 24 43  1  0
 24 44  1  0
 25 45  1  0
 25 46  1  0
 25 47  1  0
M  ISO  8  26  14  27  14  28  14  29  14  30   9  31  14  32  14  33   8
M  ISO  8  34   8  35   8  36   8  37  13  38  13  39  13  40  13  41   8
M  ISO  6  42   8  43   8  44   8  45   8  46   8  47   8
M  END
>  <minimizedAffinity>  (1) 
-6.16914463

>  <minimizedRMSD>  (1) 
0.597442389

$$$$
