
     RDKit          3D

 40 43  0  0  1  0  0  0  0  0999 V2000
   44.4310   36.0470   44.4980 C   0  0  0  0  0  0  0  0  0  0  0  0
   45.0520   35.8630   43.2550 C   0  0  0  0  0  0  0  0  0  0  0  0
   45.9450   34.8210   43.1410 C   0  0  0  0  0  0  0  0  0  0  0  0
   46.1740   34.0460   44.1970 N   0  0  0  0  0  0  0  0  0  0  0  0
   45.5660   34.2370   45.3880 C   0  0  0  0  0  0  0  0  0  0  0  0
   44.6940   35.2320   45.5540 N   0  0  0  0  0  0  0  0  0  0  0  0
   45.9010   33.3220   46.4710 C   0  0  0  0  0  0  0  0  0  0  0  0
   45.0110   33.1500   47.5140 C   0  0  0  0  0  0  0  0  0  0  0  0
   45.5440   32.2430   48.4080 C   0  0  0  0  0  0  0  0  0  0  0  0
   46.7460   31.8870   47.8830 N   0  0  0  0  0  0  0  0  0  0  0  0
   46.9440   32.5350   46.7340 N   0  0  0  0  0  0  0  0  0  0  0  0
   48.9820   29.2150   48.7080 N   0  0  0  0  0  0  0  0  0  0  0  0
   47.8780   29.6590   48.0880 N   0  0  0  0  0  0  0  0  0  0  0  0
   47.7490   31.0000   48.3280 C   0  0  0  0  0  0  0  0  0  0  0  0
   48.7990   31.3610   49.1080 C   0  0  0  0  0  0  0  0  0  0  0  0
   49.5440   30.2430   49.3280 C   0  0  0  0  0  0  0  0  0  0  0  0
   46.6470   34.5570   41.8650 C   0  0  0  0  0  0  0  0  0  0  0  0
   47.9810   35.2870   41.9240 C   0  0  0  0  0  0  0  0  0  0  0  0
   49.1200   34.4550   41.4800 C   0  0  1  0  0  0  0  0  0  0  0  0
   50.2710   34.3480   42.4830 C   0  0  0  0  0  0  0  0  0  0  0  0
   49.4620   33.1530   42.0140 C   0  0  1  0  0  0  0  0  0  0  0  0
   48.8920   32.4810   43.0380 O   0  0  0  0  0  0  0  0  0  0  0  0
   48.8040   31.0780   42.9560 C   0  0  0  0  0  0  0  0  0  0  0  0
   49.7970   30.3270   43.1570 O   0  0  0  0  0  0  0  0  0  0  0  0
   43.7131   36.8711   44.6222 H   0  0  0  0  0  0  0  0  0  0  0  0
   44.8345   36.5250   42.4039 H   0  0  0  0  0  0  0  0  0  0  0  0
   44.0380   33.6530   47.6153 H   0  0  0  0  0  0  0  0  0  0  0  0
   45.0924   31.8850   49.3449 H   0  0  0  0  0  0  0  0  0  0  0  0
   49.3313   28.2460   48.7030 H   0  0  0  0  0  0  0  0  0  0  0  0
   49.0093   32.3703   49.4916 H   0  0  0  0  0  0  0  0  0  0  0  0
   50.4664   30.1996   49.9257 H   0  0  0  0  0  0  0  0  0  0  0  0
   46.0491   34.9327   41.0215 H   0  0  0  0  0  0  0  0  0  0  0  0
   46.7996   33.4773   41.7202 H   0  0  0  0  0  0  0  0  0  0  0  0
   47.9229   36.1745   41.2767 H   0  0  0  0  0  0  0  0  0  0  0  0
   48.1614   35.5541   42.9757 H   0  0  0  0  0  0  0  0  0  0  0  0
   48.9490   34.7737   40.4412 H   0  0  0  0  0  0  0  0  0  0  0  0
   51.3124   34.4814   42.1548 H   0  0  0  0  0  0  0  0  0  0  0  0
   50.5301   34.8045   43.4497 H   0  0  0  0  0  0  0  0  0  0  0  0
   49.5612   32.2083   41.4592 H   0  0  0  0  0  0  0  0  0  0  0  0
   47.8348   30.6209   42.7078 H   0  0  0  0  0  0  0  0  0  0  0  0
  1  6  2  0
  2  1  1  0
  3  2  2  0
  3  4  1  0
  4  5  2  0
  5  6  1  0
  5  7  1  0
  7 11  2  0
  7  8  1  0
  8  9  2  0
 10 14  1  0
 10  9  1  0
 11 10  1  0
 12 16  1  0
 13 14  2  0
 13 12  1  0
 14 15  1  0
 15 16  2  0
 17 18  1  0
 17  3  1  0
 19 18  1  0
 19 21  1  0
 19 20  1  0
 21 20  1  0
 21 22  1  0
 23 22  1  0
 23 24  2  0
  1 25  1  0
  2 26  1  0
  8 27  1  0
  9 28  1  0
 12 29  1  0
 15 30  1  0
 16 31  1  0
 17 32  1  0
 17 33  1  0
 18 34  1  0
 18 35  1  0
 19 36  1  6
 20 37  1  0
 20 38  1  0
 21 39  1  6
 23 40  1  0
M  ISO  8  25  14  26  14  27  14  28  14  29   9  30  14  31  14  32   8
M  ISO  8  33   8  34   8  35   8  36  13  37  13  38  13  39  13  40   6
M  END
>  <minimizedAffinity>  (1) 
-6.04292345

>  <minimizedRMSD>  (1) 
0.562898397

$$$$
