
     RDKit          3D

 37 39  0  0  1  0  0  0  0  0999 V2000
   44.5400   35.8750   44.8790 C   0  0  0  0  0  0  0  0  0  0  0  0
   45.1360   35.8490   43.5990 C   0  0  0  0  0  0  0  0  0  0  0  0
   45.9740   34.7740   43.3020 C   0  0  0  0  0  0  0  0  0  0  0  0
   46.1600   33.8250   44.2680 N   0  0  0  0  0  0  0  0  0  0  0  0
   45.5760   33.8890   45.4710 C   0  0  0  0  0  0  0  0  0  0  0  0
   44.7670   34.9120   45.7760 N   0  0  0  0  0  0  0  0  0  0  0  0
   45.8180   32.8530   46.4360 N   0  0  0  0  0  0  0  0  0  0  0  0
   45.1410   32.9060   47.7430 C   0  0  0  0  0  0  0  0  0  0  0  0
   45.9520   32.2940   48.8310 C   0  0  0  0  0  0  0  0  0  0  0  0
   47.3980   32.2530   48.4020 C   0  0  0  0  0  0  0  0  0  0  0  0
   47.4430   31.2260   47.2790 C   0  0  0  0  0  0  0  0  0  0  0  0
   46.7230   31.7720   46.1070 C   0  0  1  0  0  0  0  0  0  0  0  0
   45.9600   30.8270   45.3430 N   0  0  0  0  0  0  0  0  0  0  0  0
   45.3750   29.7550   46.0780 C   0  0  0  0  0  0  0  0  0  0  0  0
   45.0220   28.7740   44.9620 C   0  0  0  0  0  0  0  0  0  0  0  0
   46.2790   28.8350   44.1170 C   0  0  0  0  0  0  0  0  0  0  0  0
   46.6550   30.2880   44.2120 C   0  0  0  0  0  0  0  0  0  0  0  0
   43.8727   36.7085   45.1436 H   0  0  0  0  0  0  0  0  0  0  0  0
   44.9468   36.6457   42.8645 H   0  0  0  0  0  0  0  0  0  0  0  0
   46.4687   34.6927   42.3229 H   0  0  0  0  0  0  0  0  0  0  0  0
   44.9469   33.9585   47.9972 H   0  0  0  0  0  0  0  0  0  0  0  0
   44.2070   32.3311   47.6589 H   0  0  0  0  0  0  0  0  0  0  0  0
   45.8558   32.8965   49.7463 H   0  0  0  0  0  0  0  0  0  0  0  0
   45.5947   31.2732   49.0317 H   0  0  0  0  0  0  0  0  0  0  0  0
   47.7221   33.2392   48.0381 H   0  0  0  0  0  0  0  0  0  0  0  0
   48.0695   31.9892   49.2323 H   0  0  0  0  0  0  0  0  0  0  0  0
   48.4889   31.0199   47.0077 H   0  0  0  0  0  0  0  0  0  0  0  0
   46.9677   30.2901   47.6080 H   0  0  0  0  0  0  0  0  0  0  0  0
   47.5660   32.1251   45.4949 H   0  0  0  0  0  0  0  0  0  0  0  0
   46.0925   29.3156   46.7866 H   0  0  0  0  0  0  0  0  0  0  0  0
   44.5176   30.0537   46.6990 H   0  0  0  0  0  0  0  0  0  0  0  0
   44.8474   27.7613   45.3543 H   0  0  0  0  0  0  0  0  0  0  0  0
   44.0973   29.0182   44.4185 H   0  0  0  0  0  0  0  0  0  0  0  0
   46.0746   28.5431   43.0763 H   0  0  0  0  0  0  0  0  0  0  0  0
   47.0715   28.1507   44.4542 H   0  0  0  0  0  0  0  0  0  0  0  0
   47.7413   30.3888   44.3529 H   0  0  0  0  0  0  0  0  0  0  0  0
   46.3830   30.8251   43.2914 H   0  0  0  0  0  0  0  0  0  0  0  0
  1  6  2  0
  2  1  1  0
  3  2  2  0
  3  4  1  0
  4  5  2  0
  5  6  1  0
  5  7  1  0
  7  8  1  0
  8  9  1  0
 10  9  1  0
 11 10  1  0
 12  7  1  0
 12 11  1  0
 13 14  1  0
 13 12  1  0
 15 14  1  0
 16 17  1  0
 16 15  1  0
 17 13  1  0
  1 18  1  0
  2 19  1  0
  3 20  1  0
  8 21  1  0
  8 22  1  0
  9 23  1  0
  9 24  1  0
 10 25  1  0
 10 26  1  0
 11 27  1  0
 11 28  1  0
 12 29  1  6
 14 30  1  0
 14 31  1  0
 15 32  1  0
 15 33  1  0
 16 34  1  0
 16 35  1  0
 17 36  1  0
 17 37  1  0
M  ISO  8  18  14  19  14  20  14  21  13  22  13  23  13  24  13  25  13
M  ISO  8  26  13  27  13  28  13  29  13  30  13  31  13  32  13  33  13
M  ISO  4  34  13  35  13  36  13  37  13
M  END
>  <minimizedAffinity>  (1) 
-4.96295261

>  <minimizedRMSD>  (1) 
0.971327424

$$$$
