
     RDKit          3D

 57 61  0  0  1  0  0  0  0  0999 V2000
   44.4240   35.9830   44.5250 C   0  0  0  0  0  0  0  0  0  0  0  0
   45.0600   35.8070   43.2770 C   0  0  0  0  0  0  0  0  0  0  0  0
   45.9570   34.7820   43.1700 C   0  0  0  0  0  0  0  0  0  0  0  0
   46.1800   34.0170   44.2360 N   0  0  0  0  0  0  0  0  0  0  0  0
   45.5700   34.1950   45.4200 C   0  0  0  0  0  0  0  0  0  0  0  0
   44.6920   35.1760   45.5700 N   0  0  0  0  0  0  0  0  0  0  0  0
   45.9000   33.2910   46.5120 C   0  0  0  0  0  0  0  0  0  0  0  0
   45.0300   33.1390   47.5690 C   0  0  0  0  0  0  0  0  0  0  0  0
   45.5690   32.2330   48.4710 C   0  0  0  0  0  0  0  0  0  0  0  0
   46.7490   31.8660   47.9320 N   0  0  0  0  0  0  0  0  0  0  0  0
   46.9430   32.4920   46.7740 N   0  0  0  0  0  0  0  0  0  0  0  0
   48.9770   29.1770   48.7500 N   0  0  0  0  0  0  0  0  0  0  0  0
   47.8790   29.6260   48.1390 N   0  0  0  0  0  0  0  0  0  0  0  0
   47.7660   30.9620   48.3810 C   0  0  0  0  0  0  0  0  0  0  0  0
   48.8110   31.3320   49.1530 C   0  0  0  0  0  0  0  0  0  0  0  0
   49.5530   30.2030   49.3700 C   0  0  0  0  0  0  0  0  0  0  0  0
   46.6900   34.5270   41.9000 C   0  0  0  0  0  0  0  0  0  0  0  0
   47.9490   35.3670   41.9370 C   0  0  0  0  0  0  0  0  0  0  0  0
   49.1560   34.6730   41.5160 C   0  0  1  0  0  0  0  0  0  0  0  0
   50.2850   34.5160   42.5070 C   0  0  0  0  0  0  0  0  0  0  0  0
   49.5850   33.3280   41.9960 C   0  0  1  0  0  0  0  0  0  0  0  0
   48.9480   32.5610   42.9270 O   0  0  0  0  0  0  0  0  0  0  0  0
   48.5710   31.3310   42.4870 C   0  0  0  0  0  0  0  0  0  0  0  0
   49.0960   30.1530   43.2120 C   0  0  0  0  0  0  0  0  0  0  0  0
   48.6840   29.8790   44.6050 C   0  0  0  0  0  0  0  0  0  0  0  0
   49.5780   28.7490   45.1400 C   0  0  0  0  0  0  0  0  0  0  0  0
   50.1710   27.9120   44.0260 C   0  0  0  0  0  0  0  0  0  0  0  0
   51.0940   28.7560   43.1610 C   0  0  0  0  0  0  0  0  0  0  0  0
   50.6440   30.2060   43.1930 C   0  0  0  0  0  0  0  0  0  0  0  0
   43.6938   36.7966   44.6468 H   0  0  0  0  0  0  0  0  0  0  0  0
   44.8422   36.4682   42.4253 H   0  0  0  0  0  0  0  0  0  0  0  0
   44.0638   33.6530   47.6801 H   0  0  0  0  0  0  0  0  0  0  0  0
   45.1295   31.8892   49.4190 H   0  0  0  0  0  0  0  0  0  0  0  0
   49.3188   28.2054   48.7427 H   0  0  0  0  0  0  0  0  0  0  0  0
   49.0236   32.3423   49.5326 H   0  0  0  0  0  0  0  0  0  0  0  0
   50.4783   30.1521   49.9627 H   0  0  0  0  0  0  0  0  0  0  0  0
   46.0679   34.8170   41.0404 H   0  0  0  0  0  0  0  0  0  0  0  0
   46.9342   33.4595   41.7962 H   0  0  0  0  0  0  0  0  0  0  0  0
   47.8028   36.2327   41.2742 H   0  0  0  0  0  0  0  0  0  0  0  0
   48.1037   35.6483   42.9891 H   0  0  0  0  0  0  0  0  0  0  0  0
   48.9933   35.0919   40.5120 H   0  0  0  0  0  0  0  0  0  0  0  0
   51.3207   34.7196   42.1975 H   0  0  0  0  0  0  0  0  0  0  0  0
   50.5043   34.9196   43.5065 H   0  0  0  0  0  0  0  0  0  0  0  0
   49.8076   32.4112   41.4303 H   0  0  0  0  0  0  0  0  0  0  0  0
   47.4731   31.2859   42.5373 H   0  0  0  0  0  0  0  0  0  0  0  0
   49.0009   31.2518   41.4776 H   0  0  0  0  0  0  0  0  0  0  0  0
   48.6294   29.3301   42.6507 H   0  0  0  0  0  0  0  0  0  0  0  0
   48.8134   30.7824   45.2191 H   0  0  0  0  0  0  0  0  0  0  0  0
   47.6247   29.5850   44.6440 H   0  0  0  0  0  0  0  0  0  0  0  0
   50.3976   29.1924   45.7245 H   0  0  0  0  0  0  0  0  0  0  0  0
   48.9536   28.0902   45.7614 H   0  0  0  0  0  0  0  0  0  0  0  0
   50.7438   27.0808   44.4630 H   0  0  0  0  0  0  0  0  0  0  0  0
   49.3547   27.5216   43.4005 H   0  0  0  0  0  0  0  0  0  0  0  0
   51.0631   28.3866   42.1253 H   0  0  0  0  0  0  0  0  0  0  0  0
   52.1210   28.6854   43.5487 H   0  0  0  0  0  0  0  0  0  0  0  0
   51.0235   30.7074   44.0955 H   0  0  0  0  0  0  0  0  0  0  0  0
   51.0245   30.7727   42.3304 H   0  0  0  0  0  0  0  0  0  0  0  0
  1  6  2  0
  2  1  1  0
  3  2  2  0
  3  4  1  0
  4  5  2  0
  5  6  1  0
  5  7  1  0
  7 11  2  0
  7  8  1  0
  8  9  2  0
 10 14  1  0
 10  9  1  0
 11 10  1  0
 12 16  1  0
 13 14  2  0
 13 12  1  0
 14 15  1  0
 15 16  2  0
 17 18  1  0
 17  3  1  0
 19 18  1  0
 19 21  1  0
 19 20  1  0
 21 20  1  0
 21 22  1  0
 23 22  1  0
 23 24  1  0
 24 25  1  0
 25 26  1  0
 27 26  1  0
 28 29  1  0
 28 27  1  0
 29 24  1  0
  1 30  1  0
  2 31  1  0
  8 32  1  0
  9 33  1  0
 12 34  1  0
 15 35  1  0
 16 36  1  0
 17 37  1  0
 17 38  1  0
 18 39  1  0
 18 40  1  0
 19 41  1  6
 20 42  1  0
 20 43  1  0
 21 44  1  6
 23 45  1  0
 23 46  1  0
 24 47  1  0
 25 48  1  0
 25 49  1  0
 26 50  1  0
 26 51  1  0
 27 52  1  0
 27 53  1  0
 28 54  1  0
 28 55  1  0
 29 56  1  0
 29 57  1  0
M  ISO  8  30  14  31  14  32  14  33  14  34   9  35  14  36  14  37   8
M  ISO  8  38   8  39   8  40   8  41  13  42  13  43  13  44  13  45   8
M  ISO  8  46   8  47  13  48  13  49  13  50  13  51  13  52  13  53  13
M  ISO  4  54  13  55  13  56  13  57  13
M  END
>  <minimizedAffinity>  (1) 
-6.24554682

>  <minimizedRMSD>  (1) 
0.956982553

$$$$
