
     RDKit          3D

 48 52  0  0  1  0  0  0  0  0999 V2000
   44.4330   36.0460   44.4840 C   0  0  0  0  0  0  0  0  0  0  0  0
   45.0590   35.8670   43.2380 C   0  0  0  0  0  0  0  0  0  0  0  0
   45.9420   34.8290   43.1210 C   0  0  0  0  0  0  0  0  0  0  0  0
   46.1600   34.0540   44.1760 N   0  0  0  0  0  0  0  0  0  0  0  0
   45.5560   34.2310   45.3720 C   0  0  0  0  0  0  0  0  0  0  0  0
   44.6890   35.2250   45.5400 N   0  0  0  0  0  0  0  0  0  0  0  0
   45.8830   33.3150   46.4520 C   0  0  0  0  0  0  0  0  0  0  0  0
   45.0230   33.1840   47.5240 C   0  0  0  0  0  0  0  0  0  0  0  0
   45.5570   32.2590   48.4130 C   0  0  0  0  0  0  0  0  0  0  0  0
   46.7060   31.8690   47.8560 N   0  0  0  0  0  0  0  0  0  0  0  0
   46.9050   32.4900   46.6940 N   0  0  0  0  0  0  0  0  0  0  0  0
   48.8950   29.1330   48.6380 N   0  0  0  0  0  0  0  0  0  0  0  0
   47.7940   29.5910   48.0410 N   0  0  0  0  0  0  0  0  0  0  0  0
   47.7080   30.9360   48.2860 C   0  0  0  0  0  0  0  0  0  0  0  0
   48.7810   31.2910   49.0470 C   0  0  0  0  0  0  0  0  0  0  0  0
   49.5010   30.1470   49.2480 C   0  0  0  0  0  0  0  0  0  0  0  0
   46.6630   34.5690   41.8430 C   0  0  0  0  0  0  0  0  0  0  0  0
   47.9520   35.3720   41.8970 C   0  0  0  0  0  0  0  0  0  0  0  0
   49.1410   34.6310   41.4950 C   0  0  1  0  0  0  0  0  0  0  0  0
   50.2680   34.4710   42.4890 C   0  0  0  0  0  0  0  0  0  0  0  0
   49.5320   33.2940   42.0120 C   0  0  1  0  0  0  0  0  0  0  0  0
   48.8930   32.5850   42.9820 O   0  0  0  0  0  0  0  0  0  0  0  0
   48.5850   31.2980   42.5860 C   0  0  0  0  0  0  0  0  0  0  0  0
   49.3590   30.3370   43.4550 C   0  0  0  0  0  0  0  0  0  0  0  0
   48.8890   29.6740   44.5950 C   0  0  0  0  0  0  0  0  0  0  0  0
   49.8870   28.8800   45.1200 C   0  0  0  0  0  0  0  0  0  0  0  0
   50.9380   29.1020   44.2550 C   0  0  0  0  0  0  0  0  0  0  0  0
   50.6030   29.9430   43.3120 O   0  0  0  0  0  0  0  0  0  0  0  0
   43.7170   36.8716   44.6094 H   0  0  0  0  0  0  0  0  0  0  0  0
   44.8470   36.5354   42.3905 H   0  0  0  0  0  0  0  0  0  0  0  0
   44.0726   33.7226   47.6531 H   0  0  0  0  0  0  0  0  0  0  0  0
   45.1268   31.9217   49.3675 H   0  0  0  0  0  0  0  0  0  0  0  0
   49.2216   28.1562   48.6282 H   0  0  0  0  0  0  0  0  0  0  0  0
   49.0198   32.2965   49.4239 H   0  0  0  0  0  0  0  0  0  0  0  0
   50.4354   30.0762   49.8241 H   0  0  0  0  0  0  0  0  0  0  0  0
   46.0499   34.8933   40.9892 H   0  0  0  0  0  0  0  0  0  0  0  0
   46.8705   33.4961   41.7172 H   0  0  0  0  0  0  0  0  0  0  0  0
   47.8451   36.2394   41.2290 H   0  0  0  0  0  0  0  0  0  0  0  0
   48.1005   35.6564   42.9492 H   0  0  0  0  0  0  0  0  0  0  0  0
   48.9879   35.0251   40.4795 H   0  0  0  0  0  0  0  0  0  0  0  0
   51.3086   34.6351   42.1725 H   0  0  0  0  0  0  0  0  0  0  0  0
   50.5020   34.8959   43.4763 H   0  0  0  0  0  0  0  0  0  0  0  0
   49.7155   32.3575   41.4649 H   0  0  0  0  0  0  0  0  0  0  0  0
   47.5059   31.1205   42.7047 H   0  0  0  0  0  0  0  0  0  0  0  0
   48.8521   31.1525   41.5289 H   0  0  0  0  0  0  0  0  0  0  0  0
   47.8750   29.7718   45.0100 H   0  0  0  0  0  0  0  0  0  0  0  0
   49.8532   28.2312   46.0076 H   0  0  0  0  0  0  0  0  0  0  0  0
   51.9286   28.6327   44.3466 H   0  0  0  0  0  0  0  0  0  0  0  0
  1  6  2  0
  2  1  1  0
  3  2  2  0
  3  4  1  0
  4  5  2  0
  5  6  1  0
  5  7  1  0
  7 11  2  0
  7  8  1  0
  8  9  2  0
 10 14  1  0
 10  9  1  0
 11 10  1  0
 12 16  1  0
 13 14  2  0
 13 12  1  0
 14 15  1  0
 15 16  2  0
 17 18  1  0
 17  3  1  0
 19 18  1  0
 19 21  1  0
 19 20  1  0
 21 20  1  0
 21 22  1  0
 23 22  1  0
 23 24  1  0
 24 25  2  0
 25 26  1  0
 27 26  2  0
 28 24  1  0
 28 27  1  0
  1 29  1  0
  2 30  1  0
  8 31  1  0
  9 32  1  0
 12 33  1  0
 15 34  1  0
 16 35  1  0
 17 36  1  0
 17 37  1  0
 18 38  1  0
 18 39  1  0
 19 40  1  6
 20 41  1  0
 20 42  1  0
 21 43  1  6
 23 44  1  0
 23 45  1  0
 25 46  1  0
 26 47  1  0
 27 48  1  0
M  ISO  8  29  14  30  14  31  14  32  14  33   9  34  14  35  14  36   8
M  ISO  8  37   8  38   8  39   8  40  13  41  13  42  13  43  13  44   8
M  ISO  4  45   8  46  14  47  14  48  14
M  END
>  <minimizedAffinity>  (1) 
-6.16004658

>  <minimizedRMSD>  (1) 
1.08326495

$$$$
