
     RDKit          3D

 54 58  0  0  1  0  0  0  0  0999 V2000
   44.4230   35.8150   44.6940 C   0  0  0  0  0  0  0  0  0  0  0  0
   45.0570   35.6530   43.4450 C   0  0  0  0  0  0  0  0  0  0  0  0
   45.9790   34.6470   43.3370 C   0  0  0  0  0  0  0  0  0  0  0  0
   46.2230   33.8880   44.4000 N   0  0  0  0  0  0  0  0  0  0  0  0
   45.6120   34.0510   45.5920 C   0  0  0  0  0  0  0  0  0  0  0  0
   44.7080   35.0130   45.7520 N   0  0  0  0  0  0  0  0  0  0  0  0
   45.9690   33.1550   46.6770 C   0  0  0  0  0  0  0  0  0  0  0  0
   45.0920   32.9640   47.7260 C   0  0  0  0  0  0  0  0  0  0  0  0
   45.6540   32.0730   48.6270 C   0  0  0  0  0  0  0  0  0  0  0  0
   46.8470   31.7560   48.0990 N   0  0  0  0  0  0  0  0  0  0  0  0
   47.0340   32.3970   46.9440 N   0  0  0  0  0  0  0  0  0  0  0  0
   49.1940   29.1630   48.9300 N   0  0  0  0  0  0  0  0  0  0  0  0
   48.0770   29.5570   48.3070 N   0  0  0  0  0  0  0  0  0  0  0  0
   47.8940   30.8880   48.5490 C   0  0  0  0  0  0  0  0  0  0  0  0
   48.9310   31.3100   49.3400 C   0  0  0  0  0  0  0  0  0  0  0  0
   49.7130   30.2150   49.5540 C   0  0  0  0  0  0  0  0  0  0  0  0
   46.7080   34.4110   42.0620 C   0  0  0  0  0  0  0  0  0  0  0  0
   47.8670   35.3860   42.0260 C   0  0  0  0  0  0  0  0  0  0  0  0
   49.1160   34.8250   41.5290 C   0  0  1  0  0  0  0  0  0  0  0  0
   50.2270   34.5410   42.5090 C   0  0  0  0  0  0  0  0  0  0  0  0
   49.5850   33.4370   41.7700 C   0  0  1  0  0  0  0  0  0  0  0  0
   48.9850   32.5090   42.5680 O   0  0  0  0  0  0  0  0  0  0  0  0
   48.6840   31.3500   41.8740 C   0  0  0  0  0  0  0  0  0  0  0  0
   48.8570   30.1690   42.7080 N   0  0  0  0  0  0  0  0  0  0  0  0
   48.0610   30.4050   43.8980 C   0  0  0  0  0  0  0  0  0  0  0  0
   48.3820   29.4470   45.0110 C   0  0  0  0  0  0  0  0  0  0  0  0
   49.7320   29.4200   45.3270 O   0  0  0  0  0  0  0  0  0  0  0  0
   50.4070   28.9890   44.1950 C   0  0  0  0  0  0  0  0  0  0  0  0
   50.2390   30.0140   43.1180 C   0  0  0  0  0  0  0  0  0  0  0  0
   43.6764   36.6137   44.8147 H   0  0  0  0  0  0  0  0  0  0  0  0
   44.8206   36.3076   42.5931 H   0  0  0  0  0  0  0  0  0  0  0  0
   44.1066   33.4416   47.8300 H   0  0  0  0  0  0  0  0  0  0  0  0
   45.2182   31.7062   49.5680 H   0  0  0  0  0  0  0  0  0  0  0  0
   49.5838   28.2096   48.9264 H   0  0  0  0  0  0  0  0  0  0  0  0
   49.0980   32.3271   49.7243 H   0  0  0  0  0  0  0  0  0  0  0  0
   50.6354   30.2036   50.1533 H   0  0  0  0  0  0  0  0  0  0  0  0
   47.0829   33.3774   42.0272 H   0  0  0  0  0  0  0  0  0  0  0  0
   46.0441   34.5591   41.1976 H   0  0  0  0  0  0  0  0  0  0  0  0
   47.5867   36.2283   41.3764 H   0  0  0  0  0  0  0  0  0  0  0  0
   48.0532   35.6876   43.0673 H   0  0  0  0  0  0  0  0  0  0  0  0
   48.9609   35.4120   40.6117 H   0  0  0  0  0  0  0  0  0  0  0  0
   51.2598   34.8357   42.2715 H   0  0  0  0  0  0  0  0  0  0  0  0
   50.4077   34.7678   43.5701 H   0  0  0  0  0  0  0  0  0  0  0  0
   49.8371   32.6498   41.0442 H   0  0  0  0  0  0  0  0  0  0  0  0
   47.6388   31.3979   41.5344 H   0  0  0  0  0  0  0  0  0  0  0  0
   49.3705   31.2719   41.0180 H   0  0  0  0  0  0  0  0  0  0  0  0
   48.2503   31.4297   44.2503 H   0  0  0  0  0  0  0  0  0  0  0  0
   47.0055   30.2563   43.6262 H   0  0  0  0  0  0  0  0  0  0  0  0
   47.8179   29.7473   45.9063 H   0  0  0  0  0  0  0  0  0  0  0  0
   48.1025   28.4392   44.6701 H   0  0  0  0  0  0  0  0  0  0  0  0
   51.4755   28.8657   44.4255 H   0  0  0  0  0  0  0  0  0  0  0  0
   50.0002   28.0233   43.8606 H   0  0  0  0  0  0  0  0  0  0  0  0
   50.8337   29.7083   42.2445 H   0  0  0  0  0  0  0  0  0  0  0  0
   50.5779   30.9799   43.5208 H   0  0  0  0  0  0  0  0  0  0  0  0
  1  6  2  0
  2  1  1  0
  3  2  2  0
  3  4  1  0
  4  5  2  0
  5  6  1  0
  5  7  1  0
  7 11  2  0
  7  8  1  0
  8  9  2  0
 10 14  1  0
 10  9  1  0
 11 10  1  0
 12 16  1  0
 13 14  2  0
 13 12  1  0
 14 15  1  0
 15 16  2  0
 17  3  1  0
 18 17  1  0
 19 21  1  0
 19 18  1  0
 19 20  1  0
 21 20  1  0
 21 22  1  0
 23 22  1  0
 23 24  1  0
 24 29  1  0
 24 25  1  0
 25 26  1  0
 26 27  1  0
 28 27  1  0
 29 28  1  0
  1 30  1  0
  2 31  1  0
  8 32  1  0
  9 33  1  0
 12 34  1  0
 15 35  1  0
 16 36  1  0
 17 37  1  0
 17 38  1  0
 18 39  1  0
 18 40  1  0
 19 41  1  6
 20 42  1  0
 20 43  1  0
 21 44  1  6
 23 45  1  0
 23 46  1  0
 25 47  1  0
 25 48  1  0
 26 49  1  0
 26 50  1  0
 28 51  1  0
 28 52  1  0
 29 53  1  0
 29 54  1  0
M  ISO  8  30  14  31  14  32  14  33  14  34   9  35  14  36  14  37   8
M  ISO  8  38   8  39   8  40   8  41  13  42  13  43  13  44  13  45   8
M  ISO  8  46   8  47  13  48  13  49  13  50  13  51  13  52  13  53  13
M  ISO  1  54  13
M  END
>  <minimizedAffinity>  (1) 
-6.18008327

>  <minimizedRMSD>  (1) 
1.14827967

$$$$
