
     RDKit          3D

 51 55  0  0  1  0  0  0  0  0999 V2000
   46.6080   34.5140   41.9690 C   0  0  0  0  0  0  0  0  0  0  0  0
   44.4210   35.9390   44.6700 C   0  0  0  0  0  0  0  0  0  0  0  0
   45.0220   35.7760   43.4180 C   0  0  0  0  0  0  0  0  0  0  0  0
   45.9090   34.7470   43.2620 C   0  0  0  0  0  0  0  0  0  0  0  0
   46.1510   33.9570   44.3070 N   0  0  0  0  0  0  0  0  0  0  0  0
   45.5700   34.1190   45.5090 C   0  0  0  0  0  0  0  0  0  0  0  0
   44.7010   35.1060   45.7080 N   0  0  0  0  0  0  0  0  0  0  0  0
   45.9260   33.1860   46.5740 C   0  0  0  0  0  0  0  0  0  0  0  0
   45.0620   33.0000   47.6350 C   0  0  0  0  0  0  0  0  0  0  0  0
   45.6240   32.0760   48.5060 C   0  0  0  0  0  0  0  0  0  0  0  0
   46.7920   31.7400   47.9490 N   0  0  0  0  0  0  0  0  0  0  0  0
   46.9800   32.3910   46.8030 N   0  0  0  0  0  0  0  0  0  0  0  0
   49.0620   29.0530   48.6790 N   0  0  0  0  0  0  0  0  0  0  0  0
   47.9510   29.5030   48.0930 N   0  0  0  0  0  0  0  0  0  0  0  0
   47.8270   30.8330   48.3680 C   0  0  0  0  0  0  0  0  0  0  0  0
   48.8870   31.1980   49.1370 C   0  0  0  0  0  0  0  0  0  0  0  0
   49.6290   30.0700   49.3090 C   0  0  0  0  0  0  0  0  0  0  0  0
   47.9120   35.2820   42.0230 C   0  0  0  0  0  0  0  0  0  0  0  0
   49.0650   34.5470   41.5200 C   0  0  1  0  0  0  0  0  0  0  0  0
   50.2380   34.3270   42.4490 C   0  0  0  0  0  0  0  0  0  0  0  0
   49.4630   33.1830   41.9500 C   0  0  1  0  0  0  0  0  0  0  0  0
   48.8550   32.4230   42.9010 O   0  0  0  0  0  0  0  0  0  0  0  0
   48.8540   31.0790   42.6160 C   0  0  0  0  0  0  0  0  0  0  0  0
   49.7360   30.2530   43.4850 C   0  0  0  0  0  0  0  0  0  0  0  0
   51.1010   30.2310   43.2130 C   0  0  0  0  0  0  0  0  0  0  0  0
   52.0710   29.5470   43.9130 C   0  0  0  0  0  0  0  0  0  0  0  0
   51.6320   28.8120   44.9940 C   0  0  0  0  0  0  0  0  0  0  0  0
   50.2920   28.7960   45.3120 C   0  0  0  0  0  0  0  0  0  0  0  0
   49.3640   29.5000   44.5760 C   0  0  0  0  0  0  0  0  0  0  0  0
   45.9900   34.8780   41.1350 H   0  0  0  0  0  0  0  0  0  0  0  0
   46.7918   33.4410   41.8111 H   0  0  0  0  0  0  0  0  0  0  0  0
   43.7047   36.7605   44.8189 H   0  0  0  0  0  0  0  0  0  0  0  0
   44.7885   36.4546   42.5843 H   0  0  0  0  0  0  0  0  0  0  0  0
   44.0913   33.5000   47.7679 H   0  0  0  0  0  0  0  0  0  0  0  0
   45.2001   31.7017   49.4495 H   0  0  0  0  0  0  0  0  0  0  0  0
   49.4157   28.0862   48.6469 H   0  0  0  0  0  0  0  0  0  0  0  0
   49.1011   32.1997   49.5380 H   0  0  0  0  0  0  0  0  0  0  0  0
   50.5631   30.0119   49.8869 H   0  0  0  0  0  0  0  0  0  0  0  0
   47.7979   36.1962   41.4220 H   0  0  0  0  0  0  0  0  0  0  0  0
   48.1106   35.4888   43.0850 H   0  0  0  0  0  0  0  0  0  0  0  0
   48.8656   34.9894   40.5328 H   0  0  0  0  0  0  0  0  0  0  0  0
   51.2640   34.4958   42.0902 H   0  0  0  0  0  0  0  0  0  0  0  0
   50.5256   34.6996   43.4432 H   0  0  0  0  0  0  0  0  0  0  0  0
   49.6128   32.2724   41.3513 H   0  0  0  0  0  0  0  0  0  0  0  0
   47.8241   30.7078   42.7234 H   0  0  0  0  0  0  0  0  0  0  0  0
   49.2484   30.9803   41.5939 H   0  0  0  0  0  0  0  0  0  0  0  0
   51.4408   30.8212   42.3492 H   0  0  0  0  0  0  0  0  0  0  0  0
   53.1324   29.5850   43.6265 H   0  0  0  0  0  0  0  0  0  0  0  0
   52.3498   28.2402   45.6005 H   0  0  0  0  0  0  0  0  0  0  0  0
   49.9537   28.2056   46.1763 H   0  0  0  0  0  0  0  0  0  0  0  0
   48.3037   29.4596   44.8661 H   0  0  0  0  0  0  0  0  0  0  0  0
  1 18  1  0
  1  4  1  0
  2  7  2  0
  3  2  1  0
  4  3  2  0
  4  5  1  0
  5  6  2  0
  6  7  1  0
  6  8  1  0
  8 12  2  0
  8  9  1  0
  9 10  2  0
 11 15  1  0
 11 10  1  0
 12 11  1  0
 13 17  1  0
 14 15  2  0
 14 13  1  0
 15 16  1  0
 16 17  2  0
 19 21  1  0
 19 18  1  0
 19 20  1  0
 21 20  1  0
 21 22  1  0
 23 22  1  0
 23 24  1  0
 24 29  1  0
 25 24  2  0
 25 26  1  0
 26 27  2  0
 27 28  1  0
 29 28  2  0
  1 30  1  0
  1 31  1  0
  2 32  1  0
  3 33  1  0
  9 34  1  0
 10 35  1  0
 13 36  1  0
 16 37  1  0
 17 38  1  0
 18 39  1  0
 18 40  1  0
 19 41  1  6
 20 42  1  0
 20 43  1  0
 21 44  1  6
 23 45  1  0
 23 46  1  0
 25 47  1  0
 26 48  1  0
 27 49  1  0
 28 50  1  0
 29 51  1  0
M  ISO  8  30   8  31   8  32  14  33  14  34  14  35  14  36   9  37  14
M  ISO  8  38  14  39   8  40   8  41  13  42  13  43  13  44  13  45   8
M  ISO  6  46   8  47  14  48  14  49  14  50  14  51  14
M  END
>  <minimizedAffinity>  (1) 
-6.30630875

>  <minimizedRMSD>  (1) 
1.59542572

$$$$
