
     RDKit          3D

 46 50  0  0  1  0  0  0  0  0999 V2000
   44.4150   35.9400   44.6800 C   0  0  0  0  0  0  0  0  0  0  0  0
   45.0050   35.7740   43.4060 C   0  0  0  0  0  0  0  0  0  0  0  0
   45.8850   34.7370   43.2590 C   0  0  0  0  0  0  0  0  0  0  0  0
   46.1360   33.9530   44.3010 N   0  0  0  0  0  0  0  0  0  0  0  0
   45.5690   34.1200   45.5080 C   0  0  0  0  0  0  0  0  0  0  0  0
   44.7050   35.1140   45.7060 N   0  0  0  0  0  0  0  0  0  0  0  0
   45.9240   33.1880   46.5740 C   0  0  0  0  0  0  0  0  0  0  0  0
   45.0570   32.9970   47.6300 C   0  0  0  0  0  0  0  0  0  0  0  0
   45.6180   32.0720   48.5030 C   0  0  0  0  0  0  0  0  0  0  0  0
   46.7880   31.7430   47.9490 N   0  0  0  0  0  0  0  0  0  0  0  0
   46.9710   32.4040   46.8050 N   0  0  0  0  0  0  0  0  0  0  0  0
   49.0650   29.0630   48.6660 N   0  0  0  0  0  0  0  0  0  0  0  0
   47.9600   29.5000   48.0840 N   0  0  0  0  0  0  0  0  0  0  0  0
   47.8250   30.8400   48.3630 C   0  0  0  0  0  0  0  0  0  0  0  0
   48.8790   31.2050   49.1330 C   0  0  0  0  0  0  0  0  0  0  0  0
   49.6340   30.0800   49.3060 C   0  0  0  0  0  0  0  0  0  0  0  0
   46.5700   34.4980   41.9580 C   0  0  0  0  0  0  0  0  0  0  0  0
   47.8140   35.3660   41.9460 C   0  0  0  0  0  0  0  0  0  0  0  0
   49.0220   34.6760   41.5110 C   0  0  1  0  0  0  0  0  0  0  0  0
   50.1810   34.5780   42.4760 C   0  0  0  0  0  0  0  0  0  0  0  0
   49.4900   33.3620   42.0270 C   0  0  1  0  0  0  0  0  0  0  0  0
   48.9130   32.6280   43.0160 O   0  0  0  0  0  0  0  0  0  0  0  0
   48.6620   31.3260   42.6350 C   0  0  0  0  0  0  0  0  0  0  0  0
   49.3370   30.3280   43.5440 C   0  0  0  0  0  0  0  0  0  0  0  0
   48.8940   29.7170   44.6540 N   0  0  0  0  0  0  0  0  0  0  0  0
   49.8100   28.9260   45.1280 O   0  0  0  0  0  0  0  0  0  0  0  0
   50.8720   28.9870   44.3610 C   0  0  0  0  0  0  0  0  0  0  0  0
   50.5980   29.8640   43.3550 N   0  0  0  0  0  0  0  0  0  0  0  0
   43.7022   36.7627   44.8383 H   0  0  0  0  0  0  0  0  0  0  0  0
   44.7671   36.4485   42.5703 H   0  0  0  0  0  0  0  0  0  0  0  0
   44.0841   33.4938   47.7596 H   0  0  0  0  0  0  0  0  0  0  0  0
   45.1917   31.6938   49.4439 H   0  0  0  0  0  0  0  0  0  0  0  0
   49.4237   28.0982   48.6294 H   0  0  0  0  0  0  0  0  0  0  0  0
   49.0851   32.2069   49.5377 H   0  0  0  0  0  0  0  0  0  0  0  0
   50.5677   30.0241   49.8849 H   0  0  0  0  0  0  0  0  0  0  0  0
   46.8482   33.4377   41.8667 H   0  0  0  0  0  0  0  0  0  0  0  0
   45.9092   34.7472   41.1147 H   0  0  0  0  0  0  0  0  0  0  0  0
   47.6370   36.2126   41.2663 H   0  0  0  0  0  0  0  0  0  0  0  0
   47.9882   35.6817   42.9852 H   0  0  0  0  0  0  0  0  0  0  0  0
   48.8222   35.0513   40.4965 H   0  0  0  0  0  0  0  0  0  0  0  0
   51.2039   34.7890   42.1309 H   0  0  0  0  0  0  0  0  0  0  0  0
   50.4199   35.0219   43.4537 H   0  0  0  0  0  0  0  0  0  0  0  0
   49.7034   32.4307   41.4818 H   0  0  0  0  0  0  0  0  0  0  0  0
   47.5762   31.1519   42.6613 H   0  0  0  0  0  0  0  0  0  0  0  0
   49.0643   31.1864   41.6208 H   0  0  0  0  0  0  0  0  0  0  0  0
   51.8111   28.4322   44.5036 H   0  0  0  0  0  0  0  0  0  0  0  0
  1  6  2  0
  2  1  1  0
  3  2  2  0
  3  4  1  0
  4  5  2  0
  5  6  1  0
  5  7  1  0
  7 11  2  0
  7  8  1  0
  8  9  2  0
 10 14  1  0
 10  9  1  0
 11 10  1  0
 12 16  1  0
 13 14  2  0
 13 12  1  0
 14 15  1  0
 15 16  2  0
 17  3  1  0
 18 17  1  0
 19 18  1  0
 19 21  1  0
 19 20  1  0
 21 20  1  0
 21 22  1  0
 23 22  1  0
 23 24  1  0
 24 25  2  0
 25 26  1  0
 27 26  1  0
 28 24  1  0
 28 27  2  0
  1 29  1  0
  2 30  1  0
  8 31  1  0
  9 32  1  0
 12 33  1  0
 15 34  1  0
 16 35  1  0
 17 36  1  0
 17 37  1  0
 18 38  1  0
 18 39  1  0
 19 40  1  6
 20 41  1  0
 20 42  1  0
 21 43  1  6
 23 44  1  0
 23 45  1  0
 27 46  1  0
M  ISO  8  29  14  30  14  31  14  32  14  33   9  34  14  35  14  36   8
M  ISO  8  37   8  38   8  39   8  40  13  41  13  42  13  43  13  44   8
M  ISO  2  45   8  46  14
M  END
>  <minimizedAffinity>  (1) 
-6.09651613

>  <minimizedRMSD>  (1) 
1.27857041

$$$$
