
     RDKit          3D

 55 59  0  0  1  0  0  0  0  0999 V2000
   46.8000   34.6000   41.8820 C   0  0  0  0  0  0  0  0  0  0  0  0
   44.4410   36.0050   44.4530 C   0  0  0  0  0  0  0  0  0  0  0  0
   45.1110   35.8430   43.2260 C   0  0  0  0  0  0  0  0  0  0  0  0
   46.0330   34.8380   43.1320 C   0  0  0  0  0  0  0  0  0  0  0  0
   46.2440   34.0710   44.2020 N   0  0  0  0  0  0  0  0  0  0  0  0
   45.5970   34.2320   45.3740 C   0  0  0  0  0  0  0  0  0  0  0  0
   44.6930   35.2000   45.5050 N   0  0  0  0  0  0  0  0  0  0  0  0
   45.9190   33.3300   46.4670 C   0  0  0  0  0  0  0  0  0  0  0  0
   45.0390   33.1900   47.5220 C   0  0  0  0  0  0  0  0  0  0  0  0
   45.5680   32.2830   48.4280 C   0  0  0  0  0  0  0  0  0  0  0  0
   46.7420   31.9050   47.8970 N   0  0  0  0  0  0  0  0  0  0  0  0
   46.9550   32.5230   46.7340 N   0  0  0  0  0  0  0  0  0  0  0  0
   48.9710   29.2200   48.7410 N   0  0  0  0  0  0  0  0  0  0  0  0
   47.8720   29.6570   48.1150 N   0  0  0  0  0  0  0  0  0  0  0  0
   47.7530   30.9940   48.3540 C   0  0  0  0  0  0  0  0  0  0  0  0
   48.8020   31.3760   49.1430 C   0  0  0  0  0  0  0  0  0  0  0  0
   49.5370   30.2480   49.3610 C   0  0  0  0  0  0  0  0  0  0  0  0
   48.1840   35.1860   42.0950 C   0  0  0  0  0  0  0  0  0  0  0  0
   49.2700   34.3700   41.5680 C   0  0  1  0  0  0  0  0  0  0  0  0
   50.4360   34.0460   42.4710 C   0  0  0  0  0  0  0  0  0  0  0  0
   49.5650   32.9720   41.9740 C   0  0  1  0  0  0  0  0  0  0  0  0
   48.9250   32.2580   42.9380 O   0  0  0  0  0  0  0  0  0  0  0  0
   48.2120   31.1910   42.4280 C   0  0  0  0  0  0  0  0  0  0  0  0
   48.6630   29.9390   43.0670 N   0  0  0  0  0  0  0  0  0  0  0  0
   48.4940   30.0040   44.4740 C   0  0  0  0  0  0  0  0  0  0  0  0
   49.1040   28.7170   45.0450 C   0  0  0  0  0  0  0  0  0  0  0  0
   50.5160   28.8790   44.8930 N   0  0  0  0  0  0  0  0  0  0  0  0
   50.9590   29.1490   43.5500 C   0  0  0  0  0  0  0  0  0  0  0  0
   49.9120   29.5000   42.5680 C   0  0  0  0  0  0  0  0  0  0  0  0
   46.3053   35.0968   41.0344 H   0  0  0  0  0  0  0  0  0  0  0  0
   46.8584   33.5253   41.6547 H   0  0  0  0  0  0  0  0  0  0  0  0
   43.6948   36.8066   44.5562 H   0  0  0  0  0  0  0  0  0  0  0  0
   44.8999   36.5027   42.3715 H   0  0  0  0  0  0  0  0  0  0  0  0
   44.0765   33.7122   47.6266 H   0  0  0  0  0  0  0  0  0  0  0  0
   45.1226   31.9464   49.3758 H   0  0  0  0  0  0  0  0  0  0  0  0
   49.3187   28.2504   48.7416 H   0  0  0  0  0  0  0  0  0  0  0  0
   49.0106   32.3866   49.5241 H   0  0  0  0  0  0  0  0  0  0  0  0
   50.4586   30.1979   49.9595 H   0  0  0  0  0  0  0  0  0  0  0  0
   48.2213   36.1686   41.6020 H   0  0  0  0  0  0  0  0  0  0  0  0
   48.3357   35.2464   43.1828 H   0  0  0  0  0  0  0  0  0  0  0  0
   49.0913   34.8422   40.5907 H   0  0  0  0  0  0  0  0  0  0  0  0
   51.4657   34.1382   42.0951 H   0  0  0  0  0  0  0  0  0  0  0  0
   50.7693   34.3821   43.4640 H   0  0  0  0  0  0  0  0  0  0  0  0
   49.6258   32.0615   41.3597 H   0  0  0  0  0  0  0  0  0  0  0  0
   47.1405   31.3382   42.6284 H   0  0  0  0  0  0  0  0  0  0  0  0
   48.3799   31.1266   41.3428 H   0  0  0  0  0  0  0  0  0  0  0  0
   49.0150   30.8840   44.8792 H   0  0  0  0  0  0  0  0  0  0  0  0
   47.4314   30.0947   44.7436 H   0  0  0  0  0  0  0  0  0  0  0  0
   48.8399   28.6017   46.1066 H   0  0  0  0  0  0  0  0  0  0  0  0
   48.7328   27.8191   44.5293 H   0  0  0  0  0  0  0  0  0  0  0  0
   50.8133   29.6633   45.4908 H   0  0  0  0  0  0  0  0  0  0  0  0
   51.6697   29.9874   43.5948 H   0  0  0  0  0  0  0  0  0  0  0  0
   51.3901   28.2031   43.1901 H   0  0  0  0  0  0  0  0  0  0  0  0
   49.7248   28.6068   41.9539 H   0  0  0  0  0  0  0  0  0  0  0  0
   50.3169   30.3690   42.0285 H   0  0  0  0  0  0  0  0  0  0  0  0
  1 18  1  0
  1  4  1  0
  2  7  2  0
  3  2  1  0
  4  3  2  0
  4  5  1  0
  5  6  2  0
  6  7  1  0
  6  8  1  0
  8 12  2  0
  8  9  1  0
  9 10  2  0
 11 15  1  0
 11 10  1  0
 12 11  1  0
 13 17  1  0
 14 15  2  0
 14 13  1  0
 15 16  1  0
 16 17  2  0
 19 21  1  0
 19 18  1  0
 19 20  1  0
 21 20  1  0
 21 22  1  0
 23 22  1  0
 23 24  1  0
 24 25  1  0
 25 26  1  0
 27 26  1  0
 28 27  1  0
 29 24  1  0
 29 28  1  0
  1 30  1  0
  1 31  1  0
  2 32  1  0
  3 33  1  0
  9 34  1  0
 10 35  1  0
 13 36  1  0
 16 37  1  0
 17 38  1  0
 18 39  1  0
 18 40  1  0
 19 41  1  6
 20 42  1  0
 20 43  1  0
 21 44  1  6
 23 45  1  0
 23 46  1  0
 25 47  1  0
 25 48  1  0
 26 49  1  0
 26 50  1  0
 27 51  1  0
 28 52  1  0
 28 53  1  0
 29 54  1  0
 29 55  1  0
M  ISO  8  30   8  31   8  32  14  33  14  34  14  35  14  36   9  37  14
M  ISO  8  38  14  39   8  40   8  41  13  42  13  43  13  44  13  45   8
M  ISO  8  46   8  47  13  48  13  49  13  50  13  51   5  52  13  53  13
M  ISO  2  54  13  55  13
M  END
>  <minimizedAffinity>  (1) 
-6.03369331

>  <minimizedRMSD>  (1) 
1.38909459

$$$$
