
     RDKit          3D

 56 60  0  0  1  0  0  0  0  0999 V2000
   46.7260   34.5250   42.0420 C   0  0  0  0  0  0  0  0  0  0  0  0
   44.4100   35.8750   44.6740 C   0  0  0  0  0  0  0  0  0  0  0  0
   45.0520   35.7320   43.4360 C   0  0  0  0  0  0  0  0  0  0  0  0
   45.9800   34.7340   43.3130 C   0  0  0  0  0  0  0  0  0  0  0  0
   46.2200   33.9590   44.3680 N   0  0  0  0  0  0  0  0  0  0  0  0
   45.5980   34.1040   45.5520 C   0  0  0  0  0  0  0  0  0  0  0  0
   44.6900   35.0590   45.7200 N   0  0  0  0  0  0  0  0  0  0  0  0
   45.9530   33.1950   46.6310 C   0  0  0  0  0  0  0  0  0  0  0  0
   45.0760   32.9940   47.6750 C   0  0  0  0  0  0  0  0  0  0  0  0
   45.6420   32.0900   48.5680 C   0  0  0  0  0  0  0  0  0  0  0  0
   46.8320   31.7780   48.0370 N   0  0  0  0  0  0  0  0  0  0  0  0
   47.0210   32.4310   46.8890 N   0  0  0  0  0  0  0  0  0  0  0  0
   49.1580   29.1660   48.8390 N   0  0  0  0  0  0  0  0  0  0  0  0
   48.0420   29.5750   48.2230 N   0  0  0  0  0  0  0  0  0  0  0  0
   47.8770   30.9040   48.4810 C   0  0  0  0  0  0  0  0  0  0  0  0
   48.9180   31.3090   49.2720 C   0  0  0  0  0  0  0  0  0  0  0  0
   49.6920   30.2050   49.4740 C   0  0  0  0  0  0  0  0  0  0  0  0
   47.9600   35.4020   42.0990 C   0  0  0  0  0  0  0  0  0  0  0  0
   49.1560   34.7920   41.5320 C   0  0  1  0  0  0  0  0  0  0  0  0
   50.2550   34.3560   42.4700 C   0  0  0  0  0  0  0  0  0  0  0  0
   49.5300   33.3590   41.6680 C   0  0  1  0  0  0  0  0  0  0  0  0
   48.8710   32.4140   42.3910 O   0  0  0  0  0  0  0  0  0  0  0  0
   48.4080   31.3760   41.6070 C   0  0  0  0  0  0  0  0  0  0  0  0
   48.2420   30.1480   42.4120 N   0  0  0  0  0  0  0  0  0  0  0  0
   47.7590   30.5940   43.6830 C   0  0  0  0  0  0  0  0  0  0  0  0
   47.9700   29.6230   44.8040 C   0  0  0  0  0  0  0  0  0  0  0  0
   49.4580   29.3690   44.8980 C   0  0  0  0  0  0  0  0  0  0  0  0
   49.8380   28.6670   43.6070 C   0  0  0  0  0  0  0  0  0  0  0  0
   49.5350   29.5380   42.4300 C   0  0  0  0  0  0  0  0  0  0  0  0
   46.0988   34.8118   41.1851 H   0  0  0  0  0  0  0  0  0  0  0  0
   47.0032   33.4674   41.9206 H   0  0  0  0  0  0  0  0  0  0  0  0
   43.6598   36.6696   44.8000 H   0  0  0  0  0  0  0  0  0  0  0  0
   44.8179   36.3987   42.5930 H   0  0  0  0  0  0  0  0  0  0  0  0
   44.0904   33.4702   47.7842 H   0  0  0  0  0  0  0  0  0  0  0  0
   45.2074   31.7134   49.5057 H   0  0  0  0  0  0  0  0  0  0  0  0
   49.5384   28.2089   48.8236 H   0  0  0  0  0  0  0  0  0  0  0  0
   49.0945   32.3210   49.6653 H   0  0  0  0  0  0  0  0  0  0  0  0
   50.6159   30.1780   50.0704 H   0  0  0  0  0  0  0  0  0  0  0  0
   47.7500   36.3286   41.5447 H   0  0  0  0  0  0  0  0  0  0  0  0
   48.1714   35.5794   43.1638 H   0  0  0  0  0  0  0  0  0  0  0  0
   49.0302   35.4514   40.6606 H   0  0  0  0  0  0  0  0  0  0  0  0
   51.3036   34.5928   42.2370 H   0  0  0  0  0  0  0  0  0  0  0  0
   50.4632   34.4911   43.5416 H   0  0  0  0  0  0  0  0  0  0  0  0
   49.7226   32.6087   40.8870 H   0  0  0  0  0  0  0  0  0  0  0  0
   47.4374   31.6569   41.1722 H   0  0  0  0  0  0  0  0  0  0  0  0
   49.1406   31.1804   40.8101 H   0  0  0  0  0  0  0  0  0  0  0  0
   48.2767   31.5305   43.9378 H   0  0  0  0  0  0  0  0  0  0  0  0
   46.6711   30.7184   43.5778 H   0  0  0  0  0  0  0  0  0  0  0  0
   47.5997   30.0499   45.7477 H   0  0  0  0  0  0  0  0  0  0  0  0
   47.4238   28.6863   44.6187 H   0  0  0  0  0  0  0  0  0  0  0  0
   50.0039   30.3193   44.9927 H   0  0  0  0  0  0  0  0  0  0  0  0
   49.7110   28.7618   45.7796 H   0  0  0  0  0  0  0  0  0  0  0  0
   50.9141   28.4393   43.6217 H   0  0  0  0  0  0  0  0  0  0  0  0
   49.2556   27.7377   43.5219 H   0  0  0  0  0  0  0  0  0  0  0  0
   49.6279   28.9216   41.5237 H   0  0  0  0  0  0  0  0  0  0  0  0
   50.2521   30.3701   42.4874 H   0  0  0  0  0  0  0  0  0  0  0  0
  1 18  1  0
  1  4  1  0
  2  7  2  0
  3  2  1  0
  4  3  2  0
  4  5  1  0
  5  6  2  0
  6  7  1  0
  6  8  1  0
  8 12  2  0
  8  9  1  0
  9 10  2  0
 11 15  1  0
 11 10  1  0
 12 11  1  0
 13 17  1  0
 14 15  2  0
 14 13  1  0
 15 16  1  0
 16 17  2  0
 19 21  1  0
 19 18  1  0
 19 20  1  0
 21 22  1  0
 21 20  1  0
 23 22  1  0
 23 24  1  0
 24 29  1  0
 24 25  1  0
 25 26  1  0
 26 27  1  0
 28 27  1  0
 29 28  1  0
  1 30  1  0
  1 31  1  0
  2 32  1  0
  3 33  1  0
  9 34  1  0
 10 35  1  0
 13 36  1  0
 16 37  1  0
 17 38  1  0
 18 39  1  0
 18 40  1  0
 19 41  1  6
 20 42  1  0
 20 43  1  0
 21 44  1  6
 23 45  1  0
 23 46  1  0
 25 47  1  0
 25 48  1  0
 26 49  1  0
 26 50  1  0
 27 51  1  0
 27 52  1  0
 28 53  1  0
 28 54  1  0
 29 55  1  0
 29 56  1  0
M  ISO  8  30   8  31   8  32  14  33  14  34  14  35  14  36   9  37  14
M  ISO  8  38  14  39   8  40   8  41  13  42  13  43  13  44  13  45   8
M  ISO  8  46   8  47  13  48  13  49  13  50  13  51  13  52  13  53  13
M  ISO  3  54  13  55  13  56  13
M  END
>  <minimizedAffinity>  (1) 
-6.1258831

>  <minimizedRMSD>  (1) 
1.16298544

$$$$
