
     RDKit          3D

 47 51  0  0  1  0  0  0  0  0999 V2000
   44.4230   35.9990   44.5200 C   0  0  0  0  0  0  0  0  0  0  0  0
   45.0500   35.8140   43.2760 C   0  0  0  0  0  0  0  0  0  0  0  0
   45.9440   34.7840   43.1610 C   0  0  0  0  0  0  0  0  0  0  0  0
   46.1680   34.0190   44.2300 N   0  0  0  0  0  0  0  0  0  0  0  0
   45.5630   34.2040   45.4160 C   0  0  0  0  0  0  0  0  0  0  0  0
   44.6870   35.1910   45.5770 N   0  0  0  0  0  0  0  0  0  0  0  0
   45.8980   33.2970   46.5060 C   0  0  0  0  0  0  0  0  0  0  0  0
   45.0240   33.1450   47.5650 C   0  0  0  0  0  0  0  0  0  0  0  0
   45.5640   32.2380   48.4640 C   0  0  0  0  0  0  0  0  0  0  0  0
   46.7330   31.8750   47.9280 N   0  0  0  0  0  0  0  0  0  0  0  0
   46.9420   32.4950   46.7680 N   0  0  0  0  0  0  0  0  0  0  0  0
   48.9810   29.1930   48.7490 N   0  0  0  0  0  0  0  0  0  0  0  0
   47.8790   29.6340   48.1340 N   0  0  0  0  0  0  0  0  0  0  0  0
   47.7530   30.9680   48.3770 C   0  0  0  0  0  0  0  0  0  0  0  0
   48.8060   31.3460   49.1580 C   0  0  0  0  0  0  0  0  0  0  0  0
   49.5460   30.2230   49.3690 C   0  0  0  0  0  0  0  0  0  0  0  0
   46.6680   34.5220   41.8880 C   0  0  0  0  0  0  0  0  0  0  0  0
   47.9210   35.3730   41.9080 C   0  0  0  0  0  0  0  0  0  0  0  0
   49.1320   34.6740   41.5020 C   0  0  1  0  0  0  0  0  0  0  0  0
   50.2570   34.5340   42.5020 C   0  0  0  0  0  0  0  0  0  0  0  0
   49.5590   33.3400   42.0000 C   0  0  1  0  0  0  0  0  0  0  0  0
   48.9270   32.5900   42.9430 O   0  0  0  0  0  0  0  0  0  0  0  0
   48.6600   31.3040   42.5330 C   0  0  0  0  0  0  0  0  0  0  0  0
   49.4690   30.3560   43.3540 C   0  0  0  0  0  0  0  0  0  0  0  0
   50.7430   30.0540   43.0200 C   0  0  0  0  0  0  0  0  0  0  0  0
   51.3210   28.8700   44.3280 S   0  0  0  0  0  0  0  0  0  0  0  0
   49.6080   29.0150   45.1420 C   0  0  0  0  0  0  0  0  0  0  0  0
   49.0890   29.7300   44.4510 N   0  0  0  0  0  0  0  0  0  0  0  0
   43.7001   36.8195   44.6395 H   0  0  0  0  0  0  0  0  0  0  0  0
   44.8299   36.4742   42.4241 H   0  0  0  0  0  0  0  0  0  0  0  0
   44.0580   33.6592   47.6767 H   0  0  0  0  0  0  0  0  0  0  0  0
   45.1256   31.8925   49.4119 H   0  0  0  0  0  0  0  0  0  0  0  0
   49.3307   28.2242   48.7431 H   0  0  0  0  0  0  0  0  0  0  0  0
   49.0151   32.3559   49.5405 H   0  0  0  0  0  0  0  0  0  0  0  0
   50.4709   30.1757   49.9625 H   0  0  0  0  0  0  0  0  0  0  0  0
   46.0369   34.7989   41.0306 H   0  0  0  0  0  0  0  0  0  0  0  0
   46.9193   33.4554   41.7916 H   0  0  0  0  0  0  0  0  0  0  0  0
   47.7700   36.2230   41.2263 H   0  0  0  0  0  0  0  0  0  0  0  0
   48.0731   35.6814   42.9529 H   0  0  0  0  0  0  0  0  0  0  0  0
   48.9737   35.0781   40.4912 H   0  0  0  0  0  0  0  0  0  0  0  0
   51.2942   34.7350   42.1957 H   0  0  0  0  0  0  0  0  0  0  0  0
   50.4712   34.9505   43.4973 H   0  0  0  0  0  0  0  0  0  0  0  0
   49.7800   32.4176   41.4428 H   0  0  0  0  0  0  0  0  0  0  0  0
   47.5898   31.0884   42.6677 H   0  0  0  0  0  0  0  0  0  0  0  0
   48.9193   31.1908   41.4700 H   0  0  0  0  0  0  0  0  0  0  0  0
   51.3148   30.4290   42.1583 H   0  0  0  0  0  0  0  0  0  0  0  0
   49.2268   28.5264   46.0508 H   0  0  0  0  0  0  0  0  0  0  0  0
  1  6  2  0
  2  1  1  0
  3  2  2  0
  3  4  1  0
  4  5  2  0
  5  6  1  0
  5  7  1  0
  7 11  2  0
  7  8  1  0
  8  9  2  0
 10 14  1  0
 10  9  1  0
 11 10  1  0
 12 16  1  0
 13 14  2  0
 13 12  1  0
 14 15  1  0
 15 16  2  0
 17 18  1  0
 17  3  1  0
 19 18  1  0
 19 21  1  0
 19 20  1  0
 21 20  1  0
 21 22  1  0
 23 22  1  0
 23 24  1  0
 24 28  1  0
 25 24  2  0
 25 26  1  0
 26 27  1  0
 28 27  2  0
  1 29  1  0
  2 30  1  0
  8 31  1  0
  9 32  1  0
 12 33  1  0
 15 34  1  0
 16 35  1  0
 17 36  1  0
 17 37  1  0
 18 38  1  0
 18 39  1  0
 19 40  1  6
 20 41  1  0
 20 42  1  0
 21 43  1  6
 23 44  1  0
 23 45  1  0
 25 46  1  0
 27 47  1  0
M  ISO  8  29  14  30  14  31  14  32  14  33   9  34  14  35  14  36   8
M  ISO  8  37   8  38   8  39   8  40  13  41  13  42  13  43  13  44   8
M  ISO  3  45   8  46  14  47  14
M  END
>  <minimizedAffinity>  (1) 
-6.13712406

>  <minimizedRMSD>  (1) 
0.981716454

$$$$
