
     RDKit          3D

 43 46  0  0  1  0  0  0  0  0999 V2000
   44.4480   36.0510   44.4560 C   0  0  0  0  0  0  0  0  0  0  0  0
   45.0990   35.8890   43.2250 C   0  0  0  0  0  0  0  0  0  0  0  0
   46.0040   34.8680   43.1100 C   0  0  0  0  0  0  0  0  0  0  0  0
   46.2120   34.0910   44.1710 N   0  0  0  0  0  0  0  0  0  0  0  0
   45.5820   34.2550   45.3520 C   0  0  0  0  0  0  0  0  0  0  0  0
   44.6960   35.2380   45.5010 N   0  0  0  0  0  0  0  0  0  0  0  0
   45.9020   33.3370   46.4340 C   0  0  0  0  0  0  0  0  0  0  0  0
   45.0220   33.1840   47.4850 C   0  0  0  0  0  0  0  0  0  0  0  0
   45.5420   32.2640   48.3790 C   0  0  0  0  0  0  0  0  0  0  0  0
   46.7160   31.8900   47.8460 N   0  0  0  0  0  0  0  0  0  0  0  0
   46.9370   32.5220   46.6930 N   0  0  0  0  0  0  0  0  0  0  0  0
   48.9200   29.1680   48.6440 N   0  0  0  0  0  0  0  0  0  0  0  0
   47.8300   29.6300   48.0310 N   0  0  0  0  0  0  0  0  0  0  0  0
   47.7210   30.9690   48.2900 C   0  0  0  0  0  0  0  0  0  0  0  0
   48.7720   31.3200   49.0780 C   0  0  0  0  0  0  0  0  0  0  0  0
   49.5000   30.1820   49.2820 C   0  0  0  0  0  0  0  0  0  0  0  0
   46.7550   34.6350   41.8500 C   0  0  0  0  0  0  0  0  0  0  0  0
   48.1670   35.1540   42.0750 C   0  0  0  0  0  0  0  0  0  0  0  0
   49.2130   34.2780   41.5630 C   0  0  1  0  0  0  0  0  0  0  0  0
   50.4160   34.0070   42.4370 C   0  0  0  0  0  0  0  0  0  0  0  0
   49.5060   32.9120   42.0700 C   0  0  1  0  0  0  0  0  0  0  0  0
   48.9030   32.2920   43.1200 O   0  0  0  0  0  0  0  0  0  0  0  0
   48.0770   31.2590   42.7230 C   0  0  0  0  0  0  0  0  0  0  0  0
   47.0760   31.1390   43.8060 N   0  0  0  0  0  0  0  0  0  0  0  0
   43.7154   36.8634   44.5716 H   0  0  0  0  0  0  0  0  0  0  0  0
   44.8896   36.5603   42.3791 H   0  0  0  0  0  0  0  0  0  0  0  0
   44.0615   33.7087   47.5950 H   0  0  0  0  0  0  0  0  0  0  0  0
   45.0918   31.9156   49.3202 H   0  0  0  0  0  0  0  0  0  0  0  0
   49.2555   28.1943   48.6269 H   0  0  0  0  0  0  0  0  0  0  0  0
   48.9926   32.3225   49.4733 H   0  0  0  0  0  0  0  0  0  0  0  0
   50.4210   30.1144   49.8797 H   0  0  0  0  0  0  0  0  0  0  0  0
   46.2798   35.1788   41.0203 H   0  0  0  0  0  0  0  0  0  0  0  0
   46.7651   33.5664   41.5894 H   0  0  0  0  0  0  0  0  0  0  0  0
   48.2595   36.1301   41.5764 H   0  0  0  0  0  0  0  0  0  0  0  0
   48.3115   35.2168   43.1637 H   0  0  0  0  0  0  0  0  0  0  0  0
   48.9955   34.6710   40.5589 H   0  0  0  0  0  0  0  0  0  0  0  0
   51.4283   34.0486   42.0087 H   0  0  0  0  0  0  0  0  0  0  0  0
   50.8002   34.4169   43.3827 H   0  0  0  0  0  0  0  0  0  0  0  0
   49.5231   31.9537   41.5303 H   0  0  0  0  0  0  0  0  0  0  0  0
   47.5876   31.4993   41.7676 H   0  0  0  0  0  0  0  0  0  0  0  0
   48.6308   30.3221   42.5633 H   0  0  0  0  0  0  0  0  0  0  0  0
   47.5495   31.1958   44.7190 H   0  0  0  0  0  0  0  0  0  0  0  0
   46.3908   31.9039   43.7265 H   0  0  0  0  0  0  0  0  0  0  0  0
  1  6  2  0
  2  1  1  0
  3  2  2  0
  3  4  1  0
  4  5  2  0
  5  6  1  0
  5  7  1  0
  7 11  2  0
  7  8  1  0
  8  9  2  0
 10 14  1  0
 10  9  1  0
 11 10  1  0
 12 16  1  0
 13 14  2  0
 13 12  1  0
 14 15  1  0
 15 16  2  0
 17 18  1  0
 17  3  1  0
 19 21  1  0
 19 18  1  0
 19 20  1  0
 21 20  1  0
 21 22  1  0
 23 22  1  0
 23 24  1  0
  1 25  1  0
  2 26  1  0
  8 27  1  0
  9 28  1  0
 12 29  1  0
 15 30  1  0
 16 31  1  0
 17 32  1  0
 17 33  1  0
 18 34  1  0
 18 35  1  0
 19 36  1  6
 20 37  1  0
 20 38  1  0
 21 39  1  6
 23 40  1  0
 23 41  1  0
 24 42  1  0
 24 43  1  0
M  ISO  8  25  14  26  14  27  14  28  14  29   9  30  14  31  14  32   8
M  ISO  8  33   8  34   8  35   8  36  13  37  13  38  13  39  13  40   8
M  ISO  3  41   8  42   5  43   5
M  END
>  <minimizedAffinity>  (1) 
-5.93799257

>  <minimizedRMSD>  (1) 
0.118461691

$$$$
