
     RDKit          3D

 42 45  0  0  1  0  0  0  0  0999 V2000
   44.4470   36.0460   44.4540 C   0  0  0  0  0  0  0  0  0  0  0  0
   45.1100   35.8950   43.2310 C   0  0  0  0  0  0  0  0  0  0  0  0
   46.0260   34.8830   43.1240 C   0  0  0  0  0  0  0  0  0  0  0  0
   46.2350   34.1040   44.1810 N   0  0  0  0  0  0  0  0  0  0  0  0
   45.5930   34.2560   45.3550 C   0  0  0  0  0  0  0  0  0  0  0  0
   44.6950   35.2250   45.5070 N   0  0  0  0  0  0  0  0  0  0  0  0
   45.9100   33.3350   46.4390 C   0  0  0  0  0  0  0  0  0  0  0  0
   45.0250   33.1760   47.4860 C   0  0  0  0  0  0  0  0  0  0  0  0
   45.5470   32.2530   48.3780 C   0  0  0  0  0  0  0  0  0  0  0  0
   46.7180   31.8870   47.8460 N   0  0  0  0  0  0  0  0  0  0  0  0
   46.9360   32.5260   46.6970 N   0  0  0  0  0  0  0  0  0  0  0  0
   48.9200   29.1570   48.6390 N   0  0  0  0  0  0  0  0  0  0  0  0
   47.8310   29.6210   48.0270 N   0  0  0  0  0  0  0  0  0  0  0  0
   47.7270   30.9630   48.2920 C   0  0  0  0  0  0  0  0  0  0  0  0
   48.7730   31.3090   49.0750 C   0  0  0  0  0  0  0  0  0  0  0  0
   49.4970   30.1710   49.2750 C   0  0  0  0  0  0  0  0  0  0  0  0
   46.7870   34.6600   41.8670 C   0  0  0  0  0  0  0  0  0  0  0  0
   48.2380   35.0060   42.1620 C   0  0  0  0  0  0  0  0  0  0  0  0
   49.2100   34.0770   41.6020 C   0  0  1  0  0  0  0  0  0  0  0  0
   50.4430   33.7420   42.4070 C   0  0  0  0  0  0  0  0  0  0  0  0
   49.4560   32.6970   42.0950 C   0  0  1  0  0  0  0  0  0  0  0  0
   48.8820   32.1150   43.1810 O   0  0  0  0  0  0  0  0  0  0  0  0
   47.8990   31.2110   42.8440 C   0  0  0  0  0  0  0  0  0  0  0  0
   46.9210   31.2010   43.8360 O   0  0  0  0  0  0  0  0  0  0  0  0
   43.7055   36.8508   44.5654 H   0  0  0  0  0  0  0  0  0  0  0  0
   44.9024   36.5663   42.3847 H   0  0  0  0  0  0  0  0  0  0  0  0
   44.0623   33.6970   47.5947 H   0  0  0  0  0  0  0  0  0  0  0  0
   45.0970   31.8991   49.3173 H   0  0  0  0  0  0  0  0  0  0  0  0
   49.2555   28.1833   48.6220 H   0  0  0  0  0  0  0  0  0  0  0  0
   48.9960   32.3103   49.4722 H   0  0  0  0  0  0  0  0  0  0  0  0
   50.4184   30.1028   49.8719 H   0  0  0  0  0  0  0  0  0  0  0  0
   46.3979   35.3094   41.0690 H   0  0  0  0  0  0  0  0  0  0  0  0
   46.6917   33.6177   41.5286 H   0  0  0  0  0  0  0  0  0  0  0  0
   48.4426   36.0055   41.7507 H   0  0  0  0  0  0  0  0  0  0  0  0
   48.3538   34.9564   43.2548 H   0  0  0  0  0  0  0  0  0  0  0  0
   48.9604   34.4837   40.6109 H   0  0  0  0  0  0  0  0  0  0  0  0
   51.4304   33.7292   41.9223 H   0  0  0  0  0  0  0  0  0  0  0  0
   50.9013   34.1307   43.3283 H   0  0  0  0  0  0  0  0  0  0  0  0
   49.3902   31.7393   41.5578 H   0  0  0  0  0  0  0  0  0  0  0  0
   47.4460   31.5018   41.8847 H   0  0  0  0  0  0  0  0  0  0  0  0
   48.3388   30.2070   42.7509 H   0  0  0  0  0  0  0  0  0  0  0  0
   47.3540   31.2054   44.7263 H   0  0  0  0  0  0  0  0  0  0  0  0
  1  6  2  0
  2  1  1  0
  3  2  2  0
  3  4  1  0
  4  5  2  0
  5  6  1  0
  5  7  1  0
  7 11  2  0
  7  8  1  0
  8  9  2  0
 10 14  1  0
 10  9  1  0
 11 10  1  0
 12 16  1  0
 13 14  2  0
 13 12  1  0
 14 15  1  0
 15 16  2  0
 17 18  1  0
 17  3  1  0
 19 21  1  0
 19 18  1  0
 19 20  1  0
 21 20  1  0
 21 22  1  0
 23 22  1  0
 23 24  1  0
  1 25  1  0
  2 26  1  0
  8 27  1  0
  9 28  1  0
 12 29  1  0
 15 30  1  0
 16 31  1  0
 17 32  1  0
 17 33  1  0
 18 34  1  0
 18 35  1  0
 19 36  1  6
 20 37  1  0
 20 38  1  0
 21 39  1  6
 23 40  1  0
 23 41  1  0
 24 42  1  0
M  ISO  8  25  14  26  14  27  14  28  14  29   9  30  14  31  14  32   8
M  ISO  8  33   8  34   8  35   8  36  13  37  13  38  13  39  13  40   8
M  ISO  2  41   8  42   3
M  END
>  <minimizedAffinity>  (1) 
-5.90078306

>  <minimizedRMSD>  (1) 
0.222813293

$$$$
