
     RDKit          3D

 53 57  0  0  1  0  0  0  0  0999 V2000
   44.4260   36.0680   44.4920 C   0  0  0  0  0  0  0  0  0  0  0  0
   45.0490   35.8880   43.2570 C   0  0  0  0  0  0  0  0  0  0  0  0
   45.9330   34.8510   43.1310 C   0  0  0  0  0  0  0  0  0  0  0  0
   46.1520   34.0740   44.1900 N   0  0  0  0  0  0  0  0  0  0  0  0
   45.5490   34.2530   45.3780 C   0  0  0  0  0  0  0  0  0  0  0  0
   44.6810   35.2440   45.5510 N   0  0  0  0  0  0  0  0  0  0  0  0
   45.8790   33.3380   46.4610 C   0  0  0  0  0  0  0  0  0  0  0  0
   45.0030   33.1770   47.5150 C   0  0  0  0  0  0  0  0  0  0  0  0
   45.5390   32.2630   48.4100 C   0  0  0  0  0  0  0  0  0  0  0  0
   46.7170   31.9020   47.8730 N   0  0  0  0  0  0  0  0  0  0  0  0
   46.9240   32.5350   46.7180 N   0  0  0  0  0  0  0  0  0  0  0  0
   48.9630   29.2220   48.6780 N   0  0  0  0  0  0  0  0  0  0  0  0
   47.8550   29.6590   48.0630 N   0  0  0  0  0  0  0  0  0  0  0  0
   47.7370   30.9940   48.3160 C   0  0  0  0  0  0  0  0  0  0  0  0
   48.7890   31.3720   49.0970 C   0  0  0  0  0  0  0  0  0  0  0  0
   49.5350   30.2470   49.3050 C   0  0  0  0  0  0  0  0  0  0  0  0
   46.6540   34.5990   41.8560 C   0  0  0  0  0  0  0  0  0  0  0  0
   47.9960   35.2890   41.9550 C   0  0  0  0  0  0  0  0  0  0  0  0
   49.1270   34.4790   41.5200 C   0  0  1  0  0  0  0  0  0  0  0  0
   50.3040   34.3330   42.4580 C   0  0  0  0  0  0  0  0  0  0  0  0
   49.4990   33.1590   42.0930 C   0  0  1  0  0  0  0  0  0  0  0  0
   48.8920   32.5290   43.1360 O   0  0  0  0  0  0  0  0  0  0  0  0
   48.2340   31.3840   42.7490 C   0  0  0  0  0  0  0  0  0  0  0  0
   47.6610   30.6610   43.8730 N   0  0  0  0  0  0  0  0  0  0  0  0
   46.8230   29.6270   43.2880 C   0  0  0  0  0  0  0  0  0  0  0  0
   47.8400   28.6680   42.7300 C   0  0  0  0  0  0  0  0  0  0  0  0
   49.0710   28.7890   43.5920 C   0  0  0  0  0  0  0  0  0  0  0  0
   48.6670   29.8630   44.5600 C   0  0  0  0  0  0  0  0  0  0  0  0
   43.7111   36.8947   44.6162 H   0  0  0  0  0  0  0  0  0  0  0  0
   44.8364   36.5584   42.4112 H   0  0  0  0  0  0  0  0  0  0  0  0
   44.0365   33.6902   47.6272 H   0  0  0  0  0  0  0  0  0  0  0  0
   45.0965   31.9105   49.3534 H   0  0  0  0  0  0  0  0  0  0  0  0
   49.3135   28.2535   48.6671 H   0  0  0  0  0  0  0  0  0  0  0  0
   48.9955   32.3813   49.4825 H   0  0  0  0  0  0  0  0  0  0  0  0
   50.4610   30.1963   49.8965 H   0  0  0  0  0  0  0  0  0  0  0  0
   46.0808   35.0097   41.0118 H   0  0  0  0  0  0  0  0  0  0  0  0
   46.7823   33.5196   41.6877 H   0  0  0  0  0  0  0  0  0  0  0  0
   47.9629   36.1951   41.3322 H   0  0  0  0  0  0  0  0  0  0  0  0
   48.1583   35.5048   43.0213 H   0  0  0  0  0  0  0  0  0  0  0  0
   48.9279   34.8170   40.4923 H   0  0  0  0  0  0  0  0  0  0  0  0
   51.3298   34.4380   42.0748 H   0  0  0  0  0  0  0  0  0  0  0  0
   50.6099   34.8045   43.4036 H   0  0  0  0  0  0  0  0  0  0  0  0
   49.6169   32.1862   41.5932 H   0  0  0  0  0  0  0  0  0  0  0  0
   47.4240   31.6598   42.0578 H   0  0  0  0  0  0  0  0  0  0  0  0
   48.9703   30.7231   42.2684 H   0  0  0  0  0  0  0  0  0  0  0  0
   46.1959   29.1432   44.0513 H   0  0  0  0  0  0  0  0  0  0  0  0
   46.1158   30.0063   42.5357 H   0  0  0  0  0  0  0  0  0  0  0  0
   47.4512   27.6397   42.7671 H   0  0  0  0  0  0  0  0  0  0  0  0
   48.0688   28.9019   41.6798 H   0  0  0  0  0  0  0  0  0  0  0  0
   49.2903   27.8443   44.1112 H   0  0  0  0  0  0  0  0  0  0  0  0
   49.9871   29.0201   43.0286 H   0  0  0  0  0  0  0  0  0  0  0  0
   49.5343   30.4857   44.8246 H   0  0  0  0  0  0  0  0  0  0  0  0
   48.2753   29.4372   45.4956 H   0  0  0  0  0  0  0  0  0  0  0  0
  1  6  2  0
  2  1  1  0
  3  2  2  0
  3  4  1  0
  4  5  2  0
  5  6  1  0
  5  7  1  0
  7 11  2  0
  7  8  1  0
  8  9  2  0
 10 14  1  0
 10  9  1  0
 11 10  1  0
 12 16  1  0
 13 14  2  0
 13 12  1  0
 14 15  1  0
 15 16  2  0
 17 18  1  0
 17  3  1  0
 19 18  1  0
 19 21  1  0
 19 20  1  0
 21 20  1  0
 21 22  1  0
 23 22  1  0
 23 24  1  0
 24 28  1  0
 25 24  1  0
 26 25  1  0
 26 27  1  0
 27 28  1  0
  1 29  1  0
  2 30  1  0
  8 31  1  0
  9 32  1  0
 12 33  1  0
 15 34  1  0
 16 35  1  0
 17 36  1  0
 17 37  1  0
 18 38  1  0
 18 39  1  0
 19 40  1  6
 20 41  1  0
 20 42  1  0
 21 43  1  6
 23 44  1  0
 23 45  1  0
 25 46  1  0
 25 47  1  0
 26 48  1  0
 26 49  1  0
 27 50  1  0
 27 51  1  0
 28 52  1  0
 28 53  1  0
M  ISO  8  29  14  30  14  31  14  32  14  33   9  34  14  35  14  36   8
M  ISO  8  37   8  38   8  39   8  40  13  41  13  42  13  43  13  44   8
M  ISO  8  45   8  46  13  47  13  48  13  49  13  50  13  51  13  52  13
M  ISO  1  53  13
M  END
>  <minimizedAffinity>  (1) 
-5.9400568

>  <minimizedRMSD>  (1) 
0.384229869

$$$$
