
     RDKit          3D

 42 45  0  0  1  0  0  0  0  0999 V2000
   44.4510   36.0510   44.4580 C   0  0  0  0  0  0  0  0  0  0  0  0
   45.1070   35.8910   43.2280 C   0  0  0  0  0  0  0  0  0  0  0  0
   46.0150   34.8740   43.1180 C   0  0  0  0  0  0  0  0  0  0  0  0
   46.2240   34.0960   44.1770 N   0  0  0  0  0  0  0  0  0  0  0  0
   45.5900   34.2550   45.3560 C   0  0  0  0  0  0  0  0  0  0  0  0
   44.6990   35.2290   45.5110 N   0  0  0  0  0  0  0  0  0  0  0  0
   45.9080   33.3390   46.4390 C   0  0  0  0  0  0  0  0  0  0  0  0
   45.0190   33.1710   47.4810 C   0  0  0  0  0  0  0  0  0  0  0  0
   45.5470   32.2550   48.3790 C   0  0  0  0  0  0  0  0  0  0  0  0
   46.7320   31.8990   47.8550 N   0  0  0  0  0  0  0  0  0  0  0  0
   46.9500   32.5380   46.7070 N   0  0  0  0  0  0  0  0  0  0  0  0
   48.9690   29.2140   48.6760 N   0  0  0  0  0  0  0  0  0  0  0  0
   47.8780   29.6580   48.0530 N   0  0  0  0  0  0  0  0  0  0  0  0
   47.7480   30.9900   48.3080 C   0  0  0  0  0  0  0  0  0  0  0  0
   48.7860   31.3650   49.1060 C   0  0  0  0  0  0  0  0  0  0  0  0
   49.5290   30.2360   49.3180 C   0  0  0  0  0  0  0  0  0  0  0  0
   46.7690   34.6370   41.8570 C   0  0  0  0  0  0  0  0  0  0  0  0
   48.1970   35.0710   42.1050 C   0  0  0  0  0  0  0  0  0  0  0  0
   49.2090   34.1650   41.5750 C   0  0  1  0  0  0  0  0  0  0  0  0
   50.4150   33.8490   42.4290 C   0  0  0  0  0  0  0  0  0  0  0  0
   49.4650   32.7870   42.0660 C   0  0  1  0  0  0  0  0  0  0  0  0
   48.8530   32.1780   43.1180 O   0  0  0  0  0  0  0  0  0  0  0  0
   47.9830   31.1860   42.7150 C   0  0  0  0  0  0  0  0  0  0  0  0
   47.5350   30.0690   44.0710 S   0  0  0  0  0  0  0  0  0  0  0  0
   43.7173   36.8625   44.5726 H   0  0  0  0  0  0  0  0  0  0  0  0
   44.8981   36.5608   42.3808 H   0  0  0  0  0  0  0  0  0  0  0  0
   44.0495   33.6805   47.5829 H   0  0  0  0  0  0  0  0  0  0  0  0
   45.0943   31.8979   49.3158 H   0  0  0  0  0  0  0  0  0  0  0  0
   49.3189   28.2454   48.6628 H   0  0  0  0  0  0  0  0  0  0  0  0
   48.9864   32.3721   49.5004 H   0  0  0  0  0  0  0  0  0  0  0  0
   50.4454   30.1817   49.9240 H   0  0  0  0  0  0  0  0  0  0  0  0
   46.3316   35.2281   41.0389 H   0  0  0  0  0  0  0  0  0  0  0  0
   46.7264   33.5764   41.5685 H   0  0  0  0  0  0  0  0  0  0  0  0
   48.3415   36.0568   41.6389 H   0  0  0  0  0  0  0  0  0  0  0  0
   48.3328   35.0848   43.1965 H   0  0  0  0  0  0  0  0  0  0  0  0
   48.9901   34.5735   40.5774 H   0  0  0  0  0  0  0  0  0  0  0  0
   51.4219   33.8621   41.9864 H   0  0  0  0  0  0  0  0  0  0  0  0
   50.8257   34.2383   43.3723 H   0  0  0  0  0  0  0  0  0  0  0  0
   49.4460   31.8328   41.5191 H   0  0  0  0  0  0  0  0  0  0  0  0
   47.0672   31.6554   42.3264 H   0  0  0  0  0  0  0  0  0  0  0  0
   48.4888   30.5894   41.9415 H   0  0  0  0  0  0  0  0  0  0  0  0
   47.7818   30.6843   45.2699 H   0  0  0  0  0  0  0  0  0  0  0  0
  1  6  2  0
  2  1  1  0
  3  2  2  0
  3  4  1  0
  4  5  2  0
  5  6  1  0
  5  7  1  0
  7 11  2  0
  7  8  1  0
  8  9  2  0
 10 14  1  0
 10  9  1  0
 11 10  1  0
 12 16  1  0
 13 14  2  0
 13 12  1  0
 14 15  1  0
 15 16  2  0
 17 18  1  0
 17  3  1  0
 19 21  1  0
 19 18  1  0
 19 20  1  0
 21 20  1  0
 21 22  1  0
 23 22  1  0
 23 24  1  0
  1 25  1  0
  2 26  1  0
  8 27  1  0
  9 28  1  0
 12 29  1  0
 15 30  1  0
 16 31  1  0
 17 32  1  0
 17 33  1  0
 18 34  1  0
 18 35  1  0
 19 36  1  6
 20 37  1  0
 20 38  1  0
 21 39  1  6
 23 40  1  0
 23 41  1  0
 24 42  1  0
M  ISO  8  25  14  26  14  27  14  28  14  29   9  30  14  31  14  32   8
M  ISO  8  33   8  34   8  35   8  36  13  37  13  38  13  39  13  40   8
M  ISO  2  41   8  42  11
M  END
>  <minimizedAffinity>  (1) 
-5.92591095

>  <minimizedRMSD>  (1) 
0.0914730802

$$$$
