
     RDKit          3D

 37 40  0  0  0  0  0  0  0  0999 V2000
   45.6310   34.0890   42.7680 N   0  0  0  0  0  0  0  0  0  0  0  0
   44.8950   33.8780   41.6650 C   0  0  0  0  0  0  0  0  0  0  0  0
   45.6580   34.0060   40.5610 N   0  0  0  0  0  0  0  0  0  0  0  0
   46.9140   34.3060   40.9520 C   0  0  0  0  0  0  0  0  0  0  0  0
   48.0750   34.5390   40.2180 C   0  0  0  0  0  0  0  0  0  0  0  0
   48.0920   34.4920   38.9730 O   0  0  0  0  0  0  0  0  0  0  0  0
   49.2210   34.8230   40.8470 N   0  0  0  0  0  0  0  0  0  0  0  0
   49.1930   34.8720   42.1910 C   0  0  0  0  0  0  0  0  0  0  0  0
   50.3410   35.1630   42.9740 N   0  0  0  0  0  0  0  0  0  0  0  0
   48.0780   34.6490   42.8990 N   0  0  0  0  0  0  0  0  0  0  0  0
   46.8900   34.3570   42.3360 C   0  0  0  0  0  0  0  0  0  0  0  0
   44.4610   35.2480   46.0560 C   0  0  0  0  0  0  0  0  0  0  0  0
   44.7190   35.2180   44.6670 C   0  0  0  0  0  0  0  0  0  0  0  0
   45.3870   34.0910   44.1540 C   0  0  0  0  0  0  0  0  0  0  0  0
   45.7400   33.1070   45.0290 N   0  0  0  0  0  0  0  0  0  0  0  0
   45.4720   33.1830   46.3380 C   0  0  0  0  0  0  0  0  0  0  0  0
   44.8340   34.2450   46.8650 N   0  0  0  0  0  0  0  0  0  0  0  0
   45.9400   32.0080   47.1130 C   0  0  0  0  0  0  0  0  0  0  0  0
   44.8750   31.5400   48.1000 C   0  0  0  0  0  0  0  0  0  0  0  0
   45.5380   31.4770   49.4530 C   0  0  0  0  0  0  0  0  0  0  0  0
   47.0000   31.2370   49.0640 C   0  0  0  0  0  0  0  0  0  0  0  0
   47.1480   32.2680   47.9540 C   0  0  0  0  0  0  0  0  0  0  0  0
   43.8221   33.6352   41.6625 H   0  0  0  0  0  0  0  0  0  0  0  0
   50.0904   34.9973   40.3229 H   0  0  0  0  0  0  0  0  0  0  0  0
   50.2706   35.1894   44.0013 H   0  0  0  0  0  0  0  0  0  0  0  0
   51.2443   35.3477   42.5148 H   0  0  0  0  0  0  0  0  0  0  0  0
   43.9405   36.1168   46.4853 H   0  0  0  0  0  0  0  0  0  0  0  0
   44.4091   36.0450   44.0112 H   0  0  0  0  0  0  0  0  0  0  0  0
   46.1719   31.2635   46.3371 H   0  0  0  0  0  0  0  0  0  0  0  0
   44.0375   32.2529   48.1207 H   0  0  0  0  0  0  0  0  0  0  0  0
   44.4705   30.5588   47.8108 H   0  0  0  0  0  0  0  0  0  0  0  0
   45.4183   32.4216   50.0038 H   0  0  0  0  0  0  0  0  0  0  0  0
   45.1199   30.7111   50.1228 H   0  0  0  0  0  0  0  0  0  0  0  0
   47.6840   31.4375   49.9018 H   0  0  0  0  0  0  0  0  0  0  0  0
   47.2394   30.2036   48.7728 H   0  0  0  0  0  0  0  0  0  0  0  0
   48.0736   32.1070   47.3819 H   0  0  0  0  0  0  0  0  0  0  0  0
   47.2143   33.3029   48.3208 H   0  0  0  0  0  0  0  0  0  0  0  0
  1 14  1  0
  2  1  1  0
  3  4  1  0
  3  2  2  0
  4 11  2  0
  5  7  1  0
  5  4  1  0
  6  5  2  0
  7  8  1  0
  8 10  2  0
  8  9  1  0
 11  1  1  0
 11 10  1  0
 12 17  2  0
 13 12  1  0
 14 13  2  0
 14 15  1  0
 15 16  2  0
 16 17  1  0
 16 18  1  0
 18 22  1  0
 18 19  1  0
 19 20  1  0
 21 20  1  0
 22 21  1  0
  2 23  1  0
  7 24  1  0
  9 25  1  0
  9 26  1  0
 12 27  1  0
 13 28  1  0
 18 29  1  0
 19 30  1  0
 19 31  1  0
 20 32  1  0
 20 33  1  0
 21 34  1  0
 21 35  1  0
 22 36  1  0
 22 37  1  0
M  ISO  8  23  14  24   9  27  14  28  14  29  13  30  13  31  13  32  13
M  ISO  5  33  13  34  13  35  13  36  13  37  13
M  END
>  <minimizedAffinity>  (1) 
-7.28413105

>  <minimizedRMSD>  (1) 
1.09826934

$$$$
