
     RDKit          3D

 30 33  0  0  0  0  0  0  0  0999 V2000
   45.5730   33.8360   42.1420 N   0  0  0  0  0  0  0  0  0  0  0  0
   44.9600   33.0640   41.2230 C   0  0  0  0  0  0  0  0  0  0  0  0
   45.6580   33.0690   40.0680 N   0  0  0  0  0  0  0  0  0  0  0  0
   46.7440   33.8610   40.2410 C   0  0  0  0  0  0  0  0  0  0  0  0
   47.7730   34.2020   39.3740 C   0  0  0  0  0  0  0  0  0  0  0  0
   47.8300   33.7750   38.2020 O   0  0  0  0  0  0  0  0  0  0  0  0
   48.7610   35.0260   39.7930 N   0  0  0  0  0  0  0  0  0  0  0  0
   48.6800   35.4710   41.0510 C   0  0  0  0  0  0  0  0  0  0  0  0
   49.6540   36.3370   41.6050 N   0  0  0  0  0  0  0  0  0  0  0  0
   47.6940   35.1480   41.8890 N   0  0  0  0  0  0  0  0  0  0  0  0
   46.6730   34.3270   41.5320 C   0  0  0  0  0  0  0  0  0  0  0  0
   44.3300   35.7750   45.0060 C   0  0  0  0  0  0  0  0  0  0  0  0
   44.6100   35.3900   43.6790 C   0  0  0  0  0  0  0  0  0  0  0  0
   45.3090   34.1950   43.4840 C   0  0  0  0  0  0  0  0  0  0  0  0
   45.6810   33.4690   44.5660 N   0  0  0  0  0  0  0  0  0  0  0  0
   45.3980   33.8650   45.8280 C   0  0  0  0  0  0  0  0  0  0  0  0
   44.7280   35.0090   46.0480 N   0  0  0  0  0  0  0  0  0  0  0  0
   45.8180   33.0560   46.9230 N   0  0  0  0  0  0  0  0  0  0  0  0
   47.0160   32.5060   47.1950 C   0  0  0  0  0  0  0  0  0  0  0  0
   46.9760   31.8120   48.3420 N   0  0  0  0  0  0  0  0  0  0  0  0
   45.7030   31.9350   48.8020 C   0  0  0  0  0  0  0  0  0  0  0  0
   45.0280   32.6940   47.9210 N   0  0  0  0  0  0  0  0  0  0  0  0
   44.0249   32.5094   41.3903 H   0  0  0  0  0  0  0  0  0  0  0  0
   49.5375   35.2972   39.1730 H   0  0  0  0  0  0  0  0  0  0  0  0
   49.5610   36.6612   42.5782 H   0  0  0  0  0  0  0  0  0  0  0  0
   50.4554   36.6427   41.0347 H   0  0  0  0  0  0  0  0  0  0  0  0
   43.7815   36.7092   45.1966 H   0  0  0  0  0  0  0  0  0  0  0  0
   44.2898   36.0080   42.8272 H   0  0  0  0  0  0  0  0  0  0  0  0
   47.9088   32.6116   46.5611 H   0  0  0  0  0  0  0  0  0  0  0  0
   45.2991   31.4945   49.7255 H   0  0  0  0  0  0  0  0  0  0  0  0
  1 14  1  0
  2  1  1  0
  3  4  1  0
  3  2  2  0
  4 11  2  0
  5  7  1  0
  5  4  1  0
  6  5  2  0
  7  8  1  0
  8  9  1  0
  8 10  2  0
 11 10  1  0
 11  1  1  0
 12 17  2  0
 13 12  1  0
 14 13  2  0
 14 15  1  0
 15 16  2  0
 16 17  1  0
 16 18  1  0
 18 19  1  0
 18 22  1  0
 19 20  2  0
 20 21  1  0
 22 21  2  0
  2 23  1  0
  7 24  1  0
  9 25  1  0
  9 26  1  0
 12 27  1  0
 13 28  1  0
 19 29  1  0
 21 30  1  0
M  ISO  6  23  14  24   9  27  14  28  14  29  14  30  14
M  END
>  <minimizedAffinity>  (1) 
-6.83818722

>  <minimizedRMSD>  (1) 
0.125582829

$$$$
