
     RDKit          3D

 34 37  0  0  0  0  0  0  0  0999 V2000
   44.4350   35.5860   45.2310 C   0  0  0  0  0  0  0  0  0  0  0  0
   44.7050   35.2740   43.8770 C   0  0  0  0  0  0  0  0  0  0  0  0
   45.3970   34.0740   43.6290 C   0  0  0  0  0  0  0  0  0  0  0  0
   45.7590   33.2970   44.6940 N   0  0  0  0  0  0  0  0  0  0  0  0
   45.4730   33.6480   45.9580 C   0  0  0  0  0  0  0  0  0  0  0  0
   44.8190   34.7740   46.2500 N   0  0  0  0  0  0  0  0  0  0  0  0
   45.6630   33.7710   42.2810 N   0  0  0  0  0  0  0  0  0  0  0  0
   45.0950   33.0210   41.3370 C   0  0  0  0  0  0  0  0  0  0  0  0
   45.7940   33.0960   40.1820 N   0  0  0  0  0  0  0  0  0  0  0  0
   46.8420   33.9180   40.3870 C   0  0  0  0  0  0  0  0  0  0  0  0
   47.8610   34.3320   39.5310 C   0  0  0  0  0  0  0  0  0  0  0  0
   47.9460   33.9610   38.3490 O   0  0  0  0  0  0  0  0  0  0  0  0
   48.8100   35.1720   39.9760 N   0  0  0  0  0  0  0  0  0  0  0  0
   48.7160   35.5710   41.2510 C   0  0  0  0  0  0  0  0  0  0  0  0
   49.6540   36.4630   41.8370 N   0  0  0  0  0  0  0  0  0  0  0  0
   47.7470   35.1810   42.0740 N   0  0  0  0  0  0  0  0  0  0  0  0
   46.7550   34.3350   41.6950 C   0  0  0  0  0  0  0  0  0  0  0  0
   45.8860   32.7740   47.0520 C   0  0  0  0  0  0  0  0  0  0  0  0
   47.1970   32.3440   47.1540 C   0  0  0  0  0  0  0  0  0  0  0  0
   47.5000   31.5250   48.2130 C   0  0  0  0  0  0  0  0  0  0  0  0
   46.6010   31.1070   49.1680 C   0  0  0  0  0  0  0  0  0  0  0  0
   45.2900   31.5270   49.0800 C   0  0  0  0  0  0  0  0  0  0  0  0
   44.9750   32.3520   48.0190 C   0  0  0  0  0  0  0  0  0  0  0  0
   43.8968   36.5162   45.4657 H   0  0  0  0  0  0  0  0  0  0  0  0
   44.3892   35.9374   43.0583 H   0  0  0  0  0  0  0  0  0  0  0  0
   44.1826   32.4230   41.4781 H   0  0  0  0  0  0  0  0  0  0  0  0
   49.5742   35.4942   39.3652 H   0  0  0  0  0  0  0  0  0  0  0  0
   49.5487   36.7474   42.8213 H   0  0  0  0  0  0  0  0  0  0  0  0
   50.4392   36.8252   41.2775 H   0  0  0  0  0  0  0  0  0  0  0  0
   47.9604   32.6442   46.4211 H   0  0  0  0  0  0  0  0  0  0  0  0
   48.5392   31.1765   48.3055 H   0  0  0  0  0  0  0  0  0  0  0  0
   46.9229   30.4485   49.9882 H   0  0  0  0  0  0  0  0  0  0  0  0
   44.5340   31.2201   49.8178 H   0  0  0  0  0  0  0  0  0  0  0  0
   43.9352   32.6998   47.9307 H   0  0  0  0  0  0  0  0  0  0  0  0
  1  6  2  0
  2  1  1  0
  3  2  2  0
  3  4  1  0
  4  5  2  0
  5  6  1  0
  5 18  1  0
  7  3  1  0
  8  7  1  0
  9 10  1  0
  9  8  2  0
 10 17  2  0
 11 13  1  0
 11 10  1  0
 12 11  2  0
 13 14  1  0
 14 15  1  0
 14 16  2  0
 17 16  1  0
 17  7  1  0
 18 19  2  0
 18 23  1  0
 19 20  1  0
 20 21  2  0
 22 21  1  0
 23 22  2  0
  1 24  1  0
  2 25  1  0
  8 26  1  0
 13 27  1  0
 15 28  1  0
 15 29  1  0
 19 30  1  0
 20 31  1  0
 21 32  1  0
 22 33  1  0
 23 34  1  0
M  ISO  8  24  14  25  14  26  14  27   9  30  14  31  14  32  14  33  14
M  ISO  1  34  14
M  END
>  <minimizedAffinity>  (1) 
-7.14671135

>  <minimizedRMSD>  (1) 
0.72351265

$$$$
