
     RDKit          3D

 31 34  0  0  0  0  0  0  0  0999 V2000
   45.5260   33.9090   42.1030 N   0  0  0  0  0  0  0  0  0  0  0  0
   44.9200   33.1280   41.1920 C   0  0  0  0  0  0  0  0  0  0  0  0
   45.6410   33.1010   40.0500 N   0  0  0  0  0  0  0  0  0  0  0  0
   46.7370   33.8800   40.2240 C   0  0  0  0  0  0  0  0  0  0  0  0
   47.7840   34.1840   39.3660 C   0  0  0  0  0  0  0  0  0  0  0  0
   47.8550   33.7330   38.2120 O   0  0  0  0  0  0  0  0  0  0  0  0
   48.7740   35.0010   39.7900 N   0  0  0  0  0  0  0  0  0  0  0  0
   48.6800   35.4780   41.0410 C   0  0  0  0  0  0  0  0  0  0  0  0
   49.6570   36.3420   41.5900 N   0  0  0  0  0  0  0  0  0  0  0  0
   47.6770   35.1880   41.8640 N   0  0  0  0  0  0  0  0  0  0  0  0
   46.6490   34.3740   41.5090 C   0  0  0  0  0  0  0  0  0  0  0  0
   44.3170   35.9340   44.9320 C   0  0  0  0  0  0  0  0  0  0  0  0
   44.6060   35.5220   43.6180 C   0  0  0  0  0  0  0  0  0  0  0  0
   45.2460   34.3030   43.4380 C   0  0  0  0  0  0  0  0  0  0  0  0
   45.5620   33.5700   44.5470 N   0  0  0  0  0  0  0  0  0  0  0  0
   45.2710   33.9970   45.7800 C   0  0  0  0  0  0  0  0  0  0  0  0
   44.6540   35.1660   45.9810 N   0  0  0  0  0  0  0  0  0  0  0  0
   45.6600   33.1220   46.8790 C   0  0  0  0  0  0  0  0  0  0  0  0
   46.9500   32.5790   46.8780 C   0  0  0  0  0  0  0  0  0  0  0  0
   47.0850   31.7940   48.0040 C   0  0  0  0  0  0  0  0  0  0  0  0
   45.8630   31.8970   48.6410 C   0  0  0  0  0  0  0  0  0  0  0  0
   45.0440   32.6880   47.9520 O   0  0  0  0  0  0  0  0  0  0  0  0
   43.9746   32.5893   41.3531 H   0  0  0  0  0  0  0  0  0  0  0  0
   49.5662   35.2468   39.1794 H   0  0  0  0  0  0  0  0  0  0  0  0
   49.5537   36.6897   42.5540 H   0  0  0  0  0  0  0  0  0  0  0  0
   50.4714   36.6232   41.0256 H   0  0  0  0  0  0  0  0  0  0  0  0
   43.8097   36.8952   45.1019 H   0  0  0  0  0  0  0  0  0  0  0  0
   44.3323   36.1488   42.7565 H   0  0  0  0  0  0  0  0  0  0  0  0
   47.7216   32.7487   46.1126 H   0  0  0  0  0  0  0  0  0  0  0  0
   47.9656   31.2169   48.3227 H   0  0  0  0  0  0  0  0  0  0  0  0
   45.6036   31.3956   49.5851 H   0  0  0  0  0  0  0  0  0  0  0  0
  1 14  1  0
  2  1  1  0
  3  4  1  0
  3  2  2  0
  4 11  2  0
  5  7  1  0
  5  4  1  0
  6  5  2  0
  7  8  1  0
  8  9  1  0
  8 10  2  0
 11 10  1  0
 11  1  1  0
 12 17  2  0
 13 12  1  0
 14 13  2  0
 14 15  1  0
 15 16  2  0
 16 17  1  0
 16 18  1  0
 18 22  1  0
 19 18  2  0
 19 20  1  0
 20 21  2  0
 22 21  1  0
  2 23  1  0
  7 24  1  0
  9 25  1  0
  9 26  1  0
 12 27  1  0
 13 28  1  0
 19 29  1  0
 20 30  1  0
 21 31  1  0
M  ISO  7  23  14  24   9  27  14  28  14  29  14  30  14  31  14
M  END
>  <minimizedAffinity>  (1) 
-6.58594704

>  <minimizedRMSD>  (1) 
0.148470327

$$$$
