
     RDKit          3D

 31 34  0  0  0  0  0  0  0  0999 V2000
   45.5130   33.9040   42.0920 N   0  0  0  0  0  0  0  0  0  0  0  0
   44.9120   33.1380   41.1790 C   0  0  0  0  0  0  0  0  0  0  0  0
   45.6360   33.1190   40.0330 N   0  0  0  0  0  0  0  0  0  0  0  0
   46.7320   33.8920   40.2140 C   0  0  0  0  0  0  0  0  0  0  0  0
   47.7820   34.2030   39.3620 C   0  0  0  0  0  0  0  0  0  0  0  0
   47.8520   33.7590   38.1950 O   0  0  0  0  0  0  0  0  0  0  0  0
   48.7760   35.0150   39.7900 N   0  0  0  0  0  0  0  0  0  0  0  0
   48.6820   35.4780   41.0380 C   0  0  0  0  0  0  0  0  0  0  0  0
   49.6620   36.3320   41.6000 N   0  0  0  0  0  0  0  0  0  0  0  0
   47.6690   35.1760   41.8560 N   0  0  0  0  0  0  0  0  0  0  0  0
   46.6430   34.3770   41.5050 C   0  0  0  0  0  0  0  0  0  0  0  0
   44.3180   35.9420   44.9240 C   0  0  0  0  0  0  0  0  0  0  0  0
   44.6010   35.5280   43.5910 C   0  0  0  0  0  0  0  0  0  0  0  0
   45.2430   34.2900   43.4190 C   0  0  0  0  0  0  0  0  0  0  0  0
   45.5550   33.5640   44.5350 N   0  0  0  0  0  0  0  0  0  0  0  0
   45.2650   34.0020   45.7640 C   0  0  0  0  0  0  0  0  0  0  0  0
   44.6570   35.1680   45.9840 N   0  0  0  0  0  0  0  0  0  0  0  0
   45.6950   33.0590   46.7500 N   0  0  0  0  0  0  0  0  0  0  0  0
   45.2950   32.5370   47.9240 C   0  0  0  0  0  0  0  0  0  0  0  0
   46.2690   31.6210   48.3310 C   0  0  0  0  0  0  0  0  0  0  0  0
   47.2410   31.6090   47.3910 N   0  0  0  0  0  0  0  0  0  0  0  0
   46.8890   32.4850   46.4310 C   0  0  0  0  0  0  0  0  0  0  0  0
   43.9654   32.5996   41.3341 H   0  0  0  0  0  0  0  0  0  0  0  0
   49.5684   35.2642   39.1809 H   0  0  0  0  0  0  0  0  0  0  0  0
   49.5568   36.6703   42.5671 H   0  0  0  0  0  0  0  0  0  0  0  0
   50.4800   36.6148   41.0416 H   0  0  0  0  0  0  0  0  0  0  0  0
   43.8161   36.9056   45.0962 H   0  0  0  0  0  0  0  0  0  0  0  0
   44.3273   36.1537   42.7287 H   0  0  0  0  0  0  0  0  0  0  0  0
   44.3700   32.7859   48.4648 H   0  0  0  0  0  0  0  0  0  0  0  0
   46.2486   31.0181   49.2508 H   0  0  0  0  0  0  0  0  0  0  0  0
   47.4759   32.7040   45.5268 H   0  0  0  0  0  0  0  0  0  0  0  0
  1 14  1  0
  2  1  1  0
  3  4  1  0
  3  2  2  0
  4 11  2  0
  5  7  1  0
  5  4  1  0
  6  5  2  0
  7  8  1  0
  8  9  1  0
  8 10  2  0
 11 10  1  0
 11  1  1  0
 12 17  2  0
 13 12  1  0
 14 13  2  0
 14 15  1  0
 15 16  2  0
 16 17  1  0
 16 18  1  0
 18 19  1  0
 19 20  2  0
 21 20  1  0
 22 18  1  0
 22 21  2  0
  2 23  1  0
  7 24  1  0
  9 25  1  0
  9 26  1  0
 12 27  1  0
 13 28  1  0
 19 29  1  0
 20 30  1  0
 22 31  1  0
M  ISO  7  23  14  24   9  27  14  28  14  29  14  30  14  31  14
M  END
>  <minimizedAffinity>  (1) 
-6.73945332

>  <minimizedRMSD>  (1) 
0.121841252

$$$$
