
     RDKit          3D

 25 27  0  0  0  0  0  0  0  0999 V2000
   45.5020   33.9520   42.1300 N   0  0  0  0  0  0  0  0  0  0  0  0
   44.8910   33.1640   41.2210 C   0  0  0  0  0  0  0  0  0  0  0  0
   45.6180   33.1180   40.0840 N   0  0  0  0  0  0  0  0  0  0  0  0
   46.7160   33.8860   40.2590 C   0  0  0  0  0  0  0  0  0  0  0  0
   47.7750   34.1730   39.4010 C   0  0  0  0  0  0  0  0  0  0  0  0
   47.8340   33.6960   38.2440 O   0  0  0  0  0  0  0  0  0  0  0  0
   48.7700   34.9830   39.8120 N   0  0  0  0  0  0  0  0  0  0  0  0
   48.6700   35.4690   41.0520 C   0  0  0  0  0  0  0  0  0  0  0  0
   49.6540   36.3360   41.5980 N   0  0  0  0  0  0  0  0  0  0  0  0
   47.6540   35.1940   41.8720 N   0  0  0  0  0  0  0  0  0  0  0  0
   46.6240   34.3920   41.5300 C   0  0  0  0  0  0  0  0  0  0  0  0
   44.2970   35.9760   44.9460 C   0  0  0  0  0  0  0  0  0  0  0  0
   44.5720   35.5770   43.6150 C   0  0  0  0  0  0  0  0  0  0  0  0
   45.2220   34.3630   43.4570 C   0  0  0  0  0  0  0  0  0  0  0  0
   45.5570   33.6270   44.5700 N   0  0  0  0  0  0  0  0  0  0  0  0
   45.2680   34.0600   45.8090 C   0  0  0  0  0  0  0  0  0  0  0  0
   44.6400   35.2320   46.0070 N   0  0  0  0  0  0  0  0  0  0  0  0
   45.6390   33.2610   46.8780 O   0  0  0  0  0  0  0  0  0  0  0  0
   43.9396   32.6361   41.3826 H   0  0  0  0  0  0  0  0  0  0  0  0
   49.5665   35.2154   39.2016 H   0  0  0  0  0  0  0  0  0  0  0  0
   49.5489   36.6946   42.5578 H   0  0  0  0  0  0  0  0  0  0  0  0
   50.4725   36.6060   41.0341 H   0  0  0  0  0  0  0  0  0  0  0  0
   43.7822   36.9332   45.1155 H   0  0  0  0  0  0  0  0  0  0  0  0
   44.2851   36.1973   42.7530 H   0  0  0  0  0  0  0  0  0  0  0  0
   45.4413   33.5500   47.8040 H   0  0  0  0  0  0  0  0  0  0  0  0
  1 14  1  0
  2  1  1  0
  3  4  1  0
  3  2  2  0
  4 11  2  0
  5  7  1  0
  5  4  1  0
  6  5  2  0
  7  8  1  0
  8  9  1  0
  8 10  2  0
 11 10  1  0
 11  1  1  0
 12 17  2  0
 13 12  1  0
 14 13  2  0
 14 15  1  0
 15 16  2  0
 16 17  1  0
 16 18  1  0
  2 19  1  0
  7 20  1  0
  9 21  1  0
  9 22  1  0
 12 23  1  0
 13 24  1  0
 18 25  1  0
M  ISO  5  19  14  20   9  23  14  24  14  25   3
M  END
>  <minimizedAffinity>  (1) 
-5.67326641

>  <minimizedRMSD>  (1) 
0.126789078

$$$$
