
     RDKit          3D

 27 29  0  0  0  0  0  0  0  0999 V2000
   45.4960   33.9550   42.0860 N   0  0  0  0  0  0  0  0  0  0  0  0
   44.8840   33.2120   41.1540 C   0  0  0  0  0  0  0  0  0  0  0  0
   45.6070   33.1910   40.0120 N   0  0  0  0  0  0  0  0  0  0  0  0
   46.7070   33.9330   40.2070 C   0  0  0  0  0  0  0  0  0  0  0  0
   47.7650   34.2310   39.3530 C   0  0  0  0  0  0  0  0  0  0  0  0
   47.8390   33.8080   38.1900 O   0  0  0  0  0  0  0  0  0  0  0  0
   48.7780   35.0180   39.7870 N   0  0  0  0  0  0  0  0  0  0  0  0
   48.6890   35.4690   41.0440 C   0  0  0  0  0  0  0  0  0  0  0  0
   49.6760   36.3100   41.6180 N   0  0  0  0  0  0  0  0  0  0  0  0
   47.6770   35.1870   41.8690 N   0  0  0  0  0  0  0  0  0  0  0  0
   46.6390   34.4100   41.5000 C   0  0  0  0  0  0  0  0  0  0  0  0
   44.3370   35.9480   44.9440 C   0  0  0  0  0  0  0  0  0  0  0  0
   44.6160   35.5530   43.6130 C   0  0  0  0  0  0  0  0  0  0  0  0
   45.2280   34.3250   43.4150 C   0  0  0  0  0  0  0  0  0  0  0  0
   45.5290   33.5620   44.5180 N   0  0  0  0  0  0  0  0  0  0  0  0
   45.2430   33.9810   45.7620 C   0  0  0  0  0  0  0  0  0  0  0  0
   44.6570   35.1520   45.9930 N   0  0  0  0  0  0  0  0  0  0  0  0
   45.5800   33.1420   46.8920 C   0  0  0  0  0  0  0  0  0  0  0  0
   46.7530   32.6960   47.0790 O   0  0  0  0  0  0  0  0  0  0  0  0
   44.6960   32.7350   47.8740 O   0  0  0  0  0  0  0  0  0  0  0  0
   43.9259   32.6912   41.2982 H   0  0  0  0  0  0  0  0  0  0  0  0
   49.5758   35.2572   39.1810 H   0  0  0  0  0  0  0  0  0  0  0  0
   49.5725   36.6370   42.5892 H   0  0  0  0  0  0  0  0  0  0  0  0
   50.4964   36.5939   41.0637 H   0  0  0  0  0  0  0  0  0  0  0  0
   43.8521   36.9178   45.1296 H   0  0  0  0  0  0  0  0  0  0  0  0
   44.3552   36.2004   42.7628 H   0  0  0  0  0  0  0  0  0  0  0  0
   45.0105   32.1591   48.6153 H   0  0  0  0  0  0  0  0  0  0  0  0
  1 14  1  0
  2  1  1  0
  3  4  1  0
  3  2  2  0
  4 11  2  0
  5  7  1  0
  5  4  1  0
  6  5  2  0
  7  8  1  0
  8  9  1  0
  8 10  2  0
 11 10  1  0
 11  1  1  0
 12 17  2  0
 13 12  1  0
 14 13  2  0
 14 15  1  0
 15 16  2  0
 16 17  1  0
 16 18  1  0
 18 19  2  0
 18 20  1  0
  2 21  1  0
  7 22  1  0
  9 23  1  0
  9 24  1  0
 12 25  1  0
 13 26  1  0
 20 27  1  0
M  ISO  5  21  14  22   9  25  14  26  14  27   3
M  END
>  <minimizedAffinity>  (1) 
-6.20574903

>  <minimizedRMSD>  (1) 
0.113736272

$$$$
