
     RDKit          3D

 34 36  0  0  1  0  0  0  0  0999 V2000
   46.4150   31.3250   46.8900 C   0  0  2  0  0  0  0  0  0  0  0  0
   44.7440   35.0760   45.7070 C   0  0  0  0  0  0  0  0  0  0  0  0
   44.3790   35.6840   44.5100 C   0  0  0  0  0  0  0  0  0  0  0  0
   44.8540   35.1290   43.3130 C   0  0  0  0  0  0  0  0  0  0  0  0
   45.6410   34.0320   43.3720 N   0  0  0  0  0  0  0  0  0  0  0  0
   45.9900   33.4470   44.5570 C   0  0  0  0  0  0  0  0  0  0  0  0
   45.5360   33.9790   45.6990 N   0  0  0  0  0  0  0  0  0  0  0  0
   46.8150   32.3090   44.6480 N   0  0  0  0  0  0  0  0  0  0  0  0
   47.5780   32.0450   43.5480 C   0  0  0  0  0  0  0  0  0  0  0  0
   48.3140   30.8930   43.8770 C   0  0  0  0  0  0  0  0  0  0  0  0
   47.9720   30.5100   45.1430 N   0  0  0  0  0  0  0  0  0  0  0  0
   47.0610   31.3870   45.5850 C   0  0  0  0  0  0  0  0  0  0  0  0
   47.2230   32.2830   47.8150 C   0  0  0  0  0  0  0  0  0  0  0  0
   46.5050   29.9590   47.4890 C   0  0  0  0  0  0  0  0  0  0  0  0
   45.4800   29.0770   47.0540 N   0  0  0  0  0  0  0  0  0  0  0  0
   44.4970   29.3860   46.2070 N   0  0  0  0  0  0  0  0  0  0  0  0
   43.7240   28.2860   46.0400 C   0  0  0  0  0  0  0  0  0  0  0  0
   44.2290   27.2450   46.8040 C   0  0  0  0  0  0  0  0  0  0  0  0
   45.3410   27.7770   47.4350 C   0  0  0  0  0  0  0  0  0  0  0  0
   46.2100   27.1360   48.3220 O   0  0  0  0  0  0  0  0  0  0  0  0
   45.3528   31.5916   46.7868 H   0  0  0  0  0  0  0  0  0  0  0  0
   44.3877   35.4883   46.6626 H   0  0  0  0  0  0  0  0  0  0  0  0
   43.7352   36.5759   44.5028 H   0  0  0  0  0  0  0  0  0  0  0  0
   44.5909   35.5782   42.3440 H   0  0  0  0  0  0  0  0  0  0  0  0
   47.6104   32.6119   42.6059 H   0  0  0  0  0  0  0  0  0  0  0  0
   49.0414   30.3863   43.2258 H   0  0  0  0  0  0  0  0  0  0  0  0
   47.0161   32.0377   48.8672 H   0  0  0  0  0  0  0  0  0  0  0  0
   48.2983   32.1648   47.6155 H   0  0  0  0  0  0  0  0  0  0  0  0
   46.9252   33.3230   47.6155 H   0  0  0  0  0  0  0  0  0  0  0  0
   47.4774   29.5232   47.2159 H   0  0  0  0  0  0  0  0  0  0  0  0
   46.3887   30.0761   48.5765 H   0  0  0  0  0  0  0  0  0  0  0  0
   42.8331   28.2277   45.3974 H   0  0  0  0  0  0  0  0  0  0  0  0
   43.8336   26.2221   46.8899 H   0  0  0  0  0  0  0  0  0  0  0  0
   46.0599   26.1877   48.5636 H   0  0  0  0  0  0  0  0  0  0  0  0
  1 14  1  0
  1 13  1  0
  3  2  2  0
  4  5  2  0
  4  3  1  0
  5  6  1  0
  6  8  1  0
  6  7  2  0
  7  2  1  0
  8 12  1  0
  9 10  2  0
  9  8  1  0
 10 11  1  0
 11 12  2  0
 12  1  1  0
 15 19  1  0
 15 14  1  0
 16 15  1  0
 17 16  2  0
 17 18  1  0
 18 19  2  0
 19 20  1  0
  1 21  1  6
  2 22  1  0
  3 23  1  0
  4 24  1  0
  9 25  1  0
 10 26  1  0
 13 27  1  0
 13 28  1  0
 13 29  1  0
 14 30  1  0
 14 31  1  0
 17 32  1  0
 18 33  1  0
 20 34  1  0
M  ISO  8  21   8  22  14  23  14  24  14  25  14  26  14  27   8  28   8
M  ISO  6  29   8  30   8  31   8  32  14  33  14  34   3
M  END
>  <minimizedAffinity>  (1) 
-4.60438681

>  <minimizedRMSD>  (1) 
0.117300354

$$$$
