
     RDKit          3D

 35 37  0  0  1  0  0  0  0  0999 V2000
   44.5510   36.1650   44.8100 C   0  0  0  0  0  0  0  0  0  0  0  0
   44.8430   36.0440   43.4180 C   0  0  0  0  0  0  0  0  0  0  0  0
   45.3760   34.8430   42.9700 C   0  0  0  0  0  0  0  0  0  0  0  0
   45.5830   33.8610   43.8830 N   0  0  0  0  0  0  0  0  0  0  0  0
   45.3000   33.9980   45.1840 C   0  0  0  0  0  0  0  0  0  0  0  0
   44.7840   35.1430   45.6630 N   0  0  0  0  0  0  0  0  0  0  0  0
   45.5450   32.9150   46.0900 N   0  0  0  0  0  0  0  0  0  0  0  0
   45.2550   33.0680   47.5160 C   0  0  0  0  0  0  0  0  0  0  0  0
   46.1710   32.3190   48.4170 C   0  0  0  0  0  0  0  0  0  0  0  0
   47.4300   31.9820   47.6500 C   0  0  0  0  0  0  0  0  0  0  0  0
   47.0370   31.0080   46.5710 C   0  0  0  0  0  0  0  0  0  0  0  0
   46.0750   31.6710   45.6260 C   0  0  2  0  0  0  0  0  0  0  0  0
   46.7070   31.7330   44.3270 N   0  0  0  0  0  0  0  0  0  0  0  0
   47.9100   32.3200   44.1630 C   0  0  0  0  0  0  0  0  0  0  0  0
   48.5490   32.3990   42.9320 C   0  0  0  0  0  0  0  0  0  0  0  0
   47.9270   31.8530   41.8270 C   0  0  0  0  0  0  0  0  0  0  0  0
   48.4400   31.8790   40.6590 O   0  0  0  0  0  0  0  0  0  0  0  0
   46.7270   31.2670   41.9930 N   0  0  0  0  0  0  0  0  0  0  0  0
   46.1380   31.2100   43.2000 C   0  0  0  0  0  0  0  0  0  0  0  0
   45.0090   30.6510   43.3090 O   0  0  0  0  0  0  0  0  0  0  0  0
   44.1295   37.1054   45.1947 H   0  0  0  0  0  0  0  0  0  0  0  0
   44.6520   36.8751   42.7231 H   0  0  0  0  0  0  0  0  0  0  0  0
   45.6226   34.6923   41.9086 H   0  0  0  0  0  0  0  0  0  0  0  0
   45.3240   34.1366   47.7676 H   0  0  0  0  0  0  0  0  0  0  0  0
   44.2497   32.6515   47.6765 H   0  0  0  0  0  0  0  0  0  0  0  0
   46.4231   32.9400   49.2893 H   0  0  0  0  0  0  0  0  0  0  0  0
   45.6845   31.3964   48.7663 H   0  0  0  0  0  0  0  0  0  0  0  0
   47.8549   32.8922   47.2016 H   0  0  0  0  0  0  0  0  0  0  0  0
   48.1915   31.5476   48.3144 H   0  0  0  0  0  0  0  0  0  0  0  0
   47.9338   30.6906   46.0188 H   0  0  0  0  0  0  0  0  0  0  0  0
   46.5575   30.1290   47.0265 H   0  0  0  0  0  0  0  0  0  0  0  0
   45.1621   31.0614   45.5549 H   0  0  0  0  0  0  0  0  0  0  0  0
   48.4070   32.7553   45.0425 H   0  0  0  0  0  0  0  0  0  0  0  0
   49.5306   32.8867   42.8396 H   0  0  0  0  0  0  0  0  0  0  0  0
   46.2502   30.8538   41.1788 H   0  0  0  0  0  0  0  0  0  0  0  0
  1  6  2  0
  2  1  1  0
  3  2  2  0
  3  4  1  0
  4  5  2  0
  5  6  1  0
  5  7  1  0
  7  8  1  0
  8  9  1  0
 10  9  1  0
 11 10  1  0
 12  7  1  0
 12 11  1  0
 13 12  1  0
 14 13  1  0
 15 14  2  0
 16 18  1  0
 16 15  1  0
 17 16  2  0
 18 19  1  0
 19 20  2  0
 19 13  1  0
  1 21  1  0
  2 22  1  0
  3 23  1  0
  8 24  1  0
  8 25  1  0
  9 26  1  0
  9 27  1  0
 10 28  1  0
 10 29  1  0
 11 30  1  0
 11 31  1  0
 12 32  1  6
 14 33  1  0
 15 34  1  0
 18 35  1  0
M  ISO  8  21  14  22  14  23  14  24  13  25  13  26  13  27  13  28  13
M  ISO  7  29  13  30  13  31  13  32  13  33  14  34  14  35   9
M  END
>  <minimizedAffinity>  (1) 
-4.7992444

>  <minimizedRMSD>  (1) 
1.0664314

$$$$
