
     RDKit          3D

 50 54  0  0  0  0  0  0  0  0999 V2000
   45.8810   31.9600   47.2260 C   0  0  0  0  0  0  0  0  0  0  0  0
   44.5110   35.1500   46.1150 C   0  0  0  0  0  0  0  0  0  0  0  0
   44.7700   35.1470   44.7280 C   0  0  0  0  0  0  0  0  0  0  0  0
   45.4190   34.0450   44.1650 C   0  0  0  0  0  0  0  0  0  0  0  0
   45.7700   33.0240   44.9950 N   0  0  0  0  0  0  0  0  0  0  0  0
   45.5000   33.0710   46.3180 C   0  0  0  0  0  0  0  0  0  0  0  0
   44.8840   34.1100   46.8740 N   0  0  0  0  0  0  0  0  0  0  0  0
   45.6530   34.0920   42.7760 N   0  0  0  0  0  0  0  0  0  0  0  0
   44.9030   33.9380   41.6840 C   0  0  0  0  0  0  0  0  0  0  0  0
   45.6500   34.0890   40.5720 N   0  0  0  0  0  0  0  0  0  0  0  0
   46.9190   34.3500   40.9610 C   0  0  0  0  0  0  0  0  0  0  0  0
   48.0550   34.5820   40.2130 C   0  0  0  0  0  0  0  0  0  0  0  0
   48.0800   34.5860   38.9760 O   0  0  0  0  0  0  0  0  0  0  0  0
   49.2340   34.8240   40.8510 N   0  0  0  0  0  0  0  0  0  0  0  0
   49.2080   34.8200   42.1850 C   0  0  0  0  0  0  0  0  0  0  0  0
   50.3700   35.0590   42.9650 N   0  0  0  0  0  0  0  0  0  0  0  0
   48.1090   34.5950   42.8990 N   0  0  0  0  0  0  0  0  0  0  0  0
   46.9060   34.3480   42.3450 C   0  0  0  0  0  0  0  0  0  0  0  0
   47.2950   32.1300   47.7300 C   0  0  0  0  0  0  0  0  0  0  0  0
   44.9310   31.8150   48.3910 C   0  0  0  0  0  0  0  0  0  0  0  0
   45.8350   30.6940   46.3930 C   0  0  0  0  0  0  0  0  0  0  0  0
   46.8710   29.7110   46.6920 C   0  0  0  0  0  0  0  0  0  0  0  0
   48.1970   29.8660   46.5250 N   0  0  0  0  0  0  0  0  0  0  0  0
   49.1040   28.9200   46.8190 C   0  0  0  0  0  0  0  0  0  0  0  0
   48.7480   27.7020   47.3210 N   0  0  0  0  0  0  0  0  0  0  0  0
   47.4070   27.5180   47.5010 C   0  0  0  0  0  0  0  0  0  0  0  0
   47.0200   26.2870   48.0110 C   0  0  0  0  0  0  0  0  0  0  0  0
   45.7030   25.9790   48.2370 C   0  0  0  0  0  0  0  0  0  0  0  0
   44.7560   26.9320   47.9430 C   0  0  0  0  0  0  0  0  0  0  0  0
   45.1260   28.1710   47.4310 C   0  0  0  0  0  0  0  0  0  0  0  0
   46.4520   28.4930   47.2000 C   0  0  0  0  0  0  0  0  0  0  0  0
   44.0010   36.0091   46.5752 H   0  0  0  0  0  0  0  0  0  0  0  0
   44.4661   35.9978   44.1005 H   0  0  0  0  0  0  0  0  0  0  0  0
   43.8252   33.7184   41.6899 H   0  0  0  0  0  0  0  0  0  0  0  0
   50.1038   35.0015   40.3287 H   0  0  0  0  0  0  0  0  0  0  0  0
   50.3113   35.0480   43.9933 H   0  0  0  0  0  0  0  0  0  0  0  0
   51.2717   35.2434   42.5026 H   0  0  0  0  0  0  0  0  0  0  0  0
   47.2947   32.1300   48.8300 H   0  0  0  0  0  0  0  0  0  0  0  0
   47.9172   31.3002   47.3635 H   0  0  0  0  0  0  0  0  0  0  0  0
   47.7027   33.0836   47.3635 H   0  0  0  0  0  0  0  0  0  0  0  0
   45.4912   31.9005   49.3338 H   0  0  0  0  0  0  0  0  0  0  0  0
   44.1694   32.6073   48.3439 H   0  0  0  0  0  0  0  0  0  0  0  0
   44.4404   30.8316   48.3439 H   0  0  0  0  0  0  0  0  0  0  0  0
   45.9332   30.9798   45.3353 H   0  0  0  0  0  0  0  0  0  0  0  0
   44.8776   30.2081   46.6321 H   0  0  0  0  0  0  0  0  0  0  0  0
   50.1695   29.1342   46.6494 H   0  0  0  0  0  0  0  0  0  0  0  0
   47.7913   25.5371   48.2405 H   0  0  0  0  0  0  0  0  0  0  0  0
   45.4124   24.9983   48.6417 H   0  0  0  0  0  0  0  0  0  0  0  0
   43.6922   26.7114   48.1150 H   0  0  0  0  0  0  0  0  0  0  0  0
   44.3461   28.9128   47.2042 H   0  0  0  0  0  0  0  0  0  0  0  0
  1 19  1  0
  1 20  1  0
  2  7  2  0
  3  2  1  0
  4  3  2  0
  4  5  1  0
  5  6  2  0
  6  7  1  0
  6  1  1  0
  8  4  1  0
  9  8  1  0
 10 11  1  0
 10  9  2  0
 11 18  2  0
 12 14  1  0
 12 11  1  0
 13 12  2  0
 14 15  1  0
 15 17  2  0
 15 16  1  0
 18  8  1  0
 18 17  1  0
 21 22  1  0
 21  1  1  0
 22 31  1  0
 23 22  2  0
 23 24  1  0
 24 25  2  0
 25 26  1  0
 26 27  2  0
 27 28  1  0
 29 28  2  0
 30 29  1  0
 31 30  2  0
 31 26  1  0
  2 32  1  0
  3 33  1  0
  9 34  1  0
 14 35  1  0
 16 36  1  0
 16 37  1  0
 19 38  1  0
 19 39  1  0
 19 40  1  0
 20 41  1  0
 20 42  1  0
 20 43  1  0
 21 44  1  0
 21 45  1  0
 24 46  1  0
 27 47  1  0
 28 48  1  0
 29 49  1  0
 30 50  1  0
M  ISO  8  32  14  33  14  34  14  35   9  38   8  39   8  40   8  41   8
M  ISO  8  42   8  43   8  44   8  45   8  46  14  47  14  48  14  49  14
M  ISO  1  50  14
M  END
>  <minimizedAffinity>  (1) 
-7.3979826

>  <minimizedRMSD>  (1) 
1.06705821

$$$$
