
     RDKit          3D

 43 46  0  0  0  0  0  0  0  0999 V2000
   44.5100   35.0720   46.1480 C   0  0  0  0  0  0  0  0  0  0  0  0
   44.7590   35.0570   44.7630 C   0  0  0  0  0  0  0  0  0  0  0  0
   45.4650   33.9790   44.2080 C   0  0  0  0  0  0  0  0  0  0  0  0
   45.8760   32.9910   45.0510 N   0  0  0  0  0  0  0  0  0  0  0  0
   45.6080   33.0560   46.3840 C   0  0  0  0  0  0  0  0  0  0  0  0
   44.9420   34.0660   46.9320 N   0  0  0  0  0  0  0  0  0  0  0  0
   45.6840   34.0150   42.8290 N   0  0  0  0  0  0  0  0  0  0  0  0
   44.9380   33.8200   41.7400 C   0  0  0  0  0  0  0  0  0  0  0  0
   45.6670   33.9840   40.6190 N   0  0  0  0  0  0  0  0  0  0  0  0
   46.9180   34.2930   40.9900 C   0  0  0  0  0  0  0  0  0  0  0  0
   48.0510   34.5610   40.2310 C   0  0  0  0  0  0  0  0  0  0  0  0
   48.0660   34.5490   38.9980 O   0  0  0  0  0  0  0  0  0  0  0  0
   49.2170   34.8530   40.8450 N   0  0  0  0  0  0  0  0  0  0  0  0
   49.2100   34.8670   42.1950 C   0  0  0  0  0  0  0  0  0  0  0  0
   50.3670   35.1600   42.9570 N   0  0  0  0  0  0  0  0  0  0  0  0
   48.1230   34.6110   42.9240 N   0  0  0  0  0  0  0  0  0  0  0  0
   46.9330   34.3140   42.3720 C   0  0  0  0  0  0  0  0  0  0  0  0
   46.0470   31.9930   47.3130 C   0  0  0  0  0  0  0  0  0  0  0  0
   47.2870   32.4050   48.0840 C   0  0  0  0  0  0  0  0  0  0  0  0
   44.9750   31.5350   48.2490 C   0  0  0  0  0  0  0  0  0  0  0  0
   46.5120   30.8110   46.4520 C   0  0  0  0  0  0  0  0  0  0  0  0
   45.7270   29.6110   46.6320 C   0  0  0  0  0  0  0  0  0  0  0  0
   45.7050   28.6690   47.6210 C   0  0  0  0  0  0  0  0  0  0  0  0
   44.8510   27.6020   47.5620 C   0  0  0  0  0  0  0  0  0  0  0  0
   43.9810   27.5150   46.4130 C   0  0  0  0  0  0  0  0  0  0  0  0
   44.5100   29.0800   45.4700 S   0  0  0  0  0  0  0  0  0  0  0  0
   43.9579   35.9125   46.5939 H   0  0  0  0  0  0  0  0  0  0  0  0
   44.4049   35.8794   44.1241 H   0  0  0  0  0  0  0  0  0  0  0  0
   43.8693   33.5598   41.7555 H   0  0  0  0  0  0  0  0  0  0  0  0
   50.0725   35.0558   40.3085 H   0  0  0  0  0  0  0  0  0  0  0  0
   50.3196   35.1603   43.9859 H   0  0  0  0  0  0  0  0  0  0  0  0
   51.2560   35.3728   42.4824 H   0  0  0  0  0  0  0  0  0  0  0  0
   47.0865   32.3384   49.1635 H   0  0  0  0  0  0  0  0  0  0  0  0
   48.1200   31.7353   47.8237 H   0  0  0  0  0  0  0  0  0  0  0  0
   47.5536   33.4400   47.8237 H   0  0  0  0  0  0  0  0  0  0  0  0
   45.3092   31.6778   49.2872 H   0  0  0  0  0  0  0  0  0  0  0  0
   44.0607   32.1210   48.0742 H   0  0  0  0  0  0  0  0  0  0  0  0
   44.7664   30.4692   48.0742 H   0  0  0  0  0  0  0  0  0  0  0  0
   47.5566   30.5836   46.7110 H   0  0  0  0  0  0  0  0  0  0  0  0
   46.3940   31.1152   45.4015 H   0  0  0  0  0  0  0  0  0  0  0  0
   46.3855   28.7701   48.4793 H   0  0  0  0  0  0  0  0  0  0  0  0
   44.8281   26.8419   48.3568 H   0  0  0  0  0  0  0  0  0  0  0  0
   43.2258   26.7578   46.1557 H   0  0  0  0  0  0  0  0  0  0  0  0
  1  6  2  0
  2  1  1  0
  3  2  2  0
  3  4  1  0
  4  5  2  0
  5  6  1  0
  5 18  1  0
  7  3  1  0
  8  7  1  0
  9 10  1  0
  9  8  2  0
 10 17  2  0
 11 13  1  0
 11 10  1  0
 12 11  2  0
 13 14  1  0
 14 16  2  0
 14 15  1  0
 17  7  1  0
 17 16  1  0
 18 19  1  0
 18 20  1  0
 21 22  1  0
 21 18  1  0
 22 23  2  0
 24 23  1  0
 25 24  2  0
 26 25  1  0
 26 22  1  0
  1 27  1  0
  2 28  1  0
  8 29  1  0
 13 30  1  0
 15 31  1  0
 15 32  1  0
 19 33  1  0
 19 34  1  0
 19 35  1  0
 20 36  1  0
 20 37  1  0
 20 38  1  0
 21 39  1  0
 21 40  1  0
 23 41  1  0
 24 42  1  0
 25 43  1  0
M  ISO  8  27  14  28  14  29  14  30   9  33   8  34   8  35   8  36   8
M  ISO  7  37   8  38   8  39   8  40   8  41  14  42  14  43  14
M  END
>  <minimizedAffinity>  (1) 
-6.80821228

>  <minimizedRMSD>  (1) 
1.199224

$$$$
