
     RDKit          3D

 51 54  0  0  0  0  0  0  0  0999 V2000
   44.4630   35.1940   46.0880 C   0  0  0  0  0  0  0  0  0  0  0  0
   44.7220   35.1570   44.7030 C   0  0  0  0  0  0  0  0  0  0  0  0
   45.4170   34.0550   44.1740 C   0  0  0  0  0  0  0  0  0  0  0  0
   45.8010   33.0840   45.0320 N   0  0  0  0  0  0  0  0  0  0  0  0
   45.5290   33.1610   46.3610 C   0  0  0  0  0  0  0  0  0  0  0  0
   44.8680   34.2050   46.8790 N   0  0  0  0  0  0  0  0  0  0  0  0
   45.6530   34.0630   42.7880 N   0  0  0  0  0  0  0  0  0  0  0  0
   44.9190   33.8560   41.6990 C   0  0  0  0  0  0  0  0  0  0  0  0
   45.6610   33.9920   40.5770 N   0  0  0  0  0  0  0  0  0  0  0  0
   46.9230   34.2980   40.9620 C   0  0  0  0  0  0  0  0  0  0  0  0
   48.0720   34.5420   40.2250 C   0  0  0  0  0  0  0  0  0  0  0  0
   48.0890   34.5040   38.9770 O   0  0  0  0  0  0  0  0  0  0  0  0
   49.2310   34.8340   40.8550 N   0  0  0  0  0  0  0  0  0  0  0  0
   49.1930   34.8690   42.1850 C   0  0  0  0  0  0  0  0  0  0  0  0
   50.3490   35.1640   42.9600 N   0  0  0  0  0  0  0  0  0  0  0  0
   48.0990   34.6380   42.9070 N   0  0  0  0  0  0  0  0  0  0  0  0
   46.9160   34.3430   42.3490 C   0  0  0  0  0  0  0  0  0  0  0  0
   45.9690   32.0960   47.3090 C   0  0  0  0  0  0  0  0  0  0  0  0
   47.3570   32.3690   47.8330 C   0  0  0  0  0  0  0  0  0  0  0  0
   45.0090   31.9810   48.4740 C   0  0  0  0  0  0  0  0  0  0  0  0
   46.0290   30.8230   46.5060 C   0  0  0  0  0  0  0  0  0  0  0  0
   45.3880   29.6810   46.9790 N   0  0  0  0  0  0  0  0  0  0  0  0
   44.3500   29.0290   46.3150 C   0  0  0  0  0  0  0  0  0  0  0  0
   44.7900   27.9690   45.3250 C   0  0  0  0  0  0  0  0  0  0  0  0
   45.4400   26.8490   46.0720 C   0  0  0  0  0  0  0  0  0  0  0  0
   45.8700   27.3210   47.4250 C   0  0  0  0  0  0  0  0  0  0  0  0
   46.4000   28.7240   47.3850 C   0  0  0  0  0  0  0  0  0  0  0  0
   43.9209   36.0489   46.5184 H   0  0  0  0  0  0  0  0  0  0  0  0
   44.3867   35.9748   44.0482 H   0  0  0  0  0  0  0  0  0  0  0  0
   43.8477   33.6066   41.7095 H   0  0  0  0  0  0  0  0  0  0  0  0
   50.0992   35.0199   40.3330 H   0  0  0  0  0  0  0  0  0  0  0  0
   50.2885   35.1838   43.9880 H   0  0  0  0  0  0  0  0  0  0  0  0
   51.2464   35.3578   42.4931 H   0  0  0  0  0  0  0  0  0  0  0  0
   47.3409   32.3658   48.9329 H   0  0  0  0  0  0  0  0  0  0  0  0
   48.0444   31.5889   47.4741 H   0  0  0  0  0  0  0  0  0  0  0  0
   47.6978   33.3514   47.4741 H   0  0  0  0  0  0  0  0  0  0  0  0
   45.5689   32.0481   49.4185 H   0  0  0  0  0  0  0  0  0  0  0  0
   44.2735   32.7975   48.4250 H   0  0  0  0  0  0  0  0  0  0  0  0
   44.4871   31.0139   48.4250 H   0  0  0  0  0  0  0  0  0  0  0  0
   47.0927   30.5678   46.3907 H   0  0  0  0  0  0  0  0  0  0  0  0
   45.4722   31.0700   45.5900 H   0  0  0  0  0  0  0  0  0  0  0  0
   43.7113   28.5470   47.0699 H   0  0  0  0  0  0  0  0  0  0  0  0
   43.8275   29.7995   45.7291 H   0  0  0  0  0  0  0  0  0  0  0  0
   45.5073   28.4035   44.6132 H   0  0  0  0  0  0  0  0  0  0  0  0
   43.9179   27.5911   44.7713 H   0  0  0  0  0  0  0  0  0  0  0  0
   44.7237   26.0218   46.1849 H   0  0  0  0  0  0  0  0  0  0  0  0
   46.3215   26.5038   45.5119 H   0  0  0  0  0  0  0  0  0  0  0  0
   45.0061   27.2863   48.1050 H   0  0  0  0  0  0  0  0  0  0  0  0
   46.6772   26.6612   47.7759 H   0  0  0  0  0  0  0  0  0  0  0  0
   47.2351   28.7669   46.6703 H   0  0  0  0  0  0  0  0  0  0  0  0
   46.7281   28.9900   48.4007 H   0  0  0  0  0  0  0  0  0  0  0  0
  1  6  2  0
  2  1  1  0
  3  2  2  0
  3  4  1  0
  4  5  2  0
  5  6  1  0
  5 18  1  0
  7  3  1  0
  8  7  1  0
  9 10  1  0
  9  8  2  0
 10 17  2  0
 11 13  1  0
 11 10  1  0
 12 11  2  0
 13 14  1  0
 14 16  2  0
 14 15  1  0
 17  7  1  0
 17 16  1  0
 18 19  1  0
 18 20  1  0
 21 22  1  0
 21 18  1  0
 22 27  1  0
 23 22  1  0
 24 25  1  0
 24 23  1  0
 25 26  1  0
 27 26  1  0
  1 28  1  0
  2 29  1  0
  8 30  1  0
 13 31  1  0
 15 32  1  0
 15 33  1  0
 19 34  1  0
 19 35  1  0
 19 36  1  0
 20 37  1  0
 20 38  1  0
 20 39  1  0
 21 40  1  0
 21 41  1  0
 23 42  1  0
 23 43  1  0
 24 44  1  0
 24 45  1  0
 25 46  1  0
 25 47  1  0
 26 48  1  0
 26 49  1  0
 27 50  1  0
 27 51  1  0
M  ISO  8  28  14  29  14  30  14  31   9  34   8  35   8  36   8  37   8
M  ISO  8  38   8  39   8  40   8  41   8  42  13  43  13  44  13  45  13
M  ISO  6  46  13  47  13  48  13  49  13  50  13  51  13
M  END
>  <minimizedAffinity>  (1) 
-6.87614012

>  <minimizedRMSD>  (1) 
1.38432229

$$$$
