
     RDKit          3D

 43 46  0  0  0  0  0  0  0  0999 V2000
   44.4950   35.1150   46.1370 C   0  0  0  0  0  0  0  0  0  0  0  0
   44.7400   35.1030   44.7490 C   0  0  0  0  0  0  0  0  0  0  0  0
   45.4440   34.0120   44.2070 C   0  0  0  0  0  0  0  0  0  0  0  0
   45.8490   33.0350   45.0450 N   0  0  0  0  0  0  0  0  0  0  0  0
   45.5860   33.0980   46.3760 C   0  0  0  0  0  0  0  0  0  0  0  0
   44.9210   34.1190   46.9200 N   0  0  0  0  0  0  0  0  0  0  0  0
   45.6630   34.0450   42.8180 N   0  0  0  0  0  0  0  0  0  0  0  0
   44.9150   33.8560   41.7250 C   0  0  0  0  0  0  0  0  0  0  0  0
   45.6670   34.0160   40.6090 N   0  0  0  0  0  0  0  0  0  0  0  0
   46.9270   34.3160   40.9920 C   0  0  0  0  0  0  0  0  0  0  0  0
   48.0560   34.5690   40.2390 C   0  0  0  0  0  0  0  0  0  0  0  0
   48.0730   34.5560   38.9920 O   0  0  0  0  0  0  0  0  0  0  0  0
   49.2290   34.8520   40.8620 N   0  0  0  0  0  0  0  0  0  0  0  0
   49.2050   34.8640   42.2050 C   0  0  0  0  0  0  0  0  0  0  0  0
   50.3630   35.1450   42.9630 N   0  0  0  0  0  0  0  0  0  0  0  0
   48.1120   34.6180   42.9260 N   0  0  0  0  0  0  0  0  0  0  0  0
   46.9130   34.3300   42.3650 C   0  0  0  0  0  0  0  0  0  0  0  0
   46.0230   32.0360   47.3060 C   0  0  0  0  0  0  0  0  0  0  0  0
   47.2740   32.4320   48.0530 C   0  0  0  0  0  0  0  0  0  0  0  0
   44.9770   31.6190   48.2870 C   0  0  0  0  0  0  0  0  0  0  0  0
   46.4140   30.8300   46.4360 C   0  0  0  0  0  0  0  0  0  0  0  0
   45.7340   29.5940   46.8880 C   0  0  0  0  0  0  0  0  0  0  0  0
   44.6460   29.0800   46.2120 C   0  0  0  0  0  0  0  0  0  0  0  0
   44.2300   27.9470   46.8490 N   0  0  0  0  0  0  0  0  0  0  0  0
   45.0580   27.7710   47.9060 C   0  0  0  0  0  0  0  0  0  0  0  0
   45.9700   28.7770   47.9230 N   0  0  0  0  0  0  0  0  0  0  0  0
   43.9448   35.9569   46.5826 H   0  0  0  0  0  0  0  0  0  0  0  0
   44.3902   35.9246   44.1067 H   0  0  0  0  0  0  0  0  0  0  0  0
   43.8437   33.6066   41.7313 H   0  0  0  0  0  0  0  0  0  0  0  0
   50.0910   35.0470   40.3330 H   0  0  0  0  0  0  0  0  0  0  0  0
   50.3169   35.1477   43.9920 H   0  0  0  0  0  0  0  0  0  0  0  0
   51.2537   35.3472   42.4869 H   0  0  0  0  0  0  0  0  0  0  0  0
   47.0886   32.3733   49.1357 H   0  0  0  0  0  0  0  0  0  0  0  0
   48.0934   31.7493   47.7838 H   0  0  0  0  0  0  0  0  0  0  0  0
   47.5513   33.4619   47.7838 H   0  0  0  0  0  0  0  0  0  0  0  0
   45.3530   31.7689   49.3098 H   0  0  0  0  0  0  0  0  0  0  0  0
   44.0712   32.2248   48.1369 H   0  0  0  0  0  0  0  0  0  0  0  0
   44.7364   30.5562   48.1369 H   0  0  0  0  0  0  0  0  0  0  0  0
   47.5023   30.6825   46.4972 H   0  0  0  0  0  0  0  0  0  0  0  0
   46.1054   31.0358   45.4004 H   0  0  0  0  0  0  0  0  0  0  0  0
   44.1897   29.5121   45.3092 H   0  0  0  0  0  0  0  0  0  0  0  0
   45.0011   26.9471   48.6326 H   0  0  0  0  0  0  0  0  0  0  0  0
   46.7209   28.8929   48.6184 H   0  0  0  0  0  0  0  0  0  0  0  0
  1  6  2  0
  2  1  1  0
  3  2  2  0
  3  4  1  0
  4  5  2  0
  5  6  1  0
  5 18  1  0
  7  3  1  0
  8  7  1  0
  9 10  1  0
  9  8  2  0
 10 17  2  0
 11 13  1  0
 11 10  1  0
 12 11  2  0
 13 14  1  0
 14 16  2  0
 14 15  1  0
 17  7  1  0
 17 16  1  0
 18 19  1  0
 18 20  1  0
 21 22  1  0
 21 18  1  0
 22 26  1  0
 23 24  1  0
 23 22  2  0
 24 25  2  0
 25 26  1  0
  1 27  1  0
  2 28  1  0
  8 29  1  0
 13 30  1  0
 15 31  1  0
 15 32  1  0
 19 33  1  0
 19 34  1  0
 19 35  1  0
 20 36  1  0
 20 37  1  0
 20 38  1  0
 21 39  1  0
 21 40  1  0
 23 41  1  0
 25 42  1  0
 26 43  1  0
M  ISO  8  27  14  28  14  29  14  30   9  33   8  34   8  35   8  36   8
M  ISO  7  37   8  38   8  39   8  40   8  41  14  42  14  43   9
M  END
>  <minimizedAffinity>  (1) 
-6.97800684

>  <minimizedRMSD>  (1) 
1.004228

$$$$
