
     RDKit          3D

 44 47  0  0  0  0  0  0  0  0999 V2000
   44.5360   35.0260   46.1780 C   0  0  0  0  0  0  0  0  0  0  0  0
   44.7770   35.0340   44.7900 C   0  0  0  0  0  0  0  0  0  0  0  0
   45.4660   33.9590   44.2260 C   0  0  0  0  0  0  0  0  0  0  0  0
   45.8770   32.9490   45.0410 N   0  0  0  0  0  0  0  0  0  0  0  0
   45.6210   32.9870   46.3770 C   0  0  0  0  0  0  0  0  0  0  0  0
   44.9600   34.0100   46.9380 N   0  0  0  0  0  0  0  0  0  0  0  0
   45.6860   34.0030   42.8410 N   0  0  0  0  0  0  0  0  0  0  0  0
   44.9340   33.8100   41.7420 C   0  0  0  0  0  0  0  0  0  0  0  0
   45.6620   33.9810   40.6200 N   0  0  0  0  0  0  0  0  0  0  0  0
   46.9160   34.2930   41.0010 C   0  0  0  0  0  0  0  0  0  0  0  0
   48.0600   34.5690   40.2450 C   0  0  0  0  0  0  0  0  0  0  0  0
   48.0600   34.5600   39.0070 O   0  0  0  0  0  0  0  0  0  0  0  0
   49.2200   34.8590   40.8590 N   0  0  0  0  0  0  0  0  0  0  0  0
   49.2030   34.8640   42.2070 C   0  0  0  0  0  0  0  0  0  0  0  0
   50.3630   35.1550   42.9630 N   0  0  0  0  0  0  0  0  0  0  0  0
   48.1140   34.6010   42.9290 N   0  0  0  0  0  0  0  0  0  0  0  0
   46.9270   34.3050   42.3820 C   0  0  0  0  0  0  0  0  0  0  0  0
   46.0500   31.9110   47.2930 C   0  0  0  0  0  0  0  0  0  0  0  0
   47.2780   32.3300   48.0750 C   0  0  0  0  0  0  0  0  0  0  0  0
   44.9780   31.4620   48.2310 C   0  0  0  0  0  0  0  0  0  0  0  0
   46.4770   30.7430   46.4060 C   0  0  0  0  0  0  0  0  0  0  0  0
   45.6920   29.5170   46.6520 C   0  0  0  0  0  0  0  0  0  0  0  0
   44.6230   29.2400   45.7970 C   0  0  0  0  0  0  0  0  0  0  0  0
   43.8680   28.1020   45.9970 C   0  0  0  0  0  0  0  0  0  0  0  0
   44.1090   27.2130   47.0010 N   0  0  0  0  0  0  0  0  0  0  0  0
   45.1590   27.5250   47.8060 C   0  0  0  0  0  0  0  0  0  0  0  0
   45.9030   28.6200   47.6330 N   0  0  0  0  0  0  0  0  0  0  0  0
   43.9938   35.8634   46.6414 H   0  0  0  0  0  0  0  0  0  0  0  0
   44.4297   35.8693   44.1642 H   0  0  0  0  0  0  0  0  0  0  0  0
   43.8659   33.5473   41.7569 H   0  0  0  0  0  0  0  0  0  0  0  0
   50.0773   35.0666   40.3272 H   0  0  0  0  0  0  0  0  0  0  0  0
   50.3212   35.1517   43.9921 H   0  0  0  0  0  0  0  0  0  0  0  0
   51.2492   35.3701   42.4842 H   0  0  0  0  0  0  0  0  0  0  0  0
   47.0686   32.2585   49.1525 H   0  0  0  0  0  0  0  0  0  0  0  0
   48.1186   31.6678   47.8201 H   0  0  0  0  0  0  0  0  0  0  0  0
   47.5385   33.3679   47.8201 H   0  0  0  0  0  0  0  0  0  0  0  0
   45.3156   31.6034   49.2683 H   0  0  0  0  0  0  0  0  0  0  0  0
   44.0675   32.0544   48.0578 H   0  0  0  0  0  0  0  0  0  0  0  0
   44.7614   30.3975   48.0578 H   0  0  0  0  0  0  0  0  0  0  0  0
   47.5377   30.5251   46.5993 H   0  0  0  0  0  0  0  0  0  0  0  0
   46.3038   31.0415   45.3615 H   0  0  0  0  0  0  0  0  0  0  0  0
   44.3843   29.9243   44.9695 H   0  0  0  0  0  0  0  0  0  0  0  0
   43.0305   27.9030   45.3121 H   0  0  0  0  0  0  0  0  0  0  0  0
   45.4063   26.8462   48.6355 H   0  0  0  0  0  0  0  0  0  0  0  0
  1  6  2  0
  2  1  1  0
  3  2  2  0
  3  4  1  0
  4  5  2  0
  5  6  1  0
  5 18  1  0
  7  3  1  0
  8  7  1  0
  9 10  1  0
  9  8  2  0
 10 17  2  0
 11 13  1  0
 11 10  1  0
 12 11  2  0
 13 14  1  0
 14 16  2  0
 14 15  1  0
 17  7  1  0
 17 16  1  0
 18 19  1  0
 18 20  1  0
 21 22  1  0
 21 18  1  0
 22 27  2  0
 23 24  2  0
 23 22  1  0
 24 25  1  0
 25 26  2  0
 27 26  1  0
  1 28  1  0
  2 29  1  0
  8 30  1  0
 13 31  1  0
 15 32  1  0
 15 33  1  0
 19 34  1  0
 19 35  1  0
 19 36  1  0
 20 37  1  0
 20 38  1  0
 20 39  1  0
 21 40  1  0
 21 41  1  0
 23 42  1  0
 24 43  1  0
 26 44  1  0
M  ISO  8  28  14  29  14  30  14  31   9  34   8  35   8  36   8  37   8
M  ISO  7  38   8  39   8  40   8  41   8  42  14  43  14  44  14
M  END
>  <minimizedAffinity>  (1) 
-6.89763927

>  <minimizedRMSD>  (1) 
1.3823421

$$$$
