
     RDKit          3D

 38 40  0  0  0  0  0  0  0  0999 V2000
   44.4650   35.1890   46.0950 C   0  0  0  0  0  0  0  0  0  0  0  0
   44.7240   35.1570   44.7130 C   0  0  0  0  0  0  0  0  0  0  0  0
   45.4200   34.0660   44.1810 C   0  0  0  0  0  0  0  0  0  0  0  0
   45.8100   33.0880   45.0450 N   0  0  0  0  0  0  0  0  0  0  0  0
   45.5380   33.1640   46.3630 C   0  0  0  0  0  0  0  0  0  0  0  0
   44.8790   34.1910   46.8850 N   0  0  0  0  0  0  0  0  0  0  0  0
   45.6550   34.0780   42.7970 N   0  0  0  0  0  0  0  0  0  0  0  0
   44.9170   33.8760   41.7060 C   0  0  0  0  0  0  0  0  0  0  0  0
   45.6560   34.0110   40.5860 N   0  0  0  0  0  0  0  0  0  0  0  0
   46.9210   34.3130   40.9790 C   0  0  0  0  0  0  0  0  0  0  0  0
   48.0650   34.5530   40.2270 C   0  0  0  0  0  0  0  0  0  0  0  0
   48.0910   34.5200   38.9890 O   0  0  0  0  0  0  0  0  0  0  0  0
   49.2290   34.8370   40.8460 N   0  0  0  0  0  0  0  0  0  0  0  0
   49.2000   34.8720   42.1930 C   0  0  0  0  0  0  0  0  0  0  0  0
   50.3520   35.1600   42.9610 N   0  0  0  0  0  0  0  0  0  0  0  0
   48.0980   34.6420   42.9100 N   0  0  0  0  0  0  0  0  0  0  0  0
   46.9160   34.3530   42.3600 C   0  0  0  0  0  0  0  0  0  0  0  0
   45.9530   32.1150   47.3060 C   0  0  0  0  0  0  0  0  0  0  0  0
   47.3280   32.4040   47.8980 C   0  0  0  0  0  0  0  0  0  0  0  0
   44.9850   31.8850   48.4250 C   0  0  0  0  0  0  0  0  0  0  0  0
   46.1270   30.8290   46.4940 C   0  0  0  0  0  0  0  0  0  0  0  0
   46.3350   29.6820   47.3690 N   0  0  0  0  0  0  0  0  0  0  0  0
   43.9189   36.0394   46.5293 H   0  0  0  0  0  0  0  0  0  0  0  0
   44.3851   35.9759   44.0614 H   0  0  0  0  0  0  0  0  0  0  0  0
   43.8447   33.6310   41.7174 H   0  0  0  0  0  0  0  0  0  0  0  0
   50.0943   35.0176   40.3174 H   0  0  0  0  0  0  0  0  0  0  0  0
   50.2941   35.1785   43.9892 H   0  0  0  0  0  0  0  0  0  0  0  0
   51.2489   35.3512   42.4922 H   0  0  0  0  0  0  0  0  0  0  0  0
   47.2646   32.3907   48.9961 H   0  0  0  0  0  0  0  0  0  0  0  0
   48.0404   31.6360   47.5625 H   0  0  0  0  0  0  0  0  0  0  0  0
   47.6710   33.3939   47.5625 H   0  0  0  0  0  0  0  0  0  0  0  0
   45.5020   32.0078   49.3881 H   0  0  0  0  0  0  0  0  0  0  0  0
   44.1633   32.6129   48.3545 H   0  0  0  0  0  0  0  0  0  0  0  0
   44.5786   30.8653   48.3545 H   0  0  0  0  0  0  0  0  0  0  0  0
   45.2238   30.6607   45.8891 H   0  0  0  0  0  0  0  0  0  0  0  0
   47.0095   30.9403   45.8468 H   0  0  0  0  0  0  0  0  0  0  0  0
   46.2800   29.9854   48.3518 H   0  0  0  0  0  0  0  0  0  0  0  0
   45.6085   28.9750   47.1868 H   0  0  0  0  0  0  0  0  0  0  0  0
  1  6  2  0
  2  1  1  0
  3  2  2  0
  3  4  1  0
  4  5  2  0
  5  6  1  0
  5 18  1  0
  7  3  1  0
  8  7  1  0
  9 10  1  0
  9  8  2  0
 10 17  2  0
 11 13  1  0
 11 10  1  0
 12 11  2  0
 13 14  1  0
 14 16  2  0
 14 15  1  0
 17  7  1  0
 17 16  1  0
 18 19  1  0
 18 20  1  0
 21 18  1  0
 21 22  1  0
  1 23  1  0
  2 24  1  0
  8 25  1  0
 13 26  1  0
 15 27  1  0
 15 28  1  0
 19 29  1  0
 19 30  1  0
 19 31  1  0
 20 32  1  0
 20 33  1  0
 20 34  1  0
 21 35  1  0
 21 36  1  0
 22 37  1  0
 22 38  1  0
M  ISO  8  23  14  24  14  25  14  26   9  29   8  30   8  31   8  32   8
M  ISO  6  33   8  34   8  35   8  36   8  37   5  38   5
M  END
>  <minimizedAffinity>  (1) 
-6.50841808

>  <minimizedRMSD>  (1) 
0.0590799525

$$$$
