
     RDKit          3D

 42 45  0  0  0  0  0  0  0  0999 V2000
   44.5090   35.0860   46.1440 C   0  0  0  0  0  0  0  0  0  0  0  0
   44.7540   35.0780   44.7590 C   0  0  0  0  0  0  0  0  0  0  0  0
   45.4560   33.9880   44.2060 C   0  0  0  0  0  0  0  0  0  0  0  0
   45.8640   32.9920   45.0440 N   0  0  0  0  0  0  0  0  0  0  0  0
   45.6010   33.0490   46.3760 C   0  0  0  0  0  0  0  0  0  0  0  0
   44.9330   34.0770   46.9290 N   0  0  0  0  0  0  0  0  0  0  0  0
   45.6760   34.0280   42.8240 N   0  0  0  0  0  0  0  0  0  0  0  0
   44.9300   33.8410   41.7330 C   0  0  0  0  0  0  0  0  0  0  0  0
   45.6580   34.0050   40.6090 N   0  0  0  0  0  0  0  0  0  0  0  0
   46.9210   34.3090   40.9930 C   0  0  0  0  0  0  0  0  0  0  0  0
   48.0510   34.5720   40.2300 C   0  0  0  0  0  0  0  0  0  0  0  0
   48.0660   34.5650   38.9880 O   0  0  0  0  0  0  0  0  0  0  0  0
   49.2180   34.8550   40.8500 N   0  0  0  0  0  0  0  0  0  0  0  0
   49.2010   34.8620   42.1860 C   0  0  0  0  0  0  0  0  0  0  0  0
   50.3620   35.1460   42.9630 N   0  0  0  0  0  0  0  0  0  0  0  0
   48.1180   34.6110   42.9200 N   0  0  0  0  0  0  0  0  0  0  0  0
   46.9240   34.3220   42.3690 C   0  0  0  0  0  0  0  0  0  0  0  0
   46.0290   31.9920   47.2960 C   0  0  0  0  0  0  0  0  0  0  0  0
   47.2850   32.4050   48.0550 C   0  0  0  0  0  0  0  0  0  0  0  0
   44.9870   31.5680   48.2800 C   0  0  0  0  0  0  0  0  0  0  0  0
   46.4330   30.7950   46.4320 C   0  0  0  0  0  0  0  0  0  0  0  0
   45.7200   29.5980   46.7540 N   0  0  0  0  0  0  0  0  0  0  0  0
   44.6040   29.1400   46.1240 C   0  0  0  0  0  0  0  0  0  0  0  0
   44.1850   27.9830   46.6750 N   0  0  0  0  0  0  0  0  0  0  0  0
   45.0610   27.7290   47.6630 C   0  0  0  0  0  0  0  0  0  0  0  0
   45.9720   28.6910   47.7070 N   0  0  0  0  0  0  0  0  0  0  0  0
   43.9630   35.9289   46.5928 H   0  0  0  0  0  0  0  0  0  0  0  0
   44.4055   35.9040   44.1216 H   0  0  0  0  0  0  0  0  0  0  0  0
   43.8600   33.5861   41.7484 H   0  0  0  0  0  0  0  0  0  0  0  0
   50.0776   35.0553   40.3191 H   0  0  0  0  0  0  0  0  0  0  0  0
   50.3071   35.1414   43.9915 H   0  0  0  0  0  0  0  0  0  0  0  0
   51.2557   35.3558   42.4959 H   0  0  0  0  0  0  0  0  0  0  0  0
   47.0966   32.3430   49.1370 H   0  0  0  0  0  0  0  0  0  0  0  0
   48.1129   31.7318   47.7878 H   0  0  0  0  0  0  0  0  0  0  0  0
   47.5518   33.4382   47.7878 H   0  0  0  0  0  0  0  0  0  0  0  0
   45.3638   31.7213   49.3020 H   0  0  0  0  0  0  0  0  0  0  0  0
   44.0766   32.1672   48.1311 H   0  0  0  0  0  0  0  0  0  0  0  0
   44.7537   30.5034   48.1311 H   0  0  0  0  0  0  0  0  0  0  0  0
   47.5080   30.6096   46.5732 H   0  0  0  0  0  0  0  0  0  0  0  0
   46.1892   31.0487   45.3898 H   0  0  0  0  0  0  0  0  0  0  0  0
   44.1110   29.6450   45.2802 H   0  0  0  0  0  0  0  0  0  0  0  0
   45.0269   26.8566   48.3322 H   0  0  0  0  0  0  0  0  0  0  0  0
  1  6  2  0
  2  1  1  0
  3  2  2  0
  3  4  1  0
  4  5  2  0
  5  6  1  0
  5 18  1  0
  7  3  1  0
  8  7  1  0
  9 10  1  0
  9  8  2  0
 10 17  2  0
 11 13  1  0
 11 10  1  0
 12 11  2  0
 13 14  1  0
 14 16  2  0
 14 15  1  0
 17  7  1  0
 17 16  1  0
 18 19  1  0
 18 20  1  0
 21 22  1  0
 21 18  1  0
 22 26  1  0
 23 24  2  0
 23 22  1  0
 24 25  1  0
 25 26  2  0
  1 27  1  0
  2 28  1  0
  8 29  1  0
 13 30  1  0
 15 31  1  0
 15 32  1  0
 19 33  1  0
 19 34  1  0
 19 35  1  0
 20 36  1  0
 20 37  1  0
 20 38  1  0
 21 39  1  0
 21 40  1  0
 23 41  1  0
 25 42  1  0
M  ISO  8  27  14  28  14  29  14  30   9  33   8  34   8  35   8  36   8
M  ISO  6  37   8  38   8  39   8  40   8  41  14  42  14
M  END
>  <minimizedAffinity>  (1) 
-6.76727867

>  <minimizedRMSD>  (1) 
1.10940623

$$$$
