
     RDKit          3D

 58 62  0  0  0  0  0  0  0  0999 V2000
   46.2120   31.8050   47.2390 C   0  0  0  0  0  0  0  0  0  0  0  0
   44.5800   34.9150   46.2330 C   0  0  0  0  0  0  0  0  0  0  0  0
   44.7960   34.9620   44.8500 C   0  0  0  0  0  0  0  0  0  0  0  0
   45.5140   33.9090   44.2470 C   0  0  0  0  0  0  0  0  0  0  0  0
   45.9510   32.9160   45.0430 N   0  0  0  0  0  0  0  0  0  0  0  0
   45.7190   32.9100   46.3830 C   0  0  0  0  0  0  0  0  0  0  0  0
   45.0400   33.9010   46.9660 N   0  0  0  0  0  0  0  0  0  0  0  0
   45.7080   33.9970   42.8510 N   0  0  0  0  0  0  0  0  0  0  0  0
   44.9270   33.8660   41.7770 C   0  0  0  0  0  0  0  0  0  0  0  0
   45.6420   34.0550   40.6480 N   0  0  0  0  0  0  0  0  0  0  0  0
   46.9150   34.3130   41.0080 C   0  0  0  0  0  0  0  0  0  0  0  0
   48.0440   34.5780   40.2320 C   0  0  0  0  0  0  0  0  0  0  0  0
   48.0110   34.6110   39.0050 O   0  0  0  0  0  0  0  0  0  0  0  0
   49.2240   34.8090   40.8400 N   0  0  0  0  0  0  0  0  0  0  0  0
   49.2370   34.7680   42.1830 C   0  0  0  0  0  0  0  0  0  0  0  0
   50.4220   34.9940   42.9330 N   0  0  0  0  0  0  0  0  0  0  0  0
   48.1680   34.5160   42.9240 N   0  0  0  0  0  0  0  0  0  0  0  0
   46.9510   34.2750   42.3860 C   0  0  0  0  0  0  0  0  0  0  0  0
   47.2450   32.3060   48.2200 C   0  0  0  0  0  0  0  0  0  0  0  0
   45.0810   31.1440   48.0040 C   0  0  0  0  0  0  0  0  0  0  0  0
   46.8870   30.7990   46.3290 C   0  0  0  0  0  0  0  0  0  0  0  0
   46.4310   29.4010   46.6120 C   0  0  0  0  0  0  0  0  0  0  0  0
   47.2050   28.5800   47.3520 C   0  0  0  0  0  0  0  0  0  0  0  0
   46.2910   26.9900   47.4550 S   0  0  0  0  0  0  0  0  0  0  0  0
   44.9110   27.7580   46.4020 C   0  0  0  0  0  0  0  0  0  0  0  0
   45.3330   28.8350   46.2230 N   0  0  0  0  0  0  0  0  0  0  0  0
   43.6380   27.0670   45.9660 C   0  0  0  0  0  0  0  0  0  0  0  0
   43.1300   26.2520   47.1340 C   0  0  0  0  0  0  0  0  0  0  0  0
   41.9410   25.4440   46.6970 C   0  0  0  0  0  0  0  0  0  0  0  0
   40.8690   26.2690   46.0510 C   0  0  0  0  0  0  0  0  0  0  0  0
   41.3610   27.3620   45.1680 C   0  0  0  0  0  0  0  0  0  0  0  0
   42.5570   28.1010   45.6910 C   0  0  0  0  0  0  0  0  0  0  0  0
   44.0222   35.7273   46.7219 H   0  0  0  0  0  0  0  0  0  0  0  0
   44.4146   35.8004   44.2486 H   0  0  0  0  0  0  0  0  0  0  0  0
   43.8517   33.6363   41.8075 H   0  0  0  0  0  0  0  0  0  0  0  0
   50.0779   35.0081   40.2995 H   0  0  0  0  0  0  0  0  0  0  0  0
   50.3956   34.9549   43.9619 H   0  0  0  0  0  0  0  0  0  0  0  0
   51.3077   35.1970   42.4479 H   0  0  0  0  0  0  0  0  0  0  0  0
   46.8896   32.1336   49.2467 H   0  0  0  0  0  0  0  0  0  0  0  0
   48.1908   31.7665   48.0640 H   0  0  0  0  0  0  0  0  0  0  0  0
   47.4070   33.3828   48.0640 H   0  0  0  0  0  0  0  0  0  0  0  0
   45.2592   31.2481   49.0845 H   0  0  0  0  0  0  0  0  0  0  0  0
   44.1287   31.6277   47.7411 H   0  0  0  0  0  0  0  0  0  0  0  0
   45.0351   30.0769   47.7411 H   0  0  0  0  0  0  0  0  0  0  0  0
   47.9751   30.8562   46.4797 H   0  0  0  0  0  0  0  0  0  0  0  0
   46.6189   31.0429   45.2904 H   0  0  0  0  0  0  0  0  0  0  0  0
   48.1815   28.8144   47.8008 H   0  0  0  0  0  0  0  0  0  0  0  0
   43.8463   26.4601   45.0725 H   0  0  0  0  0  0  0  0  0  0  0  0
   43.9246   25.5765   47.4838 H   0  0  0  0  0  0  0  0  0  0  0  0
   42.8367   26.9254   47.9529 H   0  0  0  0  0  0  0  0  0  0  0  0
   42.2801   24.6856   45.9760 H   0  0  0  0  0  0  0  0  0  0  0  0
   41.5047   24.9916   47.5998 H   0  0  0  0  0  0  0  0  0  0  0  0
   40.2407   25.5986   45.4461 H   0  0  0  0  0  0  0  0  0  0  0  0
   40.3229   26.7589   46.8706 H   0  0  0  0  0  0  0  0  0  0  0  0
   40.5440   28.0858   45.0313 H   0  0  0  0  0  0  0  0  0  0  0  0
   41.6777   26.8838   44.2294 H   0  0  0  0  0  0  0  0  0  0  0  0
   42.9098   28.8254   44.9422 H   0  0  0  0  0  0  0  0  0  0  0  0
   42.3043   28.6556   46.6067 H   0  0  0  0  0  0  0  0  0  0  0  0
  1 20  1  0
  1 19  1  0
  2  7  2  0
  3  2  1  0
  4  3  2  0
  4  5  1  0
  5  6  2  0
  6  7  1  0
  6  1  1  0
  8  4  1  0
  9  8  1  0
 10 11  1  0
 10  9  2  0
 11 18  2  0
 12 14  1  0
 12 11  1  0
 13 12  2  0
 14 15  1  0
 15 17  2  0
 15 16  1  0
 18  8  1  0
 18 17  1  0
 21 22  1  0
 21  1  1  0
 22 23  2  0
 23 24  1  0
 25 24  1  0
 26 25  2  0
 26 22  1  0
 27 25  1  0
 27 28  1  0
 29 28  1  0
 30 29  1  0
 31 32  1  0
 31 30  1  0
 32 27  1  0
  2 33  1  0
  3 34  1  0
  9 35  1  0
 14 36  1  0
 16 37  1  0
 16 38  1  0
 19 39  1  0
 19 40  1  0
 19 41  1  0
 20 42  1  0
 20 43  1  0
 20 44  1  0
 21 45  1  0
 21 46  1  0
 23 47  1  0
 27 48  1  0
 28 49  1  0
 28 50  1  0
 29 51  1  0
 29 52  1  0
 30 53  1  0
 30 54  1  0
 31 55  1  0
 31 56  1  0
 32 57  1  0
 32 58  1  0
M  ISO  8  33  14  34  14  35  14  36   9  39   8  40   8  41   8  42   8
M  ISO  8  43   8  44   8  45   8  46   8  47  14  48  13  49  13  50  13
M  ISO  8  51  13  52  13  53  13  54  13  55  13  56  13  57  13  58  13
M  END
>  <minimizedAffinity>  (1) 
-7.57383966

>  <minimizedRMSD>  (1) 
0.777591884

$$$$
