
     RDKit          3D

 48 51  0  0  0  0  0  0  0  0999 V2000
   44.5200   35.0370   46.1690 C   0  0  0  0  0  0  0  0  0  0  0  0
   44.7530   35.0440   44.7830 C   0  0  0  0  0  0  0  0  0  0  0  0
   45.4740   33.9690   44.2250 C   0  0  0  0  0  0  0  0  0  0  0  0
   45.8960   32.9980   45.0580 N   0  0  0  0  0  0  0  0  0  0  0  0
   45.6460   33.0350   46.3930 C   0  0  0  0  0  0  0  0  0  0  0  0
   44.9660   34.0430   46.9410 N   0  0  0  0  0  0  0  0  0  0  0  0
   45.6880   34.0130   42.8250 N   0  0  0  0  0  0  0  0  0  0  0  0
   44.9460   33.8250   41.7480 C   0  0  0  0  0  0  0  0  0  0  0  0
   45.6730   33.9950   40.6260 N   0  0  0  0  0  0  0  0  0  0  0  0
   46.9340   34.3060   40.9960 C   0  0  0  0  0  0  0  0  0  0  0  0
   48.0640   34.5760   40.2380 C   0  0  0  0  0  0  0  0  0  0  0  0
   48.0610   34.5680   39.0010 O   0  0  0  0  0  0  0  0  0  0  0  0
   49.2300   34.8660   40.8670 N   0  0  0  0  0  0  0  0  0  0  0  0
   49.2180   34.8710   42.1990 C   0  0  0  0  0  0  0  0  0  0  0  0
   50.3750   35.1600   42.9580 N   0  0  0  0  0  0  0  0  0  0  0  0
   48.1300   34.6100   42.9250 N   0  0  0  0  0  0  0  0  0  0  0  0
   46.9340   34.3140   42.3810 C   0  0  0  0  0  0  0  0  0  0  0  0
   46.1170   31.9610   47.2950 C   0  0  0  0  0  0  0  0  0  0  0  0
   47.2920   32.4270   48.1210 C   0  0  0  0  0  0  0  0  0  0  0  0
   45.0280   31.4650   48.2160 C   0  0  0  0  0  0  0  0  0  0  0  0
   46.6020   30.8200   46.4120 C   0  0  0  0  0  0  0  0  0  0  0  0
   45.7650   29.5860   46.5870 C   0  0  0  0  0  0  0  0  0  0  0  0
   46.1920   28.6230   47.4290 C   0  0  0  0  0  0  0  0  0  0  0  0
   44.9030   27.3050   47.3570 S   0  0  0  0  0  0  0  0  0  0  0  0
   43.9460   28.3690   46.1120 C   0  0  0  0  0  0  0  0  0  0  0  0
   44.6380   29.3030   46.0170 N   0  0  0  0  0  0  0  0  0  0  0  0
   42.6260   28.0000   45.4660 C   0  0  0  0  0  0  0  0  0  0  0  0
   42.2540   26.6460   45.9880 C   0  0  0  0  0  0  0  0  0  0  0  0
   43.9598   35.8659   46.6263 H   0  0  0  0  0  0  0  0  0  0  0  0
   44.3831   35.8652   44.1515 H   0  0  0  0  0  0  0  0  0  0  0  0
   43.8774   33.5645   41.7649 H   0  0  0  0  0  0  0  0  0  0  0  0
   50.0885   35.0736   40.3372 H   0  0  0  0  0  0  0  0  0  0  0  0
   50.3304   35.1552   43.9870 H   0  0  0  0  0  0  0  0  0  0  0  0
   51.2627   35.3754   42.4820 H   0  0  0  0  0  0  0  0  0  0  0  0
   47.0500   32.3310   49.1897 H   0  0  0  0  0  0  0  0  0  0  0  0
   48.1721   31.8098   47.8875 H   0  0  0  0  0  0  0  0  0  0  0  0
   47.5099   33.4796   47.8875 H   0  0  0  0  0  0  0  0  0  0  0  0
   45.3392   31.6067   49.2615 H   0  0  0  0  0  0  0  0  0  0  0  0
   44.1035   32.0308   48.0287 H   0  0  0  0  0  0  0  0  0  0  0  0
   44.8480   30.3961   48.0287 H   0  0  0  0  0  0  0  0  0  0  0  0
   47.6437   30.5841   46.6750 H   0  0  0  0  0  0  0  0  0  0  0  0
   46.5226   31.1415   45.3630 H   0  0  0  0  0  0  0  0  0  0  0  0
   47.1129   28.6233   48.0307 H   0  0  0  0  0  0  0  0  0  0  0  0
   42.7355   27.9674   44.3720 H   0  0  0  0  0  0  0  0  0  0  0  0
   41.8491   28.7420   45.7024 H   0  0  0  0  0  0  0  0  0  0  0  0
   42.2587   26.6631   47.0879 H   0  0  0  0  0  0  0  0  0  0  0  0
   41.2490   26.3783   45.6297 H   0  0  0  0  0  0  0  0  0  0  0  0
   42.9811   25.9024   45.6297 H   0  0  0  0  0  0  0  0  0  0  0  0
  1  6  2  0
  2  1  1  0
  3  2  2  0
  3  4  1  0
  4  5  2  0
  5  6  1  0
  5 18  1  0
  7  3  1  0
  8  7  1  0
  9 10  1  0
  9  8  2  0
 10 17  2  0
 11 13  1  0
 11 10  1  0
 12 11  2  0
 13 14  1  0
 14 16  2  0
 14 15  1  0
 17  7  1  0
 17 16  1  0
 18 19  1  0
 18 20  1  0
 21 22  1  0
 21 18  1  0
 22 23  2  0
 24 23  1  0
 25 24  1  0
 26 25  2  0
 26 22  1  0
 27 28  1  0
 27 25  1  0
  1 29  1  0
  2 30  1  0
  8 31  1  0
 13 32  1  0
 15 33  1  0
 15 34  1  0
 19 35  1  0
 19 36  1  0
 19 37  1  0
 20 38  1  0
 20 39  1  0
 20 40  1  0
 21 41  1  0
 21 42  1  0
 23 43  1  0
 27 44  1  0
 27 45  1  0
 28 46  1  0
 28 47  1  0
 28 48  1  0
M  ISO  8  29  14  30  14  31  14  32   9  35   8  36   8  37   8  38   8
M  ISO  8  39   8  40   8  41   8  42   8  43  14  44   8  45   8  46   8
M  ISO  2  47   8  48   8
M  END
>  <minimizedAffinity>  (1) 
-6.87280512

>  <minimizedRMSD>  (1) 
0.134368971

$$$$
