
     RDKit          3D

 49 53  0  0  0  0  0  0  0  0999 V2000
   44.5430   35.0020   46.1780 C   0  0  0  0  0  0  0  0  0  0  0  0
   44.7770   35.0050   44.7940 C   0  0  0  0  0  0  0  0  0  0  0  0
   45.4840   33.9200   44.2290 C   0  0  0  0  0  0  0  0  0  0  0  0
   45.8910   32.9480   45.0600 N   0  0  0  0  0  0  0  0  0  0  0  0
   45.6440   32.9820   46.3990 C   0  0  0  0  0  0  0  0  0  0  0  0
   44.9770   34.0000   46.9470 N   0  0  0  0  0  0  0  0  0  0  0  0
   45.6950   33.9660   42.8360 N   0  0  0  0  0  0  0  0  0  0  0  0
   44.9410   33.7650   41.7580 C   0  0  0  0  0  0  0  0  0  0  0  0
   45.6720   33.9450   40.6330 N   0  0  0  0  0  0  0  0  0  0  0  0
   46.9190   34.2690   40.9990 C   0  0  0  0  0  0  0  0  0  0  0  0
   48.0370   34.5510   40.2430 C   0  0  0  0  0  0  0  0  0  0  0  0
   48.0530   34.5470   39.0030 O   0  0  0  0  0  0  0  0  0  0  0  0
   49.2130   34.8570   40.8490 N   0  0  0  0  0  0  0  0  0  0  0  0
   49.2050   34.8640   42.1900 C   0  0  0  0  0  0  0  0  0  0  0  0
   50.3660   35.1670   42.9650 N   0  0  0  0  0  0  0  0  0  0  0  0
   48.1330   34.5930   42.9240 N   0  0  0  0  0  0  0  0  0  0  0  0
   46.9390   34.2830   42.3770 C   0  0  0  0  0  0  0  0  0  0  0  0
   46.1020   31.8980   47.2940 C   0  0  0  0  0  0  0  0  0  0  0  0
   47.2490   32.3690   48.1650 C   0  0  0  0  0  0  0  0  0  0  0  0
   44.9880   31.3890   48.1850 C   0  0  0  0  0  0  0  0  0  0  0  0
   46.6180   30.7820   46.4150 C   0  0  0  0  0  0  0  0  0  0  0  0
   45.6720   29.6020   46.4000 C   0  0  0  0  0  0  0  0  0  0  0  0
   45.8770   28.5900   47.2680 C   0  0  0  0  0  0  0  0  0  0  0  0
   44.5320   27.3840   46.9280 S   0  0  0  0  0  0  0  0  0  0  0  0
   43.8900   28.5440   45.5830 C   0  0  0  0  0  0  0  0  0  0  0  0
   44.6430   29.4240   45.6330 N   0  0  0  0  0  0  0  0  0  0  0  0
   42.6340   28.1170   44.7890 C   0  0  0  0  0  0  0  0  0  0  0  0
   41.3530   28.7030   45.2490 C   0  0  0  0  0  0  0  0  0  0  0  0
   41.7190   27.2780   45.5410 C   0  0  0  0  0  0  0  0  0  0  0  0
   43.9938   35.8377   46.6362 H   0  0  0  0  0  0  0  0  0  0  0  0
   44.4184   35.8325   44.1642 H   0  0  0  0  0  0  0  0  0  0  0  0
   43.8757   33.4916   41.7783 H   0  0  0  0  0  0  0  0  0  0  0  0
   50.0634   35.0717   40.3090 H   0  0  0  0  0  0  0  0  0  0  0  0
   50.3146   35.1608   43.9937 H   0  0  0  0  0  0  0  0  0  0  0  0
   51.2546   35.3917   42.4951 H   0  0  0  0  0  0  0  0  0  0  0  0
   46.9751   32.2565   49.2244 H   0  0  0  0  0  0  0  0  0  0  0  0
   48.1434   31.7654   47.9514 H   0  0  0  0  0  0  0  0  0  0  0  0
   47.4611   33.4270   47.9514 H   0  0  0  0  0  0  0  0  0  0  0  0
   45.2732   31.5193   49.2394 H   0  0  0  0  0  0  0  0  0  0  0  0
   44.0676   31.9559   47.9814 H   0  0  0  0  0  0  0  0  0  0  0  0
   44.8141   30.3221   47.9814 H   0  0  0  0  0  0  0  0  0  0  0  0
   46.7330   31.1603   45.3885 H   0  0  0  0  0  0  0  0  0  0  0  0
   47.5833   30.4438   46.8197 H   0  0  0  0  0  0  0  0  0  0  0  0
   46.6771   28.5047   48.0181 H   0  0  0  0  0  0  0  0  0  0  0  0
   43.1316   28.0488   43.8104 H   0  0  0  0  0  0  0  0  0  0  0  0
   41.3429   29.4498   46.0566 H   0  0  0  0  0  0  0  0  0  0  0  0
   40.5054   29.2170   44.7722 H   0  0  0  0  0  0  0  0  0  0  0  0
   41.1844   26.4593   45.0372 H   0  0  0  0  0  0  0  0  0  0  0  0
   41.7966   26.6676   46.4528 H   0  0  0  0  0  0  0  0  0  0  0  0
  1  6  2  0
  2  1  1  0
  3  2  2  0
  3  4  1  0
  4  5  2  0
  5  6  1  0
  5 18  1  0
  7  3  1  0
  8  7  1  0
  9 10  1  0
  9  8  2  0
 10 17  2  0
 11 13  1  0
 11 10  1  0
 12 11  2  0
 13 14  1  0
 14 16  2  0
 14 15  1  0
 17  7  1  0
 17 16  1  0
 18 19  1  0
 18 20  1  0
 21 18  1  0
 22 21  1  0
 22 23  2  0
 24 23  1  0
 25 26  2  0
 25 24  1  0
 26 22  1  0
 27 28  1  0
 27 29  1  0
 27 25  1  0
 28 29  1  0
  1 30  1  0
  2 31  1  0
  8 32  1  0
 13 33  1  0
 15 34  1  0
 15 35  1  0
 19 36  1  0
 19 37  1  0
 19 38  1  0
 20 39  1  0
 20 40  1  0
 20 41  1  0
 21 42  1  0
 21 43  1  0
 23 44  1  0
 27 45  1  0
 28 46  1  0
 28 47  1  0
 29 48  1  0
 29 49  1  0
M  ISO  8  30  14  31  14  32  14  33   9  36   8  37   8  38   8  39   8
M  ISO  8  40   8  41   8  42   8  43   8  44  14  45  13  46  13  47  13
M  ISO  2  48  13  49  13
M  END
>  <minimizedAffinity>  (1) 
-6.98789215

>  <minimizedRMSD>  (1) 
0.375565708

$$$$
