
     RDKit          3D

 45 48  0  0  0  0  0  0  0  0999 V2000
   44.5510   34.9580   46.2090 C   0  0  0  0  0  0  0  0  0  0  0  0
   44.7750   34.9640   44.8270 C   0  0  0  0  0  0  0  0  0  0  0  0
   45.5140   33.8970   44.2580 C   0  0  0  0  0  0  0  0  0  0  0  0
   45.9600   32.9370   45.0900 N   0  0  0  0  0  0  0  0  0  0  0  0
   45.7170   32.9750   46.4330 C   0  0  0  0  0  0  0  0  0  0  0  0
   45.0220   33.9740   46.9740 N   0  0  0  0  0  0  0  0  0  0  0  0
   45.7160   33.9420   42.8630 N   0  0  0  0  0  0  0  0  0  0  0  0
   44.9600   33.7330   41.7920 C   0  0  0  0  0  0  0  0  0  0  0  0
   45.6800   33.9190   40.6610 N   0  0  0  0  0  0  0  0  0  0  0  0
   46.9230   34.2510   41.0170 C   0  0  0  0  0  0  0  0  0  0  0  0
   48.0550   34.5480   40.2580 C   0  0  0  0  0  0  0  0  0  0  0  0
   48.0340   34.5350   39.0230 O   0  0  0  0  0  0  0  0  0  0  0  0
   49.2190   34.8610   40.8560 N   0  0  0  0  0  0  0  0  0  0  0  0
   49.2140   34.8690   42.1970 C   0  0  0  0  0  0  0  0  0  0  0  0
   50.3760   35.1820   42.9570 N   0  0  0  0  0  0  0  0  0  0  0  0
   48.1540   34.5920   42.9410 N   0  0  0  0  0  0  0  0  0  0  0  0
   46.9580   34.2690   42.4070 C   0  0  0  0  0  0  0  0  0  0  0  0
   46.2070   31.9230   47.3300 C   0  0  0  0  0  0  0  0  0  0  0  0
   47.4130   32.4110   48.1190 C   0  0  0  0  0  0  0  0  0  0  0  0
   45.1620   31.4380   48.2880 C   0  0  0  0  0  0  0  0  0  0  0  0
   46.6900   30.7740   46.4530 C   0  0  0  0  0  0  0  0  0  0  0  0
   45.7480   29.5940   46.5200 C   0  0  0  0  0  0  0  0  0  0  0  0
   46.0820   28.5450   47.3060 C   0  0  0  0  0  0  0  0  0  0  0  0
   44.6930   27.3560   47.1030 S   0  0  0  0  0  0  0  0  0  0  0  0
   43.8660   28.5720   45.9210 C   0  0  0  0  0  0  0  0  0  0  0  0
   44.6210   29.4470   45.9050 N   0  0  0  0  0  0  0  0  0  0  0  0
   42.5750   28.1600   45.3510 C   0  0  0  0  0  0  0  0  0  0  0  0
   42.3060   27.0030   44.9460 O   0  0  0  0  0  0  0  0  0  0  0  0
   41.6530   29.1810   45.2960 O   0  0  0  0  0  0  0  0  0  0  0  0
   43.9785   35.7767   46.6694 H   0  0  0  0  0  0  0  0  0  0  0  0
   44.3864   35.7780   44.1974 H   0  0  0  0  0  0  0  0  0  0  0  0
   43.8978   33.4486   41.8198 H   0  0  0  0  0  0  0  0  0  0  0  0
   50.0665   35.0821   40.3141 H   0  0  0  0  0  0  0  0  0  0  0  0
   50.3347   35.1782   43.9862 H   0  0  0  0  0  0  0  0  0  0  0  0
   51.2582   35.4123   42.4778 H   0  0  0  0  0  0  0  0  0  0  0  0
   47.2051   32.3269   49.1959 H   0  0  0  0  0  0  0  0  0  0  0  0
   48.2898   31.7969   47.8658 H   0  0  0  0  0  0  0  0  0  0  0  0
   47.6160   33.4620   47.8658 H   0  0  0  0  0  0  0  0  0  0  0  0
   45.5077   31.5985   49.3198 H   0  0  0  0  0  0  0  0  0  0  0  0
   44.2274   31.9944   48.1237 H   0  0  0  0  0  0  0  0  0  0  0  0
   44.9836   30.3651   48.1237 H   0  0  0  0  0  0  0  0  0  0  0  0
   47.6859   30.4566   46.7958 H   0  0  0  0  0  0  0  0  0  0  0  0
   46.7290   31.1266   45.4118 H   0  0  0  0  0  0  0  0  0  0  0  0
   46.9823   28.4289   47.9273 H   0  0  0  0  0  0  0  0  0  0  0  0
   40.7491   29.0125   44.9290 H   0  0  0  0  0  0  0  0  0  0  0  0
  1  6  2  0
  2  1  1  0
  3  2  2  0
  3  4  1  0
  4  5  2  0
  5  6  1  0
  5 18  1  0
  7  3  1  0
  8  7  1  0
  9 10  1  0
  9  8  2  0
 10 17  2  0
 11 13  1  0
 11 10  1  0
 12 11  2  0
 13 14  1  0
 14 16  2  0
 14 15  1  0
 17  7  1  0
 17 16  1  0
 18 19  1  0
 18 20  1  0
 21 22  1  0
 21 18  1  0
 22 23  2  0
 24 23  1  0
 25 24  1  0
 26 25  2  0
 26 22  1  0
 27 25  1  0
 28 27  2  0
 29 27  1  0
  1 30  1  0
  2 31  1  0
  8 32  1  0
 13 33  1  0
 15 34  1  0
 15 35  1  0
 19 36  1  0
 19 37  1  0
 19 38  1  0
 20 39  1  0
 20 40  1  0
 20 41  1  0
 21 42  1  0
 21 43  1  0
 23 44  1  0
 29 45  1  0
M  ISO  8  30  14  31  14  32  14  33   9  36   8  37   8  38   8  39   8
M  ISO  6  40   8  41   8  42   8  43   8  44  14  45   3
M  END
>  <minimizedAffinity>  (1) 
-6.97539663

>  <minimizedRMSD>  (1) 
0.300580949

$$$$
