
     RDKit          3D

 26 27  0  0  0  0  0  0  0  0999 V2000
   48.2900   34.4570   40.7610 C   0  0  0  0  0  0  0  0  0  0  0  0
   49.2100   33.3420   40.9940 C   0  0  0  0  0  0  0  0  0  0  0  0
   50.1460   33.7460   42.1320 C   0  0  0  0  0  0  0  0  0  0  0  0
   49.6550   35.0690   42.6740 C   0  0  0  0  0  0  0  0  0  0  0  0
   48.9390   35.6550   41.5110 C   0  0  0  0  0  0  0  0  0  0  0  0
   46.9310   34.3430   41.3140 C   0  0  0  0  0  0  0  0  0  0  0  0
   46.1250   33.2540   40.9350 C   0  0  0  0  0  0  0  0  0  0  0  0
   44.8450   33.1260   41.4700 C   0  0  0  0  0  0  0  0  0  0  0  0
   44.4520   34.1020   42.3570 N   0  0  0  0  0  0  0  0  0  0  0  0
   45.2420   35.1320   42.7020 C   0  0  0  0  0  0  0  0  0  0  0  0
   46.4780   35.2520   42.1830 N   0  0  0  0  0  0  0  0  0  0  0  0
   44.7250   36.1100   43.6510 C   0  0  0  0  0  0  0  0  0  0  0  0
   45.1920   37.2590   43.7000 O   0  0  0  0  0  0  0  0  0  0  0  0
   43.6970   35.8100   44.5330 O   0  0  0  0  0  0  0  0  0  0  0  0
   48.1591   34.5306   39.6713 H   0  0  0  0  0  0  0  0  0  0  0  0
   48.6444   32.4414   41.2752 H   0  0  0  0  0  0  0  0  0  0  0  0
   49.7839   33.1176   40.0828 H   0  0  0  0  0  0  0  0  0  0  0  0
   50.1246   32.9838   42.9248 H   0  0  0  0  0  0  0  0  0  0  0  0
   51.1810   33.8349   41.7702 H   0  0  0  0  0  0  0  0  0  0  0  0
   48.9740   34.9205   43.5250 H   0  0  0  0  0  0  0  0  0  0  0  0
   50.4629   35.7101   43.0566 H   0  0  0  0  0  0  0  0  0  0  0  0
   49.6457   36.1811   40.8523 H   0  0  0  0  0  0  0  0  0  0  0  0
   48.1837   36.3883   41.8299 H   0  0  0  0  0  0  0  0  0  0  0  0
   46.5032   32.5080   40.2205 H   0  0  0  0  0  0  0  0  0  0  0  0
   44.1841   32.2898   41.1980 H   0  0  0  0  0  0  0  0  0  0  0  0
   43.3699   36.4986   45.1646 H   0  0  0  0  0  0  0  0  0  0  0  0
  1  2  1  0
  1  6  1  0
  1  5  1  0
  2  3  1  0
  3  4  1  0
  5  4  1  0
  6 11  1  0
  7  6  2  0
  7  8  1  0
  8  9  2  0
  9 10  1  0
 10 12  1  0
 11 10  2  0
 12 13  2  0
 12 14  1  0
  1 15  1  0
  2 16  1  0
  2 17  1  0
  3 18  1  0
  3 19  1  0
  4 20  1  0
  4 21  1  0
  5 22  1  0
  5 23  1  0
  7 24  1  0
  8 25  1  0
 14 26  1  0
M  ISO  8  15  13  16  13  17  13  18  13  19  13  20  13  21  13  22  13
M  ISO  4  23  13  24  14  25  14  26   3
M  END
>  <minimizedAffinity>  (1) 
-5.0067687

>  <minimizedRMSD>  (1) 
3.19393253

$$$$
