
     RDKit          3D

 43 46  0  0  0  0  0  0  0  0999 V2000
   44.5110   35.0550   46.1630 C   0  0  0  0  0  0  0  0  0  0  0  0
   44.7510   35.0490   44.7800 C   0  0  0  0  0  0  0  0  0  0  0  0
   45.4720   33.9800   44.2240 C   0  0  0  0  0  0  0  0  0  0  0  0
   45.8940   33.0160   45.0600 N   0  0  0  0  0  0  0  0  0  0  0  0
   45.6420   33.0560   46.3960 C   0  0  0  0  0  0  0  0  0  0  0  0
   44.9600   34.0620   46.9380 N   0  0  0  0  0  0  0  0  0  0  0  0
   45.6870   34.0180   42.8320 N   0  0  0  0  0  0  0  0  0  0  0  0
   44.9240   33.8230   41.7480 C   0  0  0  0  0  0  0  0  0  0  0  0
   45.6610   33.9900   40.6240 N   0  0  0  0  0  0  0  0  0  0  0  0
   46.9140   34.2970   40.9890 C   0  0  0  0  0  0  0  0  0  0  0  0
   48.0500   34.5660   40.2270 C   0  0  0  0  0  0  0  0  0  0  0  0
   48.0390   34.5500   39.0030 O   0  0  0  0  0  0  0  0  0  0  0  0
   49.2190   34.8570   40.8450 N   0  0  0  0  0  0  0  0  0  0  0  0
   49.2060   34.8670   42.1970 C   0  0  0  0  0  0  0  0  0  0  0  0
   50.3710   35.1570   42.9560 N   0  0  0  0  0  0  0  0  0  0  0  0
   48.1200   34.6100   42.9190 N   0  0  0  0  0  0  0  0  0  0  0  0
   46.9250   34.3150   42.3780 C   0  0  0  0  0  0  0  0  0  0  0  0
   46.1150   31.9850   47.3030 C   0  0  0  0  0  0  0  0  0  0  0  0
   47.2900   32.4640   48.1250 C   0  0  0  0  0  0  0  0  0  0  0  0
   45.0430   31.5040   48.2350 C   0  0  0  0  0  0  0  0  0  0  0  0
   46.6110   30.8450   46.4250 C   0  0  0  0  0  0  0  0  0  0  0  0
   45.7760   29.6140   46.6060 C   0  0  0  0  0  0  0  0  0  0  0  0
   46.2110   28.6290   47.4230 C   0  0  0  0  0  0  0  0  0  0  0  0
   44.9220   27.3240   47.3680 S   0  0  0  0  0  0  0  0  0  0  0  0
   43.9380   28.4050   46.1640 C   0  0  0  0  0  0  0  0  0  0  0  0
   44.6310   29.3430   46.0610 N   0  0  0  0  0  0  0  0  0  0  0  0
   42.6880   28.1760   45.5310 O   0  0  0  0  0  0  0  0  0  0  0  0
   43.9477   35.8852   46.6140 H   0  0  0  0  0  0  0  0  0  0  0  0
   44.3812   35.8665   44.1436 H   0  0  0  0  0  0  0  0  0  0  0  0
   43.8549   33.5649   41.7680 H   0  0  0  0  0  0  0  0  0  0  0  0
   50.0761   35.0608   40.3114 H   0  0  0  0  0  0  0  0  0  0  0  0
   50.3285   35.1567   43.9851 H   0  0  0  0  0  0  0  0  0  0  0  0
   51.2583   35.3676   42.4773 H   0  0  0  0  0  0  0  0  0  0  0  0
   47.0528   32.3673   49.1948 H   0  0  0  0  0  0  0  0  0  0  0  0
   48.1751   31.8549   47.8892 H   0  0  0  0  0  0  0  0  0  0  0  0
   47.4970   33.5183   47.8892 H   0  0  0  0  0  0  0  0  0  0  0  0
   45.3689   31.6502   49.2754 H   0  0  0  0  0  0  0  0  0  0  0  0
   44.1192   32.0739   48.0566 H   0  0  0  0  0  0  0  0  0  0  0  0
   44.8546   30.4350   48.0566 H   0  0  0  0  0  0  0  0  0  0  0  0
   47.6526   30.6138   46.6928 H   0  0  0  0  0  0  0  0  0  0  0  0
   46.5398   31.1608   45.3737 H   0  0  0  0  0  0  0  0  0  0  0  0
   47.1460   28.6129   48.0022 H   0  0  0  0  0  0  0  0  0  0  0  0
   42.3104   28.8573   44.9199 H   0  0  0  0  0  0  0  0  0  0  0  0
  1  6  2  0
  2  1  1  0
  3  2  2  0
  3  4  1  0
  4  5  2  0
  5  6  1  0
  5 18  1  0
  7  3  1  0
  8  7  1  0
  9 10  1  0
  9  8  2  0
 10 17  2  0
 11 13  1  0
 11 10  1  0
 12 11  2  0
 13 14  1  0
 14 16  2  0
 14 15  1  0
 17  7  1  0
 17 16  1  0
 18 19  1  0
 18 20  1  0
 21 22  1  0
 21 18  1  0
 22 23  2  0
 24 23  1  0
 25 24  1  0
 26 25  2  0
 26 22  1  0
 27 25  1  0
  1 28  1  0
  2 29  1  0
  8 30  1  0
 13 31  1  0
 15 32  1  0
 15 33  1  0
 19 34  1  0
 19 35  1  0
 19 36  1  0
 20 37  1  0
 20 38  1  0
 20 39  1  0
 21 40  1  0
 21 41  1  0
 23 42  1  0
 27 43  1  0
M  ISO  8  28  14  29  14  30  14  31   9  34   8  35   8  36   8  37   8
M  ISO  6  38   8  39   8  40   8  41   8  42  14  43   3
M  END
>  <minimizedAffinity>  (1) 
-6.89062071

>  <minimizedRMSD>  (1) 
0.0311530381

$$$$
