
     RDKit          3D

 44 47  0  0  0  0  0  0  0  0999 V2000
   44.5090   35.0630   46.1620 C   0  0  0  0  0  0  0  0  0  0  0  0
   44.7470   35.0620   44.7800 C   0  0  0  0  0  0  0  0  0  0  0  0
   45.4690   33.9870   44.2220 C   0  0  0  0  0  0  0  0  0  0  0  0
   45.8900   33.0180   45.0590 N   0  0  0  0  0  0  0  0  0  0  0  0
   45.6340   33.0610   46.3960 C   0  0  0  0  0  0  0  0  0  0  0  0
   44.9540   34.0710   46.9360 N   0  0  0  0  0  0  0  0  0  0  0  0
   45.6840   34.0280   42.8300 N   0  0  0  0  0  0  0  0  0  0  0  0
   44.9320   33.8390   41.7450 C   0  0  0  0  0  0  0  0  0  0  0  0
   45.6680   34.0050   40.6240 N   0  0  0  0  0  0  0  0  0  0  0  0
   46.9120   34.3060   40.9890 C   0  0  0  0  0  0  0  0  0  0  0  0
   48.0470   34.5710   40.2350 C   0  0  0  0  0  0  0  0  0  0  0  0
   48.0550   34.5640   38.9990 O   0  0  0  0  0  0  0  0  0  0  0  0
   49.2240   34.8580   40.8530 N   0  0  0  0  0  0  0  0  0  0  0  0
   49.2100   34.8660   42.1990 C   0  0  0  0  0  0  0  0  0  0  0  0
   50.3750   35.1500   42.9540 N   0  0  0  0  0  0  0  0  0  0  0  0
   48.1290   34.6130   42.9300 N   0  0  0  0  0  0  0  0  0  0  0  0
   46.9340   34.3230   42.3810 C   0  0  0  0  0  0  0  0  0  0  0  0
   46.1080   31.9820   47.3020 C   0  0  0  0  0  0  0  0  0  0  0  0
   47.2780   32.4630   48.1230 C   0  0  0  0  0  0  0  0  0  0  0  0
   45.0230   31.5010   48.2220 C   0  0  0  0  0  0  0  0  0  0  0  0
   46.6000   30.8500   46.4200 C   0  0  0  0  0  0  0  0  0  0  0  0
   45.7800   29.6120   46.6130 C   0  0  0  0  0  0  0  0  0  0  0  0
   46.2030   28.6460   47.4550 C   0  0  0  0  0  0  0  0  0  0  0  0
   44.9440   27.3310   47.4100 S   0  0  0  0  0  0  0  0  0  0  0  0
   43.9600   28.3690   46.1610 C   0  0  0  0  0  0  0  0  0  0  0  0
   44.6470   29.3140   46.0530 N   0  0  0  0  0  0  0  0  0  0  0  0
   42.6860   28.1230   45.4780 N   0  0  0  0  0  0  0  0  0  0  0  0
   43.9474   35.8935   46.6147 H   0  0  0  0  0  0  0  0  0  0  0  0
   44.3787   35.8815   44.1454 H   0  0  0  0  0  0  0  0  0  0  0  0
   43.8622   33.5837   41.7604 H   0  0  0  0  0  0  0  0  0  0  0  0
   50.0815   35.0588   40.3189 H   0  0  0  0  0  0  0  0  0  0  0  0
   50.3346   35.1490   43.9832 H   0  0  0  0  0  0  0  0  0  0  0  0
   51.2622   35.3574   42.4736 H   0  0  0  0  0  0  0  0  0  0  0  0
   47.0403   32.3653   49.1925 H   0  0  0  0  0  0  0  0  0  0  0  0
   48.1651   31.8566   47.8876 H   0  0  0  0  0  0  0  0  0  0  0  0
   47.4821   33.5180   47.8876 H   0  0  0  0  0  0  0  0  0  0  0  0
   45.3389   31.6411   49.2663 H   0  0  0  0  0  0  0  0  0  0  0  0
   44.1036   32.0759   48.0368 H   0  0  0  0  0  0  0  0  0  0  0  0
   44.8316   30.4337   48.0368 H   0  0  0  0  0  0  0  0  0  0  0  0
   47.6475   30.6286   46.6726 H   0  0  0  0  0  0  0  0  0  0  0  0
   46.5103   31.1648   45.3698 H   0  0  0  0  0  0  0  0  0  0  0  0
   47.1271   28.6518   48.0516 H   0  0  0  0  0  0  0  0  0  0  0  0
   42.3096   28.8226   44.8225 H   0  0  0  0  0  0  0  0  0  0  0  0
   42.1675   27.2506   45.6538 H   0  0  0  0  0  0  0  0  0  0  0  0
  1  6  2  0
  2  1  1  0
  3  2  2  0
  3  4  1  0
  4  5  2  0
  5  6  1  0
  5 18  1  0
  7  3  1  0
  8  7  1  0
  9 10  1  0
  9  8  2  0
 10 17  2  0
 11 13  1  0
 11 10  1  0
 12 11  2  0
 13 14  1  0
 14 16  2  0
 14 15  1  0
 17  7  1  0
 17 16  1  0
 18 19  1  0
 18 20  1  0
 21 22  1  0
 21 18  1  0
 22 23  2  0
 24 23  1  0
 25 24  1  0
 26 25  2  0
 26 22  1  0
 27 25  1  0
  1 28  1  0
  2 29  1  0
  8 30  1  0
 13 31  1  0
 15 32  1  0
 15 33  1  0
 19 34  1  0
 19 35  1  0
 19 36  1  0
 20 37  1  0
 20 38  1  0
 20 39  1  0
 21 40  1  0
 21 41  1  0
 23 42  1  0
 27 43  1  0
 27 44  1  0
M  ISO  8  28  14  29  14  30  14  31   9  34   8  35   8  36   8  37   8
M  ISO  5  38   8  39   8  40   8  41   8  42  14
M  END
>  <minimizedAffinity>  (1) 
-6.9046278

>  <minimizedRMSD>  (1) 
0.0113286069

$$$$
