
     RDKit          3D

 25 26  0  0  0  0  0  0  0  0999 V2000
   48.1200   34.6260   40.7520 C   0  0  0  0  0  0  0  0  0  0  0  0
   48.8890   33.3970   40.9310 C   0  0  0  0  0  0  0  0  0  0  0  0
   49.9230   33.6440   42.0290 C   0  0  0  0  0  0  0  0  0  0  0  0
   49.6660   35.0290   42.5770 C   0  0  0  0  0  0  0  0  0  0  0  0
   48.9760   35.7150   41.4550 C   0  0  0  0  0  0  0  0  0  0  0  0
   46.7940   34.7050   41.3820 C   0  0  0  0  0  0  0  0  0  0  0  0
   46.6690   35.3520   42.6250 C   0  0  0  0  0  0  0  0  0  0  0  0
   45.4150   35.4570   43.2270 C   0  0  0  0  0  0  0  0  0  0  0  0
   44.3620   34.9020   42.5380 N   0  0  0  0  0  0  0  0  0  0  0  0
   44.5110   34.2870   41.3490 C   0  0  0  0  0  0  0  0  0  0  0  0
   45.7170   34.1910   40.7780 N   0  0  0  0  0  0  0  0  0  0  0  0
   43.3310   33.7290   40.6960 C   0  0  0  0  0  0  0  0  0  0  0  0
   42.2450   33.7000   41.3360 O   0  0  0  0  0  0  0  0  0  0  0  0
   47.9311   34.7191   39.6723 H   0  0  0  0  0  0  0  0  0  0  0  0
   48.2186   32.5767   41.2270 H   0  0  0  0  0  0  0  0  0  0  0  0
   49.3880   33.1176   39.9914 H   0  0  0  0  0  0  0  0  0  0  0  0
   49.8119   32.8955   42.8274 H   0  0  0  0  0  0  0  0  0  0  0  0
   50.9450   33.5639   41.6300 H   0  0  0  0  0  0  0  0  0  0  0  0
   49.0235   34.9874   43.4689 H   0  0  0  0  0  0  0  0  0  0  0  0
   50.5839   35.5432   42.8980 H   0  0  0  0  0  0  0  0  0  0  0  0
   49.7115   36.1356   40.7534 H   0  0  0  0  0  0  0  0  0  0  0  0
   48.3542   36.5489   41.8127 H   0  0  0  0  0  0  0  0  0  0  0  0
   47.5564   35.7733   43.1201 H   0  0  0  0  0  0  0  0  0  0  0  0
   45.2762   35.9554   44.1977 H   0  0  0  0  0  0  0  0  0  0  0  0
   43.3879   33.3421   39.6678 H   0  0  0  0  0  0  0  0  0  0  0  0
  1  2  1  0
  1  6  1  0
  1  5  1  0
  2  3  1  0
  3  4  1  0
  5  4  1  0
  6  7  2  0
  7  8  1  0
  9  8  2  0
 10  9  1  0
 11 10  2  0
 11  6  1  0
 12 13  2  0
 12 10  1  0
  1 14  1  0
  2 15  1  0
  2 16  1  0
  3 17  1  0
  3 18  1  0
  4 19  1  0
  4 20  1  0
  5 21  1  0
  5 22  1  0
  7 23  1  0
  8 24  1  0
 12 25  1  0
M  ISO  8  14  13  15  13  16  13  17  13  18  13  19  13  20  13  21  13
M  ISO  4  22  13  23  14  24  14  25   6
M  END
>  <minimizedAffinity>  (1) 
-4.39639711

>  <minimizedRMSD>  (1) 
2.96563792

$$$$
