
     RDKit          3D

 36 38  0  0  0  0  0  0  0  0999 V2000
   44.8830   34.7410   41.6590 C   0  0  0  0  0  0  0  0  0  0  0  0
   45.8660   34.1140   42.5330 C   0  0  0  0  0  0  0  0  0  0  0  0
   45.7060   34.6970   43.9380 C   0  0  0  0  0  0  0  0  0  0  0  0
   44.5290   35.6450   43.8880 C   0  0  0  0  0  0  0  0  0  0  0  0
   44.4320   36.0010   42.4500 C   0  0  0  0  0  0  0  0  0  0  0  0
   43.6440   33.9980   41.3760 C   0  0  0  0  0  0  0  0  0  0  0  0
   43.5090   32.6870   41.8690 C   0  0  0  0  0  0  0  0  0  0  0  0
   42.3300   31.9820   41.6220 C   0  0  0  0  0  0  0  0  0  0  0  0
   41.3610   32.6250   40.9010 N   0  0  0  0  0  0  0  0  0  0  0  0
   41.5230   33.8970   40.4370 C   0  0  0  0  0  0  0  0  0  0  0  0
   42.6510   34.5610   40.6770 N   0  0  0  0  0  0  0  0  0  0  0  0
   40.3790   34.4780   39.6620 C   0  0  0  0  0  0  0  0  0  0  0  0
   39.0640   33.9110   40.0940 C   0  0  0  0  0  0  0  0  0  0  0  0
   38.2890   33.6450   38.8230 C   0  0  0  0  0  0  0  0  0  0  0  0
   39.0690   34.3490   37.7160 C   0  0  0  0  0  0  0  0  0  0  0  0
   40.4960   34.2080   38.1990 C   0  0  0  0  0  0  0  0  0  0  0  0
   45.3704   34.8737   40.6819 H   0  0  0  0  0  0  0  0  0  0  0  0
   45.6985   33.0272   42.5607 H   0  0  0  0  0  0  0  0  0  0  0  0
   46.8820   34.3066   42.1578 H   0  0  0  0  0  0  0  0  0  0  0  0
   45.5128   33.8918   44.6621 H   0  0  0  0  0  0  0  0  0  0  0  0
   46.6204   35.2205   44.2539 H   0  0  0  0  0  0  0  0  0  0  0  0
   43.6098   35.1492   44.2332 H   0  0  0  0  0  0  0  0  0  0  0  0
   44.6574   36.5223   44.5390 H   0  0  0  0  0  0  0  0  0  0  0  0
   45.0925   36.8507   42.2223 H   0  0  0  0  0  0  0  0  0  0  0  0
   43.4082   36.2986   42.1793 H   0  0  0  0  0  0  0  0  0  0  0  0
   44.3243   32.2225   42.4431 H   0  0  0  0  0  0  0  0  0  0  0  0
   42.1863   30.9555   41.9904 H   0  0  0  0  0  0  0  0  0  0  0  0
   40.4218   35.5590   39.8611 H   0  0  0  0  0  0  0  0  0  0  0  0
   39.2157   32.9755   40.6524 H   0  0  0  0  0  0  0  0  0  0  0  0
   38.5249   34.6026   40.7582 H   0  0  0  0  0  0  0  0  0  0  0  0
   38.2324   32.5642   38.6261 H   0  0  0  0  0  0  0  0  0  0  0  0
   37.2544   34.0125   38.8909 H   0  0  0  0  0  0  0  0  0  0  0  0
   38.7779   35.4065   37.6322 H   0  0  0  0  0  0  0  0  0  0  0  0
   38.8958   33.9282   36.7145 H   0  0  0  0  0  0  0  0  0  0  0  0
   40.8788   33.1937   38.0128 H   0  0  0  0  0  0  0  0  0  0  0  0
   41.1975   34.8829   37.6867 H   0  0  0  0  0  0  0  0  0  0  0  0
  1  5  1  0
  1  2  1  0
  2  3  1  0
  4  3  1  0
  5  4  1  0
  6  1  1  0
  6  7  2  0
  8  7  1  0
  9  8  2  0
 10 11  2  0
 10  9  1  0
 11  6  1  0
 12 13  1  0
 12 10  1  0
 14 13  1  0
 15 16  1  0
 15 14  1  0
 16 12  1  0
  1 17  1  0
  2 18  1  0
  2 19  1  0
  3 20  1  0
  3 21  1  0
  4 22  1  0
  4 23  1  0
  5 24  1  0
  5 25  1  0
  7 26  1  0
  8 27  1  0
 12 28  1  0
 13 29  1  0
 13 30  1  0
 14 31  1  0
 14 32  1  0
 15 33  1  0
 15 34  1  0
 16 35  1  0
 16 36  1  0
M  ISO  8  17  13  18  13  19  13  20  13  21  13  22  13  23  13  24  13
M  ISO  8  25  13  26  14  27  14  28  13  29  13  30  13  31  13  32  13
M  ISO  4  33  13  34  13  35  13  36  13
M  END
>  <minimizedAffinity>  (1) 
-5.00073576

>  <minimizedRMSD>  (1) 
4.61547422

$$$$
