
     RDKit          3D

 26 27  0  0  0  0  0  0  0  0999 V2000
   47.5780   33.8870   37.3200 C   0  0  0  0  0  0  0  0  0  0  0  0
   46.2940   33.2630   36.9940 C   0  0  0  0  0  0  0  0  0  0  0  0
   46.5770   32.0280   36.1390 C   0  0  0  0  0  0  0  0  0  0  0  0
   48.0780   31.8630   36.0740 C   0  0  0  0  0  0  0  0  0  0  0  0
   48.5850   33.2350   36.3280 C   0  0  0  0  0  0  0  0  0  0  0  0
   48.1370   33.6280   38.6590 C   0  0  0  0  0  0  0  0  0  0  0  0
   48.6830   32.3600   38.9400 C   0  0  0  0  0  0  0  0  0  0  0  0
   49.2340   32.1110   40.1960 C   0  0  0  0  0  0  0  0  0  0  0  0
   49.2020   33.1530   41.0940 N   0  0  0  0  0  0  0  0  0  0  0  0
   48.6750   34.3540   40.8000 C   0  0  0  0  0  0  0  0  0  0  0  0
   48.1450   34.5900   39.5880 N   0  0  0  0  0  0  0  0  0  0  0  0
   48.7150   35.3810   41.8780 C   0  0  0  0  0  0  0  0  0  0  0  0
   47.3960   35.7070   42.2260 F   0  0  0  0  0  0  0  0  0  0  0  0
   49.2870   36.5610   41.4620 F   0  0  0  0  0  0  0  0  0  0  0  0
   49.3840   34.9220   43.0020 F   0  0  0  0  0  0  0  0  0  0  0  0
   47.4190   34.9742   37.2683 H   0  0  0  0  0  0  0  0  0  0  0  0
   45.7765   32.9672   37.9185 H   0  0  0  0  0  0  0  0  0  0  0  0
   45.6519   33.9693   36.4473 H   0  0  0  0  0  0  0  0  0  0  0  0
   46.1198   31.1391   36.5981 H   0  0  0  0  0  0  0  0  0  0  0  0
   46.1534   32.1460   35.1307 H   0  0  0  0  0  0  0  0  0  0  0  0
   48.4311   31.1635   36.8460 H   0  0  0  0  0  0  0  0  0  0  0  0
   48.4238   31.4474   35.1160 H   0  0  0  0  0  0  0  0  0  0  0  0
   49.5896   33.1948   36.7743 H   0  0  0  0  0  0  0  0  0  0  0  0
   48.6653   33.8141   35.3962 H   0  0  0  0  0  0  0  0  0  0  0  0
   48.6746   31.5715   38.1731 H   0  0  0  0  0  0  0  0  0  0  0  0
   49.6704   31.1351   40.4550 H   0  0  0  0  0  0  0  0  0  0  0  0
  1  6  1  0
  2  1  1  0
  3  2  1  0
  4  3  1  0
  4  5  1  0
  5  1  1  0
  6  7  2  0
  6 11  1  0
  7  8  1  0
  8  9  2  0
 10  9  1  0
 10 12  1  0
 11 10  2  0
 12 13  1  0
 12 15  1  0
 14 12  1  0
  1 16  1  0
  2 17  1  0
  2 18  1  0
  3 19  1  0
  3 20  1  0
  4 21  1  0
  4 22  1  0
  5 23  1  0
  5 24  1  0
  7 25  1  0
  8 26  1  0
M  ISO  8  16  13  17  13  18  13  19  13  20  13  21  13  22  13  23  13
M  ISO  3  24  13  25  14  26  14
M  END
>  <minimizedAffinity>  (1) 
-4.38649225

>  <minimizedRMSD>  (1) 
5.85704756

$$$$
