
     RDKit          3D

 24 25  0  0  0  0  0  0  0  0999 V2000
   45.6570   35.4860   42.8200 C   0  0  0  0  0  0  0  0  0  0  0  0
   46.8780   34.6920   42.9220 C   0  0  0  0  0  0  0  0  0  0  0  0
   46.7250   33.7660   44.1310 C   0  0  0  0  0  0  0  0  0  0  0  0
   45.3260   33.9560   44.6700 C   0  0  0  0  0  0  0  0  0  0  0  0
   44.9630   35.3150   44.2020 C   0  0  0  0  0  0  0  0  0  0  0  0
   44.6500   35.0740   41.8300 C   0  0  0  0  0  0  0  0  0  0  0  0
   45.0120   34.1450   40.8400 C   0  0  0  0  0  0  0  0  0  0  0  0
   44.0630   33.7310   39.9060 C   0  0  0  0  0  0  0  0  0  0  0  0
   42.8060   34.2790   40.0250 N   0  0  0  0  0  0  0  0  0  0  0  0
   42.4890   35.1700   40.9860 C   0  0  0  0  0  0  0  0  0  0  0  0
   43.4030   35.5560   41.8700 N   0  0  0  0  0  0  0  0  0  0  0  0
   40.8090   35.7890   41.0040 S   0  0  0  0  0  0  0  0  0  0  0  0
   45.9745   36.4933   42.5125 H   0  0  0  0  0  0  0  0  0  0  0  0
   47.0160   34.0962   42.0077 H   0  0  0  0  0  0  0  0  0  0  0  0
   47.7554   35.3444   43.0423 H   0  0  0  0  0  0  0  0  0  0  0  0
   46.8712   32.7198   43.8244 H   0  0  0  0  0  0  0  0  0  0  0  0
   47.4740   34.0042   44.9006 H   0  0  0  0  0  0  0  0  0  0  0  0
   44.6394   33.2011   44.2593 H   0  0  0  0  0  0  0  0  0  0  0  0
   45.2668   33.8465   45.7629 H   0  0  0  0  0  0  0  0  0  0  0  0
   45.3270   36.0740   44.9101 H   0  0  0  0  0  0  0  0  0  0  0  0
   43.8727   35.4396   44.1261 H   0  0  0  0  0  0  0  0  0  0  0  0
   46.0368   33.7471   40.8020 H   0  0  0  0  0  0  0  0  0  0  0  0
   44.3060   33.0051   39.1161 H   0  0  0  0  0  0  0  0  0  0  0  0
   40.3927   35.9424   42.3002 H   0  0  0  0  0  0  0  0  0  0  0  0
  1  2  1  0
  1  5  1  0
  2  3  1  0
  3  4  1  0
  5  4  1  0
  6 11  1  0
  6  1  1  0
  7  6  2  0
  8  9  2  0
  8  7  1  0
  9 10  1  0
 10 12  1  0
 10 11  2  0
  1 13  1  0
  2 14  1  0
  2 15  1  0
  3 16  1  0
  3 17  1  0
  4 18  1  0
  4 19  1  0
  5 20  1  0
  5 21  1  0
  7 22  1  0
  8 23  1  0
 12 24  1  0
M  ISO  8  13  13  14  13  15  13  16  13  17  13  18  13  19  13  20  13
M  ISO  4  21  13  22  14  23  14  24  11
M  END
>  <minimizedAffinity>  (1) 
-4.0006094

>  <minimizedRMSD>  (1) 
3.36572242

$$$$
