
     RDKit          3D

 24 25  0  0  0  0  0  0  0  0999 V2000
   46.6800   34.5490   41.0560 C   0  0  0  0  0  0  0  0  0  0  0  0
   48.0030   34.6010   40.4260 C   0  0  0  0  0  0  0  0  0  0  0  0
   49.0390   34.7220   41.5430 C   0  0  0  0  0  0  0  0  0  0  0  0
   48.3010   34.5700   42.8550 C   0  0  0  0  0  0  0  0  0  0  0  0
   46.9290   35.0300   42.5100 C   0  0  0  0  0  0  0  0  0  0  0  0
   46.0400   33.2320   41.1760 C   0  0  0  0  0  0  0  0  0  0  0  0
   46.5910   32.1410   40.4780 C   0  0  0  0  0  0  0  0  0  0  0  0
   46.0050   30.8820   40.5990 C   0  0  0  0  0  0  0  0  0  0  0  0
   44.9030   30.7940   41.4150 N   0  0  0  0  0  0  0  0  0  0  0  0
   44.3980   31.8560   42.0710 C   0  0  0  0  0  0  0  0  0  0  0  0
   44.9630   33.0610   41.9490 N   0  0  0  0  0  0  0  0  0  0  0  0
   43.2810   31.7360   42.8880 O   0  0  0  0  0  0  0  0  0  0  0  0
   46.0048   35.1422   40.4218 H   0  0  0  0  0  0  0  0  0  0  0  0
   48.1799   33.6823   39.8475 H   0  0  0  0  0  0  0  0  0  0  0  0
   48.0718   35.4575   39.7392 H   0  0  0  0  0  0  0  0  0  0  0  0
   49.7961   33.9304   41.4424 H   0  0  0  0  0  0  0  0  0  0  0  0
   49.5543   35.6926   41.4946 H   0  0  0  0  0  0  0  0  0  0  0  0
   48.2963   33.5219   43.1890 H   0  0  0  0  0  0  0  0  0  0  0  0
   48.7570   35.1344   43.6817 H   0  0  0  0  0  0  0  0  0  0  0  0
   46.8660   36.1267   42.5676 H   0  0  0  0  0  0  0  0  0  0  0  0
   46.1781   34.6274   43.2058 H   0  0  0  0  0  0  0  0  0  0  0  0
   47.4774   32.2808   39.8418 H   0  0  0  0  0  0  0  0  0  0  0  0
   46.4040   30.0047   40.0688 H   0  0  0  0  0  0  0  0  0  0  0  0
   42.9262   32.5299   43.3612 H   0  0  0  0  0  0  0  0  0  0  0  0
  1  6  1  0
  1  5  1  0
  2  1  1  0
  2  3  1  0
  3  4  1  0
  5  4  1  0
  6 11  2  0
  7  8  2  0
  7  6  1  0
  8  9  1  0
  9 10  2  0
 10 12  1  0
 11 10  1  0
  1 13  1  0
  2 14  1  0
  2 15  1  0
  3 16  1  0
  3 17  1  0
  4 18  1  0
  4 19  1  0
  5 20  1  0
  5 21  1  0
  7 22  1  0
  8 23  1  0
 12 24  1  0
M  ISO  8  13  13  14  13  15  13  16  13  17  13  18  13  19  13  20  13
M  ISO  4  21  13  22  14  23  14  24   3
M  END
>  <minimizedAffinity>  (1) 
-3.2373023

>  <minimizedRMSD>  (1) 
0.538329303

$$$$
