
     RDKit          3D

 38 41  0  0  0  0  0  0  0  0999 V2000
   48.3740   34.0980   40.6590 C   0  0  0  0  0  0  0  0  0  0  0  0
   49.1510   32.9390   40.6910 C   0  0  0  0  0  0  0  0  0  0  0  0
   49.4320   32.2230   39.5150 C   0  0  0  0  0  0  0  0  0  0  0  0
   48.8970   32.7390   38.3620 N   0  0  0  0  0  0  0  0  0  0  0  0
   48.1510   33.8610   38.3650 C   0  0  0  0  0  0  0  0  0  0  0  0
   47.8830   34.5490   39.5070 N   0  0  0  0  0  0  0  0  0  0  0  0
   47.5810   34.3900   37.1600 N   0  0  0  0  0  0  0  0  0  0  0  0
   50.2160   31.0380   39.4880 N   0  0  0  0  0  0  0  0  0  0  0  0
   49.8260   29.8620   40.0250 C   0  0  0  0  0  0  0  0  0  0  0  0
   50.8210   28.9760   39.8070 N   0  0  0  0  0  0  0  0  0  0  0  0
   51.8120   29.5740   39.1510 C   0  0  0  0  0  0  0  0  0  0  0  0
   53.0550   29.1730   38.6700 C   0  0  0  0  0  0  0  0  0  0  0  0
   53.8150   30.0860   38.0320 N   0  0  0  0  0  0  0  0  0  0  0  0
   53.4370   31.3650   37.8360 C   0  0  0  0  0  0  0  0  0  0  0  0
   52.2270   31.7760   38.2990 N   0  0  0  0  0  0  0  0  0  0  0  0
   51.4400   30.8950   38.9400 C   0  0  0  0  0  0  0  0  0  0  0  0
   48.1060   34.7920   41.9140 C   0  0  0  0  0  0  0  0  0  0  0  0
   48.3960   34.1500   43.1710 C   0  0  0  0  0  0  0  0  0  0  0  0
   47.0930   33.5450   43.7170 C   0  0  0  0  0  0  0  0  0  0  0  0
   46.0170   33.8010   42.6770 C   0  0  0  0  0  0  0  0  0  0  0  0
   46.5360   34.9570   41.9380 C   0  0  0  0  0  0  0  0  0  0  0  0
   53.4870   27.8290   38.8590 N   0  0  0  0  0  0  0  0  0  0  0  0
   49.5495   32.5805   41.6516 H   0  0  0  0  0  0  0  0  0  0  0  0
   47.0148   35.2498   37.1924 H   0  0  0  0  0  0  0  0  0  0  0  0
   47.7379   33.9101   36.2622 H   0  0  0  0  0  0  0  0  0  0  0  0
   48.8760   29.6633   40.5428 H   0  0  0  0  0  0  0  0  0  0  0  0
   54.0993   32.0670   37.3082 H   0  0  0  0  0  0  0  0  0  0  0  0
   48.7636   35.6733   41.8845 H   0  0  0  0  0  0  0  0  0  0  0  0
   49.1403   33.3544   43.0191 H   0  0  0  0  0  0  0  0  0  0  0  0
   48.8019   34.8817   43.8850 H   0  0  0  0  0  0  0  0  0  0  0  0
   47.2157   32.4635   43.8757 H   0  0  0  0  0  0  0  0  0  0  0  0
   46.8230   33.9984   44.6821 H   0  0  0  0  0  0  0  0  0  0  0  0
   45.8937   32.9317   42.0143 H   0  0  0  0  0  0  0  0  0  0  0  0
   45.0246   33.9793   43.1168 H   0  0  0  0  0  0  0  0  0  0  0  0
   46.2581   35.8917   42.4470 H   0  0  0  0  0  0  0  0  0  0  0  0
   46.1210   35.0028   40.9203 H   0  0  0  0  0  0  0  0  0  0  0  0
   54.4062   27.5288   38.5044 H   0  0  0  0  0  0  0  0  0  0  0  0
   52.8802   27.1573   39.3503 H   0  0  0  0  0  0  0  0  0  0  0  0
  1  2  2  0
  1 17  1  0
  3  2  1  0
  4  5  1  0
  4  3  2  0
  5  6  2  0
  6  1  1  0
  7  5  1  0
  8  3  1  0
  8  9  1  0
 10  9  2  0
 11 10  1  0
 12 22  1  0
 12 11  2  0
 13 12  1  0
 14 13  2  0
 14 15  1  0
 15 16  2  0
 16 11  1  0
 16  8  1  0
 17 21  1  0
 17 18  1  0
 18 19  1  0
 20 19  1  0
 21 20  1  0
  2 23  1  0
  7 24  1  0
  7 25  1  0
  9 26  1  0
 14 27  1  0
 17 28  1  0
 18 29  1  0
 18 30  1  0
 19 31  1  0
 19 32  1  0
 20 33  1  0
 20 34  1  0
 21 35  1  0
 21 36  1  0
 22 37  1  0
 22 38  1  0
M  ISO  8  23  14  26  14  27  14  28  13  29  13  30  13  31  13  32  13
M  ISO  4  33  13  34  13  35  13  36  13
M  END
>  <minimizedAffinity>  (1) 
-4.89709616

>  <minimizedRMSD>  (1) 
0.472765207

$$$$
