
     RDKit          3D

 41 44  0  0  0  0  0  0  0  0999 V2000
   48.5730   34.0110   40.4190 C   0  0  0  0  0  0  0  0  0  0  0  0
   49.2400   32.7940   40.3570 C   0  0  0  0  0  0  0  0  0  0  0  0
   49.3460   32.0850   39.1730 C   0  0  0  0  0  0  0  0  0  0  0  0
   48.7390   32.6990   38.0850 N   0  0  0  0  0  0  0  0  0  0  0  0
   48.0980   33.8780   38.1610 C   0  0  0  0  0  0  0  0  0  0  0  0
   48.0220   34.5250   39.3280 N   0  0  0  0  0  0  0  0  0  0  0  0
   47.5010   34.4390   36.9890 N   0  0  0  0  0  0  0  0  0  0  0  0
   48.4730   34.7100   41.7070 C   0  0  0  0  0  0  0  0  0  0  0  0
   48.8570   34.0490   42.9170 C   0  0  0  0  0  0  0  0  0  0  0  0
   47.6020   33.4730   43.5950 C   0  0  0  0  0  0  0  0  0  0  0  0
   46.4280   33.8080   42.6810 C   0  0  0  0  0  0  0  0  0  0  0  0
   46.9270   34.9500   41.9090 C   0  0  0  0  0  0  0  0  0  0  0  0
   50.0310   30.8590   38.8460 C   0  0  0  0  0  0  0  0  0  0  0  0
   49.2780   29.6760   38.9500 C   0  0  0  0  0  0  0  0  0  0  0  0
   49.7480   28.4090   38.6930 C   0  0  0  0  0  0  0  0  0  0  0  0
   51.0600   28.2840   38.3020 C   0  0  0  0  0  0  0  0  0  0  0  0
   51.8650   29.3930   38.1790 C   0  0  0  0  0  0  0  0  0  0  0  0
   53.1660   29.2360   37.8250 C   0  0  0  0  0  0  0  0  0  0  0  0
   54.0300   30.3270   37.7250 C   0  0  0  0  0  0  0  0  0  0  0  0
   53.4660   31.5650   38.0120 C   0  0  0  0  0  0  0  0  0  0  0  0
   52.1410   31.6750   38.3660 C   0  0  0  0  0  0  0  0  0  0  0  0
   51.3090   30.6150   38.4570 C   0  0  0  0  0  0  0  0  0  0  0  0
   49.6948   32.3840   41.2708 H   0  0  0  0  0  0  0  0  0  0  0  0
   47.0090   35.3423   37.0436 H   0  0  0  0  0  0  0  0  0  0  0  0
   47.5629   33.9398   36.0902 H   0  0  0  0  0  0  0  0  0  0  0  0
   49.1670   35.5570   41.6028 H   0  0  0  0  0  0  0  0  0  0  0  0
   49.5577   33.2334   42.6850 H   0  0  0  0  0  0  0  0  0  0  0  0
   49.3472   34.7661   43.5919 H   0  0  0  0  0  0  0  0  0  0  0  0
   47.6970   32.3830   43.7085 H   0  0  0  0  0  0  0  0  0  0  0  0
   47.4600   33.8984   44.5994 H   0  0  0  0  0  0  0  0  0  0  0  0
   46.1855   32.9611   42.0223 H   0  0  0  0  0  0  0  0  0  0  0  0
   45.5002   34.0276   43.2296 H   0  0  0  0  0  0  0  0  0  0  0  0
   46.7563   35.8860   42.4610 H   0  0  0  0  0  0  0  0  0  0  0  0
   46.4074   35.0360   40.9433 H   0  0  0  0  0  0  0  0  0  0  0  0
   48.2276   29.7715   39.2623 H   0  0  0  0  0  0  0  0  0  0  0  0
   49.0977   27.5279   38.7966 H   0  0  0  0  0  0  0  0  0  0  0  0
   51.4706   27.2868   38.0852 H   0  0  0  0  0  0  0  0  0  0  0  0
   53.5475   28.2264   37.6123 H   0  0  0  0  0  0  0  0  0  0  0  0
   55.0861   30.2152   37.4384 H   0  0  0  0  0  0  0  0  0  0  0  0
   54.0885   32.4701   37.9552 H   0  0  0  0  0  0  0  0  0  0  0  0
   51.7396   32.6753   38.5857 H   0  0  0  0  0  0  0  0  0  0  0  0
  1  8  1  0
  2  1  2  0
  3  2  1  0
  4  5  1  0
  4  3  2  0
  5  6  2  0
  6  1  1  0
  7  5  1  0
  8 12  1  0
  8  9  1  0
  9 10  1  0
 11 10  1  0
 12 11  1  0
 13 14  2  0
 13  3  1  0
 15 14  1  0
 16 15  2  0
 17 16  1  0
 17 22  2  0
 18 17  1  0
 19 18  2  0
 19 20  1  0
 20 21  2  0
 21 22  1  0
 22 13  1  0
  2 23  1  0
  7 24  1  0
  7 25  1  0
  8 26  1  0
  9 27  1  0
  9 28  1  0
 10 29  1  0
 10 30  1  0
 11 31  1  0
 11 32  1  0
 12 33  1  0
 12 34  1  0
 14 35  1  0
 15 36  1  0
 16 37  1  0
 18 38  1  0
 19 39  1  0
 20 40  1  0
 21 41  1  0
M  ISO  8  23  14  26  13  27  13  28  13  29  13  30  13  31  13  32  13
M  ISO  8  33  13  34  13  35  14  36  14  37  14  38  14  39  14  40  14
M  ISO  1  41  14
M  END
>  <minimizedAffinity>  (1) 
-4.72549248

>  <minimizedRMSD>  (1) 
0.513010204

$$$$
