
     RDKit          3D

 38 40  0  0  0  0  0  0  0  0999 V2000
   48.4450   34.0880   40.6530 C   0  0  0  0  0  0  0  0  0  0  0  0
   49.1110   32.8410   40.6620 C   0  0  0  0  0  0  0  0  0  0  0  0
   49.3010   32.1470   39.4760 C   0  0  0  0  0  0  0  0  0  0  0  0
   48.8150   32.7320   38.3430 N   0  0  0  0  0  0  0  0  0  0  0  0
   48.1810   33.9250   38.3630 C   0  0  0  0  0  0  0  0  0  0  0  0
   47.9890   34.6150   39.5120 N   0  0  0  0  0  0  0  0  0  0  0  0
   47.7000   34.4740   37.1350 N   0  0  0  0  0  0  0  0  0  0  0  0
   49.9490   30.8980   39.3480 N   0  0  0  0  0  0  0  0  0  0  0  0
   49.9860   29.8490   40.3400 C   0  0  0  0  0  0  0  0  0  0  0  0
   51.4310   29.5720   40.7720 C   0  0  0  0  0  0  0  0  0  0  0  0
   52.2610   30.1410   39.8100 O   0  0  0  0  0  0  0  0  0  0  0  0
   51.8330   29.6630   38.5600 C   0  0  0  0  0  0  0  0  0  0  0  0
   50.6680   30.5380   38.1530 C   0  0  0  0  0  0  0  0  0  0  0  0
   48.2430   34.7850   41.9190 C   0  0  0  0  0  0  0  0  0  0  0  0
   48.5340   34.1270   43.1600 C   0  0  0  0  0  0  0  0  0  0  0  0
   47.2290   33.5550   43.7390 C   0  0  0  0  0  0  0  0  0  0  0  0
   46.1300   33.8750   42.7370 C   0  0  0  0  0  0  0  0  0  0  0  0
   46.6850   35.0150   41.9980 C   0  0  0  0  0  0  0  0  0  0  0  0
   49.4787   32.4209   41.6098 H   0  0  0  0  0  0  0  0  0  0  0  0
   47.2145   35.3824   37.1322 H   0  0  0  0  0  0  0  0  0  0  0  0
   47.8387   33.9614   36.2524 H   0  0  0  0  0  0  0  0  0  0  0  0
   49.3986   30.1587   41.2170 H   0  0  0  0  0  0  0  0  0  0  0  0
   49.5617   28.9319   39.9053 H   0  0  0  0  0  0  0  0  0  0  0  0
   51.6250   30.0267   41.7547 H   0  0  0  0  0  0  0  0  0  0  0  0
   51.6141   28.4907   40.8576 H   0  0  0  0  0  0  0  0  0  0  0  0
   52.6454   29.7416   37.8226 H   0  0  0  0  0  0  0  0  0  0  0  0
   51.5409   28.6038   38.6132 H   0  0  0  0  0  0  0  0  0  0  0  0
   51.0381   31.4444   37.6516 H   0  0  0  0  0  0  0  0  0  0  0  0
   50.0090   30.0003   37.4554 H   0  0  0  0  0  0  0  0  0  0  0  0
   48.9388   35.6354   41.8677 H   0  0  0  0  0  0  0  0  0  0  0  0
   49.2498   33.3102   42.9858 H   0  0  0  0  0  0  0  0  0  0  0  0
   48.9727   34.8451   43.8685 H   0  0  0  0  0  0  0  0  0  0  0  0
   47.3174   32.4664   43.8702 H   0  0  0  0  0  0  0  0  0  0  0  0
   47.0071   33.9928   44.7234 H   0  0  0  0  0  0  0  0  0  0  0  0
   45.9434   33.0221   42.0679 H   0  0  0  0  0  0  0  0  0  0  0  0
   45.1605   34.0926   43.2090 H   0  0  0  0  0  0  0  0  0  0  0  0
   46.4663   35.9537   42.5281 H   0  0  0  0  0  0  0  0  0  0  0  0
   46.2435   35.0894   40.9933 H   0  0  0  0  0  0  0  0  0  0  0  0
  1  2  2  0
  1 14  1  0
  3  2  1  0
  4  5  1  0
  4  3  2  0
  5  6  2  0
  6  1  1  0
  7  5  1  0
  8  3  1  0
  8  9  1  0
  9 10  1  0
 11 10  1  0
 12 11  1  0
 13 12  1  0
 13  8  1  0
 14 18  1  0
 14 15  1  0
 15 16  1  0
 17 16  1  0
 18 17  1  0
  2 19  1  0
  7 20  1  0
  7 21  1  0
  9 22  1  0
  9 23  1  0
 10 24  1  0
 10 25  1  0
 12 26  1  0
 12 27  1  0
 13 28  1  0
 13 29  1  0
 14 30  1  0
 15 31  1  0
 15 32  1  0
 16 33  1  0
 16 34  1  0
 17 35  1  0
 17 36  1  0
 18 37  1  0
 18 38  1  0
M  ISO  8  19  14  22  13  23  13  24  13  25  13  26  13  27  13  28  13
M  ISO  8  29  13  30  13  31  13  32  13  33  13  34  13  35  13  36  13
M  ISO  2  37  13  38  13
M  END
>  <minimizedAffinity>  (1) 
-4.3457756

>  <minimizedRMSD>  (1) 
0.0855739862

$$$$
