
     RDKit          3D

 32 33  0  0  0  0  0  0  0  0999 V2000
   48.4020   34.0980   40.6730 C   0  0  0  0  0  0  0  0  0  0  0  0
   49.1710   32.9150   40.7080 C   0  0  0  0  0  0  0  0  0  0  0  0
   49.4270   32.2200   39.5370 C   0  0  0  0  0  0  0  0  0  0  0  0
   48.8890   32.7600   38.3790 N   0  0  0  0  0  0  0  0  0  0  0  0
   48.1610   33.8910   38.3830 C   0  0  0  0  0  0  0  0  0  0  0  0
   47.9050   34.5770   39.5260 N   0  0  0  0  0  0  0  0  0  0  0  0
   47.6180   34.4090   37.1730 N   0  0  0  0  0  0  0  0  0  0  0  0
   50.1660   31.0240   39.3880 N   0  0  0  0  0  0  0  0  0  0  0  0
   51.3450   30.9280   38.6040 C   0  0  0  0  0  0  0  0  0  0  0  0
   52.2040   31.9030   38.7460 N   0  0  0  0  0  0  0  0  0  0  0  0
   51.5170   29.7910   37.7270 N   0  0  0  0  0  0  0  0  0  0  0  0
   53.0890   31.9470   38.2360 H   0  0  0  0  0  0  0  0  0  0  0  0
   48.1420   34.7890   41.9350 C   0  0  0  0  0  0  0  0  0  0  0  0
   48.4030   34.1420   43.1890 C   0  0  0  0  0  0  0  0  0  0  0  0
   47.1020   33.5160   43.7160 C   0  0  0  0  0  0  0  0  0  0  0  0
   46.0280   33.8260   42.6870 C   0  0  0  0  0  0  0  0  0  0  0  0
   46.5800   34.9820   41.9710 C   0  0  0  0  0  0  0  0  0  0  0  0
   49.5671   32.5447   41.6651 H   0  0  0  0  0  0  0  0  0  0  0  0
   47.0620   35.2759   37.1876 H   0  0  0  0  0  0  0  0  0  0  0  0
   47.7812   33.9168   36.2830 H   0  0  0  0  0  0  0  0  0  0  0  0
   49.8316   30.1792   39.8732 H   0  0  0  0  0  0  0  0  0  0  0  0
   50.7879   29.0653   37.6757 H   0  0  0  0  0  0  0  0  0  0  0  0
   52.3686   29.7070   37.1537 H   0  0  0  0  0  0  0  0  0  0  0  0
   48.8234   35.6518   41.8988 H   0  0  0  0  0  0  0  0  0  0  0  0
   49.1584   33.3552   43.0467 H   0  0  0  0  0  0  0  0  0  0  0  0
   48.7780   34.8794   43.9140 H   0  0  0  0  0  0  0  0  0  0  0  0
   47.2208   32.4279   43.8257 H   0  0  0  0  0  0  0  0  0  0  0  0
   46.8364   33.9213   44.7035 H   0  0  0  0  0  0  0  0  0  0  0  0
   45.8755   32.9755   42.0063 H   0  0  0  0  0  0  0  0  0  0  0  0
   45.0430   34.0237   43.1349 H   0  0  0  0  0  0  0  0  0  0  0  0
   46.3252   35.9123   42.4998 H   0  0  0  0  0  0  0  0  0  0  0  0
   46.1666   35.0514   40.9540 H   0  0  0  0  0  0  0  0  0  0  0  0
  1  2  2  0
  1 13  1  0
  3  2  1  0
  4  5  1  0
  4  3  2  0
  5  6  2  0
  6  1  1  0
  7  5  1  0
  8  3  1  0
  9 10  2  0
  9  8  1  0
 11  9  1  0
 12 10  1  0
 13 17  1  0
 13 14  1  0
 14 15  1  0
 16 15  1  0
 17 16  1  0
  2 18  1  0
  7 19  1  0
  7 20  1  0
  8 21  1  0
 11 22  1  0
 11 23  1  0
 13 24  1  0
 14 25  1  0
 14 26  1  0
 15 27  1  0
 15 28  1  0
 16 29  1  0
 16 30  1  0
 17 31  1  0
 17 32  1  0
M  ISO  8  18  14  24  13  25  13  26  13  27  13  28  13  29  13  30  13
M  ISO  2  31  13  32  13
M  END
>  <minimizedAffinity>  (1) 
-4.61279964

>  <minimizedRMSD>  (1) 
0.256018758

$$$$
