
     RDKit          3D

 39 42  0  0  0  0  0  0  0  0999 V2000
   48.4880   34.0370   40.4870 C   0  0  0  0  0  0  0  0  0  0  0  0
   49.1960   32.8380   40.4810 C   0  0  0  0  0  0  0  0  0  0  0  0
   49.3620   32.1250   39.2860 C   0  0  0  0  0  0  0  0  0  0  0  0
   48.7880   32.6880   38.1650 N   0  0  0  0  0  0  0  0  0  0  0  0
   48.1120   33.8440   38.2130 C   0  0  0  0  0  0  0  0  0  0  0  0
   47.9620   34.5140   39.3620 N   0  0  0  0  0  0  0  0  0  0  0  0
   47.5140   34.3650   37.0400 N   0  0  0  0  0  0  0  0  0  0  0  0
   48.3220   34.7600   41.7450 C   0  0  0  0  0  0  0  0  0  0  0  0
   48.6840   34.1190   42.9880 C   0  0  0  0  0  0  0  0  0  0  0  0
   47.4070   33.5430   43.6320 C   0  0  0  0  0  0  0  0  0  0  0  0
   46.2610   33.8470   42.6690 C   0  0  0  0  0  0  0  0  0  0  0  0
   46.7650   34.9790   41.8880 C   0  0  0  0  0  0  0  0  0  0  0  0
   50.1150   30.8930   39.4030 C   0  0  0  0  0  0  0  0  0  0  0  0
   49.5660   29.7970   39.9560 N   0  0  0  0  0  0  0  0  0  0  0  0
   50.1760   28.6220   40.1070 C   0  0  0  0  0  0  0  0  0  0  0  0
   51.4450   28.4440   39.6980 N   0  0  0  0  0  0  0  0  0  0  0  0
   52.1170   29.4810   39.1210 C   0  0  0  0  0  0  0  0  0  0  0  0
   53.4170   29.3510   38.6850 C   0  0  0  0  0  0  0  0  0  0  0  0
   54.0890   30.4040   38.1010 C   0  0  0  0  0  0  0  0  0  0  0  0
   53.3860   31.6070   37.9740 C   0  0  0  0  0  0  0  0  0  0  0  0
   52.0910   31.6890   38.4230 C   0  0  0  0  0  0  0  0  0  0  0  0
   51.4050   30.6510   39.0070 C   0  0  0  0  0  0  0  0  0  0  0  0
   49.6259   32.4497   41.4161 H   0  0  0  0  0  0  0  0  0  0  0  0
   46.9946   35.2536   37.0778 H   0  0  0  0  0  0  0  0  0  0  0  0
   47.5984   33.8554   36.1489 H   0  0  0  0  0  0  0  0  0  0  0  0
   48.9945   35.6251   41.6481 H   0  0  0  0  0  0  0  0  0  0  0  0
   49.3994   33.3067   42.7919 H   0  0  0  0  0  0  0  0  0  0  0  0
   49.1516   34.8484   43.6657 H   0  0  0  0  0  0  0  0  0  0  0  0
   47.5084   32.4566   43.7712 H   0  0  0  0  0  0  0  0  0  0  0  0
   47.2244   33.9885   44.6211 H   0  0  0  0  0  0  0  0  0  0  0  0
   46.0522   32.9833   42.0206 H   0  0  0  0  0  0  0  0  0  0  0  0
   45.3145   34.0681   43.1841 H   0  0  0  0  0  0  0  0  0  0  0  0
   46.5598   35.9244   42.4115 H   0  0  0  0  0  0  0  0  0  0  0  0
   46.2769   35.0348   40.9038 H   0  0  0  0  0  0  0  0  0  0  0  0
   49.6341   27.7857   40.5727 H   0  0  0  0  0  0  0  0  0  0  0  0
   53.9306   28.3857   38.8053 H   0  0  0  0  0  0  0  0  0  0  0  0
   55.1273   30.3031   37.7520 H   0  0  0  0  0  0  0  0  0  0  0  0
   53.8686   32.4832   37.5165 H   0  0  0  0  0  0  0  0  0  0  0  0
   51.5676   32.6496   38.3076 H   0  0  0  0  0  0  0  0  0  0  0  0
  1  8  1  0
  2  1  2  0
  3 13  1  0
  3  2  1  0
  4  5  1  0
  4  3  2  0
  5  6  2  0
  6  1  1  0
  7  5  1  0
  8 12  1  0
  8  9  1  0
  9 10  1  0
 11 10  1  0
 12 11  1  0
 13 14  2  0
 14 15  1  0
 16 15  2  0
 17 16  1  0
 18 17  2  0
 19 18  1  0
 20 19  2  0
 20 21  1  0
 21 22  2  0
 22 17  1  0
 22 13  1  0
  2 23  1  0
  7 24  1  0
  7 25  1  0
  8 26  1  0
  9 27  1  0
  9 28  1  0
 10 29  1  0
 10 30  1  0
 11 31  1  0
 11 32  1  0
 12 33  1  0
 12 34  1  0
 15 35  1  0
 18 36  1  0
 19 37  1  0
 20 38  1  0
 21 39  1  0
M  ISO  8  23  14  26  13  27  13  28  13  29  13  30  13  31  13  32  13
M  ISO  7  33  13  34  13  35  14  36  14  37  14  38  14  39  14
M  END
>  <minimizedAffinity>  (1) 
-4.7723012

>  <minimizedRMSD>  (1) 
1.05086184

$$$$
