
     RDKit          3D

 32 34  0  0  1  0  0  0  0  0999 V2000
   44.5570   36.1270   44.7820 C   0  0  0  0  0  0  0  0  0  0  0  0
   44.8820   35.9950   43.3980 C   0  0  0  0  0  0  0  0  0  0  0  0
   45.4450   34.7910   42.9570 C   0  0  0  0  0  0  0  0  0  0  0  0
   45.6400   33.8320   43.8970 N   0  0  0  0  0  0  0  0  0  0  0  0
   45.3290   33.9760   45.1900 C   0  0  0  0  0  0  0  0  0  0  0  0
   44.7880   35.1180   45.6380 N   0  0  0  0  0  0  0  0  0  0  0  0
   45.5820   32.8830   46.0980 N   0  0  0  0  0  0  0  0  0  0  0  0
   45.2400   33.0370   47.5250 C   0  0  0  0  0  0  0  0  0  0  0  0
   46.1850   32.3360   48.4400 C   0  0  0  0  0  0  0  0  0  0  0  0
   47.4590   32.0350   47.7070 C   0  0  0  0  0  0  0  0  0  0  0  0
   47.1140   31.0360   46.6340 C   0  0  0  0  0  0  0  0  0  0  0  0
   46.1570   31.6530   45.6520 C   0  0  2  0  0  0  0  0  0  0  0  0
   46.8350   31.7560   44.3810 N   0  0  0  0  0  0  0  0  0  0  0  0
   46.4070   31.1800   43.2200 C   0  0  0  0  0  0  0  0  0  0  0  0
   47.3060   31.4990   42.2170 C   0  0  0  0  0  0  0  0  0  0  0  0
   48.2670   32.2530   42.7420 N   0  0  0  0  0  0  0  0  0  0  0  0
   47.9850   32.4110   44.0440 C   0  0  0  0  0  0  0  0  0  0  0  0
   44.1134   37.0636   45.1507 H   0  0  0  0  0  0  0  0  0  0  0  0
   44.6946   36.8197   42.6946 H   0  0  0  0  0  0  0  0  0  0  0  0
   45.7153   34.6309   41.9028 H   0  0  0  0  0  0  0  0  0  0  0  0
   45.2470   34.1090   47.7713 H   0  0  0  0  0  0  0  0  0  0  0  0
   44.2491   32.5826   47.6719 H   0  0  0  0  0  0  0  0  0  0  0  0
   46.4029   32.9792   49.3053 H   0  0  0  0  0  0  0  0  0  0  0  0
   45.7306   31.3964   48.7873 H   0  0  0  0  0  0  0  0  0  0  0  0
   47.8625   32.9531   47.2549 H   0  0  0  0  0  0  0  0  0  0  0  0
   48.2236   31.6353   48.3893 H   0  0  0  0  0  0  0  0  0  0  0  0
   48.0316   30.7331   46.1085 H   0  0  0  0  0  0  0  0  0  0  0  0
   46.6432   30.1555   47.0955 H   0  0  0  0  0  0  0  0  0  0  0  0
   45.2775   31.0009   45.5456 H   0  0  0  0  0  0  0  0  0  0  0  0
   45.5016   30.5666   43.1015 H   0  0  0  0  0  0  0  0  0  0  0  0
   47.2371   31.1828   41.1657 H   0  0  0  0  0  0  0  0  0  0  0  0
   48.5993   32.9918   44.7477 H   0  0  0  0  0  0  0  0  0  0  0  0
  1  6  2  0
  2  1  1  0
  3  2  2  0
  3  4  1  0
  4  5  2  0
  5  6  1  0
  5  7  1  0
  7  8  1  0
  8  9  1  0
 10  9  1  0
 11 10  1  0
 12  7  1  0
 12 11  1  0
 13 12  1  0
 14 13  1  0
 15 16  1  0
 15 14  2  0
 16 17  2  0
 17 13  1  0
  1 18  1  0
  2 19  1  0
  3 20  1  0
  8 21  1  0
  8 22  1  0
  9 23  1  0
  9 24  1  0
 10 25  1  0
 10 26  1  0
 11 27  1  0
 11 28  1  0
 12 29  1  6
 14 30  1  0
 15 31  1  0
 17 32  1  0
M  ISO  8  18  14  19  14  20  14  21  13  22  13  23  13  24  13  25  13
M  ISO  7  26  13  27  13  28  13  29  13  30  14  31  14  32  14
M  END
>  <minimizedAffinity>  (1) 
-4.49438524

>  <minimizedRMSD>  (1) 
0.890188634

$$$$
