
     RDKit          3D

 37 39  0  0  0  0  0  0  0  0999 V2000
   48.3920   34.0930   40.6640 C   0  0  0  0  0  0  0  0  0  0  0  0
   49.1420   32.8930   40.7000 C   0  0  0  0  0  0  0  0  0  0  0  0
   49.3870   32.1880   39.5260 C   0  0  0  0  0  0  0  0  0  0  0  0
   48.8640   32.7320   38.3880 N   0  0  0  0  0  0  0  0  0  0  0  0
   48.1510   33.8780   38.3650 C   0  0  0  0  0  0  0  0  0  0  0  0
   47.9130   34.5610   39.5030 N   0  0  0  0  0  0  0  0  0  0  0  0
   47.6140   34.4130   37.1630 N   0  0  0  0  0  0  0  0  0  0  0  0
   50.1320   30.9780   39.4980 N   0  0  0  0  0  0  0  0  0  0  0  0
   51.5760   30.9490   39.6340 C   0  0  0  0  0  0  0  0  0  0  0  0
   51.9130   29.6480   38.9160 C   0  0  0  0  0  0  0  0  0  0  0  0
   50.7280   28.7490   39.1460 C   0  0  0  0  0  0  0  0  0  0  0  0
   49.5350   29.6670   39.3330 C   0  0  0  0  0  0  0  0  0  0  0  0
   48.1320   34.8020   41.9200 C   0  0  0  0  0  0  0  0  0  0  0  0
   48.4060   34.1630   43.1740 C   0  0  0  0  0  0  0  0  0  0  0  0
   47.1050   33.5570   43.7280 C   0  0  0  0  0  0  0  0  0  0  0  0
   46.0250   33.8390   42.6860 C   0  0  0  0  0  0  0  0  0  0  0  0
   46.5650   34.9870   41.9440 C   0  0  0  0  0  0  0  0  0  0  0  0
   49.5317   32.5174   41.6577 H   0  0  0  0  0  0  0  0  0  0  0  0
   47.0750   35.2904   37.1855 H   0  0  0  0  0  0  0  0  0  0  0  0
   47.7638   33.9234   36.2693 H   0  0  0  0  0  0  0  0  0  0  0  0
   52.0449   31.8142   39.1425 H   0  0  0  0  0  0  0  0  0  0  0  0
   51.9333   30.9976   40.6732 H   0  0  0  0  0  0  0  0  0  0  0  0
   52.8244   29.1997   39.3383 H   0  0  0  0  0  0  0  0  0  0  0  0
   52.1042   29.8085   37.8447 H   0  0  0  0  0  0  0  0  0  0  0  0
   50.5723   28.0925   38.2772 H   0  0  0  0  0  0  0  0  0  0  0  0
   50.8785   28.1013   40.0222 H   0  0  0  0  0  0  0  0  0  0  0  0
   48.8794   29.6429   38.4500 H   0  0  0  0  0  0  0  0  0  0  0  0
   48.9031   29.3763   40.1852 H   0  0  0  0  0  0  0  0  0  0  0  0
   48.8021   35.6736   41.8848 H   0  0  0  0  0  0  0  0  0  0  0  0
   49.1493   33.3658   43.0260 H   0  0  0  0  0  0  0  0  0  0  0  0
   48.8022   34.9016   43.8863 H   0  0  0  0  0  0  0  0  0  0  0  0
   47.2210   32.4728   43.8729 H   0  0  0  0  0  0  0  0  0  0  0  0
   46.8438   33.9930   44.7035 H   0  0  0  0  0  0  0  0  0  0  0  0
   45.8812   32.9732   42.0229 H   0  0  0  0  0  0  0  0  0  0  0  0
   45.0387   34.0382   43.1304 H   0  0  0  0  0  0  0  0  0  0  0  0
   46.3002   35.9267   42.4509 H   0  0  0  0  0  0  0  0  0  0  0  0
   46.1525   35.0343   40.9254 H   0  0  0  0  0  0  0  0  0  0  0  0
  1  2  2  0
  1 13  1  0
  3  2  1  0
  4  3  2  0
  5  4  1  0
  5  6  2  0
  6  1  1  0
  7  5  1  0
  8  3  1  0
  8  9  1  0
 10 11  1  0
 10  9  1  0
 11 12  1  0
 12  8  1  0
 13 17  1  0
 13 14  1  0
 14 15  1  0
 16 15  1  0
 17 16  1  0
  2 18  1  0
  7 19  1  0
  7 20  1  0
  9 21  1  0
  9 22  1  0
 10 23  1  0
 10 24  1  0
 11 25  1  0
 11 26  1  0
 12 27  1  0
 12 28  1  0
 13 29  1  0
 14 30  1  0
 14 31  1  0
 15 32  1  0
 15 33  1  0
 16 34  1  0
 16 35  1  0
 17 36  1  0
 17 37  1  0
M  ISO  8  18  14  21  13  22  13  23  13  24  13  25  13  26  13  27  13
M  ISO  8  28  13  29  13  30  13  31  13  32  13  33  13  34  13  35  13
M  ISO  2  36  13  37  13
M  END
>  <minimizedAffinity>  (1) 
-4.23081446

>  <minimizedRMSD>  (1) 
0.261801958

$$$$
