
     RDKit          3D

 38 40  0  0  0  0  0  0  0  0999 V2000
   48.3780   34.1090   40.6590 C   0  0  0  0  0  0  0  0  0  0  0  0
   49.1450   32.9210   40.6930 C   0  0  0  0  0  0  0  0  0  0  0  0
   49.4050   32.2130   39.5190 C   0  0  0  0  0  0  0  0  0  0  0  0
   48.8700   32.7530   38.3810 N   0  0  0  0  0  0  0  0  0  0  0  0
   48.1360   33.8980   38.3720 C   0  0  0  0  0  0  0  0  0  0  0  0
   47.8950   34.5690   39.5090 N   0  0  0  0  0  0  0  0  0  0  0  0
   47.6060   34.4080   37.1480 N   0  0  0  0  0  0  0  0  0  0  0  0
   48.1160   34.8070   41.9190 C   0  0  0  0  0  0  0  0  0  0  0  0
   48.4060   34.1690   43.1690 C   0  0  0  0  0  0  0  0  0  0  0  0
   47.1170   33.5330   43.7160 C   0  0  0  0  0  0  0  0  0  0  0  0
   46.0290   33.8060   42.6940 C   0  0  0  0  0  0  0  0  0  0  0  0
   46.5470   34.9620   41.9540 C   0  0  0  0  0  0  0  0  0  0  0  0
   50.2000   30.9600   39.4880 C   0  0  0  0  0  0  0  0  0  0  0  0
   50.1660   30.1600   40.7420 C   0  0  0  0  0  0  0  0  0  0  0  0
   51.2980   29.1720   40.5160 C   0  0  0  0  0  0  0  0  0  0  0  0
   52.3300   29.9570   39.7760 C   0  0  0  0  0  0  0  0  0  0  0  0
   51.6940   31.2720   39.3700 C   0  0  0  0  0  0  0  0  0  0  0  0
   49.5393   32.5527   41.6516 H   0  0  0  0  0  0  0  0  0  0  0  0
   47.0511   35.2757   37.1490 H   0  0  0  0  0  0  0  0  0  0  0  0
   47.7787   33.9081   36.2641 H   0  0  0  0  0  0  0  0  0  0  0  0
   48.7728   35.6887   41.8828 H   0  0  0  0  0  0  0  0  0  0  0  0
   49.1668   33.3891   43.0175 H   0  0  0  0  0  0  0  0  0  0  0  0
   48.7881   34.9109   43.8857 H   0  0  0  0  0  0  0  0  0  0  0  0
   47.2537   32.4491   43.8440 H   0  0  0  0  0  0  0  0  0  0  0  0
   46.8532   33.9543   44.6973 H   0  0  0  0  0  0  0  0  0  0  0  0
   45.8878   32.9422   42.0278 H   0  0  0  0  0  0  0  0  0  0  0  0
   45.0453   33.9912   43.1500 H   0  0  0  0  0  0  0  0  0  0  0  0
   46.2690   35.8956   42.4650 H   0  0  0  0  0  0  0  0  0  0  0  0
   46.1292   35.0023   40.9372 H   0  0  0  0  0  0  0  0  0  0  0  0
   49.7526   30.4131   38.6450 H   0  0  0  0  0  0  0  0  0  0  0  0
   50.3553   30.7901   41.6235 H   0  0  0  0  0  0  0  0  0  0  0  0
   49.1940   29.6840   40.9387 H   0  0  0  0  0  0  0  0  0  0  0  0
   51.6970   28.8104   41.4752 H   0  0  0  0  0  0  0  0  0  0  0  0
   50.9723   28.2789   39.9626 H   0  0  0  0  0  0  0  0  0  0  0  0
   53.1978   30.1437   40.4257 H   0  0  0  0  0  0  0  0  0  0  0  0
   52.6780   29.4041   38.8910 H   0  0  0  0  0  0  0  0  0  0  0  0
   51.9642   31.5440   38.3390 H   0  0  0  0  0  0  0  0  0  0  0  0
   52.0161   32.1259   39.9840 H   0  0  0  0  0  0  0  0  0  0  0  0
  1  2  2  0
  1  8  1  0
  3  2  1  0
  4  3  2  0
  5  4  1  0
  5  6  2  0
  6  1  1  0
  7  5  1  0
  8 12  1  0
  8  9  1  0
  9 10  1  0
 11 10  1  0
 12 11  1  0
 13  3  1  0
 13 14  1  0
 15 14  1  0
 16 15  1  0
 17 13  1  0
 17 16  1  0
  2 18  1  0
  7 19  1  0
  7 20  1  0
  8 21  1  0
  9 22  1  0
  9 23  1  0
 10 24  1  0
 10 25  1  0
 11 26  1  0
 11 27  1  0
 12 28  1  0
 12 29  1  0
 13 30  1  0
 14 31  1  0
 14 32  1  0
 15 33  1  0
 15 34  1  0
 16 35  1  0
 16 36  1  0
 17 37  1  0
 17 38  1  0
M  ISO  8  18  14  21  13  22  13  23  13  24  13  25  13  26  13  27  13
M  ISO  8  28  13  29  13  30  13  31  13  32  13  33  13  34  13  35  13
M  ISO  3  36  13  37  13  38  13
M  END
>  <minimizedAffinity>  (1) 
-4.11717224

>  <minimizedRMSD>  (1) 
0.283918291

$$$$
