
     RDKit          3D

 32 34  0  0  0  0  0  0  0  0999 V2000
   48.3700   34.1150   40.6630 C   0  0  0  0  0  0  0  0  0  0  0  0
   49.1280   32.9230   40.7190 C   0  0  0  0  0  0  0  0  0  0  0  0
   49.3870   32.2320   39.5460 C   0  0  0  0  0  0  0  0  0  0  0  0
   48.8840   32.7560   38.3910 N   0  0  0  0  0  0  0  0  0  0  0  0
   48.1630   33.8970   38.3710 C   0  0  0  0  0  0  0  0  0  0  0  0
   47.9010   34.5860   39.5100 N   0  0  0  0  0  0  0  0  0  0  0  0
   47.6450   34.4170   37.1510 N   0  0  0  0  0  0  0  0  0  0  0  0
   48.0860   34.8200   41.9150 C   0  0  0  0  0  0  0  0  0  0  0  0
   48.3700   34.2020   43.1770 C   0  0  0  0  0  0  0  0  0  0  0  0
   47.0880   33.5580   43.7270 C   0  0  0  0  0  0  0  0  0  0  0  0
   46.0000   33.8130   42.6940 C   0  0  0  0  0  0  0  0  0  0  0  0
   46.5140   34.9640   41.9490 C   0  0  0  0  0  0  0  0  0  0  0  0
   50.1550   30.9890   39.4510 C   0  0  0  0  0  0  0  0  0  0  0  0
   49.6110   29.7400   39.2330 C   0  0  0  0  0  0  0  0  0  0  0  0
   50.4910   28.6930   39.1750 C   0  0  0  0  0  0  0  0  0  0  0  0
   51.8550   28.9510   39.3390 C   0  0  0  0  0  0  0  0  0  0  0  0
   51.8420   30.8280   39.5890 S   0  0  0  0  0  0  0  0  0  0  0  0
   49.5074   32.5488   41.6813 H   0  0  0  0  0  0  0  0  0  0  0  0
   47.0969   35.2890   37.1544 H   0  0  0  0  0  0  0  0  0  0  0  0
   47.8184   33.9211   36.2650 H   0  0  0  0  0  0  0  0  0  0  0  0
   48.7368   35.7054   41.8643 H   0  0  0  0  0  0  0  0  0  0  0  0
   49.1409   33.4290   43.0424 H   0  0  0  0  0  0  0  0  0  0  0  0
   48.7343   34.9608   43.8852 H   0  0  0  0  0  0  0  0  0  0  0  0
   47.2349   32.4767   43.8654 H   0  0  0  0  0  0  0  0  0  0  0  0
   46.8165   33.9833   44.7045 H   0  0  0  0  0  0  0  0  0  0  0  0
   45.8692   32.9422   42.0348 H   0  0  0  0  0  0  0  0  0  0  0  0
   45.0117   33.9937   43.1419 H   0  0  0  0  0  0  0  0  0  0  0  0
   46.2302   35.8992   42.4537 H   0  0  0  0  0  0  0  0  0  0  0  0
   46.0981   34.9931   40.9311 H   0  0  0  0  0  0  0  0  0  0  0  0
   48.5275   29.5933   39.1122 H   0  0  0  0  0  0  0  0  0  0  0  0
   50.1315   27.6678   39.0026 H   0  0  0  0  0  0  0  0  0  0  0  0
   52.7052   28.2531   39.3263 H   0  0  0  0  0  0  0  0  0  0  0  0
  1  2  2  0
  1  8  1  0
  3  2  1  0
  4  3  2  0
  5  4  1  0
  5  6  2  0
  6  1  1  0
  7  5  1  0
  8 12  1  0
  8  9  1  0
  9 10  1  0
 11 10  1  0
 12 11  1  0
 13  3  1  0
 13 17  1  0
 14 13  2  0
 15 14  1  0
 15 16  2  0
 16 17  1  0
  2 18  1  0
  7 19  1  0
  7 20  1  0
  8 21  1  0
  9 22  1  0
  9 23  1  0
 10 24  1  0
 10 25  1  0
 11 26  1  0
 11 27  1  0
 12 28  1  0
 12 29  1  0
 14 30  1  0
 15 31  1  0
 16 32  1  0
M  ISO  8  18  14  21  13  22  13  23  13  24  13  25  13  26  13  27  13
M  ISO  5  28  13  29  13  30  14  31  14  32  14
M  END
>  <minimizedAffinity>  (1) 
-3.99473691

>  <minimizedRMSD>  (1) 
0.313608348

$$$$
