
     RDKit          3D

 33 35  0  0  0  0  0  0  0  0999 V2000
   48.3810   34.1070   40.6780 C   0  0  0  0  0  0  0  0  0  0  0  0
   49.1340   32.9120   40.7260 C   0  0  0  0  0  0  0  0  0  0  0  0
   49.3880   32.2190   39.5540 C   0  0  0  0  0  0  0  0  0  0  0  0
   48.8850   32.7470   38.3990 N   0  0  0  0  0  0  0  0  0  0  0  0
   48.1680   33.8940   38.3800 C   0  0  0  0  0  0  0  0  0  0  0  0
   47.9110   34.5840   39.5250 N   0  0  0  0  0  0  0  0  0  0  0  0
   47.6480   34.4190   37.1670 N   0  0  0  0  0  0  0  0  0  0  0  0
   48.1050   34.8070   41.9290 C   0  0  0  0  0  0  0  0  0  0  0  0
   48.3820   34.1850   43.1910 C   0  0  0  0  0  0  0  0  0  0  0  0
   47.0860   33.5650   43.7370 C   0  0  0  0  0  0  0  0  0  0  0  0
   46.0070   33.8270   42.6900 C   0  0  0  0  0  0  0  0  0  0  0  0
   46.5370   34.9800   41.9530 C   0  0  0  0  0  0  0  0  0  0  0  0
   50.1430   30.9820   39.4440 C   0  0  0  0  0  0  0  0  0  0  0  0
   49.5590   29.7600   39.1970 C   0  0  0  0  0  0  0  0  0  0  0  0
   50.2440   28.5650   39.0860 C   0  0  0  0  0  0  0  0  0  0  0  0
   51.5830   28.5960   39.2320 N   0  0  0  0  0  0  0  0  0  0  0  0
   52.1720   29.7980   39.4760 C   0  0  0  0  0  0  0  0  0  0  0  0
   51.4730   30.9430   39.5780 N   0  0  0  0  0  0  0  0  0  0  0  0
   49.5153   32.5353   41.6865 H   0  0  0  0  0  0  0  0  0  0  0  0
   47.1047   35.2940   37.1756 H   0  0  0  0  0  0  0  0  0  0  0  0
   47.8142   33.9247   36.2788 H   0  0  0  0  0  0  0  0  0  0  0  0
   48.7707   35.6817   41.8873 H   0  0  0  0  0  0  0  0  0  0  0  0
   49.1392   33.3985   43.0565 H   0  0  0  0  0  0  0  0  0  0  0  0
   48.7632   34.9349   43.8998 H   0  0  0  0  0  0  0  0  0  0  0  0
   47.2158   32.4830   43.8867 H   0  0  0  0  0  0  0  0  0  0  0  0
   46.8132   34.0034   44.7083 H   0  0  0  0  0  0  0  0  0  0  0  0
   45.8797   32.9584   42.0272 H   0  0  0  0  0  0  0  0  0  0  0  0
   45.0141   34.0101   43.1265 H   0  0  0  0  0  0  0  0  0  0  0  0
   46.2648   35.9159   42.4629 H   0  0  0  0  0  0  0  0  0  0  0  0
   46.1243   35.0277   40.9345 H   0  0  0  0  0  0  0  0  0  0  0  0
   48.4657   29.7328   39.0792 H   0  0  0  0  0  0  0  0  0  0  0  0
   49.7147   27.6218   38.8855 H   0  0  0  0  0  0  0  0  0  0  0  0
   53.2649   29.8351   39.5948 H   0  0  0  0  0  0  0  0  0  0  0  0
  1  2  2  0
  1  8  1  0
  3  2  1  0
  4  3  2  0
  5  4  1  0
  5  6  2  0
  6  1  1  0
  7  5  1  0
  8 12  1  0
  8  9  1  0
  9 10  1  0
 11 10  1  0
 12 11  1  0
 13  3  1  0
 13 18  1  0
 14 13  2  0
 15 14  1  0
 15 16  2  0
 16 17  1  0
 17 18  2  0
  2 19  1  0
  7 20  1  0
  7 21  1  0
  8 22  1  0
  9 23  1  0
  9 24  1  0
 10 25  1  0
 10 26  1  0
 11 27  1  0
 11 28  1  0
 12 29  1  0
 12 30  1  0
 14 31  1  0
 15 32  1  0
 17 33  1  0
M  ISO  8  19  14  22  13  23  13  24  13  25  13  26  13  27  13  28  13
M  ISO  5  29  13  30  13  31  14  32  14  33  14
M  END
>  <minimizedAffinity>  (1) 
-4.05690479

>  <minimizedRMSD>  (1) 
0.315717101

$$$$
