
     RDKit          3D

 32 34  0  0  0  0  0  0  0  0999 V2000
   48.4090   34.0930   40.6690 C   0  0  0  0  0  0  0  0  0  0  0  0
   49.1400   32.8830   40.7110 C   0  0  0  0  0  0  0  0  0  0  0  0
   49.3810   32.1800   39.5400 C   0  0  0  0  0  0  0  0  0  0  0  0
   48.8810   32.7210   38.3900 N   0  0  0  0  0  0  0  0  0  0  0  0
   48.1870   33.8770   38.3770 C   0  0  0  0  0  0  0  0  0  0  0  0
   47.9440   34.5740   39.5170 N   0  0  0  0  0  0  0  0  0  0  0  0
   47.6610   34.4290   37.1640 N   0  0  0  0  0  0  0  0  0  0  0  0
   48.1510   34.7940   41.9240 C   0  0  0  0  0  0  0  0  0  0  0  0
   48.4210   34.1580   43.1800 C   0  0  0  0  0  0  0  0  0  0  0  0
   47.1150   33.5460   43.7240 C   0  0  0  0  0  0  0  0  0  0  0  0
   46.0380   33.8430   42.6930 C   0  0  0  0  0  0  0  0  0  0  0  0
   46.5850   34.9840   41.9560 C   0  0  0  0  0  0  0  0  0  0  0  0
   50.1260   30.9280   39.5070 C   0  0  0  0  0  0  0  0  0  0  0  0
   50.6380   30.3300   38.4030 C   0  0  0  0  0  0  0  0  0  0  0  0
   51.2430   29.1850   38.9050 C   0  0  0  0  0  0  0  0  0  0  0  0
   51.0880   29.1180   40.2590 N   0  0  0  0  0  0  0  0  0  0  0  0
   50.3930   30.2070   40.6110 N   0  0  0  0  0  0  0  0  0  0  0  0
   49.5168   32.5001   41.6709 H   0  0  0  0  0  0  0  0  0  0  0  0
   47.1348   35.3142   37.1867 H   0  0  0  0  0  0  0  0  0  0  0  0
   47.8090   33.9407   36.2693 H   0  0  0  0  0  0  0  0  0  0  0  0
   48.8278   35.6603   41.8839 H   0  0  0  0  0  0  0  0  0  0  0  0
   49.1691   33.3641   43.0381 H   0  0  0  0  0  0  0  0  0  0  0  0
   48.8106   34.8977   43.8948 H   0  0  0  0  0  0  0  0  0  0  0  0
   47.2290   32.4595   43.8525 H   0  0  0  0  0  0  0  0  0  0  0  0
   46.8549   33.9702   44.7050 H   0  0  0  0  0  0  0  0  0  0  0  0
   45.8815   32.9817   42.0269 H   0  0  0  0  0  0  0  0  0  0  0  0
   45.0561   34.0511   43.1430 H   0  0  0  0  0  0  0  0  0  0  0  0
   46.3274   35.9238   42.4664 H   0  0  0  0  0  0  0  0  0  0  0  0
   46.1713   35.0327   40.9379 H   0  0  0  0  0  0  0  0  0  0  0  0
   50.5865   30.6707   37.3583 H   0  0  0  0  0  0  0  0  0  0  0  0
   51.7727   28.4372   38.2965 H   0  0  0  0  0  0  0  0  0  0  0  0
   51.4360   28.3778   40.8850 H   0  0  0  0  0  0  0  0  0  0  0  0
  1  2  2  0
  1  8  1  0
  3  2  1  0
  4  3  2  0
  5  4  1  0
  5  6  2  0
  6  1  1  0
  7  5  1  0
  8 12  1  0
  8  9  1  0
  9 10  1  0
 11 10  1  0
 12 11  1  0
 13  3  1  0
 13 17  2  0
 14 15  2  0
 14 13  1  0
 15 16  1  0
 16 17  1  0
  2 18  1  0
  7 19  1  0
  7 20  1  0
  8 21  1  0
  9 22  1  0
  9 23  1  0
 10 24  1  0
 10 25  1  0
 11 26  1  0
 11 27  1  0
 12 28  1  0
 12 29  1  0
 14 30  1  0
 15 31  1  0
 16 32  1  0
M  ISO  8  18  14  21  13  22  13  23  13  24  13  25  13  26  13  27  13
M  ISO  5  28  13  29  13  30  14  31  14  32   9
M  END
>  <minimizedAffinity>  (1) 
-3.99866962

>  <minimizedRMSD>  (1) 
0.222184673

$$$$
