
     RDKit          3D

 32 34  0  0  0  0  0  0  0  0999 V2000
   48.4140   34.0880   40.6520 C   0  0  0  0  0  0  0  0  0  0  0  0
   49.1310   32.8680   40.6790 C   0  0  0  0  0  0  0  0  0  0  0  0
   49.3550   32.1640   39.4990 C   0  0  0  0  0  0  0  0  0  0  0  0
   48.8430   32.7320   38.3660 N   0  0  0  0  0  0  0  0  0  0  0  0
   48.1590   33.9020   38.3610 C   0  0  0  0  0  0  0  0  0  0  0  0
   47.9480   34.5770   39.5060 N   0  0  0  0  0  0  0  0  0  0  0  0
   47.6480   34.4440   37.1480 N   0  0  0  0  0  0  0  0  0  0  0  0
   48.1760   34.7920   41.9140 C   0  0  0  0  0  0  0  0  0  0  0  0
   48.4600   34.1430   43.1610 C   0  0  0  0  0  0  0  0  0  0  0  0
   47.1540   33.5670   43.7320 C   0  0  0  0  0  0  0  0  0  0  0  0
   46.0670   33.8510   42.7010 C   0  0  0  0  0  0  0  0  0  0  0  0
   46.6120   34.9960   41.9600 C   0  0  0  0  0  0  0  0  0  0  0  0
   50.0870   30.9020   39.4600 C   0  0  0  0  0  0  0  0  0  0  0  0
   51.4070   30.7720   39.7780 C   0  0  0  0  0  0  0  0  0  0  0  0
   51.7030   29.4680   39.6200 N   0  0  0  0  0  0  0  0  0  0  0  0
   50.5720   28.8660   39.2180 C   0  0  0  0  0  0  0  0  0  0  0  0
   49.5270   29.7330   39.1040 N   0  0  0  0  0  0  0  0  0  0  0  0
   49.5117   32.4756   41.6335 H   0  0  0  0  0  0  0  0  0  0  0  0
   47.1300   35.3342   37.1596 H   0  0  0  0  0  0  0  0  0  0  0  0
   47.7962   33.9460   36.2587 H   0  0  0  0  0  0  0  0  0  0  0  0
   48.8545   35.6569   41.8743 H   0  0  0  0  0  0  0  0  0  0  0  0
   49.1820   33.3293   42.9977 H   0  0  0  0  0  0  0  0  0  0  0  0
   48.8884   34.8677   43.8690 H   0  0  0  0  0  0  0  0  0  0  0  0
   47.2540   32.4830   43.8897 H   0  0  0  0  0  0  0  0  0  0  0  0
   46.9097   34.0229   44.7028 H   0  0  0  0  0  0  0  0  0  0  0  0
   45.9142   32.9866   42.0381 H   0  0  0  0  0  0  0  0  0  0  0  0
   45.0829   34.0514   43.1498 H   0  0  0  0  0  0  0  0  0  0  0  0
   46.3658   35.9356   42.4763 H   0  0  0  0  0  0  0  0  0  0  0  0
   46.1872   35.0547   40.9471 H   0  0  0  0  0  0  0  0  0  0  0  0
   52.0915   31.5711   40.0988 H   0  0  0  0  0  0  0  0  0  0  0  0
   50.4972   27.7896   39.0039 H   0  0  0  0  0  0  0  0  0  0  0  0
   48.5562   29.5416   38.8181 H   0  0  0  0  0  0  0  0  0  0  0  0
  1  2  2  0
  1  8  1  0
  3  2  1  0
  4  3  2  0
  5  4  1  0
  5  6  2  0
  6  1  1  0
  7  5  1  0
  8 12  1  0
  8  9  1  0
  9 10  1  0
 11 10  1  0
 12 11  1  0
 13  3  1  0
 13 14  2  0
 15 14  1  0
 16 15  2  0
 17 16  1  0
 17 13  1  0
  2 18  1  0
  7 19  1  0
  7 20  1  0
  8 21  1  0
  9 22  1  0
  9 23  1  0
 10 24  1  0
 10 25  1  0
 11 26  1  0
 11 27  1  0
 12 28  1  0
 12 29  1  0
 14 30  1  0
 16 31  1  0
 17 32  1  0
M  ISO  8  18  14  21  13  22  13  23  13  24  13  25  13  26  13  27  13
M  ISO  5  28  13  29  13  30  14  31  14  32   9
M  END
>  <minimizedAffinity>  (1) 
-4.00975895

>  <minimizedRMSD>  (1) 
0.3296386

$$$$
