
     RDKit          3D

 27 28  0  0  0  0  0  0  0  0999 V2000
   48.2080   34.7830   41.9020 C   0  0  0  0  0  0  0  0  0  0  0  0
   48.4920   34.1410   43.1530 C   0  0  0  0  0  0  0  0  0  0  0  0
   47.1900   33.5620   43.7260 C   0  0  0  0  0  0  0  0  0  0  0  0
   46.0990   33.8570   42.7080 C   0  0  0  0  0  0  0  0  0  0  0  0
   46.6460   34.9980   41.9640 C   0  0  0  0  0  0  0  0  0  0  0  0
   48.4300   34.0850   40.6410 C   0  0  0  0  0  0  0  0  0  0  0  0
   49.1240   32.8530   40.6710 C   0  0  0  0  0  0  0  0  0  0  0  0
   49.3350   32.1480   39.4950 C   0  0  0  0  0  0  0  0  0  0  0  0
   48.8330   32.7200   38.3400 N   0  0  0  0  0  0  0  0  0  0  0  0
   48.1780   33.8950   38.3460 C   0  0  0  0  0  0  0  0  0  0  0  0
   47.9720   34.5850   39.4970 N   0  0  0  0  0  0  0  0  0  0  0  0
   47.6640   34.4580   37.1430 N   0  0  0  0  0  0  0  0  0  0  0  0
   50.0420   30.8730   39.4530 C   0  0  0  0  0  0  0  0  0  0  0  0
   51.2810   30.9000   39.5900 O   0  0  0  0  0  0  0  0  0  0  0  0
   48.8995   35.6370   41.8516 H   0  0  0  0  0  0  0  0  0  0  0  0
   49.2178   33.3298   42.9946 H   0  0  0  0  0  0  0  0  0  0  0  0
   48.9150   34.8720   43.8578 H   0  0  0  0  0  0  0  0  0  0  0  0
   47.2893   32.4763   43.8722 H   0  0  0  0  0  0  0  0  0  0  0  0
   46.9529   34.0089   44.7028 H   0  0  0  0  0  0  0  0  0  0  0  0
   45.9326   32.9952   42.0450 H   0  0  0  0  0  0  0  0  0  0  0  0
   45.1212   34.0655   43.1667 H   0  0  0  0  0  0  0  0  0  0  0  0
   46.4119   35.9386   42.4841 H   0  0  0  0  0  0  0  0  0  0  0  0
   46.2121   35.0608   40.9551 H   0  0  0  0  0  0  0  0  0  0  0  0
   49.4962   32.4541   41.6262 H   0  0  0  0  0  0  0  0  0  0  0  0
   47.1652   35.3588   37.1680 H   0  0  0  0  0  0  0  0  0  0  0  0
   47.7911   33.9643   36.2480 H   0  0  0  0  0  0  0  0  0  0  0  0
   49.5035   29.9251   39.3063 H   0  0  0  0  0  0  0  0  0  0  0  0
  1  5  1  0
  1  2  1  0
  2  3  1  0
  4  3  1  0
  5  4  1  0
  6  7  2  0
  6  1  1  0
  8  7  1  0
  9 10  1  0
  9  8  2  0
 10 11  2  0
 11  6  1  0
 12 10  1  0
 13  8  1  0
 13 14  2  0
  1 15  1  0
  2 16  1  0
  2 17  1  0
  3 18  1  0
  3 19  1  0
  4 20  1  0
  4 21  1  0
  5 22  1  0
  5 23  1  0
  7 24  1  0
 12 25  1  0
 12 26  1  0
 13 27  1  0
M  ISO  8  15  13  16  13  17  13  18  13  19  13  20  13  21  13  22  13
M  ISO  3  23  13  24  14  27   6
M  END
>  <minimizedAffinity>  (1) 
-3.83919573

>  <minimizedRMSD>  (1) 
0.11916925

$$$$
