
     RDKit          3D

 28 29  0  0  0  0  0  0  0  0999 V2000
   48.2430   34.7820   41.9160 C   0  0  0  0  0  0  0  0  0  0  0  0
   48.5300   34.1310   43.1590 C   0  0  0  0  0  0  0  0  0  0  0  0
   47.2230   33.5650   43.7400 C   0  0  0  0  0  0  0  0  0  0  0  0
   46.1300   33.8790   42.7350 C   0  0  0  0  0  0  0  0  0  0  0  0
   46.6840   35.0160   41.9900 C   0  0  0  0  0  0  0  0  0  0  0  0
   48.4430   34.0860   40.6520 C   0  0  0  0  0  0  0  0  0  0  0  0
   49.1180   32.8430   40.6690 C   0  0  0  0  0  0  0  0  0  0  0  0
   49.3190   32.1300   39.4910 C   0  0  0  0  0  0  0  0  0  0  0  0
   48.8240   32.7090   38.3370 N   0  0  0  0  0  0  0  0  0  0  0  0
   48.1780   33.9130   38.3630 C   0  0  0  0  0  0  0  0  0  0  0  0
   47.9920   34.5890   39.5070 N   0  0  0  0  0  0  0  0  0  0  0  0
   47.6870   34.4640   37.1370 N   0  0  0  0  0  0  0  0  0  0  0  0
   50.0200   30.8220   39.4550 C   0  0  0  0  0  0  0  0  0  0  0  0
   48.9444   35.6278   41.8652 H   0  0  0  0  0  0  0  0  0  0  0  0
   49.2441   33.3115   42.9901 H   0  0  0  0  0  0  0  0  0  0  0  0
   48.9691   34.8521   43.8641 H   0  0  0  0  0  0  0  0  0  0  0  0
   47.3093   32.4773   43.8794 H   0  0  0  0  0  0  0  0  0  0  0  0
   46.9996   34.0097   44.7210 H   0  0  0  0  0  0  0  0  0  0  0  0
   45.9462   33.0223   42.0700 H   0  0  0  0  0  0  0  0  0  0  0  0
   45.1597   34.0992   43.2041 H   0  0  0  0  0  0  0  0  0  0  0  0
   46.4650   35.9578   42.5145 H   0  0  0  0  0  0  0  0  0  0  0  0
   46.2430   35.0875   40.9848 H   0  0  0  0  0  0  0  0  0  0  0  0
   49.4873   32.4363   41.6220 H   0  0  0  0  0  0  0  0  0  0  0  0
   47.1979   35.3705   37.1392 H   0  0  0  0  0  0  0  0  0  0  0  0
   47.8227   33.9541   36.2524 H   0  0  0  0  0  0  0  0  0  0  0  0
   50.2050   30.4768   40.4829 H   0  0  0  0  0  0  0  0  0  0  0  0
   49.3956   30.0857   38.9277 H   0  0  0  0  0  0  0  0  0  0  0  0
   50.9788   30.9343   38.9277 H   0  0  0  0  0  0  0  0  0  0  0  0
  1  5  1  0
  1  2  1  0
  2  3  1  0
  4  3  1  0
  5  4  1  0
  6  7  2  0
  6  1  1  0
  8  7  1  0
  9 10  1  0
  9  8  2  0
 10 11  2  0
 11  6  1  0
 12 10  1  0
 13  8  1  0
  1 14  1  0
  2 15  1  0
  2 16  1  0
  3 17  1  0
  3 18  1  0
  4 19  1  0
  4 20  1  0
  5 21  1  0
  5 22  1  0
  7 23  1  0
 12 24  1  0
 12 25  1  0
 13 26  1  0
 13 27  1  0
 13 28  1  0
M  ISO  8  14  13  15  13  16  13  17  13  18  13  19  13  20  13  21  13
M  ISO  5  22  13  23  14  26   8  27   8  28   8
M  END
>  <minimizedAffinity>  (1) 
-3.92180967

>  <minimizedRMSD>  (1) 
0.0479897298

$$$$
