
     RDKit          3D

 50 54  0  0  1  0  0  0  0  0999 V2000
   48.2090   34.0360   41.5300 C   0  0  2  0  0  0  0  0  0  0  0  0
   48.9980   33.5760   42.6090 C   0  0  0  0  0  0  0  0  0  0  0  0
   48.2780   32.3510   43.2370 C   0  0  0  0  0  0  0  0  0  0  0  0
   47.0030   32.1300   42.4430 C   0  0  0  0  0  0  0  0  0  0  0  0
   46.7650   33.4230   41.8210 C   0  0  1  0  0  0  0  0  0  0  0  0
   48.4870   33.6350   40.1540 C   0  0  0  0  0  0  0  0  0  0  0  0
   49.3080   32.5060   39.9240 C   0  0  0  0  0  0  0  0  0  0  0  0
   49.5830   32.0760   38.6370 C   0  0  0  0  0  0  0  0  0  0  0  0
   49.0080   32.8150   37.6300 N   0  0  0  0  0  0  0  0  0  0  0  0
   48.2220   33.8970   37.8790 C   0  0  0  0  0  0  0  0  0  0  0  0
   47.9600   34.3090   39.1320 N   0  0  0  0  0  0  0  0  0  0  0  0
   47.6450   34.6150   36.7890 N   0  0  0  0  0  0  0  0  0  0  0  0
   50.4030   30.9600   38.3500 N   0  0  0  0  0  0  0  0  0  0  0  0
   50.0100   30.0150   37.4680 C   0  0  0  0  0  0  0  0  0  0  0  0
   50.8530   28.9450   37.2240 C   0  0  0  0  0  0  0  0  0  0  0  0
   52.0630   28.8600   37.8740 C   0  0  0  0  0  0  0  0  0  0  0  0
   52.8870   27.7360   37.5840 N   0  0  0  0  0  0  0  0  0  0  0  0
   52.4200   29.8040   38.7350 N   0  0  0  0  0  0  0  0  0  0  0  0
   51.6040   30.8500   38.9790 C   0  0  0  0  0  0  0  0  0  0  0  0
   52.0390   31.7020   39.8200 O   0  0  0  0  0  0  0  0  0  0  0  0
   45.9830   34.3810   42.6140 C   0  0  0  0  0  0  0  0  0  0  0  0
   45.4070   35.5640   42.2490 C   0  0  0  0  0  0  0  0  0  0  0  0
   44.7680   36.1630   43.2680 N   0  0  0  0  0  0  0  0  0  0  0  0
   44.9110   35.3750   44.3440 C   0  0  0  0  0  0  0  0  0  0  0  0
   44.4620   35.5000   45.6500 C   0  0  0  0  0  0  0  0  0  0  0  0
   44.7720   34.5020   46.5650 C   0  0  0  0  0  0  0  0  0  0  0  0
   45.5130   33.3850   46.2270 C   0  0  0  0  0  0  0  0  0  0  0  0
   45.9370   33.3050   44.9190 C   0  0  0  0  0  0  0  0  0  0  0  0
   45.6570   34.2760   43.9540 C   0  0  0  0  0  0  0  0  0  0  0  0
   48.3817   35.1223   41.5265 H   0  0  0  0  0  0  0  0  0  0  0  0
   49.9927   33.2791   42.2450 H   0  0  0  0  0  0  0  0  0  0  0  0
   49.1254   34.3717   43.3578 H   0  0  0  0  0  0  0  0  0  0  0  0
   48.9216   31.4612   43.1735 H   0  0  0  0  0  0  0  0  0  0  0  0
   48.0530   32.5299   44.2988 H   0  0  0  0  0  0  0  0  0  0  0  0
   47.1433   31.3474   41.6829 H   0  0  0  0  0  0  0  0  0  0  0  0
   46.1620   31.7919   43.0663 H   0  0  0  0  0  0  0  0  0  0  0  0
   46.1518   33.2546   40.9235 H   0  0  0  0  0  0  0  0  0  0  0  0
   49.7340   31.9620   40.7800 H   0  0  0  0  0  0  0  0  0  0  0  0
   47.0489   35.4351   36.9705 H   0  0  0  0  0  0  0  0  0  0  0  0
   47.8246   34.3131   35.8208 H   0  0  0  0  0  0  0  0  0  0  0  0
   49.0404   30.0945   36.9547 H   0  0  0  0  0  0  0  0  0  0  0  0
   50.5559   28.1624   36.5104 H   0  0  0  0  0  0  0  0  0  0  0  0
   53.8006   27.6336   38.0485 H   0  0  0  0  0  0  0  0  0  0  0  0
   52.5696   27.0251   36.9096 H   0  0  0  0  0  0  0  0  0  0  0  0
   45.4602   35.9808   41.2324 H   0  0  0  0  0  0  0  0  0  0  0  0
   44.2627   37.0598   43.2300 H   0  0  0  0  0  0  0  0  0  0  0  0
   43.8701   36.3751   45.9563 H   0  0  0  0  0  0  0  0  0  0  0  0
   44.4136   34.6046   47.5999 H   0  0  0  0  0  0  0  0  0  0  0  0
   45.7511   32.6026   46.9627 H   0  0  0  0  0  0  0  0  0  0  0  0
   46.5288   32.4282   44.6174 H   0  0  0  0  0  0  0  0  0  0  0  0
  1  5  1  0
  1  2  1  0
  2  3  1  0
  4  3  1  0
  5  4  1  0
  5 21  1  0
  6  1  1  0
  7  6  2  0
  8  7  1  0
  9 10  1  0
  9  8  2  0
 10 11  2  0
 11  6  1  0
 12 10  1  0
 13  8  1  0
 13 19  1  0
 14 13  1  0
 15 14  2  0
 15 16  1  0
 16 18  2  0
 17 16  1  0
 18 19  1  0
 19 20  2  0
 21 29  1  0
 22 21  2  0
 22 23  1  0
 23 24  1  0
 24 25  2  0
 25 26  1  0
 27 26  2  0
 28 27  1  0
 29 24  1  0
 29 28  2  0
  1 30  1  6
  2 31  1  0
  2 32  1  0
  3 33  1  0
  3 34  1  0
  4 35  1  0
  4 36  1  0
  5 37  1  6
  7 38  1  0
 12 39  1  0
 12 40  1  0
 14 41  1  0
 15 42  1  0
 17 43  1  0
 17 44  1  0
 22 45  1  0
 23 46  1  0
 25 47  1  0
 26 48  1  0
 27 49  1  0
 28 50  1  0
M  ISO  8  30  13  31  13  32  13  33  13  34  13  35  13  36  13  37  13
M  ISO  8  38  14  41  14  42  14  45  14  46   9  47  14  48  14  49  14
M  ISO  1  50  14
M  END
>  <minimizedAffinity>  (1) 
-6.40283537

>  <minimizedRMSD>  (1) 
1.7903285

$$$$
