
     RDKit          3D

 42 45  0  0  1  0  0  0  0  0999 V2000
   48.3710   33.9560   39.7570 C   0  0  0  0  0  0  0  0  0  0  0  0
   49.0840   32.7500   39.9890 C   0  0  0  0  0  0  0  0  0  0  0  0
   49.4130   31.9080   38.9470 C   0  0  0  0  0  0  0  0  0  0  0  0
   49.0060   32.3190   37.7100 N   0  0  0  0  0  0  0  0  0  0  0  0
   48.3220   33.4790   37.5010 C   0  0  0  0  0  0  0  0  0  0  0  0
   48.0080   34.2910   38.5210 N   0  0  0  0  0  0  0  0  0  0  0  0
   47.9160   33.8390   36.1850 N   0  0  0  0  0  0  0  0  0  0  0  0
   50.1310   30.6890   39.1220 N   0  0  0  0  0  0  0  0  0  0  0  0
   49.7010   29.5540   38.5300 C   0  0  0  0  0  0  0  0  0  0  0  0
   50.4280   28.3930   38.7270 C   0  0  0  0  0  0  0  0  0  0  0  0
   51.5670   28.4290   39.5230 C   0  0  0  0  0  0  0  0  0  0  0  0
   52.2790   27.1960   39.6900 N   0  0  0  0  0  0  0  0  0  0  0  0
   51.9610   29.5760   40.0930 N   0  0  0  0  0  0  0  0  0  0  0  0
   51.2490   30.6980   39.8950 C   0  0  0  0  0  0  0  0  0  0  0  0
   51.6960   31.7320   40.4710 O   0  0  0  0  0  0  0  0  0  0  0  0
   48.0350   34.7900   40.8990 C   0  0  2  0  0  0  0  0  0  0  0  0
   48.9190   35.7590   41.4090 C   0  0  0  0  0  0  0  0  0  0  0  0
   49.6920   35.1450   42.6060 C   0  0  0  0  0  0  0  0  0  0  0  0
   49.1990   33.7010   42.7470 C   0  0  0  0  0  0  0  0  0  0  0  0
   47.8990   33.7520   42.0970 C   0  0  1  0  0  0  0  0  0  0  0  0
   46.8050   34.2510   43.0100 C   0  0  0  0  0  0  0  0  0  0  0  0
   45.8740   35.2680   42.6840 C   0  0  0  0  0  0  0  0  0  0  0  0
   44.8710   35.3790   44.1680 S   0  0  0  0  0  0  0  0  0  0  0  0
   45.8730   34.0140   45.0270 C   0  0  0  0  0  0  0  0  0  0  0  0
   46.7030   33.7030   44.2070 N   0  0  0  0  0  0  0  0  0  0  0  0
   49.3783   32.4833   41.0148 H   0  0  0  0  0  0  0  0  0  0  0  0
   47.3990   34.7158   36.0273 H   0  0  0  0  0  0  0  0  0  0  0  0
   48.1392   33.2227   35.3905 H   0  0  0  0  0  0  0  0  0  0  0  0
   48.7949   29.5523   37.9063 H   0  0  0  0  0  0  0  0  0  0  0  0
   50.1076   27.4509   38.2582 H   0  0  0  0  0  0  0  0  0  0  0  0
   53.1298   27.1670   40.2699 H   0  0  0  0  0  0  0  0  0  0  0  0
   51.9398   26.3391   39.2301 H   0  0  0  0  0  0  0  0  0  0  0  0
   47.1823   35.3825   40.5357 H   0  0  0  0  0  0  0  0  0  0  0  0
   49.6293   36.0613   40.6253 H   0  0  0  0  0  0  0  0  0  0  0  0
   48.3554   36.6436   41.7404 H   0  0  0  0  0  0  0  0  0  0  0  0
   50.7738   35.1596   42.4075 H   0  0  0  0  0  0  0  0  0  0  0  0
   49.5165   35.7174   43.5288 H   0  0  0  0  0  0  0  0  0  0  0  0
   49.8729   32.9983   42.2351 H   0  0  0  0  0  0  0  0  0  0  0  0
   49.1570   33.3498   43.7886 H   0  0  0  0  0  0  0  0  0  0  0  0
   47.6259   32.7357   41.7768 H   0  0  0  0  0  0  0  0  0  0  0  0
   45.7874   35.8462   41.7522 H   0  0  0  0  0  0  0  0  0  0  0  0
   45.7305   33.6022   46.0370 H   0  0  0  0  0  0  0  0  0  0  0  0
  1  2  2  0
  1 16  1  0
  3  8  1  0
  3  2  1  0
  4  3  2  0
  5  4  1  0
  5  6  2  0
  6  1  1  0
  7  5  1  0
  8 14  1  0
  9 10  2  0
  9  8  1  0
 10 11  1  0
 11 12  1  0
 11 13  2  0
 14 13  1  0
 14 15  2  0
 16 17  1  0
 16 20  1  0
 17 18  1  0
 18 19  1  0
 20 19  1  0
 20 21  1  0
 21 25  1  0
 22 21  2  0
 22 23  1  0
 23 24  1  0
 25 24  2  0
  2 26  1  0
  7 27  1  0
  7 28  1  0
  9 29  1  0
 10 30  1  0
 12 31  1  0
 12 32  1  0
 16 33  1  6
 17 34  1  0
 17 35  1  0
 18 36  1  0
 18 37  1  0
 19 38  1  0
 19 39  1  0
 20 40  1  6
 22 41  1  0
 24 42  1  0
M  ISO  8  26  14  29  14  30  14  33  13  34  13  35  13  36  13  37  13
M  ISO  5  38  13  39  13  40  13  41  14  42  14
M  END
>  <minimizedAffinity>  (1) 
-6.12850571

>  <minimizedRMSD>  (1) 
1.79147613

$$$$
