
     RDKit          3D

 45 48  0  0  1  0  0  0  0  0999 V2000
   48.6330   33.7640   39.3490 C   0  0  0  0  0  0  0  0  0  0  0  0
   49.2570   32.6270   39.8900 C   0  0  0  0  0  0  0  0  0  0  0  0
   49.7480   31.6360   39.0620 C   0  0  0  0  0  0  0  0  0  0  0  0
   49.5850   31.8400   37.7190 N   0  0  0  0  0  0  0  0  0  0  0  0
   48.9790   32.9440   37.2180 C   0  0  0  0  0  0  0  0  0  0  0  0
   48.5020   33.9090   38.0230 N   0  0  0  0  0  0  0  0  0  0  0  0
   48.8270   33.0950   35.8090 N   0  0  0  0  0  0  0  0  0  0  0  0
   50.3940   30.4690   39.5610 N   0  0  0  0  0  0  0  0  0  0  0  0
   50.0500   29.2390   39.0960 C   0  0  0  0  0  0  0  0  0  0  0  0
   50.6960   28.1270   39.6040 C   0  0  0  0  0  0  0  0  0  0  0  0
   51.6770   28.2930   40.5720 C   0  0  0  0  0  0  0  0  0  0  0  0
   52.3130   27.1200   41.0660 N   0  0  0  0  0  0  0  0  0  0  0  0
   51.9890   29.5130   41.0030 N   0  0  0  0  0  0  0  0  0  0  0  0
   51.3580   30.6020   40.5090 C   0  0  0  0  0  0  0  0  0  0  0  0
   51.7220   31.7110   40.9780 O   0  0  0  0  0  0  0  0  0  0  0  0
   48.0980   34.7940   40.2530 C   0  0  2  0  0  0  0  0  0  0  0  0
   48.9460   35.7760   40.8060 C   0  0  0  0  0  0  0  0  0  0  0  0
   49.3710   35.3160   42.2260 C   0  0  0  0  0  0  0  0  0  0  0  0
   48.6880   33.9830   42.4570 C   0  0  0  0  0  0  0  0  0  0  0  0
   47.5980   33.9530   41.5140 C   0  0  1  0  0  0  0  0  0  0  0  0
   46.2930   34.4840   41.8820 C   0  0  0  0  0  0  0  0  0  0  0  0
   45.9460   35.0340   43.0900 C   0  0  0  0  0  0  0  0  0  0  0  0
   44.7100   35.5380   43.4270 C   0  0  0  0  0  0  0  0  0  0  0  0
   43.6920   35.5080   42.4930 C   0  0  0  0  0  0  0  0  0  0  0  0
   44.0350   34.9560   41.2770 C   0  0  0  0  0  0  0  0  0  0  0  0
   45.2480   34.4820   41.0010 N   0  0  0  0  0  0  0  0  0  0  0  0
   49.3552   32.5253   40.9809 H   0  0  0  0  0  0  0  0  0  0  0  0
   48.3666   33.9337   35.4276 H   0  0  0  0  0  0  0  0  0  0  0  0
   49.1776   32.3654   35.1721 H   0  0  0  0  0  0  0  0  0  0  0  0
   49.2702   29.1300   38.3279 H   0  0  0  0  0  0  0  0  0  0  0  0
   50.4351   27.1207   39.2446 H   0  0  0  0  0  0  0  0  0  0  0  0
   53.0467   27.1959   41.7849 H   0  0  0  0  0  0  0  0  0  0  0  0
   52.0397   26.1950   40.7047 H   0  0  0  0  0  0  0  0  0  0  0  0
   47.3912   35.3697   39.6373 H   0  0  0  0  0  0  0  0  0  0  0  0
   49.8372   35.8961   40.1726 H   0  0  0  0  0  0  0  0  0  0  0  0
   48.4192   36.7399   40.8638 H   0  0  0  0  0  0  0  0  0  0  0  0
   50.4635   35.1995   42.2787 H   0  0  0  0  0  0  0  0  0  0  0  0
   49.0836   36.0530   42.9904 H   0  0  0  0  0  0  0  0  0  0  0  0
   49.3854   33.1536   42.2681 H   0  0  0  0  0  0  0  0  0  0  0  0
   48.3396   33.8719   43.4944 H   0  0  0  0  0  0  0  0  0  0  0  0
   47.3945   32.8807   41.3768 H   0  0  0  0  0  0  0  0  0  0  0  0
   46.7288   35.0762   43.8617 H   0  0  0  0  0  0  0  0  0  0  0  0
   44.5349   35.9596   44.4278 H   0  0  0  0  0  0  0  0  0  0  0  0
   42.6842   35.8952   42.7037 H   0  0  0  0  0  0  0  0  0  0  0  0
   43.2652   34.9045   40.4930 H   0  0  0  0  0  0  0  0  0  0  0  0
  1  2  2  0
  1 16  1  0
  3  8  1  0
  3  2  1  0
  4  3  2  0
  5  4  1  0
  5  6  2  0
  6  1  1  0
  7  5  1  0
  8 14  1  0
  9  8  1  0
  9 10  2  0
 10 11  1  0
 11 13  2  0
 11 12  1  0
 14 15  2  0
 14 13  1  0
 16 17  1  0
 16 20  1  0
 17 18  1  0
 18 19  1  0
 20 21  1  0
 20 19  1  0
 21 22  2  0
 22 23  1  0
 24 23  2  0
 25 24  1  0
 26 25  2  0
 26 21  1  0
  2 27  1  0
  7 28  1  0
  7 29  1  0
  9 30  1  0
 10 31  1  0
 12 32  1  0
 12 33  1  0
 16 34  1  6
 17 35  1  0
 17 36  1  0
 18 37  1  0
 18 38  1  0
 19 39  1  0
 19 40  1  0
 20 41  1  6
 22 42  1  0
 23 43  1  0
 24 44  1  0
 25 45  1  0
M  ISO  8  27  14  30  14  31  14  34  13  35  13  36  13  37  13  38  13
M  ISO  7  39  13  40  13  41  13  42  14  43  14  44  14  45  14
M  END
>  <minimizedAffinity>  (1) 
-5.95474195

>  <minimizedRMSD>  (1) 
2.06439161

$$$$
