
     RDKit          3D

 46 49  0  0  1  0  0  0  0  0999 V2000
   46.9210   33.1190   40.6890 C   0  0  0  0  0  0  0  0  0  0  0  0
   48.1620   32.4830   40.8240 C   0  0  0  0  0  0  0  0  0  0  0  0
   49.0300   32.3930   39.7520 C   0  0  0  0  0  0  0  0  0  0  0  0
   48.6010   32.9500   38.5960 N   0  0  0  0  0  0  0  0  0  0  0  0
   47.3920   33.5660   38.4750 C   0  0  0  0  0  0  0  0  0  0  0  0
   46.5520   33.6540   39.5140 N   0  0  0  0  0  0  0  0  0  0  0  0
   47.0050   34.1280   37.2190 N   0  0  0  0  0  0  0  0  0  0  0  0
   50.3030   31.7630   39.8460 N   0  0  0  0  0  0  0  0  0  0  0  0
   50.7060   30.8650   38.9220 C   0  0  0  0  0  0  0  0  0  0  0  0
   51.9470   30.2730   39.0580 C   0  0  0  0  0  0  0  0  0  0  0  0
   52.7560   30.5940   40.1150 C   0  0  0  0  0  0  0  0  0  0  0  0
   54.0060   29.9600   40.2510 N   0  0  0  0  0  0  0  0  0  0  0  0
   52.3320   31.4910   41.0200 N   0  0  0  0  0  0  0  0  0  0  0  0
   51.1160   32.0750   40.8930 C   0  0  0  0  0  0  0  0  0  0  0  0
   50.8030   32.9080   41.7960 O   0  0  0  0  0  0  0  0  0  0  0  0
   46.0050   33.1800   41.8420 C   0  0  2  0  0  0  0  0  0  0  0  0
   44.7200   33.7490   41.7060 C   0  0  0  0  0  0  0  0  0  0  0  0
   44.7840   35.2150   42.1950 C   0  0  0  0  0  0  0  0  0  0  0  0
   46.2180   35.4430   42.6140 C   0  0  0  0  0  0  0  0  0  0  0  0
   46.7530   34.1220   42.8730 C   0  0  1  0  0  0  0  0  0  0  0  0
   46.5440   33.5110   44.1870 C   0  0  0  0  0  0  0  0  0  0  0  0
   47.1780   32.2710   44.3690 C   0  0  0  0  0  0  0  0  0  0  0  0
   47.1020   31.5260   45.5550 C   0  0  0  0  0  0  0  0  0  0  0  0
   46.3730   32.0100   46.6200 C   0  0  0  0  0  0  0  0  0  0  0  0
   45.7370   33.2240   46.4790 C   0  0  0  0  0  0  0  0  0  0  0  0
   45.8450   33.9110   45.2940 C   0  0  0  0  0  0  0  0  0  0  0  0
   48.4488   32.0505   41.7939 H   0  0  0  0  0  0  0  0  0  0  0  0
   46.0918   34.5946   37.1231 H   0  0  0  0  0  0  0  0  0  0  0  0
   47.6393   34.0663   36.4099 H   0  0  0  0  0  0  0  0  0  0  0  0
   50.0556   30.6083   38.0729 H   0  0  0  0  0  0  0  0  0  0  0  0
   52.2872   29.5392   38.3125 H   0  0  0  0  0  0  0  0  0  0  0  0
   54.6199   30.1964   41.0436 H   0  0  0  0  0  0  0  0  0  0  0  0
   54.3065   29.2598   39.5579 H   0  0  0  0  0  0  0  0  0  0  0  0
   45.8031   32.1281   42.0926 H   0  0  0  0  0  0  0  0  0  0  0  0
   44.4110   33.7220   40.6506 H   0  0  0  0  0  0  0  0  0  0  0  0
   43.9894   33.1822   42.3018 H   0  0  0  0  0  0  0  0  0  0  0  0
   44.5077   35.9030   41.3824 H   0  0  0  0  0  0  0  0  0  0  0  0
   44.0844   35.3978   43.0239 H   0  0  0  0  0  0  0  0  0  0  0  0
   46.7815   35.9361   41.8082 H   0  0  0  0  0  0  0  0  0  0  0  0
   46.2895   36.0956   43.4966 H   0  0  0  0  0  0  0  0  0  0  0  0
   47.8448   34.2329   42.7977 H   0  0  0  0  0  0  0  0  0  0  0  0
   47.7669   31.8613   43.5351 H   0  0  0  0  0  0  0  0  0  0  0  0
   47.6218   30.5599   45.6348 H   0  0  0  0  0  0  0  0  0  0  0  0
   46.3008   31.4413   47.5588 H   0  0  0  0  0  0  0  0  0  0  0  0
   45.1471   33.6402   47.3090 H   0  0  0  0  0  0  0  0  0  0  0  0
   45.3193   34.8750   45.2285 H   0  0  0  0  0  0  0  0  0  0  0  0
  1  2  2  0
  1 16  1  0
  3  8  1  0
  3  2  1  0
  4  3  2  0
  5  4  1  0
  5  6  2  0
  6  1  1  0
  7  5  1  0
  8 14  1  0
  9 10  2  0
  9  8  1  0
 10 11  1  0
 11 12  1  0
 11 13  2  0
 14 13  1  0
 14 15  2  0
 16 20  1  0
 17 16  1  0
 17 18  1  0
 18 19  1  0
 19 20  1  0
 20 21  1  0
 21 22  2  0
 21 26  1  0
 22 23  1  0
 23 24  2  0
 25 24  1  0
 26 25  2  0
  2 27  1  0
  7 28  1  0
  7 29  1  0
  9 30  1  0
 10 31  1  0
 12 32  1  0
 12 33  1  0
 16 34  1  1
 17 35  1  0
 17 36  1  0
 18 37  1  0
 18 38  1  0
 19 39  1  0
 19 40  1  0
 20 41  1  6
 22 42  1  0
 23 43  1  0
 24 44  1  0
 25 45  1  0
 26 46  1  0
M  ISO  8  27  14  30  14  31  14  34  13  35  13  36  13  37  13  38  13
M  ISO  8  39  13  40  13  41  13  42  14  43  14  44  14  45  14  46  14
M  END
>  <minimizedAffinity>  (1) 
-6.03755379

>  <minimizedRMSD>  (1) 
3.2299757

$$$$
