
     RDKit          3D

 49 52  0  0  1  0  0  0  0  0999 V2000
   48.9020   32.8180   40.3510 C   0  0  2  0  0  0  0  0  0  0  0  0
   49.8030   32.2900   41.3000 C   0  0  0  0  0  0  0  0  0  0  0  0
   49.1950   30.9910   41.8880 C   0  0  0  0  0  0  0  0  0  0  0  0
   47.8590   30.8150   41.2020 C   0  0  0  0  0  0  0  0  0  0  0  0
   47.5130   32.1300   40.7070 C   0  0  1  0  0  0  0  0  0  0  0  0
   49.0750   32.5370   38.9160 C   0  0  0  0  0  0  0  0  0  0  0  0
   50.1570   31.7580   38.4900 C   0  0  0  0  0  0  0  0  0  0  0  0
   50.3340   31.4570   37.1520 C   0  0  0  0  0  0  0  0  0  0  0  0
   49.3910   31.9680   36.2990 N   0  0  0  0  0  0  0  0  0  0  0  0
   48.3480   32.7220   36.7290 C   0  0  0  0  0  0  0  0  0  0  0  0
   48.1810   33.0120   38.0340 N   0  0  0  0  0  0  0  0  0  0  0  0
   47.3940   33.2150   35.7920 N   0  0  0  0  0  0  0  0  0  0  0  0
   51.4160   30.6750   36.6700 N   0  0  0  0  0  0  0  0  0  0  0  0
   51.2060   29.6620   35.8000 C   0  0  0  0  0  0  0  0  0  0  0  0
   52.2990   28.9300   35.3660 C   0  0  0  0  0  0  0  0  0  0  0  0
   53.5600   29.2270   35.8070 C   0  0  0  0  0  0  0  0  0  0  0  0
   54.6430   28.4480   35.3410 N   0  0  0  0  0  0  0  0  0  0  0  0
   53.7300   30.2310   36.6610 N   0  0  0  0  0  0  0  0  0  0  0  0
   52.6740   30.9600   37.0990 C   0  0  0  0  0  0  0  0  0  0  0  0
   52.9410   31.8980   37.9150 O   0  0  0  0  0  0  0  0  0  0  0  0
   45.2940   34.6570   43.4050 C   0  0  0  0  0  0  0  0  0  0  0  0
   46.1750   35.2370   42.5180 C   0  0  0  0  0  0  0  0  0  0  0  0
   46.8910   34.4450   41.6530 C   0  0  0  0  0  0  0  0  0  0  0  0
   46.8170   33.0730   41.5750 C   0  0  0  0  0  0  0  0  0  0  0  0
   45.8990   32.5580   42.5080 C   0  0  0  0  0  0  0  0  0  0  0  0
   45.1480   33.2900   43.4040 C   0  0  0  0  0  0  0  0  0  0  0  0
   44.4100   35.6840   44.4790 S   0  0  0  0  0  0  0  0  0  0  0  0
   44.5690   35.2820   45.9270 O   0  0  0  0  0  0  0  0  0  0  0  0
   44.9430   37.0990   44.4010 O   0  0  0  0  0  0  0  0  0  0  0  0
   49.0301   33.9072   40.4364 H   0  0  0  0  0  0  0  0  0  0  0  0
   50.7631   32.0629   40.8135 H   0  0  0  0  0  0  0  0  0  0  0  0
   49.9754   33.0218   42.1030 H   0  0  0  0  0  0  0  0  0  0  0  0
   49.8496   30.1323   41.6780 H   0  0  0  0  0  0  0  0  0  0  0  0
   49.0842   31.0540   42.9806 H   0  0  0  0  0  0  0  0  0  0  0  0
   47.9430   30.0993   40.3709 H   0  0  0  0  0  0  0  0  0  0  0  0
   47.0941   30.4176   41.8854 H   0  0  0  0  0  0  0  0  0  0  0  0
   46.7928   31.9368   39.8983 H   0  0  0  0  0  0  0  0  0  0  0  0
   50.8771   31.3797   39.2304 H   0  0  0  0  0  0  0  0  0  0  0  0
   46.6017   33.7875   36.1166 H   0  0  0  0  0  0  0  0  0  0  0  0
   47.4969   32.9988   34.7902 H   0  0  0  0  0  0  0  0  0  0  0  0
   50.1921   29.4248   35.4454 H   0  0  0  0  0  0  0  0  0  0  0  0
   52.1517   28.1005   34.6588 H   0  0  0  0  0  0  0  0  0  0  0  0
   55.6004   28.6541   35.6600 H   0  0  0  0  0  0  0  0  0  0  0  0
   54.4749   27.6741   34.6824 H   0  0  0  0  0  0  0  0  0  0  0  0
   46.3044   36.3292   42.5025 H   0  0  0  0  0  0  0  0  0  0  0  0
   47.5828   34.9511   40.9636 H   0  0  0  0  0  0  0  0  0  0  0  0
   45.7673   31.4660   42.5247 H   0  0  0  0  0  0  0  0  0  0  0  0
   44.4526   32.7945   44.0975 H   0  0  0  0  0  0  0  0  0  0  0  0
   43.0995   35.5831   44.0926 H   0  0  0  0  0  0  0  0  0  0  0  0
  1  5  1  0
  1  2  1  0
  2  3  1  0
  4  3  1  0
  5  4  1  0
  5 24  1  0
  6  1  1  0
  7  6  2  0
  8  7  1  0
  9 10  1  0
  9  8  2  0
 10 11  2  0
 11  6  1  0
 12 10  1  0
 13 19  1  0
 13  8  1  0
 14 13  1  0
 15 14  2  0
 15 16  1  0
 16 18  2  0
 17 16  1  0
 18 19  1  0
 19 20  2  0
 21 27  1  0
 22 21  2  0
 23 22  1  0
 24 23  2  0
 24 25  1  0
 25 26  2  0
 26 21  1  0
 27 28  2  0
 29 27  2  0
  1 30  1  6
  2 31  1  0
  2 32  1  0
  3 33  1  0
  3 34  1  0
  4 35  1  0
  4 36  1  0
  5 37  1  6
  7 38  1  0
 12 39  1  0
 12 40  1  0
 14 41  1  0
 15 42  1  0
 17 43  1  0
 17 44  1  0
 22 45  1  0
 23 46  1  0
 25 47  1  0
 26 48  1  0
 27 49  1  0
M  ISO  8  30  13  31  13  32  13  33  13  34  13  35  13  36  13  37  13
M  ISO  8  38  14  41  14  42  14  45  14  46  14  47  14  48  14  49  11
M  END
>  <minimizedAffinity>  (1) 
-5.63029003

>  <minimizedRMSD>  (1) 
3.66128659

$$$$
