
     RDKit          3D

 51 54  0  0  1  0  0  0  0  0999 V2000
   48.4830   33.2560   40.2460 C   0  0  0  0  0  0  0  0  0  0  0  0
   49.3750   32.2420   39.8510 C   0  0  0  0  0  0  0  0  0  0  0  0
   49.5750   31.9630   38.5160 C   0  0  0  0  0  0  0  0  0  0  0  0
   48.8610   32.7210   37.6310 N   0  0  0  0  0  0  0  0  0  0  0  0
   48.0020   33.6950   38.0350 C   0  0  0  0  0  0  0  0  0  0  0  0
   47.8100   33.9670   39.3370 N   0  0  0  0  0  0  0  0  0  0  0  0
   47.2790   34.4430   37.0600 N   0  0  0  0  0  0  0  0  0  0  0  0
   50.4730   30.9550   38.0640 N   0  0  0  0  0  0  0  0  0  0  0  0
   50.0870   30.0540   37.1240 C   0  0  0  0  0  0  0  0  0  0  0  0
   50.9870   29.0890   36.7090 C   0  0  0  0  0  0  0  0  0  0  0  0
   52.2590   29.0640   37.2620 C   0  0  0  0  0  0  0  0  0  0  0  0
   53.1500   28.0540   36.8100 N   0  0  0  0  0  0  0  0  0  0  0  0
   52.6090   29.9640   38.1850 N   0  0  0  0  0  0  0  0  0  0  0  0
   51.7290   30.9050   38.5890 C   0  0  0  0  0  0  0  0  0  0  0  0
   52.1480   31.7110   39.4620 O   0  0  0  0  0  0  0  0  0  0  0  0
   48.2760   33.5050   41.6730 C   0  0  2  0  0  0  0  0  0  0  0  0
   49.1010   32.8840   42.6450 C   0  0  0  0  0  0  0  0  0  0  0  0
   48.3530   31.6530   43.2000 C   0  0  0  0  0  0  0  0  0  0  0  0
   47.0470   31.5480   42.4300 C   0  0  0  0  0  0  0  0  0  0  0  0
   46.8370   32.9100   41.9570 C   0  0  1  0  0  0  0  0  0  0  0  0
   46.0280   33.7640   42.7130 N   0  0  0  0  0  0  0  0  0  0  0  0
   45.5180   34.9090   42.0280 C   0  0  0  0  0  0  0  0  0  0  0  0
   45.3670   36.0910   42.9590 C   0  0  0  0  0  0  0  0  0  0  0  0
   44.5080   35.6760   44.1270 C   0  0  0  0  0  0  0  0  0  0  0  0
   45.1910   34.5040   44.8000 C   0  0  0  0  0  0  0  0  0  0  0  0
   45.2290   33.3760   43.7730 C   0  0  0  0  0  0  0  0  0  0  0  0
   49.9180   31.6663   40.6150 H   0  0  0  0  0  0  0  0  0  0  0  0
   46.6266   35.1823   37.3578 H   0  0  0  0  0  0  0  0  0  0  0  0
   47.4091   34.2441   36.0578 H   0  0  0  0  0  0  0  0  0  0  0  0
   49.0732   30.0911   36.6987 H   0  0  0  0  0  0  0  0  0  0  0  0
   50.6971   28.3491   35.9484 H   0  0  0  0  0  0  0  0  0  0  0  0
   54.1040   27.9992   37.1943 H   0  0  0  0  0  0  0  0  0  0  0  0
   52.8419   27.3765   36.0980 H   0  0  0  0  0  0  0  0  0  0  0  0
   48.4790   34.5794   41.7935 H   0  0  0  0  0  0  0  0  0  0  0  0
   50.0471   32.5669   42.1821 H   0  0  0  0  0  0  0  0  0  0  0  0
   49.3256   33.5897   43.4584 H   0  0  0  0  0  0  0  0  0  0  0  0
   48.9551   30.7447   43.0498 H   0  0  0  0  0  0  0  0  0  0  0  0
   48.1673   31.7578   44.2791 H   0  0  0  0  0  0  0  0  0  0  0  0
   47.1396   30.8465   41.5878 H   0  0  0  0  0  0  0  0  0  0  0  0
   46.2138   31.1663   43.0383 H   0  0  0  0  0  0  0  0  0  0  0  0
   46.2122   32.8418   41.0543 H   0  0  0  0  0  0  0  0  0  0  0  0
   46.2112   35.1787   41.2177 H   0  0  0  0  0  0  0  0  0  0  0  0
   44.5252   34.6570   41.6269 H   0  0  0  0  0  0  0  0  0  0  0  0
   46.3567   36.4069   43.3205 H   0  0  0  0  0  0  0  0  0  0  0  0
   44.8975   36.9314   42.4267 H   0  0  0  0  0  0  0  0  0  0  0  0
   44.4093   36.5111   44.8362 H   0  0  0  0  0  0  0  0  0  0  0  0
   43.5007   35.3943   43.7865 H   0  0  0  0  0  0  0  0  0  0  0  0
   46.2129   34.7803   45.0989 H   0  0  0  0  0  0  0  0  0  0  0  0
   44.6511   34.1970   45.7079 H   0  0  0  0  0  0  0  0  0  0  0  0
   44.2104   33.1704   43.4121 H   0  0  0  0  0  0  0  0  0  0  0  0
   45.6373   32.4647   44.2343 H   0  0  0  0  0  0  0  0  0  0  0  0
  1 16  1  0
  2  1  2  0
  3  2  1  0
  4  5  1  0
  4  3  2  0
  5  6  2  0
  6  1  1  0
  7  5  1  0
  8  3  1  0
  8 14  1  0
  9  8  1  0
 10  9  2  0
 10 11  1  0
 11 13  2  0
 12 11  1  0
 13 14  1  0
 14 15  2  0
 16 20  1  0
 16 17  1  0
 17 18  1  0
 19 18  1  0
 20 19  1  0
 20 21  1  0
 21 26  1  0
 22 21  1  0
 22 23  1  0
 23 24  1  0
 24 25  1  0
 26 25  1  0
  2 27  1  0
  7 28  1  0
  7 29  1  0
  9 30  1  0
 10 31  1  0
 12 32  1  0
 12 33  1  0
 16 34  1  6
 17 35  1  0
 17 36  1  0
 18 37  1  0
 18 38  1  0
 19 39  1  0
 19 40  1  0
 20 41  1  6
 22 42  1  0
 22 43  1  0
 23 44  1  0
 23 45  1  0
 24 46  1  0
 24 47  1  0
 25 48  1  0
 25 49  1  0
 26 50  1  0
 26 51  1  0
M  ISO  8  27  14  30  14  31  14  34  13  35  13  36  13  37  13  38  13
M  ISO  8  39  13  40  13  41  13  42  13  43  13  44  13  45  13  46  13
M  ISO  5  47  13  48  13  49  13  50  13  51  13
M  END
>  <minimizedAffinity>  (1) 
-5.53216934

>  <minimizedRMSD>  (1) 
2.11936808

$$$$
