
     RDKit          3D

 38 40  0  0  1  0  0  0  0  0999 V2000
   49.1130   32.6810   41.8180 C   0  0  0  0  0  0  0  0  0  0  0  0
   48.4570   32.7410   40.5680 C   0  0  0  0  0  0  0  0  0  0  0  0
   49.1040   32.3470   39.4020 C   0  0  0  0  0  0  0  0  0  0  0  0
   50.3980   31.9110   39.5760 N   0  0  0  0  0  0  0  0  0  0  0  0
   51.0040   31.8650   40.7930 C   0  0  0  0  0  0  0  0  0  0  0  0
   50.3570   32.2490   41.8950 N   0  0  0  0  0  0  0  0  0  0  0  0
   52.3550   31.4080   40.9010 N   0  0  0  0  0  0  0  0  0  0  0  0
   48.5060   32.3690   38.1180 N   0  0  0  0  0  0  0  0  0  0  0  0
   49.1540   32.9030   37.0610 C   0  0  0  0  0  0  0  0  0  0  0  0
   48.5190   32.8940   35.8300 C   0  0  0  0  0  0  0  0  0  0  0  0
   47.2520   32.3450   35.7070 C   0  0  0  0  0  0  0  0  0  0  0  0
   46.6500   32.3640   34.4140 N   0  0  0  0  0  0  0  0  0  0  0  0
   46.6510   31.8310   36.7700 N   0  0  0  0  0  0  0  0  0  0  0  0
   47.2640   31.8370   37.9740 C   0  0  0  0  0  0  0  0  0  0  0  0
   46.6050   31.3200   38.9300 O   0  0  0  0  0  0  0  0  0  0  0  0
   48.3890   33.1170   42.9960 C   0  0  2  0  0  0  0  0  0  0  0  0
   47.0330   32.7590   43.2160 C   0  0  0  0  0  0  0  0  0  0  0  0
   46.1320   33.9260   42.7360 C   0  0  0  0  0  0  0  0  0  0  0  0
   47.0760   35.0080   42.1870 C   0  0  0  0  0  0  0  0  0  0  0  0
   48.3220   34.6930   42.8650 C   0  0  2  0  0  0  0  0  0  0  0  0
   49.5510   35.2490   42.3300 C   0  0  0  0  0  0  0  0  0  0  0  0
   49.3680   36.2530   41.6290 O   0  0  0  0  0  0  0  0  0  0  0  0
   47.4201   33.1045   40.5166 H   0  0  0  0  0  0  0  0  0  0  0  0
   52.8147   31.3728   41.8221 H   0  0  0  0  0  0  0  0  0  0  0  0
   52.8682   31.1141   40.0577 H   0  0  0  0  0  0  0  0  0  0  0  0
   50.1597   33.3339   37.1743 H   0  0  0  0  0  0  0  0  0  0  0  0
   49.0203   33.3226   34.9497 H   0  0  0  0  0  0  0  0  0  0  0  0
   45.7095   31.9666   34.2779 H   0  0  0  0  0  0  0  0  0  0  0  0
   47.1558   32.7751   33.6164 H   0  0  0  0  0  0  0  0  0  0  0  0
   48.9391   32.6281   43.8135 H   0  0  0  0  0  0  0  0  0  0  0  0
   46.7932   31.8475   42.6488 H   0  0  0  0  0  0  0  0  0  0  0  0
   46.8627   32.5667   44.2856 H   0  0  0  0  0  0  0  0  0  0  0  0
   45.4503   33.5795   41.9453 H   0  0  0  0  0  0  0  0  0  0  0  0
   45.5145   34.3164   43.5584 H   0  0  0  0  0  0  0  0  0  0  0  0
   47.1836   34.9282   41.0952 H   0  0  0  0  0  0  0  0  0  0  0  0
   46.7231   36.0351   42.3616 H   0  0  0  0  0  0  0  0  0  0  0  0
   48.2809   35.2046   43.8379 H   0  0  0  0  0  0  0  0  0  0  0  0
   50.5451   34.8215   42.5274 H   0  0  0  0  0  0  0  0  0  0  0  0
  1  6  1  0
  1 16  1  0
  2  1  2  0
  3  4  2  0
  3  2  1  0
  4  5  1  0
  5  7  1  0
  5  6  2  0
  8  3  1  0
  9  8  1  0
 10  9  2  0
 11 10  1  0
 11 13  2  0
 12 11  1  0
 13 14  1  0
 14  8  1  0
 14 15  2  0
 16 17  1  0
 18 17  1  0
 19 18  1  0
 19 20  1  0
 20 16  1  0
 21 20  1  0
 22 21  2  0
  2 23  1  0
  7 24  1  0
  7 25  1  0
  9 26  1  0
 10 27  1  0
 12 28  1  0
 12 29  1  0
 16 30  1  1
 17 31  1  0
 17 32  1  0
 18 33  1  0
 18 34  1  0
 19 35  1  0
 19 36  1  0
 20 37  1  1
 21 38  1  0
M  ISO  8  23  14  26  14  27  14  30  13  31  13  32  13  33  13  34  13
M  ISO  4  35  13  36  13  37  13  38   6
M  END
>  <minimizedAffinity>  (1) 
-5.24370623

>  <minimizedRMSD>  (1) 
4.36686373

$$$$
