
     RDKit          3D

 30 32  0  0  0  0  0  0  0  0999 V2000
   47.2400   32.2760   45.0400 C   0  0  0  0  0  0  0  0  0  0  0  0
   46.6990   30.9540   45.3930 N   0  0  0  0  0  0  0  0  0  0  0  0
   46.5830   29.8180   44.6820 C   0  0  0  0  0  0  0  0  0  0  0  0
   46.0170   28.8670   45.4470 N   0  0  0  0  0  0  0  0  0  0  0  0
   45.7540   29.3590   46.6650 C   0  0  0  0  0  0  0  0  0  0  0  0
   45.2080   28.9250   47.8480 C   0  0  0  0  0  0  0  0  0  0  0  0
   44.8100   27.7320   47.9050 O   0  0  0  0  0  0  0  0  0  0  0  0
   45.0740   29.6950   48.9450 N   0  0  0  0  0  0  0  0  0  0  0  0
   45.5040   30.9560   48.8600 C   0  0  0  0  0  0  0  0  0  0  0  0
   45.4580   31.9360   49.8930 N   0  0  0  0  0  0  0  0  0  0  0  0
   46.0360   31.4060   47.7280 N   0  0  0  0  0  0  0  0  0  0  0  0
   46.1890   30.6660   46.6070 C   0  0  0  0  0  0  0  0  0  0  0  0
   46.5190   32.6440   43.7360 C   0  0  0  0  0  0  0  0  0  0  0  0
   44.6320   35.4280   45.3130 C   0  0  0  0  0  0  0  0  0  0  0  0
   44.6400   36.3910   44.2890 C   0  0  0  0  0  0  0  0  0  0  0  0
   45.2850   36.0520   43.1080 C   0  0  0  0  0  0  0  0  0  0  0  0
   45.8710   34.8220   43.0000 N   0  0  0  0  0  0  0  0  0  0  0  0
   45.8370   33.9300   44.0130 C   0  0  0  0  0  0  0  0  0  0  0  0
   45.2230   34.2300   45.1590 N   0  0  0  0  0  0  0  0  0  0  0  0
   47.0191   33.0107   45.8283 H   0  0  0  0  0  0  0  0  0  0  0  0
   48.3342   32.2663   44.9273 H   0  0  0  0  0  0  0  0  0  0  0  0
   46.9015   29.6870   43.6373 H   0  0  0  0  0  0  0  0  0  0  0  0
   44.6577   29.3267   49.8122 H   0  0  0  0  0  0  0  0  0  0  0  0
   45.8195   32.8847   49.7193 H   0  0  0  0  0  0  0  0  0  0  0  0
   45.0633   31.6958   50.8135 H   0  0  0  0  0  0  0  0  0  0  0  0
   45.7854   31.8688   43.4699 H   0  0  0  0  0  0  0  0  0  0  0  0
   47.2183   32.7255   42.8908 H   0  0  0  0  0  0  0  0  0  0  0  0
   44.1299   35.6602   46.2638 H   0  0  0  0  0  0  0  0  0  0  0  0
   44.1562   37.3704   44.4182 H   0  0  0  0  0  0  0  0  0  0  0  0
   45.3241   36.7636   42.2701 H   0  0  0  0  0  0  0  0  0  0  0  0
  1  2  1  0
  2 12  1  0
  3  2  1  0
  3  4  2  0
  4  5  1  0
  5  6  1  0
  6  7  2  0
  6  8  1  0
  9  8  1  0
  9 10  1  0
 11  9  2  0
 12  5  2  0
 12 11  1  0
 13 18  1  0
 13  1  1  0
 15 14  2  0
 16 15  1  0
 17 16  2  0
 17 18  1  0
 18 19  2  0
 19 14  1  0
  1 20  1  0
  1 21  1  0
  3 22  1  0
  8 23  1  0
 10 24  1  0
 10 25  1  0
 13 26  1  0
 13 27  1  0
 14 28  1  0
 15 29  1  0
 16 30  1  0
M  ISO  8  20   8  21   8  22  14  23   9  26   8  27   8  28  14  29  14
M  ISO  1  30  14
M  END
>  <minimizedAffinity>  (1) 
-5.13124943

>  <minimizedRMSD>  (1) 
3.46466064

$$$$
