
     RDKit          3D

 22 23  0  0  0  0  0  0  0  0999 V2000
   46.3500   32.9390   45.9260 C   0  0  0  0  0  0  0  0  0  0  0  0
   44.4950   35.8640   44.5310 C   0  0  0  0  0  0  0  0  0  0  0  0
   45.1050   35.9930   43.2710 C   0  0  0  0  0  0  0  0  0  0  0  0
   46.1110   35.0950   42.9420 C   0  0  0  0  0  0  0  0  0  0  0  0
   46.4540   34.1440   43.8460 N   0  0  0  0  0  0  0  0  0  0  0  0
   45.8570   34.0370   45.0490 C   0  0  0  0  0  0  0  0  0  0  0  0
   44.8890   34.8900   45.3850 N   0  0  0  0  0  0  0  0  0  0  0  0
   45.5210   33.0600   47.2110 C   0  0  0  0  0  0  0  0  0  0  0  0
   45.3720   31.7170   47.7290 N   0  0  0  0  0  0  0  0  0  0  0  0
   45.1170   31.4090   49.0310 C   0  0  0  0  0  0  0  0  0  0  0  0
   45.0530   30.0580   49.0880 N   0  0  0  0  0  0  0  0  0  0  0  0
   45.2670   29.6130   47.8380 C   0  0  0  0  0  0  0  0  0  0  0  0
   45.4670   30.6150   46.9780 N   0  0  0  0  0  0  0  0  0  0  0  0
   47.4208   33.0674   46.1424 H   0  0  0  0  0  0  0  0  0  0  0  0
   46.2420   31.9512   45.4542 H   0  0  0  0  0  0  0  0  0  0  0  0
   43.6935   36.5579   44.8246 H   0  0  0  0  0  0  0  0  0  0  0  0
   44.7950   36.7804   42.5683 H   0  0  0  0  0  0  0  0  0  0  0  0
   46.6194   35.1535   41.9683 H   0  0  0  0  0  0  0  0  0  0  0  0
   46.0434   33.6941   47.9425 H   0  0  0  0  0  0  0  0  0  0  0  0
   44.5425   33.5217   47.0124 H   0  0  0  0  0  0  0  0  0  0  0  0
   44.9892   32.1140   49.8657 H   0  0  0  0  0  0  0  0  0  0  0  0
   45.2763   28.5496   47.5566 H   0  0  0  0  0  0  0  0  0  0  0  0
  1  8  1  0
  2  7  2  0
  3  2  1  0
  4  3  2  0
  4  5  1  0
  5  6  2  0
  6  7  1  0
  6  1  1  0
  8  9  1  0
  9 10  1  0
 10 11  2  0
 12 11  1  0
 13  9  1  0
 13 12  2  0
  1 14  1  0
  1 15  1  0
  2 16  1  0
  3 17  1  0
  4 18  1  0
  8 19  1  0
  8 20  1  0
 10 21  1  0
 12 22  1  0
M  ISO  8  14   8  15   8  16  14  17  14  18  14  19   8  20   8  21  14
M  ISO  1  22  14
M  END
>  <minimizedAffinity>  (1) 
-4.1368289

>  <minimizedRMSD>  (1) 
1.07113016

$$$$
