
     RDKit          3D

 31 32  0  0  0  0  0  0  0  0999 V2000
   46.6160   32.9960   45.3250 C   0  0  0  0  0  0  0  0  0  0  0  0
   44.4850   35.8820   44.2990 C   0  0  0  0  0  0  0  0  0  0  0  0
   45.0380   36.1590   43.0220 C   0  0  0  0  0  0  0  0  0  0  0  0
   46.0910   35.3820   42.5520 C   0  0  0  0  0  0  0  0  0  0  0  0
   46.5480   34.3800   43.3500 N   0  0  0  0  0  0  0  0  0  0  0  0
   46.0010   34.1390   44.5630 C   0  0  0  0  0  0  0  0  0  0  0  0
   44.9920   34.8730   45.0280 N   0  0  0  0  0  0  0  0  0  0  0  0
   45.8720   32.9310   46.6410 C   0  0  0  0  0  0  0  0  0  0  0  0
   46.4510   32.1930   47.6730 N   0  0  0  0  0  0  0  0  0  0  0  0
   45.8060   32.2430   48.9450 C   0  0  0  0  0  0  0  0  0  0  0  0
   45.5880   30.8650   49.5070 C   0  0  0  0  0  0  0  0  0  0  0  0
   45.0630   29.9500   48.4370 C   0  0  0  0  0  0  0  0  0  0  0  0
   45.9330   29.8870   47.2110 C   0  0  0  0  0  0  0  0  0  0  0  0
   47.0270   30.9300   47.3660 C   0  0  0  0  0  0  0  0  0  0  0  0
   47.6860   33.1829   45.4986 H   0  0  0  0  0  0  0  0  0  0  0  0
   46.5387   32.0501   44.7688 H   0  0  0  0  0  0  0  0  0  0  0  0
   43.6516   36.4856   44.6876 H   0  0  0  0  0  0  0  0  0  0  0  0
   44.6376   36.9805   42.4097 H   0  0  0  0  0  0  0  0  0  0  0  0
   46.5402   35.5717   41.5660 H   0  0  0  0  0  0  0  0  0  0  0  0
   45.7506   33.9630   47.0020 H   0  0  0  0  0  0  0  0  0  0  0  0
   44.9370   32.4005   46.4080 H   0  0  0  0  0  0  0  0  0  0  0  0
   46.4337   32.8180   49.6417 H   0  0  0  0  0  0  0  0  0  0  0  0
   44.8244   32.7223   48.8156 H   0  0  0  0  0  0  0  0  0  0  0  0
   46.5424   30.4714   49.8867 H   0  0  0  0  0  0  0  0  0  0  0  0
   44.8551   30.9209   50.3254 H   0  0  0  0  0  0  0  0  0  0  0  0
   44.9814   28.9365   48.8567 H   0  0  0  0  0  0  0  0  0  0  0  0
   44.0904   30.3537   48.1192 H   0  0  0  0  0  0  0  0  0  0  0  0
   45.3333   30.1036   46.3147 H   0  0  0  0  0  0  0  0  0  0  0  0
   46.3704   28.8838   47.1004 H   0  0  0  0  0  0  0  0  0  0  0  0
   47.7040   30.6304   48.1795 H   0  0  0  0  0  0  0  0  0  0  0  0
   47.5895   31.0077   46.4239 H   0  0  0  0  0  0  0  0  0  0  0  0
  1  8  1  0
  2  7  2  0
  3  2  1  0
  4  3  2  0
  4  5  1  0
  5  6  2  0
  6  7  1  0
  6  1  1  0
  8  9  1  0
  9 10  1  0
 10 11  1  0
 12 11  1  0
 13 14  1  0
 13 12  1  0
 14  9  1  0
  1 15  1  0
  1 16  1  0
  2 17  1  0
  3 18  1  0
  4 19  1  0
  8 20  1  0
  8 21  1  0
 10 22  1  0
 10 23  1  0
 11 24  1  0
 11 25  1  0
 12 26  1  0
 12 27  1  0
 13 28  1  0
 13 29  1  0
 14 30  1  0
 14 31  1  0
M  ISO  8  15   8  16   8  17  14  18  14  19  14  20   8  21   8  22  13
M  ISO  8  23  13  24  13  25  13  26  13  27  13  28  13  29  13  30  13
M  ISO  1  31  13
M  END
>  <minimizedAffinity>  (1) 
-4.48457766

>  <minimizedRMSD>  (1) 
1.23915648

$$$$
