
     RDKit          3D

 23 24  0  0  0  0  0  0  0  0999 V2000
   46.4540   32.5700   45.2690 C   0  0  0  0  0  0  0  0  0  0  0  0
   44.5740   35.7550   44.7790 C   0  0  0  0  0  0  0  0  0  0  0  0
   45.0230   36.1500   43.5070 C   0  0  0  0  0  0  0  0  0  0  0  0
   45.9390   35.3250   42.8730 C   0  0  0  0  0  0  0  0  0  0  0  0
   46.3580   34.1860   43.4970 N   0  0  0  0  0  0  0  0  0  0  0  0
   45.8980   33.8500   44.7190 C   0  0  0  0  0  0  0  0  0  0  0  0
   45.0200   34.6200   45.3520 N   0  0  0  0  0  0  0  0  0  0  0  0
   46.8010   32.8830   46.7090 C   0  0  0  0  0  0  0  0  0  0  0  0
   46.1150   31.9750   47.6250 N   0  0  0  0  0  0  0  0  0  0  0  0
   45.8840   32.2980   48.8920 N   0  0  0  0  0  0  0  0  0  0  0  0
   45.2460   31.2980   49.5070 C   0  0  0  0  0  0  0  0  0  0  0  0
   45.0820   30.3100   48.5570 C   0  0  0  0  0  0  0  0  0  0  0  0
   45.6270   30.7390   47.3810 C   0  0  0  0  0  0  0  0  0  0  0  0
   47.3526   32.2672   44.7114 H   0  0  0  0  0  0  0  0  0  0  0  0
   45.7385   31.7386   45.1868 H   0  0  0  0  0  0  0  0  0  0  0  0
   43.8469   36.3825   45.3152 H   0  0  0  0  0  0  0  0  0  0  0  0
   44.6625   37.0755   43.0342 H   0  0  0  0  0  0  0  0  0  0  0  0
   46.3245   35.5860   41.8764 H   0  0  0  0  0  0  0  0  0  0  0  0
   47.8874   32.7796   46.8473 H   0  0  0  0  0  0  0  0  0  0  0  0
   46.4790   33.9113   46.9302 H   0  0  0  0  0  0  0  0  0  0  0  0
   44.9182   31.2681   50.5566 H   0  0  0  0  0  0  0  0  0  0  0  0
   44.5932   29.3382   48.7204 H   0  0  0  0  0  0  0  0  0  0  0  0
   45.6617   30.1899   46.4285 H   0  0  0  0  0  0  0  0  0  0  0  0
  1  8  1  0
  2  7  2  0
  3  2  1  0
  4  5  1  0
  4  3  2  0
  5  6  2  0
  6  1  1  0
  6  7  1  0
  8  9  1  0
  9 10  1  0
 10 11  2  0
 12 11  1  0
 13  9  1  0
 13 12  2  0
  1 14  1  0
  1 15  1  0
  2 16  1  0
  3 17  1  0
  4 18  1  0
  8 19  1  0
  8 20  1  0
 11 21  1  0
 12 22  1  0
 13 23  1  0
M  ISO  8  14   8  15   8  16  14  17  14  18  14  19   8  20   8  21  14
M  ISO  2  22  14  23  14
M  END
>  <minimizedAffinity>  (1) 
-4.35286283

>  <minimizedRMSD>  (1) 
1.11204219

$$$$
