
     RDKit          3D

 28 29  0  0  0  0  0  0  0  0999 V2000
   46.1300   32.5140   45.3150 C   0  0  0  0  0  0  0  0  0  0  0  0
   44.5910   35.8590   44.8280 C   0  0  0  0  0  0  0  0  0  0  0  0
   45.0330   36.1800   43.5200 C   0  0  0  0  0  0  0  0  0  0  0  0
   45.8280   35.2490   42.8690 C   0  0  0  0  0  0  0  0  0  0  0  0
   46.1440   34.0860   43.5060 N   0  0  0  0  0  0  0  0  0  0  0  0
   45.6980   33.8190   44.7640 C   0  0  0  0  0  0  0  0  0  0  0  0
   44.9310   34.6910   45.4210 N   0  0  0  0  0  0  0  0  0  0  0  0
   46.8530   32.8300   46.6290 C   0  0  0  0  0  0  0  0  0  0  0  0
   46.3590   31.8870   47.5700 N   0  0  0  0  0  0  0  0  0  0  0  0
   45.6670   30.7590   47.0570 C   0  0  0  0  0  0  0  0  0  0  0  0
   45.1040   30.1200   48.3340 C   0  0  0  0  0  0  0  0  0  0  0  0
   45.4030   31.0880   49.4600 C   0  0  0  0  0  0  0  0  0  0  0  0
   45.6460   32.3970   48.6920 C   0  0  0  0  0  0  0  0  0  0  0  0
   46.8124   32.0102   44.6146 H   0  0  0  0  0  0  0  0  0  0  0  0
   45.2747   31.8415   45.4768 H   0  0  0  0  0  0  0  0  0  0  0  0
   43.9579   36.5748   45.3728 H   0  0  0  0  0  0  0  0  0  0  0  0
   44.7562   37.1304   43.0403 H   0  0  0  0  0  0  0  0  0  0  0  0
   46.1987   35.4462   41.8523 H   0  0  0  0  0  0  0  0  0  0  0  0
   47.9403   32.7173   46.5063 H   0  0  0  0  0  0  0  0  0  0  0  0
   46.6730   33.8650   46.9553 H   0  0  0  0  0  0  0  0  0  0  0  0
   44.8606   31.0622   46.3731 H   0  0  0  0  0  0  0  0  0  0  0  0
   46.3008   30.0820   46.4653 H   0  0  0  0  0  0  0  0  0  0  0  0
   44.0184   29.9702   48.2385 H   0  0  0  0  0  0  0  0  0  0  0  0
   45.5568   29.1353   48.5219 H   0  0  0  0  0  0  0  0  0  0  0  0
   44.5490   31.1793   50.1472 H   0  0  0  0  0  0  0  0  0  0  0  0
   46.2452   30.7828   50.0984 H   0  0  0  0  0  0  0  0  0  0  0  0
   46.2518   33.1071   49.2741 H   0  0  0  0  0  0  0  0  0  0  0  0
   44.7393   32.9698   48.4476 H   0  0  0  0  0  0  0  0  0  0  0  0
  1  8  1  0
  2  7  2  0
  3  2  1  0
  4  5  1  0
  4  3  2  0
  5  6  2  0
  6  1  1  0
  6  7  1  0
  8  9  1  0
  9 13  1  0
 10  9  1  0
 10 11  1  0
 11 12  1  0
 13 12  1  0
  1 14  1  0
  1 15  1  0
  2 16  1  0
  3 17  1  0
  4 18  1  0
  8 19  1  0
  8 20  1  0
 10 21  1  0
 10 22  1  0
 11 23  1  0
 11 24  1  0
 12 25  1  0
 12 26  1  0
 13 27  1  0
 13 28  1  0
M  ISO  8  14   8  15   8  16  14  17  14  18  14  19   8  20   8  21  13
M  ISO  7  22  13  23  13  24  13  25  13  26  13  27  13  28  13
M  END
>  <minimizedAffinity>  (1) 
-4.36976767

>  <minimizedRMSD>  (1) 
1.0890429

$$$$
