
     RDKit          3D

 23 24  0  0  0  0  0  0  0  0999 V2000
   46.3400   32.9650   45.9250 C   0  0  0  0  0  0  0  0  0  0  0  0
   44.4980   35.8680   44.5300 C   0  0  0  0  0  0  0  0  0  0  0  0
   45.1050   35.9970   43.2630 C   0  0  0  0  0  0  0  0  0  0  0  0
   46.1120   35.0980   42.9290 C   0  0  0  0  0  0  0  0  0  0  0  0
   46.4670   34.1440   43.8260 N   0  0  0  0  0  0  0  0  0  0  0  0
   45.8560   34.0530   45.0420 C   0  0  0  0  0  0  0  0  0  0  0  0
   44.8730   34.9110   45.3960 N   0  0  0  0  0  0  0  0  0  0  0  0
   45.5190   33.0490   47.1990 C   0  0  0  0  0  0  0  0  0  0  0  0
   45.3990   31.6700   47.6750 N   0  0  0  0  0  0  0  0  0  0  0  0
   45.6200   30.5260   46.9700 C   0  0  0  0  0  0  0  0  0  0  0  0
   45.3940   29.4410   47.7940 C   0  0  0  0  0  0  0  0  0  0  0  0
   45.0320   29.9440   49.0090 N   0  0  0  0  0  0  0  0  0  0  0  0
   45.0380   31.2970   48.9320 C   0  0  0  0  0  0  0  0  0  0  0  0
   47.4075   33.1047   46.1506 H   0  0  0  0  0  0  0  0  0  0  0  0
   46.2294   31.9821   45.4437 H   0  0  0  0  0  0  0  0  0  0  0  0
   43.6986   36.5674   44.8160 H   0  0  0  0  0  0  0  0  0  0  0  0
   44.7915   36.7840   42.5613 H   0  0  0  0  0  0  0  0  0  0  0  0
   46.6134   35.1594   41.9518 H   0  0  0  0  0  0  0  0  0  0  0  0
   46.0319   33.6713   47.9472 H   0  0  0  0  0  0  0  0  0  0  0  0
   44.5351   33.5082   47.0224 H   0  0  0  0  0  0  0  0  0  0  0  0
   45.9285   30.4745   45.9154 H   0  0  0  0  0  0  0  0  0  0  0  0
   45.4876   28.3789   47.5234 H   0  0  0  0  0  0  0  0  0  0  0  0
   44.7904   31.9838   49.7548 H   0  0  0  0  0  0  0  0  0  0  0  0
  1  8  1  0
  2  7  2  0
  3  2  1  0
  4  3  2  0
  4  5  1  0
  5  6  2  0
  6  7  1  0
  6  1  1  0
  8  9  1  0
  9 13  1  0
 10  9  1  0
 10 11  2  0
 11 12  1  0
 13 12  2  0
  1 14  1  0
  1 15  1  0
  2 16  1  0
  3 17  1  0
  4 18  1  0
  8 19  1  0
  8 20  1  0
 10 21  1  0
 11 22  1  0
 13 23  1  0
M  ISO  8  14   8  15   8  16  14  17  14  18  14  19   8  20   8  21  14
M  ISO  2  22  14  23  14
M  END
>  <minimizedAffinity>  (1) 
-4.11033344

>  <minimizedRMSD>  (1) 
1.0747664

$$$$
