
     RDKit          3D

 17 17  0  0  0  0  0  0  0  0999 V2000
   44.5560   35.6330   44.8520 C   0  0  0  0  0  0  0  0  0  0  0  0
   45.1800   35.6310   43.5790 C   0  0  0  0  0  0  0  0  0  0  0  0
   46.1620   34.6660   43.3370 C   0  0  0  0  0  0  0  0  0  0  0  0
   46.4760   33.7880   44.3120 N   0  0  0  0  0  0  0  0  0  0  0  0
   45.8610   33.8160   45.5210 C   0  0  0  0  0  0  0  0  0  0  0  0
   44.9090   34.7320   45.7880 N   0  0  0  0  0  0  0  0  0  0  0  0
   46.2960   32.7960   46.5060 C   0  0  0  0  0  0  0  0  0  0  0  0
   45.2620   32.8180   47.6230 C   0  0  0  0  0  0  0  0  0  0  0  0
   45.6750   31.7490   49.0040 S   0  0  0  0  0  0  0  0  0  0  0  0
   43.7772   36.3766   45.0767 H   0  0  0  0  0  0  0  0  0  0  0  0
   44.9009   36.3640   42.8078 H   0  0  0  0  0  0  0  0  0  0  0  0
   46.6724   34.6230   42.3636 H   0  0  0  0  0  0  0  0  0  0  0  0
   46.3292   31.8018   46.0364 H   0  0  0  0  0  0  0  0  0  0  0  0
   47.3046   33.0118   46.8884 H   0  0  0  0  0  0  0  0  0  0  0  0
   45.1741   33.8493   47.9955 H   0  0  0  0  0  0  0  0  0  0  0  0
   44.3186   32.4456   47.1972 H   0  0  0  0  0  0  0  0  0  0  0  0
   45.4219   32.4042   50.1803 H   0  0  0  0  0  0  0  0  0  0  0  0
  1  6  2  0
  2  1  1  0
  3  2  2  0
  3  4  1  0
  4  5  2  0
  5  6  1  0
  5  7  1  0
  7  8  1  0
  8  9  1  0
  1 10  1  0
  2 11  1  0
  3 12  1  0
  7 13  1  0
  7 14  1  0
  8 15  1  0
  8 16  1  0
  9 17  1  0
M  ISO  8  10  14  11  14  12  14  13   8  14   8  15   8  16   8  17  11
M  END
>  <minimizedAffinity>  (1) 
-3.34423399

>  <minimizedRMSD>  (1) 
0.06003787

$$$$
