
     RDKit          3D

 43 46  0  0  1  0  0  0  0  0999 V2000
   45.9670   32.0580   47.3360 N   0  0  0  0  0  0  0  0  0  0  0  0
   45.6190   30.8370   46.6830 C   0  0  0  0  0  0  0  0  0  0  0  0
   44.7430   29.9220   47.4770 C   0  0  0  0  0  0  0  0  0  0  0  0
   45.1220   29.7470   48.7690 O   0  0  0  0  0  0  0  0  0  0  0  0
   45.5290   30.8640   49.4260 C   0  0  0  0  0  0  0  0  0  0  0  0
   46.4520   31.7610   48.6740 C   0  0  1  0  0  0  0  0  0  0  0  0
   47.8590   31.3690   48.7780 C   0  0  0  0  0  0  0  0  0  0  0  0
   49.0300   31.8510   49.3050 C   0  0  0  0  0  0  0  0  0  0  0  0
   50.1000   31.0640   49.1070 N   0  0  0  0  0  0  0  0  0  0  0  0
   49.6770   30.0100   48.4300 C   0  0  0  0  0  0  0  0  0  0  0  0
   50.3970   28.9230   47.9870 C   0  0  0  0  0  0  0  0  0  0  0  0
   49.7510   27.9240   47.2920 C   0  0  0  0  0  0  0  0  0  0  0  0
   48.4000   28.0300   47.0510 C   0  0  0  0  0  0  0  0  0  0  0  0
   47.7110   29.1320   47.5080 C   0  0  0  0  0  0  0  0  0  0  0  0
   48.3260   30.1640   48.2150 C   0  0  0  0  0  0  0  0  0  0  0  0
   46.9140   32.8000   46.6120 C   0  0  0  0  0  0  0  0  0  0  0  0
   46.8390   32.6860   45.1450 C   0  0  0  0  0  0  0  0  0  0  0  0
   44.5790   35.6360   44.7810 C   0  0  0  0  0  0  0  0  0  0  0  0
   44.9720   36.1150   43.4950 C   0  0  0  0  0  0  0  0  0  0  0  0
   45.9660   35.4230   42.8230 C   0  0  0  0  0  0  0  0  0  0  0  0
   46.5190   34.3330   43.4010 N   0  0  0  0  0  0  0  0  0  0  0  0
   46.1400   33.8880   44.6180 C   0  0  0  0  0  0  0  0  0  0  0  0
   45.1960   34.5270   45.2800 N   0  0  0  0  0  0  0  0  0  0  0  0
   45.0936   31.0872   45.7496 H   0  0  0  0  0  0  0  0  0  0  0  0
   46.5627   30.2953   46.5220 H   0  0  0  0  0  0  0  0  0  0  0  0
   43.7238   30.3357   47.4728 H   0  0  0  0  0  0  0  0  0  0  0  0
   44.8137   28.9343   46.9980 H   0  0  0  0  0  0  0  0  0  0  0  0
   44.6332   31.4458   49.6888 H   0  0  0  0  0  0  0  0  0  0  0  0
   46.1023   30.5068   50.2942 H   0  0  0  0  0  0  0  0  0  0  0  0
   46.4401   32.7375   49.1802 H   0  0  0  0  0  0  0  0  0  0  0  0
   49.0881   32.8065   49.8469 H   0  0  0  0  0  0  0  0  0  0  0  0
   51.0637   31.2462   49.4216 H   0  0  0  0  0  0  0  0  0  0  0  0
   51.4766   28.8530   48.1859 H   0  0  0  0  0  0  0  0  0  0  0  0
   50.3109   27.0481   46.9324 H   0  0  0  0  0  0  0  0  0  0  0  0
   47.8734   27.2392   46.4966 H   0  0  0  0  0  0  0  0  0  0  0  0
   46.6317   29.2003   47.3068 H   0  0  0  0  0  0  0  0  0  0  0  0
   46.7830   33.8602   46.8744 H   0  0  0  0  0  0  0  0  0  0  0  0
   47.8934   32.3848   46.8922 H   0  0  0  0  0  0  0  0  0  0  0  0
   47.8537   32.6314   44.7239 H   0  0  0  0  0  0  0  0  0  0  0  0
   46.2906   31.7750   44.8634 H   0  0  0  0  0  0  0  0  0  0  0  0
   43.7955   36.1503   45.3569 H   0  0  0  0  0  0  0  0  0  0  0  0
   44.5007   37.0048   43.0521 H   0  0  0  0  0  0  0  0  0  0  0  0
   46.3018   35.7566   41.8300 H   0  0  0  0  0  0  0  0  0  0  0  0
  1  6  1  0
  2  1  1  0
  2  3  1  0
  3  4  1  0
  4  5  1  0
  6  7  1  0
  6  5  1  0
  7  8  2  0
  9  8  1  0
 10  9  1  0
 11 10  2  0
 12 11  1  0
 13 12  2  0
 13 14  1  0
 14 15  2  0
 15 10  1  0
 15  7  1  0
 16  1  1  0
 17 16  1  0
 18 23  2  0
 19 18  1  0
 20 21  1  0
 20 19  2  0
 21 22  2  0
 22 17  1  0
 22 23  1  0
  2 24  1  0
  2 25  1  0
  3 26  1  0
  3 27  1  0
  5 28  1  0
  5 29  1  0
  6 30  1  1
  8 31  1  0
  9 32  1  0
 11 33  1  0
 12 34  1  0
 13 35  1  0
 14 36  1  0
 16 37  1  0
 16 38  1  0
 17 39  1  0
 17 40  1  0
 18 41  1  0
 19 42  1  0
 20 43  1  0
M  ISO  8  24  13  25  13  26  13  27  13  28  13  29  13  30  13  31  14
M  ISO  8  32   9  33  14  34  14  35  14  36  14  37   8  38   8  39   8
M  ISO  4  40   8  41  14  42  14  43  14
M  END
>  <minimizedAffinity>  (1) 
-5.54061651

>  <minimizedRMSD>  (1) 
1.38254356

$$$$
