
     RDKit          3D

 31 32  0  0  1  0  0  0  0  0999 V2000
   45.6840   32.1270   47.3360 N   0  0  0  0  0  0  0  0  0  0  0  0
   45.8270   30.7750   46.9030 C   0  0  0  0  0  0  0  0  0  0  0  0
   44.8710   29.8740   47.6610 C   0  0  0  0  0  0  0  0  0  0  0  0
   45.0330   29.9300   49.0160 O   0  0  0  0  0  0  0  0  0  0  0  0
   45.1150   31.2040   49.5230 C   0  0  0  0  0  0  0  0  0  0  0  0
   46.0230   32.1150   48.7800 C   0  0  1  0  0  0  0  0  0  0  0  0
   46.7030   32.9040   46.6960 C   0  0  0  0  0  0  0  0  0  0  0  0
   46.7750   32.7520   45.2350 C   0  0  0  0  0  0  0  0  0  0  0  0
   44.5770   35.7010   44.6280 C   0  0  0  0  0  0  0  0  0  0  0  0
   45.0200   36.1110   43.3360 C   0  0  0  0  0  0  0  0  0  0  0  0
   46.0340   35.3640   42.7410 C   0  0  0  0  0  0  0  0  0  0  0  0
   46.5580   34.2980   43.3870 N   0  0  0  0  0  0  0  0  0  0  0  0
   46.1110   33.9410   44.6130 C   0  0  0  0  0  0  0  0  0  0  0  0
   45.1380   34.6260   45.2260 N   0  0  0  0  0  0  0  0  0  0  0  0
   47.4170   31.8310   48.9580 N   0  0  0  0  0  0  0  0  0  0  0  0
   45.6069   30.7137   45.8270 H   0  0  0  0  0  0  0  0  0  0  0  0
   46.8583   30.4451   47.0969 H   0  0  0  0  0  0  0  0  0  0  0  0
   43.8413   30.1767   47.4200 H   0  0  0  0  0  0  0  0  0  0  0  0
   45.0836   28.8403   47.3507 H   0  0  0  0  0  0  0  0  0  0  0  0
   44.1062   31.6423   49.5109 H   0  0  0  0  0  0  0  0  0  0  0  0
   45.5352   31.1071   50.5350 H   0  0  0  0  0  0  0  0  0  0  0  0
   45.8585   33.1125   49.2136 H   0  0  0  0  0  0  0  0  0  0  0  0
   46.5147   33.9644   46.9199 H   0  0  0  0  0  0  0  0  0  0  0  0
   47.6622   32.5379   47.0908 H   0  0  0  0  0  0  0  0  0  0  0  0
   47.8266   32.7024   44.9162 H   0  0  0  0  0  0  0  0  0  0  0  0
   46.2713   31.8256   44.9218 H   0  0  0  0  0  0  0  0  0  0  0  0
   43.7785   36.2596   45.1383 H   0  0  0  0  0  0  0  0  0  0  0  0
   44.5787   36.9821   42.8296 H   0  0  0  0  0  0  0  0  0  0  0  0
   46.4088   35.6415   41.7448 H   0  0  0  0  0  0  0  0  0  0  0  0
   47.6327   31.7871   49.9642 H   0  0  0  0  0  0  0  0  0  0  0  0
   47.6420   30.9269   48.5188 H   0  0  0  0  0  0  0  0  0  0  0  0
  1  6  1  0
  2  1  1  0
  2  3  1  0
  3  4  1  0
  4  5  1  0
  6 15  1  0
  6  5  1  0
  7  1  1  0
  8  7  1  0
  9 14  2  0
 10  9  1  0
 11 10  2  0
 11 12  1  0
 12 13  2  0
 13 14  1  0
 13  8  1  0
  2 16  1  0
  2 17  1  0
  3 18  1  0
  3 19  1  0
  5 20  1  0
  5 21  1  0
  6 22  1  1
  7 23  1  0
  7 24  1  0
  8 25  1  0
  8 26  1  0
  9 27  1  0
 10 28  1  0
 11 29  1  0
 15 30  1  0
 15 31  1  0
M  ISO  8  16  13  17  13  18  13  19  13  20  13  21  13  22  13  23   8
M  ISO  8  24   8  25   8  26   8  27  14  28  14  29  14  30   5  31   5
M  END
>  <minimizedAffinity>  (1) 
-4.86576891

>  <minimizedRMSD>  (1) 
0.101427473

$$$$
