
     RDKit          3D

 38 40  0  0  1  0  0  0  0  0999 V2000
   45.9080   31.7390   47.1890 N   0  0  0  0  0  0  0  0  0  0  0  0
   45.7960   30.5810   46.4000 C   0  0  0  0  0  0  0  0  0  0  0  0
   44.7500   29.6160   46.9610 C   0  0  0  0  0  0  0  0  0  0  0  0
   45.0710   29.2250   48.2220 O   0  0  0  0  0  0  0  0  0  0  0  0
   45.4190   30.2510   49.0840 C   0  0  0  0  0  0  0  0  0  0  0  0
   46.3110   31.3180   48.5310 C   0  0  1  0  0  0  0  0  0  0  0  0
   47.7350   31.0450   48.6990 C   0  0  0  0  0  0  0  0  0  0  0  0
   48.2300   29.8210   48.2170 C   0  0  0  0  0  0  0  0  0  0  0  0
   49.5230   29.3830   48.2660 C   0  0  0  0  0  0  0  0  0  0  0  0
   50.4560   30.2150   48.8460 C   0  0  0  0  0  0  0  0  0  0  0  0
   49.9590   31.4110   49.3150 C   0  0  0  0  0  0  0  0  0  0  0  0
   48.6880   31.8110   49.2520 N   0  0  0  0  0  0  0  0  0  0  0  0
   46.8560   32.6300   46.6350 C   0  0  0  0  0  0  0  0  0  0  0  0
   46.8280   32.6010   45.1380 C   0  0  0  0  0  0  0  0  0  0  0  0
   44.5740   35.5380   44.9670 C   0  0  0  0  0  0  0  0  0  0  0  0
   44.9110   36.0590   43.6730 C   0  0  0  0  0  0  0  0  0  0  0  0
   45.9060   35.3920   42.9360 C   0  0  0  0  0  0  0  0  0  0  0  0
   46.5090   34.2990   43.4520 N   0  0  0  0  0  0  0  0  0  0  0  0
   46.1400   33.8530   44.6940 C   0  0  0  0  0  0  0  0  0  0  0  0
   45.2160   34.4380   45.4280 N   0  0  0  0  0  0  0  0  0  0  0  0
   46.7712   30.0730   46.3713 H   0  0  0  0  0  0  0  0  0  0  0  0
   45.4798   30.8820   45.3903 H   0  0  0  0  0  0  0  0  0  0  0  0
   43.7713   30.1178   46.9788 H   0  0  0  0  0  0  0  0  0  0  0  0
   44.7162   28.7248   46.3171 H   0  0  0  0  0  0  0  0  0  0  0  0
   44.4896   30.7341   49.4200 H   0  0  0  0  0  0  0  0  0  0  0  0
   46.0020   29.7719   49.8843 H   0  0  0  0  0  0  0  0  0  0  0  0
   46.1596   32.2078   49.1598 H   0  0  0  0  0  0  0  0  0  0  0  0
   47.4988   29.1441   47.7510 H   0  0  0  0  0  0  0  0  0  0  0  0
   49.8089   28.4024   47.8576 H   0  0  0  0  0  0  0  0  0  0  0  0
   51.5189   29.9441   48.9283 H   0  0  0  0  0  0  0  0  0  0  0  0
   50.6764   32.0998   49.7849 H   0  0  0  0  0  0  0  0  0  0  0  0
   46.6295   33.6507   46.9769 H   0  0  0  0  0  0  0  0  0  0  0  0
   47.8573   32.3185   46.9673 H   0  0  0  0  0  0  0  0  0  0  0  0
   47.8533   32.5711   44.7406 H   0  0  0  0  0  0  0  0  0  0  0  0
   46.2998   31.7089   44.7704 H   0  0  0  0  0  0  0  0  0  0  0  0
   43.8017   36.0273   45.5786 H   0  0  0  0  0  0  0  0  0  0  0  0
   44.4077   36.9506   43.2708 H   0  0  0  0  0  0  0  0  0  0  0  0
   46.1930   35.7602   41.9400 H   0  0  0  0  0  0  0  0  0  0  0  0
  1  6  1  0
  2  3  1  0
  2  1  1  0
  3  4  1  0
  4  5  1  0
  6  7  1  0
  6  5  1  0
  7 12  2  0
  8  9  2  0
  8  7  1  0
  9 10  1  0
 10 11  2  0
 12 11  1  0
 13  1  1  0
 14 13  1  0
 15 20  2  0
 16 15  1  0
 17 18  1  0
 17 16  2  0
 18 19  2  0
 19 14  1  0
 19 20  1  0
  2 21  1  0
  2 22  1  0
  3 23  1  0
  3 24  1  0
  5 25  1  0
  5 26  1  0
  6 27  1  1
  8 28  1  0
  9 29  1  0
 10 30  1  0
 11 31  1  0
 13 32  1  0
 13 33  1  0
 14 34  1  0
 14 35  1  0
 15 36  1  0
 16 37  1  0
 17 38  1  0
M  ISO  8  21  13  22  13  23  13  24  13  25  13  26  13  27  13  28  14
M  ISO  8  29  14  30  14  31  14  32   8  33   8  34   8  35   8  36  14
M  ISO  2  37  14  38  14
M  END
>  <minimizedAffinity>  (1) 
-5.10484076

>  <minimizedRMSD>  (1) 
1.09840405

$$$$
