
     RDKit          3D

 32 33  0  0  1  0  0  0  0  0999 V2000
   45.8810   31.1940   46.4830 N   0  0  0  0  0  0  0  0  0  0  0  0
   46.1350   30.0490   45.6670 C   0  0  0  0  0  0  0  0  0  0  0  0
   45.0880   28.9620   45.9190 C   0  0  0  0  0  0  0  0  0  0  0  0
   45.1970   28.5230   47.2140 O   0  0  0  0  0  0  0  0  0  0  0  0
   45.1610   29.5310   48.1320 C   0  0  0  0  0  0  0  0  0  0  0  0
   46.0190   30.7370   47.8600 C   0  0  2  0  0  0  0  0  0  0  0  0
   45.4420   31.8050   48.8070 C   0  0  0  0  0  0  0  0  0  0  0  0
   44.4400   32.5180   48.1030 F   0  0  0  0  0  0  0  0  0  0  0  0
   46.3890   32.7580   49.1330 F   0  0  0  0  0  0  0  0  0  0  0  0
   44.7830   31.2730   49.8700 F   0  0  0  0  0  0  0  0  0  0  0  0
   46.8890   32.1490   46.1590 C   0  0  0  0  0  0  0  0  0  0  0  0
   46.9080   32.5330   44.7090 C   0  0  0  0  0  0  0  0  0  0  0  0
   44.6130   35.3810   45.3980 C   0  0  0  0  0  0  0  0  0  0  0  0
   44.6710   36.0830   44.1580 C   0  0  0  0  0  0  0  0  0  0  0  0
   45.5030   35.5610   43.1630 C   0  0  0  0  0  0  0  0  0  0  0  0
   46.2050   34.4360   43.4050 N   0  0  0  0  0  0  0  0  0  0  0  0
   46.1160   33.8040   44.6020 C   0  0  0  0  0  0  0  0  0  0  0  0
   45.3460   34.2570   45.5710 N   0  0  0  0  0  0  0  0  0  0  0  0
   47.1328   29.6511   45.9038 H   0  0  0  0  0  0  0  0  0  0  0  0
   46.0849   30.3499   44.6101 H   0  0  0  0  0  0  0  0  0  0  0  0
   44.0819   29.3748   45.7538 H   0  0  0  0  0  0  0  0  0  0  0  0
   45.2536   28.1219   45.2286 H   0  0  0  0  0  0  0  0  0  0  0  0
   44.1189   29.8755   48.2052 H   0  0  0  0  0  0  0  0  0  0  0  0
   45.5715   29.0917   49.0532 H   0  0  0  0  0  0  0  0  0  0  0  0
   47.0875   30.5254   48.0131 H   0  0  0  0  0  0  0  0  0  0  0  0
   46.7141   33.0557   46.7567 H   0  0  0  0  0  0  0  0  0  0  0  0
   47.8597   31.6820   46.3820 H   0  0  0  0  0  0  0  0  0  0  0  0
   47.9419   32.6984   44.3718 H   0  0  0  0  0  0  0  0  0  0  0  0
   46.4800   31.7397   44.0786 H   0  0  0  0  0  0  0  0  0  0  0  0
   43.9736   35.7526   46.2122 H   0  0  0  0  0  0  0  0  0  0  0  0
   44.0846   36.9986   43.9911 H   0  0  0  0  0  0  0  0  0  0  0  0
   45.5842   36.0652   42.1887 H   0  0  0  0  0  0  0  0  0  0  0  0
  1  6  1  0
  2  3  1  0
  2  1  1  0
  3  4  1  0
  4  5  1  0
  6  5  1  0
  6  7  1  0
  7  9  1  0
  7 10  1  0
  8  7  1  0
 11  1  1  0
 12 11  1  0
 13 18  2  0
 14 13  1  0
 15 16  1  0
 15 14  2  0
 16 17  2  0
 17 12  1  0
 17 18  1  0
  2 19  1  0
  2 20  1  0
  3 21  1  0
  3 22  1  0
  5 23  1  0
  5 24  1  0
  6 25  1  1
 11 26  1  0
 11 27  1  0
 12 28  1  0
 12 29  1  0
 13 30  1  0
 14 31  1  0
 15 32  1  0
M  ISO  8  19  13  20  13  21  13  22  13  23  13  24  13  25  13  26   8
M  ISO  6  27   8  28   8  29   8  30  14  31  14  32  14
M  END
>  <minimizedAffinity>  (1) 
-4.97474194

>  <minimizedRMSD>  (1) 
1.51972795

$$$$
