
     RDKit          3D

 42 45  0  0  1  0  0  0  0  0999 V2000
   45.8430   31.5660   46.9060 N   0  0  0  0  0  0  0  0  0  0  0  0
   45.7510   30.3840   46.1580 C   0  0  0  0  0  0  0  0  0  0  0  0
   44.6830   29.4580   46.7420 C   0  0  0  0  0  0  0  0  0  0  0  0
   44.9850   29.0990   48.0230 O   0  0  0  0  0  0  0  0  0  0  0  0
   45.2630   30.1730   48.8460 C   0  0  0  0  0  0  0  0  0  0  0  0
   46.1980   31.1920   48.2750 C   0  0  1  0  0  0  0  0  0  0  0  0
   47.5760   30.9000   48.4740 N   0  0  0  0  0  0  0  0  0  0  0  0
   48.3570   31.8560   49.0550 C   0  0  0  0  0  0  0  0  0  0  0  0
   49.6260   31.4110   49.1620 N   0  0  0  0  0  0  0  0  0  0  0  0
   49.7090   30.1580   48.6560 C   0  0  0  0  0  0  0  0  0  0  0  0
   50.6660   29.1850   48.4680 C   0  0  0  0  0  0  0  0  0  0  0  0
   50.2760   28.0320   47.8930 N   0  0  0  0  0  0  0  0  0  0  0  0
   49.0400   27.7640   47.4940 C   0  0  0  0  0  0  0  0  0  0  0  0
   48.1150   28.7190   47.6830 N   0  0  0  0  0  0  0  0  0  0  0  0
   48.4400   29.8930   48.2520 C   0  0  0  0  0  0  0  0  0  0  0  0
   51.9880   29.4860   48.8990 N   0  0  0  0  0  0  0  0  0  0  0  0
   46.8630   32.4060   46.3720 C   0  0  0  0  0  0  0  0  0  0  0  0
   46.8070   32.5270   44.8890 C   0  0  0  0  0  0  0  0  0  0  0  0
   44.5950   35.5230   45.1190 C   0  0  0  0  0  0  0  0  0  0  0  0
   44.8300   36.1320   43.8500 C   0  0  0  0  0  0  0  0  0  0  0  0
   45.7260   35.5070   42.9990 C   0  0  0  0  0  0  0  0  0  0  0  0
   46.3330   34.3690   43.3930 N   0  0  0  0  0  0  0  0  0  0  0  0
   46.0850   33.8200   44.6040 C   0  0  0  0  0  0  0  0  0  0  0  0
   45.2340   34.3820   45.4540 N   0  0  0  0  0  0  0  0  0  0  0  0
   46.7232   29.8696   46.1741 H   0  0  0  0  0  0  0  0  0  0  0  0
   45.4721   30.6393   45.1250 H   0  0  0  0  0  0  0  0  0  0  0  0
   43.7142   29.9790   46.7348 H   0  0  0  0  0  0  0  0  0  0  0  0
   44.6395   28.5469   46.1272 H   0  0  0  0  0  0  0  0  0  0  0  0
   44.3134   30.6766   49.0797 H   0  0  0  0  0  0  0  0  0  0  0  0
   45.7702   29.7561   49.7286 H   0  0  0  0  0  0  0  0  0  0  0  0
   46.0520   32.1032   48.8736 H   0  0  0  0  0  0  0  0  0  0  0  0
   48.0041   32.8435   49.3871 H   0  0  0  0  0  0  0  0  0  0  0  0
   48.7835   26.8010   47.0283 H   0  0  0  0  0  0  0  0  0  0  0  0
   52.7391   28.7912   48.7804 H   0  0  0  0  0  0  0  0  0  0  0  0
   52.1940   30.3987   49.3297 H   0  0  0  0  0  0  0  0  0  0  0  0
   46.7537   33.4096   46.8090 H   0  0  0  0  0  0  0  0  0  0  0  0
   47.8301   31.9476   46.6261 H   0  0  0  0  0  0  0  0  0  0  0  0
   47.8234   32.5563   44.4693 H   0  0  0  0  0  0  0  0  0  0  0  0
   46.2908   31.6687   44.4341 H   0  0  0  0  0  0  0  0  0  0  0  0
   43.8908   35.9849   45.8266 H   0  0  0  0  0  0  0  0  0  0  0  0
   44.3192   37.0618   43.5591 H   0  0  0  0  0  0  0  0  0  0  0  0
   45.9410   35.9356   42.0090 H   0  0  0  0  0  0  0  0  0  0  0  0
  1  6  1  0
  2  3  1  0
  2  1  1  0
  3  4  1  0
  4  5  1  0
  6  7  1  0
  6  5  1  0
  7  8  1  0
  8  9  2  0
 10  9  1  0
 11 10  2  0
 11 16  1  0
 12 11  1  0
 13 14  1  0
 13 12  2  0
 14 15  2  0
 15  7  1  0
 15 10  1  0
 17  1  1  0
 18 17  1  0
 19 24  2  0
 20 19  1  0
 21 22  1  0
 21 20  2  0
 22 23  2  0
 23 18  1  0
 23 24  1  0
  2 25  1  0
  2 26  1  0
  3 27  1  0
  3 28  1  0
  5 29  1  0
  5 30  1  0
  6 31  1  1
  8 32  1  0
 13 33  1  0
 16 34  1  0
 16 35  1  0
 17 36  1  0
 17 37  1  0
 18 38  1  0
 18 39  1  0
 19 40  1  0
 20 41  1  0
 21 42  1  0
M  ISO  8  25  13  26  13  27  13  28  13  29  13  30  13  31  13  32  14
M  ISO  8  33  14  36   8  37   8  38   8  39   8  40  14  41  14  42  14
M  END
>  <minimizedAffinity>  (1) 
-5.29603338

>  <minimizedRMSD>  (1) 
1.76583278

$$$$
