
     RDKit          3D

 36 38  0  0  1  0  0  0  0  0999 V2000
   45.7730   31.9540   47.2120 N   0  0  0  0  0  0  0  0  0  0  0  0
   45.8290   30.6700   46.6370 C   0  0  0  0  0  0  0  0  0  0  0  0
   44.8040   29.7430   47.2920 C   0  0  0  0  0  0  0  0  0  0  0  0
   45.0130   29.6110   48.6340 O   0  0  0  0  0  0  0  0  0  0  0  0
   45.1520   30.8180   49.2930 C   0  0  0  0  0  0  0  0  0  0  0  0
   46.0650   31.7970   48.6400 C   0  0  1  0  0  0  0  0  0  0  0  0
   47.4490   31.5920   48.9260 N   0  0  0  0  0  0  0  0  0  0  0  0
   48.5250   32.3930   48.9110 N   0  0  0  0  0  0  0  0  0  0  0  0
   49.6270   31.7460   49.2620 C   0  0  0  0  0  0  0  0  0  0  0  0
   49.2560   30.4260   49.5280 C   0  0  0  0  0  0  0  0  0  0  0  0
   47.8960   30.3690   49.3090 C   0  0  0  0  0  0  0  0  0  0  0  0
   46.7670   32.7780   46.6120 C   0  0  0  0  0  0  0  0  0  0  0  0
   46.8260   32.7000   45.1370 C   0  0  0  0  0  0  0  0  0  0  0  0
   44.5750   35.6570   44.7580 C   0  0  0  0  0  0  0  0  0  0  0  0
   44.9620   36.1290   43.4720 C   0  0  0  0  0  0  0  0  0  0  0  0
   45.9610   35.4300   42.8130 C   0  0  0  0  0  0  0  0  0  0  0  0
   46.5200   34.3490   43.3990 N   0  0  0  0  0  0  0  0  0  0  0  0
   46.1240   33.9290   44.6240 C   0  0  0  0  0  0  0  0  0  0  0  0
   45.1780   34.5650   45.2870 N   0  0  0  0  0  0  0  0  0  0  0  0
   45.6127   30.7457   45.5611 H   0  0  0  0  0  0  0  0  0  0  0  0
   46.8352   30.2542   46.7939 H   0  0  0  0  0  0  0  0  0  0  0  0
   43.7976   30.1559   47.1290 H   0  0  0  0  0  0  0  0  0  0  0  0
   44.9070   28.7480   46.8343 H   0  0  0  0  0  0  0  0  0  0  0  0
   44.1567   31.2801   49.3698 H   0  0  0  0  0  0  0  0  0  0  0  0
   45.6044   30.5827   50.2677 H   0  0  0  0  0  0  0  0  0  0  0  0
   45.8454   32.7674   49.1091 H   0  0  0  0  0  0  0  0  0  0  0  0
   50.6405   32.1680   49.3307 H   0  0  0  0  0  0  0  0  0  0  0  0
   49.9126   29.6028   49.8462 H   0  0  0  0  0  0  0  0  0  0  0  0
   47.2704   29.4718   49.4264 H   0  0  0  0  0  0  0  0  0  0  0  0
   46.5615   33.8217   46.8920 H   0  0  0  0  0  0  0  0  0  0  0  0
   47.7370   32.4138   46.9814 H   0  0  0  0  0  0  0  0  0  0  0  0
   47.8721   32.6884   44.7971 H   0  0  0  0  0  0  0  0  0  0  0  0
   46.3499   31.7810   44.7644 H   0  0  0  0  0  0  0  0  0  0  0  0
   43.7872   36.1782   45.3217 H   0  0  0  0  0  0  0  0  0  0  0  0
   44.4876   37.0124   43.0198 H   0  0  0  0  0  0  0  0  0  0  0  0
   46.2972   35.7542   41.8171 H   0  0  0  0  0  0  0  0  0  0  0  0
  1  6  1  0
  2  1  1  0
  2  3  1  0
  3  4  1  0
  4  5  1  0
  6  7  1  0
  6  5  1  0
  7 11  1  0
  8  7  1  0
  8  9  2  0
  9 10  1  0
 11 10  2  0
 12  1  1  0
 13 12  1  0
 14 19  2  0
 15 14  1  0
 16 17  1  0
 16 15  2  0
 17 18  2  0
 18 13  1  0
 18 19  1  0
  2 20  1  0
  2 21  1  0
  3 22  1  0
  3 23  1  0
  5 24  1  0
  5 25  1  0
  6 26  1  1
  9 27  1  0
 10 28  1  0
 11 29  1  0
 12 30  1  0
 12 31  1  0
 13 32  1  0
 13 33  1  0
 14 34  1  0
 15 35  1  0
 16 36  1  0
M  ISO  8  20  13  21  13  22  13  23  13  24  13  25  13  26  13  27  14
M  ISO  8  28  14  29  14  30   8  31   8  32   8  33   8  34  14  35  14
M  ISO  1  36  14
M  END
>  <minimizedAffinity>  (1) 
-5.05899

>  <minimizedRMSD>  (1) 
0.529912233

$$$$
