
     RDKit          3D

 32 33  0  0  1  0  0  0  0  0999 V2000
   45.6620   32.1300   47.2770 N   0  0  0  0  0  0  0  0  0  0  0  0
   45.7460   30.8350   46.6880 C   0  0  0  0  0  0  0  0  0  0  0  0
   44.8500   29.8420   47.4140 C   0  0  0  0  0  0  0  0  0  0  0  0
   45.1480   29.7400   48.7460 O   0  0  0  0  0  0  0  0  0  0  0  0
   45.1600   30.9740   49.3790 C   0  0  0  0  0  0  0  0  0  0  0  0
   46.0460   31.9780   48.6740 C   0  0  1  0  0  0  0  0  0  0  0  0
   46.5690   33.0100   46.6350 C   0  0  0  0  0  0  0  0  0  0  0  0
   46.6750   32.8420   45.1690 C   0  0  0  0  0  0  0  0  0  0  0  0
   44.5510   35.8220   44.4850 C   0  0  0  0  0  0  0  0  0  0  0  0
   45.0170   36.2190   43.2130 C   0  0  0  0  0  0  0  0  0  0  0  0
   46.0240   35.4530   42.6480 C   0  0  0  0  0  0  0  0  0  0  0  0
   46.5080   34.3900   43.3170 N   0  0  0  0  0  0  0  0  0  0  0  0
   46.0400   34.0360   44.5350 C   0  0  0  0  0  0  0  0  0  0  0  0
   45.0730   34.7450   45.1110 N   0  0  0  0  0  0  0  0  0  0  0  0
   47.4850   31.6240   48.8610 C   0  0  0  0  0  0  0  0  0  0  0  0
   48.7180   31.8420   48.5880 O   0  0  0  0  0  0  0  0  0  0  0  0
   47.5120   30.5600   49.7510 O   0  0  0  0  0  0  0  0  0  0  0  0
   45.4326   30.8984   45.6355 H   0  0  0  0  0  0  0  0  0  0  0  0
   46.7862   30.4850   46.7622 H   0  0  0  0  0  0  0  0  0  0  0  0
   43.8050   30.1697   47.3109 H   0  0  0  0  0  0  0  0  0  0  0  0
   45.0120   28.8533   46.9598 H   0  0  0  0  0  0  0  0  0  0  0  0
   44.1329   31.3670   49.4053 H   0  0  0  0  0  0  0  0  0  0  0  0
   45.5624   30.8262   50.3920 H   0  0  0  0  0  0  0  0  0  0  0  0
   45.9038   32.9682   49.1316 H   0  0  0  0  0  0  0  0  0  0  0  0
   46.2441   34.0413   46.8372 H   0  0  0  0  0  0  0  0  0  0  0  0
   47.5634   32.7761   47.0429 H   0  0  0  0  0  0  0  0  0  0  0  0
   47.7326   32.7774   44.8736 H   0  0  0  0  0  0  0  0  0  0  0  0
   46.1724   31.9181   44.8468 H   0  0  0  0  0  0  0  0  0  0  0  0
   43.7512   36.3981   44.9734 H   0  0  0  0  0  0  0  0  0  0  0  0
   44.6003   37.0952   42.6947 H   0  0  0  0  0  0  0  0  0  0  0  0
   46.4260   35.7124   41.6575 H   0  0  0  0  0  0  0  0  0  0  0  0
   48.3774   30.1611   50.0195 H   0  0  0  0  0  0  0  0  0  0  0  0
  1  6  1  0
  2  1  1  0
  2  3  1  0
  3  4  1  0
  4  5  1  0
  6 15  1  0
  6  5  1  0
  7  1  1  0
  8  7  1  0
  9 14  2  0
 10  9  1  0
 11 10  2  0
 11 12  1  0
 12 13  2  0
 13 14  1  0
 13  8  1  0
 15 17  1  0
 16 15  2  0
  2 18  1  0
  2 19  1  0
  3 20  1  0
  3 21  1  0
  5 22  1  0
  5 23  1  0
  6 24  1  1
  7 25  1  0
  7 26  1  0
  8 27  1  0
  8 28  1  0
  9 29  1  0
 10 30  1  0
 11 31  1  0
 17 32  1  0
M  ISO  8  18  13  19  13  20  13  21  13  22  13  23  13  24  13  25   8
M  ISO  7  26   8  27   8  28   8  29  14  30  14  31  14  32   3
M  END
>  <minimizedAffinity>  (1) 
-5.2348032

>  <minimizedRMSD>  (1) 
0.43555823

$$$$
