
     RDKit          3D

 39 41  0  0  1  0  0  0  0  0999 V2000
   46.3060   27.9140   46.4600 N   0  0  0  0  0  0  0  0  0  0  0  0
   45.8850   26.6020   46.1290 C   0  0  0  0  0  0  0  0  0  0  0  0
   44.7920   26.6070   45.0570 C   0  0  0  0  0  0  0  0  0  0  0  0
   43.6940   27.3090   45.4870 O   0  0  0  0  0  0  0  0  0  0  0  0
   44.0000   28.5720   45.9650 C   0  0  0  0  0  0  0  0  0  0  0  0
   45.1060   28.5400   46.9960 C   0  0  2  0  0  0  0  0  0  0  0  0
   45.2550   29.8200   47.6490 C   0  0  0  0  0  0  0  0  0  0  0  0
   45.1590   30.1680   48.9750 C   0  0  0  0  0  0  0  0  0  0  0  0
   45.3420   31.4190   49.5190 C   0  0  0  0  0  0  0  0  0  0  0  0
   45.6570   32.4510   48.6620 C   0  0  0  0  0  0  0  0  0  0  0  0
   45.7730   32.1900   47.3190 C   0  0  0  0  0  0  0  0  0  0  0  0
   45.5770   30.9100   46.8280 C   0  0  0  0  0  0  0  0  0  0  0  0
   47.3270   27.8570   47.4420 C   0  0  0  0  0  0  0  0  0  0  0  0
   48.5710   28.5950   47.0240 C   0  0  0  0  0  0  0  0  0  0  0  0
   49.2600   31.3280   49.4550 C   0  0  0  0  0  0  0  0  0  0  0  0
   50.0080   30.6250   50.4500 C   0  0  0  0  0  0  0  0  0  0  0  0
   50.2220   29.2510   50.2500 C   0  0  0  0  0  0  0  0  0  0  0  0
   49.7230   28.6450   49.1380 N   0  0  0  0  0  0  0  0  0  0  0  0
   49.0200   29.3690   48.2290 C   0  0  0  0  0  0  0  0  0  0  0  0
   48.7930   30.6600   48.3730 N   0  0  0  0  0  0  0  0  0  0  0  0
   46.7495   26.0353   45.7529 H   0  0  0  0  0  0  0  0  0  0  0  0
   45.4709   26.1376   47.0361 H   0  0  0  0  0  0  0  0  0  0  0  0
   44.4952   25.5705   44.8391 H   0  0  0  0  0  0  0  0  0  0  0  0
   45.1875   27.0893   44.1509 H   0  0  0  0  0  0  0  0  0  0  0  0
   44.3197   29.2020   45.1219 H   0  0  0  0  0  0  0  0  0  0  0  0
   43.0991   28.9775   46.4486 H   0  0  0  0  0  0  0  0  0  0  0  0
   44.8328   27.8754   47.8288 H   0  0  0  0  0  0  0  0  0  0  0  0
   44.9089   29.3594   49.6775 H   0  0  0  0  0  0  0  0  0  0  0  0
   45.2403   31.5891   50.6010 H   0  0  0  0  0  0  0  0  0  0  0  0
   45.8132   33.4691   49.0482 H   0  0  0  0  0  0  0  0  0  0  0  0
   46.0243   33.0062   46.6257 H   0  0  0  0  0  0  0  0  0  0  0  0
   45.6785   30.7410   45.7458 H   0  0  0  0  0  0  0  0  0  0  0  0
   46.9471   28.3046   48.3722 H   0  0  0  0  0  0  0  0  0  0  0  0
   47.5969   26.7999   47.5825 H   0  0  0  0  0  0  0  0  0  0  0  0
   49.3511   27.8838   46.7145 H   0  0  0  0  0  0  0  0  0  0  0  0
   48.3763   29.2593   46.1691 H   0  0  0  0  0  0  0  0  0  0  0  0
   49.0649   32.4047   49.5673 H   0  0  0  0  0  0  0  0  0  0  0  0
   50.4012   31.1405   51.3387 H   0  0  0  0  0  0  0  0  0  0  0  0
   50.7905   28.6673   50.9890 H   0  0  0  0  0  0  0  0  0  0  0  0
  1  6  1  0
  1 13  1  0
  2  1  1  0
  3  4  1  0
  3  2  1  0
  4  5  1  0
  5  6  1  0
  6  7  1  0
  7  8  2  0
  8  9  1  0
 10  9  2  0
 11 10  1  0
 12 11  2  0
 12  7  1  0
 14 13  1  0
 14 19  1  0
 15 16  2  0
 17 16  1  0
 18 17  2  0
 19 20  2  0
 19 18  1  0
 20 15  1  0
  2 21  1  0
  2 22  1  0
  3 23  1  0
  3 24  1  0
  5 25  1  0
  5 26  1  0
  6 27  1  1
  8 28  1  0
  9 29  1  0
 10 30  1  0
 11 31  1  0
 12 32  1  0
 13 33  1  0
 13 34  1  0
 14 35  1  0
 14 36  1  0
 15 37  1  0
 16 38  1  0
 17 39  1  0
M  ISO  8  21  13  22  13  23  13  24  13  25  13  26  13  27  13  28  14
M  ISO  8  29  14  30  14  31  14  32  14  33   8  34   8  35   8  36   8
M  ISO  3  37  14  38  14  39  14
M  END
>  <minimizedAffinity>  (1) 
-4.3529582

>  <minimizedRMSD>  (1) 
6.05124998

$$$$
