
     RDKit          3D

 44 46  0  0  1  0  0  0  0  0999 V2000
   47.1860   30.1320   45.5610 N   0  0  0  0  0  0  0  0  0  0  0  0
   48.3310   29.9990   44.6800 C   0  0  0  0  0  0  0  0  0  0  0  0
   49.3330   29.0060   45.1930 C   0  0  0  0  0  0  0  0  0  0  0  0
   49.6940   29.1450   46.4960 O   0  0  0  0  0  0  0  0  0  0  0  0
   48.6130   29.3100   47.3470 C   0  0  0  0  0  0  0  0  0  0  0  0
   47.7300   30.4420   46.8890 C   0  0  2  0  0  0  0  0  0  0  0  0
   46.7340   30.7870   47.8430 N   0  0  0  0  0  0  0  0  0  0  0  0
   45.6890   30.0790   48.2650 C   0  0  0  0  0  0  0  0  0  0  0  0
   44.9940   30.7780   49.1780 N   0  0  0  0  0  0  0  0  0  0  0  0
   45.6170   31.9520   49.3320 C   0  0  0  0  0  0  0  0  0  0  0  0
   46.6670   31.9450   48.5190 N   0  0  0  0  0  0  0  0  0  0  0  0
   46.4000   31.2470   45.1450 C   0  0  0  0  0  0  0  0  0  0  0  0
   47.1350   32.4840   44.8610 C   0  0  0  0  0  0  0  0  0  0  0  0
   44.6710   35.1830   45.5690 C   0  0  0  0  0  0  0  0  0  0  0  0
   44.3440   35.6380   44.2680 C   0  0  0  0  0  0  0  0  0  0  0  0
   44.9800   35.0040   43.2230 C   0  0  0  0  0  0  0  0  0  0  0  0
   45.8660   33.9990   43.4620 N   0  0  0  0  0  0  0  0  0  0  0  0
   46.1530   33.5890   44.7150 C   0  0  0  0  0  0  0  0  0  0  0  0
   45.5620   34.1750   45.7490 N   0  0  0  0  0  0  0  0  0  0  0  0
   44.7500   35.3600   41.8110 C   0  0  0  0  0  0  0  0  0  0  0  0
   43.2270   35.4230   41.6430 C   0  0  0  0  0  0  0  0  0  0  0  0
   45.3760   34.3400   40.8900 C   0  0  0  0  0  0  0  0  0  0  0  0
   48.8209   30.9794   44.5863 H   0  0  0  0  0  0  0  0  0  0  0  0
   47.9666   29.6370   43.7073 H   0  0  0  0  0  0  0  0  0  0  0  0
   48.9054   28.0003   45.0673 H   0  0  0  0  0  0  0  0  0  0  0  0
   50.2496   29.1804   44.6103 H   0  0  0  0  0  0  0  0  0  0  0  0
   48.0250   28.3805   47.3653 H   0  0  0  0  0  0  0  0  0  0  0  0
   48.9924   29.5473   48.3519 H   0  0  0  0  0  0  0  0  0  0  0  0
   48.3429   31.3511   46.8000 H   0  0  0  0  0  0  0  0  0  0  0  0
   45.4316   29.0679   47.9167 H   0  0  0  0  0  0  0  0  0  0  0  0
   45.3163   32.7686   50.0048 H   0  0  0  0  0  0  0  0  0  0  0  0
   45.8633   30.9571   44.2296 H   0  0  0  0  0  0  0  0  0  0  0  0
   45.7450   31.4813   45.9971 H   0  0  0  0  0  0  0  0  0  0  0  0
   47.8235   32.7058   45.6897 H   0  0  0  0  0  0  0  0  0  0  0  0
   47.7196   32.3727   43.9358 H   0  0  0  0  0  0  0  0  0  0  0  0
   44.1972   35.6522   46.4439 H   0  0  0  0  0  0  0  0  0  0  0  0
   43.6229   36.4517   44.1013 H   0  0  0  0  0  0  0  0  0  0  0  0
   45.2143   36.3222   41.5491 H   0  0  0  0  0  0  0  0  0  0  0  0
   42.7493   35.4428   42.6337 H   0  0  0  0  0  0  0  0  0  0  0  0
   42.9567   36.3331   41.0874 H   0  0  0  0  0  0  0  0  0  0  0  0
   42.8825   34.5383   41.0874 H   0  0  0  0  0  0  0  0  0  0  0  0
   45.8588   33.5533   41.4883 H   0  0  0  0  0  0  0  0  0  0  0  0
   44.5971   33.8921   40.2554 H   0  0  0  0  0  0  0  0  0  0  0  0
   46.1281   34.8317   40.2554 H   0  0  0  0  0  0  0  0  0  0  0  0
  1  6  1  0
  2  3  1  0
  2  1  1  0
  3  4  1  0
  4  5  1  0
  6  5  1  0
  6  7  1  0
  7  8  1  0
  7 11  1  0
  8  9  2  0
  9 10  1  0
 11 10  2  0
 12  1  1  0
 13 12  1  0
 14 19  2  0
 15 14  1  0
 16 17  1  0
 16 15  2  0
 17 18  2  0
 18 13  1  0
 18 19  1  0
 20 16  1  0
 21 20  1  0
 22 20  1  0
  2 23  1  0
  2 24  1  0
  3 25  1  0
  3 26  1  0
  5 27  1  0
  5 28  1  0
  6 29  1  6
  8 30  1  0
 10 31  1  0
 12 32  1  0
 12 33  1  0
 13 34  1  0
 13 35  1  0
 14 36  1  0
 15 37  1  0
 20 38  1  0
 21 39  1  0
 21 40  1  0
 21 41  1  0
 22 42  1  0
 22 43  1  0
 22 44  1  0
M  ISO  8  23  13  24  13  25  13  26  13  27  13  28  13  29  13  30  14
M  ISO  8  31  14  32   8  33   8  34   8  35   8  36  14  37  14  38   8
M  ISO  6  39   8  40   8  41   8  42   8  43   8  44   8
M  END
>  <minimizedAffinity>  (1) 
-4.86187696

>  <minimizedRMSD>  (1) 
0.763526082

$$$$
