
     RDKit          3D

 38 40  0  0  1  0  0  0  0  0999 V2000
   47.4470   29.8640   45.5620 N   0  0  0  0  0  0  0  0  0  0  0  0
   48.6510   29.8890   44.7440 C   0  0  0  0  0  0  0  0  0  0  0  0
   49.7100   28.9870   45.2820 C   0  0  0  0  0  0  0  0  0  0  0  0
   49.9960   29.1620   46.6020 O   0  0  0  0  0  0  0  0  0  0  0  0
   48.8620   29.1850   47.4030 C   0  0  0  0  0  0  0  0  0  0  0  0
   47.8730   30.2150   46.9150 C   0  0  2  0  0  0  0  0  0  0  0  0
   46.8080   30.4360   47.8180 N   0  0  0  0  0  0  0  0  0  0  0  0
   45.7050   29.7180   48.0170 C   0  0  0  0  0  0  0  0  0  0  0  0
   44.9480   30.2810   48.9730 N   0  0  0  0  0  0  0  0  0  0  0  0
   45.5960   31.3800   49.3820 C   0  0  0  0  0  0  0  0  0  0  0  0
   46.7040   31.4540   48.6800 N   0  0  0  0  0  0  0  0  0  0  0  0
   46.5690   30.8840   45.1140 C   0  0  0  0  0  0  0  0  0  0  0  0
   47.1850   32.1330   44.6530 C   0  0  0  0  0  0  0  0  0  0  0  0
   44.8680   34.4590   46.3990 C   0  0  0  0  0  0  0  0  0  0  0  0
   44.5440   35.3850   45.3920 C   0  0  0  0  0  0  0  0  0  0  0  0
   45.1300   35.1750   44.1630 C   0  0  0  0  0  0  0  0  0  0  0  0
   45.9700   34.1180   43.9740 N   0  0  0  0  0  0  0  0  0  0  0  0
   46.2560   33.2500   44.9710 C   0  0  0  0  0  0  0  0  0  0  0  0
   45.7090   33.4240   46.1640 N   0  0  0  0  0  0  0  0  0  0  0  0
   44.8830   36.0590   43.0270 C   0  0  0  0  0  0  0  0  0  0  0  0
   44.5430   35.6830   41.8760 O   0  0  0  0  0  0  0  0  0  0  0  0
   45.0350   37.4430   43.2240 O   0  0  0  0  0  0  0  0  0  0  0  0
   49.0405   30.9174   44.7165 H   0  0  0  0  0  0  0  0  0  0  0  0
   48.3848   29.5376   43.7362 H   0  0  0  0  0  0  0  0  0  0  0  0
   49.3788   27.9478   45.1390 H   0  0  0  0  0  0  0  0  0  0  0  0
   50.6310   29.2301   44.7319 H   0  0  0  0  0  0  0  0  0  0  0  0
   48.3873   28.1929   47.3822 H   0  0  0  0  0  0  0  0  0  0  0  0
   49.1633   29.4480   48.4277 H   0  0  0  0  0  0  0  0  0  0  0  0
   48.3709   31.1948   46.8687 H   0  0  0  0  0  0  0  0  0  0  0  0
   45.4498   28.7951   47.4756 H   0  0  0  0  0  0  0  0  0  0  0  0
   45.2637   32.0857   50.1576 H   0  0  0  0  0  0  0  0  0  0  0  0
   45.9822   30.4744   44.2786 H   0  0  0  0  0  0  0  0  0  0  0  0
   45.9788   31.1642   45.9990 H   0  0  0  0  0  0  0  0  0  0  0  0
   47.3548   32.0866   43.5672 H   0  0  0  0  0  0  0  0  0  0  0  0
   48.1529   32.2879   45.1521 H   0  0  0  0  0  0  0  0  0  0  0  0
   44.4285   34.5779   47.4003 H   0  0  0  0  0  0  0  0  0  0  0  0
   43.8620   36.2285   45.5748 H   0  0  0  0  0  0  0  0  0  0  0  0
   44.8752   38.0701   42.4748 H   0  0  0  0  0  0  0  0  0  0  0  0
  1  6  1  0
  2  3  1  0
  2  1  1  0
  3  4  1  0
  4  5  1  0
  6  5  1  0
  6  7  1  0
  7  8  1  0
  7 11  1  0
  8  9  2  0
  9 10  1  0
 11 10  2  0
 12  1  1  0
 13 18  1  0
 13 12  1  0
 15 14  2  0
 16 15  1  0
 17 16  2  0
 17 18  1  0
 18 19  2  0
 19 14  1  0
 20 22  1  0
 20 16  1  0
 21 20  2  0
  2 23  1  0
  2 24  1  0
  3 25  1  0
  3 26  1  0
  5 27  1  0
  5 28  1  0
  6 29  1  6
  8 30  1  0
 10 31  1  0
 12 32  1  0
 12 33  1  0
 13 34  1  0
 13 35  1  0
 14 36  1  0
 15 37  1  0
 22 38  1  0
M  ISO  8  23  13  24  13  25  13  26  13  27  13  28  13  29  13  30  14
M  ISO  8  31  14  32   8  33   8  34   8  35   8  36  14  37  14  38   3
M  END
>  <minimizedAffinity>  (1) 
-4.84621286

>  <minimizedRMSD>  (1) 
0.858326793

$$$$
