
     RDKit          3D

 38 40  0  0  1  0  0  0  0  0999 V2000
   47.3670   29.9490   45.8090 N   0  0  0  0  0  0  0  0  0  0  0  0
   48.5680   29.8680   44.9970 C   0  0  0  0  0  0  0  0  0  0  0  0
   49.6140   28.9930   45.6010 C   0  0  0  0  0  0  0  0  0  0  0  0
   49.8860   29.2420   46.9260 O   0  0  0  0  0  0  0  0  0  0  0  0
   48.7460   29.3340   47.7010 C   0  0  0  0  0  0  0  0  0  0  0  0
   47.8080   30.3740   47.1470 C   0  0  2  0  0  0  0  0  0  0  0  0
   46.7470   30.6960   48.0260 N   0  0  0  0  0  0  0  0  0  0  0  0
   45.6220   29.9990   48.2650 C   0  0  0  0  0  0  0  0  0  0  0  0
   44.8680   30.6460   49.1690 N   0  0  0  0  0  0  0  0  0  0  0  0
   45.5360   31.7710   49.5020 C   0  0  0  0  0  0  0  0  0  0  0  0
   46.6610   31.7810   48.8040 N   0  0  0  0  0  0  0  0  0  0  0  0
   46.5110   30.9660   45.2980 C   0  0  0  0  0  0  0  0  0  0  0  0
   47.1840   32.2020   44.8430 C   0  0  0  0  0  0  0  0  0  0  0  0
   44.7290   34.5880   46.3070 C   0  0  0  0  0  0  0  0  0  0  0  0
   44.5420   35.5020   45.2400 C   0  0  0  0  0  0  0  0  0  0  0  0
   45.2560   35.2690   44.0730 C   0  0  0  0  0  0  0  0  0  0  0  0
   46.0830   34.2000   44.0050 N   0  0  0  0  0  0  0  0  0  0  0  0
   46.2480   33.3390   45.0340 C   0  0  0  0  0  0  0  0  0  0  0  0
   45.5760   33.5390   46.1660 N   0  0  0  0  0  0  0  0  0  0  0  0
   45.1610   36.1360   42.8820 C   0  0  0  0  0  0  0  0  0  0  0  0
   46.2550   35.8530   42.0750 F   0  0  0  0  0  0  0  0  0  0  0  0
   43.9720   35.8910   42.2030 F   0  0  0  0  0  0  0  0  0  0  0  0
   45.2700   37.4540   43.2620 F   0  0  0  0  0  0  0  0  0  0  0  0
   48.9816   30.8804   44.8787 H   0  0  0  0  0  0  0  0  0  0  0  0
   48.2854   29.4280   44.0293 H   0  0  0  0  0  0  0  0  0  0  0  0
   49.2788   27.9491   45.5118 H   0  0  0  0  0  0  0  0  0  0  0  0
   50.5440   29.2016   45.0518 H   0  0  0  0  0  0  0  0  0  0  0  0
   48.2375   28.3586   47.7125 H   0  0  0  0  0  0  0  0  0  0  0  0
   49.0348   29.6260   48.7215 H   0  0  0  0  0  0  0  0  0  0  0  0
   48.3487   31.3266   47.0459 H   0  0  0  0  0  0  0  0  0  0  0  0
   45.3586   29.0420   47.7910 H   0  0  0  0  0  0  0  0  0  0  0  0
   45.2068   32.5368   50.2197 H   0  0  0  0  0  0  0  0  0  0  0  0
   45.9607   30.5464   44.4429 H   0  0  0  0  0  0  0  0  0  0  0  0
   45.8679   31.2667   46.1382 H   0  0  0  0  0  0  0  0  0  0  0  0
   47.4478   32.1119   43.7789 H   0  0  0  0  0  0  0  0  0  0  0  0
   48.1049   32.3675   45.4215 H   0  0  0  0  0  0  0  0  0  0  0  0
   44.1851   34.7303   47.2525 H   0  0  0  0  0  0  0  0  0  0  0  0
   43.8597   36.3598   45.3330 H   0  0  0  0  0  0  0  0  0  0  0  0
  1  6  1  0
  2  3  1  0
  2  1  1  0
  3  4  1  0
  4  5  1  0
  6  5  1  0
  6  7  1  0
  7  8  1  0
  7 11  1  0
  8  9  2  0
  9 10  1  0
 11 10  2  0
 12  1  1  0
 13 18  1  0
 13 12  1  0
 15 14  2  0
 16 15  1  0
 17 16  2  0
 17 18  1  0
 18 19  2  0
 19 14  1  0
 20 23  1  0
 20 16  1  0
 21 20  1  0
 22 20  1  0
  2 24  1  0
  2 25  1  0
  3 26  1  0
  3 27  1  0
  5 28  1  0
  5 29  1  0
  6 30  1  6
  8 31  1  0
 10 32  1  0
 12 33  1  0
 12 34  1  0
 13 35  1  0
 13 36  1  0
 14 37  1  0
 15 38  1  0
M  ISO  8  24  13  25  13  26  13  27  13  28  13  29  13  30  13  31  14
M  ISO  7  32  14  33   8  34   8  35   8  36   8  37  14  38  14
M  END
>  <minimizedAffinity>  (1) 
-5.15998173

>  <minimizedRMSD>  (1) 
0.793961287

$$$$
