
     RDKit          3D

 37 39  0  0  1  0  0  0  0  0999 V2000
   47.1470   30.1750   45.4440 N   0  0  0  0  0  0  0  0  0  0  0  0
   48.2870   30.1440   44.5440 C   0  0  0  0  0  0  0  0  0  0  0  0
   49.3580   29.2080   45.0180 C   0  0  0  0  0  0  0  0  0  0  0  0
   49.7240   29.3440   46.3340 O   0  0  0  0  0  0  0  0  0  0  0  0
   48.6250   29.3870   47.1730 C   0  0  0  0  0  0  0  0  0  0  0  0
   47.6940   30.4880   46.7620 C   0  0  2  0  0  0  0  0  0  0  0  0
   46.7010   30.7750   47.7460 N   0  0  0  0  0  0  0  0  0  0  0  0
   45.6560   30.0090   48.1200 C   0  0  0  0  0  0  0  0  0  0  0  0
   44.9600   30.6520   49.0830 N   0  0  0  0  0  0  0  0  0  0  0  0
   45.5740   31.8180   49.3070 C   0  0  0  0  0  0  0  0  0  0  0  0
   46.6120   31.8730   48.4990 N   0  0  0  0  0  0  0  0  0  0  0  0
   46.2800   31.2350   45.0630 C   0  0  0  0  0  0  0  0  0  0  0  0
   46.9430   32.4490   44.5330 C   0  0  0  0  0  0  0  0  0  0  0  0
   44.6450   34.8970   46.1540 C   0  0  0  0  0  0  0  0  0  0  0  0
   44.4280   35.8250   45.1150 C   0  0  0  0  0  0  0  0  0  0  0  0
   45.0770   35.5730   43.9060 C   0  0  0  0  0  0  0  0  0  0  0  0
   45.8600   34.4860   43.7870 N   0  0  0  0  0  0  0  0  0  0  0  0
   46.0530   33.6110   44.7950 C   0  0  0  0  0  0  0  0  0  0  0  0
   45.4470   33.8260   45.9590 N   0  0  0  0  0  0  0  0  0  0  0  0
   44.9660   36.4090   42.7570 N   0  0  0  0  0  0  0  0  0  0  0  0
   48.7088   31.1573   44.4717 H   0  0  0  0  0  0  0  0  0  0  0  0
   47.9348   29.7860   43.5654 H   0  0  0  0  0  0  0  0  0  0  0  0
   48.9976   28.1791   44.8714 H   0  0  0  0  0  0  0  0  0  0  0  0
   50.2543   29.4530   44.4293 H   0  0  0  0  0  0  0  0  0  0  0  0
   48.0932   28.4254   47.1226 H   0  0  0  0  0  0  0  0  0  0  0  0
   48.9688   29.5766   48.2006 H   0  0  0  0  0  0  0  0  0  0  0  0
   48.2593   31.4285   46.6847 H   0  0  0  0  0  0  0  0  0  0  0  0
   45.4098   29.0195   47.7073 H   0  0  0  0  0  0  0  0  0  0  0  0
   45.2690   32.5878   50.0312 H   0  0  0  0  0  0  0  0  0  0  0  0
   45.6017   30.8538   44.2855 H   0  0  0  0  0  0  0  0  0  0  0  0
   45.7697   31.5507   45.9849 H   0  0  0  0  0  0  0  0  0  0  0  0
   47.1079   32.3418   43.4507 H   0  0  0  0  0  0  0  0  0  0  0  0
   47.9172   32.5963   45.0220 H   0  0  0  0  0  0  0  0  0  0  0  0
   44.1587   35.0452   47.1295 H   0  0  0  0  0  0  0  0  0  0  0  0
   43.7798   36.7033   45.2507 H   0  0  0  0  0  0  0  0  0  0  0  0
   45.4718   36.1668   41.8931 H   0  0  0  0  0  0  0  0  0  0  0  0
   44.3800   37.2554   42.7906 H   0  0  0  0  0  0  0  0  0  0  0  0
  1  6  1  0
  2  3  1  0
  2  1  1  0
  3  4  1  0
  4  5  1  0
  6  5  1  0
  6  7  1  0
  7  8  1  0
  7 11  1  0
  8  9  2  0
  9 10  1  0
 11 10  2  0
 12  1  1  0
 13 18  1  0
 13 12  1  0
 15 14  2  0
 16 15  1  0
 17 16  2  0
 17 18  1  0
 18 19  2  0
 19 14  1  0
 20 16  1  0
  2 21  1  0
  2 22  1  0
  3 23  1  0
  3 24  1  0
  5 25  1  0
  5 26  1  0
  6 27  1  6
  8 28  1  0
 10 29  1  0
 12 30  1  0
 12 31  1  0
 13 32  1  0
 13 33  1  0
 14 34  1  0
 15 35  1  0
 20 36  1  0
 20 37  1  0
M  ISO  8  21  13  22  13  23  13  24  13  25  13  26  13  27  13  28  14
M  ISO  7  29  14  30   8  31   8  32   8  33   8  34  14  35  14
M  END
>  <minimizedAffinity>  (1) 
-4.55836582

>  <minimizedRMSD>  (1) 
0.450329036

$$$$
