
     RDKit          3D

 50 52  0  0  1  0  0  0  0  0999 V2000
   47.3580   29.8260   45.6820 C   0  0  0  0  0  0  0  0  0  0  0  0
   48.2170   29.3010   46.6870 N   0  0  0  0  0  0  0  0  0  0  0  0
   49.5350   29.0790   46.1400 C   0  0  0  0  0  0  0  0  0  0  0  0
   50.5630   28.7590   47.1820 C   0  0  0  0  0  0  0  0  0  0  0  0
   50.5620   29.6060   48.2780 O   0  0  0  0  0  0  0  0  0  0  0  0
   49.3020   29.8170   48.7930 C   0  0  0  0  0  0  0  0  0  0  0  0
   48.3810   30.3340   47.7270 C   0  0  2  0  0  0  0  0  0  0  0  0
   47.1450   30.8160   48.2470 N   0  0  0  0  0  0  0  0  0  0  0  0
   46.0210   30.1210   48.4900 C   0  0  0  0  0  0  0  0  0  0  0  0
   45.0810   30.9420   48.9780 N   0  0  0  0  0  0  0  0  0  0  0  0
   45.6230   32.1720   49.0430 C   0  0  0  0  0  0  0  0  0  0  0  0
   46.8690   32.0830   48.5980 N   0  0  0  0  0  0  0  0  0  0  0  0
   48.0140   30.6070   44.6200 C   0  0  0  0  0  0  0  0  0  0  0  0
   45.6200   33.4090   45.0320 C   0  0  0  0  0  0  0  0  0  0  0  0
   45.8760   34.2200   43.9030 C   0  0  0  0  0  0  0  0  0  0  0  0
   46.8690   33.7550   43.0560 C   0  0  0  0  0  0  0  0  0  0  0  0
   47.5210   32.6030   43.3220 N   0  0  0  0  0  0  0  0  0  0  0  0
   47.2490   31.8510   44.4120 C   0  0  0  0  0  0  0  0  0  0  0  0
   46.3080   32.2590   45.2500 N   0  0  0  0  0  0  0  0  0  0  0  0
   47.2400   34.5030   41.8570 C   0  0  0  0  0  0  0  0  0  0  0  0
   48.3100   33.7970   41.2630 F   0  0  0  0  0  0  0  0  0  0  0  0
   46.2350   34.5220   40.9190 F   0  0  0  0  0  0  0  0  0  0  0  0
   47.7760   35.7030   42.1360 F   0  0  0  0  0  0  0  0  0  0  0  0
   45.1240   35.4770   43.7000 C   0  0  0  0  0  0  0  0  0  0  0  0
   45.7820   36.5260   42.8510 C   0  0  0  0  0  0  0  0  0  0  0  0
   44.4010   35.9850   44.9030 C   0  0  0  0  0  0  0  0  0  0  0  0
   43.9630   35.0710   42.7430 C   0  0  0  0  0  0  0  0  0  0  0  0
   46.8387   28.9806   45.2070 H   0  0  0  0  0  0  0  0  0  0  0  0
   46.6892   30.5295   46.1994 H   0  0  0  0  0  0  0  0  0  0  0  0
   49.4822   28.2388   45.4320 H   0  0  0  0  0  0  0  0  0  0  0  0
   49.8466   30.0139   45.6513 H   0  0  0  0  0  0  0  0  0  0  0  0
   50.3798   27.7353   47.5404 H   0  0  0  0  0  0  0  0  0  0  0  0
   51.5432   28.8803   46.6977 H   0  0  0  0  0  0  0  0  0  0  0  0
   48.9068   28.8680   49.1844 H   0  0  0  0  0  0  0  0  0  0  0  0
   49.3666   30.5612   49.6004 H   0  0  0  0  0  0  0  0  0  0  0  0
   48.8385   31.2201   47.2628 H   0  0  0  0  0  0  0  0  0  0  0  0
   45.8921   29.0427   48.3151 H   0  0  0  0  0  0  0  0  0  0  0  0
   45.1236   33.0847   49.4001 H   0  0  0  0  0  0  0  0  0  0  0  0
   49.0436   30.8507   44.9210 H   0  0  0  0  0  0  0  0  0  0  0  0
   48.0447   30.0236   43.6880 H   0  0  0  0  0  0  0  0  0  0  0  0
   44.8458   33.7166   45.7503 H   0  0  0  0  0  0  0  0  0  0  0  0
   46.2543   37.2790   43.4990 H   0  0  0  0  0  0  0  0  0  0  0  0
   46.5477   36.0565   42.2160 H   0  0  0  0  0  0  0  0  0  0  0  0
   45.0260   37.0110   42.2160 H   0  0  0  0  0  0  0  0  0  0  0  0
   44.9073   35.6293   45.8125 H   0  0  0  0  0  0  0  0  0  0  0  0
   44.3978   37.0849   44.8915 H   0  0  0  0  0  0  0  0  0  0  0  0
   43.3651   35.6152   44.8915 H   0  0  0  0  0  0  0  0  0  0  0  0
   43.0887   34.7652   43.3363 H   0  0  0  0  0  0  0  0  0  0  0  0
   43.6939   35.9284   42.1086 H   0  0  0  0  0  0  0  0  0  0  0  0
   44.2869   34.2328   42.1086 H   0  0  0  0  0  0  0  0  0  0  0  0
  1  2  1  0
  2  7  1  0
  3  2  1  0
  3  4  1  0
  4  5  1  0
  5  6  1  0
  7  8  1  0
  7  6  1  0
  8  9  1  0
  8 12  1  0
  9 10  2  0
 10 11  1  0
 12 11  2  0
 13  1  1  0
 14 19  2  0
 15 14  1  0
 16 17  1  0
 16 15  2  0
 17 18  2  0
 18 13  1  0
 18 19  1  0
 20 23  1  0
 20 16  1  0
 21 20  1  0
 22 20  1  0
 24 15  1  0
 24 26  1  0
 25 24  1  0
 27 24  1  0
  1 28  1  0
  1 29  1  0
  3 30  1  0
  3 31  1  0
  4 32  1  0
  4 33  1  0
  6 34  1  0
  6 35  1  0
  7 36  1  6
  9 37  1  0
 11 38  1  0
 13 39  1  0
 13 40  1  0
 14 41  1  0
 25 42  1  0
 25 43  1  0
 25 44  1  0
 26 45  1  0
 26 46  1  0
 26 47  1  0
 27 48  1  0
 27 49  1  0
 27 50  1  0
M  ISO  8  28   8  29   8  30  13  31  13  32  13  33  13  34  13  35  13
M  ISO  8  36  13  37  14  38  14  39   8  40   8  41  14  42   8  43   8
M  ISO  7  44   8  45   8  46   8  47   8  48   8  49   8  50   8
M  END
>  <minimizedAffinity>  (1) 
-4.99820757

>  <minimizedRMSD>  (1) 
2.0443666

$$$$
