
     RDKit          3D

 45 48  0  0  1  0  0  0  0  0999 V2000
   48.2400   29.4280   46.3090 N   0  0  0  0  0  0  0  0  0  0  0  0
   49.5750   29.2000   45.8210 C   0  0  0  0  0  0  0  0  0  0  0  0
   50.5300   28.8470   46.9170 C   0  0  0  0  0  0  0  0  0  0  0  0
   50.4960   29.6890   48.0000 O   0  0  0  0  0  0  0  0  0  0  0  0
   49.2100   29.9090   48.4640 C   0  0  0  0  0  0  0  0  0  0  0  0
   48.3390   30.4500   47.3560 C   0  0  2  0  0  0  0  0  0  0  0  0
   47.0840   30.9370   47.8180 N   0  0  0  0  0  0  0  0  0  0  0  0
   46.0190   30.2110   48.2250 C   0  0  0  0  0  0  0  0  0  0  0  0
   45.0230   31.0520   48.5860 N   0  0  0  0  0  0  0  0  0  0  0  0
   45.4850   32.3090   48.3950 C   0  0  0  0  0  0  0  0  0  0  0  0
   46.7230   32.2140   47.9350 N   0  0  0  0  0  0  0  0  0  0  0  0
   47.4180   29.9640   45.2640 C   0  0  0  0  0  0  0  0  0  0  0  0
   48.1430   30.6410   44.1810 C   0  0  0  0  0  0  0  0  0  0  0  0
   45.8890   33.6020   44.3710 C   0  0  0  0  0  0  0  0  0  0  0  0
   46.3990   34.4010   43.3140 C   0  0  0  0  0  0  0  0  0  0  0  0
   47.4660   33.9170   42.5900 C   0  0  0  0  0  0  0  0  0  0  0  0
   47.9850   32.7100   42.9080 N   0  0  0  0  0  0  0  0  0  0  0  0
   47.4940   31.9490   43.9220 C   0  0  0  0  0  0  0  0  0  0  0  0
   46.4670   32.3970   44.6300 N   0  0  0  0  0  0  0  0  0  0  0  0
   48.0680   34.6590   41.4810 C   0  0  0  0  0  0  0  0  0  0  0  0
   49.2020   33.9470   41.0760 F   0  0  0  0  0  0  0  0  0  0  0  0
   47.1740   34.7330   40.4050 F   0  0  0  0  0  0  0  0  0  0  0  0
   48.4850   35.8900   41.9020 F   0  0  0  0  0  0  0  0  0  0  0  0
   45.8010   35.7240   42.9940 C   0  0  0  0  0  0  0  0  0  0  0  0
   44.6370   36.1480   43.9120 C   0  0  0  0  0  0  0  0  0  0  0  0
   44.3600   35.7600   42.5040 C   0  0  0  0  0  0  0  0  0  0  0  0
   49.5495   28.3740   45.0949 H   0  0  0  0  0  0  0  0  0  0  0  0
   49.9267   30.1334   45.3573 H   0  0  0  0  0  0  0  0  0  0  0  0
   50.2918   27.8311   47.2651 H   0  0  0  0  0  0  0  0  0  0  0  0
   51.5397   28.9319   46.4888 H   0  0  0  0  0  0  0  0  0  0  0  0
   48.7879   28.9603   48.8271 H   0  0  0  0  0  0  0  0  0  0  0  0
   49.2454   30.6432   49.2824 H   0  0  0  0  0  0  0  0  0  0  0  0
   48.8070   31.3463   46.9229 H   0  0  0  0  0  0  0  0  0  0  0  0
   45.9701   29.1126   48.2574 H   0  0  0  0  0  0  0  0  0  0  0  0
   44.9326   33.2407   48.5869 H   0  0  0  0  0  0  0  0  0  0  0  0
   46.8449   29.1350   44.8232 H   0  0  0  0  0  0  0  0  0  0  0  0
   46.7883   30.7326   45.7359 H   0  0  0  0  0  0  0  0  0  0  0  0
   49.1901   30.7994   44.4786 H   0  0  0  0  0  0  0  0  0  0  0  0
   48.1205   30.0238   43.2708 H   0  0  0  0  0  0  0  0  0  0  0  0
   45.0376   33.9522   44.9730 H   0  0  0  0  0  0  0  0  0  0  0  0
   46.7482   36.1551   42.6377 H   0  0  0  0  0  0  0  0  0  0  0  0
   44.3196   35.4910   44.7352 H   0  0  0  0  0  0  0  0  0  0  0  0
   44.4188   37.0309   44.5308 H   0  0  0  0  0  0  0  0  0  0  0  0
   44.0497   36.5260   41.7781 H   0  0  0  0  0  0  0  0  0  0  0  0
   43.6927   35.0276   42.0262 H   0  0  0  0  0  0  0  0  0  0  0  0
  1  6  1  0
  2  1  1  0
  2  3  1  0
  3  4  1  0
  4  5  1  0
  6  7  1  0
  6  5  1  0
  7 11  1  0
  7  8  1  0
  8  9  2  0
 10  9  1  0
 11 10  2  0
 12  1  1  0
 13 12  1  0
 14 19  2  0
 15 14  1  0
 16 17  1  0
 16 15  2  0
 17 18  2  0
 18 13  1  0
 18 19  1  0
 20 23  1  0
 20 16  1  0
 21 20  1  0
 22 20  1  0
 24 15  1  0
 24 25  1  0
 26 24  1  0
 26 25  1  0
  2 27  1  0
  2 28  1  0
  3 29  1  0
  3 30  1  0
  5 31  1  0
  5 32  1  0
  6 33  1  6
  8 34  1  0
 10 35  1  0
 12 36  1  0
 12 37  1  0
 13 38  1  0
 13 39  1  0
 14 40  1  0
 24 41  1  0
 25 42  1  0
 25 43  1  0
 26 44  1  0
 26 45  1  0
M  ISO  8  27  13  28  13  29  13  30  13  31  13  32  13  33  13  34  14
M  ISO  8  35  14  36   8  37   8  38   8  39   8  40  14  41  13  42  13
M  ISO  3  43  13  44  13  45  13
M  END
>  <minimizedAffinity>  (1) 
-5.23732233

>  <minimizedRMSD>  (1) 
2.29910612

$$$$
