
     RDKit          3D

 39 41  0  0  1  0  0  0  0  0999 V2000
   47.6550   29.6780   45.9930 N   0  0  0  0  0  0  0  0  0  0  0  0
   48.8900   29.5390   45.2490 C   0  0  0  0  0  0  0  0  0  0  0  0
   49.9170   28.7590   46.0070 C   0  0  0  0  0  0  0  0  0  0  0  0
   50.0950   29.1180   47.3120 O   0  0  0  0  0  0  0  0  0  0  0  0
   48.8990   29.2380   48.0040 C   0  0  0  0  0  0  0  0  0  0  0  0
   48.0010   30.2250   47.3030 C   0  0  2  0  0  0  0  0  0  0  0  0
   46.8810   30.6030   48.0840 N   0  0  0  0  0  0  0  0  0  0  0  0
   45.7140   29.9400   48.2350 C   0  0  0  0  0  0  0  0  0  0  0  0
   44.9000   30.6290   49.0640 N   0  0  0  0  0  0  0  0  0  0  0  0
   45.5760   31.7450   49.4340 C   0  0  0  0  0  0  0  0  0  0  0  0
   46.7520   31.7000   48.8350 N   0  0  0  0  0  0  0  0  0  0  0  0
   46.8070   30.6260   45.3370 C   0  0  0  0  0  0  0  0  0  0  0  0
   47.4830   31.8160   44.8020 C   0  0  0  0  0  0  0  0  0  0  0  0
   45.0000   34.2810   46.0780 C   0  0  0  0  0  0  0  0  0  0  0  0
   44.8660   35.1610   44.9670 C   0  0  0  0  0  0  0  0  0  0  0  0
   45.6230   34.8710   43.8480 C   0  0  0  0  0  0  0  0  0  0  0  0
   46.4360   33.8010   43.8480 N   0  0  0  0  0  0  0  0  0  0  0  0
   46.5500   32.9720   44.9170 C   0  0  0  0  0  0  0  0  0  0  0  0
   45.8400   33.2160   46.0120 N   0  0  0  0  0  0  0  0  0  0  0  0
   45.5730   35.7080   42.6310 C   0  0  0  0  0  0  0  0  0  0  0  0
   46.7260   35.4160   41.8950 F   0  0  0  0  0  0  0  0  0  0  0  0
   44.4300   35.4020   41.8860 F   0  0  0  0  0  0  0  0  0  0  0  0
   45.6380   37.0310   42.9610 F   0  0  0  0  0  0  0  0  0  0  0  0
   44.0300   36.2430   45.0000 O   0  0  0  0  0  0  0  0  0  0  0  0
   48.6777   29.0204   44.3024 H   0  0  0  0  0  0  0  0  0  0  0  0
   49.2933   30.5465   45.0695 H   0  0  0  0  0  0  0  0  0  0  0  0
   49.6191   27.7003   45.9863 H   0  0  0  0  0  0  0  0  0  0  0  0
   50.8754   28.9653   45.5082 H   0  0  0  0  0  0  0  0  0  0  0  0
   48.4016   28.2578   48.0465 H   0  0  0  0  0  0  0  0  0  0  0  0
   49.1037   29.5940   49.0245 H   0  0  0  0  0  0  0  0  0  0  0  0
   48.5379   31.1734   47.1540 H   0  0  0  0  0  0  0  0  0  0  0  0
   45.4639   28.9824   47.7548 H   0  0  0  0  0  0  0  0  0  0  0  0
   45.2135   32.5372   50.1056 H   0  0  0  0  0  0  0  0  0  0  0  0
   46.3099   30.1137   44.5001 H   0  0  0  0  0  0  0  0  0  0  0  0
   46.1130   30.9938   46.1071 H   0  0  0  0  0  0  0  0  0  0  0  0
   47.7450   31.6524   43.7463 H   0  0  0  0  0  0  0  0  0  0  0  0
   48.4060   32.0148   45.3664 H   0  0  0  0  0  0  0  0  0  0  0  0
   44.4202   34.4646   46.9946 H   0  0  0  0  0  0  0  0  0  0  0  0
   43.9580   36.8371   44.2114 H   0  0  0  0  0  0  0  0  0  0  0  0
  1  6  1  0
  2  1  1  0
  2  3  1  0
  3  4  1  0
  4  5  1  0
  6  5  1  0
  6  7  1  0
  7  8  1  0
  7 11  1  0
  8  9  2  0
  9 10  1  0
 11 10  2  0
 12  1  1  0
 13 18  1  0
 13 12  1  0
 15 24  1  0
 15 14  2  0
 16 15  1  0
 17 16  2  0
 17 18  1  0
 18 19  2  0
 19 14  1  0
 20 23  1  0
 20 16  1  0
 21 20  1  0
 22 20  1  0
  2 25  1  0
  2 26  1  0
  3 27  1  0
  3 28  1  0
  5 29  1  0
  5 30  1  0
  6 31  1  6
  8 32  1  0
 10 33  1  0
 12 34  1  0
 12 35  1  0
 13 36  1  0
 13 37  1  0
 14 38  1  0
 24 39  1  0
M  ISO  8  25  13  26  13  27  13  28  13  29  13  30  13  31  13  32  14
M  ISO  7  33  14  34   8  35   8  36   8  37   8  38  14  39   3
M  END
>  <minimizedAffinity>  (1) 
-5.16692448

>  <minimizedRMSD>  (1) 
0.477120221

$$$$
