
     RDKit          3D

 29 29  0  0  0  0  0  0  0  0999 V2000
   48.2540   34.6400   41.7300 C   0  0  0  0  0  0  0  0  0  0  0  0
   47.1050   34.7330   42.6780 C   0  0  0  0  0  0  0  0  0  0  0  0
   47.1430   33.7930   43.7160 C   0  0  0  0  0  0  0  0  0  0  0  0
   46.1120   33.7860   44.6690 C   0  0  0  0  0  0  0  0  0  0  0  0
   45.1260   34.7060   44.5240 N   0  0  0  0  0  0  0  0  0  0  0  0
   45.1110   35.6120   43.5040 C   0  0  0  0  0  0  0  0  0  0  0  0
   46.0920   35.6120   42.6030 N   0  0  0  0  0  0  0  0  0  0  0  0
   49.2370   33.5950   42.1660 C   0  0  0  0  0  0  0  0  0  0  0  0
   48.9990   35.9550   41.6230 C   0  0  0  0  0  0  0  0  0  0  0  0
   47.6870   34.3060   40.3720 C   0  0  0  0  0  0  0  0  0  0  0  0
   48.6970   33.8440   39.4500 N   0  0  0  0  0  0  0  0  0  0  0  0
   48.3560   33.9480   38.0790 C   0  0  0  0  0  0  0  0  0  0  0  0
   47.1860   34.1050   37.5680 N   0  0  0  0  0  0  0  0  0  0  0  0
   49.3870   33.8760   37.0760 N   0  0  0  0  0  0  0  0  0  0  0  0
   46.3790   34.1690   38.2050 H   0  0  0  0  0  0  0  0  0  0  0  0
   47.9694   33.0702   43.7835 H   0  0  0  0  0  0  0  0  0  0  0  0
   46.1042   33.0642   45.4990 H   0  0  0  0  0  0  0  0  0  0  0  0
   44.2907   36.3407   43.4259 H   0  0  0  0  0  0  0  0  0  0  0  0
   49.2708   33.5591   43.2649 H   0  0  0  0  0  0  0  0  0  0  0  0
   48.9265   32.6143   41.7765 H   0  0  0  0  0  0  0  0  0  0  0  0
   50.2349   33.8450   41.7765 H   0  0  0  0  0  0  0  0  0  0  0  0
   49.2154   36.3369   42.6316 H   0  0  0  0  0  0  0  0  0  0  0  0
   49.9427   35.7986   41.0799 H   0  0  0  0  0  0  0  0  0  0  0  0
   48.3798   36.6841   41.0799 H   0  0  0  0  0  0  0  0  0  0  0  0
   46.9297   33.5170   40.4902 H   0  0  0  0  0  0  0  0  0  0  0  0
   47.2506   35.2262   39.9563 H   0  0  0  0  0  0  0  0  0  0  0  0
   49.6012   33.4657   39.7664 H   0  0  0  0  0  0  0  0  0  0  0  0
   49.1413   33.9514   36.0786 H   0  0  0  0  0  0  0  0  0  0  0  0
   50.3700   33.7491   37.3561 H   0  0  0  0  0  0  0  0  0  0  0  0
  1  8  1  0
  1  2  1  0
  2  3  2  0
  3  4  1  0
  5  4  2  0
  6  5  1  0
  7  2  1  0
  7  6  2  0
  9  1  1  0
 10  1  1  0
 11 10  1  0
 12 11  1  0
 13 12  2  0
 13 15  1  0
 14 12  1  0
  3 16  1  0
  4 17  1  0
  6 18  1  0
  8 19  1  0
  8 20  1  0
  8 21  1  0
  9 22  1  0
  9 23  1  0
  9 24  1  0
 10 25  1  0
 10 26  1  0
 11 27  1  0
 14 28  1  0
 14 29  1  0
M  ISO  8  16  14  17  14  18  14  19   8  20   8  21   8  22   8  23   8
M  ISO  3  24   8  25   8  26   8
M  END
>  <minimizedAffinity>  (1) 
-5.02189875

>  <minimizedRMSD>  (1) 
2.2447412

$$$$
