
     RDKit          3D

 42 44  0  0  1  0  0  0  0  0999 V2000
   48.5190   33.5120   40.6770 C   0  0  0  0  0  0  0  0  0  0  0  0
   47.6690   34.0860   39.5900 C   0  0  2  0  0  0  0  0  0  0  0  0
   46.6900   33.2640   38.8770 C   0  0  0  0  0  0  0  0  0  0  0  0
   47.9300   33.7280   38.1540 C   0  0  2  0  0  0  0  0  0  0  0  0
   48.9600   32.8230   37.7950 N   0  0  0  0  0  0  0  0  0  0  0  0
   49.7480   32.1610   38.6610 C   0  0  0  0  0  0  0  0  0  0  0  0
   50.7340   31.2920   38.2400 C   0  0  0  0  0  0  0  0  0  0  0  0
   51.6220   30.5440   39.1770 C   0  0  0  0  0  0  0  0  0  0  0  0
   50.9520   31.0690   36.8790 C   0  0  0  0  0  0  0  0  0  0  0  0
   51.8330   30.2920   36.4190 O   0  0  0  0  0  0  0  0  0  0  0  0
   50.1530   31.7430   36.0480 N   0  0  0  0  0  0  0  0  0  0  0  0
   49.2000   32.5830   36.4930 C   0  0  0  0  0  0  0  0  0  0  0  0
   48.5230   33.1480   35.6060 O   0  0  0  0  0  0  0  0  0  0  0  0
   48.7970   34.4630   41.8210 C   0  0  0  0  0  0  0  0  0  0  0  0
   47.7220   34.2820   42.8200 C   0  0  0  0  0  0  0  0  0  0  0  0
   46.6700   35.1860   42.6470 C   0  0  0  0  0  0  0  0  0  0  0  0
   45.5650   35.1210   43.5360 C   0  0  0  0  0  0  0  0  0  0  0  0
   45.6010   34.1670   44.5150 N   0  0  0  0  0  0  0  0  0  0  0  0
   46.6420   33.3060   44.6520 C   0  0  0  0  0  0  0  0  0  0  0  0
   47.6630   33.3860   43.8090 N   0  0  0  0  0  0  0  0  0  0  0  0
   50.1390   34.1140   42.4200 C   0  0  0  0  0  0  0  0  0  0  0  0
   48.9090   35.8270   41.2790 C   0  0  0  0  0  0  0  0  0  0  0  0
   49.4817   33.2108   40.2382 H   0  0  0  0  0  0  0  0  0  0  0  0
   47.9578   32.6662   41.1010 H   0  0  0  0  0  0  0  0  0  0  0  0
   47.6106   35.0262   40.1581 H   0  0  0  0  0  0  0  0  0  0  0  0
   46.5728   32.2018   39.1376 H   0  0  0  0  0  0  0  0  0  0  0  0
   45.6093   33.3393   38.6859 H   0  0  0  0  0  0  0  0  0  0  0  0
   48.1408   34.2829   37.2279 H   0  0  0  0  0  0  0  0  0  0  0  0
   49.6018   32.3173   39.7400 H   0  0  0  0  0  0  0  0  0  0  0  0
   51.3421   30.7798   40.2143 H   0  0  0  0  0  0  0  0  0  0  0  0
   51.5107   29.4634   39.0037 H   0  0  0  0  0  0  0  0  0  0  0  0
   52.6679   30.8373   39.0037 H   0  0  0  0  0  0  0  0  0  0  0  0
   50.2699   31.6158   35.0326 H   0  0  0  0  0  0  0  0  0  0  0  0
   46.6977   35.9320   41.8391 H   0  0  0  0  0  0  0  0  0  0  0  0
   44.7135   35.8108   43.4410 H   0  0  0  0  0  0  0  0  0  0  0  0
   46.6387   32.5514   45.4523 H   0  0  0  0  0  0  0  0  0  0  0  0
   50.0667   34.1328   43.5175 H   0  0  0  0  0  0  0  0  0  0  0  0
   50.4377   33.1083   42.0894 H   0  0  0  0  0  0  0  0  0  0  0  0
   50.8898   34.8468   42.0894 H   0  0  0  0  0  0  0  0  0  0  0  0
   48.9681   36.5473   42.1082 H   0  0  0  0  0  0  0  0  0  0  0  0
   49.8164   35.9030   40.6619 H   0  0  0  0  0  0  0  0  0  0  0  0
   48.0261   36.0500   40.6619 H   0  0  0  0  0  0  0  0  0  0  0  0
  1 14  1  0
  2  1  1  0
  3  2  1  0
  4  3  1  0
  4  2  1  0
  5  4  1  0
  5  6  1  0
  7  6  2  0
  7  8  1  0
  9  7  1  0
 10  9  2  0
 11 12  1  0
 11  9  1  0
 12  5  1  0
 13 12  2  0
 14 21  1  0
 14 15  1  0
 15 20  1  0
 16 15  2  0
 16 17  1  0
 17 18  2  0
 18 19  1  0
 20 19  2  0
 22 14  1  0
  1 23  1  0
  1 24  1  0
  2 25  1  6
  3 26  1  0
  3 27  1  0
  4 28  1  6
  6 29  1  0
  8 30  1  0
  8 31  1  0
  8 32  1  0
 11 33  1  0
 16 34  1  0
 17 35  1  0
 19 36  1  0
 21 37  1  0
 21 38  1  0
 21 39  1  0
 22 40  1  0
 22 41  1  0
 22 42  1  0
M  ISO  8  23   8  24   8  25  13  26  13  27  13  28  13  29  14  30   8
M  ISO  8  31   8  32   8  33   9  34  14  35  14  36  14  37   8  38   8
M  ISO  4  39   8  40   8  41   8  42   8
M  END
>  <minimizedAffinity>  (1) 
-5.39198923

>  <minimizedRMSD>  (1) 
1.68115163

$$$$
