
     RDKit          3D

 42 44  0  0  1  0  0  0  0  0999 V2000
   48.6090   33.6050   40.6170 C   0  0  0  0  0  0  0  0  0  0  0  0
   47.6350   34.1880   39.6630 C   0  0  2  0  0  0  0  0  0  0  0  0
   46.6660   33.3780   38.9080 C   0  0  0  0  0  0  0  0  0  0  0  0
   47.8690   34.0160   38.1980 C   0  0  2  0  0  0  0  0  0  0  0  0
   50.2880   31.1030   36.1660 C   0  0  0  0  0  0  0  0  0  0  0  0
   50.4880   31.3320   37.5100 C   0  0  0  0  0  0  0  0  0  0  0  0
   49.7500   32.2530   38.2200 C   0  0  0  0  0  0  0  0  0  0  0  0
   48.7600   33.0040   37.6210 C   0  0  0  0  0  0  0  0  0  0  0  0
   48.5790   32.7490   36.2540 C   0  0  0  0  0  0  0  0  0  0  0  0
   49.3080   31.8350   35.5310 C   0  0  0  0  0  0  0  0  0  0  0  0
   51.2750   29.9170   35.3600 S   0  0  0  0  0  0  0  0  0  0  0  0
   50.4480   28.6880   35.0590 O   0  0  0  0  0  0  0  0  0  0  0  0
   51.8360   30.4440   34.0890 O   0  0  0  0  0  0  0  0  0  0  0  0
   48.8870   34.4860   41.8170 C   0  0  0  0  0  0  0  0  0  0  0  0
   47.7900   34.2650   42.7760 C   0  0  0  0  0  0  0  0  0  0  0  0
   46.7410   35.1640   42.6490 C   0  0  0  0  0  0  0  0  0  0  0  0
   45.6330   35.0460   43.5290 C   0  0  0  0  0  0  0  0  0  0  0  0
   45.6750   34.0440   44.4520 N   0  0  0  0  0  0  0  0  0  0  0  0
   46.7090   33.1950   44.5400 C   0  0  0  0  0  0  0  0  0  0  0  0
   47.7340   33.3160   43.7140 N   0  0  0  0  0  0  0  0  0  0  0  0
   50.2220   34.1040   42.4300 C   0  0  0  0  0  0  0  0  0  0  0  0
   49.0240   35.8950   41.3610 C   0  0  0  0  0  0  0  0  0  0  0  0
   49.5564   33.4336   40.0849 H   0  0  0  0  0  0  0  0  0  0  0  0
   48.1673   32.6724   40.9980 H   0  0  0  0  0  0  0  0  0  0  0  0
   47.5103   35.0400   40.3475 H   0  0  0  0  0  0  0  0  0  0  0  0
   46.6260   32.2884   39.0537 H   0  0  0  0  0  0  0  0  0  0  0  0
   45.5754   33.3971   38.7658 H   0  0  0  0  0  0  0  0  0  0  0  0
   48.1160   34.7515   37.4183 H   0  0  0  0  0  0  0  0  0  0  0  0
   51.2657   30.7581   38.0352 H   0  0  0  0  0  0  0  0  0  0  0  0
   49.9552   32.3932   39.2916 H   0  0  0  0  0  0  0  0  0  0  0  0
   47.8012   33.3188   35.7245 H   0  0  0  0  0  0  0  0  0  0  0  0
   49.1115   31.6896   34.4585 H   0  0  0  0  0  0  0  0  0  0  0  0
   52.3146   29.6023   36.1949 H   0  0  0  0  0  0  0  0  0  0  0  0
   46.7671   35.9522   41.8821 H   0  0  0  0  0  0  0  0  0  0  0  0
   44.7770   35.7341   43.4684 H   0  0  0  0  0  0  0  0  0  0  0  0
   46.7044   32.3986   45.2988 H   0  0  0  0  0  0  0  0  0  0  0  0
   50.1418   34.1269   43.5268 H   0  0  0  0  0  0  0  0  0  0  0  0
   50.4988   33.0906   42.1037 H   0  0  0  0  0  0  0  0  0  0  0  0
   50.9929   34.8176   42.1037 H   0  0  0  0  0  0  0  0  0  0  0  0
   49.0885   36.5588   42.2357 H   0  0  0  0  0  0  0  0  0  0  0  0
   49.9363   35.9972   40.7550 H   0  0  0  0  0  0  0  0  0  0  0  0
   48.1485   36.1710   40.7550 H   0  0  0  0  0  0  0  0  0  0  0  0
  1 14  1  0
  2  1  1  0
  3  2  1  0
  4  3  1  0
  4  2  1  0
  5  6  2  0
  6  7  1  0
  8  4  1  0
  8  7  2  0
  9  8  1  0
 10  5  1  0
 10  9  2  0
 11  5  1  0
 12 11  2  0
 13 11  2  0
 14 21  1  0
 14 15  1  0
 15 20  1  0
 16 15  2  0
 16 17  1  0
 17 18  2  0
 18 19  1  0
 20 19  2  0
 22 14  1  0
  1 23  1  0
  1 24  1  0
  2 25  1  6
  3 26  1  0
  3 27  1  0
  4 28  1  6
  6 29  1  0
  7 30  1  0
  9 31  1  0
 10 32  1  0
 11 33  1  0
 16 34  1  0
 17 35  1  0
 19 36  1  0
 21 37  1  0
 21 38  1  0
 21 39  1  0
 22 40  1  0
 22 41  1  0
 22 42  1  0
M  ISO  8  23   8  24   8  25  13  26  13  27  13  28  13  29  14  30  14
M  ISO  8  31  14  32  14  33  11  34  14  35  14  36  14  37   8  38   8
M  ISO  4  39   8  40   8  41   8  42   8
M  END
>  <minimizedAffinity>  (1) 
-4.96705389

>  <minimizedRMSD>  (1) 
0.814690173

$$$$
