
     RDKit          3D

 39 41  0  0  1  0  0  0  0  0999 V2000
   48.7640   34.4740   41.8600 C   0  0  0  0  0  0  0  0  0  0  0  0
   47.6730   34.3120   42.8370 C   0  0  0  0  0  0  0  0  0  0  0  0
   46.6200   35.2000   42.6450 C   0  0  0  0  0  0  0  0  0  0  0  0
   45.5160   35.1420   43.5390 C   0  0  0  0  0  0  0  0  0  0  0  0
   45.5650   34.2100   44.5330 N   0  0  0  0  0  0  0  0  0  0  0  0
   46.6030   33.3720   44.6810 C   0  0  0  0  0  0  0  0  0  0  0  0
   47.6220   33.4340   43.8460 N   0  0  0  0  0  0  0  0  0  0  0  0
   50.1010   34.1180   42.4850 C   0  0  0  0  0  0  0  0  0  0  0  0
   48.9070   35.8380   41.3030 C   0  0  0  0  0  0  0  0  0  0  0  0
   48.4950   33.5060   40.7200 C   0  0  0  0  0  0  0  0  0  0  0  0
   47.8720   34.1450   39.5370 C   0  0  2  0  0  0  0  0  0  0  0  0
   46.8490   33.4940   38.7110 C   0  0  0  0  0  0  0  0  0  0  0  0
   48.2240   33.6770   38.1530 C   0  0  2  0  0  0  0  0  0  0  0  0
   49.1570   32.5660   38.0320 C   0  0  0  0  0  0  0  0  0  0  0  0
   49.8400   31.8810   39.0440 C   0  0  0  0  0  0  0  0  0  0  0  0
   50.7080   30.8390   38.8110 C   0  0  0  0  0  0  0  0  0  0  0  0
   50.9530   30.4070   37.5270 C   0  0  0  0  0  0  0  0  0  0  0  0
   50.3150   31.0370   36.4970 C   0  0  0  0  0  0  0  0  0  0  0  0
   49.4610   32.0650   36.7580 C   0  0  0  0  0  0  0  0  0  0  0  0
   46.6408   35.9293   41.8217 H   0  0  0  0  0  0  0  0  0  0  0  0
   44.6573   35.8213   43.4331 H   0  0  0  0  0  0  0  0  0  0  0  0
   46.6038   32.6347   45.4974 H   0  0  0  0  0  0  0  0  0  0  0  0
   50.0113   34.1419   43.5811 H   0  0  0  0  0  0  0  0  0  0  0  0
   50.3991   33.1092   42.1634 H   0  0  0  0  0  0  0  0  0  0  0  0
   50.8613   34.8450   42.1634 H   0  0  0  0  0  0  0  0  0  0  0  0
   48.9831   36.5640   42.1259 H   0  0  0  0  0  0  0  0  0  0  0  0
   49.8153   35.8882   40.6846 H   0  0  0  0  0  0  0  0  0  0  0  0
   48.0288   36.0755   40.6846 H   0  0  0  0  0  0  0  0  0  0  0  0
   49.4508   33.0579   40.4108 H   0  0  0  0  0  0  0  0  0  0  0  0
   47.7839   32.7548   41.0942 H   0  0  0  0  0  0  0  0  0  0  0  0
   47.9062   35.0969   40.0871 H   0  0  0  0  0  0  0  0  0  0  0  0
   46.4941   32.4862   38.9726 H   0  0  0  0  0  0  0  0  0  0  0  0
   45.8374   33.7676   38.3768 H   0  0  0  0  0  0  0  0  0  0  0  0
   48.6172   34.1171   37.2247 H   0  0  0  0  0  0  0  0  0  0  0  0
   49.6732   32.1937   40.0853 H   0  0  0  0  0  0  0  0  0  0  0  0
   51.2101   30.3473   39.6573 H   0  0  0  0  0  0  0  0  0  0  0  0
   51.6459   29.5745   37.3354 H   0  0  0  0  0  0  0  0  0  0  0  0
   50.4904   30.7151   35.4599 H   0  0  0  0  0  0  0  0  0  0  0  0
   48.9686   32.5422   35.8979 H   0  0  0  0  0  0  0  0  0  0  0  0
  1  8  1  0
  1  2  1  0
  2  7  1  0
  3  2  2  0
  3  4  1  0
  4  5  2  0
  5  6  1  0
  7  6  2  0
  9  1  1  0
 10  1  1  0
 11 10  1  0
 12 11  1  0
 13 12  1  0
 13 11  1  0
 14 13  1  0
 14 15  2  0
 16 15  1  0
 17 16  2  0
 18 19  2  0
 18 17  1  0
 19 14  1  0
  3 20  1  0
  4 21  1  0
  6 22  1  0
  8 23  1  0
  8 24  1  0
  8 25  1  0
  9 26  1  0
  9 27  1  0
  9 28  1  0
 10 29  1  0
 10 30  1  0
 11 31  1  6
 12 32  1  0
 12 33  1  0
 13 34  1  6
 15 35  1  0
 16 36  1  0
 17 37  1  0
 18 38  1  0
 19 39  1  0
M  ISO  8  20  14  21  14  22  14  23   8  24   8  25   8  26   8  27   8
M  ISO  8  28   8  29   8  30   8  31  13  32  13  33  13  34  13  35  14
M  ISO  4  36  14  37  14  38  14  39  14
M  END
>  <minimizedAffinity>  (1) 
-4.74552631

>  <minimizedRMSD>  (1) 
1.01854539

$$$$
