
     RDKit          3D

 36 37  0  0  1  0  0  0  0  0999 V2000
   48.8560   34.5660   41.9360 C   0  0  0  0  0  0  0  0  0  0  0  0
   47.7300   34.3640   42.8660 C   0  0  0  0  0  0  0  0  0  0  0  0
   46.6590   35.2250   42.6730 C   0  0  0  0  0  0  0  0  0  0  0  0
   45.5380   35.1020   43.5310 C   0  0  0  0  0  0  0  0  0  0  0  0
   45.5750   34.1460   44.4930 N   0  0  0  0  0  0  0  0  0  0  0  0
   46.6250   33.3290   44.6530 C   0  0  0  0  0  0  0  0  0  0  0  0
   47.6650   33.4570   43.8470 N   0  0  0  0  0  0  0  0  0  0  0  0
   50.1680   34.2020   42.5960 C   0  0  0  0  0  0  0  0  0  0  0  0
   48.9690   35.9560   41.4200 C   0  0  0  0  0  0  0  0  0  0  0  0
   48.6270   33.6470   40.7540 C   0  0  0  0  0  0  0  0  0  0  0  0
   47.9450   34.2830   39.5960 C   0  0  2  0  0  0  0  0  0  0  0  0
   47.0090   33.5370   38.7380 C   0  0  0  0  0  0  0  0  0  0  0  0
   48.4100   33.8710   38.2260 C   0  0  2  0  0  0  0  0  0  0  0  0
   49.2290   32.7080   38.0330 N   0  0  0  0  0  0  0  0  0  0  0  0
   49.6860   32.3790   36.7230 C   0  0  0  0  0  0  0  0  0  0  0  0
   49.0700   32.8220   35.6530 N   0  0  0  0  0  0  0  0  0  0  0  0
   50.8390   31.5540   36.4590 N   0  0  0  0  0  0  0  0  0  0  0  0
   48.2460   33.4120   35.7820 H   0  0  0  0  0  0  0  0  0  0  0  0
   46.6797   35.9824   41.8756 H   0  0  0  0  0  0  0  0  0  0  0  0
   44.6645   35.7614   43.4205 H   0  0  0  0  0  0  0  0  0  0  0  0
   46.6216   32.5635   45.4429 H   0  0  0  0  0  0  0  0  0  0  0  0
   50.0500   34.2347   43.6892 H   0  0  0  0  0  0  0  0  0  0  0  0
   50.4638   33.1879   42.2893 H   0  0  0  0  0  0  0  0  0  0  0  0
   50.9440   34.9188   42.2893 H   0  0  0  0  0  0  0  0  0  0  0  0
   49.0260   36.6574   42.2654 H   0  0  0  0  0  0  0  0  0  0  0  0
   49.8775   36.0466   40.8064 H   0  0  0  0  0  0  0  0  0  0  0  0
   48.0871   36.1922   40.8064 H   0  0  0  0  0  0  0  0  0  0  0  0
   49.6050   33.2757   40.4141 H   0  0  0  0  0  0  0  0  0  0  0  0
   47.9595   32.8471   41.1069 H   0  0  0  0  0  0  0  0  0  0  0  0
   47.8418   35.2257   40.1535 H   0  0  0  0  0  0  0  0  0  0  0  0
   46.7471   32.4974   38.9842 H   0  0  0  0  0  0  0  0  0  0  0  0
   45.9862   33.7083   38.3711 H   0  0  0  0  0  0  0  0  0  0  0  0
   48.8922   34.4265   37.4081 H   0  0  0  0  0  0  0  0  0  0  0  0
   49.4848   32.1151   38.8355 H   0  0  0  0  0  0  0  0  0  0  0  0
   51.1172   31.3534   35.4878 H   0  0  0  0  0  0  0  0  0  0  0  0
   51.3843   31.1654   37.2417 H   0  0  0  0  0  0  0  0  0  0  0  0
  1  8  1  0
  1  2  1  0
  2  7  1  0
  3  2  2  0
  3  4  1  0
  4  5  2  0
  5  6  1  0
  7  6  2  0
  9  1  1  0
 10  1  1  0
 11 10  1  0
 12 11  1  0
 13 12  1  0
 13 11  1  0
 14 13  1  0
 15 14  1  0
 16 18  1  0
 16 15  2  0
 17 15  1  0
  3 19  1  0
  4 20  1  0
  6 21  1  0
  8 22  1  0
  8 23  1  0
  8 24  1  0
  9 25  1  0
  9 26  1  0
  9 27  1  0
 10 28  1  0
 10 29  1  0
 11 30  1  1
 12 31  1  0
 12 32  1  0
 13 33  1  6
 14 34  1  0
 17 35  1  0
 17 36  1  0
M  ISO  8  19  14  20  14  21  14  22   8  23   8  24   8  25   8  26   8
M  ISO  7  27   8  28   8  29   8  30  13  31  13  32  13  33  13
M  END
>  <minimizedAffinity>  (1) 
-5.01495075

>  <minimizedRMSD>  (1) 
0.390550643

$$$$
