
     RDKit          3D

 43 46  0  0  1  0  0  0  0  0999 V2000
   45.7800   33.4870   41.6790 C   0  0  0  0  0  0  0  0  0  0  0  0
   45.9790   33.8560   40.2470 C   0  0  2  0  0  0  0  0  0  0  0  0
   45.4780   32.9940   39.1730 C   0  0  0  0  0  0  0  0  0  0  0  0
   46.9660   33.0440   39.4240 C   0  0  2  0  0  0  0  0  0  0  0  0
   47.6490   31.9660   40.0550 N   0  0  0  0  0  0  0  0  0  0  0  0
   47.2990   30.6890   39.9170 C   0  0  0  0  0  0  0  0  0  0  0  0
   48.1310   29.9110   40.6320 N   0  0  0  0  0  0  0  0  0  0  0  0
   49.0360   30.6770   41.2460 C   0  0  0  0  0  0  0  0  0  0  0  0
   50.1090   30.3910   42.0950 C   0  0  0  0  0  0  0  0  0  0  0  0
   50.3910   29.2200   42.4300 O   0  0  0  0  0  0  0  0  0  0  0  0
   50.8570   31.4170   42.5630 N   0  0  0  0  0  0  0  0  0  0  0  0
   50.5170   32.6600   42.1770 C   0  0  0  0  0  0  0  0  0  0  0  0
   51.2460   33.7850   42.6200 N   0  0  0  0  0  0  0  0  0  0  0  0
   49.4740   32.9650   41.3490 N   0  0  0  0  0  0  0  0  0  0  0  0
   48.7170   31.9680   40.8710 C   0  0  0  0  0  0  0  0  0  0  0  0
   45.9850   34.6220   42.6600 C   0  0  0  0  0  0  0  0  0  0  0  0
   46.0770   34.0250   44.0080 C   0  0  0  0  0  0  0  0  0  0  0  0
   45.1750   34.5710   44.9240 C   0  0  0  0  0  0  0  0  0  0  0  0
   45.1440   34.0940   46.2440 C   0  0  0  0  0  0  0  0  0  0  0  0
   46.0240   33.0960   46.5620 N   0  0  0  0  0  0  0  0  0  0  0  0
   46.8940   32.5770   45.6630 C   0  0  0  0  0  0  0  0  0  0  0  0
   46.8950   33.0520   44.4230 N   0  0  0  0  0  0  0  0  0  0  0  0
   47.2590   35.3530   42.3230 C   0  0  0  0  0  0  0  0  0  0  0  0
   44.8790   35.5750   42.4890 C   0  0  0  0  0  0  0  0  0  0  0  0
   46.4916   32.6861   41.9284 H   0  0  0  0  0  0  0  0  0  0  0  0
   44.7287   33.1784   41.7767 H   0  0  0  0  0  0  0  0  0  0  0  0
   45.8438   34.9200   40.4914 H   0  0  0  0  0  0  0  0  0  0  0  0
   45.0629   33.4450   38.2596 H   0  0  0  0  0  0  0  0  0  0  0  0
   44.7336   32.1859   39.1191 H   0  0  0  0  0  0  0  0  0  0  0  0
   47.8492   33.2399   38.7982 H   0  0  0  0  0  0  0  0  0  0  0  0
   46.4568   30.3252   39.3101 H   0  0  0  0  0  0  0  0  0  0  0  0
   51.6566   31.2524   43.1911 H   0  0  0  0  0  0  0  0  0  0  0  0
   50.9715   34.7295   42.3144 H   0  0  0  0  0  0  0  0  0  0  0  0
   52.0523   33.6612   43.2488 H   0  0  0  0  0  0  0  0  0  0  0  0
   44.4902   35.3732   44.6117 H   0  0  0  0  0  0  0  0  0  0  0  0
   44.4448   34.5036   46.9879 H   0  0  0  0  0  0  0  0  0  0  0  0
   47.5882   31.7753   45.9552 H   0  0  0  0  0  0  0  0  0  0  0  0
   47.7701   35.6463   43.2518 H   0  0  0  0  0  0  0  0  0  0  0  0
   47.9154   34.6941   41.7356 H   0  0  0  0  0  0  0  0  0  0  0  0
   47.0214   36.2522   41.7356 H   0  0  0  0  0  0  0  0  0  0  0  0
   44.5117   35.8915   43.4764 H   0  0  0  0  0  0  0  0  0  0  0  0
   45.2351   36.4537   41.9313 H   0  0  0  0  0  0  0  0  0  0  0  0
   44.0625   35.0929   41.9313 H   0  0  0  0  0  0  0  0  0  0  0  0
  1 16  1  0
  2  1  1  0
  3  4  1  0
  3  2  1  0
  4  5  1  0
  4  2  1  0
  5 15  1  0
  6  5  1  0
  6  7  2  0
  7  8  1  0
  8  9  1  0
  9 10  2  0
  9 11  1  0
 12 11  1  0
 12 13  1  0
 14 12  2  0
 15  8  2  0
 15 14  1  0
 16 17  1  0
 17 22  1  0
 17 18  2  0
 18 19  1  0
 19 20  2  0
 21 20  1  0
 22 21  2  0
 23 16  1  0
 24 16  1  0
  1 25  1  0
  1 26  1  0
  2 27  1  1
  3 28  1  0
  3 29  1  0
  4 30  1  6
  6 31  1  0
 11 32  1  0
 13 33  1  0
 13 34  1  0
 18 35  1  0
 19 36  1  0
 21 37  1  0
 23 38  1  0
 23 39  1  0
 23 40  1  0
 24 41  1  0
 24 42  1  0
 24 43  1  0
M  ISO  8  25   8  26   8  27  13  28  13  29  13  30  13  31  14  32   9
M  ISO  8  35  14  36  14  37  14  38   8  39   8  40   8  41   8  42   8
M  ISO  1  43   8
M  END
>  <minimizedAffinity>  (1) 
-4.87346363

>  <minimizedRMSD>  (1) 
4.78878212

$$$$
