
     RDKit          3D

 42 45  0  0  1  0  0  0  0  0999 V2000
   48.7620   33.1950   40.8650 C   0  0  0  0  0  0  0  0  0  0  0  0
   48.1550   33.4460   39.5210 C   0  0  2  0  0  0  0  0  0  0  0  0
   46.7050   33.2740   39.3540 C   0  0  0  0  0  0  0  0  0  0  0  0
   47.6620   32.2540   38.7360 C   0  0  1  0  0  0  0  0  0  0  0  0
   47.8440   32.2230   37.3100 N   0  0  0  0  0  0  0  0  0  0  0  0
   47.0320   32.6290   36.3310 C   0  0  0  0  0  0  0  0  0  0  0  0
   47.6090   32.4100   35.1140 N   0  0  0  0  0  0  0  0  0  0  0  0
   48.8090   31.8540   35.3340 C   0  0  0  0  0  0  0  0  0  0  0  0
   49.8530   31.4070   34.5440 C   0  0  0  0  0  0  0  0  0  0  0  0
   50.9940   30.8680   35.0380 N   0  0  0  0  0  0  0  0  0  0  0  0
   51.0960   30.7730   36.3640 C   0  0  0  0  0  0  0  0  0  0  0  0
   50.0970   31.2000   37.1560 N   0  0  0  0  0  0  0  0  0  0  0  0
   48.9500   31.7400   36.7020 C   0  0  0  0  0  0  0  0  0  0  0  0
   49.6990   31.5270   33.1560 N   0  0  0  0  0  0  0  0  0  0  0  0
   48.8590   34.4090   41.7560 C   0  0  0  0  0  0  0  0  0  0  0  0
   47.7270   34.3280   42.7140 C   0  0  0  0  0  0  0  0  0  0  0  0
   46.7060   35.2420   42.4470 C   0  0  0  0  0  0  0  0  0  0  0  0
   45.5710   35.2680   43.2770 C   0  0  0  0  0  0  0  0  0  0  0  0
   45.5330   34.3810   44.3170 N   0  0  0  0  0  0  0  0  0  0  0  0
   46.5440   33.5000   44.5550 C   0  0  0  0  0  0  0  0  0  0  0  0
   47.6030   33.4970   43.7540 N   0  0  0  0  0  0  0  0  0  0  0  0
   50.1760   34.4120   42.4900 C   0  0  0  0  0  0  0  0  0  0  0  0
   48.8340   35.6170   40.9070 C   0  0  0  0  0  0  0  0  0  0  0  0
   49.7777   32.8010   40.7128 H   0  0  0  0  0  0  0  0  0  0  0  0
   48.0928   32.4888   41.3783 H   0  0  0  0  0  0  0  0  0  0  0  0
   48.8525   34.2718   39.3173 H   0  0  0  0  0  0  0  0  0  0  0  0
   46.0830   32.9909   40.2160 H   0  0  0  0  0  0  0  0  0  0  0  0
   45.8888   33.9034   38.9696 H   0  0  0  0  0  0  0  0  0  0  0  0
   47.7934   31.1631   38.7875 H   0  0  0  0  0  0  0  0  0  0  0  0
   46.0388   33.0765   36.4838 H   0  0  0  0  0  0  0  0  0  0  0  0
   52.0033   30.3425   36.8129 H   0  0  0  0  0  0  0  0  0  0  0  0
   48.8369   31.9348   32.7668 H   0  0  0  0  0  0  0  0  0  0  0  0
   50.4479   31.2074   32.5252 H   0  0  0  0  0  0  0  0  0  0  0  0
   46.7884   35.9345   41.5964 H   0  0  0  0  0  0  0  0  0  0  0  0
   44.7467   35.9737   43.0968 H   0  0  0  0  0  0  0  0  0  0  0  0
   46.4840   32.7992   45.4008 H   0  0  0  0  0  0  0  0  0  0  0  0
   49.9914   34.4116   43.5744 H   0  0  0  0  0  0  0  0  0  0  0  0
   50.7508   33.5152   42.2156 H   0  0  0  0  0  0  0  0  0  0  0  0
   50.7467   35.3114   42.2156 H   0  0  0  0  0  0  0  0  0  0  0  0
   48.8155   36.5131   41.5448 H   0  0  0  0  0  0  0  0  0  0  0  0
   49.7319   35.6375   40.2719 H   0  0  0  0  0  0  0  0  0  0  0  0
   47.9360   35.6003   40.2719 H   0  0  0  0  0  0  0  0  0  0  0  0
  1 15  1  0
  2  1  1  0
  3  2  1  0
  4  3  1  0
  4  2  1  0
  5  4  1  0
  6  5  1  0
  7  8  1  0
  7  6  2  0
  8 13  2  0
  9 10  2  0
  9  8  1  0
 10 11  1  0
 11 12  2  0
 13 12  1  0
 13  5  1  0
 14  9  1  0
 15 22  1  0
 15 16  1  0
 16 21  1  0
 17 16  2  0
 17 18  1  0
 18 19  2  0
 19 20  1  0
 21 20  2  0
 23 15  1  0
  1 24  1  0
  1 25  1  0
  2 26  1  6
  3 27  1  0
  3 28  1  0
  4 29  1  1
  6 30  1  0
 11 31  1  0
 14 32  1  0
 14 33  1  0
 17 34  1  0
 18 35  1  0
 20 36  1  0
 22 37  1  0
 22 38  1  0
 22 39  1  0
 23 40  1  0
 23 41  1  0
 23 42  1  0
M  ISO  8  24   8  25   8  26  13  27  13  28  13  29  13  30  14  31  14
M  ISO  8  34  14  35  14  36  14  37   8  38   8  39   8  40   8  41   8
M  ISO  1  42   8
M  END
>  <minimizedAffinity>  (1) 
-5.16406059

>  <minimizedRMSD>  (1) 
4.34987593

$$$$
