
     RDKit          3D

 36 38  0  0  1  0  0  0  0  0999 V2000
   46.7480   33.2430   42.6320 C   0  0  0  0  0  0  0  0  0  0  0  0
   45.5250   34.0000   42.3050 C   0  0  0  0  0  0  0  0  0  0  0  0
   44.5000   33.2120   41.7970 C   0  0  0  0  0  0  0  0  0  0  0  0
   43.2780   33.8340   41.4380 C   0  0  0  0  0  0  0  0  0  0  0  0
   43.1910   35.1850   41.6180 N   0  0  0  0  0  0  0  0  0  0  0  0
   44.2010   35.9150   42.1120 C   0  0  0  0  0  0  0  0  0  0  0  0
   45.3330   35.3160   42.4400 N   0  0  0  0  0  0  0  0  0  0  0  0
   47.8980   33.6930   41.7510 C   0  0  0  0  0  0  0  0  0  0  0  0
   46.6300   31.7770   42.4540 C   0  0  0  0  0  0  0  0  0  0  0  0
   47.0860   33.5360   44.0740 C   0  0  0  0  0  0  0  0  0  0  0  0
   46.0220   33.0810   45.0310 C   0  0  2  0  0  0  0  0  0  0  0  0
   45.3410   34.0230   45.9330 C   0  0  0  0  0  0  0  0  0  0  0  0
   46.4210   33.1110   46.4930 C   0  0  1  0  0  0  0  0  0  0  0  0
   45.9120   32.1240   47.4460 C   0  0  0  0  0  0  0  0  0  0  0  0
   45.8330   32.2900   48.8150 C   0  0  0  0  0  0  0  0  0  0  0  0
   45.3050   31.1580   49.3820 C   0  0  0  0  0  0  0  0  0  0  0  0
   45.0780   30.3200   48.2830 C   0  0  0  0  0  0  0  0  0  0  0  0
   45.4440   30.9240   47.2020 O   0  0  0  0  0  0  0  0  0  0  0  0
   44.6340   32.1269   41.6758 H   0  0  0  0  0  0  0  0  0  0  0  0
   42.4363   33.2538   41.0320 H   0  0  0  0  0  0  0  0  0  0  0  0
   44.0890   37.0014   42.2431 H   0  0  0  0  0  0  0  0  0  0  0  0
   48.7369   34.0213   42.3823 H   0  0  0  0  0  0  0  0  0  0  0  0
   48.2228   32.8556   41.1159 H   0  0  0  0  0  0  0  0  0  0  0  0
   47.5682   34.5284   41.1159 H   0  0  0  0  0  0  0  0  0  0  0  0
   46.5908   31.2900   43.4395 H   0  0  0  0  0  0  0  0  0  0  0  0
   45.7105   31.5483   41.8952 H   0  0  0  0  0  0  0  0  0  0  0  0
   47.5010   31.4042   41.8952 H   0  0  0  0  0  0  0  0  0  0  0  0
   48.0258   33.0224   44.3249 H   0  0  0  0  0  0  0  0  0  0  0  0
   47.1744   34.6277   44.1756 H   0  0  0  0  0  0  0  0  0  0  0  0
   45.6330   32.3448   44.3122 H   0  0  0  0  0  0  0  0  0  0  0  0
   45.5296   35.1028   45.8410 H   0  0  0  0  0  0  0  0  0  0  0  0
   44.2906   34.2249   46.1896 H   0  0  0  0  0  0  0  0  0  0  0  0
   47.3966   33.1807   46.9963 H   0  0  0  0  0  0  0  0  0  0  0  0
   46.1450   33.1901   49.3651 H   0  0  0  0  0  0  0  0  0  0  0  0
   45.1072   30.9566   50.4452 H   0  0  0  0  0  0  0  0  0  0  0  0
   44.6543   29.3061   48.3329 H   0  0  0  0  0  0  0  0  0  0  0  0
  1 10  1  0
  2  7  1  0
  2  1  1  0
  3  2  2  0
  4  5  2  0
  4  3  1  0
  5  6  1  0
  6  7  2  0
  8  1  1  0
  9  1  1  0
 10 11  1  0
 11 12  1  0
 11 13  1  0
 12 13  1  0
 13 14  1  0
 14 15  2  0
 15 16  1  0
 17 16  2  0
 18 14  1  0
 18 17  1  0
  3 19  1  0
  4 20  1  0
  6 21  1  0
  8 22  1  0
  8 23  1  0
  8 24  1  0
  9 25  1  0
  9 26  1  0
  9 27  1  0
 10 28  1  0
 10 29  1  0
 11 30  1  6
 12 31  1  0
 12 32  1  0
 13 33  1  6
 15 34  1  0
 16 35  1  0
 17 36  1  0
M  ISO  8  19  14  20  14  21  14  22   8  23   8  24   8  25   8  26   8
M  ISO  8  27   8  28   8  29   8  30  13  31  13  32  13  33  13  34  14
M  ISO  2  35  14  36  14
M  END
>  <minimizedAffinity>  (1) 
-4.60096741

>  <minimizedRMSD>  (1) 
8.04773712

$$$$
