
     RDKit          3D

 36 38  0  0  1  0  0  0  0  0999 V2000
   48.5020   34.5850   41.7590 C   0  0  0  0  0  0  0  0  0  0  0  0
   47.4220   34.4960   42.7580 C   0  0  0  0  0  0  0  0  0  0  0  0
   46.3770   35.3860   42.5290 C   0  0  0  0  0  0  0  0  0  0  0  0
   45.2800   35.4040   43.4250 C   0  0  0  0  0  0  0  0  0  0  0  0
   45.3240   34.5280   44.4730 N   0  0  0  0  0  0  0  0  0  0  0  0
   46.3510   33.6830   44.6590 C   0  0  0  0  0  0  0  0  0  0  0  0
   47.3650   33.6810   43.8140 N   0  0  0  0  0  0  0  0  0  0  0  0
   49.0230   36.0070   41.6700 C   0  0  0  0  0  0  0  0  0  0  0  0
   48.1070   34.1930   40.3840 C   0  0  0  0  0  0  0  0  0  0  0  0
   49.6130   33.6710   42.2140 C   0  0  0  0  0  0  0  0  0  0  0  0
   49.9240   32.5770   41.2470 C   0  0  2  0  0  0  0  0  0  0  0  0
   50.1360   31.1880   41.6840 C   0  0  0  0  0  0  0  0  0  0  0  0
   51.3390   32.0390   41.3060 C   0  0  1  0  0  0  0  0  0  0  0  0
   52.0360   31.5440   40.1250 C   0  0  0  0  0  0  0  0  0  0  0  0
   53.3150   30.9760   40.1070 C   0  0  0  0  0  0  0  0  0  0  0  0
   53.6130   30.6390   38.8140 C   0  0  0  0  0  0  0  0  0  0  0  0
   52.5400   30.9980   38.0910 N   0  0  0  0  0  0  0  0  0  0  0  0
   51.6150   31.5300   38.8680 N   0  0  0  0  0  0  0  0  0  0  0  0
   46.4025   36.0658   41.6646 H   0  0  0  0  0  0  0  0  0  0  0  0
   44.4325   36.0909   43.2839 H   0  0  0  0  0  0  0  0  0  0  0  0
   46.3472   32.9926   45.5154 H   0  0  0  0  0  0  0  0  0  0  0  0
   49.1699   36.4078   42.6838 H   0  0  0  0  0  0  0  0  0  0  0  0
   49.9818   36.0131   41.1308 H   0  0  0  0  0  0  0  0  0  0  0  0
   48.2951   36.6311   41.1308 H   0  0  0  0  0  0  0  0  0  0  0  0
   47.3270   33.4189   40.4332 H   0  0  0  0  0  0  0  0  0  0  0  0
   47.7179   35.0722   39.8496 H   0  0  0  0  0  0  0  0  0  0  0  0
   48.9832   33.7972   39.8496 H   0  0  0  0  0  0  0  0  0  0  0  0
   50.5212   34.2742   42.3598 H   0  0  0  0  0  0  0  0  0  0  0  0
   49.2740   33.1913   43.1440 H   0  0  0  0  0  0  0  0  0  0  0  0
   49.2549   33.0126   40.4903 H   0  0  0  0  0  0  0  0  0  0  0  0
   49.9683   30.9130   42.7358 H   0  0  0  0  0  0  0  0  0  0  0  0
   49.7500   30.2092   41.3632 H   0  0  0  0  0  0  0  0  0  0  0  0
   52.2614   32.4413   41.7503 H   0  0  0  0  0  0  0  0  0  0  0  0
   53.9673   30.8264   40.9800 H   0  0  0  0  0  0  0  0  0  0  0  0
   54.5379   30.1719   38.4447 H   0  0  0  0  0  0  0  0  0  0  0  0
   52.4511   30.8754   37.0722 H   0  0  0  0  0  0  0  0  0  0  0  0
  1 10  1  0
  1  2  1  0
  2  7  1  0
  3  2  2  0
  3  4  1  0
  4  5  2  0
  5  6  1  0
  7  6  2  0
  8  1  1  0
  9  1  1  0
 11 13  1  0
 11 12  1  0
 11 10  1  0
 13 12  1  0
 14 13  1  0
 15 14  1  0
 16 15  2  0
 17 16  1  0
 17 18  1  0
 18 14  2  0
  3 19  1  0
  4 20  1  0
  6 21  1  0
  8 22  1  0
  8 23  1  0
  8 24  1  0
  9 25  1  0
  9 26  1  0
  9 27  1  0
 10 28  1  0
 10 29  1  0
 11 30  1  6
 12 31  1  0
 12 32  1  0
 13 33  1  1
 15 34  1  0
 16 35  1  0
 17 36  1  0
M  ISO  8  19  14  20  14  21  14  22   8  23   8  24   8  25   8  26   8
M  ISO  8  27   8  28   8  29   8  30  13  31  13  32  13  33  13  34  14
M  ISO  2  35  14  36   9
M  END
>  <minimizedAffinity>  (1) 
-4.72516108

>  <minimizedRMSD>  (1) 
4.39519787

$$$$
