
     RDKit          3D

 41 45  0  0  1  0  0  0  0  0999 V2000
   44.5100   35.9700   44.8620 C   0  0  0  0  0  0  0  0  0  0  0  0
   45.0910   35.9960   43.5690 C   0  0  0  0  0  0  0  0  0  0  0  0
   45.9250   34.9520   43.2300 C   0  0  0  0  0  0  0  0  0  0  0  0
   46.1450   33.9610   44.1410 N   0  0  0  0  0  0  0  0  0  0  0  0
   45.5740   33.9740   45.3550 C   0  0  0  0  0  0  0  0  0  0  0  0
   44.7630   34.9690   45.7150 N   0  0  0  0  0  0  0  0  0  0  0  0
   45.8440   32.8920   46.2990 N   0  0  0  0  0  0  0  0  0  0  0  0
   45.2230   32.8960   47.6080 C   0  0  0  0  0  0  0  0  0  0  0  0
   46.1220   32.3400   48.6720 C   0  0  0  0  0  0  0  0  0  0  0  0
   47.5360   32.2910   48.1790 C   0  0  0  0  0  0  0  0  0  0  0  0
   47.5530   31.2900   47.0230 C   0  0  0  0  0  0  0  0  0  0  0  0
   46.7410   31.8230   45.8990 C   0  0  1  0  0  0  0  0  0  0  0  0
   46.0200   30.7640   45.1350 C   0  0  0  0  0  0  0  0  0  0  0  0
   46.0690   30.4800   43.8340 N   0  0  0  0  0  0  0  0  0  0  0  0
   45.3140   29.4830   43.5200 O   0  0  0  0  0  0  0  0  0  0  0  0
   44.7320   29.0740   44.6360 C   0  0  0  0  0  0  0  0  0  0  0  0
   45.1470   29.8470   45.6600 N   0  0  0  0  0  0  0  0  0  0  0  0
   43.8020   27.9720   44.7320 N   0  0  0  0  0  0  0  0  0  0  0  0
   42.9820   27.5840   43.7370 C   0  0  0  0  0  0  0  0  0  0  0  0
   42.2570   26.5290   44.1770 N   0  0  0  0  0  0  0  0  0  0  0  0
   42.6490   26.2850   45.4460 C   0  0  0  0  0  0  0  0  0  0  0  0
   42.2590   25.3390   46.3840 C   0  0  0  0  0  0  0  0  0  0  0  0
   42.8260   25.3140   47.6140 N   0  0  0  0  0  0  0  0  0  0  0  0
   43.7720   26.2310   47.8950 C   0  0  0  0  0  0  0  0  0  0  0  0
   44.2170   27.1940   47.0390 N   0  0  0  0  0  0  0  0  0  0  0  0
   43.6390   27.2000   45.8210 C   0  0  0  0  0  0  0  0  0  0  0  0
   43.8398   36.7861   45.1699 H   0  0  0  0  0  0  0  0  0  0  0  0
   44.8847   36.8157   42.8651 H   0  0  0  0  0  0  0  0  0  0  0  0
   46.4052   34.9187   42.2409 H   0  0  0  0  0  0  0  0  0  0  0  0
   44.9628   33.9317   47.8718 H   0  0  0  0  0  0  0  0  0  0  0  0
   44.3303   32.2553   47.5564 H   0  0  0  0  0  0  0  0  0  0  0  0
   46.0699   32.9817   49.5639 H   0  0  0  0  0  0  0  0  0  0  0  0
   45.7935   31.3208   48.9238 H   0  0  0  0  0  0  0  0  0  0  0  0
   47.8514   33.2844   47.8273 H   0  0  0  0  0  0  0  0  0  0  0  0
   48.2282   31.9896   48.9791 H   0  0  0  0  0  0  0  0  0  0  0  0
   48.5888   31.1349   46.6866 H   0  0  0  0  0  0  0  0  0  0  0  0
   47.1312   30.3315   47.3598 H   0  0  0  0  0  0  0  0  0  0  0  0
   47.4763   32.2636   45.2097 H   0  0  0  0  0  0  0  0  0  0  0  0
   42.9132   28.0442   42.7402 H   0  0  0  0  0  0  0  0  0  0  0  0
   41.4829   24.6033   46.1263 H   0  0  0  0  0  0  0  0  0  0  0  0
   44.2226   26.2001   48.8980 H   0  0  0  0  0  0  0  0  0  0  0  0
  1  6  2  0
  2  1  1  0
  3  2  2  0
  3  4  1  0
  4  5  2  0
  5  6  1  0
  5  7  1  0
  7  8  1  0
  8  9  1  0
 10  9  1  0
 11 10  1  0
 12  7  1  0
 12 11  1  0
 13 17  1  0
 13 12  1  0
 14 13  2  0
 15 14  1  0
 15 16  1  0
 16 18  1  0
 16 17  2  0
 18 26  1  0
 19 20  2  0
 19 18  1  0
 20 21  1  0
 21 26  2  0
 21 22  1  0
 22 23  2  0
 23 24  1  0
 25 24  2  0
 26 25  1  0
  1 27  1  0
  2 28  1  0
  3 29  1  0
  8 30  1  0
  8 31  1  0
  9 32  1  0
  9 33  1  0
 10 34  1  0
 10 35  1  0
 11 36  1  0
 11 37  1  0
 12 38  1  6
 19 39  1  0
 22 40  1  0
 24 41  1  0
M  ISO  8  27  14  28  14  29  14  30  13  31  13  32  13  33  13  34  13
M  ISO  7  35  13  36  13  37  13  38  13  39  14  40  14  41  14
M  END
>  <minimizedAffinity>  (1) 
-6.22338057

>  <minimizedRMSD>  (1) 
0.34225288

$$$$
