
     RDKit          3D

 35 37  0  0  1  0  0  0  0  0999 V2000
   48.7670   34.4480   41.8300 C   0  0  0  0  0  0  0  0  0  0  0  0
   47.6320   34.3950   42.7680 C   0  0  0  0  0  0  0  0  0  0  0  0
   46.6310   35.3140   42.4850 C   0  0  0  0  0  0  0  0  0  0  0  0
   45.4890   35.3620   43.3240 C   0  0  0  0  0  0  0  0  0  0  0  0
   45.4480   34.4880   44.3690 N   0  0  0  0  0  0  0  0  0  0  0  0
   46.4370   33.6120   44.6090 C   0  0  0  0  0  0  0  0  0  0  0  0
   47.4950   33.5800   43.8200 N   0  0  0  0  0  0  0  0  0  0  0  0
   50.0840   34.3710   42.5780 C   0  0  0  0  0  0  0  0  0  0  0  0
   48.8210   35.6720   40.9960 C   0  0  0  0  0  0  0  0  0  0  0  0
   48.6550   33.2380   40.9290 C   0  0  0  0  0  0  0  0  0  0  0  0
   48.0450   33.5520   39.5950 C   0  0  2  0  0  0  0  0  0  0  0  0
   46.6070   33.3830   39.3430 C   0  0  0  0  0  0  0  0  0  0  0  0
   47.5820   32.3710   38.7790 C   0  0  1  0  0  0  0  0  0  0  0  0
   47.6850   32.3730   37.3150 C   0  0  0  0  0  0  0  0  0  0  0  0
   48.9410   32.7430   36.7050 C   0  0  0  0  0  0  0  0  0  0  0  0
   48.5920   32.6090   34.9410 S   0  0  0  0  0  0  0  0  0  0  0  0
   46.8060   32.0750   35.2820 C   0  0  0  0  0  0  0  0  0  0  0  0
   46.7480   32.0750   36.4240 N   0  0  0  0  0  0  0  0  0  0  0  0
   46.7221   35.9933   41.6247 H   0  0  0  0  0  0  0  0  0  0  0  0
   44.6712   36.0741   43.1394 H   0  0  0  0  0  0  0  0  0  0  0  0
   46.3657   32.9216   45.4624 H   0  0  0  0  0  0  0  0  0  0  0  0
   49.8918   34.3822   43.6610 H   0  0  0  0  0  0  0  0  0  0  0  0
   50.6053   33.4408   42.3078 H   0  0  0  0  0  0  0  0  0  0  0  0
   50.7102   35.2341   42.3078 H   0  0  0  0  0  0  0  0  0  0  0  0
   48.8601   36.5578   41.6470 H   0  0  0  0  0  0  0  0  0  0  0  0
   49.7188   35.6437   40.3610 H   0  0  0  0  0  0  0  0  0  0  0  0
   47.9242   35.7229   40.3610 H   0  0  0  0  0  0  0  0  0  0  0  0
   49.6629   32.8288   40.7655 H   0  0  0  0  0  0  0  0  0  0  0  0
   47.9936   32.5160   41.4303 H   0  0  0  0  0  0  0  0  0  0  0  0
   48.7235   34.4070   39.4585 H   0  0  0  0  0  0  0  0  0  0  0  0
   45.9361   33.0976   40.1667 H   0  0  0  0  0  0  0  0  0  0  0  0
   45.8167   34.0175   38.9154 H   0  0  0  0  0  0  0  0  0  0  0  0
   47.7803   31.2908   38.8415 H   0  0  0  0  0  0  0  0  0  0  0  0
   49.8807   33.0351   37.1965 H   0  0  0  0  0  0  0  0  0  0  0  0
   46.0168   31.8256   34.5574 H   0  0  0  0  0  0  0  0  0  0  0  0
  1  8  1  0
  1  2  1  0
  2  7  1  0
  3  2  2  0
  3  4  1  0
  4  5  2  0
  5  6  1  0
  7  6  2  0
  9  1  1  0
 10  1  1  0
 11 10  1  0
 12 11  1  0
 13 12  1  0
 13 11  1  0
 14 13  1  0
 15 14  2  0
 16 17  1  0
 16 15  1  0
 17 18  2  0
 18 14  1  0
  3 19  1  0
  4 20  1  0
  6 21  1  0
  8 22  1  0
  8 23  1  0
  8 24  1  0
  9 25  1  0
  9 26  1  0
  9 27  1  0
 10 28  1  0
 10 29  1  0
 11 30  1  6
 12 31  1  0
 12 32  1  0
 13 33  1  1
 15 34  1  0
 17 35  1  0
M  ISO  8  19  14  20  14  21  14  22   8  23   8  24   8  25   8  26   8
M  ISO  8  27   8  28   8  29   8  30  13  31  13  32  13  33  13  34  14
M  ISO  1  35  14
M  END
>  <minimizedAffinity>  (1) 
-4.58939552

>  <minimizedRMSD>  (1) 
2.29015946

$$$$
