
     RDKit          3D

 39 42  0  0  1  0  0  0  0  0999 V2000
   44.6450   35.6310   44.8790 C   0  0  0  0  0  0  0  0  0  0  0  0
   45.0760   35.4590   43.5400 C   0  0  0  0  0  0  0  0  0  0  0  0
   45.7630   34.2910   43.2400 C   0  0  0  0  0  0  0  0  0  0  0  0
   45.9850   33.3780   44.2370 N   0  0  0  0  0  0  0  0  0  0  0  0
   45.5540   33.5920   45.4890 C   0  0  0  0  0  0  0  0  0  0  0  0
   44.8920   34.7060   45.8030 N   0  0  0  0  0  0  0  0  0  0  0  0
   45.8150   32.5970   46.5260 N   0  0  0  0  0  0  0  0  0  0  0  0
   45.3500   32.8290   47.8730 C   0  0  0  0  0  0  0  0  0  0  0  0
   46.2930   32.2790   48.9120 C   0  0  0  0  0  0  0  0  0  0  0  0
   47.6250   32.0150   48.2890 C   0  0  0  0  0  0  0  0  0  0  0  0
   47.4210   30.9010   47.2670 C   0  0  0  0  0  0  0  0  0  0  0  0
   46.5450   31.3920   46.1710 C   0  0  1  0  0  0  0  0  0  0  0  0
   45.6310   30.3390   45.6260 C   0  0  0  0  0  0  0  0  0  0  0  0
   45.4710   29.9660   44.3510 N   0  0  0  0  0  0  0  0  0  0  0  0
   44.6000   29.0110   44.2390 O   0  0  0  0  0  0  0  0  0  0  0  0
   44.1720   28.7400   45.4590 C   0  0  0  0  0  0  0  0  0  0  0  0
   44.7870   29.5450   46.3640 N   0  0  0  0  0  0  0  0  0  0  0  0
   43.1710   27.7210   45.8390 C   0  0  0  0  0  0  0  0  0  0  0  0
   41.8610   27.7770   45.3500 C   0  0  0  0  0  0  0  0  0  0  0  0
   41.0380   26.7600   45.7880 C   0  0  0  0  0  0  0  0  0  0  0  0
   41.4220   25.7450   46.6410 C   0  0  0  0  0  0  0  0  0  0  0  0
   42.7420   25.7460   47.0940 C   0  0  0  0  0  0  0  0  0  0  0  0
   43.5570   26.7350   46.6710 N   0  0  0  0  0  0  0  0  0  0  0  0
   44.0978   36.5433   45.1588 H   0  0  0  0  0  0  0  0  0  0  0  0
   44.8745   36.2192   42.7709 H   0  0  0  0  0  0  0  0  0  0  0  0
   46.1234   34.1014   42.2182 H   0  0  0  0  0  0  0  0  0  0  0  0
   45.2469   33.9130   48.0288 H   0  0  0  0  0  0  0  0  0  0  0  0
   44.3868   32.3104   47.9880 H   0  0  0  0  0  0  0  0  0  0  0  0
   46.4078   33.0099   49.7260 H   0  0  0  0  0  0  0  0  0  0  0  0
   45.8855   31.3403   49.3154 H   0  0  0  0  0  0  0  0  0  0  0  0
   47.9965   32.9226   47.7907 H   0  0  0  0  0  0  0  0  0  0  0  0
   48.3649   31.7228   49.0487 H   0  0  0  0  0  0  0  0  0  0  0  0
   48.3945   30.6005   46.8523 H   0  0  0  0  0  0  0  0  0  0  0  0
   46.9491   30.0357   47.7554 H   0  0  0  0  0  0  0  0  0  0  0  0
   47.2348   31.6611   45.3575 H   0  0  0  0  0  0  0  0  0  0  0  0
   41.5148   28.5693   44.6701 H   0  0  0  0  0  0  0  0  0  0  0  0
   39.9977   26.7579   45.4306 H   0  0  0  0  0  0  0  0  0  0  0  0
   40.7132   24.9636   46.9525 H   0  0  0  0  0  0  0  0  0  0  0  0
   43.1073   24.9638   47.7757 H   0  0  0  0  0  0  0  0  0  0  0  0
  1  6  2  0
  2  1  1  0
  3  2  2  0
  3  4  1  0
  4  5  2  0
  5  6  1  0
  5  7  1  0
  7  8  1  0
  8  9  1  0
 10  9  1  0
 11 10  1  0
 12  7  1  0
 12 11  1  0
 13 12  1  0
 13 17  1  0
 14 13  2  0
 15 14  1  0
 15 16  1  0
 16 18  1  0
 16 17  2  0
 18 23  2  0
 19 20  2  0
 19 18  1  0
 20 21  1  0
 21 22  2  0
 23 22  1  0
  1 24  1  0
  2 25  1  0
  3 26  1  0
  8 27  1  0
  8 28  1  0
  9 29  1  0
  9 30  1  0
 10 31  1  0
 10 32  1  0
 11 33  1  0
 11 34  1  0
 12 35  1  6
 19 36  1  0
 20 37  1  0
 21 38  1  0
 22 39  1  0
M  ISO  8  24  14  25  14  26  14  27  13  28  13  29  13  30  13  31  13
M  ISO  8  32  13  33  13  34  13  35  13  36  14  37  14  38  14  39  14
M  END
>  <minimizedAffinity>  (1) 
-6.07069921

>  <minimizedRMSD>  (1) 
0.994927466

$$$$
