
     RDKit          3D

 50 54  0  0  1  0  0  0  0  0999 V2000
   46.7070   33.1300   44.1910 C   0  0  2  0  0  0  0  0  0  0  0  0
   45.2480   32.8590   44.1920 C   0  0  0  0  0  0  0  0  0  0  0  0
   45.9490   33.4130   45.4130 C   0  0  1  0  0  0  0  0  0  0  0  0
   45.8490   32.6170   46.5830 N   0  0  0  0  0  0  0  0  0  0  0  0
   45.1310   32.8940   47.6960 N   0  0  0  0  0  0  0  0  0  0  0  0
   45.2690   31.8520   48.5630 C   0  0  0  0  0  0  0  0  0  0  0  0
   46.0740   30.9770   47.9290 C   0  0  0  0  0  0  0  0  0  0  0  0
   46.4530   31.4710   46.6540 C   0  0  0  0  0  0  0  0  0  0  0  0
   47.3530   30.5400   45.9950 C   0  0  0  0  0  0  0  0  0  0  0  0
   47.3360   29.8120   44.8300 C   0  0  0  0  0  0  0  0  0  0  0  0
   48.2160   28.8600   44.5980 N   0  0  0  0  0  0  0  0  0  0  0  0
   48.9670   28.8850   45.7050 C   0  0  0  0  0  0  0  0  0  0  0  0
   50.0300   28.0690   46.0080 C   0  0  0  0  0  0  0  0  0  0  0  0
   50.6700   28.2070   47.2100 C   0  0  0  0  0  0  0  0  0  0  0  0
   50.2330   29.1660   48.0980 C   0  0  0  0  0  0  0  0  0  0  0  0
   49.1730   29.9310   47.7160 C   0  0  0  0  0  0  0  0  0  0  0  0
   48.4680   29.8630   46.5240 C   0  0  0  0  0  0  0  0  0  0  0  0
   47.2690   34.3590   43.4930 C   0  0  0  0  0  0  0  0  0  0  0  0
   47.4420   34.0830   42.0020 C   0  0  0  0  0  0  0  0  0  0  0  0
   46.1110   34.2360   41.3970 C   0  0  0  0  0  0  0  0  0  0  0  0
   45.8820   33.3150   40.3710 C   0  0  0  0  0  0  0  0  0  0  0  0
   44.6290   33.3640   39.7060 C   0  0  0  0  0  0  0  0  0  0  0  0
   43.7330   34.3110   40.1170 N   0  0  0  0  0  0  0  0  0  0  0  0
   43.9990   35.1830   41.1170 C   0  0  0  0  0  0  0  0  0  0  0  0
   45.1650   35.1350   41.7340 N   0  0  0  0  0  0  0  0  0  0  0  0
   48.3930   35.1280   41.4330 C   0  0  0  0  0  0  0  0  0  0  0  0
   48.0810   32.7720   41.8080 C   0  0  0  0  0  0  0  0  0  0  0  0
   47.5675   32.5072   43.9052 H   0  0  0  0  0  0  0  0  0  0  0  0
   44.5660   33.4950   43.6085 H   0  0  0  0  0  0  0  0  0  0  0  0
   44.6098   31.9888   43.9790 H   0  0  0  0  0  0  0  0  0  0  0  0
   45.9622   34.3021   46.0606 H   0  0  0  0  0  0  0  0  0  0  0  0
   44.8211   31.7478   49.5623 H   0  0  0  0  0  0  0  0  0  0  0  0
   46.3942   30.0099   48.3440 H   0  0  0  0  0  0  0  0  0  0  0  0
   46.5686   30.0296   44.0725 H   0  0  0  0  0  0  0  0  0  0  0  0
   48.3039   28.2501   43.7726 H   0  0  0  0  0  0  0  0  0  0  0  0
   50.3652   27.3081   45.2878 H   0  0  0  0  0  0  0  0  0  0  0  0
   51.5228   27.5603   47.4641 H   0  0  0  0  0  0  0  0  0  0  0  0
   50.7198   29.3076   49.0742 H   0  0  0  0  0  0  0  0  0  0  0  0
   48.8372   30.6911   48.4368 H   0  0  0  0  0  0  0  0  0  0  0  0
   46.5765   35.2028   43.6287 H   0  0  0  0  0  0  0  0  0  0  0  0
   48.2485   34.6042   43.9295 H   0  0  0  0  0  0  0  0  0  0  0  0
   46.6471   32.5770   40.0884 H   0  0  0  0  0  0  0  0  0  0  0  0
   44.3880   32.6662   38.8906 H   0  0  0  0  0  0  0  0  0  0  0  0
   43.2469   35.9286   41.4144 H   0  0  0  0  0  0  0  0  0  0  0  0
   48.8827   35.6661   42.2580 H   0  0  0  0  0  0  0  0  0  0  0  0
   49.1558   34.6318   40.8150 H   0  0  0  0  0  0  0  0  0  0  0  0
   47.8273   35.8408   40.8150 H   0  0  0  0  0  0  0  0  0  0  0  0
   48.3002   32.3224   42.7877 H   0  0  0  0  0  0  0  0  0  0  0  0
   47.4029   32.1132   41.2456 H   0  0  0  0  0  0  0  0  0  0  0  0
   49.0176   32.9003   41.2456 H   0  0  0  0  0  0  0  0  0  0  0  0
  1  2  1  0
  1  3  1  0
  2  3  1  0
  3  4  1  0
  4  8  1  0
  4  5  1  0
  5  6  2  0
  7  6  1  0
  8  7  2  0
  9 17  1  0
  9  8  1  0
 10  9  2  0
 11 10  1  0
 11 12  1  0
 12 13  2  0
 12 17  1  0
 13 14  1  0
 14 15  2  0
 16 15  1  0
 17 16  2  0
 18  1  1  0
 19 18  1  0
 20 25  1  0
 20 19  1  0
 21 20  2  0
 22 23  2  0
 22 21  1  0
 23 24  1  0
 24 25  2  0
 26 19  1  0
 27 19  1  0
  1 28  1  1
  2 29  1  0
  2 30  1  0
  3 31  1  1
  6 32  1  0
  7 33  1  0
 10 34  1  0
 11 35  1  0
 13 36  1  0
 14 37  1  0
 15 38  1  0
 16 39  1  0
 18 40  1  0
 18 41  1  0
 21 42  1  0
 22 43  1  0
 24 44  1  0
 26 45  1  0
 26 46  1  0
 26 47  1  0
 27 48  1  0
 27 49  1  0
 27 50  1  0
M  ISO  8  28  13  29  13  30  13  31  13  32  14  33  14  34  14  35   9
M  ISO  8  36  14  37  14  38  14  39  14  40   8  41   8  42  14  43  14
M  ISO  7  44  14  45   8  46   8  47   8  48   8  49   8  50   8
M  END
>  <minimizedAffinity>  (1) 
-5.03340435

>  <minimizedRMSD>  (1) 
1.8811034

$$$$
