
     RDKit          3D

 43 45  0  0  1  0  0  0  0  0999 V2000
   45.8430   33.6450   44.4620 C   0  0  2  0  0  0  0  0  0  0  0  0
   45.1160   34.4600   45.4690 C   0  0  0  0  0  0  0  0  0  0  0  0
   46.2270   33.4990   45.8850 C   0  0  1  0  0  0  0  0  0  0  0  0
   45.7870   32.4640   46.7690 N   0  0  0  0  0  0  0  0  0  0  0  0
   45.1760   32.6110   47.9550 N   0  0  0  0  0  0  0  0  0  0  0  0
   44.9090   31.3950   48.4710 C   0  0  0  0  0  0  0  0  0  0  0  0
   45.3780   30.5050   47.5640 C   0  0  0  0  0  0  0  0  0  0  0  0
   45.9430   31.1930   46.4720 C   0  0  0  0  0  0  0  0  0  0  0  0
   46.5330   30.4070   45.4820 N   0  0  0  0  0  0  0  0  0  0  0  0
   47.9230   30.0320   45.3610 C   0  0  0  0  0  0  0  0  0  0  0  0
   48.5350   29.8580   46.5140 N   0  0  0  0  0  0  0  0  0  0  0  0
   48.6340   29.8450   44.1160 N   0  0  0  0  0  0  0  0  0  0  0  0
   49.5360   29.5880   46.5530 H   0  0  0  0  0  0  0  0  0  0  0  0
   46.9070   34.2620   43.5820 C   0  0  0  0  0  0  0  0  0  0  0  0
   46.7320   33.8250   42.1340 C   0  0  0  0  0  0  0  0  0  0  0  0
   45.3830   34.2360   41.7290 C   0  0  0  0  0  0  0  0  0  0  0  0
   44.6810   33.2450   41.0550 C   0  0  0  0  0  0  0  0  0  0  0  0
   43.3630   33.5250   40.6110 C   0  0  0  0  0  0  0  0  0  0  0  0
   42.8660   34.7790   40.8870 N   0  0  0  0  0  0  0  0  0  0  0  0
   43.5740   35.7100   41.5410 C   0  0  0  0  0  0  0  0  0  0  0  0
   44.7990   35.4310   41.9450 N   0  0  0  0  0  0  0  0  0  0  0  0
   47.7690   34.5490   41.2880 C   0  0  0  0  0  0  0  0  0  0  0  0
   47.0000   32.3830   42.0140 C   0  0  0  0  0  0  0  0  0  0  0  0
   45.4817   32.9901   43.6554 H   0  0  0  0  0  0  0  0  0  0  0  0
   45.2767   35.5470   45.5212 H   0  0  0  0  0  0  0  0  0  0  0  0
   44.0616   34.6069   45.7459 H   0  0  0  0  0  0  0  0  0  0  0  0
   47.2205   33.4956   46.3572 H   0  0  0  0  0  0  0  0  0  0  0  0
   44.4141   31.1721   49.4278 H   0  0  0  0  0  0  0  0  0  0  0  0
   45.3257   29.4109   47.6647 H   0  0  0  0  0  0  0  0  0  0  0  0
   45.9021   30.0514   44.7496 H   0  0  0  0  0  0  0  0  0  0  0  0
   49.6283   29.5764   44.1261 H   0  0  0  0  0  0  0  0  0  0  0  0
   48.1462   29.9804   43.2190 H   0  0  0  0  0  0  0  0  0  0  0  0
   46.8315   35.3579   43.6395 H   0  0  0  0  0  0  0  0  0  0  0  0
   47.8937   33.9269   43.9344 H   0  0  0  0  0  0  0  0  0  0  0  0
   45.1382   32.2619   40.8690 H   0  0  0  0  0  0  0  0  0  0  0  0
   42.7659   32.7751   40.0714 H   0  0  0  0  0  0  0  0  0  0  0  0
   43.1372   36.6998   41.7397 H   0  0  0  0  0  0  0  0  0  0  0  0
   48.4917   35.0536   41.9462 H   0  0  0  0  0  0  0  0  0  0  0  0
   48.2966   33.8220   40.6531 H   0  0  0  0  0  0  0  0  0  0  0  0
   47.2684   35.2948   40.6531 H   0  0  0  0  0  0  0  0  0  0  0  0
   47.0822   31.9406   43.0177 H   0  0  0  0  0  0  0  0  0  0  0  0
   46.1760   31.9012   41.4673 H   0  0  0  0  0  0  0  0  0  0  0  0
   47.9421   32.2294   41.4673 H   0  0  0  0  0  0  0  0  0  0  0  0
  1  2  1  0
  1  3  1  0
  2  3  1  0
  3  4  1  0
  4  5  1  0
  5  6  2  0
  7  6  1  0
  8  4  1  0
  8  7  2  0
  9  8  1  0
 10  9  1  0
 10 11  2  0
 11 13  1  0
 12 10  1  0
 14  1  1  0
 15 14  1  0
 16 21  1  0
 16 15  1  0
 17 16  2  0
 18 19  2  0
 18 17  1  0
 19 20  1  0
 20 21  2  0
 22 15  1  0
 23 15  1  0
  1 24  1  6
  2 25  1  0
  2 26  1  0
  3 27  1  6
  6 28  1  0
  7 29  1  0
  9 30  1  0
 12 31  1  0
 12 32  1  0
 14 33  1  0
 14 34  1  0
 17 35  1  0
 18 36  1  0
 20 37  1  0
 22 38  1  0
 22 39  1  0
 22 40  1  0
 23 41  1  0
 23 42  1  0
 23 43  1  0
M  ISO  8  24  13  25  13  26  13  27  13  28  14  29  14  33   8  34   8
M  ISO  8  35  14  36  14  37  14  38   8  39   8  40   8  41   8  42   8
M  ISO  1  43   8
M  END
>  <minimizedAffinity>  (1) 
-4.76585484

>  <minimizedRMSD>  (1) 
1.74192774

$$$$
