
     RDKit          3D

 48 50  0  0  1  0  0  0  0  0999 V2000
   46.8890   34.1430   43.5120 C   0  0  0  0  0  0  0  0  0  0  0  0
   45.8370   33.5950   44.4500 C   0  0  2  0  0  0  0  0  0  0  0  0
   45.1990   34.4360   45.4800 C   0  0  0  0  0  0  0  0  0  0  0  0
   46.2970   33.4220   45.8450 C   0  0  1  0  0  0  0  0  0  0  0  0
   45.8160   32.4310   46.7750 N   0  0  0  0  0  0  0  0  0  0  0  0
   45.1640   32.6320   47.9470 N   0  0  0  0  0  0  0  0  0  0  0  0
   44.8640   31.4600   48.4670 C   0  0  0  0  0  0  0  0  0  0  0  0
   45.3440   30.5400   47.5950 C   0  0  0  0  0  0  0  0  0  0  0  0
   45.9600   31.1140   46.5050 C   0  0  0  0  0  0  0  0  0  0  0  0
   46.4990   30.1610   45.5080 C   0  0  0  0  0  0  0  0  0  0  0  0
   45.6580   30.1370   44.1970 C   0  0  0  0  0  0  0  0  0  0  0  0
   47.8150   30.7030   44.9230 C   0  0  0  0  0  0  0  0  0  0  0  0
   46.5430   28.7320   45.8940 C   0  0  0  0  0  0  0  0  0  0  0  0
   46.5590   33.7970   42.0660 C   0  0  0  0  0  0  0  0  0  0  0  0
   45.1480   34.1420   41.8440 C   0  0  0  0  0  0  0  0  0  0  0  0
   44.3490   33.0470   41.5240 C   0  0  0  0  0  0  0  0  0  0  0  0
   42.9650   33.2640   41.2840 C   0  0  0  0  0  0  0  0  0  0  0  0
   42.5120   34.5520   41.3870 N   0  0  0  0  0  0  0  0  0  0  0  0
   43.3260   35.5860   41.7020 C   0  0  0  0  0  0  0  0  0  0  0  0
   44.6130   35.3740   41.9240 N   0  0  0  0  0  0  0  0  0  0  0  0
   47.4530   34.6130   41.1560 C   0  0  0  0  0  0  0  0  0  0  0  0
   46.8900   32.3760   41.8180 C   0  0  0  0  0  0  0  0  0  0  0  0
   46.9334   35.2368   43.6198 H   0  0  0  0  0  0  0  0  0  0  0  0
   47.8591   33.6927   43.7692 H   0  0  0  0  0  0  0  0  0  0  0  0
   45.3946   32.9665   43.6630 H   0  0  0  0  0  0  0  0  0  0  0  0
   45.4070   35.5154   45.5200 H   0  0  0  0  0  0  0  0  0  0  0  0
   44.1668   34.6277   45.8083 H   0  0  0  0  0  0  0  0  0  0  0  0
   47.3185   33.3553   46.2476 H   0  0  0  0  0  0  0  0  0  0  0  0
   44.3344   31.2677   49.4118 H   0  0  0  0  0  0  0  0  0  0  0  0
   45.2517   29.4538   47.7418 H   0  0  0  0  0  0  0  0  0  0  0  0
   44.5876   30.1065   44.4486 H   0  0  0  0  0  0  0  0  0  0  0  0
   45.8707   31.0416   43.6083 H   0  0  0  0  0  0  0  0  0  0  0  0
   45.9219   29.2460   43.6083 H   0  0  0  0  0  0  0  0  0  0  0  0
   48.4931   30.9823   45.7428 H   0  0  0  0  0  0  0  0  0  0  0  0
   48.2883   29.9266   44.3040 H   0  0  0  0  0  0  0  0  0  0  0  0
   47.6043   31.5875   44.3040 H   0  0  0  0  0  0  0  0  0  0  0  0
   46.5456   28.6484   46.9908 H   0  0  0  0  0  0  0  0  0  0  0  0
   45.6603   28.2154   45.4890 H   0  0  0  0  0  0  0  0  0  0  0  0
   47.4558   28.2707   45.4890 H   0  0  0  0  0  0  0  0  0  0  0  0
   44.7794   32.0368   41.4585 H   0  0  0  0  0  0  0  0  0  0  0  0
   42.2888   32.4352   41.0273 H   0  0  0  0  0  0  0  0  0  0  0  0
   42.9170   36.6046   41.7736 H   0  0  0  0  0  0  0  0  0  0  0  0
   48.1298   35.2307   41.7646 H   0  0  0  0  0  0  0  0  0  0  0  0
   48.0448   33.9371   40.5212 H   0  0  0  0  0  0  0  0  0  0  0  0
   46.8338   35.2639   40.5212 H   0  0  0  0  0  0  0  0  0  0  0  0
   47.0114   31.8547   42.7790 H   0  0  0  0  0  0  0  0  0  0  0  0
   46.0776   31.9048   41.2453 H   0  0  0  0  0  0  0  0  0  0  0  0
   47.8270   32.3123   41.2453 H   0  0  0  0  0  0  0  0  0  0  0  0
  1  2  1  0
  2  3  1  0
  2  4  1  0
  3  4  1  0
  4  5  1  0
  5  6  1  0
  6  7  2  0
  8  7  1  0
  9  5  1  0
  9  8  2  0
 10 13  1  0
 10  9  1  0
 11 10  1  0
 12 10  1  0
 14  1  1  0
 15 20  1  0
 15 14  1  0
 16 15  2  0
 17 18  2  0
 17 16  1  0
 18 19  1  0
 19 20  2  0
 21 14  1  0
 22 14  1  0
  1 23  1  0
  1 24  1  0
  2 25  1  6
  3 26  1  0
  3 27  1  0
  4 28  1  6
  7 29  1  0
  8 30  1  0
 11 31  1  0
 11 32  1  0
 11 33  1  0
 12 34  1  0
 12 35  1  0
 12 36  1  0
 13 37  1  0
 13 38  1  0
 13 39  1  0
 16 40  1  0
 17 41  1  0
 19 42  1  0
 21 43  1  0
 21 44  1  0
 21 45  1  0
 22 46  1  0
 22 47  1  0
 22 48  1  0
M  ISO  8  23   8  24   8  25  13  26  13  27  13  28  13  29  14  30  14
M  ISO  8  31   8  32   8  33   8  34   8  35   8  36   8  37   8  38   8
M  ISO  8  39   8  40  14  41  14  42  14  43   8  44   8  45   8  46   8
M  ISO  2  47   8  48   8
M  END
>  <minimizedAffinity>  (1) 
-4.77439404

>  <minimizedRMSD>  (1) 
2.05840182

$$$$
