
     RDKit          3D

 42 45  0  0  1  0  0  0  0  0999 V2000
   47.2200   34.3740   43.4690 C   0  0  0  0  0  0  0  0  0  0  0  0
   46.7320   33.1460   44.2220 C   0  0  2  0  0  0  0  0  0  0  0  0
   45.2870   32.8150   44.2620 C   0  0  0  0  0  0  0  0  0  0  0  0
   45.9820   33.4450   45.4510 C   0  0  1  0  0  0  0  0  0  0  0  0
   45.9230   32.7050   46.6530 N   0  0  0  0  0  0  0  0  0  0  0  0
   45.1370   32.9140   47.7230 N   0  0  0  0  0  0  0  0  0  0  0  0
   45.3830   31.9220   48.6310 C   0  0  0  0  0  0  0  0  0  0  0  0
   46.3240   31.1310   48.0700 C   0  0  0  0  0  0  0  0  0  0  0  0
   46.6580   31.6610   46.8010 C   0  0  0  0  0  0  0  0  0  0  0  0
   47.6870   30.7380   46.3650 C   0  0  0  0  0  0  0  0  0  0  0  0
   48.3880   30.2860   47.7280 C   0  0  0  0  0  0  0  0  0  0  0  0
   49.4940   28.8530   47.1550 S   0  0  0  0  0  0  0  0  0  0  0  0
   48.8920   29.0720   45.3640 C   0  0  0  0  0  0  0  0  0  0  0  0
   48.1830   29.9390   45.5280 N   0  0  0  0  0  0  0  0  0  0  0  0
   47.1880   34.1190   41.9670 C   0  0  0  0  0  0  0  0  0  0  0  0
   45.8300   34.4370   41.5200 C   0  0  0  0  0  0  0  0  0  0  0  0
   45.3920   33.6210   40.4840 C   0  0  0  0  0  0  0  0  0  0  0  0
   44.0870   33.8350   39.9640 C   0  0  0  0  0  0  0  0  0  0  0  0
   43.3460   34.8400   40.5270 N   0  0  0  0  0  0  0  0  0  0  0  0
   43.8060   35.6110   41.5320 C   0  0  0  0  0  0  0  0  0  0  0  0
   45.0170   35.4000   42.0030 N   0  0  0  0  0  0  0  0  0  0  0  0
   48.1850   35.0600   41.3050 C   0  0  0  0  0  0  0  0  0  0  0  0
   47.6300   32.7430   41.6830 C   0  0  0  0  0  0  0  0  0  0  0  0
   46.5687   35.2281   43.7063 H   0  0  0  0  0  0  0  0  0  0  0  0
   48.2540   34.5936   43.7733 H   0  0  0  0  0  0  0  0  0  0  0  0
   47.6133   32.5495   43.9435 H   0  0  0  0  0  0  0  0  0  0  0  0
   44.5688   33.3988   43.6675 H   0  0  0  0  0  0  0  0  0  0  0  0
   44.6838   31.9107   44.0937 H   0  0  0  0  0  0  0  0  0  0  0  0
   45.9745   34.3573   46.0656 H   0  0  0  0  0  0  0  0  0  0  0  0
   44.9114   31.7940   49.6165 H   0  0  0  0  0  0  0  0  0  0  0  0
   46.7574   30.2273   48.5233 H   0  0  0  0  0  0  0  0  0  0  0  0
   48.2620   30.6994   48.7396 H   0  0  0  0  0  0  0  0  0  0  0  0
   49.1534   28.5229   44.4474 H   0  0  0  0  0  0  0  0  0  0  0  0
   46.0388   32.8298   40.0770 H   0  0  0  0  0  0  0  0  0  0  0  0
   43.6887   33.2195   39.1439 H   0  0  0  0  0  0  0  0  0  0  0  0
   43.1763   36.4080   41.9542 H   0  0  0  0  0  0  0  0  0  0  0  0
   48.7531   35.5962   42.0795 H   0  0  0  0  0  0  0  0  0  0  0  0
   48.8776   34.4787   40.6786 H   0  0  0  0  0  0  0  0  0  0  0  0
   47.6447   35.7850   40.6786 H   0  0  0  0  0  0  0  0  0  0  0  0
   47.8012   32.2101   42.6299 H   0  0  0  0  0  0  0  0  0  0  0  0
   46.8543   32.2210   41.1035 H   0  0  0  0  0  0  0  0  0  0  0  0
   48.5646   32.7703   41.1035 H   0  0  0  0  0  0  0  0  0  0  0  0
  1  2  1  0
  2  3  1  0
  2  4  1  0
  3  4  1  0
  4  5  1  0
  5  9  1  0
  5  6  1  0
  6  7  2  0
  8  7  1  0
  9  8  2  0
 10  9  1  0
 10 11  2  0
 12 11  1  0
 13 14  2  0
 13 12  1  0
 14 10  1  0
 15  1  1  0
 16 15  1  0
 16 21  1  0
 17 16  2  0
 18 17  1  0
 18 19  2  0
 19 20  1  0
 20 21  2  0
 22 15  1  0
 23 15  1  0
  1 24  1  0
  1 25  1  0
  2 26  1  1
  3 27  1  0
  3 28  1  0
  4 29  1  1
  7 30  1  0
  8 31  1  0
 11 32  1  0
 13 33  1  0
 17 34  1  0
 18 35  1  0
 20 36  1  0
 22 37  1  0
 22 38  1  0
 22 39  1  0
 23 40  1  0
 23 41  1  0
 23 42  1  0
M  ISO  8  24   8  25   8  26  13  27  13  28  13  29  13  30  14  31  14
M  ISO  8  32  14  33  14  34  14  35  14  36  14  37   8  38   8  39   8
M  ISO  3  40   8  41   8  42   8
M  END
>  <minimizedAffinity>  (1) 
-4.83891106

>  <minimizedRMSD>  (1) 
1.3499999

$$$$
