
     RDKit          3D

 52 55  0  0  1  0  0  0  0  0999 V2000
   44.3940   33.8120   42.4100 C   0  0  0  0  0  0  0  0  0  0  0  0
   43.8680   34.4330   41.1380 C   0  0  2  0  0  0  0  0  0  0  0  0
   43.3300   35.8070   41.1000 C   0  0  0  0  0  0  0  0  0  0  0  0
   42.3870   34.5950   41.0880 C   0  0  1  0  0  0  0  0  0  0  0  0
   41.6110   34.5330   39.8630 N   0  0  0  0  0  0  0  0  0  0  0  0
   41.1960   35.5710   39.1050 N   0  0  0  0  0  0  0  0  0  0  0  0
   40.5440   35.1060   38.0370 C   0  0  0  0  0  0  0  0  0  0  0  0
   40.5850   33.7560   38.1850 C   0  0  0  0  0  0  0  0  0  0  0  0
   41.2490   33.3680   39.3280 C   0  0  0  0  0  0  0  0  0  0  0  0
   41.3430   31.9150   39.6150 C   0  0  0  0  0  0  0  0  0  0  0  0
   40.0750   31.1520   39.1900 C   0  0  0  0  0  0  0  0  0  0  0  0
   38.9310   31.5420   40.0830 C   0  0  0  0  0  0  0  0  0  0  0  0
   39.0840   30.8500   41.4420 C   0  0  0  0  0  0  0  0  0  0  0  0
   40.5280   30.5190   41.5730 C   0  0  0  0  0  0  0  0  0  0  0  0
   41.4780   31.5950   41.0840 C   0  0  0  0  0  0  0  0  0  0  0  0
   45.6050   32.9280   42.1300 C   0  0  0  0  0  0  0  0  0  0  0  0
   46.6910   33.8270   41.6910 C   0  0  0  0  0  0  0  0  0  0  0  0
   47.0570   33.6120   40.3590 C   0  0  0  0  0  0  0  0  0  0  0  0
   48.0970   34.4130   39.8180 C   0  0  0  0  0  0  0  0  0  0  0  0
   48.6690   35.3450   40.6470 N   0  0  0  0  0  0  0  0  0  0  0  0
   48.2740   35.5080   41.9290 C   0  0  0  0  0  0  0  0  0  0  0  0
   47.3080   34.7650   42.4350 N   0  0  0  0  0  0  0  0  0  0  0  0
   45.9940   32.2190   43.4100 C   0  0  0  0  0  0  0  0  0  0  0  0
   45.2310   31.8780   41.1680 C   0  0  0  0  0  0  0  0  0  0  0  0
   44.6865   34.6120   43.1060 H   0  0  0  0  0  0  0  0  0  0  0  0
   43.6006   33.1888   42.8484 H   0  0  0  0  0  0  0  0  0  0  0  0
   44.6480   33.9476   40.5330 H   0  0  0  0  0  0  0  0  0  0  0  0
   43.3924   36.4490   41.9910 H   0  0  0  0  0  0  0  0  0  0  0  0
   43.4795   36.6878   40.4583 H   0  0  0  0  0  0  0  0  0  0  0  0
   41.5917   34.1222   41.6830 H   0  0  0  0  0  0  0  0  0  0  0  0
   40.0800   35.6833   37.2237 H   0  0  0  0  0  0  0  0  0  0  0  0
   40.1370   33.0500   37.4703 H   0  0  0  0  0  0  0  0  0  0  0  0
   42.2367   31.6107   39.0505 H   0  0  0  0  0  0  0  0  0  0  0  0
   39.8284   31.4030   38.1478 H   0  0  0  0  0  0  0  0  0  0  0  0
   40.2532   30.0699   39.2749 H   0  0  0  0  0  0  0  0  0  0  0  0
   38.9321   32.6328   40.2249 H   0  0  0  0  0  0  0  0  0  0  0  0
   37.9825   31.2332   39.6193 H   0  0  0  0  0  0  0  0  0  0  0  0
   38.7716   31.5253   42.2521 H   0  0  0  0  0  0  0  0  0  0  0  0
   38.4564   29.9490   41.5084 H   0  0  0  0  0  0  0  0  0  0  0  0
   40.7406   30.3333   42.6362 H   0  0  0  0  0  0  0  0  0  0  0  0
   40.7018   29.6410   40.9335 H   0  0  0  0  0  0  0  0  0  0  0  0
   42.5081   31.2573   41.2707 H   0  0  0  0  0  0  0  0  0  0  0  0
   41.2261   32.5141   41.6333 H   0  0  0  0  0  0  0  0  0  0  0  0
   46.5550   32.8463   39.7492 H   0  0  0  0  0  0  0  0  0  0  0  0
   48.4306   34.2914   38.7769 H   0  0  0  0  0  0  0  0  0  0  0  0
   48.7626   36.2676   42.5570 H   0  0  0  0  0  0  0  0  0  0  0  0
   45.6665   32.8160   44.2739 H   0  0  0  0  0  0  0  0  0  0  0  0
   45.5117   31.2309   43.4430 H   0  0  0  0  0  0  0  0  0  0  0  0
   47.0865   32.0950   43.4430 H   0  0  0  0  0  0  0  0  0  0  0  0
   44.9105   30.9782   41.7135 H   0  0  0  0  0  0  0  0  0  0  0  0
   44.4055   32.2370   40.5359 H   0  0  0  0  0  0  0  0  0  0  0  0
   46.0976   31.6343   40.5359 H   0  0  0  0  0  0  0  0  0  0  0  0
  2  1  1  0
  3  2  1  0
  4  3  1  0
  4  2  1  0
  5  4  1  0
  6  5  1  0
  7  8  1  0
  7  6  2  0
  8  9  2  0
  9 10  1  0
  9  5  1  0
 10 15  1  0
 11 10  1  0
 11 12  1  0
 12 13  1  0
 13 14  1  0
 15 14  1  0
 16  1  1  0
 16 23  1  0
 17 16  1  0
 17 22  1  0
 18 17  2  0
 19 18  1  0
 19 20  2  0
 20 21  1  0
 21 22  2  0
 24 16  1  0
  1 25  1  0
  1 26  1  0
  2 27  1  6
  3 28  1  0
  3 29  1  0
  4 30  1  1
  7 31  1  0
  8 32  1  0
 10 33  1  0
 11 34  1  0
 11 35  1  0
 12 36  1  0
 12 37  1  0
 13 38  1  0
 13 39  1  0
 14 40  1  0
 14 41  1  0
 15 42  1  0
 15 43  1  0
 18 44  1  0
 19 45  1  0
 21 46  1  0
 23 47  1  0
 23 48  1  0
 23 49  1  0
 24 50  1  0
 24 51  1  0
 24 52  1  0
M  ISO  8  25   8  26   8  27  13  28  13  29  13  30  13  31  14  32  14
M  ISO  8  33  13  34  13  35  13  36  13  37  13  38  13  39  13  40  13
M  ISO  8  41  13  42  13  43  13  44  14  45  14  46  14  47   8  48   8
M  ISO  4  49   8  50   8  51   8  52   8
M  END
>  <minimizedAffinity>  (1) 
-4.75159216

>  <minimizedRMSD>  (1) 
7.5340271

$$$$
