
     RDKit          3D

 42 44  0  0  1  0  0  0  0  0999 V2000
   46.7720   34.3050   43.5140 C   0  0  0  0  0  0  0  0  0  0  0  0
   45.7670   33.6960   44.4570 C   0  0  2  0  0  0  0  0  0  0  0  0
   45.1060   34.4910   45.5180 C   0  0  0  0  0  0  0  0  0  0  0  0
   46.2200   33.5250   45.8680 C   0  0  1  0  0  0  0  0  0  0  0  0
   45.7810   32.4740   46.7390 N   0  0  0  0  0  0  0  0  0  0  0  0
   45.2060   32.6090   47.9460 N   0  0  0  0  0  0  0  0  0  0  0  0
   44.9570   31.3880   48.4380 C   0  0  0  0  0  0  0  0  0  0  0  0
   45.3900   30.4900   47.5090 C   0  0  0  0  0  0  0  0  0  0  0  0
   45.9190   31.1710   46.4170 C   0  0  0  0  0  0  0  0  0  0  0  0
   46.4040   30.3640   45.2750 C   0  0  0  0  0  0  0  0  0  0  0  0
   45.2760   29.9910   44.2890 C   0  0  0  0  0  0  0  0  0  0  0  0
   46.5440   33.8380   42.0820 C   0  0  0  0  0  0  0  0  0  0  0  0
   45.1420   34.1480   41.7500 C   0  0  0  0  0  0  0  0  0  0  0  0
   44.4000   33.0390   41.3410 C   0  0  0  0  0  0  0  0  0  0  0  0
   43.0350   33.2110   40.9920 C   0  0  0  0  0  0  0  0  0  0  0  0
   42.5330   34.4720   41.0830 N   0  0  0  0  0  0  0  0  0  0  0  0
   43.2810   35.5230   41.4830 C   0  0  0  0  0  0  0  0  0  0  0  0
   44.5520   35.3580   41.8070 N   0  0  0  0  0  0  0  0  0  0  0  0
   47.4780   34.5870   41.1620 C   0  0  0  0  0  0  0  0  0  0  0  0
   46.9140   32.4110   41.9660 C   0  0  0  0  0  0  0  0  0  0  0  0
   46.6806   35.4005   43.5521 H   0  0  0  0  0  0  0  0  0  0  0  0
   47.7774   33.9863   43.8263 H   0  0  0  0  0  0  0  0  0  0  0  0
   45.3622   33.0583   43.6573 H   0  0  0  0  0  0  0  0  0  0  0  0
   45.2774   35.5757   45.5811 H   0  0  0  0  0  0  0  0  0  0  0  0
   44.0676   34.6370   45.8503 H   0  0  0  0  0  0  0  0  0  0  0  0
   47.2329   33.5106   46.2968 H   0  0  0  0  0  0  0  0  0  0  0  0
   44.4917   31.1548   49.4071 H   0  0  0  0  0  0  0  0  0  0  0  0
   45.3305   29.3960   47.6072 H   0  0  0  0  0  0  0  0  0  0  0  0
   47.1675   30.9424   44.7341 H   0  0  0  0  0  0  0  0  0  0  0  0
   46.8152   29.4276   45.6800 H   0  0  0  0  0  0  0  0  0  0  0  0
   44.3793   29.6945   44.8529 H   0  0  0  0  0  0  0  0  0  0  0  0
   45.0405   30.8591   43.6558 H   0  0  0  0  0  0  0  0  0  0  0  0
   45.6045   29.1537   43.6558 H   0  0  0  0  0  0  0  0  0  0  0  0
   44.8670   32.0444   41.2898 H   0  0  0  0  0  0  0  0  0  0  0  0
   42.4130   32.3652   40.6637 H   0  0  0  0  0  0  0  0  0  0  0  0
   42.8290   36.5243   41.5396 H   0  0  0  0  0  0  0  0  0  0  0  0
   48.1978   35.1642   41.7609 H   0  0  0  0  0  0  0  0  0  0  0  0
   48.0202   33.8705   40.5274 H   0  0  0  0  0  0  0  0  0  0  0  0
   46.8964   35.2719   40.5274 H   0  0  0  0  0  0  0  0  0  0  0  0
   47.0262   31.9784   42.9711 H   0  0  0  0  0  0  0  0  0  0  0  0
   46.1261   31.8711   41.4203 H   0  0  0  0  0  0  0  0  0  0  0  0
   47.8649   32.3220   41.4203 H   0  0  0  0  0  0  0  0  0  0  0  0
  1  2  1  0
  2  3  1  0
  2  4  1  0
  3  4  1  0
  4  5  1  0
  5  6  1  0
  6  7  2  0
  8  7  1  0
  9  5  1  0
  9  8  2  0
 10  9  1  0
 11 10  1  0
 12  1  1  0
 13 18  1  0
 13 12  1  0
 14 13  2  0
 15 16  2  0
 15 14  1  0
 16 17  1  0
 17 18  2  0
 19 12  1  0
 20 12  1  0
  1 21  1  0
  1 22  1  0
  2 23  1  6
  3 24  1  0
  3 25  1  0
  4 26  1  6
  7 27  1  0
  8 28  1  0
 10 29  1  0
 10 30  1  0
 11 31  1  0
 11 32  1  0
 11 33  1  0
 14 34  1  0
 15 35  1  0
 17 36  1  0
 19 37  1  0
 19 38  1  0
 19 39  1  0
 20 40  1  0
 20 41  1  0
 20 42  1  0
M  ISO  8  21   8  22   8  23  13  24  13  25  13  26  13  27  14  28  14
M  ISO  8  29   8  30   8  31   8  32   8  33   8  34  14  35  14  36  14
M  ISO  6  37   8  38   8  39   8  40   8  41   8  42   8
M  END
>  <minimizedAffinity>  (1) 
-4.5623064

>  <minimizedRMSD>  (1) 
1.66711354

$$$$
