
     RDKit          3D

 39 41  0  0  1  0  0  0  0  0999 V2000
   47.1650   34.3740   43.2440 C   0  0  0  0  0  0  0  0  0  0  0  0
   46.6420   33.1920   44.0200 C   0  0  2  0  0  0  0  0  0  0  0  0
   45.1890   32.9320   44.1490 C   0  0  0  0  0  0  0  0  0  0  0  0
   45.9850   33.5280   45.3100 C   0  0  1  0  0  0  0  0  0  0  0  0
   46.0050   32.6750   46.4740 N   0  0  0  0  0  0  0  0  0  0  0  0
   45.3250   32.8790   47.6160 N   0  0  0  0  0  0  0  0  0  0  0  0
   45.5850   31.8740   48.4690 C   0  0  0  0  0  0  0  0  0  0  0  0
   46.4460   31.0500   47.8100 C   0  0  0  0  0  0  0  0  0  0  0  0
   46.7170   31.5610   46.5340 C   0  0  0  0  0  0  0  0  0  0  0  0
   47.6400   30.8400   45.6250 C   0  0  0  0  0  0  0  0  0  0  0  0
   47.2810   34.0780   41.7650 C   0  0  0  0  0  0  0  0  0  0  0  0
   45.9420   34.2310   41.1830 C   0  0  0  0  0  0  0  0  0  0  0  0
   45.6820   33.3480   40.1460 C   0  0  0  0  0  0  0  0  0  0  0  0
   44.4140   33.4000   39.5010 C   0  0  0  0  0  0  0  0  0  0  0  0
   43.5300   34.3340   39.9590 N   0  0  0  0  0  0  0  0  0  0  0  0
   43.8200   35.1790   40.9720 C   0  0  0  0  0  0  0  0  0  0  0  0
   45.0060   35.1000   41.5450 N   0  0  0  0  0  0  0  0  0  0  0  0
   48.2610   35.0380   41.1350 C   0  0  0  0  0  0  0  0  0  0  0  0
   47.8770   32.7230   41.5940 C   0  0  0  0  0  0  0  0  0  0  0  0
   46.4779   35.2217   43.3832 H   0  0  0  0  0  0  0  0  0  0  0  0
   48.1709   34.6090   43.6222 H   0  0  0  0  0  0  0  0  0  0  0  0
   47.4689   32.5504   43.6815 H   0  0  0  0  0  0  0  0  0  0  0  0
   44.4659   33.5523   43.5991 H   0  0  0  0  0  0  0  0  0  0  0  0
   44.5353   32.0574   44.0154 H   0  0  0  0  0  0  0  0  0  0  0  0
   46.0338   34.4366   45.9280 H   0  0  0  0  0  0  0  0  0  0  0  0
   45.1862   31.7441   49.4859 H   0  0  0  0  0  0  0  0  0  0  0  0
   46.8669   30.1198   48.2194 H   0  0  0  0  0  0  0  0  0  0  0  0
   48.3694   30.2703   46.2195 H   0  0  0  0  0  0  0  0  0  0  0  0
   47.0648   30.1496   44.9905 H   0  0  0  0  0  0  0  0  0  0  0  0
   48.1706   31.5652   44.9905 H   0  0  0  0  0  0  0  0  0  0  0  0
   46.4424   32.6199   39.8272 H   0  0  0  0  0  0  0  0  0  0  0  0
   44.1590   32.7209   38.6741 H   0  0  0  0  0  0  0  0  0  0  0  0
   43.0812   35.9193   41.3130 H   0  0  0  0  0  0  0  0  0  0  0  0
   48.8082   35.5740   41.9244 H   0  0  0  0  0  0  0  0  0  0  0  0
   48.9729   34.4781   40.5107 H   0  0  0  0  0  0  0  0  0  0  0  0
   47.7159   35.7613   40.5107 H   0  0  0  0  0  0  0  0  0  0  0  0
   48.0716   32.2806   42.5822 H   0  0  0  0  0  0  0  0  0  0  0  0
   47.1776   32.0824   41.0368 H   0  0  0  0  0  0  0  0  0  0  0  0
   48.8218   32.8057   41.0368 H   0  0  0  0  0  0  0  0  0  0  0  0
  1  2  1  0
  2  3  1  0
  2  4  1  0
  3  4  1  0
  4  5  1  0
  5  9  1  0
  5  6  1  0
  6  7  2  0
  8  7  1  0
  9  8  2  0
 10  9  1  0
 11  1  1  0
 12 17  1  0
 12 11  1  0
 13 12  2  0
 14 15  2  0
 14 13  1  0
 15 16  1  0
 16 17  2  0
 18 11  1  0
 19 11  1  0
  1 20  1  0
  1 21  1  0
  2 22  1  1
  3 23  1  0
  3 24  1  0
  4 25  1  1
  7 26  1  0
  8 27  1  0
 10 28  1  0
 10 29  1  0
 10 30  1  0
 13 31  1  0
 14 32  1  0
 16 33  1  0
 18 34  1  0
 18 35  1  0
 18 36  1  0
 19 37  1  0
 19 38  1  0
 19 39  1  0
M  ISO  8  20   8  21   8  22  13  23  13  24  13  25  13  26  14  27  14
M  ISO  8  28   8  29   8  30   8  31  14  32  14  33  14  34   8  35   8
M  ISO  4  36   8  37   8  38   8  39   8
M  END
>  <minimizedAffinity>  (1) 
-4.45392561

>  <minimizedRMSD>  (1) 
0.592359722

$$$$
