
     RDKit          3D

 38 40  0  0  1  0  0  0  0  0999 V2000
   47.2850   34.2850   43.3870 C   0  0  0  0  0  0  0  0  0  0  0  0
   46.6900   33.1460   44.1740 C   0  0  2  0  0  0  0  0  0  0  0  0
   45.2390   32.9410   44.2880 C   0  0  0  0  0  0  0  0  0  0  0  0
   46.0270   33.5250   45.4600 C   0  0  1  0  0  0  0  0  0  0  0  0
   45.9970   32.6790   46.6190 N   0  0  0  0  0  0  0  0  0  0  0  0
   45.2660   32.8300   47.7160 N   0  0  0  0  0  0  0  0  0  0  0  0
   45.5220   31.8240   48.5770 C   0  0  0  0  0  0  0  0  0  0  0  0
   46.4570   31.0260   47.9610 C   0  0  0  0  0  0  0  0  0  0  0  0
   46.7450   31.5850   46.7220 C   0  0  0  0  0  0  0  0  0  0  0  0
   47.6790   30.9490   45.8950 N   0  0  0  0  0  0  0  0  0  0  0  0
   47.1760   34.0840   41.8880 C   0  0  0  0  0  0  0  0  0  0  0  0
   45.8120   34.4400   41.4880 C   0  0  0  0  0  0  0  0  0  0  0  0
   45.3030   33.6590   40.4690 C   0  0  0  0  0  0  0  0  0  0  0  0
   43.9870   33.9240   40.0070 C   0  0  0  0  0  0  0  0  0  0  0  0
   43.3000   34.9340   40.5960 N   0  0  0  0  0  0  0  0  0  0  0  0
   43.8250   35.6760   41.5850 C   0  0  0  0  0  0  0  0  0  0  0  0
   45.0560   35.4100   42.0000 N   0  0  0  0  0  0  0  0  0  0  0  0
   48.1860   35.0040   41.2120 C   0  0  0  0  0  0  0  0  0  0  0  0
   47.5890   32.7040   41.5750 C   0  0  0  0  0  0  0  0  0  0  0  0
   46.7573   35.2118   43.6566 H   0  0  0  0  0  0  0  0  0  0  0  0
   48.3549   34.3369   43.6371 H   0  0  0  0  0  0  0  0  0  0  0  0
   47.4952   32.4697   43.8512 H   0  0  0  0  0  0  0  0  0  0  0  0
   44.5466   33.5781   43.7182 H   0  0  0  0  0  0  0  0  0  0  0  0
   44.5604   32.0856   44.1548 H   0  0  0  0  0  0  0  0  0  0  0  0
   46.0965   34.4376   46.0702 H   0  0  0  0  0  0  0  0  0  0  0  0
   45.0739   31.6727   49.5701 H   0  0  0  0  0  0  0  0  0  0  0  0
   46.8987   30.1078   48.3756 H   0  0  0  0  0  0  0  0  0  0  0  0
   48.1399   30.0832   46.2094 H   0  0  0  0  0  0  0  0  0  0  0  0
   47.9051   31.3470   44.9723 H   0  0  0  0  0  0  0  0  0  0  0  0
   45.9031   32.8507   40.0258 H   0  0  0  0  0  0  0  0  0  0  0  0
   43.5390   33.3292   39.1973 H   0  0  0  0  0  0  0  0  0  0  0  0
   43.2439   36.4901   42.0427 H   0  0  0  0  0  0  0  0  0  0  0  0
   48.7690   35.5350   41.9789 H   0  0  0  0  0  0  0  0  0  0  0  0
   48.8638   34.4065   40.5846 H   0  0  0  0  0  0  0  0  0  0  0  0
   47.6541   35.7344   40.5846 H   0  0  0  0  0  0  0  0  0  0  0  0
   47.7549   32.1498   42.5106 H   0  0  0  0  0  0  0  0  0  0  0  0
   46.7997   32.2087   40.9904 H   0  0  0  0  0  0  0  0  0  0  0  0
   48.5206   32.7237   40.9904 H   0  0  0  0  0  0  0  0  0  0  0  0
  1  2  1  0
  2  3  1  0
  2  4  1  0
  3  4  1  0
  4  5  1  0
  5  9  1  0
  5  6  1  0
  6  7  2  0
  8  7  1  0
  9  8  2  0
 10  9  1  0
 11  1  1  0
 12 11  1  0
 12 17  1  0
 13 12  2  0
 14 13  1  0
 14 15  2  0
 15 16  1  0
 16 17  2  0
 18 11  1  0
 19 11  1  0
  1 20  1  0
  1 21  1  0
  2 22  1  1
  3 23  1  0
  3 24  1  0
  4 25  1  1
  7 26  1  0
  8 27  1  0
 10 28  1  0
 10 29  1  0
 13 30  1  0
 14 31  1  0
 16 32  1  0
 18 33  1  0
 18 34  1  0
 18 35  1  0
 19 36  1  0
 19 37  1  0
 19 38  1  0
M  ISO  8  20   8  21   8  22  13  23  13  24  13  25  13  26  14  27  14
M  ISO  8  30  14  31  14  32  14  33   8  34   8  35   8  36   8  37   8
M  ISO  1  38   8
M  END
>  <minimizedAffinity>  (1) 
-4.57055426

>  <minimizedRMSD>  (1) 
0.765939116

$$$$
