
     RDKit          3D

 47 50  0  0  1  0  0  0  0  0999 V2000
   46.5920   34.1070   42.0250 C   0  0  1  0  0  0  0  0  0  0  0  0
   45.2860   34.4140   41.4440 C   0  0  0  0  0  0  0  0  0  0  0  0
   44.9080   33.6000   40.4070 C   0  0  0  0  0  0  0  0  0  0  0  0
   43.6530   33.8220   39.7790 C   0  0  0  0  0  0  0  0  0  0  0  0
   42.8850   34.8320   40.2350 N   0  0  0  0  0  0  0  0  0  0  0  0
   43.2730   35.6170   41.2510 C   0  0  0  0  0  0  0  0  0  0  0  0
   44.4440   35.3900   41.8160 N   0  0  0  0  0  0  0  0  0  0  0  0
   47.7010   34.7670   41.2180 C   0  0  0  0  0  0  0  0  0  0  0  0
   46.5980   34.7030   43.4260 C   0  0  0  0  0  0  0  0  0  0  0  0
   45.6560   33.9930   44.3630 C   0  0  2  0  0  0  0  0  0  0  0  0
   44.9320   34.6820   45.4350 C   0  0  0  0  0  0  0  0  0  0  0  0
   46.1450   33.7930   45.7360 C   0  0  1  0  0  0  0  0  0  0  0  0
   45.8250   32.6770   46.5830 N   0  0  0  0  0  0  0  0  0  0  0  0
   45.1660   32.6920   47.7370 N   0  0  0  0  0  0  0  0  0  0  0  0
   45.0740   31.4450   48.2160 C   0  0  0  0  0  0  0  0  0  0  0  0
   45.7070   30.6450   47.3050 C   0  0  0  0  0  0  0  0  0  0  0  0
   46.1830   31.4490   46.2640 C   0  0  0  0  0  0  0  0  0  0  0  0
   46.8670   30.8570   45.2100 N   0  0  0  0  0  0  0  0  0  0  0  0
   46.9230   32.6730   42.1150 C   0  0  0  0  0  0  0  0  0  0  0  0
   48.2600   32.4000   41.5510 C   0  0  0  0  0  0  0  0  0  0  0  0
   49.2400   32.4780   42.5480 C   0  0  0  0  0  0  0  0  0  0  0  0
   50.5860   32.2620   42.2790 C   0  0  0  0  0  0  0  0  0  0  0  0
   51.0030   31.9600   40.9990 C   0  0  0  0  0  0  0  0  0  0  0  0
   49.9990   31.8920   40.0420 C   0  0  0  0  0  0  0  0  0  0  0  0
   48.7260   32.1010   40.3270 N   0  0  0  0  0  0  0  0  0  0  0  0
   45.5666   32.7874   40.0665 H   0  0  0  0  0  0  0  0  0  0  0  0
   43.3176   33.1882   38.9449 H   0  0  0  0  0  0  0  0  0  0  0  0
   42.6279   36.4340   41.6064 H   0  0  0  0  0  0  0  0  0  0  0  0
   48.4407   35.2072   41.9029 H   0  0  0  0  0  0  0  0  0  0  0  0
   48.1912   34.0136   40.5839 H   0  0  0  0  0  0  0  0  0  0  0  0
   47.2726   35.5572   40.5839 H   0  0  0  0  0  0  0  0  0  0  0  0
   47.6176   34.6348   43.8333 H   0  0  0  0  0  0  0  0  0  0  0  0
   46.2619   35.7472   43.3447 H   0  0  0  0  0  0  0  0  0  0  0  0
   45.2908   33.3587   43.5418 H   0  0  0  0  0  0  0  0  0  0  0  0
   45.0066   35.7744   45.5401 H   0  0  0  0  0  0  0  0  0  0  0  0
   43.8867   34.7258   45.7747 H   0  0  0  0  0  0  0  0  0  0  0  0
   47.1650   33.8392   46.1453 H   0  0  0  0  0  0  0  0  0  0  0  0
   44.5886   31.1287   49.1510 H   0  0  0  0  0  0  0  0  0  0  0  0
   45.8223   29.5535   47.3785 H   0  0  0  0  0  0  0  0  0  0  0  0
   47.0183   29.8382   45.2018 H   0  0  0  0  0  0  0  0  0  0  0  0
   47.2229   31.4368   44.4366 H   0  0  0  0  0  0  0  0  0  0  0  0
   46.9093   32.3667   43.1714 H   0  0  0  0  0  0  0  0  0  0  0  0
   46.1778   32.1054   41.5383 H   0  0  0  0  0  0  0  0  0  0  0  0
   48.9346   32.7180   43.5771 H   0  0  0  0  0  0  0  0  0  0  0  0
   51.3238   32.3322   43.0918 H   0  0  0  0  0  0  0  0  0  0  0  0
   52.0607   31.7847   40.7528 H   0  0  0  0  0  0  0  0  0  0  0  0
   50.2750   31.6544   39.0040 H   0  0  0  0  0  0  0  0  0  0  0  0
  1  8  1  6
  1 19  1  0
  1  9  1  0
  2  7  1  0
  2  1  1  0
  3  2  2  0
  4  5  2  0
  4  3  1  0
  5  6  1  0
  6  7  2  0
  9 10  1  0
 10 11  1  0
 10 12  1  0
 11 12  1  0
 12 13  1  0
 13 14  1  0
 14 15  2  0
 16 15  1  0
 17 13  1  0
 17 16  2  0
 18 17  1  0
 20 19  1  0
 20 21  2  0
 22 21  1  0
 23 22  2  0
 24 25  2  0
 24 23  1  0
 25 20  1  0
  3 26  1  0
  4 27  1  0
  6 28  1  0
  8 29  1  0
  8 30  1  0
  8 31  1  0
  9 32  1  0
  9 33  1  0
 10 34  1  6
 11 35  1  0
 11 36  1  0
 12 37  1  6
 15 38  1  0
 16 39  1  0
 18 40  1  0
 18 41  1  0
 19 42  1  0
 19 43  1  0
 21 44  1  0
 22 45  1  0
 23 46  1  0
 24 47  1  0
M  ISO  8  26  14  27  14  28  14  29   8  30   8  31   8  32   8  33   8
M  ISO  8  34  13  35  13  36  13  37  13  38  14  39  14  42   8  43   8
M  ISO  4  44  14  45  14  46  14  47  14
M  END
>  <minimizedAffinity>  (1) 
-5.32097673

>  <minimizedRMSD>  (1) 
1.16196799

$$$$
