
     RDKit          3D

 49 53  0  0  1  0  0  0  0  0999 V2000
   47.1850   34.0660   41.8440 C   0  0  1  0  0  0  0  0  0  0  0  0
   45.8340   34.4260   41.4500 C   0  0  0  0  0  0  0  0  0  0  0  0
   45.3040   33.6530   40.4450 C   0  0  0  0  0  0  0  0  0  0  0  0
   43.9850   33.9270   39.9980 C   0  0  0  0  0  0  0  0  0  0  0  0
   43.3090   34.9540   40.5960 N   0  0  0  0  0  0  0  0  0  0  0  0
   43.8520   35.6860   41.5700 C   0  0  0  0  0  0  0  0  0  0  0  0
   45.0820   35.4120   41.9690 N   0  0  0  0  0  0  0  0  0  0  0  0
   48.1660   35.0490   41.1630 C   0  0  0  0  0  0  0  0  0  0  0  0
   47.3230   34.2930   43.3350 C   0  0  0  0  0  0  0  0  0  0  0  0
   46.6830   33.1540   44.1130 C   0  0  2  0  0  0  0  0  0  0  0  0
   45.2430   32.9560   44.2240 C   0  0  0  0  0  0  0  0  0  0  0  0
   46.0480   33.5250   45.3990 C   0  0  1  0  0  0  0  0  0  0  0  0
   46.0040   32.6830   46.5600 N   0  0  0  0  0  0  0  0  0  0  0  0
   45.2730   32.8480   47.6540 N   0  0  0  0  0  0  0  0  0  0  0  0
   45.5160   31.8380   48.5180 C   0  0  0  0  0  0  0  0  0  0  0  0
   46.4390   31.0330   47.9030 C   0  0  0  0  0  0  0  0  0  0  0  0
   46.7330   31.5910   46.6640 C   0  0  0  0  0  0  0  0  0  0  0  0
   47.6610   30.9370   45.8510 N   0  0  0  0  0  0  0  0  0  0  0  0
   47.6120   32.7430   41.4850 C   0  0  0  0  0  0  0  0  0  0  0  0
   48.9840   32.3750   41.5070 N   0  0  0  0  0  0  0  0  0  0  0  0
   49.9950   32.1630   42.3690 C   0  0  0  0  0  0  0  0  0  0  0  0
   51.1480   31.8070   41.8440 N   0  0  0  0  0  0  0  0  0  0  0  0
   50.9860   31.7510   40.5180 C   0  0  0  0  0  0  0  0  0  0  0  0
   51.8460   31.4390   39.5170 C   0  0  0  0  0  0  0  0  0  0  0  0
   51.3690   31.4720   38.2380 N   0  0  0  0  0  0  0  0  0  0  0  0
   50.0820   31.8100   38.0260 C   0  0  0  0  0  0  0  0  0  0  0  0
   49.2600   32.1120   39.0380 N   0  0  0  0  0  0  0  0  0  0  0  0
   49.6530   32.1030   40.3270 C   0  0  0  0  0  0  0  0  0  0  0  0
   45.8904   32.8379   39.9958 H   0  0  0  0  0  0  0  0  0  0  0  0
   43.5218   33.3325   39.1967 H   0  0  0  0  0  0  0  0  0  0  0  0
   43.2844   36.5058   42.0344 H   0  0  0  0  0  0  0  0  0  0  0  0
   48.7211   35.6052   41.9327 H   0  0  0  0  0  0  0  0  0  0  0  0
   48.8730   34.4860   40.5360 H   0  0  0  0  0  0  0  0  0  0  0  0
   47.6016   35.7549   40.5360 H   0  0  0  0  0  0  0  0  0  0  0  0
   48.3904   34.3524   43.5940 H   0  0  0  0  0  0  0  0  0  0  0  0
   46.8138   35.2317   43.5987 H   0  0  0  0  0  0  0  0  0  0  0  0
   47.4725   32.4691   43.7700 H   0  0  0  0  0  0  0  0  0  0  0  0
   44.5521   33.6030   43.6636 H   0  0  0  0  0  0  0  0  0  0  0  0
   44.5574   32.1073   44.0841 H   0  0  0  0  0  0  0  0  0  0  0  0
   46.1430   34.4300   46.0170 H   0  0  0  0  0  0  0  0  0  0  0  0
   45.0656   31.6919   49.5109 H   0  0  0  0  0  0  0  0  0  0  0  0
   46.8706   30.1094   48.3163 H   0  0  0  0  0  0  0  0  0  0  0  0
   48.1066   30.0667   46.1751 H   0  0  0  0  0  0  0  0  0  0  0  0
   47.9000   31.3249   44.9272 H   0  0  0  0  0  0  0  0  0  0  0  0
   47.2611   32.5719   40.4566 H   0  0  0  0  0  0  0  0  0  0  0  0
   47.1894   32.1299   42.2947 H   0  0  0  0  0  0  0  0  0  0  0  0
   49.8647   32.2810   43.4549 H   0  0  0  0  0  0  0  0  0  0  0  0
   52.8912   31.1688   39.7280 H   0  0  0  0  0  0  0  0  0  0  0  0
   49.6975   31.8384   36.9958 H   0  0  0  0  0  0  0  0  0  0  0  0
  1  8  1  6
  1  9  1  0
  2  1  1  0
  2  7  1  0
  3  2  2  0
  4  3  1  0
  4  5  2  0
  5  6  1  0
  6  7  2  0
  9 10  1  0
 10 11  1  0
 10 12  1  0
 11 12  1  0
 12 13  1  0
 13 17  1  0
 13 14  1  0
 14 15  2  0
 16 15  1  0
 17 16  2  0
 18 17  1  0
 19 20  1  0
 19  1  1  0
 20 21  1  0
 22 21  2  0
 23 22  1  0
 24 23  2  0
 25 24  1  0
 26 25  2  0
 26 27  1  0
 27 28  2  0
 28 23  1  0
 28 20  1  0
  3 29  1  0
  4 30  1  0
  6 31  1  0
  8 32  1  0
  8 33  1  0
  8 34  1  0
  9 35  1  0
  9 36  1  0
 10 37  1  1
 11 38  1  0
 11 39  1  0
 12 40  1  1
 15 41  1  0
 16 42  1  0
 18 43  1  0
 18 44  1  0
 19 45  1  0
 19 46  1  0
 21 47  1  0
 24 48  1  0
 26 49  1  0
M  ISO  8  29  14  30  14  31  14  32   8  33   8  34   8  35   8  36   8
M  ISO  8  37  13  38  13  39  13  40  13  41  14  42  14  45   8  46   8
M  ISO  3  47  14  48  14  49  14
M  END
>  <minimizedAffinity>  (1) 
-5.51898813

>  <minimizedRMSD>  (1) 
0.405333877

$$$$
