
     RDKit          3D

 51 54  0  0  1  0  0  0  0  0999 V2000
   46.5480   33.8930   42.0820 C   0  0  1  0  0  0  0  0  0  0  0  0
   45.1610   34.1560   41.7480 C   0  0  0  0  0  0  0  0  0  0  0  0
   44.4630   33.0260   41.3470 C   0  0  0  0  0  0  0  0  0  0  0  0
   43.0880   33.2010   41.0370 C   0  0  0  0  0  0  0  0  0  0  0  0
   42.5280   34.4370   41.1440 N   0  0  0  0  0  0  0  0  0  0  0  0
   43.2420   35.4920   41.5320 C   0  0  0  0  0  0  0  0  0  0  0  0
   44.5180   35.3210   41.8180 N   0  0  0  0  0  0  0  0  0  0  0  0
   47.4530   34.7800   41.1900 C   0  0  0  0  0  0  0  0  0  0  0  0
   46.8000   34.3790   43.5040 C   0  0  0  0  0  0  0  0  0  0  0  0
   45.7950   33.7600   44.4590 C   0  0  2  0  0  0  0  0  0  0  0  0
   45.0770   34.5030   45.4830 C   0  0  0  0  0  0  0  0  0  0  0  0
   46.2270   33.5770   45.8600 C   0  0  1  0  0  0  0  0  0  0  0  0
   45.8060   32.4830   46.7010 N   0  0  0  0  0  0  0  0  0  0  0  0
   45.1870   32.5860   47.8750 N   0  0  0  0  0  0  0  0  0  0  0  0
   44.9570   31.3390   48.3580 C   0  0  0  0  0  0  0  0  0  0  0  0
   45.4640   30.4640   47.4230 C   0  0  0  0  0  0  0  0  0  0  0  0
   45.9950   31.2150   46.3840 C   0  0  0  0  0  0  0  0  0  0  0  0
   46.5630   30.5490   45.3090 N   0  0  0  0  0  0  0  0  0  0  0  0
   47.0270   32.5360   41.9100 C   0  0  0  0  0  0  0  0  0  0  0  0
   51.0860   31.6940   40.6610 C   0  0  0  0  0  0  0  0  0  0  0  0
   50.8660   32.1930   41.9230 C   0  0  0  0  0  0  0  0  0  0  0  0
   49.5990   32.4660   42.3510 C   0  0  0  0  0  0  0  0  0  0  0  0
   48.4520   32.3010   41.6550 C   0  0  0  0  0  0  0  0  0  0  0  0
   48.7570   31.7860   40.3730 C   0  0  0  0  0  0  0  0  0  0  0  0
   50.0040   31.4850   39.8680 C   0  0  0  0  0  0  0  0  0  0  0  0
   52.7050   31.3450   40.1110 S   0  0  0  0  0  0  0  0  0  0  0  0
   53.0620   29.9300   40.4620 O   0  0  0  0  0  0  0  0  0  0  0  0
   52.7980   31.5690   38.6260 O   0  0  0  0  0  0  0  0  0  0  0  0
   44.9506   32.0428   41.2728 H   0  0  0  0  0  0  0  0  0  0  0  0
   42.4799   32.3436   40.7127 H   0  0  0  0  0  0  0  0  0  0  0  0
   42.7770   36.4857   41.6123 H   0  0  0  0  0  0  0  0  0  0  0  0
   48.0935   35.4077   41.8270 H   0  0  0  0  0  0  0  0  0  0  0  0
   48.0826   34.1395   40.5549 H   0  0  0  0  0  0  0  0  0  0  0  0
   46.8253   35.4224   40.5549 H   0  0  0  0  0  0  0  0  0  0  0  0
   47.8165   34.0916   43.8108 H   0  0  0  0  0  0  0  0  0  0  0  0
   46.6928   35.4734   43.5321 H   0  0  0  0  0  0  0  0  0  0  0  0
   45.4264   33.1243   43.6404 H   0  0  0  0  0  0  0  0  0  0  0  0
   45.1987   35.5935   45.5607 H   0  0  0  0  0  0  0  0  0  0  0  0
   44.0231   34.6016   45.7823 H   0  0  0  0  0  0  0  0  0  0  0  0
   47.2271   33.5970   46.3177 H   0  0  0  0  0  0  0  0  0  0  0  0
   44.4642   31.0790   49.3065 H   0  0  0  0  0  0  0  0  0  0  0  0
   45.4504   29.3660   47.4882 H   0  0  0  0  0  0  0  0  0  0  0  0
   46.5899   29.5194   45.2969 H   0  0  0  0  0  0  0  0  0  0  0  0
   46.9581   31.0837   44.5224 H   0  0  0  0  0  0  0  0  0  0  0  0
   46.7714   31.9874   42.8286 H   0  0  0  0  0  0  0  0  0  0  0  0
   46.5399   32.2055   40.9808 H   0  0  0  0  0  0  0  0  0  0  0  0
   51.7188   32.3739   42.5939 H   0  0  0  0  0  0  0  0  0  0  0  0
   49.5007   32.8630   43.3721 H   0  0  0  0  0  0  0  0  0  0  0  0
   47.9029   31.6054   39.7038 H   0  0  0  0  0  0  0  0  0  0  0  0
   50.1193   31.0860   38.8494 H   0  0  0  0  0  0  0  0  0  0  0  0
   53.5930   32.1847   40.7301 H   0  0  0  0  0  0  0  0  0  0  0  0
  1  8  1  6
  1  9  1  0
  2  7  1  0
  2  1  1  0
  3  2  2  0
  4  5  2  0
  4  3  1  0
  5  6  1  0
  6  7  2  0
  9 10  1  0
 10 11  1  0
 10 12  1  0
 11 12  1  0
 12 13  1  0
 13 14  1  0
 14 15  2  0
 16 15  1  0
 17 13  1  0
 17 16  2  0
 18 17  1  0
 19  1  1  0
 20 21  2  0
 21 22  1  0
 23 19  1  0
 23 22  2  0
 24 23  1  0
 25 24  2  0
 25 20  1  0
 26 27  2  0
 26 20  1  0
 28 26  2  0
  3 29  1  0
  4 30  1  0
  6 31  1  0
  8 32  1  0
  8 33  1  0
  8 34  1  0
  9 35  1  0
  9 36  1  0
 10 37  1  6
 11 38  1  0
 11 39  1  0
 12 40  1  6
 15 41  1  0
 16 42  1  0
 18 43  1  0
 18 44  1  0
 19 45  1  0
 19 46  1  0
 21 47  1  0
 22 48  1  0
 24 49  1  0
 25 50  1  0
 26 51  1  0
M  ISO  8  29  14  30  14  31  14  32   8  33   8  34   8  35   8  36   8
M  ISO  8  37  13  38  13  39  13  40  13  41  14  42  14  45   8  46   8
M  ISO  5  47  14  48  14  49  14  50  14  51  11
M  END
>  <minimizedAffinity>  (1) 
-5.45464993

>  <minimizedRMSD>  (1) 
1.31109107

$$$$
