
     RDKit          3D

 51 54  0  0  1  0  0  0  0  0999 V2000
   47.1980   33.9740   41.7250 C   0  0  1  0  0  0  0  0  0  0  0  0
   45.8710   34.2770   41.2260 C   0  0  0  0  0  0  0  0  0  0  0  0
   45.4960   33.4190   40.2020 C   0  0  0  0  0  0  0  0  0  0  0  0
   44.1920   33.5960   39.6550 C   0  0  0  0  0  0  0  0  0  0  0  0
   43.4000   34.5900   40.1630 N   0  0  0  0  0  0  0  0  0  0  0  0
   43.8180   35.3920   41.1520 C   0  0  0  0  0  0  0  0  0  0  0  0
   45.0280   35.2080   41.6440 N   0  0  0  0  0  0  0  0  0  0  0  0
   48.2130   34.9500   41.0540 C   0  0  0  0  0  0  0  0  0  0  0  0
   47.2500   34.3550   43.2050 C   0  0  0  0  0  0  0  0  0  0  0  0
   46.6670   33.2340   44.0490 C   0  0  2  0  0  0  0  0  0  0  0  0
   45.2490   32.9370   44.1680 C   0  0  0  0  0  0  0  0  0  0  0  0
   45.9960   33.6110   45.3150 C   0  0  1  0  0  0  0  0  0  0  0  0
   46.0150   32.7970   46.5040 N   0  0  0  0  0  0  0  0  0  0  0  0
   45.3030   32.9910   47.6090 N   0  0  0  0  0  0  0  0  0  0  0  0
   45.5820   32.0270   48.5040 C   0  0  0  0  0  0  0  0  0  0  0  0
   46.5140   31.2090   47.9020 C   0  0  0  0  0  0  0  0  0  0  0  0
   46.7690   31.7240   46.6330 C   0  0  0  0  0  0  0  0  0  0  0  0
   47.6870   31.0540   45.8360 N   0  0  0  0  0  0  0  0  0  0  0  0
   47.7280   32.6420   41.5200 C   0  0  0  0  0  0  0  0  0  0  0  0
   49.1320   32.4730   41.3540 N   0  0  0  0  0  0  0  0  0  0  0  0
   49.3370   31.7910   40.1600 C   0  0  0  0  0  0  0  0  0  0  0  0
   50.5640   31.4200   39.5910 C   0  0  0  0  0  0  0  0  0  0  0  0
   50.7480   30.6900   38.3130 C   0  0  0  0  0  0  0  0  0  0  0  0
   51.7190   31.7530   40.2660 C   0  0  0  0  0  0  0  0  0  0  0  0
   52.8700   31.4980   39.8990 O   0  0  0  0  0  0  0  0  0  0  0  0
   51.5130   32.4090   41.4170 N   0  0  0  0  0  0  0  0  0  0  0  0
   50.2960   32.7140   41.8680 C   0  0  0  0  0  0  0  0  0  0  0  0
   50.2370   33.3160   42.9420 O   0  0  0  0  0  0  0  0  0  0  0  0
   46.1745   32.6375   39.8293 H   0  0  0  0  0  0  0  0  0  0  0  0
   43.8302   32.9484   38.8428 H   0  0  0  0  0  0  0  0  0  0  0  0
   43.1663   36.1863   41.5449 H   0  0  0  0  0  0  0  0  0  0  0  0
   48.7732   35.4887   41.8325 H   0  0  0  0  0  0  0  0  0  0  0  0
   48.9133   34.3774   40.4282 H   0  0  0  0  0  0  0  0  0  0  0  0
   47.6683   35.6722   40.4282 H   0  0  0  0  0  0  0  0  0  0  0  0
   48.2954   34.5280   43.5005 H   0  0  0  0  0  0  0  0  0  0  0  0
   46.6619   35.2709   43.3638 H   0  0  0  0  0  0  0  0  0  0  0  0
   47.5102   32.5980   43.7416 H   0  0  0  0  0  0  0  0  0  0  0  0
   44.5153   33.5061   43.5783 H   0  0  0  0  0  0  0  0  0  0  0  0
   44.6295   32.0340   44.0642 H   0  0  0  0  0  0  0  0  0  0  0  0
   46.0134   34.5460   45.8942 H   0  0  0  0  0  0  0  0  0  0  0  0
   45.1539   31.9142   49.5110 H   0  0  0  0  0  0  0  0  0  0  0  0
   46.9731   30.3122   48.3436 H   0  0  0  0  0  0  0  0  0  0  0  0
   48.1542   30.2068   46.1894 H   0  0  0  0  0  0  0  0  0  0  0  0
   47.9010   31.4041   44.8912 H   0  0  0  0  0  0  0  0  0  0  0  0
   47.4324   32.0403   42.3921 H   0  0  0  0  0  0  0  0  0  0  0  0
   47.3105   32.3400   40.5481 H   0  0  0  0  0  0  0  0  0  0  0  0
   48.4342   31.5105   39.5976 H   0  0  0  0  0  0  0  0  0  0  0  0
   51.0119   29.6431   38.5235 H   0  0  0  0  0  0  0  0  0  0  0  0
   49.8134   30.7233   37.7339 H   0  0  0  0  0  0  0  0  0  0  0  0
   51.5552   31.1623   37.7339 H   0  0  0  0  0  0  0  0  0  0  0  0
   52.3305   32.6895   41.9772 H   0  0  0  0  0  0  0  0  0  0  0  0
  1  8  1  6
  1  9  1  0
  2  7  1  0
  2  1  1  0
  3  2  2  0
  4  5  2  0
  4  3  1  0
  5  6  1  0
  6  7  2  0
  9 10  1  0
 10 11  1  0
 10 12  1  0
 11 12  1  0
 12 13  1  0
 13 17  1  0
 13 14  1  0
 14 15  2  0
 16 15  1  0
 17 16  2  0
 18 17  1  0
 19  1  1  0
 20 19  1  0
 20 27  1  0
 21 20  1  0
 22 21  2  0
 22 24  1  0
 23 22  1  0
 24 26  1  0
 25 24  2  0
 26 27  1  0
 27 28  2  0
  3 29  1  0
  4 30  1  0
  6 31  1  0
  8 32  1  0
  8 33  1  0
  8 34  1  0
  9 35  1  0
  9 36  1  0
 10 37  1  1
 11 38  1  0
 11 39  1  0
 12 40  1  1
 15 41  1  0
 16 42  1  0
 18 43  1  0
 18 44  1  0
 19 45  1  0
 19 46  1  0
 21 47  1  0
 23 48  1  0
 23 49  1  0
 23 50  1  0
 26 51  1  0
M  ISO  8  29  14  30  14  31  14  32   8  33   8  34   8  35   8  36   8
M  ISO  8  37  13  38  13  39  13  40  13  41  14  42  14  45   8  46   8
M  ISO  5  47  14  48   8  49   8  50   8  51   9
M  END
>  <minimizedAffinity>  (1) 
-5.69951773

>  <minimizedRMSD>  (1) 
0.900103569

$$$$
