
     RDKit          3D

 48 51  0  0  1  0  0  0  0  0999 V2000
   47.1220   34.0130   41.7940 C   0  0  1  0  0  0  0  0  0  0  0  0
   45.7870   34.4420   41.4370 C   0  0  0  0  0  0  0  0  0  0  0  0
   45.2360   33.6830   40.4110 C   0  0  0  0  0  0  0  0  0  0  0  0
   43.9040   34.0220   40.0220 C   0  0  0  0  0  0  0  0  0  0  0  0
   43.2570   35.0440   40.6570 N   0  0  0  0  0  0  0  0  0  0  0  0
   43.8390   35.7370   41.6340 C   0  0  0  0  0  0  0  0  0  0  0  0
   45.0690   35.4190   41.9890 N   0  0  0  0  0  0  0  0  0  0  0  0
   48.1480   34.9680   41.1200 C   0  0  0  0  0  0  0  0  0  0  0  0
   47.3220   34.2420   43.2900 C   0  0  0  0  0  0  0  0  0  0  0  0
   46.6860   33.1110   44.0830 C   0  0  2  0  0  0  0  0  0  0  0  0
   45.2530   32.9380   44.2680 C   0  0  0  0  0  0  0  0  0  0  0  0
   46.1360   33.4440   45.4100 C   0  0  1  0  0  0  0  0  0  0  0  0
   46.1350   32.5610   46.5430 N   0  0  0  0  0  0  0  0  0  0  0  0
   45.4430   32.7110   47.6720 N   0  0  0  0  0  0  0  0  0  0  0  0
   45.7070   31.6730   48.4940 C   0  0  0  0  0  0  0  0  0  0  0  0
   46.5970   30.8720   47.8190 C   0  0  0  0  0  0  0  0  0  0  0  0
   46.8520   31.4560   46.5860 C   0  0  0  0  0  0  0  0  0  0  0  0
   47.7290   30.8200   45.7200 N   0  0  0  0  0  0  0  0  0  0  0  0
   47.5310   32.6660   41.4380 C   0  0  0  0  0  0  0  0  0  0  0  0
   48.9370   32.3890   41.3560 N   0  0  0  0  0  0  0  0  0  0  0  0
   49.9330   32.3090   42.2100 C   0  0  0  0  0  0  0  0  0  0  0  0
   51.2400   32.0340   41.9110 C   0  0  0  0  0  0  0  0  0  0  0  0
   51.6390   31.8050   40.6140 C   0  0  0  0  0  0  0  0  0  0  0  0
   52.8370   31.5540   40.3370 O   0  0  0  0  0  0  0  0  0  0  0  0
   50.6680   31.8720   39.6900 N   0  0  0  0  0  0  0  0  0  0  0  0
   49.3900   32.1520   40.0740 C   0  0  0  0  0  0  0  0  0  0  0  0
   48.6550   32.1560   39.0220 O   0  0  0  0  0  0  0  0  0  0  0  0
   45.7937   32.8681   39.9264 H   0  0  0  0  0  0  0  0  0  0  0  0
   43.4029   33.4643   39.2171 H   0  0  0  0  0  0  0  0  0  0  0  0
   43.3049   36.5579   42.1348 H   0  0  0  0  0  0  0  0  0  0  0  0
   48.7189   35.4993   41.8958 H   0  0  0  0  0  0  0  0  0  0  0  0
   48.8373   34.3826   40.4938 H   0  0  0  0  0  0  0  0  0  0  0  0
   47.6135   35.6975   40.4938 H   0  0  0  0  0  0  0  0  0  0  0  0
   48.3989   34.2803   43.5111 H   0  0  0  0  0  0  0  0  0  0  0  0
   46.8466   35.1922   43.5748 H   0  0  0  0  0  0  0  0  0  0  0  0
   47.4434   32.4252   43.6754 H   0  0  0  0  0  0  0  0  0  0  0  0
   44.5459   33.6197   43.7728 H   0  0  0  0  0  0  0  0  0  0  0  0
   44.5411   32.1097   44.1369 H   0  0  0  0  0  0  0  0  0  0  0  0
   46.2898   34.3228   46.0535 H   0  0  0  0  0  0  0  0  0  0  0  0
   45.2940   31.5029   49.4992 H   0  0  0  0  0  0  0  0  0  0  0  0
   47.0313   29.9323   48.1910 H   0  0  0  0  0  0  0  0  0  0  0  0
   48.1763   29.9349   45.9982 H   0  0  0  0  0  0  0  0  0  0  0  0
   47.9330   31.2328   44.7987 H   0  0  0  0  0  0  0  0  0  0  0  0
   47.1067   31.9854   42.1909 H   0  0  0  0  0  0  0  0  0  0  0  0
   47.1633   32.5294   40.4103 H   0  0  0  0  0  0  0  0  0  0  0  0
   49.6923   32.4800   43.2696 H   0  0  0  0  0  0  0  0  0  0  0  0
   51.9836   31.9954   42.7206 H   0  0  0  0  0  0  0  0  0  0  0  0
   50.8870   31.7128   38.6962 H   0  0  0  0  0  0  0  0  0  0  0  0
  1  8  1  6
  1  9  1  0
  2  1  1  0
  2  7  1  0
  3  2  2  0
  4  3  1  0
  4  5  2  0
  5  6  1  0
  6  7  2  0
  9 10  1  0
 10 11  1  0
 10 12  1  0
 11 12  1  0
 12 13  1  0
 13 17  1  0
 13 14  1  0
 14 15  2  0
 16 15  1  0
 17 16  2  0
 18 17  1  0
 19  1  1  0
 20 19  1  0
 20 21  1  0
 22 21  2  0
 23 22  1  0
 24 23  2  0
 25 26  1  0
 25 23  1  0
 26 20  1  0
 27 26  2  0
  3 28  1  0
  4 29  1  0
  6 30  1  0
  8 31  1  0
  8 32  1  0
  8 33  1  0
  9 34  1  0
  9 35  1  0
 10 36  1  1
 11 37  1  0
 11 38  1  0
 12 39  1  1
 15 40  1  0
 16 41  1  0
 18 42  1  0
 18 43  1  0
 19 44  1  0
 19 45  1  0
 21 46  1  0
 22 47  1  0
 25 48  1  0
M  ISO  8  28  14  29  14  30  14  31   8  32   8  33   8  34   8  35   8
M  ISO  8  36  13  37  13  38  13  39  13  40  14  41  14  44   8  45   8
M  ISO  3  46  14  47  14  48   9
M  END
>  <minimizedAffinity>  (1) 
-5.57806301

>  <minimizedRMSD>  (1) 
0.636698067

$$$$
