
     RDKit          3D

 45 48  0  0  1  0  0  0  0  0999 V2000
   46.6410   34.0220   41.9400 C   0  0  1  0  0  0  0  0  0  0  0  0
   45.3390   34.4080   41.4230 C   0  0  0  0  0  0  0  0  0  0  0  0
   44.8990   33.5870   40.3890 C   0  0  0  0  0  0  0  0  0  0  0  0
   43.6220   33.8790   39.8360 C   0  0  0  0  0  0  0  0  0  0  0  0
   42.9110   34.9310   40.3380 N   0  0  0  0  0  0  0  0  0  0  0  0
   43.3820   35.6930   41.3360 C   0  0  0  0  0  0  0  0  0  0  0  0
   44.5710   35.4030   41.8360 N   0  0  0  0  0  0  0  0  0  0  0  0
   47.7480   34.7230   41.1180 C   0  0  0  0  0  0  0  0  0  0  0  0
   46.7810   34.5610   43.3540 C   0  0  0  0  0  0  0  0  0  0  0  0
   45.7870   33.8830   44.2870 C   0  0  2  0  0  0  0  0  0  0  0  0
   45.0210   34.5850   45.3060 C   0  0  0  0  0  0  0  0  0  0  0  0
   46.2150   33.7110   45.6920 C   0  0  1  0  0  0  0  0  0  0  0  0
   45.8500   32.6070   46.5310 N   0  0  0  0  0  0  0  0  0  0  0  0
   45.2580   32.6610   47.7220 N   0  0  0  0  0  0  0  0  0  0  0  0
   45.0810   31.4120   48.1910 C   0  0  0  0  0  0  0  0  0  0  0  0
   45.5950   30.5660   47.2290 C   0  0  0  0  0  0  0  0  0  0  0  0
   46.0750   31.3550   46.1880 C   0  0  0  0  0  0  0  0  0  0  0  0
   46.6470   30.7220   45.0870 N   0  0  0  0  0  0  0  0  0  0  0  0
   46.9930   32.6070   41.9270 C   0  0  0  0  0  0  0  0  0  0  0  0
   48.4350   32.4090   41.6170 C   0  0  0  0  0  0  0  0  0  0  0  0
   49.2560   32.2060   40.5510 C   0  0  0  0  0  0  0  0  0  0  0  0
   50.5280   32.1020   40.9020 N   0  0  0  0  0  0  0  0  0  0  0  0
   50.6270   32.2300   42.2230 C   0  0  0  0  0  0  0  0  0  0  0  0
   49.3610   32.4150   42.6360 N   0  0  0  0  0  0  0  0  0  0  0  0
   45.5103   32.7516   40.0171 H   0  0  0  0  0  0  0  0  0  0  0  0
   43.2138   33.2677   39.0176 H   0  0  0  0  0  0  0  0  0  0  0  0
   42.7949   36.5366   41.7280 H   0  0  0  0  0  0  0  0  0  0  0  0
   48.4760   35.1840   41.8017 H   0  0  0  0  0  0  0  0  0  0  0  0
   48.2581   33.9829   40.4839 H   0  0  0  0  0  0  0  0  0  0  0  0
   47.2971   35.5005   40.4839 H   0  0  0  0  0  0  0  0  0  0  0  0
   47.8028   34.3703   43.7140 H   0  0  0  0  0  0  0  0  0  0  0  0
   46.5768   35.6418   43.3433 H   0  0  0  0  0  0  0  0  0  0  0  0
   45.4558   33.2368   43.4607 H   0  0  0  0  0  0  0  0  0  0  0  0
   45.0882   35.6797   45.3905 H   0  0  0  0  0  0  0  0  0  0  0  0
   43.9602   34.6305   45.5936 H   0  0  0  0  0  0  0  0  0  0  0  0
   47.2105   33.7727   46.1559 H   0  0  0  0  0  0  0  0  0  0  0  0
   44.6201   31.1237   49.1473 H   0  0  0  0  0  0  0  0  0  0  0  0
   45.6206   29.4673   47.2766 H   0  0  0  0  0  0  0  0  0  0  0  0
   46.7071   29.6942   45.0576 H   0  0  0  0  0  0  0  0  0  0  0  0
   47.0099   31.2817   44.3022 H   0  0  0  0  0  0  0  0  0  0  0  0
   46.7769   32.1753   42.9154 H   0  0  0  0  0  0  0  0  0  0  0  0
   46.3995   32.1098   41.1457 H   0  0  0  0  0  0  0  0  0  0  0  0
   48.9016   32.1360   39.5120 H   0  0  0  0  0  0  0  0  0  0  0  0
   51.5384   32.1928   42.8378 H   0  0  0  0  0  0  0  0  0  0  0  0
   49.1068   32.5491   43.6251 H   0  0  0  0  0  0  0  0  0  0  0  0
  1  8  1  6
  1  9  1  0
  2  7  1  0
  2  1  1  0
  3  2  2  0
  4  5  2  0
  4  3  1  0
  5  6  1  0
  6  7  2  0
  9 10  1  0
 10 11  1  0
 10 12  1  0
 11 12  1  0
 12 13  1  0
 13 14  1  0
 14 15  2  0
 16 15  1  0
 17 13  1  0
 17 16  2  0
 18 17  1  0
 19  1  1  0
 20 19  1  0
 20 24  1  0
 21 22  1  0
 21 20  2  0
 22 23  2  0
 23 24  1  0
  3 25  1  0
  4 26  1  0
  6 27  1  0
  8 28  1  0
  8 29  1  0
  8 30  1  0
  9 31  1  0
  9 32  1  0
 10 33  1  6
 11 34  1  0
 11 35  1  0
 12 36  1  6
 15 37  1  0
 16 38  1  0
 18 39  1  0
 18 40  1  0
 19 41  1  0
 19 42  1  0
 21 43  1  0
 23 44  1  0
 24 45  1  0
M  ISO  8  25  14  26  14  27  14  28   8  29   8  30   8  31   8  32   8
M  ISO  8  33  13  34  13  35  13  36  13  37  14  38  14  41   8  42   8
M  ISO  3  43  14  44  14  45   9
M  END
>  <minimizedAffinity>  (1) 
-5.08701563

>  <minimizedRMSD>  (1) 
0.88068819

$$$$
