
     RDKit          3D

 52 55  0  0  1  0  0  0  0  0999 V2000
   47.1530   34.1710   41.8970 C   0  0  1  0  0  0  0  0  0  0  0  0
   45.7930   34.4320   41.4200 C   0  0  0  0  0  0  0  0  0  0  0  0
   45.3650   33.6130   40.4070 C   0  0  0  0  0  0  0  0  0  0  0  0
   44.0610   33.7920   39.8740 C   0  0  0  0  0  0  0  0  0  0  0  0
   43.2930   34.7790   40.4020 N   0  0  0  0  0  0  0  0  0  0  0  0
   43.7300   35.5640   41.3880 C   0  0  0  0  0  0  0  0  0  0  0  0
   44.9450   35.3720   41.8600 N   0  0  0  0  0  0  0  0  0  0  0  0
   48.1120   35.1530   41.2590 C   0  0  0  0  0  0  0  0  0  0  0  0
   47.1310   34.4010   43.4030 C   0  0  0  0  0  0  0  0  0  0  0  0
   46.5940   33.2150   44.1630 C   0  0  2  0  0  0  0  0  0  0  0  0
   45.1760   32.9250   44.2800 C   0  0  0  0  0  0  0  0  0  0  0  0
   45.9460   33.5240   45.4540 C   0  0  1  0  0  0  0  0  0  0  0  0
   45.9540   32.6730   46.6070 N   0  0  0  0  0  0  0  0  0  0  0  0
   45.2490   32.8030   47.7220 N   0  0  0  0  0  0  0  0  0  0  0  0
   45.5400   31.7940   48.5640 C   0  0  0  0  0  0  0  0  0  0  0  0
   46.4670   31.0240   47.9180 C   0  0  0  0  0  0  0  0  0  0  0  0
   46.7170   31.6010   46.6720 C   0  0  0  0  0  0  0  0  0  0  0  0
   47.6380   30.9880   45.8250 N   0  0  0  0  0  0  0  0  0  0  0  0
   47.6390   32.8100   41.6220 C   0  0  0  0  0  0  0  0  0  0  0  0
   48.9610   32.4910   41.6010 N   0  0  0  0  0  0  0  0  0  0  0  0
   49.4920   32.4320   40.2650 C   0  0  0  0  0  0  0  0  0  0  0  0
   50.7510   31.6330   40.2010 C   0  0  0  0  0  0  0  0  0  0  0  0
   51.7580   32.2360   41.0160 N   0  0  0  0  0  0  0  0  0  0  0  0
   51.2040   33.0440   42.0730 C   0  0  0  0  0  0  0  0  0  0  0  0
   49.8920   32.4230   42.5830 C   0  0  0  0  0  0  0  0  0  0  0  0
   46.0243   32.8262   40.0117 H   0  0  0  0  0  0  0  0  0  0  0  0
   43.6861   33.1528   39.0611 H   0  0  0  0  0  0  0  0  0  0  0  0
   43.0879   36.3568   41.7993 H   0  0  0  0  0  0  0  0  0  0  0  0
   48.6497   35.7036   42.0449 H   0  0  0  0  0  0  0  0  0  0  0  0
   48.8342   34.6070   40.6342 H   0  0  0  0  0  0  0  0  0  0  0  0
   47.5490   35.8620   40.6342 H   0  0  0  0  0  0  0  0  0  0  0  0
   48.1574   34.6023   43.7436 H   0  0  0  0  0  0  0  0  0  0  0  0
   46.4636   35.2529   43.6001 H   0  0  0  0  0  0  0  0  0  0  0  0
   47.4264   32.5891   43.8090 H   0  0  0  0  0  0  0  0  0  0  0  0
   44.4413   33.5346   43.7336 H   0  0  0  0  0  0  0  0  0  0  0  0
   44.5454   32.0360   44.1313 H   0  0  0  0  0  0  0  0  0  0  0  0
   45.9913   34.4238   46.0851 H   0  0  0  0  0  0  0  0  0  0  0  0
   45.1187   31.6239   49.5658 H   0  0  0  0  0  0  0  0  0  0  0  0
   46.9343   30.1093   48.3117 H   0  0  0  0  0  0  0  0  0  0  0  0
   48.1170   30.1261   46.1225 H   0  0  0  0  0  0  0  0  0  0  0  0
   47.8398   31.3968   44.9014 H   0  0  0  0  0  0  0  0  0  0  0  0
   47.1821   32.1636   42.3859 H   0  0  0  0  0  0  0  0  0  0  0  0
   47.3627   32.6842   40.5647 H   0  0  0  0  0  0  0  0  0  0  0  0
   48.7434   31.9695   39.6049 H   0  0  0  0  0  0  0  0  0  0  0  0
   49.7232   33.4586   39.9445 H   0  0  0  0  0  0  0  0  0  0  0  0
   50.5532   30.6130   40.5623 H   0  0  0  0  0  0  0  0  0  0  0  0
   51.1034   31.5997   39.1595 H   0  0  0  0  0  0  0  0  0  0  0  0
   52.3322   31.4913   41.4362 H   0  0  0  0  0  0  0  0  0  0  0  0
   51.9248   33.1024   42.9018 H   0  0  0  0  0  0  0  0  0  0  0  0
   50.9972   34.0520   41.6841 H   0  0  0  0  0  0  0  0  0  0  0  0
   49.5394   32.9783   43.4646 H   0  0  0  0  0  0  0  0  0  0  0  0
   50.0618   31.3726   42.8622 H   0  0  0  0  0  0  0  0  0  0  0  0
  1  8  1  6
  1  9  1  0
  2  7  1  0
  2  1  1  0
  3  2  2  0
  4  5  2  0
  4  3  1  0
  5  6  1  0
  6  7  2  0
  9 10  1  0
 10 11  1  0
 10 12  1  0
 11 12  1  0
 12 13  1  0
 13 17  1  0
 13 14  1  0
 14 15  2  0
 16 15  1  0
 17 16  2  0
 18 17  1  0
 19  1  1  0
 20 19  1  0
 20 25  1  0
 21 20  1  0
 22 21  1  0
 22 23  1  0
 23 24  1  0
 24 25  1  0
  3 26  1  0
  4 27  1  0
  6 28  1  0
  8 29  1  0
  8 30  1  0
  8 31  1  0
  9 32  1  0
  9 33  1  0
 10 34  1  1
 11 35  1  0
 11 36  1  0
 12 37  1  1
 15 38  1  0
 16 39  1  0
 18 40  1  0
 18 41  1  0
 19 42  1  0
 19 43  1  0
 21 44  1  0
 21 45  1  0
 22 46  1  0
 22 47  1  0
 23 48  1  0
 24 49  1  0
 24 50  1  0
 25 51  1  0
 25 52  1  0
M  ISO  8  26  14  27  14  28  14  29   8  30   8  31   8  32   8  33   8
M  ISO  8  34  13  35  13  36  13  37  13  38  14  39  14  42   8  43   8
M  ISO  8  44  13  45  13  46  13  47  13  48   5  49  13  50  13  51  13
M  ISO  1  52  13
M  END
>  <minimizedAffinity>  (1) 
-5.24958038

>  <minimizedRMSD>  (1) 
0.714869142

$$$$
