
     RDKit          3D

 46 49  0  0  1  0  0  0  0  0999 V2000
   46.6820   34.0920   41.9690 C   0  0  1  0  0  0  0  0  0  0  0  0
   45.3650   34.3960   41.4430 C   0  0  0  0  0  0  0  0  0  0  0  0
   44.9430   33.5160   40.4660 C   0  0  0  0  0  0  0  0  0  0  0  0
   43.6490   33.7320   39.9020 C   0  0  0  0  0  0  0  0  0  0  0  0
   42.9110   34.7890   40.3570 N   0  0  0  0  0  0  0  0  0  0  0  0
   43.3690   35.6170   41.3090 C   0  0  0  0  0  0  0  0  0  0  0  0
   44.5700   35.3940   41.8150 N   0  0  0  0  0  0  0  0  0  0  0  0
   47.7450   34.8650   41.1630 C   0  0  0  0  0  0  0  0  0  0  0  0
   46.7750   34.6180   43.3890 C   0  0  0  0  0  0  0  0  0  0  0  0
   45.7790   33.9180   44.3020 C   0  0  2  0  0  0  0  0  0  0  0  0
   44.9890   34.6040   45.3160 C   0  0  0  0  0  0  0  0  0  0  0  0
   46.1990   33.7480   45.7120 C   0  0  1  0  0  0  0  0  0  0  0  0
   45.8400   32.6310   46.5390 N   0  0  0  0  0  0  0  0  0  0  0  0
   45.2500   32.6590   47.7270 N   0  0  0  0  0  0  0  0  0  0  0  0
   45.0810   31.4070   48.1810 C   0  0  0  0  0  0  0  0  0  0  0  0
   45.6030   30.5720   47.2080 C   0  0  0  0  0  0  0  0  0  0  0  0
   46.0760   31.3840   46.1800 C   0  0  0  0  0  0  0  0  0  0  0  0
   46.6560   30.7650   45.0680 N   0  0  0  0  0  0  0  0  0  0  0  0
   47.0950   32.6940   41.9480 C   0  0  0  0  0  0  0  0  0  0  0  0
   48.5580   32.5230   41.7700 C   0  0  0  0  0  0  0  0  0  0  0  0
   48.9820   31.9430   40.5580 C   0  0  0  0  0  0  0  0  0  0  0  0
   50.2770   31.6880   40.1590 C   0  0  0  0  0  0  0  0  0  0  0  0
   51.2430   32.0370   41.0370 N   0  0  0  0  0  0  0  0  0  0  0  0
   50.8800   32.5980   42.2130 C   0  0  0  0  0  0  0  0  0  0  0  0
   49.6190   32.8110   42.5260 N   0  0  0  0  0  0  0  0  0  0  0  0
   45.5787   32.6814   40.1352 H   0  0  0  0  0  0  0  0  0  0  0  0
   43.2559   33.0646   39.1210 H   0  0  0  0  0  0  0  0  0  0  0  0
   42.7588   36.4621   41.6603 H   0  0  0  0  0  0  0  0  0  0  0  0
   48.4363   35.3677   41.8554 H   0  0  0  0  0  0  0  0  0  0  0  0
   48.3068   34.1630   40.5293 H   0  0  0  0  0  0  0  0  0  0  0  0
   47.2503   35.6158   40.5293 H   0  0  0  0  0  0  0  0  0  0  0  0
   47.7927   34.4459   43.7694 H   0  0  0  0  0  0  0  0  0  0  0  0
   46.5414   35.6929   43.3781 H   0  0  0  0  0  0  0  0  0  0  0  0
   45.4648   33.2703   43.4702 H   0  0  0  0  0  0  0  0  0  0  0  0
   45.0353   35.6995   45.4041 H   0  0  0  0  0  0  0  0  0  0  0  0
   43.9248   34.6295   45.5933 H   0  0  0  0  0  0  0  0  0  0  0  0
   47.1883   33.8269   46.1864 H   0  0  0  0  0  0  0  0  0  0  0  0
   44.6208   31.1056   49.1335 H   0  0  0  0  0  0  0  0  0  0  0  0
   45.6377   29.4730   47.2406 H   0  0  0  0  0  0  0  0  0  0  0  0
   46.7240   29.7380   45.0274 H   0  0  0  0  0  0  0  0  0  0  0  0
   47.0152   31.3361   44.2897 H   0  0  0  0  0  0  0  0  0  0  0  0
   46.8011   32.2276   42.8999 H   0  0  0  0  0  0  0  0  0  0  0  0
   46.6016   32.2187   41.0874 H   0  0  0  0  0  0  0  0  0  0  0  0
   48.1894   31.6615   39.8491 H   0  0  0  0  0  0  0  0  0  0  0  0
   50.5092   31.2291   39.1866 H   0  0  0  0  0  0  0  0  0  0  0  0
   51.6629   32.8853   42.9304 H   0  0  0  0  0  0  0  0  0  0  0  0
  1  8  1  6
  1  9  1  0
  2  7  1  0
  2  1  1  0
  3  2  2  0
  4  5  2  0
  4  3  1  0
  5  6  1  0
  6  7  2  0
  9 10  1  0
 10 11  1  0
 10 12  1  0
 11 12  1  0
 12 13  1  0
 13 14  1  0
 14 15  2  0
 16 15  1  0
 17 13  1  0
 17 16  2  0
 18 17  1  0
 19  1  1  0
 20 19  1  0
 20 25  1  0
 21 20  2  0
 22 21  1  0
 22 23  2  0
 23 24  1  0
 24 25  2  0
  3 26  1  0
  4 27  1  0
  6 28  1  0
  8 29  1  0
  8 30  1  0
  8 31  1  0
  9 32  1  0
  9 33  1  0
 10 34  1  6
 11 35  1  0
 11 36  1  0
 12 37  1  6
 15 38  1  0
 16 39  1  0
 18 40  1  0
 18 41  1  0
 19 42  1  0
 19 43  1  0
 21 44  1  0
 22 45  1  0
 24 46  1  0
M  ISO  8  26  14  27  14  28  14  29   8  30   8  31   8  32   8  33   8
M  ISO  8  34  13  35  13  36  13  37  13  38  14  39  14  42   8  43   8
M  ISO  3  44  14  45  14  46  14
M  END
>  <minimizedAffinity>  (1) 
-5.29004622

>  <minimizedRMSD>  (1) 
0.881983936

$$$$
