
     RDKit          3D

 37 39  0  0  1  0  0  0  0  0999 V2000
   44.5240   35.9430   44.8900 C   0  0  0  0  0  0  0  0  0  0  0  0
   45.1080   35.9620   43.5940 C   0  0  0  0  0  0  0  0  0  0  0  0
   45.9300   34.8970   43.2510 C   0  0  0  0  0  0  0  0  0  0  0  0
   46.1290   33.9040   44.1660 N   0  0  0  0  0  0  0  0  0  0  0  0
   45.5550   33.9310   45.3800 C   0  0  0  0  0  0  0  0  0  0  0  0
   44.7590   34.9380   45.7450 N   0  0  0  0  0  0  0  0  0  0  0  0
   45.8030   32.8440   46.3240 N   0  0  0  0  0  0  0  0  0  0  0  0
   45.1790   32.8590   47.6380 C   0  0  0  0  0  0  0  0  0  0  0  0
   46.0670   32.2880   48.7020 C   0  0  0  0  0  0  0  0  0  0  0  0
   47.4710   32.2060   48.2140 C   0  0  0  0  0  0  0  0  0  0  0  0
   47.4800   31.2140   47.0560 C   0  0  0  0  0  0  0  0  0  0  0  0
   46.6830   31.7570   45.9270 C   0  0  1  0  0  0  0  0  0  0  0  0
   45.9350   30.7060   45.1760 C   0  0  0  0  0  0  0  0  0  0  0  0
   45.8550   30.5150   43.8590 N   0  0  0  0  0  0  0  0  0  0  0  0
   45.1220   29.4930   43.5580 O   0  0  0  0  0  0  0  0  0  0  0  0
   44.6940   28.9750   44.6940 C   0  0  0  0  0  0  0  0  0  0  0  0
   45.1810   29.7040   45.7000 N   0  0  0  0  0  0  0  0  0  0  0  0
   43.8540   27.8260   44.7300 N   0  0  0  0  0  0  0  0  0  0  0  0
   42.5770   27.9300   45.3160 C   0  0  0  0  0  0  0  0  0  0  0  0
   41.8550   28.9840   45.1960 N   0  0  0  0  0  0  0  0  0  0  0  0
   42.0250   26.8460   46.0760 N   0  0  0  0  0  0  0  0  0  0  0  0
   42.2100   29.7840   44.6560 H   0  0  0  0  0  0  0  0  0  0  0  0
   43.8663   36.7695   45.1971 H   0  0  0  0  0  0  0  0  0  0  0  0
   44.9165   36.7867   42.8917 H   0  0  0  0  0  0  0  0  0  0  0  0
   46.4108   34.8544   42.2626 H   0  0  0  0  0  0  0  0  0  0  0  0
   44.9367   33.8991   47.9015 H   0  0  0  0  0  0  0  0  0  0  0  0
   44.2754   32.2338   47.5859 H   0  0  0  0  0  0  0  0  0  0  0  0
   46.0291   32.9340   49.5915 H   0  0  0  0  0  0  0  0  0  0  0  0
   45.7167   31.2766   48.9557 H   0  0  0  0  0  0  0  0  0  0  0  0
   47.8097   33.1939   47.8685 H   0  0  0  0  0  0  0  0  0  0  0  0
   48.1486   31.8802   49.0169 H   0  0  0  0  0  0  0  0  0  0  0  0
   48.5158   31.0468   46.7255 H   0  0  0  0  0  0  0  0  0  0  0  0
   47.0405   30.2618   47.3880 H   0  0  0  0  0  0  0  0  0  0  0  0
   47.4269   32.1777   45.2344 H   0  0  0  0  0  0  0  0  0  0  0  0
   44.1753   26.9314   44.3333 H   0  0  0  0  0  0  0  0  0  0  0  0
   41.0900   26.9368   46.4985 H   0  0  0  0  0  0  0  0  0  0  0  0
   42.5636   25.9767   46.1993 H   0  0  0  0  0  0  0  0  0  0  0  0
  1  6  2  0
  2  1  1  0
  3  2  2  0
  3  4  1  0
  4  5  2  0
  5  6  1  0
  5  7  1  0
  7  8  1  0
  8  9  1  0
 10  9  1  0
 11 10  1  0
 12  7  1  0
 12 11  1  0
 13 17  1  0
 13 12  1  0
 14 13  2  0
 15 14  1  0
 15 16  1  0
 16 18  1  0
 16 17  2  0
 18 19  1  0
 19 21  1  0
 20 19  2  0
 22 20  1  0
  1 23  1  0
  2 24  1  0
  3 25  1  0
  8 26  1  0
  8 27  1  0
  9 28  1  0
  9 29  1  0
 10 30  1  0
 10 31  1  0
 11 32  1  0
 11 33  1  0
 12 34  1  6
 18 35  1  0
 21 36  1  0
 21 37  1  0
M  ISO  8  23  14  24  14  25  14  26  13  27  13  28  13  29  13  30  13
M  ISO  4  31  13  32  13  33  13  34  13
M  END
>  <minimizedAffinity>  (1) 
-5.82429314

>  <minimizedRMSD>  (1) 
0.20531638

$$$$
