
     RDKit          3D

 53 56  0  0  1  0  0  0  0  0999 V2000
   46.2510   33.9840   41.9500 C   0  0  1  0  0  0  0  0  0  0  0  0
   44.8300   34.1060   41.5650 C   0  0  0  0  0  0  0  0  0  0  0  0
   44.1880   32.9300   41.2950 C   0  0  0  0  0  0  0  0  0  0  0  0
   42.8360   32.9350   40.9050 C   0  0  0  0  0  0  0  0  0  0  0  0
   42.2160   34.1430   40.8130 N   0  0  0  0  0  0  0  0  0  0  0  0
   42.8550   35.2810   41.0800 C   0  0  0  0  0  0  0  0  0  0  0  0
   44.1210   35.2360   41.4430 N   0  0  0  0  0  0  0  0  0  0  0  0
   47.1040   34.7150   40.9440 C   0  0  0  0  0  0  0  0  0  0  0  0
   46.3710   34.6490   43.3130 C   0  0  0  0  0  0  0  0  0  0  0  0
   45.4750   34.0410   44.3540 C   0  0  2  0  0  0  0  0  0  0  0  0
   44.9210   34.8000   45.4630 C   0  0  0  0  0  0  0  0  0  0  0  0
   46.0860   33.8270   45.6820 C   0  0  1  0  0  0  0  0  0  0  0  0
   45.7680   32.7600   46.5720 N   0  0  0  0  0  0  0  0  0  0  0  0
   45.1470   32.8210   47.7420 N   0  0  0  0  0  0  0  0  0  0  0  0
   45.0390   31.5890   48.2720 C   0  0  0  0  0  0  0  0  0  0  0  0
   45.6300   30.7370   47.3710 C   0  0  0  0  0  0  0  0  0  0  0  0
   46.0840   31.5000   46.3030 C   0  0  0  0  0  0  0  0  0  0  0  0
   46.7310   30.8440   45.2440 N   0  0  0  0  0  0  0  0  0  0  0  0
   46.7200   32.5950   42.0590 C   0  0  0  0  0  0  0  0  0  0  0  0
   47.9160   32.2650   42.6640 N   0  0  0  0  0  0  0  0  0  0  0  0
   48.5220   31.1550   41.9690 C   0  0  0  0  0  0  0  0  0  0  0  0
   49.9860   31.0040   42.2380 C   0  0  0  0  0  0  0  0  0  0  0  0
   50.6970   32.2240   41.6910 C   0  0  0  0  0  0  0  0  0  0  0  0
   49.9820   33.5010   42.1020 C   0  0  0  0  0  0  0  0  0  0  0  0
   48.8910   33.1290   43.1210 C   0  0  0  0  0  0  0  0  0  0  0  0
   44.7298   31.9767   41.3828 H   0  0  0  0  0  0  0  0  0  0  0  0
   42.3014   31.9996   40.6833 H   0  0  0  0  0  0  0  0  0  0  0  0
   42.3327   36.2456   40.9985 H   0  0  0  0  0  0  0  0  0  0  0  0
   47.8367   35.3429   41.4720 H   0  0  0  0  0  0  0  0  0  0  0  0
   47.6332   33.9857   40.3131 H   0  0  0  0  0  0  0  0  0  0  0  0
   46.4643   35.3496   40.3131 H   0  0  0  0  0  0  0  0  0  0  0  0
   47.4129   34.5594   43.6542 H   0  0  0  0  0  0  0  0  0  0  0  0
   46.0623   35.6977   43.1911 H   0  0  0  0  0  0  0  0  0  0  0  0
   44.9790   33.4243   43.5900 H   0  0  0  0  0  0  0  0  0  0  0  0
   45.0884   35.8853   45.5276 H   0  0  0  0  0  0  0  0  0  0  0  0
   43.9193   34.9317   45.8980 H   0  0  0  0  0  0  0  0  0  0  0  0
   47.1397   33.8038   45.9969 H   0  0  0  0  0  0  0  0  0  0  0  0
   44.5727   31.3191   49.2310 H   0  0  0  0  0  0  0  0  0  0  0  0
   45.7264   29.6463   47.4764 H   0  0  0  0  0  0  0  0  0  0  0  0
   46.8581   29.8222   45.2719 H   0  0  0  0  0  0  0  0  0  0  0  0
   47.0787   31.3844   44.4390 H   0  0  0  0  0  0  0  0  0  0  0  0
   45.9382   32.0500   42.6083 H   0  0  0  0  0  0  0  0  0  0  0  0
   46.9188   32.3390   41.0078 H   0  0  0  0  0  0  0  0  0  0  0  0
   48.3810   31.3032   40.8882 H   0  0  0  0  0  0  0  0  0  0  0  0
   48.0320   30.2406   42.3347 H   0  0  0  0  0  0  0  0  0  0  0  0
   50.1593   30.9269   43.3215 H   0  0  0  0  0  0  0  0  0  0  0  0
   50.3687   30.0931   41.7545 H   0  0  0  0  0  0  0  0  0  0  0  0
   50.7224   32.1634   40.5930 H   0  0  0  0  0  0  0  0  0  0  0  0
   51.7181   32.2471   42.0994 H   0  0  0  0  0  0  0  0  0  0  0  0
   50.6983   34.1988   42.5602 H   0  0  0  0  0  0  0  0  0  0  0  0
   49.5337   33.9874   41.2231 H   0  0  0  0  0  0  0  0  0  0  0  0
   48.3965   34.0579   43.4413 H   0  0  0  0  0  0  0  0  0  0  0  0
   49.4076   32.5964   43.9331 H   0  0  0  0  0  0  0  0  0  0  0  0
  1  8  1  6
  1 19  1  0
  1  9  1  0
  2  1  1  0
  3  2  2  0
  4  3  1  0
  5  4  2  0
  5  6  1  0
  6  7  2  0
  7  2  1  0
  9 10  1  0
 10 11  1  0
 10 12  1  0
 11 12  1  0
 12 13  1  0
 13 14  1  0
 14 15  2  0
 16 15  1  0
 17 13  1  0
 17 16  2  0
 18 17  1  0
 19 20  1  0
 20 25  1  0
 21 22  1  0
 21 20  1  0
 23 24  1  0
 23 22  1  0
 24 25  1  0
  3 26  1  0
  4 27  1  0
  6 28  1  0
  8 29  1  0
  8 30  1  0
  8 31  1  0
  9 32  1  0
  9 33  1  0
 10 34  1  6
 11 35  1  0
 11 36  1  0
 12 37  1  6
 15 38  1  0
 16 39  1  0
 18 40  1  0
 18 41  1  0
 19 42  1  0
 19 43  1  0
 21 44  1  0
 21 45  1  0
 22 46  1  0
 22 47  1  0
 23 48  1  0
 23 49  1  0
 24 50  1  0
 24 51  1  0
 25 52  1  0
 25 53  1  0
M  ISO  8  26  14  27  14  28  14  29   8  30   8  31   8  32   8  33   8
M  ISO  8  34  13  35  13  36  13  37  13  38  14  39  14  42   8  43   8
M  ISO  8  44  13  45  13  46  13  47  13  48  13  49  13  50  13  51  13
M  ISO  2  52  13  53  13
M  END
>  <minimizedAffinity>  (1) 
-5.07164097

>  <minimizedRMSD>  (1) 
1.30613399

$$$$
