
     RDKit          3D

 44 47  0  0  1  0  0  0  0  0999 V2000
   46.6970   34.0530   41.9460 C   0  0  1  0  0  0  0  0  0  0  0  0
   45.3410   34.3120   41.4950 C   0  0  0  0  0  0  0  0  0  0  0  0
   44.8120   33.3080   40.7300 C   0  0  0  0  0  0  0  0  0  0  0  0
   43.4790   33.4660   40.2360 C   0  0  0  0  0  0  0  0  0  0  0  0
   42.8150   34.6150   40.5620 N   0  0  0  0  0  0  0  0  0  0  0  0
   43.3770   35.5730   41.3160 C   0  0  0  0  0  0  0  0  0  0  0  0
   44.6130   35.4010   41.7600 N   0  0  0  0  0  0  0  0  0  0  0  0
   47.6960   34.8750   41.1160 C   0  0  0  0  0  0  0  0  0  0  0  0
   46.8240   34.5500   43.3820 C   0  0  0  0  0  0  0  0  0  0  0  0
   45.8090   33.8660   44.2870 C   0  0  2  0  0  0  0  0  0  0  0  0
   45.0230   34.5770   45.2880 C   0  0  0  0  0  0  0  0  0  0  0  0
   46.2180   33.7030   45.6980 C   0  0  1  0  0  0  0  0  0  0  0  0
   45.8440   32.6070   46.5430 N   0  0  0  0  0  0  0  0  0  0  0  0
   45.2580   32.6550   47.7310 N   0  0  0  0  0  0  0  0  0  0  0  0
   45.0750   31.4030   48.1960 C   0  0  0  0  0  0  0  0  0  0  0  0
   45.5780   30.5730   47.2350 C   0  0  0  0  0  0  0  0  0  0  0  0
   46.0630   31.3540   46.1920 C   0  0  0  0  0  0  0  0  0  0  0  0
   46.6300   30.7150   45.0870 N   0  0  0  0  0  0  0  0  0  0  0  0
   47.1680   32.6730   41.8780 C   0  0  0  0  0  0  0  0  0  0  0  0
   48.6220   32.5950   41.8580 N   0  0  0  0  0  0  0  0  0  0  0  0
   49.2790   31.9960   40.8100 C   0  0  0  0  0  0  0  0  0  0  0  0
   50.6140   32.0220   40.9700 N   0  0  0  0  0  0  0  0  0  0  0  0
   50.8190   32.6540   42.1500 C   0  0  0  0  0  0  0  0  0  0  0  0
   49.6190   32.9520   42.5970 N   0  0  0  0  0  0  0  0  0  0  0  0
   45.3960   32.4043   40.5013 H   0  0  0  0  0  0  0  0  0  0  0  0
   43.0054   32.6905   39.6160 H   0  0  0  0  0  0  0  0  0  0  0  0
   42.8187   36.4883   41.5618 H   0  0  0  0  0  0  0  0  0  0  0  0
   48.3668   35.4269   41.7909 H   0  0  0  0  0  0  0  0  0  0  0  0
   48.2888   34.1996   40.4816 H   0  0  0  0  0  0  0  0  0  0  0  0
   47.1474   35.5867   40.4816 H   0  0  0  0  0  0  0  0  0  0  0  0
   47.8378   34.3329   43.7496 H   0  0  0  0  0  0  0  0  0  0  0  0
   46.6330   35.6332   43.3965 H   0  0  0  0  0  0  0  0  0  0  0  0
   45.4899   33.2135   43.4609 H   0  0  0  0  0  0  0  0  0  0  0  0
   45.0874   35.6724   45.3652 H   0  0  0  0  0  0  0  0  0  0  0  0
   43.9579   34.6241   45.5587 H   0  0  0  0  0  0  0  0  0  0  0  0
   47.2078   33.7672   46.1736 H   0  0  0  0  0  0  0  0  0  0  0  0
   44.6156   31.1104   49.1517 H   0  0  0  0  0  0  0  0  0  0  0  0
   45.5963   29.4740   47.2788 H   0  0  0  0  0  0  0  0  0  0  0  0
   46.6825   29.6868   45.0576 H   0  0  0  0  0  0  0  0  0  0  0  0
   46.9956   31.2720   44.3015 H   0  0  0  0  0  0  0  0  0  0  0  0
   46.7947   32.1263   42.7565 H   0  0  0  0  0  0  0  0  0  0  0  0
   46.7903   32.2299   40.9447 H   0  0  0  0  0  0  0  0  0  0  0  0
   48.7725   31.5480   39.9424 H   0  0  0  0  0  0  0  0  0  0  0  0
   51.7837   32.8716   42.6317 H   0  0  0  0  0  0  0  0  0  0  0  0
  1  8  1  6
  1  9  1  0
  2  7  1  0
  2  1  1  0
  3  2  2  0
  4  5  2  0
  4  3  1  0
  5  6  1  0
  6  7  2  0
  9 10  1  0
 10 11  1  0
 10 12  1  0
 11 12  1  0
 12 13  1  0
 13 14  1  0
 14 15  2  0
 16 15  1  0
 17 13  1  0
 17 16  2  0
 18 17  1  0
 19  1  1  0
 20 19  1  0
 20 24  1  0
 21 22  2  0
 21 20  1  0
 22 23  1  0
 23 24  2  0
  3 25  1  0
  4 26  1  0
  6 27  1  0
  8 28  1  0
  8 29  1  0
  8 30  1  0
  9 31  1  0
  9 32  1  0
 10 33  1  6
 11 34  1  0
 11 35  1  0
 12 36  1  6
 15 37  1  0
 16 38  1  0
 18 39  1  0
 18 40  1  0
 19 41  1  0
 19 42  1  0
 21 43  1  0
 23 44  1  0
M  ISO  8  25  14  26  14  27  14  28   8  29   8  30   8  31   8  32   8
M  ISO  8  33  13  34  13  35  13  36  13  37  14  38  14  41   8  42   8
M  ISO  2  43  14  44  14
M  END
>  <minimizedAffinity>  (1) 
-5.04330683

>  <minimizedRMSD>  (1) 
0.871080279

$$$$
