
     RDKit          3D

 46 49  0  0  1  0  0  0  0  0999 V2000
   44.5860   35.7790   44.9360 C   0  0  0  0  0  0  0  0  0  0  0  0
   45.1750   35.7410   43.6460 C   0  0  0  0  0  0  0  0  0  0  0  0
   45.9760   34.6340   43.3510 C   0  0  0  0  0  0  0  0  0  0  0  0
   46.1480   33.6650   44.2980 N   0  0  0  0  0  0  0  0  0  0  0  0
   45.5610   33.7610   45.5020 C   0  0  0  0  0  0  0  0  0  0  0  0
   44.7880   34.8060   45.8190 N   0  0  0  0  0  0  0  0  0  0  0  0
   45.7710   32.7130   46.4950 N   0  0  0  0  0  0  0  0  0  0  0  0
   45.1460   32.7960   47.8040 C   0  0  0  0  0  0  0  0  0  0  0  0
   46.0240   32.2480   48.8930 C   0  0  0  0  0  0  0  0  0  0  0  0
   47.4300   32.1070   48.4030 C   0  0  0  0  0  0  0  0  0  0  0  0
   47.4020   31.0580   47.2970 C   0  0  0  0  0  0  0  0  0  0  0  0
   46.6200   31.5880   46.1470 C   0  0  1  0  0  0  0  0  0  0  0  0
   45.8440   30.5250   45.4280 C   0  0  0  0  0  0  0  0  0  0  0  0
   45.4110   30.5110   44.1690 N   0  0  0  0  0  0  0  0  0  0  0  0
   44.7810   29.4200   43.8810 O   0  0  0  0  0  0  0  0  0  0  0  0
   44.7870   28.6710   44.9710 C   0  0  0  0  0  0  0  0  0  0  0  0
   45.4370   29.3220   45.9520 N   0  0  0  0  0  0  0  0  0  0  0  0
   44.1440   27.3040   45.0370 C   0  0  0  0  0  0  0  0  0  0  0  0
   42.8110   27.4480   45.6600 C   0  0  0  0  0  0  0  0  0  0  0  0
   42.3320   26.3270   46.5100 C   0  0  0  0  0  0  0  0  0  0  0  0
   43.4370   26.0320   47.4980 C   0  0  0  0  0  0  0  0  0  0  0  0
   44.5250   25.4010   46.6650 C   0  0  0  0  0  0  0  0  0  0  0  0
   45.0710   26.2950   45.6050 C   0  0  0  0  0  0  0  0  0  0  0  0
   43.9484   36.6320   45.2116 H   0  0  0  0  0  0  0  0  0  0  0  0
   45.0093   36.5442   42.9129 H   0  0  0  0  0  0  0  0  0  0  0  0
   46.4618   34.5444   42.3682 H   0  0  0  0  0  0  0  0  0  0  0  0
   44.9264   33.8511   48.0245 H   0  0  0  0  0  0  0  0  0  0  0  0
   44.2279   32.1907   47.7766 H   0  0  0  0  0  0  0  0  0  0  0  0
   46.0063   32.9335   49.7531 H   0  0  0  0  0  0  0  0  0  0  0  0
   45.6480   31.2586   49.1925 H   0  0  0  0  0  0  0  0  0  0  0  0
   47.7920   33.0671   48.0066 H   0  0  0  0  0  0  0  0  0  0  0  0
   48.1060   31.8073   49.2174 H   0  0  0  0  0  0  0  0  0  0  0  0
   48.4295   30.8357   46.9733 H   0  0  0  0  0  0  0  0  0  0  0  0
   46.9342   30.1354   47.6712 H   0  0  0  0  0  0  0  0  0  0  0  0
   47.3779   31.9690   45.4467 H   0  0  0  0  0  0  0  0  0  0  0  0
   43.9492   26.8829   44.0396 H   0  0  0  0  0  0  0  0  0  0  0  0
   42.8350   28.3514   46.2871 H   0  0  0  0  0  0  0  0  0  0  0  0
   42.1067   27.4836   44.8158 H   0  0  0  0  0  0  0  0  0  0  0  0
   41.4149   26.6193   47.0424 H   0  0  0  0  0  0  0  0  0  0  0  0
   42.0960   25.4410   45.9023 H   0  0  0  0  0  0  0  0  0  0  0  0
   43.7956   26.9589   47.9695 H   0  0  0  0  0  0  0  0  0  0  0  0
   43.1037   25.3786   48.3177 H   0  0  0  0  0  0  0  0  0  0  0  0
   45.3497   25.1131   47.3335 H   0  0  0  0  0  0  0  0  0  0  0  0
   44.0744   24.5379   46.1531 H   0  0  0  0  0  0  0  0  0  0  0  0
   45.4163   25.6576   44.7777 H   0  0  0  0  0  0  0  0  0  0  0  0
   45.8620   26.8777   46.0998 H   0  0  0  0  0  0  0  0  0  0  0  0
  1  6  2  0
  2  1  1  0
  3  2  2  0
  3  4  1  0
  4  5  2  0
  5  6  1  0
  5  7  1  0
  7  8  1  0
  8  9  1  0
 10  9  1  0
 11 10  1  0
 12  7  1  0
 12 11  1  0
 13 17  1  0
 13 12  1  0
 14 13  2  0
 15 14  1  0
 15 16  1  0
 16 18  1  0
 16 17  2  0
 18 23  1  0
 18 19  1  0
 19 20  1  0
 20 21  1  0
 22 21  1  0
 23 22  1  0
  1 24  1  0
  2 25  1  0
  3 26  1  0
  8 27  1  0
  8 28  1  0
  9 29  1  0
  9 30  1  0
 10 31  1  0
 10 32  1  0
 11 33  1  0
 11 34  1  0
 12 35  1  6
 18 36  1  0
 19 37  1  0
 19 38  1  0
 20 39  1  0
 20 40  1  0
 21 41  1  0
 21 42  1  0
 22 43  1  0
 22 44  1  0
 23 45  1  0
 23 46  1  0
M  ISO  8  24  14  25  14  26  14  27  13  28  13  29  13  30  13  31  13
M  ISO  8  32  13  33  13  34  13  35  13  36  13  37  13  38  13  39  13
M  ISO  7  40  13  41  13  42  13  43  13  44  13  45  13  46  13
M  END
>  <minimizedAffinity>  (1) 
-5.80520201

>  <minimizedRMSD>  (1) 
0.375503153

$$$$
