
     RDKit          3D

 48 51  0  0  1  0  0  0  0  0999 V2000
   43.5970   34.0890   40.9060 C   0  0  1  0  0  0  0  0  0  0  0  0
   42.4110   34.8680   40.5260 C   0  0  0  0  0  0  0  0  0  0  0  0
   42.1640   34.8850   39.1590 C   0  0  0  0  0  0  0  0  0  0  0  0
   41.0440   35.6010   38.6920 C   0  0  0  0  0  0  0  0  0  0  0  0
   40.2630   36.2370   39.5920 N   0  0  0  0  0  0  0  0  0  0  0  0
   40.5220   36.2060   40.8990 C   0  0  0  0  0  0  0  0  0  0  0  0
   41.5740   35.5330   41.3250 N   0  0  0  0  0  0  0  0  0  0  0  0
   44.3300   33.6500   39.6390 C   0  0  0  0  0  0  0  0  0  0  0  0
   44.5120   35.0350   41.6410 C   0  0  0  0  0  0  0  0  0  0  0  0
   44.4680   34.8070   43.1270 C   0  0  2  0  0  0  0  0  0  0  0  0
   44.9250   35.8250   44.0670 C   0  0  0  0  0  0  0  0  0  0  0  0
   45.7980   34.6050   43.7740 C   0  0  1  0  0  0  0  0  0  0  0  0
   45.9940   33.7850   44.9340 N   0  0  0  0  0  0  0  0  0  0  0  0
   45.4010   33.8850   46.1260 N   0  0  0  0  0  0  0  0  0  0  0  0
   45.8650   32.9160   46.9460 C   0  0  0  0  0  0  0  0  0  0  0  0
   46.7740   32.2070   46.2110 C   0  0  0  0  0  0  0  0  0  0  0  0
   46.8420   32.7760   44.9350 C   0  0  0  0  0  0  0  0  0  0  0  0
   47.7150   32.2170   44.0100 N   0  0  0  0  0  0  0  0  0  0  0  0
   43.3330   32.8920   41.6900 C   0  0  0  0  0  0  0  0  0  0  0  0
   42.0850   32.4240   42.0380 N   0  0  0  0  0  0  0  0  0  0  0  0
   40.8480   32.1200   41.4050 C   0  0  0  0  0  0  0  0  0  0  0  0
   40.9540   31.3420   40.2650 C   0  0  0  0  0  0  0  0  0  0  0  0
   39.8900   30.9190   39.5020 C   0  0  0  0  0  0  0  0  0  0  0  0
   38.6420   31.2840   39.8800 N   0  0  0  0  0  0  0  0  0  0  0  0
   38.5070   32.0400   40.9820 C   0  0  0  0  0  0  0  0  0  0  0  0
   39.5600   32.4490   41.7270 N   0  0  0  0  0  0  0  0  0  0  0  0
   42.8257   34.3533   38.4594 H   0  0  0  0  0  0  0  0  0  0  0  0
   40.8107   35.6412   37.6178 H   0  0  0  0  0  0  0  0  0  0  0  0
   39.8695   36.7328   41.6109 H   0  0  0  0  0  0  0  0  0  0  0  0
   45.2435   33.1029   39.9148 H   0  0  0  0  0  0  0  0  0  0  0  0
   43.6756   32.9950   39.0451 H   0  0  0  0  0  0  0  0  0  0  0  0
   44.5985   34.5361   39.0451 H   0  0  0  0  0  0  0  0  0  0  0  0
   45.5422   34.8822   41.2870 H   0  0  0  0  0  0  0  0  0  0  0  0
   44.1757   36.0631   41.4410 H   0  0  0  0  0  0  0  0  0  0  0  0
   43.5179   34.2570   43.0579 H   0  0  0  0  0  0  0  0  0  0  0  0
   45.2255   36.8175   43.7001 H   0  0  0  0  0  0  0  0  0  0  0  0
   44.5121   36.2865   44.9762 H   0  0  0  0  0  0  0  0  0  0  0  0
   46.7789   34.3373   43.3543 H   0  0  0  0  0  0  0  0  0  0  0  0
   45.5715   32.7349   47.9905 H   0  0  0  0  0  0  0  0  0  0  0  0
   47.3518   31.3394   46.5622 H   0  0  0  0  0  0  0  0  0  0  0  0
   48.2877   31.4013   44.2699 H   0  0  0  0  0  0  0  0  0  0  0  0
   47.7895   32.6183   43.0643 H   0  0  0  0  0  0  0  0  0  0  0  0
   43.8077   32.0697   41.1346 H   0  0  0  0  0  0  0  0  0  0  0  0
   43.6975   33.2212   42.6743 H   0  0  0  0  0  0  0  0  0  0  0  0
   42.0323   32.2412   43.0503 H   0  0  0  0  0  0  0  0  0  0  0  0
   41.9624   31.0399   39.9458 H   0  0  0  0  0  0  0  0  0  0  0  0
   40.0493   30.2996   38.6070 H   0  0  0  0  0  0  0  0  0  0  0  0
   37.4954   32.3400   41.2927 H   0  0  0  0  0  0  0  0  0  0  0  0
  1  8  1  6
  1  9  1  0
  1 19  1  0
  2  1  1  0
  2  7  1  0
  3  2  2  0
  4  3  1  0
  4  5  2  0
  5  6  1  0
  6  7  2  0
  9 10  1  0
 10 12  1  0
 10 11  1  0
 12 11  1  0
 12 13  1  0
 13 17  1  0
 13 14  1  0
 14 15  2  0
 16 15  1  0
 17 16  2  0
 18 17  1  0
 19 20  1  0
 21 26  1  0
 21 20  1  0
 22 21  2  0
 23 24  2  0
 23 22  1  0
 24 25  1  0
 25 26  2  0
  3 27  1  0
  4 28  1  0
  6 29  1  0
  8 30  1  0
  8 31  1  0
  8 32  1  0
  9 33  1  0
  9 34  1  0
 10 35  1  1
 11 36  1  0
 11 37  1  0
 12 38  1  6
 15 39  1  0
 16 40  1  0
 18 41  1  0
 18 42  1  0
 19 43  1  0
 19 44  1  0
 20 45  1  0
 22 46  1  0
 23 47  1  0
 25 48  1  0
M  ISO  8  27  14  28  14  29  14  30   8  31   8  32   8  33   8  34   8
M  ISO  8  35  13  36  13  37  13  38  13  39  14  40  14  43   8  44   8
M  ISO  3  46  14  47  14  48  14
M  END
>  <minimizedAffinity>  (1) 
-5.55347633

>  <minimizedRMSD>  (1) 
2.43729234

$$$$
