
     RDKit          3D

 50 53  0  0  1  0  0  0  0  0999 V2000
   43.5500   33.8970   40.6770 C   0  0  1  0  0  0  0  0  0  0  0  0
   42.3800   34.7410   40.4310 C   0  0  0  0  0  0  0  0  0  0  0  0
   41.9300   34.7360   39.1180 C   0  0  0  0  0  0  0  0  0  0  0  0
   40.8080   35.5210   38.7860 C   0  0  0  0  0  0  0  0  0  0  0  0
   40.2260   36.2400   39.7630 N   0  0  0  0  0  0  0  0  0  0  0  0
   40.6780   36.2290   41.0230 C   0  0  0  0  0  0  0  0  0  0  0  0
   41.7260   35.4890   41.3130 N   0  0  0  0  0  0  0  0  0  0  0  0
   44.1330   33.4610   39.3260 C   0  0  0  0  0  0  0  0  0  0  0  0
   44.5990   34.7560   41.3260 C   0  0  0  0  0  0  0  0  0  0  0  0
   44.5810   34.6180   42.8200 C   0  0  2  0  0  0  0  0  0  0  0  0
   45.0580   35.6930   43.6860 C   0  0  0  0  0  0  0  0  0  0  0  0
   45.8980   34.4610   43.4790 C   0  0  1  0  0  0  0  0  0  0  0  0
   46.1120   33.7130   44.6820 N   0  0  0  0  0  0  0  0  0  0  0  0
   45.5330   33.8780   45.8740 N   0  0  0  0  0  0  0  0  0  0  0  0
   46.0090   32.9720   46.7460 C   0  0  0  0  0  0  0  0  0  0  0  0
   46.9070   32.2390   46.0410 C   0  0  0  0  0  0  0  0  0  0  0  0
   46.9740   32.7110   44.7230 C   0  0  0  0  0  0  0  0  0  0  0  0
   47.8450   32.1120   43.8240 N   0  0  0  0  0  0  0  0  0  0  0  0
   43.3000   32.6760   41.4420 C   0  0  0  0  0  0  0  0  0  0  0  0
   42.1580   32.4430   42.1920 N   0  0  0  0  0  0  0  0  0  0  0  0
   40.9660   32.0620   41.4630 C   0  0  0  0  0  0  0  0  0  0  0  0
   41.0880   31.1410   40.4110 C   0  0  0  0  0  0  0  0  0  0  0  0
   40.0270   30.7080   39.6450 C   0  0  0  0  0  0  0  0  0  0  0  0
   38.7730   31.1830   39.8950 C   0  0  0  0  0  0  0  0  0  0  0  0
   38.6010   32.0850   40.9110 C   0  0  0  0  0  0  0  0  0  0  0  0
   39.6830   32.4910   41.6520 C   0  0  0  0  0  0  0  0  0  0  0  0
   42.4388   34.1317   38.3525 H   0  0  0  0  0  0  0  0  0  0  0  0
   40.4190   35.5453   37.7574 H   0  0  0  0  0  0  0  0  0  0  0  0
   40.1822   36.8277   41.8013 H   0  0  0  0  0  0  0  0  0  0  0  0
   45.0034   32.8100   39.4952 H   0  0  0  0  0  0  0  0  0  0  0  0
   43.3688   32.9110   38.7572 H   0  0  0  0  0  0  0  0  0  0  0  0
   44.4446   34.3495   38.7572 H   0  0  0  0  0  0  0  0  0  0  0  0
   45.5885   34.4546   40.9518 H   0  0  0  0  0  0  0  0  0  0  0  0
   44.3866   35.8058   41.0754 H   0  0  0  0  0  0  0  0  0  0  0  0
   43.6332   34.0607   42.7874 H   0  0  0  0  0  0  0  0  0  0  0  0
   45.3719   36.6528   43.2498 H   0  0  0  0  0  0  0  0  0  0  0  0
   44.6563   36.2231   44.5621 H   0  0  0  0  0  0  0  0  0  0  0  0
   46.8763   34.1578   43.0778 H   0  0  0  0  0  0  0  0  0  0  0  0
   45.7304   32.8511   47.8032 H   0  0  0  0  0  0  0  0  0  0  0  0
   47.4942   31.4004   46.4433 H   0  0  0  0  0  0  0  0  0  0  0  0
   48.4269   31.3164   44.1229 H   0  0  0  0  0  0  0  0  0  0  0  0
   47.9096   32.4630   42.8578 H   0  0  0  0  0  0  0  0  0  0  0  0
   43.3484   31.8541   40.7126 H   0  0  0  0  0  0  0  0  0  0  0  0
   44.0520   32.7753   42.2386 H   0  0  0  0  0  0  0  0  0  0  0  0
   42.1571   32.5363   43.2178 H   0  0  0  0  0  0  0  0  0  0  0  0
   42.0877   30.7418   40.1848 H   0  0  0  0  0  0  0  0  0  0  0  0
   40.1909   29.9820   38.8350 H   0  0  0  0  0  0  0  0  0  0  0  0
   37.9162   30.8479   39.2920 H   0  0  0  0  0  0  0  0  0  0  0  0
   37.5996   32.4827   41.1325 H   0  0  0  0  0  0  0  0  0  0  0  0
   39.5032   33.2166   42.4589 H   0  0  0  0  0  0  0  0  0  0  0  0
  1  8  1  6
  1  9  1  0
  1 19  1  0
  2  1  1  0
  2  7  1  0
  3  2  2  0
  4  3  1  0
  4  5  2  0
  5  6  1  0
  6  7  2  0
  9 10  1  0
 10 12  1  0
 10 11  1  0
 12 11  1  0
 12 13  1  0
 13 17  1  0
 13 14  1  0
 14 15  2  0
 16 15  1  0
 17 16  2  0
 18 17  1  0
 19 20  1  0
 21 26  1  0
 21 20  1  0
 22 21  2  0
 23 24  2  0
 23 22  1  0
 24 25  1  0
 25 26  2  0
  3 27  1  0
  4 28  1  0
  6 29  1  0
  8 30  1  0
  8 31  1  0
  8 32  1  0
  9 33  1  0
  9 34  1  0
 10 35  1  1
 11 36  1  0
 11 37  1  0
 12 38  1  6
 15 39  1  0
 16 40  1  0
 18 41  1  0
 18 42  1  0
 19 43  1  0
 19 44  1  0
 20 45  1  0
 22 46  1  0
 23 47  1  0
 24 48  1  0
 25 49  1  0
 26 50  1  0
M  ISO  8  27  14  28  14  29  14  30   8  31   8  32   8  33   8  34   8
M  ISO  8  35  13  36  13  37  13  38  13  39  14  40  14  43   8  44   8
M  ISO  5  46  14  47  14  48  14  49  14  50  14
M  END
>  <minimizedAffinity>  (1) 
-5.53634548

>  <minimizedRMSD>  (1) 
3.88508654

$$$$
