
     RDKit          3D

 37 40  0  0  1  0  0  0  0  0999 V2000
   44.6640   35.6660   44.8760 C   0  0  0  0  0  0  0  0  0  0  0  0
   45.1370   35.5070   43.5440 C   0  0  0  0  0  0  0  0  0  0  0  0
   45.8360   34.3510   43.2570 C   0  0  0  0  0  0  0  0  0  0  0  0
   46.0380   33.4300   44.2430 N   0  0  0  0  0  0  0  0  0  0  0  0
   45.5690   33.6280   45.4920 C   0  0  0  0  0  0  0  0  0  0  0  0
   44.8880   34.7330   45.8090 N   0  0  0  0  0  0  0  0  0  0  0  0
   45.8080   32.6240   46.5250 N   0  0  0  0  0  0  0  0  0  0  0  0
   45.3110   32.8200   47.8710 C   0  0  0  0  0  0  0  0  0  0  0  0
   46.2350   32.2720   48.9180 C   0  0  0  0  0  0  0  0  0  0  0  0
   47.5820   32.0330   48.3250 C   0  0  0  0  0  0  0  0  0  0  0  0
   47.4130   30.9310   47.2870 C   0  0  0  0  0  0  0  0  0  0  0  0
   46.5560   31.4270   46.1790 C   0  0  1  0  0  0  0  0  0  0  0  0
   45.6690   30.3750   45.5970 C   0  0  0  0  0  0  0  0  0  0  0  0
   45.5640   29.9770   44.3300 N   0  0  0  0  0  0  0  0  0  0  0  0
   44.6970   29.0250   44.1880 O   0  0  0  0  0  0  0  0  0  0  0  0
   44.2200   28.7850   45.3720 C   0  0  0  0  0  0  0  0  0  0  0  0
   44.7880   29.5920   46.2710 N   0  0  0  0  0  0  0  0  0  0  0  0
   43.1990   27.7790   45.7220 C   0  0  0  0  0  0  0  0  0  0  0  0
   43.3040   26.6280   46.4960 C   0  0  0  0  0  0  0  0  0  0  0  0
   42.1470   25.9100   46.6200 C   0  0  0  0  0  0  0  0  0  0  0  0
   40.9430   26.2730   46.0320 C   0  0  0  0  0  0  0  0  0  0  0  0
   41.5100   27.8880   45.1560 S   0  0  0  0  0  0  0  0  0  0  0  0
   44.1032   36.5734   45.1445 H   0  0  0  0  0  0  0  0  0  0  0  0
   44.9538   36.2722   42.7753 H   0  0  0  0  0  0  0  0  0  0  0  0
   46.2259   34.1746   42.2437 H   0  0  0  0  0  0  0  0  0  0  0  0
   45.1834   33.8987   48.0448 H   0  0  0  0  0  0  0  0  0  0  0  0
   44.3578   32.2774   47.9541 H   0  0  0  0  0  0  0  0  0  0  0  0
   46.3218   32.9942   49.7432 H   0  0  0  0  0  0  0  0  0  0  0  0
   45.8312   31.3223   49.2989 H   0  0  0  0  0  0  0  0  0  0  0  0
   47.9540   32.9509   47.8465 H   0  0  0  0  0  0  0  0  0  0  0  0
   48.3087   31.7413   49.0975 H   0  0  0  0  0  0  0  0  0  0  0  0
   48.3985   30.6460   46.8900 H   0  0  0  0  0  0  0  0  0  0  0  0
   46.9405   30.0543   47.7540 H   0  0  0  0  0  0  0  0  0  0  0  0
   47.2644   31.7125   45.3873 H   0  0  0  0  0  0  0  0  0  0  0  0
   44.2462   26.3189   46.9721 H   0  0  0  0  0  0  0  0  0  0  0  0
   42.1717   24.9895   47.2218 H   0  0  0  0  0  0  0  0  0  0  0  0
   39.9585   25.7830   46.0591 H   0  0  0  0  0  0  0  0  0  0  0  0
  1  6  2  0
  2  1  1  0
  3  2  2  0
  3  4  1  0
  4  5  2  0
  5  6  1  0
  5  7  1  0
  7  8  1  0
  8  9  1  0
 10  9  1  0
 11 10  1  0
 12  7  1  0
 12 11  1  0
 13 12  1  0
 13 17  1  0
 14 13  2  0
 15 14  1  0
 15 16  1  0
 16 18  1  0
 16 17  2  0
 18 19  2  0
 19 20  1  0
 21 20  2  0
 22 18  1  0
 22 21  1  0
  1 23  1  0
  2 24  1  0
  3 25  1  0
  8 26  1  0
  8 27  1  0
  9 28  1  0
  9 29  1  0
 10 30  1  0
 10 31  1  0
 11 32  1  0
 11 33  1  0
 12 34  1  6
 19 35  1  0
 20 36  1  0
 21 37  1  0
M  ISO  8  23  14  24  14  25  14  26  13  27  13  28  13  29  13  30  13
M  ISO  7  31  13  32  13  33  13  34  13  35  14  36  14  37  14
M  END
>  <minimizedAffinity>  (1) 
-5.71315861

>  <minimizedRMSD>  (1) 
0.825366914

$$$$
