
     RDKit          3D

 47 50  0  0  1  0  0  0  0  0999 V2000
   43.9060   34.0540   41.2320 C   0  0  1  0  0  0  0  0  0  0  0  0
   42.6910   34.7410   40.7750 C   0  0  0  0  0  0  0  0  0  0  0  0
   42.5130   34.6740   39.3990 C   0  0  0  0  0  0  0  0  0  0  0  0
   41.3750   35.2990   38.8530 C   0  0  0  0  0  0  0  0  0  0  0  0
   40.5180   35.9260   39.6820 N   0  0  0  0  0  0  0  0  0  0  0  0
   40.7100   35.9760   40.9960 C   0  0  0  0  0  0  0  0  0  0  0  0
   41.7810   35.3860   41.4980 N   0  0  0  0  0  0  0  0  0  0  0  0
   44.8200   33.7960   40.0470 C   0  0  0  0  0  0  0  0  0  0  0  0
   44.6360   35.0540   42.1210 C   0  0  0  0  0  0  0  0  0  0  0  0
   44.3990   34.7890   43.5730 C   0  0  2  0  0  0  0  0  0  0  0  0
   44.6660   35.7890   44.5980 C   0  0  0  0  0  0  0  0  0  0  0  0
   45.6130   34.6220   44.4170 C   0  0  1  0  0  0  0  0  0  0  0  0
   45.6860   33.7740   45.5760 N   0  0  0  0  0  0  0  0  0  0  0  0
   45.0390   33.9130   46.7340 N   0  0  0  0  0  0  0  0  0  0  0  0
   45.3880   32.9080   47.5600 C   0  0  0  0  0  0  0  0  0  0  0  0
   46.2760   32.1450   46.8620 C   0  0  0  0  0  0  0  0  0  0  0  0
   46.4580   32.7070   45.5990 C   0  0  0  0  0  0  0  0  0  0  0  0
   47.3300   32.0890   44.7130 N   0  0  0  0  0  0  0  0  0  0  0  0
   43.7030   32.7960   41.9240 C   0  0  0  0  0  0  0  0  0  0  0  0
   42.4790   32.3160   42.3650 N   0  0  0  0  0  0  0  0  0  0  0  0
   41.3480   31.8760   41.6030 C   0  0  0  0  0  0  0  0  0  0  0  0
   40.0470   32.1920   41.9590 C   0  0  0  0  0  0  0  0  0  0  0  0
   39.0990   31.6750   41.0920 C   0  0  0  0  0  0  0  0  0  0  0  0
   39.8800   31.0260   40.1870 N   0  0  0  0  0  0  0  0  0  0  0  0
   41.1660   31.1360   40.4690 N   0  0  0  0  0  0  0  0  0  0  0  0
   43.2367   34.1503   38.7572 H   0  0  0  0  0  0  0  0  0  0  0  0
   41.1893   35.2756   37.7690 H   0  0  0  0  0  0  0  0  0  0  0  0
   39.9947   36.4960   41.6503 H   0  0  0  0  0  0  0  0  0  0  0  0
   45.8195   33.5139   40.4095 H   0  0  0  0  0  0  0  0  0  0  0  0
   44.4073   32.9793   39.4366 H   0  0  0  0  0  0  0  0  0  0  0  0
   44.8953   34.7080   39.4366 H   0  0  0  0  0  0  0  0  0  0  0  0
   45.7153   34.9870   41.9192 H   0  0  0  0  0  0  0  0  0  0  0  0
   44.2501   36.0581   41.8913 H   0  0  0  0  0  0  0  0  0  0  0  0
   43.4973   34.2037   43.3397 H   0  0  0  0  0  0  0  0  0  0  0  0
   44.9808   36.8025   44.3085 H   0  0  0  0  0  0  0  0  0  0  0  0
   44.0991   36.2062   45.4434 H   0  0  0  0  0  0  0  0  0  0  0  0
   46.6566   34.4018   44.1481 H   0  0  0  0  0  0  0  0  0  0  0  0
   45.0302   32.7380   48.5862 H   0  0  0  0  0  0  0  0  0  0  0  0
   46.7686   31.2346   47.2343 H   0  0  0  0  0  0  0  0  0  0  0  0
   47.8268   31.2314   44.9932 H   0  0  0  0  0  0  0  0  0  0  0  0
   47.4801   32.4881   43.7754 H   0  0  0  0  0  0  0  0  0  0  0  0
   44.0933   32.0228   41.2459 H   0  0  0  0  0  0  0  0  0  0  0  0
   44.1845   33.0213   42.8870 H   0  0  0  0  0  0  0  0  0  0  0  0
   42.3666   32.2690   43.3878 H   0  0  0  0  0  0  0  0  0  0  0  0
   39.7921   32.7944   42.8434 H   0  0  0  0  0  0  0  0  0  0  0  0
   38.0032   31.7654   41.1262 H   0  0  0  0  0  0  0  0  0  0  0  0
   39.5116   30.5088   39.3760 H   0  0  0  0  0  0  0  0  0  0  0  0
  1  8  1  6
  1 19  1  0
  1  9  1  0
  2  1  1  0
  2  7  1  0
  3  2  2  0
  4  3  1  0
  4  5  2  0
  5  6  1  0
  6  7  2  0
  9 10  1  0
 10 12  1  0
 10 11  1  0
 12 11  1  0
 12 13  1  0
 13 17  1  0
 13 14  1  0
 14 15  2  0
 16 15  1  0
 17 16  2  0
 18 17  1  0
 19 20  1  0
 21 22  1  0
 21 20  1  0
 23 22  2  0
 24 25  1  0
 24 23  1  0
 25 21  2  0
  3 26  1  0
  4 27  1  0
  6 28  1  0
  8 29  1  0
  8 30  1  0
  8 31  1  0
  9 32  1  0
  9 33  1  0
 10 34  1  6
 11 35  1  0
 11 36  1  0
 12 37  1  6
 15 38  1  0
 16 39  1  0
 18 40  1  0
 18 41  1  0
 19 42  1  0
 19 43  1  0
 20 44  1  0
 22 45  1  0
 23 46  1  0
 24 47  1  0
M  ISO  8  26  14  27  14  28  14  29   8  30   8  31   8  32   8  33   8
M  ISO  8  34  13  35  13  36  13  37  13  38  14  39  14  42   8  43   8
M  ISO  3  45  14  46  14  47   9
M  END
>  <minimizedAffinity>  (1) 
-5.56324768

>  <minimizedRMSD>  (1) 
1.91849911

$$$$
