
     RDKit          3D

 54 58  0  0  1  0  0  0  0  0999 V2000
   43.8830   34.4520   41.4340 C   0  0  1  0  0  0  0  0  0  0  0  0
   42.6460   34.9870   40.8330 C   0  0  0  0  0  0  0  0  0  0  0  0
   42.6010   34.8720   39.4470 C   0  0  0  0  0  0  0  0  0  0  0  0
   41.4570   35.3590   38.7760 C   0  0  0  0  0  0  0  0  0  0  0  0
   40.4670   35.9110   39.5160 N   0  0  0  0  0  0  0  0  0  0  0  0
   40.5430   36.0070   40.8470 C   0  0  0  0  0  0  0  0  0  0  0  0
   41.6150   35.5480   41.4570 N   0  0  0  0  0  0  0  0  0  0  0  0
   44.9170   34.2670   40.3410 C   0  0  0  0  0  0  0  0  0  0  0  0
   44.4220   35.5190   42.3540 C   0  0  0  0  0  0  0  0  0  0  0  0
   44.2430   35.1380   43.7950 C   0  0  2  0  0  0  0  0  0  0  0  0
   44.5840   36.0450   44.8830 C   0  0  0  0  0  0  0  0  0  0  0  0
   45.4680   34.8600   44.5790 C   0  0  1  0  0  0  0  0  0  0  0  0
   45.5810   33.9340   45.6560 N   0  0  0  0  0  0  0  0  0  0  0  0
   44.9370   33.9600   46.8170 N   0  0  0  0  0  0  0  0  0  0  0  0
   45.3220   32.9030   47.5620 C   0  0  0  0  0  0  0  0  0  0  0  0
   46.2430   32.2170   46.7990 C   0  0  0  0  0  0  0  0  0  0  0  0
   46.3840   32.9040   45.5890 C   0  0  0  0  0  0  0  0  0  0  0  0
   47.2730   32.3690   44.6660 N   0  0  0  0  0  0  0  0  0  0  0  0
   43.7440   33.1690   42.1230 C   0  0  0  0  0  0  0  0  0  0  0  0
   42.6540   32.3540   42.0660 N   0  0  0  0  0  0  0  0  0  0  0  0
   41.4020   31.6900   41.9620 C   0  0  0  0  0  0  0  0  0  0  0  0
   40.3740   32.3470   41.4110 N   0  0  0  0  0  0  0  0  0  0  0  0
   39.1430   31.9780   41.2060 C   0  0  0  0  0  0  0  0  0  0  0  0
   38.8740   30.7500   41.6110 N   0  0  0  0  0  0  0  0  0  0  0  0
   39.7610   29.9580   42.1760 C   0  0  0  0  0  0  0  0  0  0  0  0
   39.5350   28.6520   42.6240 C   0  0  0  0  0  0  0  0  0  0  0  0
   40.4930   27.8570   43.2100 C   0  0  0  0  0  0  0  0  0  0  0  0
   41.7840   28.3730   43.3760 C   0  0  0  0  0  0  0  0  0  0  0  0
   42.0200   29.6560   42.9380 C   0  0  0  0  0  0  0  0  0  0  0  0
   41.0340   30.4200   42.3560 C   0  0  0  0  0  0  0  0  0  0  0  0
   43.4321   34.4151   38.8898 H   0  0  0  0  0  0  0  0  0  0  0  0
   41.3730   35.2914   37.6813 H   0  0  0  0  0  0  0  0  0  0  0  0
   39.7235   36.4619   41.4227 H   0  0  0  0  0  0  0  0  0  0  0  0
   45.9032   34.0906   40.7953 H   0  0  0  0  0  0  0  0  0  0  0  0
   44.6409   33.4040   39.7173 H   0  0  0  0  0  0  0  0  0  0  0  0
   44.9572   35.1722   39.7173 H   0  0  0  0  0  0  0  0  0  0  0  0
   45.4940   35.6592   42.1509 H   0  0  0  0  0  0  0  0  0  0  0  0
   43.8659   36.4500   42.1693 H   0  0  0  0  0  0  0  0  0  0  0  0
   43.3173   34.5981   43.5469 H   0  0  0  0  0  0  0  0  0  0  0  0
   44.9338   37.0640   44.6609 H   0  0  0  0  0  0  0  0  0  0  0  0
   44.0635   36.4191   45.7769 H   0  0  0  0  0  0  0  0  0  0  0  0
   46.4886   34.6128   44.2516 H   0  0  0  0  0  0  0  0  0  0  0  0
   44.9725   32.6419   48.5718 H   0  0  0  0  0  0  0  0  0  0  0  0
   46.7709   31.2966   47.0892 H   0  0  0  0  0  0  0  0  0  0  0  0
   47.7939   31.5094   44.8911 H   0  0  0  0  0  0  0  0  0  0  0  0
   47.4115   32.8318   43.7563 H   0  0  0  0  0  0  0  0  0  0  0  0
   44.5847   32.5554   41.7671 H   0  0  0  0  0  0  0  0  0  0  0  0
   43.6704   33.5165   43.1641 H   0  0  0  0  0  0  0  0  0  0  0  0
   43.1842   31.4952   42.2715 H   0  0  0  0  0  0  0  0  0  0  0  0
   38.3926   32.6313   40.7368 H   0  0  0  0  0  0  0  0  0  0  0  0
   38.5254   28.2334   42.4996 H   0  0  0  0  0  0  0  0  0  0  0  0
   40.2496   26.8367   43.5414 H   0  0  0  0  0  0  0  0  0  0  0  0
   42.5814   27.7740   43.8401 H   0  0  0  0  0  0  0  0  0  0  0  0
   43.0265   30.0837   43.0565 H   0  0  0  0  0  0  0  0  0  0  0  0
  1  8  1  6
  1 19  1  0
  1  9  1  0
  2  1  1  0
  2  7  1  0
  3  2  2  0
  4  3  1  0
  4  5  2  0
  5  6  1  0
  6  7  2  0
  9 10  1  0
 10 12  1  0
 10 11  1  0
 12 11  1  0
 12 13  1  0
 13 14  1  0
 14 15  2  0
 16 15  1  0
 17 13  1  0
 17 16  2  0
 18 17  1  0
 20 19  1  0
 21 20  1  0
 21 30  1  0
 22 21  2  0
 23 22  1  0
 23 24  2  0
 24 25  1  0
 25 30  2  0
 25 26  1  0
 26 27  2  0
 27 28  1  0
 29 28  2  0
 30 29  1  0
  3 31  1  0
  4 32  1  0
  6 33  1  0
  8 34  1  0
  8 35  1  0
  8 36  1  0
  9 37  1  0
  9 38  1  0
 10 39  1  6
 11 40  1  0
 11 41  1  0
 12 42  1  6
 15 43  1  0
 16 44  1  0
 18 45  1  0
 18 46  1  0
 19 47  1  0
 19 48  1  0
 20 49  1  0
 23 50  1  0
 26 51  1  0
 27 52  1  0
 28 53  1  0
 29 54  1  0
M  ISO  8  31  14  32  14  33  14  34   8  35   8  36   8  37   8  38   8
M  ISO  8  39  13  40  13  41  13  42  13  43  14  44  14  47   8  48   8
M  ISO  5  50  14  51  14  52  14  53  14  54  14
M  END
>  <minimizedAffinity>  (1) 
-6.21646833

>  <minimizedRMSD>  (1) 
2.43328524

$$$$
