
     RDKit          3D

 52 54  0  0  1  0  0  0  0  0999 V2000
   43.6160   34.2350   41.0280 C   0  0  1  0  0  0  0  0  0  0  0  0
   42.4610   34.8280   40.3190 C   0  0  0  0  0  0  0  0  0  0  0  0
   42.5330   34.7840   38.9400 C   0  0  0  0  0  0  0  0  0  0  0  0
   41.4800   35.3270   38.1840 C   0  0  0  0  0  0  0  0  0  0  0  0
   40.4410   35.8690   38.8380 N   0  0  0  0  0  0  0  0  0  0  0  0
   40.3820   35.9080   40.1710 C   0  0  0  0  0  0  0  0  0  0  0  0
   41.3830   35.3910   40.8570 N   0  0  0  0  0  0  0  0  0  0  0  0
   44.6280   33.7730   39.9890 C   0  0  0  0  0  0  0  0  0  0  0  0
   44.2540   35.3340   41.8190 C   0  0  0  0  0  0  0  0  0  0  0  0
   44.2850   35.0240   43.2860 C   0  0  2  0  0  0  0  0  0  0  0  0
   44.7660   35.9910   44.2650 C   0  0  0  0  0  0  0  0  0  0  0  0
   45.6480   34.8150   43.8610 C   0  0  1  0  0  0  0  0  0  0  0  0
   45.9160   33.9150   44.9560 N   0  0  0  0  0  0  0  0  0  0  0  0
   45.3120   33.9180   46.1510 N   0  0  0  0  0  0  0  0  0  0  0  0
   45.8260   32.9400   46.9080 C   0  0  0  0  0  0  0  0  0  0  0  0
   46.7660   32.3390   46.1330 C   0  0  0  0  0  0  0  0  0  0  0  0
   46.8160   32.9730   44.8820 C   0  0  0  0  0  0  0  0  0  0  0  0
   47.7140   32.5330   43.9200 N   0  0  0  0  0  0  0  0  0  0  0  0
   43.2790   33.0730   41.8540 C   0  0  0  0  0  0  0  0  0  0  0  0
   42.0060   32.6080   42.0900 N   0  0  0  0  0  0  0  0  0  0  0  0
   41.8420   31.1550   41.9870 C   0  0  0  0  0  0  0  0  0  0  0  0
   41.4330   30.8860   40.5060 C   0  0  0  0  0  0  0  0  0  0  0  0
   43.0750   30.3580   42.2010 C   0  0  0  0  0  0  0  0  0  0  0  0
   40.6600   30.7710   42.8240 C   0  0  0  0  0  0  0  0  0  0  0  0
   43.4020   34.3305   38.4409 H   0  0  0  0  0  0  0  0  0  0  0  0
   41.5068   35.3082   37.0845 H   0  0  0  0  0  0  0  0  0  0  0  0
   39.5204   36.3598   40.6844 H   0  0  0  0  0  0  0  0  0  0  0  0
   45.5157   33.3677   40.4967 H   0  0  0  0  0  0  0  0  0  0  0  0
   44.1768   32.9917   39.3598 H   0  0  0  0  0  0  0  0  0  0  0  0
   44.9228   34.6257   39.3598 H   0  0  0  0  0  0  0  0  0  0  0  0
   45.2855   35.4749   41.4637 H   0  0  0  0  0  0  0  0  0  0  0  0
   43.6566   36.2466   41.6767 H   0  0  0  0  0  0  0  0  0  0  0  0
   43.3422   34.4605   43.2256 H   0  0  0  0  0  0  0  0  0  0  0  0
   45.0295   37.0106   43.9471 H   0  0  0  0  0  0  0  0  0  0  0  0
   44.3862   36.3862   45.2187 H   0  0  0  0  0  0  0  0  0  0  0  0
   46.6171   34.6016   43.3863 H   0  0  0  0  0  0  0  0  0  0  0  0
   45.5462   32.6787   47.9392 H   0  0  0  0  0  0  0  0  0  0  0  0
   47.3912   31.4872   46.4387 H   0  0  0  0  0  0  0  0  0  0  0  0
   48.3371   31.7382   44.1223 H   0  0  0  0  0  0  0  0  0  0  0  0
   47.7575   33.0012   43.0036 H   0  0  0  0  0  0  0  0  0  0  0  0
   43.8195   32.2277   41.4030 H   0  0  0  0  0  0  0  0  0  0  0  0
   43.5325   33.4623   42.8511 H   0  0  0  0  0  0  0  0  0  0  0  0
   41.7345   32.8924   43.0420 H   0  0  0  0  0  0  0  0  0  0  0  0
   40.5142   30.2817   40.4833 H   0  0  0  0  0  0  0  0  0  0  0  0
   41.2547   31.8437   39.9951 H   0  0  0  0  0  0  0  0  0  0  0  0
   42.2417   30.3429   39.9951 H   0  0  0  0  0  0  0  0  0  0  0  0
   43.2541   30.2422   43.2801 H   0  0  0  0  0  0  0  0  0  0  0  0
   42.9550   29.3661   41.7408 H   0  0  0  0  0  0  0  0  0  0  0  0
   43.9301   30.8747   41.7408 H   0  0  0  0  0  0  0  0  0  0  0  0
   40.9217   30.8560   43.8890 H   0  0  0  0  0  0  0  0  0  0  0  0
   39.8178   31.4417   42.5987 H   0  0  0  0  0  0  0  0  0  0  0  0
   40.3728   29.7333   42.5987 H   0  0  0  0  0  0  0  0  0  0  0  0
  1  8  1  6
  1  9  1  0
  1 19  1  0
  2  7  1  0
  2  1  1  0
  3  2  2  0
  4  5  2  0
  4  3  1  0
  5  6  1  0
  6  7  2  0
  9 10  1  0
 10 12  1  0
 10 11  1  0
 12 11  1  0
 12 13  1  0
 13 14  1  0
 14 15  2  0
 16 15  1  0
 17 13  1  0
 17 16  2  0
 18 17  1  0
 19 20  1  0
 21 20  1  0
 21 23  1  0
 21 24  1  0
 22 21  1  0
  3 25  1  0
  4 26  1  0
  6 27  1  0
  8 28  1  0
  8 29  1  0
  8 30  1  0
  9 31  1  0
  9 32  1  0
 10 33  1  1
 11 34  1  0
 11 35  1  0
 12 36  1  6
 15 37  1  0
 16 38  1  0
 18 39  1  0
 18 40  1  0
 19 41  1  0
 19 42  1  0
 20 43  1  0
 22 44  1  0
 22 45  1  0
 22 46  1  0
 23 47  1  0
 23 48  1  0
 23 49  1  0
 24 50  1  0
 24 51  1  0
 24 52  1  0
M  ISO  8  25  14  26  14  27  14  28   8  29   8  30   8  31   8  32   8
M  ISO  8  33  13  34  13  35  13  36  13  37  14  38  14  41   8  42   8
M  ISO  8  43   5  44   8  45   8  46   8  47   8  48   8  49   8  50   8
M  ISO  2  51   8  52   8
M  END
>  <minimizedAffinity>  (1) 
-4.99994993

>  <minimizedRMSD>  (1) 
2.67276764

$$$$
