
     RDKit          3D

 47 50  0  0  1  0  0  0  0  0999 V2000
   43.7780   34.0910   41.2220 C   0  0  1  0  0  0  0  0  0  0  0  0
   42.5900   34.7980   40.7570 C   0  0  0  0  0  0  0  0  0  0  0  0
   42.4390   34.7970   39.3880 C   0  0  0  0  0  0  0  0  0  0  0  0
   41.3220   35.4540   38.8320 C   0  0  0  0  0  0  0  0  0  0  0  0
   40.4530   36.0540   39.6670 N   0  0  0  0  0  0  0  0  0  0  0  0
   40.6150   36.0450   40.9900 C   0  0  0  0  0  0  0  0  0  0  0  0
   41.6650   35.4260   41.4910 N   0  0  0  0  0  0  0  0  0  0  0  0
   44.6930   33.7870   40.0440 C   0  0  0  0  0  0  0  0  0  0  0  0
   44.5530   35.0810   42.0940 C   0  0  0  0  0  0  0  0  0  0  0  0
   44.3510   34.8170   43.5590 C   0  0  2  0  0  0  0  0  0  0  0  0
   44.6570   35.8180   44.5720 C   0  0  0  0  0  0  0  0  0  0  0  0
   45.5910   34.6320   44.3710 C   0  0  1  0  0  0  0  0  0  0  0  0
   45.6790   33.7950   45.5290 N   0  0  0  0  0  0  0  0  0  0  0  0
   45.0410   33.9310   46.6890 N   0  0  0  0  0  0  0  0  0  0  0  0
   45.4020   32.9300   47.5220 C   0  0  0  0  0  0  0  0  0  0  0  0
   46.3020   32.1680   46.8090 C   0  0  0  0  0  0  0  0  0  0  0  0
   46.4590   32.7390   45.5510 C   0  0  0  0  0  0  0  0  0  0  0  0
   47.3300   32.1240   44.6640 N   0  0  0  0  0  0  0  0  0  0  0  0
   43.5670   32.8680   41.9540 C   0  0  0  0  0  0  0  0  0  0  0  0
   42.3350   32.3370   42.2880 N   0  0  0  0  0  0  0  0  0  0  0  0
   41.3400   31.7360   41.4600 C   0  0  0  0  0  0  0  0  0  0  0  0
   40.1130   32.1790   42.0010 C   0  0  0  0  0  0  0  0  0  0  0  0
   39.0680   31.6620   41.2740 N   0  0  0  0  0  0  0  0  0  0  0  0
   39.6390   30.9030   40.2860 C   0  0  0  0  0  0  0  0  0  0  0  0
   40.9900   30.9760   40.4340 N   0  0  0  0  0  0  0  0  0  0  0  0
   43.1740   34.2944   38.7421 H   0  0  0  0  0  0  0  0  0  0  0  0
   41.1647   35.4757   37.7435 H   0  0  0  0  0  0  0  0  0  0  0  0
   39.8885   36.5431   41.6489 H   0  0  0  0  0  0  0  0  0  0  0  0
   45.6750   33.4607   40.4171 H   0  0  0  0  0  0  0  0  0  0  0  0
   44.2494   32.9880   39.4318 H   0  0  0  0  0  0  0  0  0  0  0  0
   44.8158   34.6926   39.4318 H   0  0  0  0  0  0  0  0  0  0  0  0
   45.6248   34.9954   41.8620 H   0  0  0  0  0  0  0  0  0  0  0  0
   44.1787   36.0921   41.8757 H   0  0  0  0  0  0  0  0  0  0  0  0
   43.4363   34.2415   43.3536 H   0  0  0  0  0  0  0  0  0  0  0  0
   44.9761   36.8263   44.2696 H   0  0  0  0  0  0  0  0  0  0  0  0
   44.1174   36.2455   45.4300 H   0  0  0  0  0  0  0  0  0  0  0  0
   46.6233   34.3945   44.0742 H   0  0  0  0  0  0  0  0  0  0  0  0
   45.0518   32.7596   48.5508 H   0  0  0  0  0  0  0  0  0  0  0  0
   46.8096   31.2625   47.1730 H   0  0  0  0  0  0  0  0  0  0  0  0
   47.8364   31.2726   44.9462 H   0  0  0  0  0  0  0  0  0  0  0  0
   47.4705   32.5187   43.7230 H   0  0  0  0  0  0  0  0  0  0  0  0
   44.0716   32.0864   41.3670 H   0  0  0  0  0  0  0  0  0  0  0  0
   43.9226   33.1737   42.9490 H   0  0  0  0  0  0  0  0  0  0  0  0
   42.0986   32.3821   43.2895 H   0  0  0  0  0  0  0  0  0  0  0  0
   40.0093   32.8396   42.8744 H   0  0  0  0  0  0  0  0  0  0  0  0
   39.1014   30.3361   39.5117 H   0  0  0  0  0  0  0  0  0  0  0  0
   41.6622   30.4956   39.8190 H   0  0  0  0  0  0  0  0  0  0  0  0
  1  8  1  6
  1 19  1  0
  1  9  1  0
  2  1  1  0
  2  7  1  0
  3  2  2  0
  4  3  1  0
  4  5  2  0
  5  6  1  0
  6  7  2  0
  9 10  1  0
 10 12  1  0
 10 11  1  0
 12 11  1  0
 12 13  1  0
 13 17  1  0
 13 14  1  0
 14 15  2  0
 16 15  1  0
 17 16  2  0
 18 17  1  0
 19 20  1  0
 21 22  2  0
 21 20  1  0
 23 22  1  0
 24 25  1  0
 24 23  2  0
 25 21  1  0
  3 26  1  0
  4 27  1  0
  6 28  1  0
  8 29  1  0
  8 30  1  0
  8 31  1  0
  9 32  1  0
  9 33  1  0
 10 34  1  6
 11 35  1  0
 11 36  1  0
 12 37  1  6
 15 38  1  0
 16 39  1  0
 18 40  1  0
 18 41  1  0
 19 42  1  0
 19 43  1  0
 20 44  1  0
 22 45  1  0
 24 46  1  0
 25 47  1  0
M  ISO  8  26  14  27  14  28  14  29   8  30   8  31   8  32   8  33   8
M  ISO  8  34  13  35  13  36  13  37  13  38  14  39  14  42   8  43   8
M  ISO  3  45  14  46  14  47   9
M  END
>  <minimizedAffinity>  (1) 
-5.26198196

>  <minimizedRMSD>  (1) 
2.03662801

$$$$
