
     RDKit          3D

 49 51  0  0  1  0  0  0  0  0999 V2000
   43.7600   34.1990   41.2610 C   0  0  1  0  0  0  0  0  0  0  0  0
   42.5640   34.8710   40.7250 C   0  0  0  0  0  0  0  0  0  0  0  0
   42.4870   34.8560   39.3320 C   0  0  0  0  0  0  0  0  0  0  0  0
   41.3670   35.4800   38.7240 C   0  0  0  0  0  0  0  0  0  0  0  0
   40.4410   36.0500   39.5050 N   0  0  0  0  0  0  0  0  0  0  0  0
   40.5440   36.0470   40.8430 C   0  0  0  0  0  0  0  0  0  0  0  0
   41.5890   35.4660   41.4000 N   0  0  0  0  0  0  0  0  0  0  0  0
   44.6720   33.8020   40.1040 C   0  0  0  0  0  0  0  0  0  0  0  0
   44.4980   35.2210   42.0720 C   0  0  0  0  0  0  0  0  0  0  0  0
   44.2960   35.0290   43.5420 C   0  0  2  0  0  0  0  0  0  0  0  0
   44.6310   36.0660   44.5100 C   0  0  0  0  0  0  0  0  0  0  0  0
   45.5210   34.8470   44.3560 C   0  0  1  0  0  0  0  0  0  0  0  0
   45.5880   34.0410   45.5440 N   0  0  0  0  0  0  0  0  0  0  0  0
   44.8230   34.1510   46.6250 N   0  0  0  0  0  0  0  0  0  0  0  0
   45.1730   33.2310   47.5300 C   0  0  0  0  0  0  0  0  0  0  0  0
   46.2030   32.5410   46.9510 C   0  0  0  0  0  0  0  0  0  0  0  0
   46.4530   33.0710   45.6850 C   0  0  0  0  0  0  0  0  0  0  0  0
   47.4740   32.5240   44.9120 N   0  0  0  0  0  0  0  0  0  0  0  0
   43.4930   32.9780   42.0270 C   0  0  0  0  0  0  0  0  0  0  0  0
   42.2370   32.4200   42.1990 N   0  0  0  0  0  0  0  0  0  0  0  0
   42.2930   30.9440   42.2550 C   0  0  0  0  0  0  0  0  0  0  0  0
   42.3290   30.4000   40.8180 C   0  0  0  0  0  0  0  0  0  0  0  0
   41.0980   30.3430   42.9090 C   0  0  0  0  0  0  0  0  0  0  0  0
   43.2689   34.3762   38.7250 H   0  0  0  0  0  0  0  0  0  0  0  0
   41.2614   35.4951   37.6292 H   0  0  0  0  0  0  0  0  0  0  0  0
   39.7701   36.5210   41.4647 H   0  0  0  0  0  0  0  0  0  0  0  0
   45.6122   33.3927   40.5020 H   0  0  0  0  0  0  0  0  0  0  0  0
   44.1722   33.0400   39.4879 H   0  0  0  0  0  0  0  0  0  0  0  0
   44.8891   34.6870   39.4879 H   0  0  0  0  0  0  0  0  0  0  0  0
   45.5722   35.1421   41.8487 H   0  0  0  0  0  0  0  0  0  0  0  0
   44.1052   36.2129   41.8038 H   0  0  0  0  0  0  0  0  0  0  0  0
   43.3662   34.4695   43.3618 H   0  0  0  0  0  0  0  0  0  0  0  0
   44.9802   37.0501   44.1642 H   0  0  0  0  0  0  0  0  0  0  0  0
   44.1073   36.5478   45.3488 H   0  0  0  0  0  0  0  0  0  0  0  0
   46.5475   34.5725   44.0714 H   0  0  0  0  0  0  0  0  0  0  0  0
   44.7298   33.0651   48.5230 H   0  0  0  0  0  0  0  0  0  0  0  0
   46.7469   31.7025   47.4103 H   0  0  0  0  0  0  0  0  0  0  0  0
   48.0258   31.7327   45.2730 H   0  0  0  0  0  0  0  0  0  0  0  0
   47.6774   32.9107   43.9793 H   0  0  0  0  0  0  0  0  0  0  0  0
   44.1034   32.1935   41.5558 H   0  0  0  0  0  0  0  0  0  0  0  0
   43.7028   33.3278   43.0486 H   0  0  0  0  0  0  0  0  0  0  0  0
   41.8340   32.7716   43.0793 H   0  0  0  0  0  0  0  0  0  0  0  0
   43.1871   30.6803   42.8390 H   0  0  0  0  0  0  0  0  0  0  0  0
   42.4016   29.3027   40.8431 H   0  0  0  0  0  0  0  0  0  0  0  0
   41.4094   30.6947   40.2912 H   0  0  0  0  0  0  0  0  0  0  0  0
   43.2018   30.8133   40.2912 H   0  0  0  0  0  0  0  0  0  0  0  0
   41.2107   30.3997   44.0017 H   0  0  0  0  0  0  0  0  0  0  0  0
   40.1967   30.8950   42.6042 H   0  0  0  0  0  0  0  0  0  0  0  0
   41.0038   29.2903   42.6042 H   0  0  0  0  0  0  0  0  0  0  0  0
  1  8  1  6
  1 19  1  0
  1  9  1  0
  2  1  1  0
  2  7  1  0
  3  2  2  0
  4  3  1  0
  4  5  2  0
  5  6  1  0
  6  7  2  0
  9 10  1  0
 10 12  1  0
 10 11  1  0
 12 11  1  0
 12 13  1  0
 13 17  1  0
 13 14  1  0
 14 15  2  0
 16 15  1  0
 17 16  2  0
 18 17  1  0
 19 20  1  0
 20 21  1  0
 21 23  1  0
 22 21  1  0
  3 24  1  0
  4 25  1  0
  6 26  1  0
  8 27  1  0
  8 28  1  0
  8 29  1  0
  9 30  1  0
  9 31  1  0
 10 32  1  6
 11 33  1  0
 11 34  1  0
 12 35  1  6
 15 36  1  0
 16 37  1  0
 18 38  1  0
 18 39  1  0
 19 40  1  0
 19 41  1  0
 20 42  1  0
 21 43  1  0
 22 44  1  0
 22 45  1  0
 22 46  1  0
 23 47  1  0
 23 48  1  0
 23 49  1  0
M  ISO  8  24  14  25  14  26  14  27   8  28   8  29   8  30   8  31   8
M  ISO  8  32  13  33  13  34  13  35  13  36  14  37  14  40   8  41   8
M  ISO  8  42   5  43   8  44   8  45   8  46   8  47   8  48   8  49   8
M  END
>  <minimizedAffinity>  (1) 
-4.88093758

>  <minimizedRMSD>  (1) 
2.17874861

$$$$
