
     RDKit          3D

 46 48  0  0  1  0  0  0  0  0999 V2000
   43.7000   34.2360   41.1490 C   0  0  1  0  0  0  0  0  0  0  0  0
   42.4980   34.8920   40.6080 C   0  0  0  0  0  0  0  0  0  0  0  0
   42.4270   34.9180   39.2200 C   0  0  0  0  0  0  0  0  0  0  0  0
   41.3100   35.5270   38.6110 C   0  0  0  0  0  0  0  0  0  0  0  0
   40.3600   36.0580   39.4000 N   0  0  0  0  0  0  0  0  0  0  0  0
   40.4480   36.0220   40.7320 C   0  0  0  0  0  0  0  0  0  0  0  0
   41.4980   35.4490   41.2900 N   0  0  0  0  0  0  0  0  0  0  0  0
   44.5820   33.8030   39.9850 C   0  0  0  0  0  0  0  0  0  0  0  0
   44.4610   35.2800   41.9140 C   0  0  0  0  0  0  0  0  0  0  0  0
   44.2790   35.1280   43.3960 C   0  0  2  0  0  0  0  0  0  0  0  0
   44.6990   36.1640   44.3300 C   0  0  0  0  0  0  0  0  0  0  0  0
   45.5320   34.9010   44.1690 C   0  0  1  0  0  0  0  0  0  0  0  0
   45.5880   34.1260   45.3800 N   0  0  0  0  0  0  0  0  0  0  0  0
   44.8230   34.2550   46.4640 N   0  0  0  0  0  0  0  0  0  0  0  0
   45.1860   33.3490   47.3840 C   0  0  0  0  0  0  0  0  0  0  0  0
   46.2070   32.6550   46.8210 C   0  0  0  0  0  0  0  0  0  0  0  0
   46.4600   33.1550   45.5420 C   0  0  0  0  0  0  0  0  0  0  0  0
   47.4840   32.5870   44.7800 N   0  0  0  0  0  0  0  0  0  0  0  0
   43.4330   33.0460   41.9600 C   0  0  0  0  0  0  0  0  0  0  0  0
   42.2190   32.4040   42.0490 N   0  0  0  0  0  0  0  0  0  0  0  0
   42.3660   30.9650   42.3380 C   0  0  0  0  0  0  0  0  0  0  0  0
   43.7550   30.5760   42.6970 C   0  0  0  0  0  0  0  0  0  0  0  0
   43.2258   34.4726   38.6089 H   0  0  0  0  0  0  0  0  0  0  0  0
   41.2184   35.5665   37.5155 H   0  0  0  0  0  0  0  0  0  0  0  0
   39.6566   36.4636   41.3554 H   0  0  0  0  0  0  0  0  0  0  0  0
   45.5057   33.3495   40.3738 H   0  0  0  0  0  0  0  0  0  0  0  0
   44.0428   33.0672   39.3703 H   0  0  0  0  0  0  0  0  0  0  0  0
   44.8344   34.6796   39.3703 H   0  0  0  0  0  0  0  0  0  0  0  0
   45.5308   35.1873   41.6752 H   0  0  0  0  0  0  0  0  0  0  0  0
   44.0749   36.2676   41.6215 H   0  0  0  0  0  0  0  0  0  0  0  0
   43.3133   34.6184   43.2627 H   0  0  0  0  0  0  0  0  0  0  0  0
   45.0780   37.1249   43.9517 H   0  0  0  0  0  0  0  0  0  0  0  0
   44.2295   36.6834   45.1784 H   0  0  0  0  0  0  0  0  0  0  0  0
   46.5324   34.5720   43.8513 H   0  0  0  0  0  0  0  0  0  0  0  0
   44.7490   33.2003   48.3824 H   0  0  0  0  0  0  0  0  0  0  0  0
   46.7512   31.8267   47.2982 H   0  0  0  0  0  0  0  0  0  0  0  0
   48.0361   31.8052   45.1605 H   0  0  0  0  0  0  0  0  0  0  0  0
   47.6868   32.9501   43.8377 H   0  0  0  0  0  0  0  0  0  0  0  0
   44.1415   32.2839   41.6033 H   0  0  0  0  0  0  0  0  0  0  0  0
   43.5022   33.4766   42.9698 H   0  0  0  0  0  0  0  0  0  0  0  0
   41.6690   32.8388   42.8036 H   0  0  0  0  0  0  0  0  0  0  0  0
   41.7035   30.7081   43.1777 H   0  0  0  0  0  0  0  0  0  0  0  0
   42.1021   30.4198   41.4198 H   0  0  0  0  0  0  0  0  0  0  0  0
   43.8564   30.5476   43.7919 H   0  0  0  0  0  0  0  0  0  0  0  0
   43.9760   29.5814   42.2824 H   0  0  0  0  0  0  0  0  0  0  0  0
   44.4604   31.3111   42.2824 H   0  0  0  0  0  0  0  0  0  0  0  0
  1  8  1  6
  1  9  1  0
  1 19  1  0
  2  1  1  0
  2  7  1  0
  3  2  2  0
  4  3  1  0
  4  5  2  0
  5  6  1  0
  6  7  2  0
  9 10  1  0
 10 12  1  0
 10 11  1  0
 12 11  1  0
 12 13  1  0
 13 17  1  0
 13 14  1  0
 14 15  2  0
 16 15  1  0
 17 16  2  0
 18 17  1  0
 19 20  1  0
 20 21  1  0
 21 22  1  0
  3 23  1  0
  4 24  1  0
  6 25  1  0
  8 26  1  0
  8 27  1  0
  8 28  1  0
  9 29  1  0
  9 30  1  0
 10 31  1  6
 11 32  1  0
 11 33  1  0
 12 34  1  6
 15 35  1  0
 16 36  1  0
 18 37  1  0
 18 38  1  0
 19 39  1  0
 19 40  1  0
 20 41  1  0
 21 42  1  0
 21 43  1  0
 22 44  1  0
 22 45  1  0
 22 46  1  0
M  ISO  8  23  14  24  14  25  14  26   8  27   8  28   8  29   8  30   8
M  ISO  8  31  13  32  13  33  13  34  13  35  14  36  14  39   8  40   8
M  ISO  6  41   5  42   8  43   8  44   8  45   8  46   8
M  END
>  <minimizedAffinity>  (1) 
-4.71967268

>  <minimizedRMSD>  (1) 
2.1558857

$$$$
