
     RDKit          3D

 43 46  0  0  1  0  0  0  0  0999 V2000
   44.5230   35.9390   44.8940 C   0  0  0  0  0  0  0  0  0  0  0  0
   45.1120   35.9600   43.6040 C   0  0  0  0  0  0  0  0  0  0  0  0
   45.9280   34.9010   43.2680 C   0  0  0  0  0  0  0  0  0  0  0  0
   46.1300   33.8970   44.1710 N   0  0  0  0  0  0  0  0  0  0  0  0
   45.5500   33.9220   45.3820 C   0  0  0  0  0  0  0  0  0  0  0  0
   44.7550   34.9330   45.7370 N   0  0  0  0  0  0  0  0  0  0  0  0
   45.7900   32.8350   46.3300 N   0  0  0  0  0  0  0  0  0  0  0  0
   45.1650   32.8450   47.6340 C   0  0  0  0  0  0  0  0  0  0  0  0
   46.0350   32.2610   48.7030 C   0  0  0  0  0  0  0  0  0  0  0  0
   47.4560   32.2010   48.2240 C   0  0  0  0  0  0  0  0  0  0  0  0
   47.4720   31.2010   47.0610 C   0  0  0  0  0  0  0  0  0  0  0  0
   46.6690   31.7480   45.9370 C   0  0  1  0  0  0  0  0  0  0  0  0
   45.9360   30.7040   45.1630 C   0  0  0  0  0  0  0  0  0  0  0  0
   45.8110   30.5640   43.8430 N   0  0  0  0  0  0  0  0  0  0  0  0
   45.1080   29.5260   43.5290 O   0  0  0  0  0  0  0  0  0  0  0  0
   44.7470   28.9470   44.6620 C   0  0  0  0  0  0  0  0  0  0  0  0
   45.2400   29.6470   45.7020 N   0  0  0  0  0  0  0  0  0  0  0  0
   43.9300   27.7190   44.8500 C   0  0  0  0  0  0  0  0  0  0  0  0
   43.7250   27.3820   46.3080 C   0  0  0  0  0  0  0  0  0  0  0  0
   42.3720   26.6610   46.2380 C   0  0  0  0  0  0  0  0  0  0  0  0
   41.5940   27.6880   45.4080 C   0  0  0  0  0  0  0  0  0  0  0  0
   42.5540   27.8430   44.2350 C   0  0  0  0  0  0  0  0  0  0  0  0
   43.8653   36.7647   45.2032 H   0  0  0  0  0  0  0  0  0  0  0  0
   44.9257   36.7859   42.9017 H   0  0  0  0  0  0  0  0  0  0  0  0
   46.4122   34.8651   42.2810 H   0  0  0  0  0  0  0  0  0  0  0  0
   44.9302   33.8856   47.9024 H   0  0  0  0  0  0  0  0  0  0  0  0
   44.2595   32.2237   47.5701 H   0  0  0  0  0  0  0  0  0  0  0  0
   45.9793   32.8900   49.6037 H   0  0  0  0  0  0  0  0  0  0  0  0
   45.6877   31.2444   48.9395 H   0  0  0  0  0  0  0  0  0  0  0  0
   47.7847   33.1925   47.8793 H   0  0  0  0  0  0  0  0  0  0  0  0
   48.1384   31.8913   49.0292 H   0  0  0  0  0  0  0  0  0  0  0  0
   48.5081   31.0393   46.7287 H   0  0  0  0  0  0  0  0  0  0  0  0
   47.0431   30.2432   47.3905 H   0  0  0  0  0  0  0  0  0  0  0  0
   47.4165   32.1772   45.2536 H   0  0  0  0  0  0  0  0  0  0  0  0
   44.5047   26.9258   44.3494 H   0  0  0  0  0  0  0  0  0  0  0  0
   44.5184   26.7216   46.6881 H   0  0  0  0  0  0  0  0  0  0  0  0
   43.7501   28.2468   46.9873 H   0  0  0  0  0  0  0  0  0  0  0  0
   42.4482   25.6902   45.7265 H   0  0  0  0  0  0  0  0  0  0  0  0
   41.9243   26.4011   47.2086 H   0  0  0  0  0  0  0  0  0  0  0  0
   40.6152   27.3007   45.0887 H   0  0  0  0  0  0  0  0  0  0  0  0
   41.3427   28.6210   45.9337 H   0  0  0  0  0  0  0  0  0  0  0  0
   42.4289   28.8263   43.7580 H   0  0  0  0  0  0  0  0  0  0  0  0
   42.3785   27.0926   43.4500 H   0  0  0  0  0  0  0  0  0  0  0  0
  1  6  2  0
  2  1  1  0
  3  2  2  0
  3  4  1  0
  4  5  2  0
  5  6  1  0
  5  7  1  0
  7  8  1  0
  8  9  1  0
 10  9  1  0
 11 10  1  0
 12  7  1  0
 12 11  1  0
 13 17  1  0
 13 12  1  0
 14 13  2  0
 15 14  1  0
 15 16  1  0
 16 18  1  0
 16 17  2  0
 18 19  1  0
 20 19  1  0
 21 20  1  0
 22 18  1  0
 22 21  1  0
  1 23  1  0
  2 24  1  0
  3 25  1  0
  8 26  1  0
  8 27  1  0
  9 28  1  0
  9 29  1  0
 10 30  1  0
 10 31  1  0
 11 32  1  0
 11 33  1  0
 12 34  1  6
 18 35  1  0
 19 36  1  0
 19 37  1  0
 20 38  1  0
 20 39  1  0
 21 40  1  0
 21 41  1  0
 22 42  1  0
 22 43  1  0
M  ISO  8  23  14  24  14  25  14  26  13  27  13  28  13  29  13  30  13
M  ISO  8  31  13  32  13  33  13  34  13  35  13  36  13  37  13  38  13
M  ISO  5  39  13  40  13  41  13  42  13  43  13
M  END
>  <minimizedAffinity>  (1) 
-5.65336895

>  <minimizedRMSD>  (1) 
0.527803123

$$$$
