
     RDKit          3D

 56 59  0  0  1  0  0  0  0  0999 V2000
   43.4660   33.8310   40.8030 C   0  0  1  0  0  0  0  0  0  0  0  0
   42.3780   34.6370   40.1930 C   0  0  0  0  0  0  0  0  0  0  0  0
   42.4640   34.7710   38.8390 C   0  0  0  0  0  0  0  0  0  0  0  0
   41.4890   35.5190   38.1560 C   0  0  0  0  0  0  0  0  0  0  0  0
   40.5080   36.0750   38.8670 N   0  0  0  0  0  0  0  0  0  0  0  0
   40.4420   35.9290   40.2030 C   0  0  0  0  0  0  0  0  0  0  0  0
   41.3680   35.2250   40.8040 N   0  0  0  0  0  0  0  0  0  0  0  0
   44.2310   33.1370   39.6930 C   0  0  0  0  0  0  0  0  0  0  0  0
   44.4450   34.8090   41.4090 C   0  0  0  0  0  0  0  0  0  0  0  0
   44.4700   34.7110   42.9040 C   0  0  2  0  0  0  0  0  0  0  0  0
   45.0640   35.7820   43.7040 C   0  0  0  0  0  0  0  0  0  0  0  0
   45.7880   34.4890   43.5390 C   0  0  1  0  0  0  0  0  0  0  0  0
   45.9820   33.7710   44.7650 N   0  0  0  0  0  0  0  0  0  0  0  0
   45.3770   33.9480   45.9400 N   0  0  0  0  0  0  0  0  0  0  0  0
   45.8540   33.0660   46.8280 C   0  0  0  0  0  0  0  0  0  0  0  0
   46.7800   32.3330   46.1660 C   0  0  0  0  0  0  0  0  0  0  0  0
   46.8740   32.7780   44.8250 C   0  0  0  0  0  0  0  0  0  0  0  0
   47.7630   32.1970   43.9530 N   0  0  0  0  0  0  0  0  0  0  0  0
   43.0360   32.7990   41.7330 C   0  0  0  0  0  0  0  0  0  0  0  0
   41.6740   32.5830   42.0630 N   0  0  0  0  0  0  0  0  0  0  0  0
   41.1760   31.3230   41.6120 C   0  0  0  0  0  0  0  0  0  0  0  0
   40.1240   31.1390   40.9380 O   0  0  0  0  0  0  0  0  0  0  0  0
   41.7910   30.1280   41.8660 O   0  0  0  0  0  0  0  0  0  0  0  0
   41.3420   29.2190   42.8250 C   0  0  0  0  0  0  0  0  0  0  0  0
   42.4440   28.9960   43.8390 C   0  0  0  0  0  0  0  0  0  0  0  0
   41.6350   28.5220   45.0490 C   0  0  0  0  0  0  0  0  0  0  0  0
   40.4460   29.4590   44.9850 C   0  0  0  0  0  0  0  0  0  0  0  0
   40.0920   29.4040   43.5240 C   0  0  0  0  0  0  0  0  0  0  0  0
   43.2889   34.2981   38.2859 H   0  0  0  0  0  0  0  0  0  0  0  0
   41.5344   35.6422   37.0639 H   0  0  0  0  0  0  0  0  0  0  0  0
   39.6267   36.3917   40.7785 H   0  0  0  0  0  0  0  0  0  0  0  0
   44.9783   32.4590   40.1311 H   0  0  0  0  0  0  0  0  0  0  0  0
   43.5314   32.5590   39.0713 H   0  0  0  0  0  0  0  0  0  0  0  0
   44.7383   33.8894   39.0713 H   0  0  0  0  0  0  0  0  0  0  0  0
   45.4513   34.5936   41.0204 H   0  0  0  0  0  0  0  0  0  0  0  0
   44.1276   35.8264   41.1365 H   0  0  0  0  0  0  0  0  0  0  0  0
   43.4885   34.2145   42.9206 H   0  0  0  0  0  0  0  0  0  0  0  0
   45.4422   36.6904   43.2122 H   0  0  0  0  0  0  0  0  0  0  0  0
   44.7346   36.3840   44.5637 H   0  0  0  0  0  0  0  0  0  0  0  0
   46.7312   34.0964   43.1312 H   0  0  0  0  0  0  0  0  0  0  0  0
   45.5543   32.9590   47.8810 H   0  0  0  0  0  0  0  0  0  0  0  0
   47.3705   31.5148   46.6040 H   0  0  0  0  0  0  0  0  0  0  0  0
   48.3566   31.4160   44.2670 H   0  0  0  0  0  0  0  0  0  0  0  0
   47.8358   32.5425   42.9854 H   0  0  0  0  0  0  0  0  0  0  0  0
   43.4043   31.8471   41.3228 H   0  0  0  0  0  0  0  0  0  0  0  0
   43.4389   33.1751   42.6850 H   0  0  0  0  0  0  0  0  0  0  0  0
   41.1007   33.2671   42.5770 H   0  0  0  0  0  0  0  0  0  0  0  0
   41.0912   28.3573   42.1890 H   0  0  0  0  0  0  0  0  0  0  0  0
   43.1542   28.2269   43.5013 H   0  0  0  0  0  0  0  0  0  0  0  0
   43.0704   29.8798   44.0300 H   0  0  0  0  0  0  0  0  0  0  0  0
   41.3276   27.4711   44.9432 H   0  0  0  0  0  0  0  0  0  0  0  0
   42.1843   28.5500   46.0016 H   0  0  0  0  0  0  0  0  0  0  0  0
   39.6173   29.0985   45.6121 H   0  0  0  0  0  0  0  0  0  0  0  0
   40.6565   30.4732   45.3554 H   0  0  0  0  0  0  0  0  0  0  0  0
   39.6125   30.3429   43.2101 H   0  0  0  0  0  0  0  0  0  0  0  0
   39.3827   28.5913   43.3088 H   0  0  0  0  0  0  0  0  0  0  0  0
  1  8  1  6
  1  9  1  0
  1 19  1  0
  2  1  1  0
  2  7  1  0
  3  2  2  0
  4  3  1  0
  4  5  2  0
  5  6  1  0
  6  7  2  0
  9 10  1  0
 10 12  1  0
 10 11  1  0
 12 11  1  0
 12 13  1  0
 13 17  1  0
 13 14  1  0
 14 15  2  0
 16 15  1  0
 17 16  2  0
 18 17  1  0
 19 20  1  0
 21 23  1  0
 21 20  1  0
 22 21  2  0
 23 24  1  0
 24 28  1  0
 24 25  1  0
 25 26  1  0
 27 26  1  0
 28 27  1  0
  3 29  1  0
  4 30  1  0
  6 31  1  0
  8 32  1  0
  8 33  1  0
  8 34  1  0
  9 35  1  0
  9 36  1  0
 10 37  1  1
 11 38  1  0
 11 39  1  0
 12 40  1  6
 15 41  1  0
 16 42  1  0
 18 43  1  0
 18 44  1  0
 19 45  1  0
 19 46  1  0
 20 47  1  0
 24 48  1  0
 25 49  1  0
 25 50  1  0
 26 51  1  0
 26 52  1  0
 27 53  1  0
 27 54  1  0
 28 55  1  0
 28 56  1  0
M  ISO  8  29  14  30  14  31  14  32   8  33   8  34   8  35   8  36   8
M  ISO  8  37  13  38  13  39  13  40  13  41  14  42  14  45   8  46   8
M  ISO  8  48  13  49  13  50  13  51  13  52  13  53  13  54  13  55  13
M  ISO  1  56  13
M  END
>  <minimizedAffinity>  (1) 
-5.38593054

>  <minimizedRMSD>  (1) 
1.69785988

$$$$
