
     RDKit          3D

 58 61  0  0  1  0  0  0  0  0999 V2000
   43.5370   33.9980   40.8990 C   0  0  1  0  0  0  0  0  0  0  0  0
   42.4310   34.7460   40.2530 C   0  0  0  0  0  0  0  0  0  0  0  0
   42.4980   34.7880   38.8890 C   0  0  0  0  0  0  0  0  0  0  0  0
   41.5060   35.4760   38.1730 C   0  0  0  0  0  0  0  0  0  0  0  0
   40.5280   36.0690   38.8580 N   0  0  0  0  0  0  0  0  0  0  0  0
   40.4820   36.0140   40.2020 C   0  0  0  0  0  0  0  0  0  0  0  0
   41.4220   35.3640   40.8380 N   0  0  0  0  0  0  0  0  0  0  0  0
   44.4310   33.4280   39.8160 C   0  0  0  0  0  0  0  0  0  0  0  0
   44.3870   35.0160   41.6230 C   0  0  0  0  0  0  0  0  0  0  0  0
   44.3890   34.7750   43.1030 C   0  0  2  0  0  0  0  0  0  0  0  0
   44.8530   35.8230   44.0130 C   0  0  0  0  0  0  0  0  0  0  0  0
   45.7140   34.6240   43.7510 C   0  0  1  0  0  0  0  0  0  0  0  0
   45.9460   33.8140   44.9130 N   0  0  0  0  0  0  0  0  0  0  0  0
   45.3570   33.8950   46.1130 N   0  0  0  0  0  0  0  0  0  0  0  0
   45.8530   32.9530   46.9250 C   0  0  0  0  0  0  0  0  0  0  0  0
   46.7650   32.2830   46.2000 C   0  0  0  0  0  0  0  0  0  0  0  0
   46.8330   32.8330   44.9000 C   0  0  0  0  0  0  0  0  0  0  0  0
   47.6980   32.3240   43.9530 N   0  0  0  0  0  0  0  0  0  0  0  0
   43.1250   32.8840   41.7420 C   0  0  0  0  0  0  0  0  0  0  0  0
   41.7660   32.6190   42.0560 N   0  0  0  0  0  0  0  0  0  0  0  0
   41.3180   31.3430   41.5710 C   0  0  0  0  0  0  0  0  0  0  0  0
   40.3110   31.1410   40.8390 O   0  0  0  0  0  0  0  0  0  0  0  0
   41.9620   30.1770   41.8710 O   0  0  0  0  0  0  0  0  0  0  0  0
   40.6860   28.0750   45.2190 N   0  0  0  0  0  0  0  0  0  0  0  0
   40.2540   29.4420   45.0400 C   0  0  0  0  0  0  0  0  0  0  0  0
   40.2720   29.6900   43.5250 C   0  0  0  0  0  0  0  0  0  0  0  0
   41.7320   29.5910   43.1370 C   0  0  0  0  0  0  0  0  0  0  0  0
   42.1880   28.1880   43.2570 C   0  0  0  0  0  0  0  0  0  0  0  0
   41.9980   27.7940   44.7150 C   0  0  0  0  0  0  0  0  0  0  0  0
   43.3209   34.2878   38.3574 H   0  0  0  0  0  0  0  0  0  0  0  0
   41.5348   35.5247   37.0745 H   0  0  0  0  0  0  0  0  0  0  0  0
   39.6689   36.5066   40.7553 H   0  0  0  0  0  0  0  0  0  0  0  0
   45.2722   32.8917   40.2795 H   0  0  0  0  0  0  0  0  0  0  0  0
   43.8520   32.7320   39.1912 H   0  0  0  0  0  0  0  0  0  0  0  0
   44.8177   34.2466   39.1912 H   0  0  0  0  0  0  0  0  0  0  0  0
   45.4193   34.9513   41.2486 H   0  0  0  0  0  0  0  0  0  0  0  0
   43.9653   36.0146   41.4358 H   0  0  0  0  0  0  0  0  0  0  0  0
   43.4640   34.1822   43.0480 H   0  0  0  0  0  0  0  0  0  0  0  0
   45.1444   36.8066   43.6160 H   0  0  0  0  0  0  0  0  0  0  0  0
   44.4467   36.3067   44.9135 H   0  0  0  0  0  0  0  0  0  0  0  0
   46.7010   34.3692   43.3375 H   0  0  0  0  0  0  0  0  0  0  0  0
   45.5715   32.7657   47.9718 H   0  0  0  0  0  0  0  0  0  0  0  0
   47.3663   31.4364   46.5629 H   0  0  0  0  0  0  0  0  0  0  0  0
   48.3101   31.5298   44.1886 H   0  0  0  0  0  0  0  0  0  0  0  0
   47.7315   32.7382   43.0106 H   0  0  0  0  0  0  0  0  0  0  0  0
   43.5069   31.9755   41.2534 H   0  0  0  0  0  0  0  0  0  0  0  0
   43.5245   33.1866   42.7212 H   0  0  0  0  0  0  0  0  0  0  0  0
   41.1644   33.2729   42.5769 H   0  0  0  0  0  0  0  0  0  0  0  0
   40.6771   27.8645   46.2272 H   0  0  0  0  0  0  0  0  0  0  0  0
   39.2378   29.5781   45.4386 H   0  0  0  0  0  0  0  0  0  0  0  0
   40.9080   30.1471   45.5740 H   0  0  0  0  0  0  0  0  0  0  0  0
   39.6784   28.9271   42.9999 H   0  0  0  0  0  0  0  0  0  0  0  0
   39.8352   30.6634   43.2573 H   0  0  0  0  0  0  0  0  0  0  0  0
   42.3491   30.1761   43.8347 H   0  0  0  0  0  0  0  0  0  0  0  0
   41.5869   27.5362   42.6060 H   0  0  0  0  0  0  0  0  0  0  0  0
   43.2395   28.0844   42.9511 H   0  0  0  0  0  0  0  0  0  0  0  0
   42.1832   26.7139   44.8103 H   0  0  0  0  0  0  0  0  0  0  0  0
   42.7059   28.3936   45.3061 H   0  0  0  0  0  0  0  0  0  0  0  0
  1  8  1  6
  1  9  1  0
  1 19  1  0
  2  7  1  0
  2  1  1  0
  3  2  2  0
  4  5  2  0
  4  3  1  0
  5  6  1  0
  6  7  2  0
  9 10  1  0
 10 12  1  0
 10 11  1  0
 12 11  1  0
 12 13  1  0
 13 14  1  0
 14 15  2  0
 16 15  1  0
 17 13  1  0
 17 16  2  0
 18 17  1  0
 19 20  1  0
 21 23  1  0
 21 20  1  0
 22 21  2  0
 23 27  1  0
 25 24  1  0
 26 25  1  0
 27 28  1  0
 27 26  1  0
 28 29  1  0
 29 24  1  0
  3 30  1  0
  4 31  1  0
  6 32  1  0
  8 33  1  0
  8 34  1  0
  8 35  1  0
  9 36  1  0
  9 37  1  0
 10 38  1  1
 11 39  1  0
 11 40  1  0
 12 41  1  6
 15 42  1  0
 16 43  1  0
 18 44  1  0
 18 45  1  0
 19 46  1  0
 19 47  1  0
 20 48  1  0
 24 49  1  0
 25 50  1  0
 25 51  1  0
 26 52  1  0
 26 53  1  0
 27 54  1  0
 28 55  1  0
 28 56  1  0
 29 57  1  0
 29 58  1  0
M  ISO  8  30  14  31  14  32  14  33   8  34   8  35   8  36   8  37   8
M  ISO  8  38  13  39  13  40  13  41  13  42  14  43  14  46   8  47   8
M  ISO  8  49   5  50  13  51  13  52  13  53  13  54  13  55  13  56  13
M  ISO  2  57  13  58  13
M  END
>  <minimizedAffinity>  (1) 
-5.50658035

>  <minimizedRMSD>  (1) 
1.67224097

$$$$
