
     RDKit          3D

 53 56  0  0  1  0  0  0  0  0999 V2000
   43.5880   33.8280   41.0810 C   0  0  1  0  0  0  0  0  0  0  0  0
   42.4410   34.6870   40.6860 C   0  0  0  0  0  0  0  0  0  0  0  0
   42.2430   34.7980   39.3390 C   0  0  0  0  0  0  0  0  0  0  0  0
   41.1990   35.5850   38.8440 C   0  0  0  0  0  0  0  0  0  0  0  0
   40.4220   36.2090   39.7300 N   0  0  0  0  0  0  0  0  0  0  0  0
   40.6250   36.0940   41.0580 C   0  0  0  0  0  0  0  0  0  0  0  0
   41.6160   35.3450   41.4760 N   0  0  0  0  0  0  0  0  0  0  0  0
   44.3570   33.4530   39.8310 C   0  0  0  0  0  0  0  0  0  0  0  0
   44.5230   34.6960   41.8880 C   0  0  0  0  0  0  0  0  0  0  0  0
   44.5230   34.3100   43.3350 C   0  0  2  0  0  0  0  0  0  0  0  0
   45.0280   35.2400   44.3450 C   0  0  0  0  0  0  0  0  0  0  0  0
   45.8430   34.0420   43.9510 C   0  0  1  0  0  0  0  0  0  0  0  0
   46.0520   33.1200   45.0230 N   0  0  0  0  0  0  0  0  0  0  0  0
   46.5770   33.3400   46.2230 N   0  0  0  0  0  0  0  0  0  0  0  0
   46.5930   32.2030   46.9340 C   0  0  0  0  0  0  0  0  0  0  0  0
   46.0610   31.2570   46.1410 C   0  0  0  0  0  0  0  0  0  0  0  0
   45.7090   31.8350   44.9100 C   0  0  0  0  0  0  0  0  0  0  0  0
   45.1270   31.0630   43.9100 N   0  0  0  0  0  0  0  0  0  0  0  0
   43.2280   32.5870   41.7500 C   0  0  0  0  0  0  0  0  0  0  0  0
   41.8800   32.2010   41.9770 N   0  0  0  0  0  0  0  0  0  0  0  0
   41.6860   30.7780   41.9270 C   0  0  0  0  0  0  0  0  0  0  0  0
   40.8630   30.1580   41.2080 O   0  0  0  0  0  0  0  0  0  0  0  0
   42.4010   29.9070   42.6880 O   0  0  0  0  0  0  0  0  0  0  0  0
   41.8050   29.2150   43.7360 C   0  0  0  0  0  0  0  0  0  0  0  0
   40.6900   29.7810   44.3320 C   0  0  0  0  0  0  0  0  0  0  0  0
   40.1280   29.0490   45.3800 C   0  0  0  0  0  0  0  0  0  0  0  0
   40.6770   27.8560   45.7570 C   0  0  0  0  0  0  0  0  0  0  0  0
   41.7890   27.3100   45.1490 C   0  0  0  0  0  0  0  0  0  0  0  0
   42.3430   28.0270   44.1200 C   0  0  0  0  0  0  0  0  0  0  0  0
   42.9071   34.2665   38.6416 H   0  0  0  0  0  0  0  0  0  0  0  0
   41.0248   35.6859   37.7626 H   0  0  0  0  0  0  0  0  0  0  0  0
   39.9739   36.6168   41.7741 H   0  0  0  0  0  0  0  0  0  0  0  0
   45.3124   32.9871   40.1142 H   0  0  0  0  0  0  0  0  0  0  0  0
   43.7649   32.7425   39.2355 H   0  0  0  0  0  0  0  0  0  0  0  0
   44.5522   34.3571   39.2355 H   0  0  0  0  0  0  0  0  0  0  0  0
   45.5428   34.5884   41.4899 H   0  0  0  0  0  0  0  0  0  0  0  0
   44.1785   35.7378   41.8099 H   0  0  0  0  0  0  0  0  0  0  0  0
   43.5745   33.7634   43.2275 H   0  0  0  0  0  0  0  0  0  0  0  0
   45.3541   36.2484   44.0503 H   0  0  0  0  0  0  0  0  0  0  0  0
   44.6439   35.6419   45.2942 H   0  0  0  0  0  0  0  0  0  0  0  0
   46.8146   33.7902   43.5009 H   0  0  0  0  0  0  0  0  0  0  0  0
   46.9665   32.0710   47.9602 H   0  0  0  0  0  0  0  0  0  0  0  0
   45.9234   30.1999   46.4124 H   0  0  0  0  0  0  0  0  0  0  0  0
   44.9580   30.0592   44.0670 H   0  0  0  0  0  0  0  0  0  0  0  0
   44.8651   31.4952   43.0125 H   0  0  0  0  0  0  0  0  0  0  0  0
   43.6804   31.7788   41.1566 H   0  0  0  0  0  0  0  0  0  0  0  0
   43.5823   32.7745   42.7744 H   0  0  0  0  0  0  0  0  0  0  0  0
   41.1199   32.8719   42.1587 H   0  0  0  0  0  0  0  0  0  0  0  0
   40.2744   30.7443   44.0013 H   0  0  0  0  0  0  0  0  0  0  0  0
   39.2406   29.4340   45.9036 H   0  0  0  0  0  0  0  0  0  0  0  0
   40.2098   27.3038   46.5857 H   0  0  0  0  0  0  0  0  0  0  0  0
   42.2101   26.3471   45.4739 H   0  0  0  0  0  0  0  0  0  0  0  0
   43.2309   27.6375   43.6004 H   0  0  0  0  0  0  0  0  0  0  0  0
  1  8  1  6
  1 19  1  0
  1  9  1  0
  2  1  1  0
  2  7  1  0
  3  2  2  0
  4  3  1  0
  4  5  2  0
  5  6  1  0
  6  7  2  0
  9 10  1  0
 10 12  1  0
 10 11  1  0
 12 11  1  0
 12 13  1  0
 13 14  1  0
 14 15  2  0
 16 15  1  0
 17 13  1  0
 17 16  2  0
 18 17  1  0
 19 20  1  0
 21 20  1  0
 21 23  1  0
 22 21  2  0
 23 24  1  0
 24 29  1  0
 24 25  2  0
 25 26  1  0
 26 27  2  0
 28 27  1  0
 29 28  2  0
  3 30  1  0
  4 31  1  0
  6 32  1  0
  8 33  1  0
  8 34  1  0
  8 35  1  0
  9 36  1  0
  9 37  1  0
 10 38  1  1
 11 39  1  0
 11 40  1  0
 12 41  1  6
 15 42  1  0
 16 43  1  0
 18 44  1  0
 18 45  1  0
 19 46  1  0
 19 47  1  0
 20 48  1  0
 25 49  1  0
 26 50  1  0
 27 51  1  0
 28 52  1  0
 29 53  1  0
M  ISO  8  30  14  31  14  32  14  33   8  34   8  35   8  36   8  37   8
M  ISO  8  38  13  39  13  40  13  41  13  42  14  43  14  46   8  47   8
M  ISO  5  49  14  50  14  51  14  52  14  53  14
M  END
>  <minimizedAffinity>  (1) 
-5.34851933

>  <minimizedRMSD>  (1) 
1.56578946

$$$$
