
     RDKit          3D

 50 53  0  0  1  0  0  0  0  0999 V2000
   43.5480   34.0570   40.8340 C   0  0  1  0  0  0  0  0  0  0  0  0
   42.4110   34.7720   40.1980 C   0  0  0  0  0  0  0  0  0  0  0  0
   42.4760   34.8530   38.8360 C   0  0  0  0  0  0  0  0  0  0  0  0
   41.4610   35.5120   38.1360 C   0  0  0  0  0  0  0  0  0  0  0  0
   40.4540   36.0410   38.8310 N   0  0  0  0  0  0  0  0  0  0  0  0
   40.4050   35.9500   40.1750 C   0  0  0  0  0  0  0  0  0  0  0  0
   41.3730   35.3270   40.7960 N   0  0  0  0  0  0  0  0  0  0  0  0
   44.4320   33.4880   39.7440 C   0  0  0  0  0  0  0  0  0  0  0  0
   44.3780   35.1040   41.5370 C   0  0  0  0  0  0  0  0  0  0  0  0
   44.4100   34.8890   43.0140 C   0  0  2  0  0  0  0  0  0  0  0  0
   44.9480   35.9260   43.8970 C   0  0  0  0  0  0  0  0  0  0  0  0
   45.7350   34.6850   43.6370 C   0  0  1  0  0  0  0  0  0  0  0  0
   45.9650   33.8860   44.8030 N   0  0  0  0  0  0  0  0  0  0  0  0
   45.3660   33.9480   45.9860 N   0  0  0  0  0  0  0  0  0  0  0  0
   45.8750   33.0240   46.8060 C   0  0  0  0  0  0  0  0  0  0  0  0
   46.8240   32.3720   46.0950 C   0  0  0  0  0  0  0  0  0  0  0  0
   46.8910   32.9250   44.7900 C   0  0  0  0  0  0  0  0  0  0  0  0
   47.7970   32.4300   43.8810 N   0  0  0  0  0  0  0  0  0  0  0  0
   43.1750   32.9450   41.6970 C   0  0  0  0  0  0  0  0  0  0  0  0
   41.8280   32.6650   42.0510 N   0  0  0  0  0  0  0  0  0  0  0  0
   41.3150   31.4850   41.4120 C   0  0  0  0  0  0  0  0  0  0  0  0
   40.2630   31.4090   40.7200 O   0  0  0  0  0  0  0  0  0  0  0  0
   41.9330   30.2740   41.4920 O   0  0  0  0  0  0  0  0  0  0  0  0
   41.9090   29.6120   42.8400 C   0  0  0  0  0  0  0  0  0  0  0  0
   42.8440   29.1040   43.6010 C   0  0  0  0  0  0  0  0  0  0  0  0
   42.4300   28.5760   44.7920 C   0  0  0  0  0  0  0  0  0  0  0  0
   41.0890   28.5930   45.1400 C   0  0  0  0  0  0  0  0  0  0  0  0
   40.2670   29.4430   43.6520 S   0  0  0  0  0  0  0  0  0  0  0  0
   43.3208   34.4030   38.2939 H   0  0  0  0  0  0  0  0  0  0  0  0
   41.4926   35.5920   37.0394 H   0  0  0  0  0  0  0  0  0  0  0  0
   39.5686   36.3904   40.7376 H   0  0  0  0  0  0  0  0  0  0  0  0
   45.2737   32.9462   40.2000 H   0  0  0  0  0  0  0  0  0  0  0  0
   43.8461   32.7970   39.1201 H   0  0  0  0  0  0  0  0  0  0  0  0
   44.8183   34.3075   39.1201 H   0  0  0  0  0  0  0  0  0  0  0  0
   45.4065   35.0621   41.1491 H   0  0  0  0  0  0  0  0  0  0  0  0
   43.9218   36.0864   41.3451 H   0  0  0  0  0  0  0  0  0  0  0  0
   43.4566   34.3409   42.9871 H   0  0  0  0  0  0  0  0  0  0  0  0
   45.2815   36.8867   43.4777 H   0  0  0  0  0  0  0  0  0  0  0  0
   44.5878   36.4442   44.7979 H   0  0  0  0  0  0  0  0  0  0  0  0
   46.6969   34.3715   43.2052 H   0  0  0  0  0  0  0  0  0  0  0  0
   45.5818   32.8320   47.8487 H   0  0  0  0  0  0  0  0  0  0  0  0
   47.4449   31.5447   46.4693 H   0  0  0  0  0  0  0  0  0  0  0  0
   48.4174   31.6511   44.1442 H   0  0  0  0  0  0  0  0  0  0  0  0
   47.8550   32.8383   42.9372 H   0  0  0  0  0  0  0  0  0  0  0  0
   43.5553   32.0375   41.2053 H   0  0  0  0  0  0  0  0  0  0  0  0
   43.5979   33.2606   42.6622 H   0  0  0  0  0  0  0  0  0  0  0  0
   41.2770   33.2470   42.6980 H   0  0  0  0  0  0  0  0  0  0  0  0
   43.9020   29.1019   43.3000 H   0  0  0  0  0  0  0  0  0  0  0  0
   43.1668   28.1344   45.4791 H   0  0  0  0  0  0  0  0  0  0  0  0
   40.6152   28.2081   46.0551 H   0  0  0  0  0  0  0  0  0  0  0  0
  1  8  1  6
  1  9  1  0
  1 19  1  0
  2  7  1  0
  2  1  1  0
  3  2  2  0
  4  5  2  0
  4  3  1  0
  5  6  1  0
  6  7  2  0
  9 10  1  0
 10 12  1  0
 10 11  1  0
 12 11  1  0
 12 13  1  0
 13 14  1  0
 14 15  2  0
 16 15  1  0
 17 13  1  0
 17 16  2  0
 18 17  1  0
 19 20  1  0
 21 23  1  0
 21 20  1  0
 22 21  2  0
 23 24  1  0
 24 25  2  0
 24 28  1  0
 25 26  1  0
 26 27  2  0
 28 27  1  0
  3 29  1  0
  4 30  1  0
  6 31  1  0
  8 32  1  0
  8 33  1  0
  8 34  1  0
  9 35  1  0
  9 36  1  0
 10 37  1  1
 11 38  1  0
 11 39  1  0
 12 40  1  6
 15 41  1  0
 16 42  1  0
 18 43  1  0
 18 44  1  0
 19 45  1  0
 19 46  1  0
 20 47  1  0
 25 48  1  0
 26 49  1  0
 27 50  1  0
M  ISO  8  29  14  30  14  31  14  32   8  33   8  34   8  35   8  36   8
M  ISO  8  37  13  38  13  39  13  40  13  41  14  42  14  45   8  46   8
M  ISO  3  48  14  49  14  50  14
M  END
>  <minimizedAffinity>  (1) 
-5.31799698

>  <minimizedRMSD>  (1) 
1.72077036

$$$$
