
     RDKit          3D

 37 40  0  0  1  0  0  0  0  0999 V2000
   44.6310   35.6580   44.8880 C   0  0  0  0  0  0  0  0  0  0  0  0
   45.0580   35.4880   43.5470 C   0  0  0  0  0  0  0  0  0  0  0  0
   45.7400   34.3220   43.2460 C   0  0  0  0  0  0  0  0  0  0  0  0
   45.9630   33.4110   44.2420 N   0  0  0  0  0  0  0  0  0  0  0  0
   45.5360   33.6210   45.4940 C   0  0  0  0  0  0  0  0  0  0  0  0
   44.8750   34.7350   45.8160 N   0  0  0  0  0  0  0  0  0  0  0  0
   45.8010   32.6230   46.5270 N   0  0  0  0  0  0  0  0  0  0  0  0
   45.3400   32.8360   47.8860 C   0  0  0  0  0  0  0  0  0  0  0  0
   46.2780   32.2850   48.9100 C   0  0  0  0  0  0  0  0  0  0  0  0
   47.6260   32.0320   48.2840 C   0  0  0  0  0  0  0  0  0  0  0  0
   47.4220   30.9270   47.2520 C   0  0  0  0  0  0  0  0  0  0  0  0
   46.5320   31.4210   46.1690 C   0  0  1  0  0  0  0  0  0  0  0  0
   45.6260   30.3760   45.6130 C   0  0  0  0  0  0  0  0  0  0  0  0
   45.4180   30.0220   44.3450 N   0  0  0  0  0  0  0  0  0  0  0  0
   44.5630   29.0570   44.2400 O   0  0  0  0  0  0  0  0  0  0  0  0
   44.1820   28.7480   45.4670 C   0  0  0  0  0  0  0  0  0  0  0  0
   44.8190   29.5430   46.3500 N   0  0  0  0  0  0  0  0  0  0  0  0
   43.2180   27.7020   45.7970 C   0  0  0  0  0  0  0  0  0  0  0  0
   41.9200   27.6350   45.3360 C   0  0  0  0  0  0  0  0  0  0  0  0
   41.3900   26.4860   45.9040 C   0  0  0  0  0  0  0  0  0  0  0  0
   42.3460   25.8930   46.6770 N   0  0  0  0  0  0  0  0  0  0  0  0
   43.4440   26.6450   46.5980 N   0  0  0  0  0  0  0  0  0  0  0  0
   44.0865   36.5719   45.1678 H   0  0  0  0  0  0  0  0  0  0  0  0
   44.8561   36.2495   42.7793 H   0  0  0  0  0  0  0  0  0  0  0  0
   46.0968   34.1309   42.2232 H   0  0  0  0  0  0  0  0  0  0  0  0
   45.2318   33.9176   48.0547 H   0  0  0  0  0  0  0  0  0  0  0  0
   44.3819   32.3072   47.9968 H   0  0  0  0  0  0  0  0  0  0  0  0
   46.3869   33.0078   49.7320 H   0  0  0  0  0  0  0  0  0  0  0  0
   45.8751   31.3385   49.2998 H   0  0  0  0  0  0  0  0  0  0  0  0
   47.9957   32.9454   47.7951 H   0  0  0  0  0  0  0  0  0  0  0  0
   48.3680   31.7382   49.0410 H   0  0  0  0  0  0  0  0  0  0  0  0
   48.3942   30.6392   46.8254 H   0  0  0  0  0  0  0  0  0  0  0  0
   46.9616   30.0529   47.7358 H   0  0  0  0  0  0  0  0  0  0  0  0
   47.2220   31.6975   45.3582 H   0  0  0  0  0  0  0  0  0  0  0  0
   41.4134   28.3416   44.6621 H   0  0  0  0  0  0  0  0  0  0  0  0
   40.3658   26.1132   45.7556 H   0  0  0  0  0  0  0  0  0  0  0  0
   42.2389   25.0249   47.2209 H   0  0  0  0  0  0  0  0  0  0  0  0
  1  6  2  0
  2  1  1  0
  3  2  2  0
  3  4  1  0
  4  5  2  0
  5  6  1  0
  5  7  1  0
  7  8  1  0
  8  9  1  0
 10  9  1  0
 11 10  1  0
 12  7  1  0
 12 11  1  0
 13 12  1  0
 13 17  1  0
 14 13  2  0
 15 14  1  0
 15 16  1  0
 16 18  1  0
 16 17  2  0
 18 22  2  0
 19 18  1  0
 19 20  2  0
 20 21  1  0
 22 21  1  0
  1 23  1  0
  2 24  1  0
  3 25  1  0
  8 26  1  0
  8 27  1  0
  9 28  1  0
  9 29  1  0
 10 30  1  0
 10 31  1  0
 11 32  1  0
 11 33  1  0
 12 34  1  6
 19 35  1  0
 20 36  1  0
 21 37  1  0
M  ISO  8  23  14  24  14  25  14  26  13  27  13  28  13  29  13  30  13
M  ISO  7  31  13  32  13  33  13  34  13  35  14  36  14  37   9
M  END
>  <minimizedAffinity>  (1) 
-5.5028348

>  <minimizedRMSD>  (1) 
0.623158753

$$$$
