
     RDKit          3D

 51 54  0  0  1  0  0  0  0  0999 V2000
   43.5550   33.9940   41.1950 C   0  0  1  0  0  0  0  0  0  0  0  0
   42.4010   34.8010   40.7190 C   0  0  0  0  0  0  0  0  0  0  0  0
   42.2700   34.8580   39.3610 C   0  0  0  0  0  0  0  0  0  0  0  0
   41.2220   35.6000   38.7990 C   0  0  0  0  0  0  0  0  0  0  0  0
   40.3810   36.2310   39.6210 N   0  0  0  0  0  0  0  0  0  0  0  0
   40.5280   36.1600   40.9570 C   0  0  0  0  0  0  0  0  0  0  0  0
   41.5170   35.4590   41.4460 N   0  0  0  0  0  0  0  0  0  0  0  0
   44.4240   33.6550   40.0010 C   0  0  0  0  0  0  0  0  0  0  0  0
   44.3910   34.9050   42.0600 C   0  0  0  0  0  0  0  0  0  0  0  0
   44.4290   34.4320   43.4780 C   0  0  2  0  0  0  0  0  0  0  0  0
   44.9290   35.3150   44.5330 C   0  0  0  0  0  0  0  0  0  0  0  0
   45.7670   34.1660   44.0590 C   0  0  1  0  0  0  0  0  0  0  0  0
   46.0190   33.1820   45.0670 N   0  0  0  0  0  0  0  0  0  0  0  0
   46.5590   33.3480   46.2760 N   0  0  0  0  0  0  0  0  0  0  0  0
   46.6180   32.1720   46.9110 C   0  0  0  0  0  0  0  0  0  0  0  0
   46.1010   31.2620   46.0700 C   0  0  0  0  0  0  0  0  0  0  0  0
   45.7090   31.8980   44.8750 C   0  0  0  0  0  0  0  0  0  0  0  0
   45.1380   31.1830   43.8390 N   0  0  0  0  0  0  0  0  0  0  0  0
   43.2040   32.7380   41.8400 C   0  0  0  0  0  0  0  0  0  0  0  0
   41.8810   32.2230   41.8560 N   0  0  0  0  0  0  0  0  0  0  0  0
   41.8340   30.8030   41.6310 C   0  0  0  0  0  0  0  0  0  0  0  0
   41.1640   30.2180   40.7380 O   0  0  0  0  0  0  0  0  0  0  0  0
   42.5370   29.9120   42.3950 O   0  0  0  0  0  0  0  0  0  0  0  0
   41.9440   29.2950   43.4920 C   0  0  0  0  0  0  0  0  0  0  0  0
   42.5150   28.1780   44.0410 C   0  0  0  0  0  0  0  0  0  0  0  0
   41.8640   27.6200   45.1320 C   0  0  0  0  0  0  0  0  0  0  0  0
   40.7130   28.1330   45.6570 N   0  0  0  0  0  0  0  0  0  0  0  0
   40.1970   29.2330   45.0740 C   0  0  0  0  0  0  0  0  0  0  0  0
   40.7950   29.8200   44.0020 N   0  0  0  0  0  0  0  0  0  0  0  0
   42.9816   34.3256   38.7129 H   0  0  0  0  0  0  0  0  0  0  0  0
   41.0959   35.6607   37.7079 H   0  0  0  0  0  0  0  0  0  0  0  0
   39.8282   36.6827   41.6256 H   0  0  0  0  0  0  0  0  0  0  0  0
   45.3957   33.2759   40.3505 H   0  0  0  0  0  0  0  0  0  0  0  0
   43.9272   32.8847   39.3928 H   0  0  0  0  0  0  0  0  0  0  0  0
   44.5800   34.5582   39.3928 H   0  0  0  0  0  0  0  0  0  0  0  0
   45.4170   34.9311   41.6643 H   0  0  0  0  0  0  0  0  0  0  0  0
   43.9389   35.9077   42.0428 H   0  0  0  0  0  0  0  0  0  0  0  0
   43.4950   33.8647   43.3521 H   0  0  0  0  0  0  0  0  0  0  0  0
   45.2242   36.3470   44.2923 H   0  0  0  0  0  0  0  0  0  0  0  0
   44.5511   35.6508   45.5099 H   0  0  0  0  0  0  0  0  0  0  0  0
   46.7394   33.9706   43.5833 H   0  0  0  0  0  0  0  0  0  0  0  0
   47.0118   31.9873   47.9213 H   0  0  0  0  0  0  0  0  0  0  0  0
   45.9992   30.1872   46.2809 H   0  0  0  0  0  0  0  0  0  0  0  0
   44.9972   30.1668   43.9308 H   0  0  0  0  0  0  0  0  0  0  0  0
   44.8533   31.6664   42.9752 H   0  0  0  0  0  0  0  0  0  0  0  0
   43.8243   31.9666   41.3602 H   0  0  0  0  0  0  0  0  0  0  0  0
   43.3588   32.9833   42.9011 H   0  0  0  0  0  0  0  0  0  0  0  0
   41.0447   32.8037   42.0120 H   0  0  0  0  0  0  0  0  0  0  0  0
   43.4424   27.7452   43.6377 H   0  0  0  0  0  0  0  0  0  0  0  0
   42.2961   26.7212   45.5961 H   0  0  0  0  0  0  0  0  0  0  0  0
   39.2692   29.6672   45.4748 H   0  0  0  0  0  0  0  0  0  0  0  0
  1  8  1  6
  1 19  1  0
  1  9  1  0
  2  1  1  0
  2  7  1  0
  3  2  2  0
  4  3  1  0
  4  5  2  0
  5  6  1  0
  6  7  2  0
  9 10  1  0
 10 12  1  0
 10 11  1  0
 12 11  1  0
 12 13  1  0
 13 14  1  0
 14 15  2  0
 16 15  1  0
 17 13  1  0
 17 16  2  0
 18 17  1  0
 19 20  1  0
 21 20  1  0
 21 23  1  0
 22 21  2  0
 23 24  1  0
 24 29  1  0
 24 25  2  0
 25 26  1  0
 26 27  2  0
 28 27  1  0
 29 28  2  0
  3 30  1  0
  4 31  1  0
  6 32  1  0
  8 33  1  0
  8 34  1  0
  8 35  1  0
  9 36  1  0
  9 37  1  0
 10 38  1  1
 11 39  1  0
 11 40  1  0
 12 41  1  6
 15 42  1  0
 16 43  1  0
 18 44  1  0
 18 45  1  0
 19 46  1  0
 19 47  1  0
 20 48  1  0
 25 49  1  0
 26 50  1  0
 28 51  1  0
M  ISO  8  30  14  31  14  32  14  33   8  34   8  35   8  36   8  37   8
M  ISO  8  38  13  39  13  40  13  41  13  42  14  43  14  46   8  47   8
M  ISO  3  49  14  50  14  51  14
M  END
>  <minimizedAffinity>  (1) 
-5.10783243

>  <minimizedRMSD>  (1) 
1.53552413

$$$$
