
     RDKit          3D

 50 53  0  0  1  0  0  0  0  0999 V2000
   43.5500   33.4940   41.1470 C   0  0  1  0  0  0  0  0  0  0  0  0
   42.4710   34.4350   40.7500 C   0  0  0  0  0  0  0  0  0  0  0  0
   42.3180   34.5770   39.3990 C   0  0  0  0  0  0  0  0  0  0  0  0
   41.3300   35.4550   38.9130 C   0  0  0  0  0  0  0  0  0  0  0  0
   40.5790   36.1190   39.7940 N   0  0  0  0  0  0  0  0  0  0  0  0
   40.7520   35.9580   41.1170 C   0  0  0  0  0  0  0  0  0  0  0  0
   41.6770   35.1360   41.5400 N   0  0  0  0  0  0  0  0  0  0  0  0
   44.2230   32.9800   39.8890 C   0  0  0  0  0  0  0  0  0  0  0  0
   44.5990   34.3100   41.8630 C   0  0  0  0  0  0  0  0  0  0  0  0
   44.5950   34.0480   43.3320 C   0  0  2  0  0  0  0  0  0  0  0  0
   45.1170   35.0470   44.2660 C   0  0  0  0  0  0  0  0  0  0  0  0
   45.9070   33.8080   43.9730 C   0  0  1  0  0  0  0  0  0  0  0  0
   46.1030   32.9660   45.1150 N   0  0  0  0  0  0  0  0  0  0  0  0
   46.6650   33.2720   46.2820 N   0  0  0  0  0  0  0  0  0  0  0  0
   46.6540   32.2010   47.0930 C   0  0  0  0  0  0  0  0  0  0  0  0
   46.0600   31.2110   46.3790 C   0  0  0  0  0  0  0  0  0  0  0  0
   45.7070   31.6910   45.1170 C   0  0  0  0  0  0  0  0  0  0  0  0
   45.0810   30.8630   44.2060 N   0  0  0  0  0  0  0  0  0  0  0  0
   43.1080   32.3330   41.9010 C   0  0  0  0  0  0  0  0  0  0  0  0
   41.7380   32.0570   42.1580 N   0  0  0  0  0  0  0  0  0  0  0  0
   41.4720   30.6540   42.3380 C   0  0  0  0  0  0  0  0  0  0  0  0
   40.6330   29.9700   41.6930 O   0  0  0  0  0  0  0  0  0  0  0  0
   42.1310   29.9010   43.2670 O   0  0  0  0  0  0  0  0  0  0  0  0
   39.9370   28.5600   45.7050 N   0  0  0  0  0  0  0  0  0  0  0  0
   40.3080   29.5400   44.8680 N   0  0  0  0  0  0  0  0  0  0  0  0
   41.4270   29.1700   44.2180 C   0  0  0  0  0  0  0  0  0  0  0  0
   41.8060   27.8930   44.6470 C   0  0  0  0  0  0  0  0  0  0  0  0
   40.8330   27.5570   45.5830 C   0  0  0  0  0  0  0  0  0  0  0  0
   42.9567   34.0142   38.7023 H   0  0  0  0  0  0  0  0  0  0  0  0
   41.1806   35.5905   37.8316 H   0  0  0  0  0  0  0  0  0  0  0  0
   40.1250   36.5093   41.8332 H   0  0  0  0  0  0  0  0  0  0  0  0
   45.0694   32.3335   40.1640 H   0  0  0  0  0  0  0  0  0  0  0  0
   43.4987   32.4030   39.2953 H   0  0  0  0  0  0  0  0  0  0  0  0
   44.5890   33.8306   39.2953 H   0  0  0  0  0  0  0  0  0  0  0  0
   45.5887   34.0526   41.4578 H   0  0  0  0  0  0  0  0  0  0  0  0
   44.3725   35.3746   41.7041 H   0  0  0  0  0  0  0  0  0  0  0  0
   43.6364   33.5126   43.2653 H   0  0  0  0  0  0  0  0  0  0  0  0
   45.4635   36.0217   43.8921 H   0  0  0  0  0  0  0  0  0  0  0  0
   44.7394   35.5316   45.1785 H   0  0  0  0  0  0  0  0  0  0  0  0
   46.8752   33.5038   43.5487 H   0  0  0  0  0  0  0  0  0  0  0  0
   47.0442   32.1393   48.1196 H   0  0  0  0  0  0  0  0  0  0  0  0
   45.8838   30.1870   46.7400 H   0  0  0  0  0  0  0  0  0  0  0  0
   44.8770   29.8845   44.4547 H   0  0  0  0  0  0  0  0  0  0  0  0
   44.8181   31.2240   43.2778 H   0  0  0  0  0  0  0  0  0  0  0  0
   43.4993   31.4557   41.3651 H   0  0  0  0  0  0  0  0  0  0  0  0
   43.4797   32.5686   42.9091 H   0  0  0  0  0  0  0  0  0  0  0  0
   41.0112   32.7850   42.2100 H   0  0  0  0  0  0  0  0  0  0  0  0
   39.1170   28.5705   46.3282 H   0  0  0  0  0  0  0  0  0  0  0  0
   42.6700   27.2954   44.3209 H   0  0  0  0  0  0  0  0  0  0  0  0
   40.7985   26.6108   46.1429 H   0  0  0  0  0  0  0  0  0  0  0  0
  1  8  1  6
  1  9  1  0
  1 19  1  0
  2  1  1  0
  2  7  1  0
  3  2  2  0
  4  3  1  0
  4  5  2  0
  5  6  1  0
  6  7  2  0
  9 10  1  0
 10 12  1  0
 10 11  1  0
 12 11  1  0
 12 13  1  0
 13 17  1  0
 13 14  1  0
 14 15  2  0
 16 15  1  0
 17 16  2  0
 18 17  1  0
 19 20  1  0
 20 21  1  0
 21 23  1  0
 22 21  2  0
 23 26  1  0
 25 24  1  0
 26 27  1  0
 26 25  2  0
 27 28  2  0
 28 24  1  0
  3 29  1  0
  4 30  1  0
  6 31  1  0
  8 32  1  0
  8 33  1  0
  8 34  1  0
  9 35  1  0
  9 36  1  0
 10 37  1  1
 11 38  1  0
 11 39  1  0
 12 40  1  6
 15 41  1  0
 16 42  1  0
 18 43  1  0
 18 44  1  0
 19 45  1  0
 19 46  1  0
 20 47  1  0
 24 48  1  0
 27 49  1  0
 28 50  1  0
M  ISO  8  29  14  30  14  31  14  32   8  33   8  34   8  35   8  36   8
M  ISO  8  37  13  38  13  39  13  40  13  41  14  42  14  45   8  46   8
M  ISO  3  48   9  49  14  50  14
M  END
>  <minimizedAffinity>  (1) 
-5.27665901

>  <minimizedRMSD>  (1) 
1.70458567

$$$$
