
     RDKit          3D

 49 52  0  0  1  0  0  0  0  0999 V2000
   43.4720   33.9000   40.7850 C   0  0  1  0  0  0  0  0  0  0  0  0
   42.3810   34.7060   40.1760 C   0  0  0  0  0  0  0  0  0  0  0  0
   42.4450   34.8170   38.8170 C   0  0  0  0  0  0  0  0  0  0  0  0
   41.4720   35.5610   38.1350 C   0  0  0  0  0  0  0  0  0  0  0  0
   40.5070   36.1390   38.8480 N   0  0  0  0  0  0  0  0  0  0  0  0
   40.4590   36.0190   40.1890 C   0  0  0  0  0  0  0  0  0  0  0  0
   41.3860   35.3160   40.7900 N   0  0  0  0  0  0  0  0  0  0  0  0
   44.2410   33.2140   39.6750 C   0  0  0  0  0  0  0  0  0  0  0  0
   44.4390   34.8810   41.3980 C   0  0  0  0  0  0  0  0  0  0  0  0
   44.4690   34.7630   42.8920 C   0  0  2  0  0  0  0  0  0  0  0  0
   45.0590   35.8320   43.6990 C   0  0  0  0  0  0  0  0  0  0  0  0
   45.7930   34.5380   43.5180 C   0  0  1  0  0  0  0  0  0  0  0  0
   45.9850   33.8110   44.7390 N   0  0  0  0  0  0  0  0  0  0  0  0
   45.3680   33.9730   45.9110 N   0  0  0  0  0  0  0  0  0  0  0  0
   45.8350   33.0870   46.8010 C   0  0  0  0  0  0  0  0  0  0  0  0
   46.7680   32.3630   46.1450 C   0  0  0  0  0  0  0  0  0  0  0  0
   46.8720   32.8200   44.8200 C   0  0  0  0  0  0  0  0  0  0  0  0
   47.7610   32.2360   43.9400 N   0  0  0  0  0  0  0  0  0  0  0  0
   43.0330   32.8630   41.7060 C   0  0  0  0  0  0  0  0  0  0  0  0
   41.6680   32.6630   42.0480 N   0  0  0  0  0  0  0  0  0  0  0  0
   41.1310   31.4430   41.5130 C   0  0  0  0  0  0  0  0  0  0  0  0
   40.1070   31.3360   40.7860 O   0  0  0  0  0  0  0  0  0  0  0  0
   41.7050   30.2250   41.7520 O   0  0  0  0  0  0  0  0  0  0  0  0
   41.5440   29.5850   42.9720 C   0  0  0  0  0  0  0  0  0  0  0  0
   42.3630   28.5130   43.4160 C   0  0  0  0  0  0  0  0  0  0  0  0
   41.6120   28.1330   45.1020 S   0  0  0  0  0  0  0  0  0  0  0  0
   40.3340   29.5180   44.8490 C   0  0  0  0  0  0  0  0  0  0  0  0
   40.6070   29.9170   43.8370 N   0  0  0  0  0  0  0  0  0  0  0  0
   43.2559   34.3252   38.2598 H   0  0  0  0  0  0  0  0  0  0  0  0
   41.5047   35.6646   37.0404 H   0  0  0  0  0  0  0  0  0  0  0  0
   39.6574   36.5017   40.7673 H   0  0  0  0  0  0  0  0  0  0  0  0
   44.9943   32.5420   40.1119 H   0  0  0  0  0  0  0  0  0  0  0  0
   43.5457   32.6307   39.0535 H   0  0  0  0  0  0  0  0  0  0  0  0
   44.7415   33.9711   39.0535 H   0  0  0  0  0  0  0  0  0  0  0  0
   45.4467   34.6833   41.0036 H   0  0  0  0  0  0  0  0  0  0  0  0
   44.1093   35.8979   41.1389 H   0  0  0  0  0  0  0  0  0  0  0  0
   43.4911   34.2596   42.9095 H   0  0  0  0  0  0  0  0  0  0  0  0
   45.4294   36.7470   43.2136 H   0  0  0  0  0  0  0  0  0  0  0  0
   44.7296   36.4248   44.5651 H   0  0  0  0  0  0  0  0  0  0  0  0
   46.7365   34.1541   43.1028 H   0  0  0  0  0  0  0  0  0  0  0  0
   45.5230   32.9727   47.8496 H   0  0  0  0  0  0  0  0  0  0  0  0
   47.3560   31.5419   46.5809 H   0  0  0  0  0  0  0  0  0  0  0  0
   48.3591   31.4579   44.2527 H   0  0  0  0  0  0  0  0  0  0  0  0
   47.8262   32.5784   42.9708 H   0  0  0  0  0  0  0  0  0  0  0  0
   43.3821   31.9108   41.2801 H   0  0  0  0  0  0  0  0  0  0  0  0
   43.4499   33.2216   42.6586 H   0  0  0  0  0  0  0  0  0  0  0  0
   41.1216   33.3233   42.6192 H   0  0  0  0  0  0  0  0  0  0  0  0
   43.2122   28.0313   42.9091 H   0  0  0  0  0  0  0  0  0  0  0  0
   39.5300   29.8453   45.5246 H   0  0  0  0  0  0  0  0  0  0  0  0
  1  8  1  6
  1  9  1  0
  1 19  1  0
  2  1  1  0
  2  7  1  0
  3  2  2  0
  4  3  1  0
  4  5  2  0
  5  6  1  0
  6  7  2  0
  9 10  1  0
 10 12  1  0
 10 11  1  0
 12 11  1  0
 12 13  1  0
 13 17  1  0
 13 14  1  0
 14 15  2  0
 16 15  1  0
 17 16  2  0
 18 17  1  0
 19 20  1  0
 21 23  1  0
 21 20  1  0
 22 21  2  0
 23 24  1  0
 24 25  2  0
 24 28  1  0
 25 26  1  0
 27 26  1  0
 28 27  2  0
  3 29  1  0
  4 30  1  0
  6 31  1  0
  8 32  1  0
  8 33  1  0
  8 34  1  0
  9 35  1  0
  9 36  1  0
 10 37  1  1
 11 38  1  0
 11 39  1  0
 12 40  1  6
 15 41  1  0
 16 42  1  0
 18 43  1  0
 18 44  1  0
 19 45  1  0
 19 46  1  0
 20 47  1  0
 25 48  1  0
 27 49  1  0
M  ISO  8  29  14  30  14  31  14  32   8  33   8  34   8  35   8  36   8
M  ISO  8  37  13  38  13  39  13  40  13  41  14  42  14  45   8  46   8
M  ISO  2  48  14  49  14
M  END
>  <minimizedAffinity>  (1) 
-5.28746176

>  <minimizedRMSD>  (1) 
1.74788165

$$$$
