
     RDKit          3D

 47 49  0  0  1  0  0  0  0  0999 V2000
   43.6660   34.1770   41.1270 C   0  0  1  0  0  0  0  0  0  0  0  0
   42.5070   34.8630   40.4980 C   0  0  0  0  0  0  0  0  0  0  0  0
   42.5130   34.8630   39.1350 C   0  0  0  0  0  0  0  0  0  0  0  0
   41.4730   35.4840   38.4320 C   0  0  0  0  0  0  0  0  0  0  0  0
   40.4990   36.0640   39.1340 N   0  0  0  0  0  0  0  0  0  0  0  0
   40.5090   36.0540   40.4790 C   0  0  0  0  0  0  0  0  0  0  0  0
   41.4970   35.4640   41.1000 N   0  0  0  0  0  0  0  0  0  0  0  0
   44.5950   33.7050   40.0280 C   0  0  0  0  0  0  0  0  0  0  0  0
   44.4250   35.2370   41.8870 C   0  0  0  0  0  0  0  0  0  0  0  0
   44.2700   35.0780   43.3610 C   0  0  2  0  0  0  0  0  0  0  0  0
   44.6950   36.1490   44.2650 C   0  0  0  0  0  0  0  0  0  0  0  0
   45.5090   34.8930   44.1560 C   0  0  1  0  0  0  0  0  0  0  0  0
   45.5730   34.1350   45.3740 N   0  0  0  0  0  0  0  0  0  0  0  0
   44.8030   34.2560   46.4670 N   0  0  0  0  0  0  0  0  0  0  0  0
   45.1830   33.3530   47.3880 C   0  0  0  0  0  0  0  0  0  0  0  0
   46.2060   32.6720   46.8300 C   0  0  0  0  0  0  0  0  0  0  0  0
   46.4590   33.1720   45.5380 C   0  0  0  0  0  0  0  0  0  0  0  0
   47.4660   32.6380   44.7600 N   0  0  0  0  0  0  0  0  0  0  0  0
   43.3270   33.0150   41.9340 C   0  0  0  0  0  0  0  0  0  0  0  0
   41.9940   32.5480   42.0970 N   0  0  0  0  0  0  0  0  0  0  0  0
   41.9090   31.1120   42.0470 C   0  0  0  0  0  0  0  0  0  0  0  0
   41.1790   30.4290   41.2860 O   0  0  0  0  0  0  0  0  0  0  0  0
   42.6530   30.2980   42.8660 O   0  0  0  0  0  0  0  0  0  0  0  0
   42.0060   29.2040   43.4270 C   0  0  0  0  0  0  0  0  0  0  0  0
   42.3840   28.0280   42.7230 N   0  0  0  0  0  0  0  0  0  0  0  0
   41.2140   29.2410   44.4050 O   0  0  0  0  0  0  0  0  0  0  0  0
   43.3336   34.3759   38.5879 H   0  0  0  0  0  0  0  0  0  0  0  0
   41.4601   35.4930   37.3321 H   0  0  0  0  0  0  0  0  0  0  0  0
   39.6990   36.5344   41.0474 H   0  0  0  0  0  0  0  0  0  0  0  0
   45.4909   33.2498   40.4755 H   0  0  0  0  0  0  0  0  0  0  0  0
   44.0776   32.9604   39.4051 H   0  0  0  0  0  0  0  0  0  0  0  0
   44.8913   34.5619   39.4051 H   0  0  0  0  0  0  0  0  0  0  0  0
   45.4923   35.1634   41.6311 H   0  0  0  0  0  0  0  0  0  0  0  0
   44.0178   36.2189   41.6039 H   0  0  0  0  0  0  0  0  0  0  0  0
   43.3249   34.5296   43.2347 H   0  0  0  0  0  0  0  0  0  0  0  0
   45.0830   37.0931   43.8550 H   0  0  0  0  0  0  0  0  0  0  0  0
   44.2244   36.7013   45.0917 H   0  0  0  0  0  0  0  0  0  0  0  0
   46.5176   34.5647   43.8647 H   0  0  0  0  0  0  0  0  0  0  0  0
   44.7503   33.2010   48.3878 H   0  0  0  0  0  0  0  0  0  0  0  0
   46.7581   31.8513   47.3112 H   0  0  0  0  0  0  0  0  0  0  0  0
   48.0412   31.8642   45.1222 H   0  0  0  0  0  0  0  0  0  0  0  0
   47.6424   33.0133   43.8172 H   0  0  0  0  0  0  0  0  0  0  0  0
   43.8928   32.1739   41.5069 H   0  0  0  0  0  0  0  0  0  0  0  0
   43.5596   33.3750   42.9471 H   0  0  0  0  0  0  0  0  0  0  0  0
   41.1820   33.1665   42.2351 H   0  0  0  0  0  0  0  0  0  0  0  0
   41.9990   27.1144   43.0023 H   0  0  0  0  0  0  0  0  0  0  0  0
   43.0428   28.0897   41.9336 H   0  0  0  0  0  0  0  0  0  0  0  0
  1  8  1  6
  1  9  1  0
  1 19  1  0
  2  7  1  0
  2  1  1  0
  3  2  2  0
  4  5  2  0
  4  3  1  0
  5  6  1  0
  6  7  2  0
  9 10  1  0
 10 12  1  0
 10 11  1  0
 12 11  1  0
 12 13  1  0
 13 17  1  0
 13 14  1  0
 14 15  2  0
 16 15  1  0
 17 16  2  0
 18 17  1  0
 19 20  1  0
 21 20  1  0
 21 23  1  0
 22 21  2  0
 23 24  1  0
 24 26  2  0
 25 24  1  0
  3 27  1  0
  4 28  1  0
  6 29  1  0
  8 30  1  0
  8 31  1  0
  8 32  1  0
  9 33  1  0
  9 34  1  0
 10 35  1  6
 11 36  1  0
 11 37  1  0
 12 38  1  6
 15 39  1  0
 16 40  1  0
 18 41  1  0
 18 42  1  0
 19 43  1  0
 19 44  1  0
 20 45  1  0
 25 46  1  0
 25 47  1  0
M  ISO  8  27  14  28  14  29  14  30   8  31   8  32   8  33   8  34   8
M  ISO  8  35  13  36  13  37  13  38  13  39  14  40  14  43   8  44   8
M  END
>  <minimizedAffinity>  (1) 
-4.89805269

>  <minimizedRMSD>  (1) 
1.02003741

$$$$
