
     RDKit          3D

 45 47  0  0  1  0  0  0  0  0999 V2000
   43.4650   34.1120   40.8700 C   0  0  1  0  0  0  0  0  0  0  0  0
   42.3540   34.8350   40.1990 C   0  0  0  0  0  0  0  0  0  0  0  0
   42.4530   34.8880   38.8370 C   0  0  0  0  0  0  0  0  0  0  0  0
   41.4620   35.5520   38.0950 C   0  0  0  0  0  0  0  0  0  0  0  0
   40.4490   36.1120   38.7580 N   0  0  0  0  0  0  0  0  0  0  0  0
   40.3700   36.0470   40.1010 C   0  0  0  0  0  0  0  0  0  0  0  0
   41.3120   35.4210   40.7580 N   0  0  0  0  0  0  0  0  0  0  0  0
   44.3560   33.5090   39.8020 C   0  0  0  0  0  0  0  0  0  0  0  0
   44.3120   35.1530   41.5580 C   0  0  0  0  0  0  0  0  0  0  0  0
   44.3810   34.9130   43.0350 C   0  0  2  0  0  0  0  0  0  0  0  0
   44.9310   35.9340   43.9260 C   0  0  0  0  0  0  0  0  0  0  0  0
   45.7250   34.7040   43.6130 C   0  0  1  0  0  0  0  0  0  0  0  0
   45.9890   33.8850   44.7600 N   0  0  0  0  0  0  0  0  0  0  0  0
   45.4060   33.9130   45.9540 N   0  0  0  0  0  0  0  0  0  0  0  0
   45.9450   32.9760   46.7500 C   0  0  0  0  0  0  0  0  0  0  0  0
   46.8870   32.3620   46.0120 C   0  0  0  0  0  0  0  0  0  0  0  0
   46.9270   32.9340   44.7310 C   0  0  0  0  0  0  0  0  0  0  0  0
   47.8170   32.4700   43.7750 N   0  0  0  0  0  0  0  0  0  0  0  0
   43.0540   33.0240   41.7450 C   0  0  0  0  0  0  0  0  0  0  0  0
   41.6910   32.7230   42.0080 N   0  0  0  0  0  0  0  0  0  0  0  0
   41.4130   31.3150   41.9800 C   0  0  0  0  0  0  0  0  0  0  0  0
   40.5400   30.7340   41.2860 O   0  0  0  0  0  0  0  0  0  0  0  0
   42.1010   30.4160   42.7460 O   0  0  0  0  0  0  0  0  0  0  0  0
   41.5260   29.3750   43.4260 C   0  0  0  0  0  0  0  0  0  0  0  0
   40.6880   29.6900   44.3250 O   0  0  0  0  0  0  0  0  0  0  0  0
   43.3032   34.4138   38.3250 H   0  0  0  0  0  0  0  0  0  0  0  0
   41.5198   35.6085   36.9980 H   0  0  0  0  0  0  0  0  0  0  0  0
   39.5285   36.5119   40.6356 H   0  0  0  0  0  0  0  0  0  0  0  0
   45.1766   32.9536   40.2797 H   0  0  0  0  0  0  0  0  0  0  0  0
   43.7656   32.8241   39.1757 H   0  0  0  0  0  0  0  0  0  0  0  0
   44.7724   34.3117   39.1757 H   0  0  0  0  0  0  0  0  0  0  0  0
   45.3297   35.1184   41.1419 H   0  0  0  0  0  0  0  0  0  0  0  0
   43.8542   36.1388   41.3886 H   0  0  0  0  0  0  0  0  0  0  0  0
   43.4289   34.3623   43.0240 H   0  0  0  0  0  0  0  0  0  0  0  0
   45.2426   36.9080   43.5208 H   0  0  0  0  0  0  0  0  0  0  0  0
   44.5909   36.4271   44.8486 H   0  0  0  0  0  0  0  0  0  0  0  0
   46.6754   34.4074   43.1453 H   0  0  0  0  0  0  0  0  0  0  0  0
   45.6721   32.7555   47.7925 H   0  0  0  0  0  0  0  0  0  0  0  0
   47.5277   31.5380   46.3591 H   0  0  0  0  0  0  0  0  0  0  0  0
   48.4617   31.6996   44.0024 H   0  0  0  0  0  0  0  0  0  0  0  0
   47.8336   32.8956   42.8372 H   0  0  0  0  0  0  0  0  0  0  0  0
   43.4910   32.1090   41.3187 H   0  0  0  0  0  0  0  0  0  0  0  0
   43.3958   33.3856   42.7260 H   0  0  0  0  0  0  0  0  0  0  0  0
   40.9767   33.4401   42.1989 H   0  0  0  0  0  0  0  0  0  0  0  0
   41.7763   28.3268   43.2054 H   0  0  0  0  0  0  0  0  0  0  0  0
  1  8  1  6
  1  9  1  0
  1 19  1  0
  2  7  1  0
  2  1  1  0
  3  2  2  0
  4  5  2  0
  4  3  1  0
  5  6  1  0
  6  7  2  0
  9 10  1  0
 10 12  1  0
 10 11  1  0
 12 11  1  0
 12 13  1  0
 13 14  1  0
 14 15  2  0
 16 15  1  0
 17 13  1  0
 17 16  2  0
 18 17  1  0
 19 20  1  0
 21 20  1  0
 21 23  1  0
 22 21  2  0
 23 24  1  0
 24 25  2  0
  3 26  1  0
  4 27  1  0
  6 28  1  0
  8 29  1  0
  8 30  1  0
  8 31  1  0
  9 32  1  0
  9 33  1  0
 10 34  1  1
 11 35  1  0
 11 36  1  0
 12 37  1  6
 15 38  1  0
 16 39  1  0
 18 40  1  0
 18 41  1  0
 19 42  1  0
 19 43  1  0
 20 44  1  0
 24 45  1  0
M  ISO  8  26  14  27  14  28  14  29   8  30   8  31   8  32   8  33   8
M  ISO  8  34  13  35  13  36  13  37  13  38  14  39  14  42   8  43   8
M  ISO  1  45   6
M  END
>  <minimizedAffinity>  (1) 
-4.8844738

>  <minimizedRMSD>  (1) 
1.22344649

$$$$
