
     RDKit          3D

 46 48  0  0  1  0  0  0  0  0999 V2000
   43.6130   33.8790   41.1680 C   0  0  1  0  0  0  0  0  0  0  0  0
   42.4570   34.7090   40.7380 C   0  0  0  0  0  0  0  0  0  0  0  0
   42.2860   34.7830   39.3840 C   0  0  0  0  0  0  0  0  0  0  0  0
   41.2290   35.5470   38.8630 C   0  0  0  0  0  0  0  0  0  0  0  0
   40.4230   36.1770   39.7180 N   0  0  0  0  0  0  0  0  0  0  0  0
   40.6100   36.0890   41.0480 C   0  0  0  0  0  0  0  0  0  0  0  0
   41.6050   35.3680   41.4990 N   0  0  0  0  0  0  0  0  0  0  0  0
   44.4380   33.5390   39.9440 C   0  0  0  0  0  0  0  0  0  0  0  0
   44.4920   34.7660   42.0150 C   0  0  0  0  0  0  0  0  0  0  0  0
   44.4780   34.3430   43.4500 C   0  0  2  0  0  0  0  0  0  0  0  0
   44.9240   35.2680   44.4930 C   0  0  0  0  0  0  0  0  0  0  0  0
   45.7970   34.1180   44.0880 C   0  0  1  0  0  0  0  0  0  0  0  0
   46.0220   33.1750   45.1430 N   0  0  0  0  0  0  0  0  0  0  0  0
   46.5260   33.3830   46.3540 N   0  0  0  0  0  0  0  0  0  0  0  0
   46.5680   32.2340   47.0410 C   0  0  0  0  0  0  0  0  0  0  0  0
   46.0720   31.2930   46.2190 C   0  0  0  0  0  0  0  0  0  0  0  0
   45.7160   31.8840   44.9980 C   0  0  0  0  0  0  0  0  0  0  0  0
   45.1690   31.1140   43.9770 N   0  0  0  0  0  0  0  0  0  0  0  0
   43.2670   32.6200   41.8100 C   0  0  0  0  0  0  0  0  0  0  0  0
   41.9230   32.2380   42.0700 N   0  0  0  0  0  0  0  0  0  0  0  0
   41.7220   30.8150   42.0040 C   0  0  0  0  0  0  0  0  0  0  0  0
   40.8850   30.2080   41.2860 O   0  0  0  0  0  0  0  0  0  0  0  0
   42.4510   29.9410   42.7500 O   0  0  0  0  0  0  0  0  0  0  0  0
   41.8330   29.2290   43.8350 C   0  0  0  0  0  0  0  0  0  0  0  0
   40.7450   29.9090   44.2830 F   0  0  0  0  0  0  0  0  0  0  0  0
   41.4240   28.0180   43.3050 F   0  0  0  0  0  0  0  0  0  0  0  0
   42.7720   28.9610   44.8040 F   0  0  0  0  0  0  0  0  0  0  0  0
   42.9702   34.2489   38.7083 H   0  0  0  0  0  0  0  0  0  0  0  0
   41.0702   35.6237   37.7772 H   0  0  0  0  0  0  0  0  0  0  0  0
   39.9386   36.6137   41.7436 H   0  0  0  0  0  0  0  0  0  0  0  0
   45.4125   33.1374   40.2587 H   0  0  0  0  0  0  0  0  0  0  0  0
   43.9081   32.7860   39.3422 H   0  0  0  0  0  0  0  0  0  0  0  0
   44.5925   34.4467   39.3422 H   0  0  0  0  0  0  0  0  0  0  0  0
   45.5236   34.7128   41.6368 H   0  0  0  0  0  0  0  0  0  0  0  0
   44.1051   35.7939   41.9546 H   0  0  0  0  0  0  0  0  0  0  0  0
   43.5565   33.7590   43.3093 H   0  0  0  0  0  0  0  0  0  0  0  0
   45.2119   36.2964   44.2296 H   0  0  0  0  0  0  0  0  0  0  0  0
   44.5046   35.6289   45.4437 H   0  0  0  0  0  0  0  0  0  0  0  0
   46.7884   33.9216   43.6537 H   0  0  0  0  0  0  0  0  0  0  0  0
   46.9338   32.0898   48.0683 H   0  0  0  0  0  0  0  0  0  0  0  0
   45.9625   30.2266   46.4655 H   0  0  0  0  0  0  0  0  0  0  0  0
   45.0271   30.1031   44.1139 H   0  0  0  0  0  0  0  0  0  0  0  0
   44.9059   31.5547   43.0840 H   0  0  0  0  0  0  0  0  0  0  0  0
   43.6925   31.8275   41.1768 H   0  0  0  0  0  0  0  0  0  0  0  0
   43.6585   32.7711   42.8268 H   0  0  0  0  0  0  0  0  0  0  0  0
   41.1717   32.9095   42.2833 H   0  0  0  0  0  0  0  0  0  0  0  0
  1  8  1  6
  1 19  1  0
  1  9  1  0
  2  1  1  0
  2  7  1  0
  3  2  2  0
  4  3  1  0
  4  5  2  0
  5  6  1  0
  6  7  2  0
  9 10  1  0
 10 12  1  0
 10 11  1  0
 12 11  1  0
 12 13  1  0
 13 14  1  0
 14 15  2  0
 16 15  1  0
 17 13  1  0
 17 16  2  0
 18 17  1  0
 19 20  1  0
 21 20  1  0
 21 23  1  0
 22 21  2  0
 23 24  1  0
 24 25  1  0
 24 27  1  0
 26 24  1  0
  3 28  1  0
  4 29  1  0
  6 30  1  0
  8 31  1  0
  8 32  1  0
  8 33  1  0
  9 34  1  0
  9 35  1  0
 10 36  1  1
 11 37  1  0
 11 38  1  0
 12 39  1  6
 15 40  1  0
 16 41  1  0
 18 42  1  0
 18 43  1  0
 19 44  1  0
 19 45  1  0
 20 46  1  0
M  ISO  8  28  14  29  14  30  14  31   8  32   8  33   8  34   8  35   8
M  ISO  8  36  13  37  13  38  13  39  13  40  14  41  14  44   8  45   8
M  END
>  <minimizedAffinity>  (1) 
-4.78539801

>  <minimizedRMSD>  (1) 
1.26495957

$$$$
