
     RDKit          3D

 13 13  0  0  0  0  0  0  0  0999 V2000
   45.0780   35.3800   44.1620 C   0  0  0  0  0  0  0  0  0  0  0  0
   46.1050   34.8450   43.3670 C   0  0  0  0  0  0  0  0  0  0  0  0
   46.8460   33.7970   43.8890 C   0  0  0  0  0  0  0  0  0  0  0  0
   46.5390   33.3300   45.1590 N   0  0  0  0  0  0  0  0  0  0  0  0
   45.5380   33.8830   45.8780 C   0  0  0  0  0  0  0  0  0  0  0  0
   44.8150   34.8960   45.3890 N   0  0  0  0  0  0  0  0  0  0  0  0
   44.3780   36.4510   43.5370 N   0  0  0  0  0  0  0  0  0  0  0  0
   48.1720   33.0500   42.9590 S   0  0  0  0  0  0  0  0  0  0  0  0
   46.3140   35.2446   42.3637 H   0  0  0  0  0  0  0  0  0  0  0  0
   45.3140   33.4936   46.8821 H   0  0  0  0  0  0  0  0  0  0  0  0
   44.6462   36.7592   42.5915 H   0  0  0  0  0  0  0  0  0  0  0  0
   43.6035   36.9175   44.0304 H   0  0  0  0  0  0  0  0  0  0  0  0
   49.0983   32.5282   43.8231 H   0  0  0  0  0  0  0  0  0  0  0  0
  1  6  2  0
  2  3  2  0
  2  1  1  0
  3  4  1  0
  4  5  2  0
  6  5  1  0
  7  1  1  0
  8  3  1  0
  2  9  1  0
  5 10  1  0
  7 11  1  0
  7 12  1  0
  8 13  1  0
M  ISO  3   9  14  10  14  13  11
M  END
>  <minimizedAffinity>  (1) 
-3.18593168

>  <minimizedRMSD>  (1) 
1.17051423

$$$$
