
     RDKit          3D

 14 14  0  0  0  0  0  0  0  0999 V2000
   45.6240   34.9060   43.9670 C   0  0  0  0  0  0  0  0  0  0  0  0
   46.6580   34.3750   43.1780 C   0  0  0  0  0  0  0  0  0  0  0  0
   47.3570   33.2870   43.7030 C   0  0  0  0  0  0  0  0  0  0  0  0
   47.0030   32.7970   44.9560 N   0  0  0  0  0  0  0  0  0  0  0  0
   46.0030   33.3520   45.6600 C   0  0  0  0  0  0  0  0  0  0  0  0
   45.3160   34.3970   45.1760 N   0  0  0  0  0  0  0  0  0  0  0  0
   48.6950   32.5070   42.8170 S   0  0  0  0  0  0  0  0  0  0  0  0
   44.8910   36.0430   43.4210 C   0  0  0  0  0  0  0  0  0  0  0  0
   44.3170   35.9110   42.3080 O   0  0  0  0  0  0  0  0  0  0  0  0
   44.8110   37.2430   44.0810 O   0  0  0  0  0  0  0  0  0  0  0  0
   46.9051   34.7969   42.1927 H   0  0  0  0  0  0  0  0  0  0  0  0
   45.7437   32.9435   46.6479 H   0  0  0  0  0  0  0  0  0  0  0  0
   49.5915   31.9844   43.7114 H   0  0  0  0  0  0  0  0  0  0  0  0
   44.3051   37.9946   43.6820 H   0  0  0  0  0  0  0  0  0  0  0  0
  1  6  2  0
  2  3  2  0
  2  1  1  0
  3  4  1  0
  4  5  2  0
  6  5  1  0
  7  3  1  0
  8  1  1  0
  8 10  1  0
  9  8  2  0
  2 11  1  0
  5 12  1  0
  7 13  1  0
 10 14  1  0
M  ISO  4  11  14  12  14  13  11  14   3
M  END
>  <minimizedAffinity>  (1) 
-3.48581743

>  <minimizedRMSD>  (1) 
1.89121926

$$$$
