
     RDKit          3D

 14 14  0  0  0  0  0  0  0  0999 V2000
   46.2520   34.8700   43.1230 C   0  0  0  0  0  0  0  0  0  0  0  0
   46.5080   33.8910   44.0990 C   0  0  0  0  0  0  0  0  0  0  0  0
   45.7660   33.9490   45.2690 C   0  0  0  0  0  0  0  0  0  0  0  0
   44.8220   34.9550   45.4190 N   0  0  0  0  0  0  0  0  0  0  0  0
   44.6200   35.8620   44.4580 C   0  0  0  0  0  0  0  0  0  0  0  0
   45.3260   35.8320   43.3050 N   0  0  0  0  0  0  0  0  0  0  0  0
   47.0660   34.7610   41.9040 C   0  0  0  0  0  0  0  0  0  0  0  0
   47.9770   35.8030   41.8000 F   0  0  0  0  0  0  0  0  0  0  0  0
   46.2700   34.6810   40.7580 F   0  0  0  0  0  0  0  0  0  0  0  0
   47.8300   33.6020   41.9030 F   0  0  0  0  0  0  0  0  0  0  0  0
   46.0080   32.7550   46.5750 S   0  0  0  0  0  0  0  0  0  0  0  0
   47.2666   33.1102   43.9408 H   0  0  0  0  0  0  0  0  0  0  0  0
   43.8650   36.6478   44.6080 H   0  0  0  0  0  0  0  0  0  0  0  0
   45.8823   33.3754   47.7900 H   0  0  0  0  0  0  0  0  0  0  0  0
  1  6  2  0
  1  2  1  0
  2  3  2  0
  3  4  1  0
  3 11  1  0
  5  4  2  0
  6  5  1  0
  7  1  1  0
  8  7  1  0
  9  7  1  0
 10  7  1  0
  2 12  1  0
  5 13  1  0
 11 14  1  0
M  ISO  3  12  14  13  14  14  11
M  END
>  <minimizedAffinity>  (1) 
-4.07135248

>  <minimizedRMSD>  (1) 
4.13221455

$$$$
