
     RDKit          3D

 25 26  0  0  0  0  0  0  0  0999 V2000
   47.9800   35.3120   41.8040 C   0  0  0  0  0  0  0  0  0  0  0  0
   49.0130   34.2830   41.7340 C   0  0  0  0  0  0  0  0  0  0  0  0
   48.7560   33.2710   40.8070 C   0  0  0  0  0  0  0  0  0  0  0  0
   49.6870   32.2490   40.6730 C   0  0  0  0  0  0  0  0  0  0  0  0
   50.8100   32.2720   41.4490 N   0  0  0  0  0  0  0  0  0  0  0  0
   51.0260   33.2730   42.3400 C   0  0  0  0  0  0  0  0  0  0  0  0
   50.1320   34.2650   42.4760 N   0  0  0  0  0  0  0  0  0  0  0  0
   49.4420   30.9220   39.5200 S   0  0  0  0  0  0  0  0  0  0  0  0
   46.5840   34.7470   41.6540 C   0  0  0  0  0  0  0  0  0  0  0  0
   45.8970   34.9640   42.9750 C   0  0  0  0  0  0  0  0  0  0  0  0
   45.1110   36.0460   43.3170 C   0  0  0  0  0  0  0  0  0  0  0  0
   44.5450   36.1030   44.5740 C   0  0  0  0  0  0  0  0  0  0  0  0
   44.7830   35.0830   45.4420 N   0  0  0  0  0  0  0  0  0  0  0  0
   45.5510   34.0300   45.1050 C   0  0  0  0  0  0  0  0  0  0  0  0
   46.1080   33.9650   43.8750 N   0  0  0  0  0  0  0  0  0  0  0  0
   48.0524   35.8181   42.7780 H   0  0  0  0  0  0  0  0  0  0  0  0
   48.1481   36.0098   40.9705 H   0  0  0  0  0  0  0  0  0  0  0  0
   47.8397   33.2828   40.1984 H   0  0  0  0  0  0  0  0  0  0  0  0
   51.9387   33.2712   42.9540 H   0  0  0  0  0  0  0  0  0  0  0  0
   49.2266   29.7555   40.2054 H   0  0  0  0  0  0  0  0  0  0  0  0
   46.0441   35.2731   40.8529 H   0  0  0  0  0  0  0  0  0  0  0  0
   46.6107   33.6801   41.3875 H   0  0  0  0  0  0  0  0  0  0  0  0
   44.9373   36.8561   42.5934 H   0  0  0  0  0  0  0  0  0  0  0  0
   43.9147   36.9552   44.8680 H   0  0  0  0  0  0  0  0  0  0  0  0
   45.7254   33.2221   45.8309 H   0  0  0  0  0  0  0  0  0  0  0  0
  2  1  1  0
  2  7  1  0
  3  2  2  0
  4  3  1  0
  4  5  2  0
  5  6  1  0
  6  7  2  0
  8  4  1  0
  9  1  1  0
  9 10  1  0
 10 11  2  0
 10 15  1  0
 11 12  1  0
 12 13  2  0
 14 13  1  0
 15 14  2  0
  1 16  1  0
  1 17  1  0
  3 18  1  0
  6 19  1  0
  8 20  1  0
  9 21  1  0
  9 22  1  0
 11 23  1  0
 12 24  1  0
 14 25  1  0
M  ISO  8  16   8  17   8  18  14  19  14  20  11  21   8  22   8  23  14
M  ISO  2  24  14  25  14
M  END
>  <minimizedAffinity>  (1) 
-4.60818863

>  <minimizedRMSD>  (1) 
4.74162626

$$$$
