
     RDKit          3D

 33 34  0  0  0  0  0  0  0  0999 V2000
   47.5090   31.6530   44.4090 C   0  0  0  0  0  0  0  0  0  0  0  0
   47.5310   32.8610   43.6020 C   0  0  0  0  0  0  0  0  0  0  0  0
   46.4340   33.7060   43.7850 C   0  0  0  0  0  0  0  0  0  0  0  0
   46.3760   34.8780   43.0540 C   0  0  0  0  0  0  0  0  0  0  0  0
   47.3840   35.1730   42.1830 N   0  0  0  0  0  0  0  0  0  0  0  0
   48.4380   34.3250   42.0320 C   0  0  0  0  0  0  0  0  0  0  0  0
   48.5090   33.1930   42.7260 N   0  0  0  0  0  0  0  0  0  0  0  0
   45.0130   36.0060   43.2290 S   0  0  0  0  0  0  0  0  0  0  0  0
   46.1790   31.4180   45.0730 C   0  0  0  0  0  0  0  0  0  0  0  0
   46.4320   31.1050   46.5450 C   0  0  0  0  0  0  0  0  0  0  0  0
   46.9680   32.3300   47.2350 C   0  0  0  0  0  0  0  0  0  0  0  0
   47.3340   31.9540   48.6540 C   0  0  0  0  0  0  0  0  0  0  0  0
   46.3060   31.0640   49.2820 C   0  0  0  0  0  0  0  0  0  0  0  0
   44.9880   31.1580   48.5820 C   0  0  0  0  0  0  0  0  0  0  0  0
   45.1650   30.6130   47.1660 C   0  0  0  0  0  0  0  0  0  0  0  0
   48.2807   31.7371   45.1884 H   0  0  0  0  0  0  0  0  0  0  0  0
   47.6979   30.8029   43.7370 H   0  0  0  0  0  0  0  0  0  0  0  0
   45.6348   33.4450   44.4943 H   0  0  0  0  0  0  0  0  0  0  0  0
   49.2422   34.5797   41.3260 H   0  0  0  0  0  0  0  0  0  0  0  0
   44.7608   36.2147   44.5593 H   0  0  0  0  0  0  0  0  0  0  0  0
   45.5543   32.3192   44.9856 H   0  0  0  0  0  0  0  0  0  0  0  0
   45.6550   30.5800   44.5901 H   0  0  0  0  0  0  0  0  0  0  0  0
   47.1874   30.3122   46.6489 H   0  0  0  0  0  0  0  0  0  0  0  0
   47.8601   32.6950   46.7050 H   0  0  0  0  0  0  0  0  0  0  0  0
   46.2090   33.1262   47.2376 H   0  0  0  0  0  0  0  0  0  0  0  0
   48.3003   31.4284   48.6441 H   0  0  0  0  0  0  0  0  0  0  0  0
   47.3900   32.8790   49.2467 H   0  0  0  0  0  0  0  0  0  0  0  0
   46.6601   30.0235   49.2362 H   0  0  0  0  0  0  0  0  0  0  0  0
   46.1638   31.3878   50.3236 H   0  0  0  0  0  0  0  0  0  0  0  0
   44.2363   30.5618   49.1201 H   0  0  0  0  0  0  0  0  0  0  0  0
   44.6468   32.2032   48.5490 H   0  0  0  0  0  0  0  0  0  0  0  0
   44.3145   30.9381   46.5488 H   0  0  0  0  0  0  0  0  0  0  0  0
   45.2110   29.5154   47.2216 H   0  0  0  0  0  0  0  0  0  0  0  0
  1  9  1  0
  2  3  2  0
  2  1  1  0
  4  8  1  0
  4  3  1  0
  5  4  2  0
  6  5  1  0
  6  7  2  0
  7  2  1  0
  9 10  1  0
 10 15  1  0
 10 11  1  0
 11 12  1  0
 12 13  1  0
 14 13  1  0
 15 14  1  0
  1 16  1  0
  1 17  1  0
  3 18  1  0
  6 19  1  0
  8 20  1  0
  9 21  1  0
  9 22  1  0
 10 23  1  0
 11 24  1  0
 11 25  1  0
 12 26  1  0
 12 27  1  0
 13 28  1  0
 13 29  1  0
 14 30  1  0
 14 31  1  0
 15 32  1  0
 15 33  1  0
M  ISO  8  16   8  17   8  18  14  19  14  20  11  21   8  22   8  23  13
M  ISO  8  24  13  25  13  26  13  27  13  28  13  29  13  30  13  31  13
M  ISO  2  32  13  33  13
M  END
>  <minimizedAffinity>  (1) 
-4.09730625

>  <minimizedRMSD>  (1) 
6.96345043

$$$$
