
     RDKit          3D

 29 30  0  0  0  0  0  0  0  0999 V2000
   45.9100   33.9070   44.7010 C   0  0  0  0  0  0  0  0  0  0  0  0
   46.0100   33.0870   45.9090 C   0  0  0  0  0  0  0  0  0  0  0  0
   46.9190   32.0310   45.8510 C   0  0  0  0  0  0  0  0  0  0  0  0
   47.1000   31.1880   46.9290 C   0  0  0  0  0  0  0  0  0  0  0  0
   46.3470   31.4380   48.0600 N   0  0  0  0  0  0  0  0  0  0  0  0
   45.4710   32.4660   48.1050 C   0  0  0  0  0  0  0  0  0  0  0  0
   45.2960   33.2860   47.0490 N   0  0  0  0  0  0  0  0  0  0  0  0
   48.2400   29.8310   46.9180 S   0  0  0  0  0  0  0  0  0  0  0  0
   47.1090   33.7060   43.7950 C   0  0  0  0  0  0  0  0  0  0  0  0
   47.1330   34.8000   42.8320 N   0  0  0  0  0  0  0  0  0  0  0  0
   48.4670   34.9500   42.2660 C   0  0  0  0  0  0  0  0  0  0  0  0
   48.5190   34.1460   41.0010 C   0  0  0  0  0  0  0  0  0  0  0  0
   47.1060   34.2420   40.4870 C   0  0  0  0  0  0  0  0  0  0  0  0
   46.2760   34.4400   41.7110 C   0  0  0  0  0  0  0  0  0  0  0  0
   44.9973   33.6284   44.1539 H   0  0  0  0  0  0  0  0  0  0  0  0
   45.8771   34.9645   45.0022 H   0  0  0  0  0  0  0  0  0  0  0  0
   47.5008   31.8673   44.9319 H   0  0  0  0  0  0  0  0  0  0  0  0
   44.8885   32.6374   49.0223 H   0  0  0  0  0  0  0  0  0  0  0  0
   48.5389   29.4752   48.2068 H   0  0  0  0  0  0  0  0  0  0  0  0
   48.0332   33.7131   44.3915 H   0  0  0  0  0  0  0  0  0  0  0  0
   47.0375   32.7396   43.2745 H   0  0  0  0  0  0  0  0  0  0  0  0
   48.6631   36.0095   42.0448 H   0  0  0  0  0  0  0  0  0  0  0  0
   49.2289   34.5985   42.9773 H   0  0  0  0  0  0  0  0  0  0  0  0
   49.2318   34.5802   40.2844 H   0  0  0  0  0  0  0  0  0  0  0  0
   48.8568   33.1107   41.1562 H   0  0  0  0  0  0  0  0  0  0  0  0
   46.9986   35.0960   39.8020 H   0  0  0  0  0  0  0  0  0  0  0  0
   46.8062   33.3495   39.9181 H   0  0  0  0  0  0  0  0  0  0  0  0
   45.5487   35.2458   41.5332 H   0  0  0  0  0  0  0  0  0  0  0  0
   45.7431   33.5065   41.9448 H   0  0  0  0  0  0  0  0  0  0  0  0
  1  2  1  0
  2  7  1  0
  3  2  2  0
  3  4  1  0
  4  5  2  0
  5  6  1  0
  7  6  2  0
  8  4  1  0
  9  1  1  0
 10  9  1  0
 11 10  1  0
 12 11  1  0
 13 12  1  0
 13 14  1  0
 14 10  1  0
  1 15  1  0
  1 16  1  0
  3 17  1  0
  6 18  1  0
  8 19  1  0
  9 20  1  0
  9 21  1  0
 11 22  1  0
 11 23  1  0
 12 24  1  0
 12 25  1  0
 13 26  1  0
 13 27  1  0
 14 28  1  0
 14 29  1  0
M  ISO  8  15   8  16   8  17  14  18  14  19  11  20   8  21   8  22  13
M  ISO  7  23  13  24  13  25  13  26  13  27  13  28  13  29  13
M  END
>  <minimizedAffinity>  (1) 
-3.71750784

>  <minimizedRMSD>  (1) 
2.72906899

$$$$
