
     RDKit          3D

 39 41  0  0  1  0  0  0  0  0999 V2000
   44.5950   35.7800   44.9140 C   0  0  0  0  0  0  0  0  0  0  0  0
   45.1770   35.7160   43.6240 C   0  0  0  0  0  0  0  0  0  0  0  0
   45.9680   34.6170   43.3380 C   0  0  0  0  0  0  0  0  0  0  0  0
   46.1470   33.6620   44.2990 N   0  0  0  0  0  0  0  0  0  0  0  0
   45.5740   33.7670   45.5070 C   0  0  0  0  0  0  0  0  0  0  0  0
   44.8060   34.8150   45.8110 N   0  0  0  0  0  0  0  0  0  0  0  0
   45.7930   32.7280   46.5110 N   0  0  0  0  0  0  0  0  0  0  0  0
   45.1790   32.8370   47.8120 C   0  0  0  0  0  0  0  0  0  0  0  0
   46.0490   32.2890   48.9140 C   0  0  0  0  0  0  0  0  0  0  0  0
   47.4610   32.1580   48.4170 C   0  0  0  0  0  0  0  0  0  0  0  0
   47.4360   31.0970   47.3190 C   0  0  0  0  0  0  0  0  0  0  0  0
   46.6370   31.5960   46.1710 C   0  0  1  0  0  0  0  0  0  0  0  0
   45.8620   30.5260   45.4700 C   0  0  0  0  0  0  0  0  0  0  0  0
   45.8980   30.1900   44.1750 N   0  0  0  0  0  0  0  0  0  0  0  0
   45.0940   29.1960   43.9200 O   0  0  0  0  0  0  0  0  0  0  0  0
   44.5200   28.8720   45.0590 C   0  0  0  0  0  0  0  0  0  0  0  0
   44.9620   29.6720   46.0620 N   0  0  0  0  0  0  0  0  0  0  0  0
   43.5200   27.7760   45.2220 C   0  0  0  0  0  0  0  0  0  0  0  0
   43.7460   27.0020   46.5030 C   0  0  0  0  0  0  0  0  0  0  0  0
   42.1040   28.2680   45.2270 C   0  0  0  0  0  0  0  0  0  0  0  0
   43.9599   36.6378   45.1801 H   0  0  0  0  0  0  0  0  0  0  0  0
   45.0070   36.5079   42.8797 H   0  0  0  0  0  0  0  0  0  0  0  0
   46.4453   34.5138   42.3523 H   0  0  0  0  0  0  0  0  0  0  0  0
   44.9772   33.8985   48.0180 H   0  0  0  0  0  0  0  0  0  0  0  0
   44.2534   32.2429   47.7932 H   0  0  0  0  0  0  0  0  0  0  0  0
   46.0250   32.9732   49.7750 H   0  0  0  0  0  0  0  0  0  0  0  0
   45.6745   31.3013   49.2209 H   0  0  0  0  0  0  0  0  0  0  0  0
   47.8115   33.1180   48.0102 H   0  0  0  0  0  0  0  0  0  0  0  0
   48.1448   31.8736   49.2303 H   0  0  0  0  0  0  0  0  0  0  0  0
   48.4637   30.8872   46.9876 H   0  0  0  0  0  0  0  0  0  0  0  0
   46.9826   30.1739   47.7094 H   0  0  0  0  0  0  0  0  0  0  0  0
   47.3863   31.9591   45.4522 H   0  0  0  0  0  0  0  0  0  0  0  0
   43.6680   27.1252   44.3476 H   0  0  0  0  0  0  0  0  0  0  0  0
   43.5547   27.6570   47.3658 H   0  0  0  0  0  0  0  0  0  0  0  0
   43.0616   26.1415   46.5371 H   0  0  0  0  0  0  0  0  0  0  0  0
   44.7859   26.6450   46.5371 H   0  0  0  0  0  0  0  0  0  0  0  0
   41.7609   28.3872   46.2653 H   0  0  0  0  0  0  0  0  0  0  0  0
   42.0508   29.2373   44.7097 H   0  0  0  0  0  0  0  0  0  0  0  0
   41.4612   27.5405   44.7097 H   0  0  0  0  0  0  0  0  0  0  0  0
  1  6  2  0
  2  1  1  0
  3  2  2  0
  3  4  1  0
  4  5  2  0
  5  6  1  0
  5  7  1  0
  7  8  1  0
  8  9  1  0
 10  9  1  0
 11 10  1  0
 12  7  1  0
 12 11  1  0
 13 17  1  0
 13 12  1  0
 14 13  2  0
 15 14  1  0
 15 16  1  0
 16 18  1  0
 16 17  2  0
 18 20  1  0
 18 19  1  0
  1 21  1  0
  2 22  1  0
  3 23  1  0
  8 24  1  0
  8 25  1  0
  9 26  1  0
  9 27  1  0
 10 28  1  0
 10 29  1  0
 11 30  1  0
 11 31  1  0
 12 32  1  6
 18 33  1  0
 19 34  1  0
 19 35  1  0
 19 36  1  0
 20 37  1  0
 20 38  1  0
 20 39  1  0
M  ISO  8  21  14  22  14  23  14  24  13  25  13  26  13  27  13  28  13
M  ISO  8  29  13  30  13  31  13  32  13  33   8  34   8  35   8  36   8
M  ISO  3  37   8  38   8  39   8
M  END
>  <minimizedAffinity>  (1) 
-5.35901213

>  <minimizedRMSD>  (1) 
0.381407797

$$$$
