
     RDKit          3D

 30 31  0  0  0  0  0  0  0  0999 V2000
   47.8570   35.4670   42.1090 C   0  0  0  0  0  0  0  0  0  0  0  0
   46.6520   34.7430   42.4690 C   0  0  0  0  0  0  0  0  0  0  0  0
   45.7210   34.6100   41.4360 C   0  0  0  0  0  0  0  0  0  0  0  0
   44.5440   33.9300   41.7030 C   0  0  0  0  0  0  0  0  0  0  0  0
   44.3380   33.4170   42.9610 N   0  0  0  0  0  0  0  0  0  0  0  0
   45.2650   33.5670   43.9340 C   0  0  0  0  0  0  0  0  0  0  0  0
   46.4160   34.2270   43.6890 N   0  0  0  0  0  0  0  0  0  0  0  0
   43.3080   33.7180   40.4470 S   0  0  0  0  0  0  0  0  0  0  0  0
   48.6240   34.8070   40.9870 C   0  0  0  0  0  0  0  0  0  0  0  0
   49.1220   33.4860   41.5410 C   0  0  0  0  0  0  0  0  0  0  0  0
   50.4410   33.6150   42.2530 C   0  0  0  0  0  0  0  0  0  0  0  0
   51.1430   32.2660   42.0510 C   0  0  0  0  0  0  0  0  0  0  0  0
   50.1240   31.4010   41.3200 C   0  0  0  0  0  0  0  0  0  0  0  0
   49.4250   32.4700   40.4780 C   0  0  0  0  0  0  0  0  0  0  0  0
   47.5756   36.4822   41.7926 H   0  0  0  0  0  0  0  0  0  0  0  0
   48.5111   35.4815   42.9933 H   0  0  0  0  0  0  0  0  0  0  0  0
   45.9168   35.0329   40.4396 H   0  0  0  0  0  0  0  0  0  0  0  0
   45.0791   33.1474   44.9337 H   0  0  0  0  0  0  0  0  0  0  0  0
   42.0891   33.5089   41.0365 H   0  0  0  0  0  0  0  0  0  0  0  0
   49.4722   35.4373   40.6815 H   0  0  0  0  0  0  0  0  0  0  0  0
   47.9913   34.6586   40.0995 H   0  0  0  0  0  0  0  0  0  0  0  0
   48.2973   33.1781   42.2006 H   0  0  0  0  0  0  0  0  0  0  0  0
   51.0373   34.4291   41.8152 H   0  0  0  0  0  0  0  0  0  0  0  0
   50.3104   33.8541   43.3187 H   0  0  0  0  0  0  0  0  0  0  0  0
   52.0522   32.3896   41.4443 H   0  0  0  0  0  0  0  0  0  0  0  0
   51.4606   31.8171   43.0037 H   0  0  0  0  0  0  0  0  0  0  0  0
   50.6101   30.6398   40.6921 H   0  0  0  0  0  0  0  0  0  0  0  0
   49.4588   30.8165   41.9726 H   0  0  0  0  0  0  0  0  0  0  0  0
   50.0900   32.8774   39.7022 H   0  0  0  0  0  0  0  0  0  0  0  0
   48.5494   32.1152   39.9146 H   0  0  0  0  0  0  0  0  0  0  0  0
  1  2  1  0
  2  7  2  0
  3  4  2  0
  3  2  1  0
  4  5  1  0
  5  6  2  0
  7  6  1  0
  8  4  1  0
  9 10  1  0
  9  1  1  0
 10 11  1  0
 12 11  1  0
 13 12  1  0
 14 13  1  0
 14 10  1  0
  1 15  1  0
  1 16  1  0
  3 17  1  0
  6 18  1  0
  8 19  1  0
  9 20  1  0
  9 21  1  0
 10 22  1  0
 11 23  1  0
 11 24  1  0
 12 25  1  0
 12 26  1  0
 13 27  1  0
 13 28  1  0
 14 29  1  0
 14 30  1  0
M  ISO  8  15   8  16   8  17  14  18  14  19  11  20   8  21   8  22  13
M  ISO  8  23  13  24  13  25  13  26  13  27  13  28  13  29  13  30  13
M  END
>  <minimizedAffinity>  (1) 
-3.64542007

>  <minimizedRMSD>  (1) 
6.11389256

$$$$
