
     RDKit          3D

 43 46  0  0  1  0  0  0  0  0999 V2000
   48.7350   34.8680   42.3610 N   0  0  0  0  0  0  0  0  0  0  0  0
   48.9100   35.6250   41.1360 C   0  0  0  0  0  0  0  0  0  0  0  0
   48.2320   34.8600   40.0330 C   0  0  0  0  0  0  0  0  0  0  0  0
   47.0740   34.2470   40.7580 C   0  0  0  0  0  0  0  0  0  0  0  0
   47.5460   34.0380   42.1620 C   0  0  2  0  0  0  0  0  0  0  0  0
   46.5300   34.5960   43.0790 C   0  0  0  0  0  0  0  0  0  0  0  0
   45.7960   35.6670   42.7740 N   0  0  0  0  0  0  0  0  0  0  0  0
   44.8770   36.1580   43.6260 C   0  0  0  0  0  0  0  0  0  0  0  0
   44.6010   35.6410   44.8470 N   0  0  0  0  0  0  0  0  0  0  0  0
   45.3290   34.5590   45.1780 C   0  0  0  0  0  0  0  0  0  0  0  0
   45.0630   34.0080   46.4280 C   0  0  0  0  0  0  0  0  0  0  0  0
   45.7760   32.8940   46.8300 C   0  0  0  0  0  0  0  0  0  0  0  0
   46.7230   32.3690   45.9780 C   0  0  0  0  0  0  0  0  0  0  0  0
   46.9650   32.9320   44.7510 C   0  0  0  0  0  0  0  0  0  0  0  0
   46.2750   34.0440   44.3130 C   0  0  0  0  0  0  0  0  0  0  0  0
   49.8860   34.0340   42.5970 C   0  0  0  0  0  0  0  0  0  0  0  0
   49.4640   32.5910   42.4650 C   0  0  0  0  0  0  0  0  0  0  0  0
   50.5960   31.7150   42.1590 C   0  0  0  0  0  0  0  0  0  0  0  0
   51.1640   31.8910   40.8940 C   0  0  0  0  0  0  0  0  0  0  0  0
   52.2320   31.1360   40.4770 C   0  0  0  0  0  0  0  0  0  0  0  0
   52.7180   30.1940   41.3600 N   0  0  0  0  0  0  0  0  0  0  0  0
   52.1600   30.0280   42.5890 C   0  0  0  0  0  0  0  0  0  0  0  0
   51.1130   30.7710   42.9960 N   0  0  0  0  0  0  0  0  0  0  0  0
   52.9930   31.3070   38.8960 S   0  0  0  0  0  0  0  0  0  0  0  0
   48.4519   36.6197   41.2401 H   0  0  0  0  0  0  0  0  0  0  0  0
   49.9786   35.7616   40.9135 H   0  0  0  0  0  0  0  0  0  0  0  0
   48.8953   34.0898   39.6125 H   0  0  0  0  0  0  0  0  0  0  0  0
   47.9427   35.4797   39.1715 H   0  0  0  0  0  0  0  0  0  0  0  0
   46.2075   34.9245   40.7407 H   0  0  0  0  0  0  0  0  0  0  0  0
   46.7533   33.3041   40.2909 H   0  0  0  0  0  0  0  0  0  0  0  0
   47.7339   32.9691   42.3416 H   0  0  0  0  0  0  0  0  0  0  0  0
   44.3084   37.0441   43.3073 H   0  0  0  0  0  0  0  0  0  0  0  0
   44.2993   34.4509   47.0842 H   0  0  0  0  0  0  0  0  0  0  0  0
   45.5906   32.4350   47.8123 H   0  0  0  0  0  0  0  0  0  0  0  0
   47.2954   31.4821   46.2875 H   0  0  0  0  0  0  0  0  0  0  0  0
   47.7296   32.4852   44.0985 H   0  0  0  0  0  0  0  0  0  0  0  0
   50.6676   34.2616   41.8572 H   0  0  0  0  0  0  0  0  0  0  0  0
   50.2871   34.2198   43.6043 H   0  0  0  0  0  0  0  0  0  0  0  0
   49.0091   32.2658   43.4123 H   0  0  0  0  0  0  0  0  0  0  0  0
   48.7460   32.5213   41.6346 H   0  0  0  0  0  0  0  0  0  0  0  0
   50.7460   32.6512   40.2177 H   0  0  0  0  0  0  0  0  0  0  0  0
   52.5742   29.2678   43.2677 H   0  0  0  0  0  0  0  0  0  0  0  0
   54.3203   31.6053   39.0579 H   0  0  0  0  0  0  0  0  0  0  0  0
  1 16  1  0
  2  1  1  0
  3  4  1  0
  3  2  1  0
  4  5  1  0
  5  1  1  0
  5  6  1  0
  6 15  1  0
  7  6  2  0
  7  8  1  0
  8  9  2  0
  9 10  1  0
 10 11  2  0
 11 12  1  0
 13 12  2  0
 14 13  1  0
 15 14  2  0
 15 10  1  0
 17 16  1  0
 18 17  1  0
 18 23  1  0
 19 18  2  0
 20 19  1  0
 20 21  2  0
 21 22  1  0
 22 23  2  0
 24 20  1  0
  2 25  1  0
  2 26  1  0
  3 27  1  0
  3 28  1  0
  4 29  1  0
  4 30  1  0
  5 31  1  1
  8 32  1  0
 11 33  1  0
 12 34  1  0
 13 35  1  0
 14 36  1  0
 16 37  1  0
 16 38  1  0
 17 39  1  0
 17 40  1  0
 19 41  1  0
 22 42  1  0
 24 43  1  0
M  ISO  8  25  13  26  13  27  13  28  13  29  13  30  13  31  13  32  14
M  ISO  8  33  14  34  14  35  14  36  14  37   8  38   8  39   8  40   8
M  ISO  3  41  14  42  14  43  11
M  END
>  <minimizedAffinity>  (1) 
-5.98610449

>  <minimizedRMSD>  (1) 
5.32702875

$$$$
