
     RDKit          3D

 35 37  0  0  1  0  0  0  0  0999 V2000
   46.0700   31.0140   46.9410 C   0  0  2  0  0  0  0  0  0  0  0  0
   44.7280   34.9320   45.8850 C   0  0  0  0  0  0  0  0  0  0  0  0
   44.5390   35.6490   44.7090 C   0  0  0  0  0  0  0  0  0  0  0  0
   45.1280   35.1620   43.5330 C   0  0  0  0  0  0  0  0  0  0  0  0
   45.8510   34.0220   43.5950 N   0  0  0  0  0  0  0  0  0  0  0  0
   46.0290   33.3290   44.7620 C   0  0  0  0  0  0  0  0  0  0  0  0
   45.4630   33.7980   45.8830 N   0  0  0  0  0  0  0  0  0  0  0  0
   46.7850   32.1450   44.8520 N   0  0  0  0  0  0  0  0  0  0  0  0
   47.6600   31.9250   43.8340 C   0  0  0  0  0  0  0  0  0  0  0  0
   48.2970   30.7080   44.1520 C   0  0  0  0  0  0  0  0  0  0  0  0
   47.7860   30.2490   45.3330 N   0  0  0  0  0  0  0  0  0  0  0  0
   46.8690   31.1430   45.7350 C   0  0  0  0  0  0  0  0  0  0  0  0
   46.8430   31.7760   48.0590 C   0  0  0  0  0  0  0  0  0  0  0  0
   45.9570   29.5900   47.3810 C   0  0  0  0  0  0  0  0  0  0  0  0
   44.9160   28.8760   46.7340 N   0  0  0  0  0  0  0  0  0  0  0  0
   44.1990   29.3180   45.6920 N   0  0  0  0  0  0  0  0  0  0  0  0
   43.3060   28.3520   45.3640 C   0  0  0  0  0  0  0  0  0  0  0  0
   43.4550   27.2680   46.2140 C   0  0  0  0  0  0  0  0  0  0  0  0
   44.4860   27.6280   47.0760 C   0  0  0  0  0  0  0  0  0  0  0  0
   45.0120   26.8060   48.1600 C   0  0  0  0  0  0  0  0  0  0  0  0
   44.3270   26.6110   49.1920 O   0  0  0  0  0  0  0  0  0  0  0  0
   45.0591   31.4044   46.7520 H   0  0  0  0  0  0  0  0  0  0  0  0
   44.2768   35.2897   46.8223 H   0  0  0  0  0  0  0  0  0  0  0  0
   43.9433   36.5737   44.7011 H   0  0  0  0  0  0  0  0  0  0  0  0
   45.0040   35.6970   42.5799 H   0  0  0  0  0  0  0  0  0  0  0  0
   47.8333   32.5598   42.9525 H   0  0  0  0  0  0  0  0  0  0  0  0
   49.0736   30.2122   43.5512 H   0  0  0  0  0  0  0  0  0  0  0  0
   46.4950   31.4329   49.0445 H   0  0  0  0  0  0  0  0  0  0  0  0
   47.9204   31.5769   47.9609 H   0  0  0  0  0  0  0  0  0  0  0  0
   46.6593   32.8561   47.9609 H   0  0  0  0  0  0  0  0  0  0  0  0
   46.9101   29.0837   47.1683 H   0  0  0  0  0  0  0  0  0  0  0  0
   45.7201   29.6024   48.4551 H   0  0  0  0  0  0  0  0  0  0  0  0
   42.5734   28.4188   44.5461 H   0  0  0  0  0  0  0  0  0  0  0  0
   42.8832   26.3283   46.2085 H   0  0  0  0  0  0  0  0  0  0  0  0
   46.0119   26.3561   48.0720 H   0  0  0  0  0  0  0  0  0  0  0  0
  1 14  1  0
  1 13  1  0
  3  2  2  0
  4  5  2  0
  4  3  1  0
  5  6  1  0
  6  8  1  0
  6  7  2  0
  7  2  1  0
  8 12  1  0
  9 10  2  0
  9  8  1  0
 10 11  1  0
 11 12  2  0
 12  1  1  0
 15 19  1  0
 15 14  1  0
 16 15  1  0
 17 16  2  0
 17 18  1  0
 18 19  2  0
 19 20  1  0
 20 21  2  0
  1 22  1  6
  2 23  1  0
  3 24  1  0
  4 25  1  0
  9 26  1  0
 10 27  1  0
 13 28  1  0
 13 29  1  0
 13 30  1  0
 14 31  1  0
 14 32  1  0
 17 33  1  0
 18 34  1  0
 20 35  1  0
M  ISO  8  22   8  23  14  24  14  25  14  26  14  27  14  28   8  29   8
M  ISO  6  30   8  31   8  32   8  33  14  34  14  35   6
M  END
>  <minimizedAffinity>  (1) 
-4.28762865

>  <minimizedRMSD>  (1) 
0.769988537

$$$$
