
     RDKit          3D

 39 41  0  0  1  0  0  0  0  0999 V2000
   46.2880   31.1120   47.6860 N   0  0  0  0  0  0  0  0  0  0  0  0
   45.0820   30.4270   48.1070 C   0  0  0  0  0  0  0  0  0  0  0  0
   45.1120   29.0470   47.5040 C   0  0  0  0  0  0  0  0  0  0  0  0
   46.5890   28.7300   47.4640 C   0  0  0  0  0  0  0  0  0  0  0  0
   47.2470   30.0610   47.3540 C   0  0  2  0  0  0  0  0  0  0  0  0
   48.4120   30.1950   48.2890 C   0  0  0  0  0  0  0  0  0  0  0  0
   49.2450   29.1470   48.5220 C   0  0  0  0  0  0  0  0  0  0  0  0
   50.3150   29.2570   49.3750 C   0  0  0  0  0  0  0  0  0  0  0  0
   50.5720   30.4510   50.0230 C   0  0  0  0  0  0  0  0  0  0  0  0
   49.7610   31.5200   49.8130 C   0  0  0  0  0  0  0  0  0  0  0  0
   48.6930   31.3930   48.9560 C   0  0  0  0  0  0  0  0  0  0  0  0
   46.0460   31.8760   46.4580 C   0  0  0  0  0  0  0  0  0  0  0  0
   45.5040   33.2300   46.8520 C   0  0  0  0  0  0  0  0  0  0  0  0
   45.4050   34.1180   45.6950 C   0  0  0  0  0  0  0  0  0  0  0  0
   46.1830   33.7820   44.5990 C   0  0  0  0  0  0  0  0  0  0  0  0
   46.1730   34.5510   43.4430 C   0  0  0  0  0  0  0  0  0  0  0  0
   45.3550   35.6600   43.4390 N   0  0  0  0  0  0  0  0  0  0  0  0
   44.6010   35.9800   44.5140 C   0  0  0  0  0  0  0  0  0  0  0  0
   44.6280   35.2190   45.6210 N   0  0  0  0  0  0  0  0  0  0  0  0
   47.1500   34.1640   42.0110 S   0  0  0  0  0  0  0  0  0  0  0  0
   45.0534   30.3569   49.2044 H   0  0  0  0  0  0  0  0  0  0  0  0
   44.1884   30.9758   47.7750 H   0  0  0  0  0  0  0  0  0  0  0  0
   44.5694   28.3274   48.1347 H   0  0  0  0  0  0  0  0  0  0  0  0
   44.6285   28.9927   46.5175 H   0  0  0  0  0  0  0  0  0  0  0  0
   46.9023   28.2151   48.3842 H   0  0  0  0  0  0  0  0  0  0  0  0
   46.8531   28.0601   46.6324 H   0  0  0  0  0  0  0  0  0  0  0  0
   47.6070   30.1565   46.3190 H   0  0  0  0  0  0  0  0  0  0  0  0
   49.0577   28.1886   48.0156 H   0  0  0  0  0  0  0  0  0  0  0  0
   50.9714   28.3906   49.5438 H   0  0  0  0  0  0  0  0  0  0  0  0
   51.4301   30.5348   50.7061 H   0  0  0  0  0  0  0  0  0  0  0  0
   49.9560   32.4754   50.3220 H   0  0  0  0  0  0  0  0  0  0  0  0
   48.0383   32.2611   48.7893 H   0  0  0  0  0  0  0  0  0  0  0  0
   45.3138   31.3492   45.8284 H   0  0  0  0  0  0  0  0  0  0  0  0
   46.9793   31.9886   45.8869 H   0  0  0  0  0  0  0  0  0  0  0  0
   44.5041   33.1018   47.2922 H   0  0  0  0  0  0  0  0  0  0  0  0
   46.1937   33.6824   47.5798 H   0  0  0  0  0  0  0  0  0  0  0  0
   46.8217   32.8877   44.6456 H   0  0  0  0  0  0  0  0  0  0  0  0
   43.9587   36.8725   44.4824 H   0  0  0  0  0  0  0  0  0  0  0  0
   48.3693   33.6810   42.4070 H   0  0  0  0  0  0  0  0  0  0  0  0
  1  2  1  0
  3  2  1  0
  4  3  1  0
  5  4  1  0
  5  1  1  0
  5  6  1  0
  6  7  2  0
  6 11  1  0
  7  8  1  0
  8  9  2  0
 10  9  1  0
 11 10  2  0
 12 13  1  0
 12  1  1  0
 14 13  1  0
 15 14  2  0
 16 15  1  0
 17 16  2  0
 17 18  1  0
 18 19  2  0
 19 14  1  0
 20 16  1  0
  2 21  1  0
  2 22  1  0
  3 23  1  0
  3 24  1  0
  4 25  1  0
  4 26  1  0
  5 27  1  6
  7 28  1  0
  8 29  1  0
  9 30  1  0
 10 31  1  0
 11 32  1  0
 12 33  1  0
 12 34  1  0
 13 35  1  0
 13 36  1  0
 15 37  1  0
 18 38  1  0
 20 39  1  0
M  ISO  8  21  13  22  13  23  13  24  13  25  13  26  13  27  13  28  14
M  ISO  8  29  14  30  14  31  14  32  14  33   8  34   8  35   8  36   8
M  ISO  3  37  14  38  14  39  11
M  END
>  <minimizedAffinity>  (1) 
-5.23589897

>  <minimizedRMSD>  (1) 
7.96615887

$$$$
