
     RDKit          3D

 45 47  0  0  1  0  0  0  0  0999 V2000
   46.3420   31.1900   47.4770 N   0  0  0  0  0  0  0  0  0  0  0  0
   45.1850   30.5010   48.0040 C   0  0  0  0  0  0  0  0  0  0  0  0
   45.1930   29.1090   47.4730 C   0  0  0  0  0  0  0  0  0  0  0  0
   46.6690   28.8100   47.3140 C   0  0  0  0  0  0  0  0  0  0  0  0
   47.2990   30.1470   47.1100 C   0  0  2  0  0  0  0  0  0  0  0  0
   48.5490   30.3590   47.9040 C   0  0  0  0  0  0  0  0  0  0  0  0
   49.0450   29.0280   48.4850 C   0  0  0  0  0  0  0  0  0  0  0  0
   50.4060   29.2160   49.1110 C   0  0  0  0  0  0  0  0  0  0  0  0
   50.4570   30.3590   50.0690 C   0  0  0  0  0  0  0  0  0  0  0  0
   49.7500   31.5980   49.6170 C   0  0  0  0  0  0  0  0  0  0  0  0
   48.3660   31.2670   49.0930 C   0  0  0  0  0  0  0  0  0  0  0  0
   45.9960   31.9270   46.2570 C   0  0  0  0  0  0  0  0  0  0  0  0
   45.5310   33.3050   46.6650 C   0  0  0  0  0  0  0  0  0  0  0  0
   45.4390   34.1970   45.5090 C   0  0  0  0  0  0  0  0  0  0  0  0
   46.2350   33.8700   44.4190 C   0  0  0  0  0  0  0  0  0  0  0  0
   46.2300   34.6390   43.2770 C   0  0  0  0  0  0  0  0  0  0  0  0
   45.4020   35.7390   43.2700 N   0  0  0  0  0  0  0  0  0  0  0  0
   44.6310   36.0500   44.3370 C   0  0  0  0  0  0  0  0  0  0  0  0
   44.6450   35.2960   45.4420 N   0  0  0  0  0  0  0  0  0  0  0  0
   47.2160   34.2800   41.8550 S   0  0  0  0  0  0  0  0  0  0  0  0
   45.2315   30.4811   49.1028 H   0  0  0  0  0  0  0  0  0  0  0  0
   44.2628   31.0188   47.7015 H   0  0  0  0  0  0  0  0  0  0  0  0
   44.7234   28.4127   48.1834 H   0  0  0  0  0  0  0  0  0  0  0  0
   44.6267   29.0005   46.5362 H   0  0  0  0  0  0  0  0  0  0  0  0
   47.0676   28.3258   48.2177 H   0  0  0  0  0  0  0  0  0  0  0  0
   46.8696   28.1206   46.4806 H   0  0  0  0  0  0  0  0  0  0  0  0
   47.5780   30.1946   46.0470 H   0  0  0  0  0  0  0  0  0  0  0  0
   49.2560   30.8125   47.1938 H   0  0  0  0  0  0  0  0  0  0  0  0
   48.3368   28.6776   49.2503 H   0  0  0  0  0  0  0  0  0  0  0  0
   49.1174   28.2848   47.6773 H   0  0  0  0  0  0  0  0  0  0  0  0
   50.6736   28.2952   49.6501 H   0  0  0  0  0  0  0  0  0  0  0  0
   51.1131   29.4377   48.2981 H   0  0  0  0  0  0  0  0  0  0  0  0
   50.0002   30.0317   51.0146 H   0  0  0  0  0  0  0  0  0  0  0  0
   51.5186   30.6302   50.1662 H   0  0  0  0  0  0  0  0  0  0  0  0
   49.6579   32.2909   50.4663 H   0  0  0  0  0  0  0  0  0  0  0  0
   50.3325   32.0609   48.8068 H   0  0  0  0  0  0  0  0  0  0  0  0
   47.8474   32.1880   48.7884 H   0  0  0  0  0  0  0  0  0  0  0  0
   47.7593   30.7784   49.8697 H   0  0  0  0  0  0  0  0  0  0  0  0
   45.1908   31.4043   45.7200 H   0  0  0  0  0  0  0  0  0  0  0  0
   46.8686   31.9979   45.5910 H   0  0  0  0  0  0  0  0  0  0  0  0
   44.5400   33.2244   47.1356 H   0  0  0  0  0  0  0  0  0  0  0  0
   46.2630   33.7245   47.3708 H   0  0  0  0  0  0  0  0  0  0  0  0
   46.8808   32.9810   44.4689 H   0  0  0  0  0  0  0  0  0  0  0  0
   43.9820   36.9372   44.2955 H   0  0  0  0  0  0  0  0  0  0  0  0
   48.4474   33.8317   42.2545 H   0  0  0  0  0  0  0  0  0  0  0  0
  1  2  1  0
  3  2  1  0
  4  3  1  0
  5  4  1  0
  5  1  1  0
  5  6  1  0
  6  7  1  0
  6 11  1  0
  7  8  1  0
  8  9  1  0
 10  9  1  0
 11 10  1  0
 12 13  1  0
 12  1  1  0
 14 13  1  0
 15 14  2  0
 16 15  1  0
 17 16  2  0
 17 18  1  0
 18 19  2  0
 19 14  1  0
 20 16  1  0
  2 21  1  0
  2 22  1  0
  3 23  1  0
  3 24  1  0
  4 25  1  0
  4 26  1  0
  5 27  1  6
  6 28  1  0
  7 29  1  0
  7 30  1  0
  8 31  1  0
  8 32  1  0
  9 33  1  0
  9 34  1  0
 10 35  1  0
 10 36  1  0
 11 37  1  0
 11 38  1  0
 12 39  1  0
 12 40  1  0
 13 41  1  0
 13 42  1  0
 15 43  1  0
 18 44  1  0
 20 45  1  0
M  ISO  8  21  13  22  13  23  13  24  13  25  13  26  13  27  13  28  13
M  ISO  8  29  13  30  13  31  13  32  13  33  13  34  13  35  13  36  13
M  ISO  8  37  13  38  13  39   8  40   8  41   8  42   8  43  14  44  14
M  ISO  1  45  11
M  END
>  <minimizedAffinity>  (1) 
-5.17032099

>  <minimizedRMSD>  (1) 
7.89911938

$$$$
