
     RDKit          3D

 42 44  0  0  1  0  0  0  0  0999 V2000
   44.8700   34.2840   43.3910 N   0  0  0  0  0  0  0  0  0  0  0  0
   45.8770   35.3040   43.1040 C   0  0  0  0  0  0  0  0  0  0  0  0
   46.5290   34.9610   41.8020 C   0  0  0  0  0  0  0  0  0  0  0  0
   45.4160   34.2860   41.0540 C   0  0  0  0  0  0  0  0  0  0  0  0
   44.5570   33.6750   42.1080 C   0  0  2  0  0  0  0  0  0  0  0  0
   43.1310   33.7200   41.8100 N   0  0  0  0  0  0  0  0  0  0  0  0
   42.6080   34.9120   41.4900 C   0  0  0  0  0  0  0  0  0  0  0  0
   41.2540   34.9600   41.2070 C   0  0  0  0  0  0  0  0  0  0  0  0
   40.5870   36.2390   40.8410 C   0  0  0  0  0  0  0  0  0  0  0  0
   40.4620   33.8320   41.2490 C   0  0  0  0  0  0  0  0  0  0  0  0
   39.2180   33.8380   40.9960 O   0  0  0  0  0  0  0  0  0  0  0  0
   41.0290   32.6460   41.5780 N   0  0  0  0  0  0  0  0  0  0  0  0
   42.3520   32.6210   41.8500 C   0  0  0  0  0  0  0  0  0  0  0  0
   42.8540   31.5080   42.1530 O   0  0  0  0  0  0  0  0  0  0  0  0
   45.4580   33.2720   44.2640 C   0  0  0  0  0  0  0  0  0  0  0  0
   45.6850   33.8870   45.6270 C   0  0  0  0  0  0  0  0  0  0  0  0
   45.8730   32.8660   46.6520 C   0  0  0  0  0  0  0  0  0  0  0  0
   46.8660   31.9270   46.3800 C   0  0  0  0  0  0  0  0  0  0  0  0
   47.1480   30.9040   47.2660 C   0  0  0  0  0  0  0  0  0  0  0  0
   46.4070   30.8560   48.4230 N   0  0  0  0  0  0  0  0  0  0  0  0
   45.4420   31.7760   48.6750 C   0  0  0  0  0  0  0  0  0  0  0  0
   45.1640   32.7700   47.8210 N   0  0  0  0  0  0  0  0  0  0  0  0
   48.3920   29.6840   46.9830 S   0  0  0  0  0  0  0  0  0  0  0  0
   45.3974   36.2913   43.0320 H   0  0  0  0  0  0  0  0  0  0  0  0
   46.6266   35.3361   43.9084 H   0  0  0  0  0  0  0  0  0  0  0  0
   46.8704   35.8654   41.2771 H   0  0  0  0  0  0  0  0  0  0  0  0
   47.4281   34.3367   41.9110 H   0  0  0  0  0  0  0  0  0  0  0  0
   44.8443   35.0197   40.4668 H   0  0  0  0  0  0  0  0  0  0  0  0
   45.7920   33.5366   40.3420 H   0  0  0  0  0  0  0  0  0  0  0  0
   44.7906   32.6007   42.1446 H   0  0  0  0  0  0  0  0  0  0  0  0
   43.2313   35.8177   41.4537 H   0  0  0  0  0  0  0  0  0  0  0  0
   40.3047   36.7803   41.7561 H   0  0  0  0  0  0  0  0  0  0  0  0
   41.2780   36.8564   40.2482 H   0  0  0  0  0  0  0  0  0  0  0  0
   39.6853   36.0257   40.2482 H   0  0  0  0  0  0  0  0  0  0  0  0
   40.4652   31.7850   41.6196 H   0  0  0  0  0  0  0  0  0  0  0  0
   44.7735   32.4155   44.3528 H   0  0  0  0  0  0  0  0  0  0  0  0
   46.4128   32.9216   43.8450 H   0  0  0  0  0  0  0  0  0  0  0  0
   46.5821   34.5223   45.5871 H   0  0  0  0  0  0  0  0  0  0  0  0
   44.7959   34.4790   45.8899 H   0  0  0  0  0  0  0  0  0  0  0  0
   47.4364   32.0012   45.4424 H   0  0  0  0  0  0  0  0  0  0  0  0
   44.8692   31.7033   49.6113 H   0  0  0  0  0  0  0  0  0  0  0  0
   48.8617   29.2234   48.1847 H   0  0  0  0  0  0  0  0  0  0  0  0
  1 15  1  0
  2  1  1  0
  3  2  1  0
  4  3  1  0
  4  5  1  0
  5  1  1  0
  6 13  1  0
  6  5  1  0
  7  6  1  0
  8 10  1  0
  8  7  2  0
  9  8  1  0
 10 12  1  0
 11 10  2  0
 12 13  1  0
 13 14  2  0
 15 16  1  0
 16 17  1  0
 17 22  1  0
 18 17  2  0
 18 19  1  0
 19 20  2  0
 20 21  1  0
 22 21  2  0
 23 19  1  0
  2 24  1  0
  2 25  1  0
  3 26  1  0
  3 27  1  0
  4 28  1  0
  4 29  1  0
  5 30  1  1
  7 31  1  0
  9 32  1  0
  9 33  1  0
  9 34  1  0
 12 35  1  0
 15 36  1  0
 15 37  1  0
 16 38  1  0
 16 39  1  0
 18 40  1  0
 21 41  1  0
 23 42  1  0
M  ISO  8  24  13  25  13  26  13  27  13  28  13  29  13  30  13  31  14
M  ISO  8  32   8  33   8  34   8  35   9  36   8  37   8  38   8  39   8
M  ISO  3  40  14  41  14  42  11
M  END
>  <minimizedAffinity>  (1) 
-5.78482771

>  <minimizedRMSD>  (1) 
2.63491988

$$$$
