
     RDKit          3D

 37 39  0  0  1  0  0  0  0  0999 V2000
   44.9190   35.5280   43.2210 N   0  0  0  0  0  0  0  0  0  0  0  0
   44.6400   36.1780   44.4980 C   0  0  0  0  0  0  0  0  0  0  0  0
   44.6780   35.1250   45.5520 C   0  0  0  0  0  0  0  0  0  0  0  0
   45.6830   34.1420   45.0250 C   0  0  0  0  0  0  0  0  0  0  0  0
   45.6210   34.2970   43.5380 C   0  0  2  0  0  0  0  0  0  0  0  0
   46.9970   34.2670   42.9270 C   0  0  0  0  0  0  0  0  0  0  0  0
   47.4170   35.2100   41.9930 C   0  0  0  0  0  0  0  0  0  0  0  0
   48.6630   35.1980   41.4280 C   0  0  0  0  0  0  0  0  0  0  0  0
   49.5040   34.2130   41.8120 N   0  0  0  0  0  0  0  0  0  0  0  0
   49.1250   33.2720   42.7240 C   0  0  0  0  0  0  0  0  0  0  0  0
   47.8960   33.3110   43.2610 N   0  0  0  0  0  0  0  0  0  0  0  0
   43.6620   35.1780   42.5650 C   0  0  0  0  0  0  0  0  0  0  0  0
   43.8170   35.4560   41.0860 C   0  0  0  0  0  0  0  0  0  0  0  0
   42.6510   34.9920   40.3300 C   0  0  0  0  0  0  0  0  0  0  0  0
   41.7350   34.2250   41.0320 C   0  0  0  0  0  0  0  0  0  0  0  0
   40.5960   33.7360   40.4130 C   0  0  0  0  0  0  0  0  0  0  0  0
   40.4250   34.0510   39.0700 N   0  0  0  0  0  0  0  0  0  0  0  0
   41.3220   34.7950   38.4060 C   0  0  0  0  0  0  0  0  0  0  0  0
   42.4200   35.2600   39.0250 N   0  0  0  0  0  0  0  0  0  0  0  0
   39.3890   32.7480   41.2630 S   0  0  0  0  0  0  0  0  0  0  0  0
   45.4019   36.9441   44.7043 H   0  0  0  0  0  0  0  0  0  0  0  0
   43.6566   36.6705   44.4764 H   0  0  0  0  0  0  0  0  0  0  0  0
   45.0046   35.5438   46.5153 H   0  0  0  0  0  0  0  0  0  0  0  0
   43.6937   34.6725   45.7429 H   0  0  0  0  0  0  0  0  0  0  0  0
   46.6902   34.3790   45.3982 H   0  0  0  0  0  0  0  0  0  0  0  0
   45.4664   33.1124   45.3459 H   0  0  0  0  0  0  0  0  0  0  0  0
   45.0690   33.4496   43.1054 H   0  0  0  0  0  0  0  0  0  0  0  0
   46.7141   36.0020   41.6953 H   0  0  0  0  0  0  0  0  0  0  0  0
   48.9669   35.9577   40.6928 H   0  0  0  0  0  0  0  0  0  0  0  0
   49.8283   32.4796   43.0198 H   0  0  0  0  0  0  0  0  0  0  0  0
   43.4414   34.1121   42.7240 H   0  0  0  0  0  0  0  0  0  0  0  0
   42.8341   35.7703   42.9818 H   0  0  0  0  0  0  0  0  0  0  0  0
   43.9330   36.5395   40.9357 H   0  0  0  0  0  0  0  0  0  0  0  0
   44.7030   34.9146   40.7229 H   0  0  0  0  0  0  0  0  0  0  0  0
   41.9144   34.0016   42.0940 H   0  0  0  0  0  0  0  0  0  0  0  0
   41.1569   35.0269   37.3435 H   0  0  0  0  0  0  0  0  0  0  0  0
   39.5570   32.8855   42.6157 H   0  0  0  0  0  0  0  0  0  0  0  0
  1  5  1  0
  1  2  1  0
  2  3  1  0
  4  3  1  0
  5  4  1  0
  6 11  1  0
  6  5  1  0
  7  6  2  0
  8  9  2  0
  8  7  1  0
  9 10  1  0
 10 11  2  0
 12  1  1  0
 13 12  1  0
 14 15  2  0
 14 13  1  0
 16 15  1  0
 16 20  1  0
 17 16  2  0
 18 19  2  0
 18 17  1  0
 19 14  1  0
  2 21  1  0
  2 22  1  0
  3 23  1  0
  3 24  1  0
  4 25  1  0
  4 26  1  0
  5 27  1  6
  7 28  1  0
  8 29  1  0
 10 30  1  0
 12 31  1  0
 12 32  1  0
 13 33  1  0
 13 34  1  0
 15 35  1  0
 18 36  1  0
 20 37  1  0
M  ISO  8  21  13  22  13  23  13  24  13  25  13  26  13  27  13  28  14
M  ISO  8  29  14  30  14  31   8  32   8  33   8  34   8  35  14  36  14
M  ISO  1  37  11
M  END
>  <minimizedAffinity>  (1) 
-5.38719606

>  <minimizedRMSD>  (1) 
6.79131699

$$$$
