
     RDKit          3D

 39 41  0  0  1  0  0  0  0  0999 V2000
   46.6760   34.1110   43.5530 N   0  0  0  0  0  0  0  0  0  0  0  0
   47.9910   34.4500   42.9990 C   0  0  0  0  0  0  0  0  0  0  0  0
   48.2340   33.5530   41.8180 C   0  0  0  0  0  0  0  0  0  0  0  0
   46.8510   33.3520   41.2820 C   0  0  0  0  0  0  0  0  0  0  0  0
   45.9470   33.4740   42.4630 C   0  0  2  0  0  0  0  0  0  0  0  0
   44.6970   34.1520   42.1660 N   0  0  0  0  0  0  0  0  0  0  0  0
   43.7640   33.3720   41.5930 C   0  0  0  0  0  0  0  0  0  0  0  0
   42.5340   33.9330   41.2720 C   0  0  0  0  0  0  0  0  0  0  0  0
   42.3960   35.2550   41.5800 C   0  0  0  0  0  0  0  0  0  0  0  0
   41.3000   35.8550   41.3200 O   0  0  0  0  0  0  0  0  0  0  0  0
   43.3430   36.0110   42.1520 N   0  0  0  0  0  0  0  0  0  0  0  0
   44.5230   35.4580   42.4560 C   0  0  0  0  0  0  0  0  0  0  0  0
   45.5100   36.0310   42.9930 O   0  0  0  0  0  0  0  0  0  0  0  0
   46.8500   33.1480   44.6280 C   0  0  0  0  0  0  0  0  0  0  0  0
   45.8320   33.4850   45.7090 C   0  0  0  0  0  0  0  0  0  0  0  0
   46.0350   32.6820   46.9080 C   0  0  0  0  0  0  0  0  0  0  0  0
   47.1360   31.8190   46.8710 C   0  0  0  0  0  0  0  0  0  0  0  0
   47.4410   31.0020   47.9410 C   0  0  0  0  0  0  0  0  0  0  0  0
   46.6130   31.0750   49.0490 N   0  0  0  0  0  0  0  0  0  0  0  0
   45.5620   31.9110   49.0630 C   0  0  0  0  0  0  0  0  0  0  0  0
   45.2550   32.7090   48.0310 N   0  0  0  0  0  0  0  0  0  0  0  0
   48.8200   29.8920   47.9450 S   0  0  0  0  0  0  0  0  0  0  0  0
   48.0028   35.5023   42.6789 H   0  0  0  0  0  0  0  0  0  0  0  0
   48.7760   34.3106   43.7568 H   0  0  0  0  0  0  0  0  0  0  0  0
   48.8827   34.0395   41.0747 H   0  0  0  0  0  0  0  0  0  0  0  0
   48.7480   32.6151   42.0750 H   0  0  0  0  0  0  0  0  0  0  0  0
   46.6126   34.1221   40.5336 H   0  0  0  0  0  0  0  0  0  0  0  0
   46.7431   32.3776   40.7830 H   0  0  0  0  0  0  0  0  0  0  0  0
   45.6447   32.4615   42.7687 H   0  0  0  0  0  0  0  0  0  0  0  0
   43.9699   32.3121   41.3827 H   0  0  0  0  0  0  0  0  0  0  0  0
   41.7272   33.3515   40.8020 H   0  0  0  0  0  0  0  0  0  0  0  0
   43.1650   37.0050   42.3551 H   0  0  0  0  0  0  0  0  0  0  0  0
   46.6760   32.1290   44.2520 H   0  0  0  0  0  0  0  0  0  0  0  0
   47.8731   33.1940   45.0294 H   0  0  0  0  0  0  0  0  0  0  0  0
   45.9293   34.5488   45.9714 H   0  0  0  0  0  0  0  0  0  0  0  0
   44.8282   33.2669   45.3155 H   0  0  0  0  0  0  0  0  0  0  0  0
   47.7701   31.7912   45.9726 H   0  0  0  0  0  0  0  0  0  0  0  0
   44.9259   31.9421   49.9599 H   0  0  0  0  0  0  0  0  0  0  0  0
   49.1735   29.6075   49.2377 H   0  0  0  0  0  0  0  0  0  0  0  0
  1 14  1  0
  2  1  1  0
  3  2  1  0
  4  3  1  0
  4  5  1  0
  5  1  1  0
  6 12  1  0
  6  5  1  0
  7  6  1  0
  8  9  1  0
  8  7  2  0
  9 11  1  0
 10  9  2  0
 11 12  1  0
 12 13  2  0
 14 15  1  0
 15 16  1  0
 16 21  1  0
 17 16  2  0
 17 18  1  0
 18 22  1  0
 18 19  2  0
 19 20  1  0
 21 20  2  0
  2 23  1  0
  2 24  1  0
  3 25  1  0
  3 26  1  0
  4 27  1  0
  4 28  1  0
  5 29  1  1
  7 30  1  0
  8 31  1  0
 11 32  1  0
 14 33  1  0
 14 34  1  0
 15 35  1  0
 15 36  1  0
 17 37  1  0
 20 38  1  0
 22 39  1  0
M  ISO  8  23  13  24  13  25  13  26  13  27  13  28  13  29  13  30  14
M  ISO  8  31  14  32   9  33   8  34   8  35   8  36   8  37  14  38  14
M  ISO  1  39  11
M  END
>  <minimizedAffinity>  (1) 
-5.61388588

>  <minimizedRMSD>  (1) 
1.41276944

$$$$
