
     RDKit          3D

 42 44  0  0  1  0  0  0  0  0999 V2000
   46.6160   33.8880   43.7360 N   0  0  0  0  0  0  0  0  0  0  0  0
   47.8790   34.3390   43.1470 C   0  0  0  0  0  0  0  0  0  0  0  0
   48.2570   33.3610   42.0890 C   0  0  0  0  0  0  0  0  0  0  0  0
   46.9340   32.8550   41.5930 C   0  0  0  0  0  0  0  0  0  0  0  0
   46.0050   33.0200   42.7380 C   0  0  2  0  0  0  0  0  0  0  0  0
   44.7740   33.5830   42.2810 N   0  0  0  0  0  0  0  0  0  0  0  0
   44.8640   34.5150   41.2110 C   0  0  0  0  0  0  0  0  0  0  0  0
   43.6450   35.4360   41.2140 C   0  0  0  0  0  0  0  0  0  0  0  0
   42.5210   34.7000   41.5360 O   0  0  0  0  0  0  0  0  0  0  0  0
   42.6560   33.3410   41.2500 C   0  0  0  0  0  0  0  0  0  0  0  0
   43.6950   32.6630   42.1350 C   0  0  0  0  0  0  0  0  0  0  0  0
   46.8840   33.1160   44.9350 C   0  0  0  0  0  0  0  0  0  0  0  0
   45.8270   33.4530   45.9630 C   0  0  0  0  0  0  0  0  0  0  0  0
   45.9540   32.6250   47.1570 C   0  0  0  0  0  0  0  0  0  0  0  0
   47.2650   32.3310   47.5600 C   0  0  0  0  0  0  0  0  0  0  0  0
   47.5110   31.5590   48.6720 C   0  0  0  0  0  0  0  0  0  0  0  0
   46.4190   31.0900   49.3690 N   0  0  0  0  0  0  0  0  0  0  0  0
   45.1520   31.3790   48.9720 C   0  0  0  0  0  0  0  0  0  0  0  0
   44.9140   32.1390   47.8750 N   0  0  0  0  0  0  0  0  0  0  0  0
   49.1270   31.1420   49.2470 S   0  0  0  0  0  0  0  0  0  0  0  0
   47.7513   35.3384   42.7056 H   0  0  0  0  0  0  0  0  0  0  0  0
   48.6638   34.3995   43.9154 H   0  0  0  0  0  0  0  0  0  0  0  0
   48.8182   33.8529   41.2808 H   0  0  0  0  0  0  0  0  0  0  0  0
   48.9113   32.5586   42.4605 H   0  0  0  0  0  0  0  0  0  0  0  0
   46.5929   33.4462   40.7303 H   0  0  0  0  0  0  0  0  0  0  0  0
   46.9920   31.8096   41.2558 H   0  0  0  0  0  0  0  0  0  0  0  0
   45.7997   32.0393   43.1919 H   0  0  0  0  0  0  0  0  0  0  0  0
   44.9062   33.9702   40.2563 H   0  0  0  0  0  0  0  0  0  0  0  0
   45.7736   35.1207   41.3363 H   0  0  0  0  0  0  0  0  0  0  0  0
   43.7882   36.2336   41.9579 H   0  0  0  0  0  0  0  0  0  0  0  0
   43.5194   35.8864   40.2183 H   0  0  0  0  0  0  0  0  0  0  0  0
   41.6845   32.8489   41.4048 H   0  0  0  0  0  0  0  0  0  0  0  0
   42.9918   33.2489   40.2066 H   0  0  0  0  0  0  0  0  0  0  0  0
   43.2607   32.4294   43.1183 H   0  0  0  0  0  0  0  0  0  0  0  0
   44.0389   31.7186   41.6880 H   0  0  0  0  0  0  0  0  0  0  0  0
   46.8468   32.0417   44.7017 H   0  0  0  0  0  0  0  0  0  0  0  0
   47.8834   33.3576   45.3258 H   0  0  0  0  0  0  0  0  0  0  0  0
   45.9318   34.5100   46.2491 H   0  0  0  0  0  0  0  0  0  0  0  0
   44.8401   33.2622   45.5161 H   0  0  0  0  0  0  0  0  0  0  0  0
   48.1108   32.7244   46.9771 H   0  0  0  0  0  0  0  0  0  0  0  0
   44.3029   30.9886   49.5521 H   0  0  0  0  0  0  0  0  0  0  0  0
   49.1377   31.1392   50.6170 H   0  0  0  0  0  0  0  0  0  0  0  0
  1 12  1  0
  2  1  1  0
  3  2  1  0
  4  3  1  0
  4  5  1  0
  5  1  1  0
  6  5  1  0
  7  8  1  0
  7  6  1  0
  8  9  1  0
 10  9  1  0
 10 11  1  0
 11  6  1  0
 12 13  1  0
 13 14  1  0
 14 15  2  0
 14 19  1  0
 15 16  1  0
 16 20  1  0
 16 17  2  0
 18 17  1  0
 19 18  2  0
  2 21  1  0
  2 22  1  0
  3 23  1  0
  3 24  1  0
  4 25  1  0
  4 26  1  0
  5 27  1  1
  7 28  1  0
  7 29  1  0
  8 30  1  0
  8 31  1  0
 10 32  1  0
 10 33  1  0
 11 34  1  0
 11 35  1  0
 12 36  1  0
 12 37  1  0
 13 38  1  0
 13 39  1  0
 15 40  1  0
 18 41  1  0
 20 42  1  0
M  ISO  8  21  13  22  13  23  13  24  13  25  13  26  13  27  13  28  13
M  ISO  8  29  13  30  13  31  13  32  13  33  13  34  13  35  13  36   8
M  ISO  6  37   8  38   8  39   8  40  14  41  14  42  11
M  END
>  <minimizedAffinity>  (1) 
-4.88360167

>  <minimizedRMSD>  (1) 
1.98091578

$$$$
