
     RDKit          3D

 43 45  0  0  1  0  0  0  0  0999 V2000
   47.4700   34.1050   43.2040 N   0  0  0  0  0  0  0  0  0  0  0  0
   48.8280   34.5690   42.8970 C   0  0  0  0  0  0  0  0  0  0  0  0
   49.0910   34.2920   41.4520 C   0  0  0  0  0  0  0  0  0  0  0  0
   47.7170   34.4550   40.8350 C   0  0  0  0  0  0  0  0  0  0  0  0
   46.7870   34.0840   41.9270 C   0  0  2  0  0  0  0  0  0  0  0  0
   45.5910   34.8710   42.0420 N   0  0  0  0  0  0  0  0  0  0  0  0
   45.6110   35.7830   43.1520 C   0  0  0  0  0  0  0  0  0  0  0  0
   44.4140   35.6730   44.0450 C   0  0  0  0  0  0  0  0  0  0  0  0
   43.1640   35.7190   43.3550 N   0  0  0  0  0  0  0  0  0  0  0  0
   43.2430   35.0920   42.0470 C   0  0  0  0  0  0  0  0  0  0  0  0
   44.3850   34.0860   42.1120 C   0  0  0  0  0  0  0  0  0  0  0  0
   47.5270   32.7490   43.7260 C   0  0  0  0  0  0  0  0  0  0  0  0
   46.4270   32.6070   44.7540 C   0  0  0  0  0  0  0  0  0  0  0  0
   46.9310   32.0460   46.0060 C   0  0  0  0  0  0  0  0  0  0  0  0
   47.2580   30.6830   45.9710 C   0  0  0  0  0  0  0  0  0  0  0  0
   47.7450   30.0410   47.0980 C   0  0  0  0  0  0  0  0  0  0  0  0
   47.8900   30.8000   48.2430 N   0  0  0  0  0  0  0  0  0  0  0  0
   47.5720   32.1030   48.2540 C   0  0  0  0  0  0  0  0  0  0  0  0
   47.0950   32.7390   47.1590 N   0  0  0  0  0  0  0  0  0  0  0  0
   48.1750   28.3220   47.1160 S   0  0  0  0  0  0  0  0  0  0  0  0
   48.9071   35.6488   43.0912 H   0  0  0  0  0  0  0  0  0  0  0  0
   49.5633   34.0478   43.5276 H   0  0  0  0  0  0  0  0  0  0  0  0
   49.8047   35.0157   41.0314 H   0  0  0  0  0  0  0  0  0  0  0  0
   49.5414   33.3054   41.2682 H   0  0  0  0  0  0  0  0  0  0  0  0
   47.5520   35.4952   40.5174 H   0  0  0  0  0  0  0  0  0  0  0  0
   47.5811   33.8371   39.9352 H   0  0  0  0  0  0  0  0  0  0  0  0
   46.4554   33.0731   41.6475 H   0  0  0  0  0  0  0  0  0  0  0  0
   46.5108   35.5804   43.7514 H   0  0  0  0  0  0  0  0  0  0  0  0
   45.6056   36.7997   42.7320 H   0  0  0  0  0  0  0  0  0  0  0  0
   44.4742   34.7177   44.5869 H   0  0  0  0  0  0  0  0  0  0  0  0
   44.4379   36.5447   44.7154 H   0  0  0  0  0  0  0  0  0  0  0  0
   42.4550   35.2273   43.9175 H   0  0  0  0  0  0  0  0  0  0  0  0
   43.4480   35.8489   41.2756 H   0  0  0  0  0  0  0  0  0  0  0  0
   42.2951   34.5982   41.7871 H   0  0  0  0  0  0  0  0  0  0  0  0
   44.3310   33.3872   41.2642 H   0  0  0  0  0  0  0  0  0  0  0  0
   44.3443   33.4797   43.0289 H   0  0  0  0  0  0  0  0  0  0  0  0
   47.3737   32.0267   42.9107 H   0  0  0  0  0  0  0  0  0  0  0  0
   48.5086   32.5518   44.1815 H   0  0  0  0  0  0  0  0  0  0  0  0
   45.9959   33.5988   44.9550 H   0  0  0  0  0  0  0  0  0  0  0  0
   45.6658   31.9225   44.3516 H   0  0  0  0  0  0  0  0  0  0  0  0
   47.1263   30.1165   45.0373 H   0  0  0  0  0  0  0  0  0  0  0  0
   47.7034   32.6741   49.1849 H   0  0  0  0  0  0  0  0  0  0  0  0
   48.2826   27.8917   48.4122 H   0  0  0  0  0  0  0  0  0  0  0  0
  1 12  1  0
  2  1  1  0
  3  2  1  0
  4  3  1  0
  4  5  1  0
  5  6  1  0
  5  1  1  0
  6 11  1  0
  6  7  1  0
  7  8  1  0
  9  8  1  0
 10 11  1  0
 10  9  1  0
 12 13  1  0
 13 14  1  0
 14 19  1  0
 15 14  2  0
 15 16  1  0
 16 20  1  0
 16 17  2  0
 17 18  1  0
 19 18  2  0
  2 21  1  0
  2 22  1  0
  3 23  1  0
  3 24  1  0
  4 25  1  0
  4 26  1  0
  5 27  1  6
  7 28  1  0
  7 29  1  0
  8 30  1  0
  8 31  1  0
  9 32  1  0
 10 33  1  0
 10 34  1  0
 11 35  1  0
 11 36  1  0
 12 37  1  0
 12 38  1  0
 13 39  1  0
 13 40  1  0
 15 41  1  0
 18 42  1  0
 20 43  1  0
M  ISO  8  21  13  22  13  23  13  24  13  25  13  26  13  27  13  28  13
M  ISO  8  29  13  30  13  31  13  32   5  33  13  34  13  35  13  36  13
M  ISO  7  37   8  38   8  39   8  40   8  41  14  42  14  43  11
M  END
>  <minimizedAffinity>  (1) 
-5.09972954

>  <minimizedRMSD>  (1) 
1.27240336

$$$$
