
     RDKit          3D

 36 38  0  0  1  0  0  0  0  0999 V2000
   44.5920   35.7880   44.9100 C   0  0  0  0  0  0  0  0  0  0  0  0
   45.1760   35.7210   43.6180 C   0  0  0  0  0  0  0  0  0  0  0  0
   45.9620   34.6240   43.3340 C   0  0  0  0  0  0  0  0  0  0  0  0
   46.1440   33.6640   44.2910 N   0  0  0  0  0  0  0  0  0  0  0  0
   45.5710   33.7720   45.5020 C   0  0  0  0  0  0  0  0  0  0  0  0
   44.8050   34.8210   45.8050 N   0  0  0  0  0  0  0  0  0  0  0  0
   45.7890   32.7320   46.5050 N   0  0  0  0  0  0  0  0  0  0  0  0
   45.1760   32.8390   47.8070 C   0  0  0  0  0  0  0  0  0  0  0  0
   46.0450   32.2910   48.9060 C   0  0  0  0  0  0  0  0  0  0  0  0
   47.4570   32.1610   48.4120 C   0  0  0  0  0  0  0  0  0  0  0  0
   47.4170   31.0920   47.3200 C   0  0  0  0  0  0  0  0  0  0  0  0
   46.6310   31.6000   46.1650 C   0  0  1  0  0  0  0  0  0  0  0  0
   45.8640   30.5340   45.4610 C   0  0  0  0  0  0  0  0  0  0  0  0
   45.8820   30.2140   44.1620 N   0  0  0  0  0  0  0  0  0  0  0  0
   45.0890   29.2150   43.9070 O   0  0  0  0  0  0  0  0  0  0  0  0
   44.5360   28.8640   45.0430 C   0  0  0  0  0  0  0  0  0  0  0  0
   44.9850   29.6550   46.0450 N   0  0  0  0  0  0  0  0  0  0  0  0
   43.5520   27.7860   45.3480 C   0  0  0  0  0  0  0  0  0  0  0  0
   42.1230   28.3120   45.2310 C   0  0  0  0  0  0  0  0  0  0  0  0
   43.9572   36.6459   45.1764 H   0  0  0  0  0  0  0  0  0  0  0  0
   45.0083   36.5126   42.8729 H   0  0  0  0  0  0  0  0  0  0  0  0
   46.4379   34.5221   42.3475 H   0  0  0  0  0  0  0  0  0  0  0  0
   44.9740   33.9002   48.0145 H   0  0  0  0  0  0  0  0  0  0  0  0
   44.2508   32.2443   47.7879 H   0  0  0  0  0  0  0  0  0  0  0  0
   46.0198   32.9739   49.7680 H   0  0  0  0  0  0  0  0  0  0  0  0
   45.6710   31.3021   49.2097 H   0  0  0  0  0  0  0  0  0  0  0  0
   47.8084   33.1181   47.9990 H   0  0  0  0  0  0  0  0  0  0  0  0
   48.1471   31.8866   49.2234 H   0  0  0  0  0  0  0  0  0  0  0  0
   48.4419   30.8609   46.9941 H   0  0  0  0  0  0  0  0  0  0  0  0
   46.9458   30.1795   47.7141 H   0  0  0  0  0  0  0  0  0  0  0  0
   47.3821   31.9676   45.4503 H   0  0  0  0  0  0  0  0  0  0  0  0
   43.6915   26.9579   44.6375 H   0  0  0  0  0  0  0  0  0  0  0  0
   43.7175   27.4366   46.3778 H   0  0  0  0  0  0  0  0  0  0  0  0
   41.7054   28.4657   46.2370 H   0  0  0  0  0  0  0  0  0  0  0  0
   42.1274   29.2674   44.6859 H   0  0  0  0  0  0  0  0  0  0  0  0
   41.5069   27.5817   44.6859 H   0  0  0  0  0  0  0  0  0  0  0  0
  1  6  2  0
  2  1  1  0
  3  2  2  0
  3  4  1  0
  4  5  2  0
  5  6  1  0
  5  7  1  0
  7  8  1  0
  8  9  1  0
 10  9  1  0
 11 10  1  0
 12  7  1  0
 12 11  1  0
 13 17  1  0
 13 12  1  0
 14 13  2  0
 15 14  1  0
 15 16  1  0
 16 18  1  0
 16 17  2  0
 19 18  1  0
  1 20  1  0
  2 21  1  0
  3 22  1  0
  8 23  1  0
  8 24  1  0
  9 25  1  0
  9 26  1  0
 10 27  1  0
 10 28  1  0
 11 29  1  0
 11 30  1  0
 12 31  1  6
 18 32  1  0
 18 33  1  0
 19 34  1  0
 19 35  1  0
 19 36  1  0
M  ISO  8  20  14  21  14  22  14  23  13  24  13  25  13  26  13  27  13
M  ISO  8  28  13  29  13  30  13  31  13  32   8  33   8  34   8  35   8
M  ISO  1  36   8
M  END
>  <minimizedAffinity>  (1) 
-5.14330769

>  <minimizedRMSD>  (1) 
0.121498257

$$$$
