
     RDKit          3D

 42 44  0  0  1  0  0  0  0  0999 V2000
   46.5170   34.8020   42.5870 N   0  0  0  0  0  0  0  0  0  0  0  0
   47.7450   35.4230   42.1380 C   0  0  0  0  0  0  0  0  0  0  0  0
   48.3140   34.5810   41.0200 C   0  0  0  0  0  0  0  0  0  0  0  0
   47.0350   34.1240   40.3560 C   0  0  0  0  0  0  0  0  0  0  0  0
   46.0450   34.0100   41.4600 C   0  0  2  0  0  0  0  0  0  0  0  0
   44.6460   34.3950   41.0730 C   0  0  0  0  0  0  0  0  0  0  0  0
   44.0740   35.5710   41.7860 C   0  0  0  0  0  0  0  0  0  0  0  0
   42.6330   35.5400   41.3090 C   0  0  0  0  0  0  0  0  0  0  0  0
   42.3440   34.0920   41.0000 C   0  0  0  0  0  0  0  0  0  0  0  0
   43.6240   33.3330   41.3810 C   0  0  0  0  0  0  0  0  0  0  0  0
   46.7840   33.9340   43.7130 C   0  0  0  0  0  0  0  0  0  0  0  0
   45.6870   34.1340   44.7420 C   0  0  0  0  0  0  0  0  0  0  0  0
   45.8560   33.2300   45.8780 C   0  0  0  0  0  0  0  0  0  0  0  0
   46.7300   32.1720   45.6900 C   0  0  0  0  0  0  0  0  0  0  0  0
   46.9740   31.2560   46.6810 C   0  0  0  0  0  0  0  0  0  0  0  0
   46.3010   31.4410   47.8790 N   0  0  0  0  0  0  0  0  0  0  0  0
   45.4520   32.4770   48.0500 C   0  0  0  0  0  0  0  0  0  0  0  0
   45.2150   33.3710   47.0810 N   0  0  0  0  0  0  0  0  0  0  0  0
   48.0710   29.8870   46.5120 S   0  0  0  0  0  0  0  0  0  0  0  0
   47.5368   36.4389   41.7711 H   0  0  0  0  0  0  0  0  0  0  0  0
   48.4637   35.4913   42.9680 H   0  0  0  0  0  0  0  0  0  0  0  0
   48.9377   35.1769   40.3374 H   0  0  0  0  0  0  0  0  0  0  0  0
   48.9816   33.7697   41.3456 H   0  0  0  0  0  0  0  0  0  0  0  0
   46.7008   34.8623   39.6122 H   0  0  0  0  0  0  0  0  0  0  0  0
   47.1660   33.1725   39.8198 H   0  0  0  0  0  0  0  0  0  0  0  0
   45.9744   32.9470   41.7340 H   0  0  0  0  0  0  0  0  0  0  0  0
   44.7955   34.5911   40.0010 H   0  0  0  0  0  0  0  0  0  0  0  0
   44.1390   35.4503   42.8774 H   0  0  0  0  0  0  0  0  0  0  0  0
   44.5949   36.5178   41.5808 H   0  0  0  0  0  0  0  0  0  0  0  0
   41.9589   35.9073   42.0968 H   0  0  0  0  0  0  0  0  0  0  0  0
   42.4790   36.1842   40.4308 H   0  0  0  0  0  0  0  0  0  0  0  0
   41.4917   33.7335   41.5959 H   0  0  0  0  0  0  0  0  0  0  0  0
   42.0783   33.9433   39.9430 H   0  0  0  0  0  0  0  0  0  0  0  0
   43.7673   32.4345   40.7628 H   0  0  0  0  0  0  0  0  0  0  0  0
   43.6486   32.9450   42.4100 H   0  0  0  0  0  0  0  0  0  0  0  0
   46.7943   32.8857   43.3798 H   0  0  0  0  0  0  0  0  0  0  0  0
   47.7632   34.1751   44.1524 H   0  0  0  0  0  0  0  0  0  0  0  0
   45.7184   35.1728   45.1025 H   0  0  0  0  0  0  0  0  0  0  0  0
   44.7194   33.9175   44.2658 H   0  0  0  0  0  0  0  0  0  0  0  0
   47.2410   32.0639   44.7219 H   0  0  0  0  0  0  0  0  0  0  0  0
   44.9385   32.5905   49.0161 H   0  0  0  0  0  0  0  0  0  0  0  0
   48.4327   29.4356   47.7539 H   0  0  0  0  0  0  0  0  0  0  0  0
  1 11  1  0
  2  1  1  0
  3  2  1  0
  4  3  1  0
  4  5  1  0
  5  1  1  0
  6 10  1  0
  6  5  1  0
  6  7  1  0
  8  7  1  0
  9  8  1  0
  9 10  1  0
 11 12  1  0
 12 13  1  0
 13 18  1  0
 14 13  2  0
 14 15  1  0
 15 16  2  0
 16 17  1  0
 18 17  2  0
 19 15  1  0
  2 20  1  0
  2 21  1  0
  3 22  1  0
  3 23  1  0
  4 24  1  0
  4 25  1  0
  5 26  1  1
  6 27  1  0
  7 28  1  0
  7 29  1  0
  8 30  1  0
  8 31  1  0
  9 32  1  0
  9 33  1  0
 10 34  1  0
 10 35  1  0
 11 36  1  0
 11 37  1  0
 12 38  1  0
 12 39  1  0
 14 40  1  0
 17 41  1  0
 19 42  1  0
M  ISO  8  20  13  21  13  22  13  23  13  24  13  25  13  26  13  27  13
M  ISO  8  28  13  29  13  30  13  31  13  32  13  33  13  34  13  35  13
M  ISO  7  36   8  37   8  38   8  39   8  40  14  41  14  42  11
M  END
>  <minimizedAffinity>  (1) 
-4.82905006

>  <minimizedRMSD>  (1) 
1.00852752

$$$$
