
     RDKit          3D

 36 38  0  0  1  0  0  0  0  0999 V2000
   46.5840   34.8480   42.6280 N   0  0  0  0  0  0  0  0  0  0  0  0
   47.8320   35.4240   42.1610 C   0  0  0  0  0  0  0  0  0  0  0  0
   48.3180   34.5870   41.0130 C   0  0  0  0  0  0  0  0  0  0  0  0
   47.0210   34.1460   40.3730 C   0  0  0  0  0  0  0  0  0  0  0  0
   46.0600   34.0900   41.5020 C   0  0  2  0  0  0  0  0  0  0  0  0
   44.6970   34.5960   41.1220 C   0  0  0  0  0  0  0  0  0  0  0  0
   43.8730   35.3190   41.9600 C   0  0  0  0  0  0  0  0  0  0  0  0
   42.7410   35.6030   41.2930 N   0  0  0  0  0  0  0  0  0  0  0  0
   42.8300   35.0700   40.0400 C   0  0  0  0  0  0  0  0  0  0  0  0
   44.0220   34.4680   39.9640 N   0  0  0  0  0  0  0  0  0  0  0  0
   46.8290   33.9120   43.7140 C   0  0  0  0  0  0  0  0  0  0  0  0
   45.8030   34.2040   44.8010 C   0  0  0  0  0  0  0  0  0  0  0  0
   45.9180   33.2560   45.9030 C   0  0  0  0  0  0  0  0  0  0  0  0
   46.7900   32.1930   45.7070 C   0  0  0  0  0  0  0  0  0  0  0  0
   46.9910   31.2300   46.6640 C   0  0  0  0  0  0  0  0  0  0  0  0
   46.2890   31.3590   47.8350 N   0  0  0  0  0  0  0  0  0  0  0  0
   45.4310   32.3960   48.0380 C   0  0  0  0  0  0  0  0  0  0  0  0
   45.2350   33.3460   47.0880 N   0  0  0  0  0  0  0  0  0  0  0  0
   48.0800   29.8590   46.4810 S   0  0  0  0  0  0  0  0  0  0  0  0
   47.6654   36.4586   41.8265 H   0  0  0  0  0  0  0  0  0  0  0  0
   48.5769   35.4388   42.9703 H   0  0  0  0  0  0  0  0  0  0  0  0
   48.9263   35.1809   40.3149 H   0  0  0  0  0  0  0  0  0  0  0  0
   48.9683   33.7533   41.3165 H   0  0  0  0  0  0  0  0  0  0  0  0
   46.6921   34.8733   39.6162 H   0  0  0  0  0  0  0  0  0  0  0  0
   47.1146   33.1825   39.8506 H   0  0  0  0  0  0  0  0  0  0  0  0
   45.9410   33.0337   41.7850 H   0  0  0  0  0  0  0  0  0  0  0  0
   44.1027   35.6123   42.9950 H   0  0  0  0  0  0  0  0  0  0  0  0
   42.0696   35.1247   39.2470 H   0  0  0  0  0  0  0  0  0  0  0  0
   44.3756   33.9736   39.1325 H   0  0  0  0  0  0  0  0  0  0  0  0
   46.7132   32.8789   43.3543 H   0  0  0  0  0  0  0  0  0  0  0  0
   47.8519   34.0242   44.1026 H   0  0  0  0  0  0  0  0  0  0  0  0
   45.9666   35.2218   45.1847 H   0  0  0  0  0  0  0  0  0  0  0  0
   44.7974   34.1109   44.3649 H   0  0  0  0  0  0  0  0  0  0  0  0
   47.3366   32.1206   44.7551 H   0  0  0  0  0  0  0  0  0  0  0  0
   44.8856   32.4658   48.9907 H   0  0  0  0  0  0  0  0  0  0  0  0
   48.4460   29.3982   47.7182 H   0  0  0  0  0  0  0  0  0  0  0  0
  1 11  1  0
  2  1  1  0
  3  2  1  0
  4  3  1  0
  4  5  1  0
  5  1  1  0
  6  5  1  0
  6  7  2  0
  8  7  1  0
  9  8  2  0
 10  9  1  0
 10  6  1  0
 11 12  1  0
 12 13  1  0
 13 18  1  0
 14 13  2  0
 14 15  1  0
 15 16  2  0
 16 17  1  0
 18 17  2  0
 19 15  1  0
  2 20  1  0
  2 21  1  0
  3 22  1  0
  3 23  1  0
  4 24  1  0
  4 25  1  0
  5 26  1  1
  7 27  1  0
  9 28  1  0
 10 29  1  0
 11 30  1  0
 11 31  1  0
 12 32  1  0
 12 33  1  0
 14 34  1  0
 17 35  1  0
 19 36  1  0
M  ISO  8  20  13  21  13  22  13  23  13  24  13  25  13  26  13  27  14
M  ISO  8  28  14  29   9  30   8  31   8  32   8  33   8  34  14  35  14
M  ISO  1  36  11
M  END
>  <minimizedAffinity>  (1) 
-4.9292407

>  <minimizedRMSD>  (1) 
0.87841028

$$$$
