
     RDKit          3D

 38 40  0  0  1  0  0  0  0  0999 V2000
   46.6460   34.8270   42.5120 N   0  0  0  0  0  0  0  0  0  0  0  0
   47.8670   35.5200   42.1230 C   0  0  0  0  0  0  0  0  0  0  0  0
   48.4990   34.7400   41.0080 C   0  0  0  0  0  0  0  0  0  0  0  0
   47.2950   34.1750   40.2990 C   0  0  0  0  0  0  0  0  0  0  0  0
   46.2620   34.0160   41.3610 C   0  0  2  0  0  0  0  0  0  0  0  0
   44.8740   34.3190   40.9280 C   0  0  0  0  0  0  0  0  0  0  0  0
   44.0820   35.2470   41.5980 C   0  0  0  0  0  0  0  0  0  0  0  0
   42.7880   35.5740   41.2500 C   0  0  0  0  0  0  0  0  0  0  0  0
   42.2680   34.9170   40.1530 C   0  0  0  0  0  0  0  0  0  0  0  0
   43.0220   33.9960   39.4710 C   0  0  0  0  0  0  0  0  0  0  0  0
   44.2730   33.7340   39.8740 N   0  0  0  0  0  0  0  0  0  0  0  0
   46.9320   33.9230   43.6300 C   0  0  0  0  0  0  0  0  0  0  0  0
   45.8060   34.0720   44.6300 C   0  0  0  0  0  0  0  0  0  0  0  0
   45.9710   33.1580   45.7630 C   0  0  0  0  0  0  0  0  0  0  0  0
   46.8340   32.0940   45.5470 C   0  0  0  0  0  0  0  0  0  0  0  0
   47.0830   31.1570   46.5310 C   0  0  0  0  0  0  0  0  0  0  0  0
   46.4380   31.3220   47.7290 N   0  0  0  0  0  0  0  0  0  0  0  0
   45.5920   32.3660   47.9390 C   0  0  0  0  0  0  0  0  0  0  0  0
   45.3520   33.2830   46.9700 N   0  0  0  0  0  0  0  0  0  0  0  0
   48.1620   29.7800   46.3250 S   0  0  0  0  0  0  0  0  0  0  0  0
   47.6273   36.5372   41.7796 H   0  0  0  0  0  0  0  0  0  0  0  0
   48.5552   35.5968   42.9776 H   0  0  0  0  0  0  0  0  0  0  0  0
   49.0834   35.3939   40.3440 H   0  0  0  0  0  0  0  0  0  0  0  0
   49.2115   33.9751   41.3503 H   0  0  0  0  0  0  0  0  0  0  0  0
   46.9448   34.8677   39.5196 H   0  0  0  0  0  0  0  0  0  0  0  0
   47.5205   33.2231   39.7959 H   0  0  0  0  0  0  0  0  0  0  0  0
   46.2351   32.9489   41.6266 H   0  0  0  0  0  0  0  0  0  0  0  0
   44.5201   35.7569   42.4687 H   0  0  0  0  0  0  0  0  0  0  0  0
   42.2039   36.3158   41.8143 H   0  0  0  0  0  0  0  0  0  0  0  0
   41.2412   35.1336   39.8232 H   0  0  0  0  0  0  0  0  0  0  0  0
   42.6020   33.4752   38.5979 H   0  0  0  0  0  0  0  0  0  0  0  0
   46.9813   32.8844   43.2709 H   0  0  0  0  0  0  0  0  0  0  0  0
   47.8987   34.1705   44.0929 H   0  0  0  0  0  0  0  0  0  0  0  0
   45.7942   35.1065   45.0038 H   0  0  0  0  0  0  0  0  0  0  0  0
   44.8601   33.8282   44.1242 H   0  0  0  0  0  0  0  0  0  0  0  0
   47.3310   31.9941   44.5708 H   0  0  0  0  0  0  0  0  0  0  0  0
   45.0929   32.4682   48.9139 H   0  0  0  0  0  0  0  0  0  0  0  0
   48.5349   29.3041   47.5544 H   0  0  0  0  0  0  0  0  0  0  0  0
  1 12  1  0
  2  1  1  0
  3  2  1  0
  4  3  1  0
  4  5  1  0
  5  1  1  0
  6  5  1  0
  6  7  2  0
  8  7  1  0
  9  8  2  0
 10 11  2  0
 10  9  1  0
 11  6  1  0
 12 13  1  0
 13 14  1  0
 14 19  1  0
 15 14  2  0
 15 16  1  0
 16 17  2  0
 17 18  1  0
 19 18  2  0
 20 16  1  0
  2 21  1  0
  2 22  1  0
  3 23  1  0
  3 24  1  0
  4 25  1  0
  4 26  1  0
  5 27  1  1
  7 28  1  0
  8 29  1  0
  9 30  1  0
 10 31  1  0
 12 32  1  0
 12 33  1  0
 13 34  1  0
 13 35  1  0
 15 36  1  0
 18 37  1  0
 20 38  1  0
M  ISO  8  21  13  22  13  23  13  24  13  25  13  26  13  27  13  28  14
M  ISO  8  29  14  30  14  31  14  32   8  33   8  34   8  35   8  36  14
M  ISO  2  37  14  38  11
M  END
>  <minimizedAffinity>  (1) 
-5.01586962

>  <minimizedRMSD>  (1) 
1.15251493

$$$$
