
     RDKit          3D

 41 42  0  0  1  0  0  0  0  0999 V2000
   46.7750   32.9060   45.0520 C   0  0  0  0  0  0  0  0  0  0  0  0
   46.7760   33.9870   44.0630 N   0  0  0  0  0  0  0  0  0  0  0  0
   47.8690   33.7440   43.1120 C   0  0  0  0  0  0  0  0  0  0  0  0
   47.3040   33.0110   41.9480 C   0  0  0  0  0  0  0  0  0  0  0  0
   45.8950   33.5010   41.8710 C   0  0  0  0  0  0  0  0  0  0  0  0
   45.5630   33.9320   43.2930 C   0  0  2  0  0  0  0  0  0  0  0  0
   44.8200   35.2600   43.2330 C   0  0  0  0  0  0  0  0  0  0  0  0
   43.6520   35.2790   42.2930 C   0  0  0  0  0  0  0  0  0  0  0  0
   45.7620   36.3630   42.7440 C   0  0  0  0  0  0  0  0  0  0  0  0
   44.3290   35.7160   44.5840 C   0  0  0  0  0  0  0  0  0  0  0  0
   45.8840   33.3590   46.1950 C   0  0  0  0  0  0  0  0  0  0  0  0
   46.0220   32.4780   47.3550 C   0  0  0  0  0  0  0  0  0  0  0  0
   47.3190   32.1950   47.7480 C   0  0  0  0  0  0  0  0  0  0  0  0
   47.5470   31.3630   48.8190 C   0  0  0  0  0  0  0  0  0  0  0  0
   46.4440   30.8350   49.4730 N   0  0  0  0  0  0  0  0  0  0  0  0
   45.1940   31.1210   49.0770 C   0  0  0  0  0  0  0  0  0  0  0  0
   44.9650   31.9300   48.0340 N   0  0  0  0  0  0  0  0  0  0  0  0
   49.1930   30.9530   49.3610 S   0  0  0  0  0  0  0  0  0  0  0  0
   47.7969   32.7255   45.4169 H   0  0  0  0  0  0  0  0  0  0  0  0
   46.4062   31.9680   44.6115 H   0  0  0  0  0  0  0  0  0  0  0  0
   48.2958   34.7018   42.7797 H   0  0  0  0  0  0  0  0  0  0  0  0
   48.6674   33.1546   43.5866 H   0  0  0  0  0  0  0  0  0  0  0  0
   47.8545   33.2534   41.0270 H   0  0  0  0  0  0  0  0  0  0  0  0
   47.3700   31.9186   42.0593 H   0  0  0  0  0  0  0  0  0  0  0  0
   45.8166   34.3520   41.1785 H   0  0  0  0  0  0  0  0  0  0  0  0
   45.2045   32.7316   41.4952 H   0  0  0  0  0  0  0  0  0  0  0  0
   44.9029   33.2105   43.7967 H   0  0  0  0  0  0  0  0  0  0  0  0
   42.7163   35.2942   42.8711 H   0  0  0  0  0  0  0  0  0  0  0  0
   43.7060   36.1764   41.6591 H   0  0  0  0  0  0  0  0  0  0  0  0
   43.6768   34.3803   41.6591 H   0  0  0  0  0  0  0  0  0  0  0  0
   46.2028   36.8791   43.6096 H   0  0  0  0  0  0  0  0  0  0  0  0
   46.5630   35.9180   42.1355 H   0  0  0  0  0  0  0  0  0  0  0  0
   45.1971   37.0845   42.1355 H   0  0  0  0  0  0  0  0  0  0  0  0
   44.8904   35.1946   45.3733 H   0  0  0  0  0  0  0  0  0  0  0  0
   44.4804   36.8011   44.6821 H   0  0  0  0  0  0  0  0  0  0  0  0
   43.2580   35.4849   44.6821 H   0  0  0  0  0  0  0  0  0  0  0  0
   46.1657   34.3818   46.4858 H   0  0  0  0  0  0  0  0  0  0  0  0
   44.8383   33.3263   45.8553 H   0  0  0  0  0  0  0  0  0  0  0  0
   48.1672   32.6357   47.2036 H   0  0  0  0  0  0  0  0  0  0  0  0
   44.3423   30.6834   49.6184 H   0  0  0  0  0  0  0  0  0  0  0  0
   49.2336   30.9429   50.7304 H   0  0  0  0  0  0  0  0  0  0  0  0
  1 11  1  0
  2  1  1  0
  3  2  1  0
  4  3  1  0
  5  4  1  0
  5  6  1  0
  6  2  1  0
  7  6  1  0
  7 10  1  0
  8  7  1  0
  9  7  1  0
 11 12  1  0
 12 13  2  0
 12 17  1  0
 13 14  1  0
 14 18  1  0
 14 15  2  0
 16 15  1  0
 17 16  2  0
  1 19  1  0
  1 20  1  0
  3 21  1  0
  3 22  1  0
  4 23  1  0
  4 24  1  0
  5 25  1  0
  5 26  1  0
  6 27  1  1
  8 28  1  0
  8 29  1  0
  8 30  1  0
  9 31  1  0
  9 32  1  0
  9 33  1  0
 10 34  1  0
 10 35  1  0
 10 36  1  0
 11 37  1  0
 11 38  1  0
 13 39  1  0
 16 40  1  0
 18 41  1  0
M  ISO  8  19   8  20   8  21  13  22  13  23  13  24  13  25  13  26  13
M  ISO  8  27  13  28   8  29   8  30   8  31   8  32   8  33   8  34   8
M  ISO  7  35   8  36   8  37   8  38   8  39  14  40  14  41  11
M  END
>  <minimizedAffinity>  (1) 
-4.64406586

>  <minimizedRMSD>  (1) 
1.88567567

$$$$
