
     RDKit          3D

 30 31  0  0  1  0  0  0  0  0999 V2000
   46.8430   33.8880   43.4670 C   0  0  0  0  0  0  0  0  0  0  0  0
   46.7400   34.9000   42.4160 N   0  0  0  0  0  0  0  0  0  0  0  0
   48.0590   35.3850   42.0590 C   0  0  0  0  0  0  0  0  0  0  0  0
   48.5830   34.5560   40.9230 C   0  0  0  0  0  0  0  0  0  0  0  0
   47.3130   34.2490   40.1670 C   0  0  0  0  0  0  0  0  0  0  0  0
   46.2450   34.2410   41.2080 C   0  0  1  0  0  0  0  0  0  0  0  0
   45.9250   32.9000   41.4610 O   0  0  0  0  0  0  0  0  0  0  0  0
   45.8620   34.2920   44.5630 C   0  0  0  0  0  0  0  0  0  0  0  0
   45.9340   33.3680   45.6870 C   0  0  0  0  0  0  0  0  0  0  0  0
   46.7740   32.2760   45.5380 C   0  0  0  0  0  0  0  0  0  0  0  0
   46.9220   31.3330   46.5380 C   0  0  0  0  0  0  0  0  0  0  0  0
   46.1990   31.5240   47.6890 N   0  0  0  0  0  0  0  0  0  0  0  0
   45.3820   32.5860   47.8360 C   0  0  0  0  0  0  0  0  0  0  0  0
   45.2330   33.5140   46.8560 N   0  0  0  0  0  0  0  0  0  0  0  0
   47.9860   29.9270   46.3860 S   0  0  0  0  0  0  0  0  0  0  0  0
   47.8674   33.8597   43.8668 H   0  0  0  0  0  0  0  0  0  0  0  0
   46.6089   32.8868   43.0762 H   0  0  0  0  0  0  0  0  0  0  0  0
   47.9952   36.4388   41.7501 H   0  0  0  0  0  0  0  0  0  0  0  0
   48.7346   35.3073   42.9236 H   0  0  0  0  0  0  0  0  0  0  0  0
   49.2923   35.1247   40.3037 H   0  0  0  0  0  0  0  0  0  0  0  0
   49.1447   33.6645   41.2389 H   0  0  0  0  0  0  0  0  0  0  0  0
   47.1136   35.0244   39.4127 H   0  0  0  0  0  0  0  0  0  0  0  0
   47.3723   33.2940   39.6244 H   0  0  0  0  0  0  0  0  0  0  0  0
   45.3488   34.7841   40.8733 H   0  0  0  0  0  0  0  0  0  0  0  0
   45.8888   32.7482   42.4386 H   0  0  0  0  0  0  0  0  0  0  0  0
   46.1089   35.3053   44.9126 H   0  0  0  0  0  0  0  0  0  0  0  0
   44.8425   34.2674   44.1507 H   0  0  0  0  0  0  0  0  0  0  0  0
   47.3371   32.1565   44.6006 H   0  0  0  0  0  0  0  0  0  0  0  0
   44.8211   32.7040   48.7748 H   0  0  0  0  0  0  0  0  0  0  0  0
   48.3275   29.4757   47.6337 H   0  0  0  0  0  0  0  0  0  0  0  0
  1  8  1  0
  2  1  1  0
  3  2  1  0
  4  3  1  0
  5  4  1  0
  5  6  1  0
  6  7  1  0
  6  2  1  0
  8  9  1  0
  9 14  1  0
 10  9  2  0
 10 11  1  0
 11 12  2  0
 12 13  1  0
 14 13  2  0
 15 11  1  0
  1 16  1  0
  1 17  1  0
  3 18  1  0
  3 19  1  0
  4 20  1  0
  4 21  1  0
  5 22  1  0
  5 23  1  0
  6 24  1  6
  7 25  1  0
  8 26  1  0
  8 27  1  0
 10 28  1  0
 13 29  1  0
 15 30  1  0
M  ISO  8  16   8  17   8  18  13  19  13  20  13  21  13  22  13  23  13
M  ISO  7  24  13  25   3  26   8  27   8  28  14  29  14  30  11
M  END
>  <minimizedAffinity>  (1) 
-3.85124445

>  <minimizedRMSD>  (1) 
0.464455694

$$$$
