
     RDKit          3D

 32 35  0  0  0  0  0  0  0  0999 V2000
   48.7540   31.4400   42.6630 C   0  0  0  0  0  0  0  0  0  0  0  0
   49.7060   32.3900   42.2910 C   0  0  0  0  0  0  0  0  0  0  0  0
   51.0520   32.0510   42.4340 C   0  0  0  0  0  0  0  0  0  0  0  0
   51.3770   30.8350   42.9200 N   0  0  0  0  0  0  0  0  0  0  0  0
   50.4350   29.9260   43.2750 C   0  0  0  0  0  0  0  0  0  0  0  0
   49.1200   30.2200   43.1500 N   0  0  0  0  0  0  0  0  0  0  0  0
   49.3730   33.7030   41.7660 C   0  0  0  0  0  0  0  0  0  0  0  0
   49.5470   34.8660   42.5130 C   0  0  0  0  0  0  0  0  0  0  0  0
   49.1630   35.9200   41.7920 N   0  0  0  0  0  0  0  0  0  0  0  0
   48.7450   35.5050   40.6040 C   0  0  0  0  0  0  0  0  0  0  0  0
   48.8820   34.1660   40.6170 N   0  0  0  0  0  0  0  0  0  0  0  0
   47.0030   31.7510   42.5230 S   0  0  0  0  0  0  0  0  0  0  0  0
   46.4340   32.3430   44.1060 C   0  0  0  0  0  0  0  0  0  0  0  0
   46.5100   31.7060   45.3040 N   0  0  0  0  0  0  0  0  0  0  0  0
   46.0290   32.3000   46.4100 C   0  0  0  0  0  0  0  0  0  0  0  0
   45.4570   33.5370   46.3910 N   0  0  0  0  0  0  0  0  0  0  0  0
   45.3700   34.1840   45.2290 C   0  0  0  0  0  0  0  0  0  0  0  0
   44.7800   35.4460   45.2520 C   0  0  0  0  0  0  0  0  0  0  0  0
   44.6740   36.1440   44.0630 C   0  0  0  0  0  0  0  0  0  0  0  0
   45.1490   35.5950   42.8690 C   0  0  0  0  0  0  0  0  0  0  0  0
   45.7210   34.3440   42.9200 C   0  0  0  0  0  0  0  0  0  0  0  0
   45.8600   33.5850   44.0840 C   0  0  0  0  0  0  0  0  0  0  0  0
   51.8389   32.7667   42.1538 H   0  0  0  0  0  0  0  0  0  0  0  0
   50.7415   28.9448   43.6665 H   0  0  0  0  0  0  0  0  0  0  0  0
   49.9405   34.9083   43.5393 H   0  0  0  0  0  0  0  0  0  0  0  0
   48.3652   36.1259   39.7793 H   0  0  0  0  0  0  0  0  0  0  0  0
   48.6330   33.5617   39.8210 H   0  0  0  0  0  0  0  0  0  0  0  0
   46.1000   31.7661   47.3691 H   0  0  0  0  0  0  0  0  0  0  0  0
   44.4075   35.8767   46.1932 H   0  0  0  0  0  0  0  0  0  0  0  0
   44.2110   37.1418   44.0570 H   0  0  0  0  0  0  0  0  0  0  0  0
   45.0685   36.1445   41.9195 H   0  0  0  0  0  0  0  0  0  0  0  0
   46.0942   33.9126   41.9795 H   0  0  0  0  0  0  0  0  0  0  0  0
  1  6  2  0
  2  3  2  0
  2  1  1  0
  3  4  1  0
  4  5  2  0
  6  5  1  0
  7  2  1  0
  7  8  2  0
  9  8  1  0
 10 11  1  0
 10  9  2  0
 11  7  1  0
 12  1  1  0
 12 13  1  0
 13 14  2  0
 14 15  1  0
 16 15  2  0
 17 18  2  0
 17 16  1  0
 19 18  1  0
 20 21  1  0
 20 19  2  0
 21 22  2  0
 22 13  1  0
 22 17  1  0
  3 23  1  0
  5 24  1  0
  8 25  1  0
 10 26  1  0
 11 27  1  0
 15 28  1  0
 18 29  1  0
 19 30  1  0
 20 31  1  0
 21 32  1  0
M  ISO  8  23  14  24  14  25  14  26  14  27   9  28  14  29  14  30  14
M  ISO  2  31  14  32  14
M  END
>  <minimizedAffinity>  (1) 
-5.56215239

>  <minimizedRMSD>  (1) 
4.96708012

$$$$
