
     RDKit          3D

 25 27  0  0  0  0  0  0  0  0999 V2000
   45.7220   34.9060   43.9380 C   0  0  0  0  0  0  0  0  0  0  0  0
   46.7890   34.1850   43.3940 C   0  0  0  0  0  0  0  0  0  0  0  0
   47.3010   33.1150   44.1430 C   0  0  0  0  0  0  0  0  0  0  0  0
   46.7440   32.8380   45.3410 N   0  0  0  0  0  0  0  0  0  0  0  0
   45.7120   33.5520   45.8460 C   0  0  0  0  0  0  0  0  0  0  0  0
   45.2010   34.5850   45.1480 N   0  0  0  0  0  0  0  0  0  0  0  0
   47.3890   34.4760   42.1100 C   0  0  0  0  0  0  0  0  0  0  0  0
   48.4010   35.4030   41.9490 C   0  0  0  0  0  0  0  0  0  0  0  0
   48.7600   35.4650   40.6650 N   0  0  0  0  0  0  0  0  0  0  0  0
   48.0260   34.6160   39.9640 C   0  0  0  0  0  0  0  0  0  0  0  0
   47.2030   34.0280   40.8530 N   0  0  0  0  0  0  0  0  0  0  0  0
   44.9890   36.2800   43.0690 S   0  0  0  0  0  0  0  0  0  0  0  0
   45.1110   37.7940   44.0050 C   0  0  0  0  0  0  0  0  0  0  0  0
   45.4250   38.9430   43.3080 C   0  0  0  0  0  0  0  0  0  0  0  0
   45.4680   39.9850   44.2200 C   0  0  0  0  0  0  0  0  0  0  0  0
   45.1810   39.4400   45.4340 N   0  0  0  0  0  0  0  0  0  0  0  0
   44.9720   38.1460   45.2990 N   0  0  0  0  0  0  0  0  0  0  0  0
   48.1395   32.5138   43.7617 H   0  0  0  0  0  0  0  0  0  0  0  0
   45.2897   33.2891   46.8271 H   0  0  0  0  0  0  0  0  0  0  0  0
   48.8448   36.0009   42.7587 H   0  0  0  0  0  0  0  0  0  0  0  0
   48.0774   34.4295   38.8811 H   0  0  0  0  0  0  0  0  0  0  0  0
   46.5064   33.3129   40.5994 H   0  0  0  0  0  0  0  0  0  0  0  0
   45.6078   39.0178   42.2259 H   0  0  0  0  0  0  0  0  0  0  0  0
   45.6896   41.0410   44.0061 H   0  0  0  0  0  0  0  0  0  0  0  0
   45.1344   39.9596   46.3221 H   0  0  0  0  0  0  0  0  0  0  0  0
  1  6  2  0
  2  1  1  0
  2  3  2  0
  3  4  1  0
  4  5  2  0
  6  5  1  0
  7  2  1  0
  8  7  2  0
  9  8  1  0
 10  9  2  0
 10 11  1  0
 11  7  1  0
 12  1  1  0
 12 13  1  0
 13 17  2  0
 14 13  1  0
 14 15  2  0
 15 16  1  0
 17 16  1  0
  3 18  1  0
  5 19  1  0
  8 20  1  0
 10 21  1  0
 11 22  1  0
 14 23  1  0
 15 24  1  0
 16 25  1  0
M  ISO  8  18  14  19  14  20  14  21  14  22   9  23  14  24  14  25   9
M  END
>  <minimizedAffinity>  (1) 
-3.86883926

>  <minimizedRMSD>  (1) 
0.753000915

$$$$
