
     RDKit          3D

 21 22  0  0  0  0  0  0  0  0999 V2000
   45.5730   34.7290   43.9920 C   0  0  0  0  0  0  0  0  0  0  0  0
   46.6860   34.0740   43.4730 C   0  0  0  0  0  0  0  0  0  0  0  0
   47.3090   33.1180   44.2850 C   0  0  0  0  0  0  0  0  0  0  0  0
   46.8050   32.8880   45.5100 N   0  0  0  0  0  0  0  0  0  0  0  0
   45.7370   33.5270   45.9910 C   0  0  0  0  0  0  0  0  0  0  0  0
   45.1060   34.4600   45.2290 N   0  0  0  0  0  0  0  0  0  0  0  0
   47.2310   34.3180   42.1530 C   0  0  0  0  0  0  0  0  0  0  0  0
   48.2490   35.2250   41.9210 C   0  0  0  0  0  0  0  0  0  0  0  0
   48.5620   35.2510   40.6250 N   0  0  0  0  0  0  0  0  0  0  0  0
   47.7820   34.3870   39.9780 C   0  0  0  0  0  0  0  0  0  0  0  0
   46.9960   33.8420   40.9140 N   0  0  0  0  0  0  0  0  0  0  0  0
   44.7090   35.9720   43.0410 S   0  0  0  0  0  0  0  0  0  0  0  0
   43.5510   35.2170   41.8780 C   0  0  0  0  0  0  0  0  0  0  0  0
   42.2300   35.5130   42.2340 F   0  0  0  0  0  0  0  0  0  0  0  0
   43.7710   35.6300   40.5660 F   0  0  0  0  0  0  0  0  0  0  0  0
   43.7010   33.8470   41.9570 F   0  0  0  0  0  0  0  0  0  0  0  0
   48.1917   32.5671   43.9282 H   0  0  0  0  0  0  0  0  0  0  0  0
   45.3677   33.2996   47.0019 H   0  0  0  0  0  0  0  0  0  0  0  0
   48.7321   35.8382   42.6959 H   0  0  0  0  0  0  0  0  0  0  0  0
   47.7835   34.1674   38.9002 H   0  0  0  0  0  0  0  0  0  0  0  0
   46.2818   33.1290   40.7079 H   0  0  0  0  0  0  0  0  0  0  0  0
  1  6  2  0
  2  1  1  0
  2  3  2  0
  3  4  1  0
  4  5  2  0
  6  5  1  0
  7  2  1  0
  8  7  2  0
  9  8  1  0
 10  9  2  0
 10 11  1  0
 11  7  1  0
 12  1  1  0
 13 16  1  0
 13 14  1  0
 13 12  1  0
 15 13  1  0
  3 17  1  0
  5 18  1  0
  8 19  1  0
 10 20  1  0
 11 21  1  0
M  ISO  5  17  14  18  14  19  14  20  14  21   9
M  END
>  <minimizedAffinity>  (1) 
-4.47055817

>  <minimizedRMSD>  (1) 
1.6722393

$$$$
