
     RDKit          3D

 25 27  0  0  0  0  0  0  0  0999 V2000
   45.7130   33.0390   43.1470 C   0  0  0  0  0  0  0  0  0  0  0  0
   47.0470   33.0840   42.7890 C   0  0  0  0  0  0  0  0  0  0  0  0
   47.9340   32.3420   43.5830 C   0  0  0  0  0  0  0  0  0  0  0  0
   47.4440   31.6440   44.6260 N   0  0  0  0  0  0  0  0  0  0  0  0
   46.1370   31.6240   44.9460 C   0  0  0  0  0  0  0  0  0  0  0  0
   45.2640   32.3260   44.2000 N   0  0  0  0  0  0  0  0  0  0  0  0
   47.5760   33.8310   41.6710 C   0  0  0  0  0  0  0  0  0  0  0  0
   48.2980   35.0110   41.8380 C   0  0  0  0  0  0  0  0  0  0  0  0
   48.6680   35.4960   40.6570 N   0  0  0  0  0  0  0  0  0  0  0  0
   48.2220   34.6840   39.7000 C   0  0  0  0  0  0  0  0  0  0  0  0
   47.5700   33.6940   40.3370 N   0  0  0  0  0  0  0  0  0  0  0  0
   44.4740   33.9510   42.2030 S   0  0  0  0  0  0  0  0  0  0  0  0
   44.1240   35.5480   42.9720 C   0  0  0  0  0  0  0  0  0  0  0  0
   44.5390   35.7610   44.3770 C   0  0  0  0  0  0  0  0  0  0  0  0
   45.2150   36.5050   43.2520 C   0  0  0  0  0  0  0  0  0  0  0  0
   49.0107   32.3302   43.3580 H   0  0  0  0  0  0  0  0  0  0  0  0
   45.7855   31.0395   45.8090 H   0  0  0  0  0  0  0  0  0  0  0  0
   48.5288   35.4748   42.8084 H   0  0  0  0  0  0  0  0  0  0  0  0
   48.3583   34.7988   38.6145 H   0  0  0  0  0  0  0  0  0  0  0  0
   47.1127   32.9104   39.8494 H   0  0  0  0  0  0  0  0  0  0  0  0
   43.1779   35.6202   42.4156 H   0  0  0  0  0  0  0  0  0  0  0  0
   43.8765   36.2962   45.0732 H   0  0  0  0  0  0  0  0  0  0  0  0
   44.8757   35.1133   45.1999 H   0  0  0  0  0  0  0  0  0  0  0  0
   46.2499   36.2592   42.9715 H   0  0  0  0  0  0  0  0  0  0  0  0
   45.4054   37.5629   43.0183 H   0  0  0  0  0  0  0  0  0  0  0  0
  1  6  2  0
  2  1  1  0
  2  3  2  0
  3  4  1  0
  4  5  2  0
  6  5  1  0
  7  8  2  0
  7  2  1  0
  9  8  1  0
 10 11  1  0
 10  9  2  0
 11  7  1  0
 12 13  1  0
 12  1  1  0
 13 15  1  0
 13 14  1  0
 15 14  1  0
  3 16  1  0
  5 17  1  0
  8 18  1  0
 10 19  1  0
 11 20  1  0
 13 21  1  0
 14 22  1  0
 14 23  1  0
 15 24  1  0
 15 25  1  0
M  ISO  8  16  14  17  14  18  14  19  14  20   9  21  13  22  13  23  13
M  ISO  2  24  13  25  13
M  END
>  <minimizedAffinity>  (1) 
-3.50896859

>  <minimizedRMSD>  (1) 
1.72644186

$$$$
