
     RDKit          3D

 25 27  0  0  0  0  0  0  0  0999 V2000
   45.6680   34.8850   43.8920 C   0  0  0  0  0  0  0  0  0  0  0  0
   46.7560   34.2150   43.3720 C   0  0  0  0  0  0  0  0  0  0  0  0
   47.3100   33.1900   44.1750 C   0  0  0  0  0  0  0  0  0  0  0  0
   46.7550   32.9300   45.3770 N   0  0  0  0  0  0  0  0  0  0  0  0
   45.6950   33.6080   45.8450 C   0  0  0  0  0  0  0  0  0  0  0  0
   45.1330   34.6010   45.1020 N   0  0  0  0  0  0  0  0  0  0  0  0
   47.3640   34.4800   42.0860 C   0  0  0  0  0  0  0  0  0  0  0  0
   48.3830   35.4170   41.9280 C   0  0  0  0  0  0  0  0  0  0  0  0
   48.7670   35.4700   40.6580 N   0  0  0  0  0  0  0  0  0  0  0  0
   48.0330   34.5910   39.9550 C   0  0  0  0  0  0  0  0  0  0  0  0
   47.2050   34.0210   40.8510 N   0  0  0  0  0  0  0  0  0  0  0  0
   44.9040   36.2230   42.9710 S   0  0  0  0  0  0  0  0  0  0  0  0
   45.1870   39.3320   45.4140 N   0  0  0  0  0  0  0  0  0  0  0  0
   44.9360   38.0220   45.3050 N   0  0  0  0  0  0  0  0  0  0  0  0
   45.0500   37.6690   44.0090 C   0  0  0  0  0  0  0  0  0  0  0  0
   45.3860   38.8230   43.2990 C   0  0  0  0  0  0  0  0  0  0  0  0
   45.4740   39.8870   44.2040 C   0  0  0  0  0  0  0  0  0  0  0  0
   48.1794   32.6143   43.8248 H   0  0  0  0  0  0  0  0  0  0  0  0
   45.2788   33.3603   46.8327 H   0  0  0  0  0  0  0  0  0  0  0  0
   48.8085   36.0258   42.7393 H   0  0  0  0  0  0  0  0  0  0  0  0
   48.0953   34.3816   38.8769 H   0  0  0  0  0  0  0  0  0  0  0  0
   46.5147   33.2983   40.6018 H   0  0  0  0  0  0  0  0  0  0  0  0
   45.1658   39.8546   46.3013 H   0  0  0  0  0  0  0  0  0  0  0  0
   45.5531   38.8854   42.2136 H   0  0  0  0  0  0  0  0  0  0  0  0
   45.7200   40.9369   43.9865 H   0  0  0  0  0  0  0  0  0  0  0  0
  1  6  2  0
  2  1  1  0
  2  3  2  0
  3  4  1  0
  4  5  2  0
  6  5  1  0
  7  2  1  0
  8  7  2  0
  9  8  1  0
 10  9  2  0
 10 11  1  0
 11  7  1  0
 12  1  1  0
 12 15  1  0
 14 13  1  0
 15 14  2  0
 16 15  1  0
 16 17  2  0
 17 13  1  0
  3 18  1  0
  5 19  1  0
  8 20  1  0
 10 21  1  0
 11 22  1  0
 13 23  1  0
 16 24  1  0
 17 25  1  0
M  ISO  8  18  14  19  14  20  14  21  14  22   9  23   9  24  14  25  14
M  END
>  <minimizedAffinity>  (1) 
-3.78667569

>  <minimizedRMSD>  (1) 
0.969961226

$$$$
