
     RDKit          3D

 31 33  0  0  1  0  0  0  0  0999 V2000
   44.5780   35.8120   44.9090 C   0  0  0  0  0  0  0  0  0  0  0  0
   45.1700   35.7580   43.6140 C   0  0  0  0  0  0  0  0  0  0  0  0
   45.9650   34.6690   43.3280 C   0  0  0  0  0  0  0  0  0  0  0  0
   46.1430   33.7100   44.2860 N   0  0  0  0  0  0  0  0  0  0  0  0
   45.5670   33.8000   45.4890 C   0  0  0  0  0  0  0  0  0  0  0  0
   44.7930   34.8380   45.8010 N   0  0  0  0  0  0  0  0  0  0  0  0
   45.7840   32.7540   46.4850 N   0  0  0  0  0  0  0  0  0  0  0  0
   45.1580   32.8450   47.7810 C   0  0  0  0  0  0  0  0  0  0  0  0
   46.0250   32.3030   48.8840 C   0  0  0  0  0  0  0  0  0  0  0  0
   47.4360   32.1600   48.4030 C   0  0  0  0  0  0  0  0  0  0  0  0
   47.4160   31.1090   47.2980 C   0  0  0  0  0  0  0  0  0  0  0  0
   46.6390   31.6300   46.1420 C   0  0  1  0  0  0  0  0  0  0  0  0
   45.8670   30.5580   45.4250 C   0  0  0  0  0  0  0  0  0  0  0  0
   45.8360   30.3050   44.1120 N   0  0  0  0  0  0  0  0  0  0  0  0
   45.0700   29.2950   43.8380 O   0  0  0  0  0  0  0  0  0  0  0  0
   44.5840   28.8670   44.9890 C   0  0  0  0  0  0  0  0  0  0  0  0
   45.0510   29.6230   46.0150 N   0  0  0  0  0  0  0  0  0  0  0  0
   43.7050   27.7900   45.1840 O   0  0  0  0  0  0  0  0  0  0  0  0
   43.9368   36.6642   45.1786 H   0  0  0  0  0  0  0  0  0  0  0  0
   44.9995   36.5528   42.8729 H   0  0  0  0  0  0  0  0  0  0  0  0
   46.4485   34.5730   42.3446 H   0  0  0  0  0  0  0  0  0  0  0  0
   44.9392   33.9020   47.9926 H   0  0  0  0  0  0  0  0  0  0  0  0
   44.2412   32.2379   47.7504 H   0  0  0  0  0  0  0  0  0  0  0  0
   46.0001   32.9937   49.7397 H   0  0  0  0  0  0  0  0  0  0  0  0
   45.6460   31.3166   49.1896 H   0  0  0  0  0  0  0  0  0  0  0  0
   47.8011   33.1193   48.0076 H   0  0  0  0  0  0  0  0  0  0  0  0
   48.1058   31.8607   49.2226 H   0  0  0  0  0  0  0  0  0  0  0  0
   48.4460   30.8896   46.9802 H   0  0  0  0  0  0  0  0  0  0  0  0
   46.9474   30.1872   47.6730 H   0  0  0  0  0  0  0  0  0  0  0  0
   47.3967   32.0094   45.4406 H   0  0  0  0  0  0  0  0  0  0  0  0
   43.4034   27.5564   46.0975 H   0  0  0  0  0  0  0  0  0  0  0  0
  1  6  2  0
  2  1  1  0
  3  2  2  0
  3  4  1  0
  4  5  2  0
  5  6  1  0
  5  7  1  0
  7  8  1  0
  8  9  1  0
 10  9  1  0
 11 10  1  0
 12  7  1  0
 12 11  1  0
 13 17  1  0
 13 12  1  0
 14 13  2  0
 15 14  1  0
 15 16  1  0
 16 18  1  0
 16 17  2  0
  1 19  1  0
  2 20  1  0
  3 21  1  0
  8 22  1  0
  8 23  1  0
  9 24  1  0
  9 25  1  0
 10 26  1  0
 10 27  1  0
 11 28  1  0
 11 29  1  0
 12 30  1  6
 18 31  1  0
M  ISO  8  19  14  20  14  21  14  22  13  23  13  24  13  25  13  26  13
M  ISO  5  27  13  28  13  29  13  30  13  31   3
M  END
>  <minimizedAffinity>  (1) 
-5.07759428

>  <minimizedRMSD>  (1) 
0.0647968501

$$$$
