
     RDKit          3D

 46 49  0  0  1  0  0  0  0  0999 V2000
   42.3870   33.8770   39.2990 N   0  0  0  0  0  0  0  0  0  0  0  0
   42.9590   32.9860   40.2170 C   0  0  0  0  0  0  0  0  0  0  0  0
   43.4500   33.6090   41.4980 C   0  0  0  0  0  0  0  0  0  0  0  0
   43.7900   35.0630   41.3070 C   0  0  1  0  0  0  0  0  0  0  0  0
   42.4320   35.6920   40.9940 C   0  0  0  0  0  0  0  0  0  0  0  0
   41.9850   35.1710   39.6870 C   0  0  2  0  0  0  0  0  0  0  0  0
   40.5010   35.2780   39.4250 C   0  0  0  0  0  0  0  0  0  0  0  0
   39.6730   34.5800   40.5130 C   0  0  0  0  0  0  0  0  0  0  0  0
   38.4860   33.9920   39.7950 C   0  0  0  0  0  0  0  0  0  0  0  0
   39.1660   33.4820   38.5390 C   0  0  0  0  0  0  0  0  0  0  0  0
   39.9930   34.7030   38.1800 C   0  0  0  0  0  0  0  0  0  0  0  0
   44.5860   35.8000   42.6970 S   0  0  0  0  0  0  0  0  0  0  0  0
   45.5260   34.6920   43.7260 C   0  0  0  0  0  0  0  0  0  0  0  0
   46.7260   34.1070   43.2720 C   0  0  0  0  0  0  0  0  0  0  0  0
   47.3790   33.2490   44.1730 C   0  0  0  0  0  0  0  0  0  0  0  0
   46.8560   33.0260   45.3910 N   0  0  0  0  0  0  0  0  0  0  0  0
   45.7060   33.6030   45.7960 C   0  0  0  0  0  0  0  0  0  0  0  0
   45.0340   34.4360   44.9720 N   0  0  0  0  0  0  0  0  0  0  0  0
   47.3040   34.3350   41.9760 C   0  0  0  0  0  0  0  0  0  0  0  0
   48.2730   35.3280   41.7620 C   0  0  0  0  0  0  0  0  0  0  0  0
   48.6220   35.3110   40.4680 N   0  0  0  0  0  0  0  0  0  0  0  0
   47.9290   34.3600   39.8400 C   0  0  0  0  0  0  0  0  0  0  0  0
   47.1550   33.8040   40.7820 N   0  0  0  0  0  0  0  0  0  0  0  0
   41.5480   33.4112   38.9248 H   0  0  0  0  0  0  0  0  0  0  0  0
   42.2018   32.2308   40.4747 H   0  0  0  0  0  0  0  0  0  0  0  0
   43.8477   32.5677   39.7218 H   0  0  0  0  0  0  0  0  0  0  0  0
   42.6635   33.5228   42.2622 H   0  0  0  0  0  0  0  0  0  0  0  0
   44.3609   33.0792   41.8135 H   0  0  0  0  0  0  0  0  0  0  0  0
   44.5329   35.2160   40.5103 H   0  0  0  0  0  0  0  0  0  0  0  0
   41.7051   35.4206   41.7737 H   0  0  0  0  0  0  0  0  0  0  0  0
   42.5138   36.7885   40.9634 H   0  0  0  0  0  0  0  0  0  0  0  0
   42.5494   35.8787   39.0620 H   0  0  0  0  0  0  0  0  0  0  0  0
   40.3873   36.3715   39.3883 H   0  0  0  0  0  0  0  0  0  0  0  0
   40.2625   33.7869   40.9961 H   0  0  0  0  0  0  0  0  0  0  0  0
   39.3673   35.2781   41.3062 H   0  0  0  0  0  0  0  0  0  0  0  0
   38.0243   33.1756   40.3697 H   0  0  0  0  0  0  0  0  0  0  0  0
   37.6555   34.6921   39.6212 H   0  0  0  0  0  0  0  0  0  0  0  0
   39.7981   32.6052   38.7431 H   0  0  0  0  0  0  0  0  0  0  0  0
   38.4842   33.1329   37.7495 H   0  0  0  0  0  0  0  0  0  0  0  0
   40.8327   34.4096   37.5329 H   0  0  0  0  0  0  0  0  0  0  0  0
   39.3795   35.4381   37.6384 H   0  0  0  0  0  0  0  0  0  0  0  0
   48.3196   32.7591   43.8812 H   0  0  0  0  0  0  0  0  0  0  0  0
   45.3136   33.3942   46.8022 H   0  0  0  0  0  0  0  0  0  0  0  0
   48.6778   36.0061   42.5277 H   0  0  0  0  0  0  0  0  0  0  0  0
   47.9817   34.0896   38.7751 H   0  0  0  0  0  0  0  0  0  0  0  0
   46.5025   33.0309   40.5885 H   0  0  0  0  0  0  0  0  0  0  0  0
  1  6  1  0
  1  2  1  0
  2  3  1  0
  4  3  1  0
  4 12  1  0
  5  4  1  0
  6  5  1  0
  7  6  1  0
  7  8  1  0
  9  8  1  0
 10  9  1  0
 11 10  1  0
 11  7  1  0
 12 13  1  0
 13 18  2  0
 14 13  1  0
 14 15  2  0
 15 16  1  0
 16 17  2  0
 18 17  1  0
 19 14  1  0
 20 19  2  0
 21 20  1  0
 22 21  2  0
 22 23  1  0
 23 19  1  0
  1 24  1  0
  2 25  1  0
  2 26  1  0
  3 27  1  0
  3 28  1  0
  4 29  1  6
  5 30  1  0
  5 31  1  0
  6 32  1  6
  7 33  1  0
  8 34  1  0
  8 35  1  0
  9 36  1  0
  9 37  1  0
 10 38  1  0
 10 39  1  0
 11 40  1  0
 11 41  1  0
 15 42  1  0
 17 43  1  0
 20 44  1  0
 22 45  1  0
 23 46  1  0
M  ISO  8  24   5  25  13  26  13  27  13  28  13  29  13  30  13  31  13
M  ISO  8  32  13  33  13  34  13  35  13  36  13  37  13  38  13  39  13
M  ISO  7  40  13  41  13  42  14  43  14  44  14  45  14  46   9
M  END
>  <minimizedAffinity>  (1) 
-6.42921162

>  <minimizedRMSD>  (1) 
0.433993191

$$$$
