
     RDKit          3D

 49 53  0  0  1  0  0  0  0  0999 V2000
   43.4170   33.8720   38.5440 N   0  0  0  0  0  0  0  0  0  0  0  0
   44.1070   32.9760   39.3580 C   0  0  0  0  0  0  0  0  0  0  0  0
   44.2670   33.3900   40.8040 C   0  0  0  0  0  0  0  0  0  0  0  0
   44.2270   34.8860   40.9400 C   0  0  1  0  0  0  0  0  0  0  0  0
   42.8070   35.2400   40.5200 C   0  0  0  0  0  0  0  0  0  0  0  0
   42.6250   34.9010   39.1030 C   0  0  2  0  0  0  0  0  0  0  0  0
   41.2040   34.5000   38.9100 C   0  0  0  0  0  0  0  0  0  0  0  0
   40.4390   34.8990   37.8330 C   0  0  0  0  0  0  0  0  0  0  0  0
   39.1310   34.5510   37.6430 C   0  0  0  0  0  0  0  0  0  0  0  0
   38.4970   33.7440   38.5730 C   0  0  0  0  0  0  0  0  0  0  0  0
   39.2080   33.3100   39.6730 C   0  0  0  0  0  0  0  0  0  0  0  0
   38.5650   32.5050   40.5890 C   0  0  0  0  0  0  0  0  0  0  0  0
   39.2370   32.0430   41.7020 C   0  0  0  0  0  0  0  0  0  0  0  0
   40.5530   32.4070   41.8690 C   0  0  0  0  0  0  0  0  0  0  0  0
   41.1520   33.2140   40.9280 C   0  0  0  0  0  0  0  0  0  0  0  0
   40.5250   33.6980   39.8060 C   0  0  0  0  0  0  0  0  0  0  0  0
   44.6570   35.4940   42.5380 S   0  0  0  0  0  0  0  0  0  0  0  0
   45.6480   34.3820   43.5280 C   0  0  0  0  0  0  0  0  0  0  0  0
   46.9360   33.9870   43.1100 C   0  0  0  0  0  0  0  0  0  0  0  0
   47.6330   33.1110   43.9600 C   0  0  0  0  0  0  0  0  0  0  0  0
   47.0580   32.6950   45.1070 N   0  0  0  0  0  0  0  0  0  0  0  0
   45.8180   33.0940   45.4790 C   0  0  0  0  0  0  0  0  0  0  0  0
   45.1090   33.9330   44.6990 N   0  0  0  0  0  0  0  0  0  0  0  0
   47.5640   34.4260   41.8920 C   0  0  0  0  0  0  0  0  0  0  0  0
   48.4210   35.5370   41.8590 C   0  0  0  0  0  0  0  0  0  0  0  0
   48.8520   35.7080   40.6020 N   0  0  0  0  0  0  0  0  0  0  0  0
   48.3160   34.7640   39.8260 C   0  0  0  0  0  0  0  0  0  0  0  0
   47.5590   34.0260   40.6380 N   0  0  0  0  0  0  0  0  0  0  0  0
   42.7898   33.3078   37.9530 H   0  0  0  0  0  0  0  0  0  0  0  0
   43.5670   32.0178   39.3389 H   0  0  0  0  0  0  0  0  0  0  0  0
   45.1262   32.9231   38.9476 H   0  0  0  0  0  0  0  0  0  0  0  0
   43.4501   32.9523   41.3966 H   0  0  0  0  0  0  0  0  0  0  0  0
   45.2406   33.0295   41.1676 H   0  0  0  0  0  0  0  0  0  0  0  0
   44.9926   35.3695   40.3155 H   0  0  0  0  0  0  0  0  0  0  0  0
   42.0900   34.6706   41.1297 H   0  0  0  0  0  0  0  0  0  0  0  0
   42.6348   36.3163   40.6680 H   0  0  0  0  0  0  0  0  0  0  0  0
   42.9466   35.8132   38.5792 H   0  0  0  0  0  0  0  0  0  0  0  0
   40.9141   35.5405   37.0762 H   0  0  0  0  0  0  0  0  0  0  0  0
   38.5856   34.9094   36.7575 H   0  0  0  0  0  0  0  0  0  0  0  0
   37.4447   33.4540   38.4370 H   0  0  0  0  0  0  0  0  0  0  0  0
   37.5116   32.2298   40.4319 H   0  0  0  0  0  0  0  0  0  0  0  0
   38.7327   31.3993   42.4378 H   0  0  0  0  0  0  0  0  0  0  0  0
   41.1202   32.0574   42.7442 H   0  0  0  0  0  0  0  0  0  0  0  0
   42.2051   33.4901   41.0856 H   0  0  0  0  0  0  0  0  0  0  0  0
   48.6424   32.7664   43.6911 H   0  0  0  0  0  0  0  0  0  0  0  0
   45.3874   32.7307   46.4238 H   0  0  0  0  0  0  0  0  0  0  0  0
   48.6934   36.1630   42.7215 H   0  0  0  0  0  0  0  0  0  0  0  0
   48.4668   34.6244   38.7454 H   0  0  0  0  0  0  0  0  0  0  0  0
   47.0170   33.2130   40.3123 H   0  0  0  0  0  0  0  0  0  0  0  0
  1  6  1  0
  1  2  1  0
  2  3  1  0
  3  4  1  0
  4 17  1  0
  5  4  1  0
  6  5  1  0
  7  6  1  0
  7 16  1  0
  8  7  2  0
  9  8  1  0
  9 10  2  0
 10 11  1  0
 11 16  2  0
 11 12  1  0
 12 13  2  0
 13 14  1  0
 15 14  2  0
 16 15  1  0
 17 18  1  0
 18 23  2  0
 19 18  1  0
 19 20  2  0
 20 21  1  0
 21 22  2  0
 23 22  1  0
 24 19  1  0
 25 24  2  0
 26 25  1  0
 27 26  2  0
 27 28  1  0
 28 24  1  0
  1 29  1  0
  2 30  1  0
  2 31  1  0
  3 32  1  0
  3 33  1  0
  4 34  1  6
  5 35  1  0
  5 36  1  0
  6 37  1  6
  8 38  1  0
  9 39  1  0
 10 40  1  0
 12 41  1  0
 13 42  1  0
 14 43  1  0
 15 44  1  0
 20 45  1  0
 22 46  1  0
 25 47  1  0
 27 48  1  0
 28 49  1  0
M  ISO  8  29   5  30  13  31  13  32  13  33  13  34  13  35  13  36  13
M  ISO  8  37  13  38  14  39  14  40  14  41  14  42  14  43  14  44  14
M  ISO  5  45  14  46  14  47  14  48  14  49   9
M  END
>  <minimizedAffinity>  (1) 
-7.19808769

>  <minimizedRMSD>  (1) 
1.33375812

$$$$
