
     RDKit          3D

 43 46  0  0  1  0  0  0  0  0999 V2000
   43.1920   34.1020   38.7970 N   0  0  0  0  0  0  0  0  0  0  0  0
   44.0880   33.2630   39.4750 C   0  0  0  0  0  0  0  0  0  0  0  0
   44.3950   33.6470   40.8990 C   0  0  0  0  0  0  0  0  0  0  0  0
   44.1890   35.1320   41.1130 C   0  0  1  0  0  0  0  0  0  0  0  0
   42.6780   35.2780   40.9180 C   0  0  0  0  0  0  0  0  0  0  0  0
   42.3990   35.0310   39.4870 C   0  0  2  0  0  0  0  0  0  0  0  0
   40.9720   34.7060   39.3060 C   0  0  0  0  0  0  0  0  0  0  0  0
   40.0130   34.4890   40.2690 C   0  0  0  0  0  0  0  0  0  0  0  0
   38.6920   34.1920   40.0140 C   0  0  0  0  0  0  0  0  0  0  0  0
   38.2630   34.0970   38.7210 C   0  0  0  0  0  0  0  0  0  0  0  0
   39.1710   34.3030   37.6970 C   0  0  0  0  0  0  0  0  0  0  0  0
   40.4930   34.6000   37.9940 C   0  0  0  0  0  0  0  0  0  0  0  0
   44.7480   35.7100   42.6930 S   0  0  0  0  0  0  0  0  0  0  0  0
   45.6860   34.5390   43.6480 C   0  0  0  0  0  0  0  0  0  0  0  0
   46.9560   34.0940   43.2250 C   0  0  0  0  0  0  0  0  0  0  0  0
   47.6130   33.1670   44.0550 C   0  0  0  0  0  0  0  0  0  0  0  0
   47.0250   32.7500   45.1910 N   0  0  0  0  0  0  0  0  0  0  0  0
   45.7980   33.2020   45.5700 C   0  0  0  0  0  0  0  0  0  0  0  0
   45.1270   34.0870   44.8130 N   0  0  0  0  0  0  0  0  0  0  0  0
   47.6060   34.5260   42.0190 C   0  0  0  0  0  0  0  0  0  0  0  0
   48.4790   35.6240   42.0030 C   0  0  0  0  0  0  0  0  0  0  0  0
   48.9340   35.7910   40.7500 N   0  0  0  0  0  0  0  0  0  0  0  0
   48.3950   34.8570   39.9650 C   0  0  0  0  0  0  0  0  0  0  0  0
   47.6140   34.1300   40.7650 N   0  0  0  0  0  0  0  0  0  0  0  0
   43.7521   34.6416   38.1217 H   0  0  0  0  0  0  0  0  0  0  0  0
   43.6610   32.2493   39.4832 H   0  0  0  0  0  0  0  0  0  0  0  0
   45.0412   33.3421   38.9318 H   0  0  0  0  0  0  0  0  0  0  0  0
   43.7290   33.0897   41.5742 H   0  0  0  0  0  0  0  0  0  0  0  0
   45.4466   33.4033   41.1105 H   0  0  0  0  0  0  0  0  0  0  0  0
   44.7823   35.7510   40.4239 H   0  0  0  0  0  0  0  0  0  0  0  0
   42.1446   34.5432   41.5389 H   0  0  0  0  0  0  0  0  0  0  0  0
   42.3397   36.2815   41.2156 H   0  0  0  0  0  0  0  0  0  0  0  0
   42.6836   35.9838   39.0168 H   0  0  0  0  0  0  0  0  0  0  0  0
   40.3247   34.5579   41.3217 H   0  0  0  0  0  0  0  0  0  0  0  0
   37.9889   34.0328   40.8448 H   0  0  0  0  0  0  0  0  0  0  0  0
   37.2124   33.8605   38.4969 H   0  0  0  0  0  0  0  0  0  0  0  0
   38.8447   34.2313   36.6490 H   0  0  0  0  0  0  0  0  0  0  0  0
   41.1959   34.7592   37.1629 H   0  0  0  0  0  0  0  0  0  0  0  0
   48.6056   32.7839   43.7756 H   0  0  0  0  0  0  0  0  0  0  0  0
   45.3505   32.8386   46.5068 H   0  0  0  0  0  0  0  0  0  0  0  0
   48.7463   36.2444   42.8711 H   0  0  0  0  0  0  0  0  0  0  0  0
   48.5597   34.7163   38.8866 H   0  0  0  0  0  0  0  0  0  0  0  0
   47.0638   33.3266   40.4292 H   0  0  0  0  0  0  0  0  0  0  0  0
  1  2  1  0
  1  6  1  0
  2  3  1  0
  3  4  1  0
  4 13  1  0
  5  4  1  0
  6  5  1  0
  7  6  1  0
  7  8  2  0
  9  8  1  0
 10  9  2  0
 11 12  2  0
 11 10  1  0
 12  7  1  0
 13 14  1  0
 14 19  2  0
 15 14  1  0
 15 16  2  0
 16 17  1  0
 17 18  2  0
 19 18  1  0
 20 15  1  0
 21 20  2  0
 22 21  1  0
 23 22  2  0
 23 24  1  0
 24 20  1  0
  1 25  1  0
  2 26  1  0
  2 27  1  0
  3 28  1  0
  3 29  1  0
  4 30  1  6
  5 31  1  0
  5 32  1  0
  6 33  1  6
  8 34  1  0
  9 35  1  0
 10 36  1  0
 11 37  1  0
 12 38  1  0
 16 39  1  0
 18 40  1  0
 21 41  1  0
 23 42  1  0
 24 43  1  0
M  ISO  8  25   5  26  13  27  13  28  13  29  13  30  13  31  13  32  13
M  ISO  8  33  13  34  14  35  14  36  14  37  14  38  14  39  14  40  14
M  ISO  3  41  14  42  14  43   9
M  END
>  <minimizedAffinity>  (1) 
-6.52193642

>  <minimizedRMSD>  (1) 
1.06807947

$$$$
