
     RDKit          3D

 47 50  0  0  1  0  0  0  0  0999 V2000
   42.3480   34.3640   39.4650 N   0  0  0  0  0  0  0  0  0  0  0  0
   43.5810   33.7120   39.6420 C   0  0  0  0  0  0  0  0  0  0  0  0
   44.2930   34.0430   40.9360 C   0  0  0  0  0  0  0  0  0  0  0  0
   43.9200   35.4190   41.4220 C   0  0  1  0  0  0  0  0  0  0  0  0
   42.4400   35.2550   41.7720 C   0  0  0  0  0  0  0  0  0  0  0  0
   41.7150   35.0630   40.4770 C   0  0  2  0  0  0  0  0  0  0  0  0
   40.4060   34.5520   40.7820 N   0  0  0  0  0  0  0  0  0  0  0  0
   39.3170   35.0940   40.0630 C   0  0  0  0  0  0  0  0  0  0  0  0
   38.6790   34.0000   39.2070 C   0  0  0  0  0  0  0  0  0  0  0  0
   38.1940   32.9200   40.0280 N   0  0  0  0  0  0  0  0  0  0  0  0
   38.8440   32.8340   41.2970 C   0  0  0  0  0  0  0  0  0  0  0  0
   40.3320   33.1830   41.1530 C   0  0  0  0  0  0  0  0  0  0  0  0
   44.8900   35.9970   42.7960 S   0  0  0  0  0  0  0  0  0  0  0  0
   45.7430   34.7280   43.7070 C   0  0  0  0  0  0  0  0  0  0  0  0
   46.9470   34.1630   43.2410 C   0  0  0  0  0  0  0  0  0  0  0  0
   47.5320   33.1660   44.0440 C   0  0  0  0  0  0  0  0  0  0  0  0
   46.9400   32.7970   45.1940 N   0  0  0  0  0  0  0  0  0  0  0  0
   45.7770   33.3610   45.6180 C   0  0  0  0  0  0  0  0  0  0  0  0
   45.1740   34.3230   44.8840 N   0  0  0  0  0  0  0  0  0  0  0  0
   47.5980   34.5470   42.0180 C   0  0  0  0  0  0  0  0  0  0  0  0
   48.5180   35.6060   41.9770 C   0  0  0  0  0  0  0  0  0  0  0  0
   48.9600   35.7400   40.7160 N   0  0  0  0  0  0  0  0  0  0  0  0
   48.3700   34.8230   39.9490 C   0  0  0  0  0  0  0  0  0  0  0  0
   47.5680   34.1370   40.7680 N   0  0  0  0  0  0  0  0  0  0  0  0
   42.4907   35.0387   38.6999 H   0  0  0  0  0  0  0  0  0  0  0  0
   43.4011   32.6271   39.6180 H   0  0  0  0  0  0  0  0  0  0  0  0
   44.2357   34.0610   38.8298 H   0  0  0  0  0  0  0  0  0  0  0  0
   44.0121   33.3034   41.7003 H   0  0  0  0  0  0  0  0  0  0  0  0
   45.3777   34.0179   40.7549 H   0  0  0  0  0  0  0  0  0  0  0  0
   44.1144   36.1940   40.6660 H   0  0  0  0  0  0  0  0  0  0  0  0
   42.2980   34.3779   42.4205 H   0  0  0  0  0  0  0  0  0  0  0  0
   42.0600   36.1337   42.3138 H   0  0  0  0  0  0  0  0  0  0  0  0
   41.6719   36.0569   40.0076 H   0  0  0  0  0  0  0  0  0  0  0  0
   38.5716   35.4893   40.7687 H   0  0  0  0  0  0  0  0  0  0  0  0
   39.6736   35.9074   39.4139 H   0  0  0  0  0  0  0  0  0  0  0  0
   39.4298   33.6089   38.5046 H   0  0  0  0  0  0  0  0  0  0  0  0
   37.8290   34.4337   38.6599 H   0  0  0  0  0  0  0  0  0  0  0  0
   37.1857   33.0582   40.1867 H   0  0  0  0  0  0  0  0  0  0  0  0
   38.3711   33.5391   41.9964 H   0  0  0  0  0  0  0  0  0  0  0  0
   38.7508   31.8071   41.6801 H   0  0  0  0  0  0  0  0  0  0  0  0
   40.7931   32.5560   40.3757 H   0  0  0  0  0  0  0  0  0  0  0  0
   40.8692   33.0034   42.0959 H   0  0  0  0  0  0  0  0  0  0  0  0
   48.4726   32.6890   43.7313 H   0  0  0  0  0  0  0  0  0  0  0  0
   45.3239   33.0320   46.5648 H   0  0  0  0  0  0  0  0  0  0  0  0
   48.8255   36.2230   42.8342 H   0  0  0  0  0  0  0  0  0  0  0  0
   48.5133   34.6647   38.8699 H   0  0  0  0  0  0  0  0  0  0  0  0
   46.9778   33.3555   40.4489 H   0  0  0  0  0  0  0  0  0  0  0  0
  1  2  1  0
  1  6  1  0
  2  3  1  0
  3  4  1  0
  4  5  1  0
  4 13  1  0
  6  7  1  0
  6  5  1  0
  7 12  1  0
  8  7  1  0
  9 10  1  0
  9  8  1  0
 10 11  1  0
 12 11  1  0
 13 14  1  0
 14 19  2  0
 15 14  1  0
 15 16  2  0
 16 17  1  0
 17 18  2  0
 19 18  1  0
 20 15  1  0
 21 20  2  0
 22 21  1  0
 23 22  2  0
 23 24  1  0
 24 20  1  0
  1 25  1  0
  2 26  1  0
  2 27  1  0
  3 28  1  0
  3 29  1  0
  4 30  1  6
  5 31  1  0
  5 32  1  0
  6 33  1  6
  8 34  1  0
  8 35  1  0
  9 36  1  0
  9 37  1  0
 10 38  1  0
 11 39  1  0
 11 40  1  0
 12 41  1  0
 12 42  1  0
 16 43  1  0
 18 44  1  0
 21 45  1  0
 23 46  1  0
 24 47  1  0
M  ISO  8  25   5  26  13  27  13  28  13  29  13  30  13  31  13  32  13
M  ISO  8  33  13  34  13  35  13  36  13  37  13  38   5  39  13  40  13
M  ISO  7  41  13  42  13  43  14  44  14  45  14  46  14  47   9
M  END
>  <minimizedAffinity>  (1) 
-6.01067877

>  <minimizedRMSD>  (1) 
1.23154807

$$$$
