
     RDKit          3D

 45 47  0  0  1  0  0  0  0  0999 V2000
   42.6890   33.8110   39.1810 N   0  0  0  0  0  0  0  0  0  0  0  0
   43.3900   32.9390   40.0260 C   0  0  0  0  0  0  0  0  0  0  0  0
   43.8090   33.5250   41.3550 C   0  0  0  0  0  0  0  0  0  0  0  0
   43.9110   35.0240   41.2820 C   0  0  1  0  0  0  0  0  0  0  0  0
   42.4750   35.4720   41.0200 C   0  0  0  0  0  0  0  0  0  0  0  0
   42.0810   34.9590   39.6810 C   0  0  2  0  0  0  0  0  0  0  0  0
   40.5770   34.8050   39.5700 C   0  0  0  0  0  0  0  0  0  0  0  0
   39.8480   35.9040   40.3180 C   0  0  0  0  0  0  0  0  0  0  0  0
   40.0560   33.5050   40.0980 C   0  0  0  0  0  0  0  0  0  0  0  0
   40.1240   34.8900   38.1190 C   0  0  0  0  0  0  0  0  0  0  0  0
   44.6130   35.7740   42.7140 S   0  0  0  0  0  0  0  0  0  0  0  0
   45.5710   34.6890   43.7560 C   0  0  0  0  0  0  0  0  0  0  0  0
   46.7980   34.1640   43.3390 C   0  0  0  0  0  0  0  0  0  0  0  0
   47.4590   33.3200   44.2500 C   0  0  0  0  0  0  0  0  0  0  0  0
   46.9100   33.0570   45.4470 N   0  0  0  0  0  0  0  0  0  0  0  0
   45.7130   33.5890   45.8170 C   0  0  0  0  0  0  0  0  0  0  0  0
   45.0400   34.4010   44.9820 N   0  0  0  0  0  0  0  0  0  0  0  0
   47.4110   34.4320   42.0630 C   0  0  0  0  0  0  0  0  0  0  0  0
   48.3470   35.4650   41.9030 C   0  0  0  0  0  0  0  0  0  0  0  0
   48.7440   35.4820   40.6220 N   0  0  0  0  0  0  0  0  0  0  0  0
   48.1110   34.5160   39.9560 C   0  0  0  0  0  0  0  0  0  0  0  0
   47.3280   33.9160   40.8560 N   0  0  0  0  0  0  0  0  0  0  0  0
   41.9441   33.2542   38.7383 H   0  0  0  0  0  0  0  0  0  0  0  0
   42.7469   32.0692   40.2257 H   0  0  0  0  0  0  0  0  0  0  0  0
   44.3212   32.6866   39.4977 H   0  0  0  0  0  0  0  0  0  0  0  0
   43.0644   33.2530   42.1176 H   0  0  0  0  0  0  0  0  0  0  0  0
   44.7983   33.1214   41.6167 H   0  0  0  0  0  0  0  0  0  0  0  0
   44.6088   35.3415   40.4932 H   0  0  0  0  0  0  0  0  0  0  0  0
   41.8071   35.0601   41.7909 H   0  0  0  0  0  0  0  0  0  0  0  0
   42.4010   36.5691   41.0504 H   0  0  0  0  0  0  0  0  0  0  0  0
   42.4799   35.7575   39.0381 H   0  0  0  0  0  0  0  0  0  0  0  0
   39.9545   35.7434   41.4010 H   0  0  0  0  0  0  0  0  0  0  0  0
   40.2787   36.8794   40.0478 H   0  0  0  0  0  0  0  0  0  0  0  0
   38.7818   35.8865   40.0478 H   0  0  0  0  0  0  0  0  0  0  0  0
   40.0645   33.5261   41.1978 H   0  0  0  0  0  0  0  0  0  0  0  0
   39.0266   33.3508   39.7421 H   0  0  0  0  0  0  0  0  0  0  0  0
   40.6940   32.6826   39.7421 H   0  0  0  0  0  0  0  0  0  0  0  0
   39.0434   35.0928   38.0835 H   0  0  0  0  0  0  0  0  0  0  0  0
   40.6663   35.7021   37.6126 H   0  0  0  0  0  0  0  0  0  0  0  0
   40.3350   33.9366   37.6126 H   0  0  0  0  0  0  0  0  0  0  0  0
   48.4281   32.8743   43.9811 H   0  0  0  0  0  0  0  0  0  0  0  0
   45.2930   33.3532   46.8059 H   0  0  0  0  0  0  0  0  0  0  0  0
   48.6959   36.1453   42.6938 H   0  0  0  0  0  0  0  0  0  0  0  0
   48.2124   34.2659   38.8896 H   0  0  0  0  0  0  0  0  0  0  0  0
   46.7146   33.1212   40.6259 H   0  0  0  0  0  0  0  0  0  0  0  0
  1  6  1  0
  1  2  1  0
  2  3  1  0
  4  3  1  0
  4 11  1  0
  5  4  1  0
  6  5  1  0
  7  6  1  0
  7  9  1  0
  7  8  1  0
 10  7  1  0
 11 12  1  0
 12 17  2  0
 13 12  1  0
 13 14  2  0
 14 15  1  0
 15 16  2  0
 17 16  1  0
 18 13  1  0
 19 18  2  0
 20 19  1  0
 21 20  2  0
 21 22  1  0
 22 18  1  0
  1 23  1  0
  2 24  1  0
  2 25  1  0
  3 26  1  0
  3 27  1  0
  4 28  1  6
  5 29  1  0
  5 30  1  0
  6 31  1  6
  8 32  1  0
  8 33  1  0
  8 34  1  0
  9 35  1  0
  9 36  1  0
  9 37  1  0
 10 38  1  0
 10 39  1  0
 10 40  1  0
 14 41  1  0
 16 42  1  0
 19 43  1  0
 21 44  1  0
 22 45  1  0
M  ISO  8  23   5  24  13  25  13  26  13  27  13  28  13  29  13  30  13
M  ISO  8  31  13  32   8  33   8  34   8  35   8  36   8  37   8  38   8
M  ISO  7  39   8  40   8  41  14  42  14  43  14  44  14  45   9
M  END
>  <minimizedAffinity>  (1) 
-5.8269434

>  <minimizedRMSD>  (1) 
0.473699152

$$$$
