
     RDKit          3D

 40 43  0  0  1  0  0  0  0  0999 V2000
   41.9300   33.8050   39.6590 N   0  0  0  0  0  0  0  0  0  0  0  0
   42.7560   32.9580   40.4030 C   0  0  0  0  0  0  0  0  0  0  0  0
   43.4260   33.5940   41.6040 C   0  0  0  0  0  0  0  0  0  0  0  0
   43.5700   35.0810   41.4150 C   0  0  1  0  0  0  0  0  0  0  0  0
   42.1130   35.5510   41.4070 C   0  0  0  0  0  0  0  0  0  0  0  0
   41.4970   35.0420   40.1650 C   0  0  2  0  0  0  0  0  0  0  0  0
   39.9930   35.0230   40.3100 C   0  0  0  0  0  0  0  0  0  0  0  0
   39.1450   34.5010   39.2020 C   0  0  0  0  0  0  0  0  0  0  0  0
   39.2140   33.8130   40.5610 C   0  0  0  0  0  0  0  0  0  0  0  0
   44.5570   35.8750   42.6600 S   0  0  0  0  0  0  0  0  0  0  0  0
   45.4850   34.7690   43.7140 C   0  0  0  0  0  0  0  0  0  0  0  0
   46.6750   34.1640   43.2740 C   0  0  0  0  0  0  0  0  0  0  0  0
   47.3230   33.3120   44.1860 C   0  0  0  0  0  0  0  0  0  0  0  0
   46.7950   33.1120   45.4070 N   0  0  0  0  0  0  0  0  0  0  0  0
   45.6460   33.7110   45.7990 C   0  0  0  0  0  0  0  0  0  0  0  0
   44.9870   34.5350   44.9670 N   0  0  0  0  0  0  0  0  0  0  0  0
   47.2560   34.3690   41.9750 C   0  0  0  0  0  0  0  0  0  0  0  0
   48.2670   35.3170   41.7580 C   0  0  0  0  0  0  0  0  0  0  0  0
   48.6110   35.2860   40.4630 N   0  0  0  0  0  0  0  0  0  0  0  0
   47.8740   34.3680   39.8370 C   0  0  0  0  0  0  0  0  0  0  0  0
   47.0830   33.8480   40.7790 N   0  0  0  0  0  0  0  0  0  0  0  0
   41.0792   33.2655   39.4444 H   0  0  0  0  0  0  0  0  0  0  0  0
   42.1447   32.1167   40.7614 H   0  0  0  0  0  0  0  0  0  0  0  0
   43.5693   32.6568   39.7264 H   0  0  0  0  0  0  0  0  0  0  0  0
   42.8168   33.4022   42.4996 H   0  0  0  0  0  0  0  0  0  0  0  0
   44.4284   33.1560   41.7197 H   0  0  0  0  0  0  0  0  0  0  0  0
   44.1189   35.3416   40.4981 H   0  0  0  0  0  0  0  0  0  0  0  0
   41.5826   35.1493   42.2829 H   0  0  0  0  0  0  0  0  0  0  0  0
   42.0565   36.6487   41.4496 H   0  0  0  0  0  0  0  0  0  0  0  0
   41.8504   35.7598   39.4101 H   0  0  0  0  0  0  0  0  0  0  0  0
   40.0805   35.9745   40.8550 H   0  0  0  0  0  0  0  0  0  0  0  0
   38.2355   35.0395   38.8974 H   0  0  0  0  0  0  0  0  0  0  0  0
   39.3085   34.2017   38.1562 H   0  0  0  0  0  0  0  0  0  0  0  0
   39.7217   32.8424   40.6615 H   0  0  0  0  0  0  0  0  0  0  0  0
   38.4761   33.5044   41.3161 H   0  0  0  0  0  0  0  0  0  0  0  0
   48.2596   32.8102   43.9016 H   0  0  0  0  0  0  0  0  0  0  0  0
   45.2486   33.5216   46.8070 H   0  0  0  0  0  0  0  0  0  0  0  0
   48.7043   35.9757   42.5228 H   0  0  0  0  0  0  0  0  0  0  0  0
   47.9099   34.0967   38.7716 H   0  0  0  0  0  0  0  0  0  0  0  0
   46.3973   33.1040   40.5862 H   0  0  0  0  0  0  0  0  0  0  0  0
  1  6  1  0
  1  2  1  0
  2  3  1  0
  4  3  1  0
  4 10  1  0
  5  4  1  0
  6  7  1  0
  6  5  1  0
  7  9  1  0
  8  7  1  0
  8  9  1  0
 10 11  1  0
 11 16  2  0
 12 11  1  0
 12 13  2  0
 13 14  1  0
 14 15  2  0
 16 15  1  0
 17 12  1  0
 18 17  2  0
 19 18  1  0
 20 19  2  0
 20 21  1  0
 21 17  1  0
  1 22  1  0
  2 23  1  0
  2 24  1  0
  3 25  1  0
  3 26  1  0
  4 27  1  6
  5 28  1  0
  5 29  1  0
  6 30  1  6
  7 31  1  0
  8 32  1  0
  8 33  1  0
  9 34  1  0
  9 35  1  0
 13 36  1  0
 15 37  1  0
 18 38  1  0
 20 39  1  0
 21 40  1  0
M  ISO  8  22   5  23  13  24  13  25  13  26  13  27  13  28  13  29  13
M  ISO  8  30  13  31  13  32  13  33  13  34  13  35  13  36  14  37  14
M  ISO  3  38  14  39  14  40   9
M  END
>  <minimizedAffinity>  (1) 
-5.71289158

>  <minimizedRMSD>  (1) 
0.551891685

$$$$
