
     RDKit          3D

 36 38  0  0  1  0  0  0  0  0999 V2000
   41.4340   33.6140   39.8990 N   0  0  0  0  0  0  0  0  0  0  0  0
   42.6830   32.9930   40.0210 C   0  0  0  0  0  0  0  0  0  0  0  0
   43.6250   33.6110   41.0260 C   0  0  0  0  0  0  0  0  0  0  0  0
   43.2920   35.0570   41.2650 C   0  0  1  0  0  0  0  0  0  0  0  0
   41.9080   35.0020   41.9080 C   0  0  0  0  0  0  0  0  0  0  0  0
   40.9600   34.4890   40.8850 C   0  0  1  0  0  0  0  0  0  0  0  0
   40.3300   35.7080   40.2190 C   0  0  0  0  0  0  0  0  0  0  0  0
   40.9860   36.0520   39.0560 F   0  0  0  0  0  0  0  0  0  0  0  0
   39.0060   35.4580   39.8650 F   0  0  0  0  0  0  0  0  0  0  0  0
   40.3000   36.8100   41.0340 F   0  0  0  0  0  0  0  0  0  0  0  0
   44.4800   35.9190   42.2480 S   0  0  0  0  0  0  0  0  0  0  0  0
   45.3850   34.9230   43.4050 C   0  0  0  0  0  0  0  0  0  0  0  0
   46.6250   34.3550   43.0780 C   0  0  0  0  0  0  0  0  0  0  0  0
   47.2420   33.5880   44.0780 C   0  0  0  0  0  0  0  0  0  0  0  0
   46.6470   33.4280   45.2730 N   0  0  0  0  0  0  0  0  0  0  0  0
   45.4470   33.9900   45.5590 C   0  0  0  0  0  0  0  0  0  0  0  0
   44.8080   34.7380   44.6320 N   0  0  0  0  0  0  0  0  0  0  0  0
   47.2840   34.5170   41.8100 C   0  0  0  0  0  0  0  0  0  0  0  0
   48.3340   35.4310   41.6320 C   0  0  0  0  0  0  0  0  0  0  0  0
   48.7470   35.3640   40.3590 N   0  0  0  0  0  0  0  0  0  0  0  0
   48.0180   34.4560   39.7100 C   0  0  0  0  0  0  0  0  0  0  0  0
   47.1570   33.9760   40.6160 N   0  0  0  0  0  0  0  0  0  0  0  0
   41.4591   34.1504   39.0201 H   0  0  0  0  0  0  0  0  0  0  0  0
   42.5132   31.9469   40.3155 H   0  0  0  0  0  0  0  0  0  0  0  0
   43.1717   33.1066   39.0421 H   0  0  0  0  0  0  0  0  0  0  0  0
   43.5459   33.0627   41.9763 H   0  0  0  0  0  0  0  0  0  0  0  0
   44.6485   33.5504   40.6274 H   0  0  0  0  0  0  0  0  0  0  0  0
   43.3060   35.6388   40.3316 H   0  0  0  0  0  0  0  0  0  0  0  0
   41.9241   34.3275   42.7768 H   0  0  0  0  0  0  0  0  0  0  0  0
   41.6017   36.0002   42.2539 H   0  0  0  0  0  0  0  0  0  0  0  0
   40.2637   33.8464   41.4439 H   0  0  0  0  0  0  0  0  0  0  0  0
   48.2163   33.1158   43.8835 H   0  0  0  0  0  0  0  0  0  0  0  0
   44.9918   33.8368   46.5486 H   0  0  0  0  0  0  0  0  0  0  0  0
   48.7485   36.0917   42.4076 H   0  0  0  0  0  0  0  0  0  0  0  0
   48.1054   34.1630   38.6533 H   0  0  0  0  0  0  0  0  0  0  0  0
   46.4592   33.2501   40.3990 H   0  0  0  0  0  0  0  0  0  0  0  0
  1  2  1  0
  1  6  1  0
  2  3  1  0
  3  4  1  0
  4  5  1  0
  4 11  1  0
  6  5  1  0
  7  6  1  0
  7 10  1  0
  8  7  1  0
  9  7  1  0
 11 12  1  0
 12 17  2  0
 13 12  1  0
 13 14  2  0
 14 15  1  0
 15 16  2  0
 17 16  1  0
 18 13  1  0
 19 18  2  0
 20 19  1  0
 21 20  2  0
 21 22  1  0
 22 18  1  0
  1 23  1  0
  2 24  1  0
  2 25  1  0
  3 26  1  0
  3 27  1  0
  4 28  1  6
  5 29  1  0
  5 30  1  0
  6 31  1  1
 14 32  1  0
 16 33  1  0
 19 34  1  0
 21 35  1  0
 22 36  1  0
M  ISO  8  23   5  24  13  25  13  26  13  27  13  28  13  29  13  30  13
M  ISO  6  31  13  32  14  33  14  34  14  35  14  36   9
M  END
>  <minimizedAffinity>  (1) 
-5.83653975

>  <minimizedRMSD>  (1) 
1.08898413

$$$$
