
     RDKit          3D

 36 38  0  0  1  0  0  0  0  0999 V2000
   46.3540   31.2220   46.8510 C   0  0  2  0  0  0  0  0  0  0  0  0
   44.7640   35.0220   45.7220 C   0  0  0  0  0  0  0  0  0  0  0  0
   44.4400   35.6700   44.5410 C   0  0  0  0  0  0  0  0  0  0  0  0
   44.9430   35.1460   43.3410 C   0  0  0  0  0  0  0  0  0  0  0  0
   45.7220   34.0330   43.3910 N   0  0  0  0  0  0  0  0  0  0  0  0
   46.0290   33.4100   44.5700 C   0  0  0  0  0  0  0  0  0  0  0  0
   45.5420   33.9190   45.7110 N   0  0  0  0  0  0  0  0  0  0  0  0
   46.8390   32.2620   44.6540 N   0  0  0  0  0  0  0  0  0  0  0  0
   47.6290   32.0280   43.5700 C   0  0  0  0  0  0  0  0  0  0  0  0
   48.3420   30.8540   43.8870 C   0  0  0  0  0  0  0  0  0  0  0  0
   47.9560   30.4390   45.1310 N   0  0  0  0  0  0  0  0  0  0  0  0
   47.0390   31.3120   45.5740 C   0  0  0  0  0  0  0  0  0  0  0  0
   47.1890   32.0730   47.8520 C   0  0  0  0  0  0  0  0  0  0  0  0
   46.3490   29.8210   47.3720 C   0  0  0  0  0  0  0  0  0  0  0  0
   45.2900   29.0260   46.8580 N   0  0  0  0  0  0  0  0  0  0  0  0
   44.2540   29.4770   46.1490 N   0  0  0  0  0  0  0  0  0  0  0  0
   43.4610   28.4240   45.8410 C   0  0  0  0  0  0  0  0  0  0  0  0
   44.0130   27.2630   46.3720 C   0  0  0  0  0  0  0  0  0  0  0  0
   45.1780   27.6750   47.0140 C   0  0  0  0  0  0  0  0  0  0  0  0
   46.0790   26.7240   47.7240 C   0  0  0  0  0  0  0  0  0  0  0  0
   45.3143   31.5620   46.7351 H   0  0  0  0  0  0  0  0  0  0  0  0
   44.3834   35.4103   46.6782 H   0  0  0  0  0  0  0  0  0  0  0  0
   43.8066   36.5694   44.5443 H   0  0  0  0  0  0  0  0  0  0  0  0
   44.7117   35.6261   42.3787 H   0  0  0  0  0  0  0  0  0  0  0  0
   47.6962   32.6247   42.6483 H   0  0  0  0  0  0  0  0  0  0  0  0
   49.0825   30.3567   43.2433 H   0  0  0  0  0  0  0  0  0  0  0  0
   46.9186   31.7974   48.8820 H   0  0  0  0  0  0  0  0  0  0  0  0
   48.2603   31.8824   47.6906 H   0  0  0  0  0  0  0  0  0  0  0  0
   46.9781   33.1405   47.6906 H   0  0  0  0  0  0  0  0  0  0  0  0
   47.3034   29.3460   47.1009 H   0  0  0  0  0  0  0  0  0  0  0  0
   46.2062   29.8827   48.4609 H   0  0  0  0  0  0  0  0  0  0  0  0
   42.5273   28.4780   45.2620 H   0  0  0  0  0  0  0  0  0  0  0  0
   43.6151   26.2400   46.3003 H   0  0  0  0  0  0  0  0  0  0  0  0
   45.9608   26.8487   48.8105 H   0  0  0  0  0  0  0  0  0  0  0  0
   45.8187   25.6929   47.4428 H   0  0  0  0  0  0  0  0  0  0  0  0
   47.1226   26.9283   47.4428 H   0  0  0  0  0  0  0  0  0  0  0  0
  1 14  1  0
  1 13  1  0
  3  2  2  0
  4  5  2  0
  4  3  1  0
  5  6  1  0
  6  8  1  0
  6  7  2  0
  7  2  1  0
  8 12  1  0
  9 10  2  0
  9  8  1  0
 10 11  1  0
 11 12  2  0
 12  1  1  0
 15 19  1  0
 15 14  1  0
 16 15  1  0
 17 16  2  0
 17 18  1  0
 18 19  2  0
 19 20  1  0
  1 21  1  6
  2 22  1  0
  3 23  1  0
  4 24  1  0
  9 25  1  0
 10 26  1  0
 13 27  1  0
 13 28  1  0
 13 29  1  0
 14 30  1  0
 14 31  1  0
 17 32  1  0
 18 33  1  0
 20 34  1  0
 20 35  1  0
 20 36  1  0
M  ISO  8  21   8  22  14  23  14  24  14  25  14  26  14  27   8  28   8
M  ISO  8  29   8  30   8  31   8  32  14  33  14  34   8  35   8  36   8
M  END
>  <minimizedAffinity>  (1) 
-4.24223471

>  <minimizedRMSD>  (1) 
0.366858155

$$$$
