
     RDKit          3D

 40 43  0  0  1  0  0  0  0  0999 V2000
   41.9880   32.9370   39.7660 N   0  0  0  0  0  0  0  0  0  0  0  0
   42.7740   32.2030   40.6850 C   0  0  0  0  0  0  0  0  0  0  0  0
   43.3640   33.0170   41.8130 C   0  0  0  0  0  0  0  0  0  0  0  0
   43.4930   34.4650   41.4300 C   0  0  1  0  0  0  0  0  0  0  0  0
   42.0420   34.9080   41.2640 C   0  0  0  0  0  0  0  0  0  0  0  0
   41.4860   34.1960   40.1000 C   0  0  1  0  0  0  0  0  0  0  0  0
   41.5610   35.0860   38.9100 C   0  0  0  0  0  0  0  0  0  0  0  0
   40.7140   35.9820   38.2700 C   0  0  0  0  0  0  0  0  0  0  0  0
   41.3860   36.5150   37.1760 C   0  0  0  0  0  0  0  0  0  0  0  0
   42.5960   35.9480   37.1720 N   0  0  0  0  0  0  0  0  0  0  0  0
   42.7070   35.1100   38.1830 N   0  0  0  0  0  0  0  0  0  0  0  0
   44.3930   35.4500   42.6030 S   0  0  0  0  0  0  0  0  0  0  0  0
   45.4580   34.5370   43.6990 C   0  0  0  0  0  0  0  0  0  0  0  0
   46.7070   34.0570   43.2830 C   0  0  0  0  0  0  0  0  0  0  0  0
   47.4550   33.3510   44.2420 C   0  0  0  0  0  0  0  0  0  0  0  0
   46.9690   33.1640   45.4790 N   0  0  0  0  0  0  0  0  0  0  0  0
   45.7500   33.6470   45.8440 C   0  0  0  0  0  0  0  0  0  0  0  0
   44.9910   34.3310   44.9690 N   0  0  0  0  0  0  0  0  0  0  0  0
   47.2550   34.2470   41.9690 C   0  0  0  0  0  0  0  0  0  0  0  0
   48.1940   35.2550   41.7020 C   0  0  0  0  0  0  0  0  0  0  0  0
   48.5220   35.1950   40.4010 N   0  0  0  0  0  0  0  0  0  0  0  0
   47.8460   34.2060   39.8260 C   0  0  0  0  0  0  0  0  0  0  0  0
   47.1040   33.6660   40.7960 N   0  0  0  0  0  0  0  0  0  0  0  0
   41.1746   32.3474   39.5388 H   0  0  0  0  0  0  0  0  0  0  0  0
   42.1410   31.4184   41.1251 H   0  0  0  0  0  0  0  0  0  0  0  0
   43.6261   31.8068   40.1132 H   0  0  0  0  0  0  0  0  0  0  0  0
   42.7102   32.9359   42.6939 H   0  0  0  0  0  0  0  0  0  0  0  0
   44.3673   32.6256   42.0367 H   0  0  0  0  0  0  0  0  0  0  0  0
   44.0927   34.5991   40.5176 H   0  0  0  0  0  0  0  0  0  0  0  0
   41.4675   34.6550   42.1673 H   0  0  0  0  0  0  0  0  0  0  0  0
   41.9866   35.9961   41.1123 H   0  0  0  0  0  0  0  0  0  0  0  0
   40.4611   33.9624   40.4242 H   0  0  0  0  0  0  0  0  0  0  0  0
   39.6866   36.2278   38.5766 H   0  0  0  0  0  0  0  0  0  0  0  0
   40.9998   37.2541   36.4587 H   0  0  0  0  0  0  0  0  0  0  0  0
   43.3344   36.1382   36.4796 H   0  0  0  0  0  0  0  0  0  0  0  0
   48.4442   32.9497   43.9767 H   0  0  0  0  0  0  0  0  0  0  0  0
   45.3813   33.4761   46.8662 H   0  0  0  0  0  0  0  0  0  0  0  0
   48.5936   35.9724   42.4339 H   0  0  0  0  0  0  0  0  0  0  0  0
   47.8887   33.8967   38.7712 H   0  0  0  0  0  0  0  0  0  0  0  0
   46.4713   32.8681   40.6414 H   0  0  0  0  0  0  0  0  0  0  0  0
  1  6  1  0
  1  2  1  0
  2  3  1  0
  4  3  1  0
  4 12  1  0
  5  4  1  0
  6  5  1  0
  7  6  1  0
  8  7  1  0
  9  8  2  0
 10  9  1  0
 10 11  1  0
 11  7  2  0
 12 13  1  0
 13 18  2  0
 14 13  1  0
 14 15  2  0
 15 16  1  0
 16 17  2  0
 18 17  1  0
 19 14  1  0
 20 19  2  0
 21 20  1  0
 22 21  2  0
 22 23  1  0
 23 19  1  0
  1 24  1  0
  2 25  1  0
  2 26  1  0
  3 27  1  0
  3 28  1  0
  4 29  1  6
  5 30  1  0
  5 31  1  0
  6 32  1  1
  8 33  1  0
  9 34  1  0
 10 35  1  0
 15 36  1  0
 17 37  1  0
 20 38  1  0
 22 39  1  0
 23 40  1  0
M  ISO  8  24   5  25  13  26  13  27  13  28  13  29  13  30  13  31  13
M  ISO  8  32  13  33  14  34  14  35   9  36  14  37  14  38  14  39  14
M  ISO  1  40   9
M  END
>  <minimizedAffinity>  (1) 
-5.61281347

>  <minimizedRMSD>  (1) 
0.893070519

$$$$
