
     RDKit          3D

 40 43  0  0  1  0  0  0  0  0999 V2000
   42.0150   32.7100   39.7240 N   0  0  0  0  0  0  0  0  0  0  0  0
   42.8740   32.0410   40.6270 C   0  0  0  0  0  0  0  0  0  0  0  0
   43.4400   32.9040   41.7330 C   0  0  0  0  0  0  0  0  0  0  0  0
   43.4760   34.3540   41.3430 C   0  0  1  0  0  0  0  0  0  0  0  0
   41.9990   34.7040   41.2100 C   0  0  0  0  0  0  0  0  0  0  0  0
   41.4580   33.9520   40.0610 C   0  0  1  0  0  0  0  0  0  0  0  0
   41.4260   34.8610   38.8820 C   0  0  0  0  0  0  0  0  0  0  0  0
   40.3290   35.0230   38.0920 C   0  0  0  0  0  0  0  0  0  0  0  0
   40.6420   35.9100   37.1250 N   0  0  0  0  0  0  0  0  0  0  0  0
   41.9170   36.3120   37.2880 C   0  0  0  0  0  0  0  0  0  0  0  0
   42.3840   35.6710   38.3550 N   0  0  0  0  0  0  0  0  0  0  0  0
   44.3410   35.3850   42.5030 S   0  0  0  0  0  0  0  0  0  0  0  0
   45.4100   34.5310   43.6380 C   0  0  0  0  0  0  0  0  0  0  0  0
   46.6860   34.0810   43.2490 C   0  0  0  0  0  0  0  0  0  0  0  0
   47.4430   33.4200   44.2320 C   0  0  0  0  0  0  0  0  0  0  0  0
   46.9420   33.2460   45.4670 N   0  0  0  0  0  0  0  0  0  0  0  0
   45.7040   33.6950   45.8030 C   0  0  0  0  0  0  0  0  0  0  0  0
   44.9320   34.3370   44.8990 N   0  0  0  0  0  0  0  0  0  0  0  0
   47.2500   34.2580   41.9380 C   0  0  0  0  0  0  0  0  0  0  0  0
   48.1950   35.2600   41.6730 C   0  0  0  0  0  0  0  0  0  0  0  0
   48.5390   35.1870   40.3760 N   0  0  0  0  0  0  0  0  0  0  0  0
   47.8610   34.1890   39.8030 C   0  0  0  0  0  0  0  0  0  0  0  0
   47.1070   33.6660   40.7720 N   0  0  0  0  0  0  0  0  0  0  0  0
   41.2268   32.0732   39.5393 H   0  0  0  0  0  0  0  0  0  0  0  0
   42.3078   31.2201   41.0912 H   0  0  0  0  0  0  0  0  0  0  0  0
   43.7351   31.6988   40.0342 H   0  0  0  0  0  0  0  0  0  0  0  0
   42.8126   32.7914   42.6295 H   0  0  0  0  0  0  0  0  0  0  0  0
   44.4714   32.5762   41.9300 H   0  0  0  0  0  0  0  0  0  0  0  0
   44.0441   34.5283   40.4173 H   0  0  0  0  0  0  0  0  0  0  0  0
   41.4633   34.4208   42.1281 H   0  0  0  0  0  0  0  0  0  0  0  0
   41.8733   35.7857   41.0544 H   0  0  0  0  0  0  0  0  0  0  0  0
   40.4606   33.6372   40.4018 H   0  0  0  0  0  0  0  0  0  0  0  0
   39.3592   34.5197   38.2196 H   0  0  0  0  0  0  0  0  0  0  0  0
   42.4650   37.0305   36.6607 H   0  0  0  0  0  0  0  0  0  0  0  0
   43.3377   35.7732   38.7303 H   0  0  0  0  0  0  0  0  0  0  0  0
   48.4480   33.0442   43.9898 H   0  0  0  0  0  0  0  0  0  0  0  0
   45.3260   33.5337   46.8233 H   0  0  0  0  0  0  0  0  0  0  0  0
   48.5879   35.9830   42.4030 H   0  0  0  0  0  0  0  0  0  0  0  0
   47.9132   33.8660   38.7528 H   0  0  0  0  0  0  0  0  0  0  0  0
   46.4705   32.8705   40.6206 H   0  0  0  0  0  0  0  0  0  0  0  0
  1  6  1  0
  1  2  1  0
  2  3  1  0
  4  3  1  0
  4 12  1  0
  5  4  1  0
  6  5  1  0
  7  6  1  0
  8  7  2  0
  9 10  2  0
  9  8  1  0
 10 11  1  0
 11  7  1  0
 12 13  1  0
 13 18  2  0
 14 13  1  0
 14 15  2  0
 15 16  1  0
 16 17  2  0
 18 17  1  0
 19 14  1  0
 20 19  2  0
 21 20  1  0
 22 21  2  0
 22 23  1  0
 23 19  1  0
  1 24  1  0
  2 25  1  0
  2 26  1  0
  3 27  1  0
  3 28  1  0
  4 29  1  6
  5 30  1  0
  5 31  1  0
  6 32  1  1
  8 33  1  0
 10 34  1  0
 11 35  1  0
 15 36  1  0
 17 37  1  0
 20 38  1  0
 22 39  1  0
 23 40  1  0
M  ISO  8  24   5  25  13  26  13  27  13  28  13  29  13  30  13  31  13
M  ISO  8  32  13  33  14  34  14  35   9  36  14  37  14  38  14  39  14
M  ISO  1  40   9
M  END
>  <minimizedAffinity>  (1) 
-5.25938416

>  <minimizedRMSD>  (1) 
1.0401057

$$$$
