
     RDKit          3D

 49 52  0  0  1  0  0  0  0  0999 V2000
   42.2010   31.6780   39.5450 N   0  0  0  0  0  0  0  0  0  0  0  0
   43.5570   31.4250   39.8050 C   0  0  0  0  0  0  0  0  0  0  0  0
   44.2060   32.3690   40.7940 C   0  0  0  0  0  0  0  0  0  0  0  0
   43.5000   33.6970   40.8380 C   0  0  1  0  0  0  0  0  0  0  0  0
   42.1270   33.3440   41.3930 C   0  0  0  0  0  0  0  0  0  0  0  0
   41.4400   32.4700   40.4270 C   0  0  1  0  0  0  0  0  0  0  0  0
   40.4040   33.2280   39.5940 C   0  0  0  0  0  0  0  0  0  0  0  0
   40.9050   33.5850   38.2210 C   0  0  0  0  0  0  0  0  0  0  0  0
   39.9320   34.6350   37.6960 C   0  0  0  0  0  0  0  0  0  0  0  0
   38.5510   34.0660   37.6020 C   0  0  0  0  0  0  0  0  0  0  0  0
   38.1060   33.5680   38.9730 C   0  0  0  0  0  0  0  0  0  0  0  0
   39.1020   32.5100   39.4680 C   0  0  0  0  0  0  0  0  0  0  0  0
   44.3410   34.9250   41.7990 S   0  0  0  0  0  0  0  0  0  0  0  0
   45.4420   34.3040   43.0390 C   0  0  0  0  0  0  0  0  0  0  0  0
   46.8110   34.0870   42.7770 C   0  0  0  0  0  0  0  0  0  0  0  0
   47.5850   33.5910   43.8410 C   0  0  0  0  0  0  0  0  0  0  0  0
   47.0180   33.3490   45.0330 N   0  0  0  0  0  0  0  0  0  0  0  0
   45.6940   33.5700   45.2530 C   0  0  0  0  0  0  0  0  0  0  0  0
   44.9040   34.0440   44.2690 N   0  0  0  0  0  0  0  0  0  0  0  0
   47.4430   34.3420   41.5100 C   0  0  0  0  0  0  0  0  0  0  0  0
   48.3790   35.3750   41.3470 C   0  0  0  0  0  0  0  0  0  0  0  0
   48.7960   35.3770   40.0740 N   0  0  0  0  0  0  0  0  0  0  0  0
   48.1770   34.3980   39.4110 C   0  0  0  0  0  0  0  0  0  0  0  0
   47.3810   33.8090   40.3080 N   0  0  0  0  0  0  0  0  0  0  0  0
   42.1577   32.1371   38.6240 H   0  0  0  0  0  0  0  0  0  0  0  0
   43.6433   30.4028   40.2020 H   0  0  0  0  0  0  0  0  0  0  0  0
   44.0849   31.5692   38.8508 H   0  0  0  0  0  0  0  0  0  0  0  0
   44.1739   31.9144   41.7951 H   0  0  0  0  0  0  0  0  0  0  0  0
   45.2441   32.5419   40.4739 H   0  0  0  0  0  0  0  0  0  0  0  0
   43.4525   34.1726   39.8473 H   0  0  0  0  0  0  0  0  0  0  0  0
   42.2392   32.8190   42.3531 H   0  0  0  0  0  0  0  0  0  0  0  0
   41.5400   34.2602   41.5543 H   0  0  0  0  0  0  0  0  0  0  0  0
   40.9904   31.7520   41.1287 H   0  0  0  0  0  0  0  0  0  0  0  0
   40.2317   34.1545   40.1614 H   0  0  0  0  0  0  0  0  0  0  0  0
   41.9230   33.9978   38.2780 H   0  0  0  0  0  0  0  0  0  0  0  0
   40.9536   32.7059   37.5616 H   0  0  0  0  0  0  0  0  0  0  0  0
   39.9235   35.4958   38.3808 H   0  0  0  0  0  0  0  0  0  0  0  0
   40.2561   34.9523   36.6939 H   0  0  0  0  0  0  0  0  0  0  0  0
   37.8574   34.8453   37.2532 H   0  0  0  0  0  0  0  0  0  0  0  0
   38.5505   33.2262   36.8915 H   0  0  0  0  0  0  0  0  0  0  0  0
   38.0802   34.4098   39.6806 H   0  0  0  0  0  0  0  0  0  0  0  0
   37.1010   33.1268   38.8999 H   0  0  0  0  0  0  0  0  0  0  0  0
   38.7865   32.1091   40.4426 H   0  0  0  0  0  0  0  0  0  0  0  0
   39.1690   31.6543   38.7801 H   0  0  0  0  0  0  0  0  0  0  0  0
   48.6587   33.4007   43.6958 H   0  0  0  0  0  0  0  0  0  0  0  0
   45.2639   33.3599   46.2434 H   0  0  0  0  0  0  0  0  0  0  0  0
   48.7142   36.0674   42.1333 H   0  0  0  0  0  0  0  0  0  0  0  0
   48.2968   34.1322   38.3503 H   0  0  0  0  0  0  0  0  0  0  0  0
   46.7732   33.0094   40.0794 H   0  0  0  0  0  0  0  0  0  0  0  0
  1  2  1  0
  1  6  1  0
  2  3  1  0
  3  4  1  0
  4  5  1  0
  4 13  1  0
  6  5  1  0
  7  6  1  0
  8  7  1  0
  9  8  1  0
 10  9  1  0
 10 11  1  0
 11 12  1  0
 12  7  1  0
 13 14  1  0
 14 19  2  0
 15 14  1  0
 15 16  2  0
 16 17  1  0
 17 18  2  0
 19 18  1  0
 20 15  1  0
 21 20  2  0
 22 21  1  0
 23 22  2  0
 23 24  1  0
 24 20  1  0
  1 25  1  0
  2 26  1  0
  2 27  1  0
  3 28  1  0
  3 29  1  0
  4 30  1  6
  5 31  1  0
  5 32  1  0
  6 33  1  1
  7 34  1  0
  8 35  1  0
  8 36  1  0
  9 37  1  0
  9 38  1  0
 10 39  1  0
 10 40  1  0
 11 41  1  0
 11 42  1  0
 12 43  1  0
 12 44  1  0
 16 45  1  0
 18 46  1  0
 21 47  1  0
 23 48  1  0
 24 49  1  0
M  ISO  8  25   5  26  13  27  13  28  13  29  13  30  13  31  13  32  13
M  ISO  8  33  13  34  13  35  13  36  13  37  13  38  13  39  13  40  13
M  ISO  8  41  13  42  13  43  13  44  13  45  14  46  14  47  14  48  14
M  ISO  1  49   9
M  END
>  <minimizedAffinity>  (1) 
-5.38169956

>  <minimizedRMSD>  (1) 
2.32358384

$$$$
