
     RDKit          3D

 46 50  0  0  1  0  0  0  0  0999 V2000
   42.5300   31.0830   41.2720 N   0  0  0  0  0  0  0  0  0  0  0  0
   43.2680   29.9450   41.6190 C   0  0  0  0  0  0  0  0  0  0  0  0
   44.6110   30.2050   42.2580 C   0  0  0  0  0  0  0  0  0  0  0  0
   45.1460   31.5540   41.8630 C   0  0  1  0  0  0  0  0  0  0  0  0
   44.1490   32.5280   42.4870 C   0  0  0  0  0  0  0  0  0  0  0  0
   42.8500   32.3360   41.8170 C   0  0  1  0  0  0  0  0  0  0  0  0
   42.6760   33.3760   40.8170 N   0  0  0  0  0  0  0  0  0  0  0  0
   43.4150   34.4720   40.5640 C   0  0  0  0  0  0  0  0  0  0  0  0
   42.9020   35.1800   39.5400 N   0  0  0  0  0  0  0  0  0  0  0  0
   41.7990   34.5500   39.0980 C   0  0  0  0  0  0  0  0  0  0  0  0
   40.8620   34.7720   38.1060 C   0  0  0  0  0  0  0  0  0  0  0  0
   39.8280   33.9230   37.9010 N   0  0  0  0  0  0  0  0  0  0  0  0
   39.7340   32.8470   38.6980 C   0  0  0  0  0  0  0  0  0  0  0  0
   40.6290   32.5990   39.6750 N   0  0  0  0  0  0  0  0  0  0  0  0
   41.6690   33.4320   39.8970 C   0  0  0  0  0  0  0  0  0  0  0  0
   41.0420   35.9530   37.2970 N   0  0  0  0  0  0  0  0  0  0  0  0
   46.8120   31.8490   42.3760 S   0  0  0  0  0  0  0  0  0  0  0  0
   48.0700   31.3710   41.2140 C   0  0  0  0  0  0  0  0  0  0  0  0
   49.0570   32.2760   40.7850 C   0  0  0  0  0  0  0  0  0  0  0  0
   49.9950   31.7790   39.8650 C   0  0  0  0  0  0  0  0  0  0  0  0
   49.9180   30.5040   39.4460 N   0  0  0  0  0  0  0  0  0  0  0  0
   48.9560   29.6630   39.8810 C   0  0  0  0  0  0  0  0  0  0  0  0
   48.0270   30.0850   40.7640 N   0  0  0  0  0  0  0  0  0  0  0  0
   49.1590   33.6410   41.2230 C   0  0  0  0  0  0  0  0  0  0  0  0
   49.8900   33.9980   42.3670 C   0  0  0  0  0  0  0  0  0  0  0  0
   49.8080   35.3260   42.5300 N   0  0  0  0  0  0  0  0  0  0  0  0
   49.0610   35.8400   41.5510 C   0  0  0  0  0  0  0  0  0  0  0  0
   48.6970   34.7970   40.7960 N   0  0  0  0  0  0  0  0  0  0  0  0
   42.6014   31.1798   40.2490 H   0  0  0  0  0  0  0  0  0  0  0  0
   42.6663   29.3545   42.3255 H   0  0  0  0  0  0  0  0  0  0  0  0
   43.4817   29.4263   40.6728 H   0  0  0  0  0  0  0  0  0  0  0  0
   44.5016   30.1681   43.3519 H   0  0  0  0  0  0  0  0  0  0  0  0
   45.3168   29.4346   41.9140 H   0  0  0  0  0  0  0  0  0  0  0  0
   45.2213   31.6588   40.7706 H   0  0  0  0  0  0  0  0  0  0  0  0
   44.0488   32.3225   43.5630 H   0  0  0  0  0  0  0  0  0  0  0  0
   44.4957   33.5645   42.3621 H   0  0  0  0  0  0  0  0  0  0  0  0
   42.1351   32.3989   42.6506 H   0  0  0  0  0  0  0  0  0  0  0  0
   44.3207   34.7530   41.1215 H   0  0  0  0  0  0  0  0  0  0  0  0
   38.9001   32.1453   38.5491 H   0  0  0  0  0  0  0  0  0  0  0  0
   40.3736   36.1677   36.5433 H   0  0  0  0  0  0  0  0  0  0  0  0
   41.8389   36.5814   37.4731 H   0  0  0  0  0  0  0  0  0  0  0  0
   50.7937   32.4341   39.4869 H   0  0  0  0  0  0  0  0  0  0  0  0
   48.9292   28.6267   39.5132 H   0  0  0  0  0  0  0  0  0  0  0  0
   50.4386   33.3038   43.0206 H   0  0  0  0  0  0  0  0  0  0  0  0
   48.7997   36.8974   41.3972 H   0  0  0  0  0  0  0  0  0  0  0  0
   48.1081   34.8904   39.9561 H   0  0  0  0  0  0  0  0  0  0  0  0
  1  2  1  0
  1  6  1  0
  2  3  1  0
  4  3  1  0
  4 17  1  0
  4  5  1  0
  6  5  1  0
  7  6  1  0
  8  7  1  0
  9  8  2  0
 10  9  1  0
 10 15  2  0
 11 10  1  0
 12 11  2  0
 12 13  1  0
 13 14  2  0
 14 15  1  0
 15  7  1  0
 16 11  1  0
 18 17  1  0
 19 18  1  0
 19 24  1  0
 20 19  2  0
 21 20  1  0
 21 22  2  0
 22 23  1  0
 23 18  2  0
 24 25  2  0
 25 26  1  0
 27 26  2  0
 28 24  1  0
 28 27  1  0
  1 29  1  0
  2 30  1  0
  2 31  1  0
  3 32  1  0
  3 33  1  0
  4 34  1  6
  5 35  1  0
  5 36  1  0
  6 37  1  1
  8 38  1  0
 13 39  1  0
 16 40  1  0
 16 41  1  0
 20 42  1  0
 22 43  1  0
 25 44  1  0
 27 45  1  0
 28 46  1  0
M  ISO  8  29   5  30  13  31  13  32  13  33  13  34  13  35  13  36  13
M  ISO  8  37  13  38  14  39  14  42  14  43  14  44  14  45  14  46   9
M  END
>  <minimizedAffinity>  (1) 
-5.25026131

>  <minimizedRMSD>  (1) 
4.12721729

$$$$
