
     RDKit          3D

 34 36  0  0  1  0  0  0  0  0999 V2000
   44.5440   35.8300   42.6390 S   0  0  0  0  0  0  0  0  0  0  0  0
   41.8040   33.6650   39.8090 N   0  0  0  0  0  0  0  0  0  0  0  0
   42.7850   32.8510   40.4270 C   0  0  0  0  0  0  0  0  0  0  0  0
   43.5170   33.5080   41.5760 C   0  0  0  0  0  0  0  0  0  0  0  0
   43.5050   35.0030   41.4560 C   0  0  1  0  0  0  0  0  0  0  0  0
   42.0370   35.3630   41.6060 C   0  0  0  0  0  0  0  0  0  0  0  0
   41.3000   34.7860   40.4650 C   0  0  1  0  0  0  0  0  0  0  0  0
   41.0600   35.7970   39.5050 O   0  0  0  0  0  0  0  0  0  0  0  0
   45.4900   34.7520   43.7030 C   0  0  0  0  0  0  0  0  0  0  0  0
   46.6850   34.1710   43.2810 C   0  0  0  0  0  0  0  0  0  0  0  0
   47.3340   33.3440   44.2090 C   0  0  0  0  0  0  0  0  0  0  0  0
   46.8150   33.1400   45.4250 N   0  0  0  0  0  0  0  0  0  0  0  0
   45.6530   33.7180   45.8070 C   0  0  0  0  0  0  0  0  0  0  0  0
   44.9820   34.5260   44.9550 N   0  0  0  0  0  0  0  0  0  0  0  0
   47.2780   34.3740   41.9820 C   0  0  0  0  0  0  0  0  0  0  0  0
   48.2760   35.3380   41.7750 C   0  0  0  0  0  0  0  0  0  0  0  0
   48.6330   35.3050   40.4820 N   0  0  0  0  0  0  0  0  0  0  0  0
   47.9150   34.3720   39.8570 C   0  0  0  0  0  0  0  0  0  0  0  0
   47.1230   33.8450   40.7870 N   0  0  0  0  0  0  0  0  0  0  0  0
   42.2125   33.9994   38.9246 H   0  0  0  0  0  0  0  0  0  0  0  0
   42.2891   31.9464   40.8088 H   0  0  0  0  0  0  0  0  0  0  0  0
   43.5415   32.6369   39.6577 H   0  0  0  0  0  0  0  0  0  0  0  0
   43.0299   33.2218   42.5198 H   0  0  0  0  0  0  0  0  0  0  0  0
   44.5635   33.1697   41.5555 H   0  0  0  0  0  0  0  0  0  0  0  0
   43.9298   35.3376   40.4981 H   0  0  0  0  0  0  0  0  0  0  0  0
   41.6470   34.9500   42.5480 H   0  0  0  0  0  0  0  0  0  0  0  0
   41.9144   36.4560   41.6229 H   0  0  0  0  0  0  0  0  0  0  0  0
   40.3975   34.3932   40.9561 H   0  0  0  0  0  0  0  0  0  0  0  0
   40.8577   36.6491   39.9666 H   0  0  0  0  0  0  0  0  0  0  0  0
   48.2812   32.8572   43.9338 H   0  0  0  0  0  0  0  0  0  0  0  0
   45.2525   33.5301   46.8141 H   0  0  0  0  0  0  0  0  0  0  0  0
   48.6944   36.0067   42.5417 H   0  0  0  0  0  0  0  0  0  0  0  0
   47.9666   34.0954   38.7936 H   0  0  0  0  0  0  0  0  0  0  0  0
   46.4495   33.0912   40.5896 H   0  0  0  0  0  0  0  0  0  0  0  0
  1  9  1  0
  2  3  1  0
  2  7  1  0
  3  4  1  0
  5  4  1  0
  5  6  1  0
  5  1  1  0
  7  6  1  0
  8  7  1  0
  9 14  2  0
 10  9  1  0
 10 11  2  0
 11 12  1  0
 12 13  2  0
 14 13  1  0
 15 10  1  0
 16 15  2  0
 17 16  1  0
 18 17  2  0
 18 19  1  0
 19 15  1  0
  2 20  1  0
  3 21  1  0
  3 22  1  0
  4 23  1  0
  4 24  1  0
  5 25  1  6
  6 26  1  0
  6 27  1  0
  7 28  1  1
  8 29  1  0
 11 30  1  0
 13 31  1  0
 16 32  1  0
 18 33  1  0
 19 34  1  0
M  ISO  8  20   5  21  13  22  13  23  13  24  13  25  13  26  13  27  13
M  ISO  7  28  13  29   3  30  14  31  14  32  14  33  14  34   9
M  END
>  <minimizedAffinity>  (1) 
-4.93449783

>  <minimizedRMSD>  (1) 
0.362096816

$$$$
