
     RDKit          3D

 31 33  0  0  1  0  0  0  0  0999 V2000
   44.5790   35.8120   44.8990 C   0  0  0  0  0  0  0  0  0  0  0  0
   45.1820   35.7480   43.5990 C   0  0  0  0  0  0  0  0  0  0  0  0
   45.9770   34.6550   43.3180 C   0  0  0  0  0  0  0  0  0  0  0  0
   46.1410   33.7040   44.2880 N   0  0  0  0  0  0  0  0  0  0  0  0
   45.5640   33.8000   45.4850 C   0  0  0  0  0  0  0  0  0  0  0  0
   44.7890   34.8420   45.7930 N   0  0  0  0  0  0  0  0  0  0  0  0
   45.7790   32.7570   46.4860 N   0  0  0  0  0  0  0  0  0  0  0  0
   45.1570   32.8450   47.7910 C   0  0  0  0  0  0  0  0  0  0  0  0
   46.0250   32.3030   48.8830 C   0  0  0  0  0  0  0  0  0  0  0  0
   47.4410   32.1760   48.3990 C   0  0  0  0  0  0  0  0  0  0  0  0
   47.4240   31.1200   47.2990 C   0  0  0  0  0  0  0  0  0  0  0  0
   46.6310   31.6290   46.1500 C   0  0  1  0  0  0  0  0  0  0  0  0
   45.8660   30.5610   45.4290 C   0  0  0  0  0  0  0  0  0  0  0  0
   45.8270   30.3030   44.1220 N   0  0  0  0  0  0  0  0  0  0  0  0
   45.0630   29.2850   43.8560 O   0  0  0  0  0  0  0  0  0  0  0  0
   44.5840   28.8590   45.0100 C   0  0  0  0  0  0  0  0  0  0  0  0
   45.0600   29.6260   46.0120 N   0  0  0  0  0  0  0  0  0  0  0  0
   43.4760   27.4580   45.0950 S   0  0  0  0  0  0  0  0  0  0  0  0
   43.9385   36.6668   45.1618 H   0  0  0  0  0  0  0  0  0  0  0  0
   45.0171   36.5402   42.8539 H   0  0  0  0  0  0  0  0  0  0  0  0
   46.4666   34.5511   42.3384 H   0  0  0  0  0  0  0  0  0  0  0  0
   44.9392   33.9015   48.0064 H   0  0  0  0  0  0  0  0  0  0  0  0
   44.2402   32.2377   47.7634 H   0  0  0  0  0  0  0  0  0  0  0  0
   45.9946   32.9856   49.7451 H   0  0  0  0  0  0  0  0  0  0  0  0
   45.6546   31.3106   49.1794 H   0  0  0  0  0  0  0  0  0  0  0  0
   47.7943   33.1376   47.9984 H   0  0  0  0  0  0  0  0  0  0  0  0
   48.1191   31.8907   49.2168 H   0  0  0  0  0  0  0  0  0  0  0  0
   48.4535   30.9112   46.9726 H   0  0  0  0  0  0  0  0  0  0  0  0
   46.9708   30.1934   47.6812 H   0  0  0  0  0  0  0  0  0  0  0  0
   47.3885   32.0041   45.4461 H   0  0  0  0  0  0  0  0  0  0  0  0
   43.2311   27.1484   46.4069 H   0  0  0  0  0  0  0  0  0  0  0  0
  1  6  2  0
  2  1  1  0
  3  2  2  0
  3  4  1  0
  4  5  2  0
  5  6  1  0
  5  7  1  0
  7  8  1  0
  8  9  1  0
 10  9  1  0
 11 10  1  0
 12  7  1  0
 12 11  1  0
 13 17  1  0
 13 12  1  0
 14 13  2  0
 15 14  1  0
 15 16  1  0
 16 18  1  0
 16 17  2  0
  1 19  1  0
  2 20  1  0
  3 21  1  0
  8 22  1  0
  8 23  1  0
  9 24  1  0
  9 25  1  0
 10 26  1  0
 10 27  1  0
 11 28  1  0
 11 29  1  0
 12 30  1  6
 18 31  1  0
M  ISO  8  19  14  20  14  21  14  22  13  23  13  24  13  25  13  26  13
M  ISO  5  27  13  28  13  29  13  30  13  31  11
M  END
>  <minimizedAffinity>  (1) 
-5.08527517

>  <minimizedRMSD>  (1) 
0.0723438412

$$$$
