
     RDKit          3D

 34 36  0  0  1  0  0  0  0  0999 V2000
   44.4520   35.6810   42.3980 S   0  0  0  0  0  0  0  0  0  0  0  0
   41.6420   33.2600   39.8770 N   0  0  0  0  0  0  0  0  0  0  0  0
   42.6290   32.5190   40.5400 C   0  0  0  0  0  0  0  0  0  0  0  0
   43.4000   33.2700   41.6030 C   0  0  0  0  0  0  0  0  0  0  0  0
   43.3810   34.7510   41.3440 C   0  0  1  0  0  0  0  0  0  0  0  0
   41.9080   35.1190   41.5080 C   0  0  0  0  0  0  0  0  0  0  0  0
   41.1520   34.4480   40.4130 C   0  0  1  0  0  0  0  0  0  0  0  0
   40.9090   35.7040   39.1090 S   0  0  0  0  0  0  0  0  0  0  0  0
   45.4370   34.7270   43.5300 C   0  0  0  0  0  0  0  0  0  0  0  0
   46.6900   34.2120   43.1600 C   0  0  0  0  0  0  0  0  0  0  0  0
   47.3740   33.4770   44.1400 C   0  0  0  0  0  0  0  0  0  0  0  0
   46.8240   33.2950   45.3520 N   0  0  0  0  0  0  0  0  0  0  0  0
   45.6060   33.8070   45.6780 C   0  0  0  0  0  0  0  0  0  0  0  0
   44.9090   34.5220   44.7700 N   0  0  0  0  0  0  0  0  0  0  0  0
   47.3000   34.3980   41.8690 C   0  0  0  0  0  0  0  0  0  0  0  0
   48.3030   35.3570   41.6540 C   0  0  0  0  0  0  0  0  0  0  0  0
   48.6740   35.3040   40.3690 N   0  0  0  0  0  0  0  0  0  0  0  0
   47.9640   34.3620   39.7460 C   0  0  0  0  0  0  0  0  0  0  0  0
   47.1590   33.8500   40.6810 N   0  0  0  0  0  0  0  0  0  0  0  0
   40.8319   32.6337   39.7654 H   0  0  0  0  0  0  0  0  0  0  0  0
   42.1417   31.6572   41.0194 H   0  0  0  0  0  0  0  0  0  0  0  0
   43.3653   32.2397   39.7720 H   0  0  0  0  0  0  0  0  0  0  0  0
   42.9444   33.0715   42.5843 H   0  0  0  0  0  0  0  0  0  0  0  0
   44.4448   32.9263   41.5838 H   0  0  0  0  0  0  0  0  0  0  0  0
   43.7746   34.9987   40.3471 H   0  0  0  0  0  0  0  0  0  0  0  0
   41.5410   34.7715   42.4850 H   0  0  0  0  0  0  0  0  0  0  0  0
   41.7741   36.2097   41.4582 H   0  0  0  0  0  0  0  0  0  0  0  0
   40.2239   34.0843   40.8782 H   0  0  0  0  0  0  0  0  0  0  0  0
   40.6731   36.9232   39.6876 H   0  0  0  0  0  0  0  0  0  0  0  0
   48.3622   33.0491   43.9155 H   0  0  0  0  0  0  0  0  0  0  0  0
   45.1894   33.6380   46.6819 H   0  0  0  0  0  0  0  0  0  0  0  0
   48.7147   36.0375   42.4139 H   0  0  0  0  0  0  0  0  0  0  0  0
   48.0279   34.0692   38.6876 H   0  0  0  0  0  0  0  0  0  0  0  0
   46.4873   33.0931   40.4890 H   0  0  0  0  0  0  0  0  0  0  0  0
  1  9  1  0
  2  7  1  0
  2  3  1  0
  3  4  1  0
  5  6  1  0
  5  4  1  0
  5  1  1  0
  7  6  1  0
  8  7  1  0
  9 14  2  0
 10  9  1  0
 10 11  2  0
 11 12  1  0
 12 13  2  0
 14 13  1  0
 15 10  1  0
 16 15  2  0
 17 16  1  0
 18 17  2  0
 18 19  1  0
 19 15  1  0
  2 20  1  0
  3 21  1  0
  3 22  1  0
  4 23  1  0
  4 24  1  0
  5 25  1  6
  6 26  1  0
  6 27  1  0
  7 28  1  1
  8 29  1  0
 11 30  1  0
 13 31  1  0
 16 32  1  0
 18 33  1  0
 19 34  1  0
M  ISO  8  20   5  21  13  22  13  23  13  24  13  25  13  26  13  27  13
M  ISO  7  28  13  29  11  30  14  31  14  32  14  33  14  34   9
M  END
>  <minimizedAffinity>  (1) 
-4.77270985

>  <minimizedRMSD>  (1) 
0.586341202

$$$$
