
     RDKit          3D

 41 44  0  0  1  0  0  0  0  0999 V2000
   41.6650   32.1230   40.2490 N   0  0  0  0  0  0  0  0  0  0  0  0
   42.6830   31.5450   41.0230 C   0  0  0  0  0  0  0  0  0  0  0  0
   43.3960   32.4880   41.9630 C   0  0  0  0  0  0  0  0  0  0  0  0
   43.2780   33.9140   41.5000 C   0  0  1  0  0  0  0  0  0  0  0  0
   41.7850   34.2100   41.5980 C   0  0  0  0  0  0  0  0  0  0  0  0
   41.0840   33.3440   40.6150 C   0  0  1  0  0  0  0  0  0  0  0  0
   40.8580   34.1900   39.3940 C   0  0  0  0  0  0  0  0  0  0  0  0
   39.7590   33.9800   38.5830 C   0  0  0  0  0  0  0  0  0  0  0  0
   39.5080   34.7300   37.4520 C   0  0  0  0  0  0  0  0  0  0  0  0
   40.3910   35.7010   37.1510 N   0  0  0  0  0  0  0  0  0  0  0  0
   41.4770   35.9310   37.9250 C   0  0  0  0  0  0  0  0  0  0  0  0
   41.6730   35.1700   39.0150 N   0  0  0  0  0  0  0  0  0  0  0  0
   44.2710   35.0560   42.4120 S   0  0  0  0  0  0  0  0  0  0  0  0
   45.4300   34.3270   43.5470 C   0  0  0  0  0  0  0  0  0  0  0  0
   46.7190   33.9450   43.1390 C   0  0  0  0  0  0  0  0  0  0  0  0
   47.5430   33.3800   44.1270 C   0  0  0  0  0  0  0  0  0  0  0  0
   47.0840   33.2310   45.3830 N   0  0  0  0  0  0  0  0  0  0  0  0
   45.8320   33.6110   45.7420 C   0  0  0  0  0  0  0  0  0  0  0  0
   45.0030   34.1580   44.8320 N   0  0  0  0  0  0  0  0  0  0  0  0
   47.2320   34.0990   41.8040 C   0  0  0  0  0  0  0  0  0  0  0  0
   48.1370   35.1190   41.4730 C   0  0  0  0  0  0  0  0  0  0  0  0
   48.4340   35.0180   40.1700 N   0  0  0  0  0  0  0  0  0  0  0  0
   47.7690   33.9890   39.6470 C   0  0  0  0  0  0  0  0  0  0  0  0
   47.0640   33.4710   40.6600 N   0  0  0  0  0  0  0  0  0  0  0  0
   40.8998   31.4346   40.2108 H   0  0  0  0  0  0  0  0  0  0  0  0
   42.2364   30.7395   41.6244 H   0  0  0  0  0  0  0  0  0  0  0  0
   43.4439   31.1943   40.3103 H   0  0  0  0  0  0  0  0  0  0  0  0
   42.9517   32.3988   42.9653 H   0  0  0  0  0  0  0  0  0  0  0  0
   44.4619   32.2170   41.9843 H   0  0  0  0  0  0  0  0  0  0  0  0
   43.6671   34.0379   40.4786 H   0  0  0  0  0  0  0  0  0  0  0  0
   41.4258   33.9893   42.6140 H   0  0  0  0  0  0  0  0  0  0  0  0
   41.5891   35.2709   41.3833 H   0  0  0  0  0  0  0  0  0  0  0  0
   40.1713   33.0039   41.1262 H   0  0  0  0  0  0  0  0  0  0  0  0
   39.0532   33.1799   38.8507 H   0  0  0  0  0  0  0  0  0  0  0  0
   38.6248   34.5427   36.8236 H   0  0  0  0  0  0  0  0  0  0  0  0
   42.1885   36.7288   37.6658 H   0  0  0  0  0  0  0  0  0  0  0  0
   48.5642   33.0592   43.8734 H   0  0  0  0  0  0  0  0  0  0  0  0
   45.4929   33.4720   46.7792 H   0  0  0  0  0  0  0  0  0  0  0  0
   48.5356   35.8743   42.1663 H   0  0  0  0  0  0  0  0  0  0  0  0
   47.7940   33.6394   38.6043 H   0  0  0  0  0  0  0  0  0  0  0  0
   46.4456   32.6542   40.5536 H   0  0  0  0  0  0  0  0  0  0  0  0
  1  6  1  0
  1  2  1  0
  2  3  1  0
  4  5  1  0
  4  3  1  0
  4 13  1  0
  6  5  1  0
  7  6  1  0
  8  7  2  0
  9  8  1  0
 10  9  2  0
 10 11  1  0
 11 12  2  0
 12  7  1  0
 13 14  1  0
 14 19  2  0
 15 14  1  0
 15 16  2  0
 16 17  1  0
 17 18  2  0
 19 18  1  0
 20 15  1  0
 21 20  2  0
 22 21  1  0
 23 22  2  0
 23 24  1  0
 24 20  1  0
  1 25  1  0
  2 26  1  0
  2 27  1  0
  3 28  1  0
  3 29  1  0
  4 30  1  6
  5 31  1  0
  5 32  1  0
  6 33  1  1
  8 34  1  0
  9 35  1  0
 11 36  1  0
 16 37  1  0
 18 38  1  0
 21 39  1  0
 23 40  1  0
 24 41  1  0
M  ISO  8  25   5  26  13  27  13  28  13  29  13  30  13  31  13  32  13
M  ISO  8  33  13  34  14  35  14  36  14  37  14  38  14  39  14  40  14
M  ISO  1  41   9
M  END
>  <minimizedAffinity>  (1) 
-5.04142475

>  <minimizedRMSD>  (1) 
1.82676077

$$$$
