
     RDKit          3D

 35 37  0  0  1  0  0  0  0  0999 V2000
   41.5640   33.6030   39.8740 N   0  0  0  0  0  0  0  0  0  0  0  0
   42.7640   32.9220   40.1220 C   0  0  0  0  0  0  0  0  0  0  0  0
   43.6540   33.5390   41.1780 C   0  0  0  0  0  0  0  0  0  0  0  0
   43.3750   35.0070   41.3400 C   0  0  1  0  0  0  0  0  0  0  0  0
   41.9430   35.0450   41.8670 C   0  0  0  0  0  0  0  0  0  0  0  0
   41.0540   34.5340   40.7960 C   0  0  1  0  0  0  0  0  0  0  0  0
   40.5450   35.7530   40.0660 C   0  0  0  0  0  0  0  0  0  0  0  0
   40.0820   36.7350   40.6430 O   0  0  0  0  0  0  0  0  0  0  0  0
   44.5210   35.8520   42.3820 S   0  0  0  0  0  0  0  0  0  0  0  0
   45.4490   34.8220   43.4970 C   0  0  0  0  0  0  0  0  0  0  0  0
   46.6840   34.2670   43.1230 C   0  0  0  0  0  0  0  0  0  0  0  0
   47.3260   33.4720   44.0860 C   0  0  0  0  0  0  0  0  0  0  0  0
   46.7590   33.2760   45.2890 N   0  0  0  0  0  0  0  0  0  0  0  0
   45.5660   33.8270   45.6150 C   0  0  0  0  0  0  0  0  0  0  0  0
   44.9050   34.6020   44.7230 N   0  0  0  0  0  0  0  0  0  0  0  0
   47.3180   34.4650   41.8430 C   0  0  0  0  0  0  0  0  0  0  0  0
   48.3440   35.4070   41.6700 C   0  0  0  0  0  0  0  0  0  0  0  0
   48.7380   35.3740   40.3880 N   0  0  0  0  0  0  0  0  0  0  0  0
   48.0180   34.4610   39.7350 C   0  0  0  0  0  0  0  0  0  0  0  0
   47.1860   33.9450   40.6420 N   0  0  0  0  0  0  0  0  0  0  0  0
   41.6936   34.1105   38.9871 H   0  0  0  0  0  0  0  0  0  0  0  0
   42.5141   31.9002   40.4436 H   0  0  0  0  0  0  0  0  0  0  0  0
   43.3352   32.9627   39.1828 H   0  0  0  0  0  0  0  0  0  0  0  0
   43.4748   33.0325   42.1378 H   0  0  0  0  0  0  0  0  0  0  0  0
   44.7009   33.4180   40.8627 H   0  0  0  0  0  0  0  0  0  0  0  0
   43.4932   35.5493   40.3903 H   0  0  0  0  0  0  0  0  0  0  0  0
   41.8559   34.4098   42.7608 H   0  0  0  0  0  0  0  0  0  0  0  0
   41.6617   36.0718   42.1435 H   0  0  0  0  0  0  0  0  0  0  0  0
   40.2876   33.9330   41.3074 H   0  0  0  0  0  0  0  0  0  0  0  0
   40.5904   35.7633   38.9670 H   0  0  0  0  0  0  0  0  0  0  0  0
   48.2963   33.0080   43.8552 H   0  0  0  0  0  0  0  0  0  0  0  0
   45.1318   33.6442   46.6090 H   0  0  0  0  0  0  0  0  0  0  0  0
   48.7553   36.0613   42.4528 H   0  0  0  0  0  0  0  0  0  0  0  0
   48.0939   34.1900   38.6716 H   0  0  0  0  0  0  0  0  0  0  0  0
   46.5026   33.2066   40.4216 H   0  0  0  0  0  0  0  0  0  0  0  0
  1  2  1  0
  1  6  1  0
  2  3  1  0
  3  4  1  0
  4  5  1  0
  4  9  1  0
  6  5  1  0
  7  8  2  0
  7  6  1  0
  9 10  1  0
 10 15  2  0
 11 10  1  0
 11 12  2  0
 12 13  1  0
 13 14  2  0
 15 14  1  0
 16 11  1  0
 17 16  2  0
 18 17  1  0
 19 18  2  0
 19 20  1  0
 20 16  1  0
  1 21  1  0
  2 22  1  0
  2 23  1  0
  3 24  1  0
  3 25  1  0
  4 26  1  6
  5 27  1  0
  5 28  1  0
  6 29  1  1
  7 30  1  0
 12 31  1  0
 14 32  1  0
 17 33  1  0
 19 34  1  0
 20 35  1  0
M  ISO  8  21   5  22  13  23  13  24  13  25  13  26  13  27  13  28  13
M  ISO  7  29  13  30   6  31  14  32  14  33  14  34  14  35   9
M  END
>  <minimizedAffinity>  (1) 
-4.94590425

>  <minimizedRMSD>  (1) 
0.820637286

$$$$
