
     RDKit          3D

 34 37  0  0  0  0  0  0  0  0999 V2000
   46.6560   34.5840   42.1370 C   0  0  0  0  0  0  0  0  0  0  0  0
   47.8540   35.2790   41.9380 C   0  0  0  0  0  0  0  0  0  0  0  0
   48.5050   35.1610   40.7200 C   0  0  0  0  0  0  0  0  0  0  0  0
   47.9920   34.3690   39.6950 C   0  0  0  0  0  0  0  0  0  0  0  0
   46.8200   33.6980   39.9060 C   0  0  0  0  0  0  0  0  0  0  0  0
   46.1710   33.8100   41.1120 C   0  0  0  0  0  0  0  0  0  0  0  0
   44.9180   33.1250   41.4120 C   0  0  0  0  0  0  0  0  0  0  0  0
   44.9990   31.9470   42.0410 N   0  0  0  0  0  0  0  0  0  0  0  0
   43.9150   31.2240   42.3700 C   0  0  0  0  0  0  0  0  0  0  0  0
   42.7020   31.7090   42.0510 N   0  0  0  0  0  0  0  0  0  0  0  0
   42.5370   32.8810   41.4190 C   0  0  0  0  0  0  0  0  0  0  0  0
   41.3380   33.4320   41.0650 C   0  0  0  0  0  0  0  0  0  0  0  0
   41.2460   34.6530   40.4120 C   0  0  0  0  0  0  0  0  0  0  0  0
   42.3950   35.3460   40.1030 C   0  0  0  0  0  0  0  0  0  0  0  0
   43.6190   34.8240   40.4430 C   0  0  0  0  0  0  0  0  0  0  0  0
   43.6850   33.6060   41.0930 C   0  0  0  0  0  0  0  0  0  0  0  0
   44.4930   35.9390   44.7290 C   0  0  0  0  0  0  0  0  0  0  0  0
   44.6630   35.0600   45.8200 C   0  0  0  0  0  0  0  0  0  0  0  0
   45.5510   33.9840   45.6320 C   0  0  0  0  0  0  0  0  0  0  0  0
   46.1750   33.8620   44.4350 N   0  0  0  0  0  0  0  0  0  0  0  0
   45.9890   34.7150   43.4220 C   0  0  0  0  0  0  0  0  0  0  0  0
   45.1450   35.7660   43.5560 N   0  0  0  0  0  0  0  0  0  0  0  0
   48.2729   35.9095   42.7361 H   0  0  0  0  0  0  0  0  0  0  0  0
   49.4476   35.7047   40.5591 H   0  0  0  0  0  0  0  0  0  0  0  0
   48.5203   34.2852   38.7338 H   0  0  0  0  0  0  0  0  0  0  0  0
   46.3962   33.0681   39.1100 H   0  0  0  0  0  0  0  0  0  0  0  0
   44.0175   30.2589   42.8877 H   0  0  0  0  0  0  0  0  0  0  0  0
   40.4126   32.8884   41.3062 H   0  0  0  0  0  0  0  0  0  0  0  0
   40.2619   35.0644   40.1431 H   0  0  0  0  0  0  0  0  0  0  0  0
   42.3328   36.3147   39.5855 H   0  0  0  0  0  0  0  0  0  0  0  0
   44.5412   35.3719   40.1995 H   0  0  0  0  0  0  0  0  0  0  0  0
   43.8079   36.7929   44.8358 H   0  0  0  0  0  0  0  0  0  0  0  0
   44.1283   35.2083   46.7698 H   0  0  0  0  0  0  0  0  0  0  0  0
   45.7343   33.2586   46.4383 H   0  0  0  0  0  0  0  0  0  0  0  0
  1 21  1  0
  2  1  2  0
  3  2  1  0
  4  5  1  0
  4  3  2  0
  5  6  2  0
  6  7  1  0
  6  1  1  0
  7  8  2  0
  8  9  1  0
 10  9  2  0
 11 10  1  0
 12 11  2  0
 13 12  1  0
 14 13  2  0
 14 15  1  0
 15 16  2  0
 16  7  1  0
 16 11  1  0
 17 18  2  0
 19 18  1  0
 20 19  2  0
 21 22  2  0
 21 20  1  0
 22 17  1  0
  2 23  1  0
  3 24  1  0
  4 25  1  0
  5 26  1  0
  9 27  1  0
 12 28  1  0
 13 29  1  0
 14 30  1  0
 15 31  1  0
 17 32  1  0
 18 33  1  0
 19 34  1  0
M  ISO  8  23  14  24  14  25  14  26  14  27  14  28  14  29  14  30  14
M  ISO  4  31  14  32  14  33  14  34  14
M  END
>  <minimizedAffinity>  (1) 
-6.54397297

>  <minimizedRMSD>  (1) 
2.60721517

$$$$
