
     RDKit          3D

 28 30  0  0  0  0  0  0  0  0999 V2000
   46.7040   34.7670   42.0230 C   0  0  0  0  0  0  0  0  0  0  0  0
   47.9890   35.2690   41.9380 C   0  0  0  0  0  0  0  0  0  0  0  0
   48.6710   35.1050   40.7320 C   0  0  0  0  0  0  0  0  0  0  0  0
   48.1260   34.4740   39.6420 C   0  0  0  0  0  0  0  0  0  0  0  0
   46.8490   33.9850   39.7530 C   0  0  0  0  0  0  0  0  0  0  0  0
   46.1370   34.1260   40.9320 C   0  0  0  0  0  0  0  0  0  0  0  0
   45.4870   34.0990   45.3980 C   0  0  0  0  0  0  0  0  0  0  0  0
   44.6380   35.1780   45.6910 C   0  0  0  0  0  0  0  0  0  0  0  0
   44.4950   36.1490   44.6820 C   0  0  0  0  0  0  0  0  0  0  0  0
   45.1720   35.9910   43.5120 N   0  0  0  0  0  0  0  0  0  0  0  0
   45.9750   34.9330   43.2880 C   0  0  0  0  0  0  0  0  0  0  0  0
   46.1360   33.9910   44.2210 N   0  0  0  0  0  0  0  0  0  0  0  0
   44.7790   33.6210   41.0980 C   0  0  0  0  0  0  0  0  0  0  0  0
   43.7500   34.4050   40.6180 C   0  0  0  0  0  0  0  0  0  0  0  0
   42.4160   33.9980   40.7340 C   0  0  0  0  0  0  0  0  0  0  0  0
   42.1060   32.8240   41.3210 N   0  0  0  0  0  0  0  0  0  0  0  0
   43.1260   32.0790   41.7800 C   0  0  0  0  0  0  0  0  0  0  0  0
   44.4400   32.4390   41.6860 N   0  0  0  0  0  0  0  0  0  0  0  0
   48.4578   35.7802   42.7918 H   0  0  0  0  0  0  0  0  0  0  0  0
   49.6943   35.5003   40.6510 H   0  0  0  0  0  0  0  0  0  0  0  0
   48.6958   34.3636   38.7076 H   0  0  0  0  0  0  0  0  0  0  0  0
   46.3855   33.4751   38.8956 H   0  0  0  0  0  0  0  0  0  0  0  0
   45.6278   33.3138   46.1554 H   0  0  0  0  0  0  0  0  0  0  0  0
   44.1141   35.2600   46.6547 H   0  0  0  0  0  0  0  0  0  0  0  0
   43.8453   37.0230   44.8370 H   0  0  0  0  0  0  0  0  0  0  0  0
   43.9821   35.3662   40.1360 H   0  0  0  0  0  0  0  0  0  0  0  0
   41.6136   34.6410   40.3431 H   0  0  0  0  0  0  0  0  0  0  0  0
   42.8876   31.1192   42.2615 H   0  0  0  0  0  0  0  0  0  0  0  0
  1 11  1  0
  2  1  2  0
  3  2  1  0
  4  5  1  0
  4  3  2  0
  5  6  2  0
  6 13  1  0
  6  1  1  0
  7  8  2  0
  9  8  1  0
 10  9  2  0
 11 10  1  0
 11 12  2  0
 12  7  1  0
 13 18  2  0
 14 15  2  0
 14 13  1  0
 15 16  1  0
 16 17  2  0
 18 17  1  0
  2 19  1  0
  3 20  1  0
  4 21  1  0
  5 22  1  0
  7 23  1  0
  8 24  1  0
  9 25  1  0
 14 26  1  0
 15 27  1  0
 17 28  1  0
M  ISO  8  19  14  20  14  21  14  22  14  23  14  24  14  25  14  26  14
M  ISO  2  27  14  28  14
M  END
>  <minimizedAffinity>  (1) 
-5.66176891

>  <minimizedRMSD>  (1) 
0.367985874

$$$$
