
     RDKit          3D

 33 35  0  0  0  0  0  0  0  0999 V2000
   46.6330   34.7390   42.1100 C   0  0  0  0  0  0  0  0  0  0  0  0
   47.9750   35.0670   42.0560 C   0  0  0  0  0  0  0  0  0  0  0  0
   48.6850   34.8850   40.8830 C   0  0  0  0  0  0  0  0  0  0  0  0
   48.0730   34.3750   39.7470 C   0  0  0  0  0  0  0  0  0  0  0  0
   46.7470   34.0520   39.8070 C   0  0  0  0  0  0  0  0  0  0  0  0
   46.0420   34.2350   40.9770 C   0  0  0  0  0  0  0  0  0  0  0  0
   44.6620   33.8850   40.9900 N   0  0  0  0  0  0  0  0  0  0  0  0
   43.6840   34.7430   40.6080 C   0  0  0  0  0  0  0  0  0  0  0  0
   42.3510   34.3900   40.6250 C   0  0  0  0  0  0  0  0  0  0  0  0
   41.2700   35.3200   40.2100 C   0  0  0  0  0  0  0  0  0  0  0  0
   41.9920   33.1070   41.0500 C   0  0  0  0  0  0  0  0  0  0  0  0
   40.7590   32.7890   41.0640 O   0  0  0  0  0  0  0  0  0  0  0  0
   42.9680   32.2450   41.4340 N   0  0  0  0  0  0  0  0  0  0  0  0
   44.2200   32.6750   41.3830 C   0  0  0  0  0  0  0  0  0  0  0  0
   45.1060   31.8430   41.7480 O   0  0  0  0  0  0  0  0  0  0  0  0
   45.3940   34.1200   45.4800 C   0  0  0  0  0  0  0  0  0  0  0  0
   44.5920   35.2400   45.7600 C   0  0  0  0  0  0  0  0  0  0  0  0
   44.4890   36.2160   44.7540 C   0  0  0  0  0  0  0  0  0  0  0  0
   45.1550   36.0390   43.5800 N   0  0  0  0  0  0  0  0  0  0  0  0
   45.9180   34.9420   43.3550 C   0  0  0  0  0  0  0  0  0  0  0  0
   46.0330   33.9910   44.3010 N   0  0  0  0  0  0  0  0  0  0  0  0
   48.4782   35.4728   42.9460 H   0  0  0  0  0  0  0  0  0  0  0  0
   49.7524   35.1489   40.8502 H   0  0  0  0  0  0  0  0  0  0  0  0
   48.6437   34.2337   38.8173 H   0  0  0  0  0  0  0  0  0  0  0  0
   46.2407   33.6449   38.9193 H   0  0  0  0  0  0  0  0  0  0  0  0
   43.9629   35.7532   40.2738 H   0  0  0  0  0  0  0  0  0  0  0  0
   40.7834   35.7386   41.1033 H   0  0  0  0  0  0  0  0  0  0  0  0
   41.6987   36.1360   39.6097 H   0  0  0  0  0  0  0  0  0  0  0  0
   40.5272   34.7743   39.6097 H   0  0  0  0  0  0  0  0  0  0  0  0
   42.7433   31.2918   41.7532 H   0  0  0  0  0  0  0  0  0  0  0  0
   45.5022   33.3320   46.2398 H   0  0  0  0  0  0  0  0  0  0  0  0
   44.0693   35.3475   46.7219 H   0  0  0  0  0  0  0  0  0  0  0  0
   43.8756   37.1150   44.9139 H   0  0  0  0  0  0  0  0  0  0  0  0
  1 20  1  0
  2  1  2  0
  3  2  1  0
  4  5  1  0
  4  3  2  0
  5  6  2  0
  6  7  1  0
  6  1  1  0
  7 14  1  0
  8  9  2  0
  8  7  1  0
  9 11  1  0
 10  9  1  0
 11 12  2  0
 11 13  1  0
 14 13  1  0
 14 15  2  0
 16 17  2  0
 18 17  1  0
 19 18  2  0
 20 19  1  0
 20 21  2  0
 21 16  1  0
  2 22  1  0
  3 23  1  0
  4 24  1  0
  5 25  1  0
  8 26  1  0
 10 27  1  0
 10 28  1  0
 10 29  1  0
 13 30  1  0
 16 31  1  0
 17 32  1  0
 18 33  1  0
M  ISO  8  22  14  23  14  24  14  25  14  26  14  27   8  28   8  29   8
M  ISO  4  30   9  31  14  32  14  33  14
M  END
>  <minimizedAffinity>  (1) 
-6.03641796

>  <minimizedRMSD>  (1) 
1.28438699

$$$$
