
     RDKit          3D

 31 33  0  0  0  0  0  0  0  0999 V2000
   46.5830   34.6360   42.1680 C   0  0  0  0  0  0  0  0  0  0  0  0
   47.8460   35.2010   42.0060 C   0  0  0  0  0  0  0  0  0  0  0  0
   48.4850   35.0530   40.7790 C   0  0  0  0  0  0  0  0  0  0  0  0
   47.9160   34.3720   39.7270 C   0  0  0  0  0  0  0  0  0  0  0  0
   46.6660   33.8200   39.9050 C   0  0  0  0  0  0  0  0  0  0  0  0
   46.0300   33.9600   41.1080 C   0  0  0  0  0  0  0  0  0  0  0  0
   44.7390   33.3700   41.2390 N   0  0  0  0  0  0  0  0  0  0  0  0
   44.5410   32.0970   41.6240 C   0  0  0  0  0  0  0  0  0  0  0  0
   43.2510   31.5750   41.7350 C   0  0  0  0  0  0  0  0  0  0  0  0
   42.1860   32.4190   41.4320 C   0  0  0  0  0  0  0  0  0  0  0  0
   40.8990   31.8240   41.5650 N   0  0  0  0  0  0  0  0  0  0  0  0
   42.4120   33.6930   41.0480 N   0  0  0  0  0  0  0  0  0  0  0  0
   43.6750   34.1680   40.9520 C   0  0  0  0  0  0  0  0  0  0  0  0
   43.7800   35.3770   40.5830 O   0  0  0  0  0  0  0  0  0  0  0  0
   45.5520   33.9330   45.5870 C   0  0  0  0  0  0  0  0  0  0  0  0
   44.7010   34.9880   45.9220 C   0  0  0  0  0  0  0  0  0  0  0  0
   44.4800   35.9760   44.9200 C   0  0  0  0  0  0  0  0  0  0  0  0
   45.1060   35.8210   43.7290 N   0  0  0  0  0  0  0  0  0  0  0  0
   45.9160   34.7920   43.4500 C   0  0  0  0  0  0  0  0  0  0  0  0
   46.1450   33.8420   44.3770 N   0  0  0  0  0  0  0  0  0  0  0  0
   48.3266   35.7510   42.8285 H   0  0  0  0  0  0  0  0  0  0  0  0
   49.4824   35.4969   40.6447 H   0  0  0  0  0  0  0  0  0  0  0  0
   48.4457   34.2709   38.7683 H   0  0  0  0  0  0  0  0  0  0  0  0
   46.1823   33.2699   39.0844 H   0  0  0  0  0  0  0  0  0  0  0  0
   45.4067   31.4586   41.8545 H   0  0  0  0  0  0  0  0  0  0  0  0
   43.0821   30.5348   42.0504 H   0  0  0  0  0  0  0  0  0  0  0  0
   40.0532   32.3753   41.3611 H   0  0  0  0  0  0  0  0  0  0  0  0
   40.8140   30.8423   41.8651 H   0  0  0  0  0  0  0  0  0  0  0  0
   45.7461   33.1492   46.3340 H   0  0  0  0  0  0  0  0  0  0  0  0
   44.2245   35.0530   46.9113 H   0  0  0  0  0  0  0  0  0  0  0  0
   43.8220   36.8373   45.1075 H   0  0  0  0  0  0  0  0  0  0  0  0
  1 19  1  0
  2  1  2  0
  3  2  1  0
  4  5  1  0
  4  3  2  0
  5  6  2  0
  6  7  1  0
  6  1  1  0
  7  8  1  0
  8  9  2  0
 10 11  1  0
 10  9  1  0
 12 10  2  0
 13 12  1  0
 13  7  1  0
 14 13  2  0
 15 16  2  0
 17 16  1  0
 18 17  2  0
 19 18  1  0
 19 20  2  0
 20 15  1  0
  2 21  1  0
  3 22  1  0
  4 23  1  0
  5 24  1  0
  8 25  1  0
  9 26  1  0
 11 27  1  0
 11 28  1  0
 15 29  1  0
 16 30  1  0
 17 31  1  0
M  ISO  8  21  14  22  14  23  14  24  14  25  14  26  14  29  14  30  14
M  ISO  1  31  14
M  END
>  <minimizedAffinity>  (1) 
-5.80247259

>  <minimizedRMSD>  (1) 
0.394282639

$$$$
