
     RDKit          3D

 34 36  0  0  0  0  0  0  0  0999 V2000
   46.7860   34.7600   41.9570 C   0  0  0  0  0  0  0  0  0  0  0  0
   48.0240   35.3760   41.8520 C   0  0  0  0  0  0  0  0  0  0  0  0
   48.7260   35.2400   40.6530 C   0  0  0  0  0  0  0  0  0  0  0  0
   48.2260   34.5180   39.5850 C   0  0  0  0  0  0  0  0  0  0  0  0
   46.9940   33.9140   39.7120 C   0  0  0  0  0  0  0  0  0  0  0  0
   46.2880   34.0380   40.8870 C   0  0  0  0  0  0  0  0  0  0  0  0
   45.5990   34.0090   45.3270 C   0  0  0  0  0  0  0  0  0  0  0  0
   44.7150   35.0590   45.6180 C   0  0  0  0  0  0  0  0  0  0  0  0
   44.5310   36.0410   44.6270 C   0  0  0  0  0  0  0  0  0  0  0  0
   45.2130   35.9240   43.4490 N   0  0  0  0  0  0  0  0  0  0  0  0
   46.0480   34.9010   43.2140 C   0  0  0  0  0  0  0  0  0  0  0  0
   46.2360   33.9590   44.1420 N   0  0  0  0  0  0  0  0  0  0  0  0
   45.0130   33.4280   41.0550 N   0  0  0  0  0  0  0  0  0  0  0  0
   43.7020   34.0430   40.8060 C   0  0  0  0  0  0  0  0  0  0  0  0
   42.7820   32.9810   40.2320 C   0  0  0  0  0  0  0  0  0  0  0  0
   42.3470   32.1650   41.3680 N   0  0  0  0  0  0  0  0  0  0  0  0
   43.4680   31.9560   42.2630 C   0  0  0  0  0  0  0  0  0  0  0  0
   44.7780   32.0550   41.5160 C   0  0  0  0  0  0  0  0  0  0  0  0
   48.4408   35.9550   42.6893 H   0  0  0  0  0  0  0  0  0  0  0  0
   49.7093   35.7231   40.5546 H   0  0  0  0  0  0  0  0  0  0  0  0
   48.8009   34.4275   38.6516 H   0  0  0  0  0  0  0  0  0  0  0  0
   46.5757   33.3340   38.8762 H   0  0  0  0  0  0  0  0  0  0  0  0
   45.7731   33.2200   46.0734 H   0  0  0  0  0  0  0  0  0  0  0  0
   44.1872   35.1124   46.5816 H   0  0  0  0  0  0  0  0  0  0  0  0
   43.8501   36.8879   44.7978 H   0  0  0  0  0  0  0  0  0  0  0  0
   43.2854   34.4266   41.7490 H   0  0  0  0  0  0  0  0  0  0  0  0
   43.8028   34.8806   40.1001 H   0  0  0  0  0  0  0  0  0  0  0  0
   41.9147   33.4500   39.7443 H   0  0  0  0  0  0  0  0  0  0  0  0
   43.2945   32.3725   39.4724 H   0  0  0  0  0  0  0  0  0  0  0  0
   41.5906   32.6505   41.8711 H   0  0  0  0  0  0  0  0  0  0  0  0
   43.4453   32.7203   43.0537 H   0  0  0  0  0  0  0  0  0  0  0  0
   43.3869   30.9498   42.7000 H   0  0  0  0  0  0  0  0  0  0  0  0
   44.7486   31.3826   40.6459 H   0  0  0  0  0  0  0  0  0  0  0  0
   45.5937   31.7670   42.1954 H   0  0  0  0  0  0  0  0  0  0  0  0
  1 11  1  0
  2  1  2  0
  3  2  1  0
  4  5  1  0
  4  3  2  0
  5  6  2  0
  6 13  1  0
  6  1  1  0
  7  8  2  0
  9  8  1  0
 10  9  2  0
 11 10  1  0
 11 12  2  0
 12  7  1  0
 13 18  1  0
 14 13  1  0
 15 14  1  0
 15 16  1  0
 16 17  1  0
 18 17  1  0
  2 19  1  0
  3 20  1  0
  4 21  1  0
  5 22  1  0
  7 23  1  0
  8 24  1  0
  9 25  1  0
 14 26  1  0
 14 27  1  0
 15 28  1  0
 15 29  1  0
 16 30  1  0
 17 31  1  0
 17 32  1  0
 18 33  1  0
 18 34  1  0
M  ISO  8  19  14  20  14  21  14  22  14  23  14  24  14  25  14  26  13
M  ISO  8  27  13  28  13  29  13  30   5  31  13  32  13  33  13  34  13
M  END
>  <minimizedAffinity>  (1) 
-5.46139717

>  <minimizedRMSD>  (1) 
0.766373694

$$$$
