
     RDKit          3D

 27 29  0  0  0  0  0  0  0  0999 V2000
   46.7000   34.7460   42.0130 C   0  0  0  0  0  0  0  0  0  0  0  0
   47.9660   35.3010   41.9050 C   0  0  0  0  0  0  0  0  0  0  0  0
   48.6360   35.1270   40.6920 C   0  0  0  0  0  0  0  0  0  0  0  0
   48.1090   34.4440   39.6240 C   0  0  0  0  0  0  0  0  0  0  0  0
   46.8580   33.9060   39.7550 C   0  0  0  0  0  0  0  0  0  0  0  0
   46.1640   34.0580   40.9410 C   0  0  0  0  0  0  0  0  0  0  0  0
   45.5240   34.0490   45.3960 C   0  0  0  0  0  0  0  0  0  0  0  0
   44.6660   35.1250   45.6950 C   0  0  0  0  0  0  0  0  0  0  0  0
   44.5060   36.0980   44.6940 C   0  0  0  0  0  0  0  0  0  0  0  0
   45.1720   35.9600   43.5080 N   0  0  0  0  0  0  0  0  0  0  0  0
   45.9770   34.9150   43.2720 C   0  0  0  0  0  0  0  0  0  0  0  0
   46.1520   33.9680   44.2090 N   0  0  0  0  0  0  0  0  0  0  0  0
   44.8710   33.4890   41.0470 C   0  0  0  0  0  0  0  0  0  0  0  0
   44.3520   32.3240   41.4940 C   0  0  0  0  0  0  0  0  0  0  0  0
   43.0370   32.0390   41.4770 C   0  0  0  0  0  0  0  0  0  0  0  0
   42.2040   33.1390   40.9130 C   0  0  0  0  0  0  0  0  0  0  0  0
   43.4980   34.4420   40.4890 S   0  0  0  0  0  0  0  0  0  0  0  0
   48.4229   35.8544   42.7386 H   0  0  0  0  0  0  0  0  0  0  0  0
   49.6412   35.5611   40.5865 H   0  0  0  0  0  0  0  0  0  0  0  0
   48.6770   34.3324   38.6886 H   0  0  0  0  0  0  0  0  0  0  0  0
   46.4052   33.3536   38.9184 H   0  0  0  0  0  0  0  0  0  0  0  0
   45.6835   33.2607   46.1464 H   0  0  0  0  0  0  0  0  0  0  0  0
   44.1478   35.1999   46.6624 H   0  0  0  0  0  0  0  0  0  0  0  0
   43.8497   36.9644   44.8633 H   0  0  0  0  0  0  0  0  0  0  0  0
   45.0427   31.5669   41.8938 H   0  0  0  0  0  0  0  0  0  0  0  0
   42.6187   31.0896   41.8426 H   0  0  0  0  0  0  0  0  0  0  0  0
   41.1130   33.1798   40.7786 H   0  0  0  0  0  0  0  0  0  0  0  0
  1 11  1  0
  2  1  2  0
  3  2  1  0
  4  5  1  0
  4  3  2  0
  5  6  2  0
  6 13  1  0
  6  1  1  0
  7  8  2  0
  9  8  1  0
 10  9  2  0
 11 10  1  0
 11 12  2  0
 12  7  1  0
 13 14  2  0
 15 14  1  0
 16 15  2  0
 17 16  1  0
 17 13  1  0
  2 18  1  0
  3 19  1  0
  4 20  1  0
  5 21  1  0
  7 22  1  0
  8 23  1  0
  9 24  1  0
 14 25  1  0
 15 26  1  0
 16 27  1  0
M  ISO  8  18  14  19  14  20  14  21  14  22  14  23  14  24  14  25  14
M  ISO  2  26  14  27  14
M  END
>  <minimizedAffinity>  (1) 
-5.38135815

>  <minimizedRMSD>  (1) 
0.242316291

$$$$
