
     RDKit          3D

 27 29  0  0  0  0  0  0  0  0999 V2000
   46.6940   34.7410   42.1080 C   0  0  0  0  0  0  0  0  0  0  0  0
   47.9830   35.2750   42.0230 C   0  0  0  0  0  0  0  0  0  0  0  0
   48.6650   35.1430   40.8140 C   0  0  0  0  0  0  0  0  0  0  0  0
   48.1270   34.5150   39.7180 C   0  0  0  0  0  0  0  0  0  0  0  0
   46.8490   33.9950   39.8280 C   0  0  0  0  0  0  0  0  0  0  0  0
   46.1600   34.1150   41.0090 C   0  0  0  0  0  0  0  0  0  0  0  0
   45.5360   34.0240   45.4810 C   0  0  0  0  0  0  0  0  0  0  0  0
   44.6620   35.0800   45.7860 C   0  0  0  0  0  0  0  0  0  0  0  0
   44.4780   36.0550   44.7910 C   0  0  0  0  0  0  0  0  0  0  0  0
   45.1450   35.9230   43.6150 N   0  0  0  0  0  0  0  0  0  0  0  0
   45.9810   34.8800   43.3700 C   0  0  0  0  0  0  0  0  0  0  0  0
   46.1800   33.9310   44.2980 N   0  0  0  0  0  0  0  0  0  0  0  0
   44.8460   33.5830   41.1300 N   0  0  0  0  0  0  0  0  0  0  0  0
   44.2370   32.5550   41.6590 N   0  0  0  0  0  0  0  0  0  0  0  0
   42.9190   32.6060   41.4260 C   0  0  0  0  0  0  0  0  0  0  0  0
   42.6660   33.7590   40.6910 C   0  0  0  0  0  0  0  0  0  0  0  0
   43.9120   34.3650   40.5140 C   0  0  0  0  0  0  0  0  0  0  0  0
   48.4446   35.7832   42.8825 H   0  0  0  0  0  0  0  0  0  0  0  0
   49.6795   35.5607   40.7348 H   0  0  0  0  0  0  0  0  0  0  0  0
   48.6950   34.4277   38.7800 H   0  0  0  0  0  0  0  0  0  0  0  0
   46.3860   33.4861   38.9698 H   0  0  0  0  0  0  0  0  0  0  0  0
   45.7026   33.2415   46.2359 H   0  0  0  0  0  0  0  0  0  0  0  0
   44.1468   35.1409   46.7560 H   0  0  0  0  0  0  0  0  0  0  0  0
   43.8063   36.9093   44.9612 H   0  0  0  0  0  0  0  0  0  0  0  0
   42.1720   31.8692   41.7563 H   0  0  0  0  0  0  0  0  0  0  0  0
   41.6920   34.1175   40.3266 H   0  0  0  0  0  0  0  0  0  0  0  0
   44.1058   35.3040   39.9749 H   0  0  0  0  0  0  0  0  0  0  0  0
  1 11  1  0
  2  1  2  0
  3  2  1  0
  4  5  1  0
  4  3  2  0
  5  6  2  0
  6 13  1  0
  6  1  1  0
  7  8  2  0
  9  8  1  0
 10  9  2  0
 11 10  1  0
 11 12  2  0
 12  7  1  0
 13 14  1  0
 15 14  2  0
 16 15  1  0
 17 16  2  0
 17 13  1  0
  2 18  1  0
  3 19  1  0
  4 20  1  0
  5 21  1  0
  7 22  1  0
  8 23  1  0
  9 24  1  0
 15 25  1  0
 16 26  1  0
 17 27  1  0
M  ISO  8  18  14  19  14  20  14  21  14  22  14  23  14  24  14  25  14
M  ISO  2  26  14  27  14
M  END
>  <minimizedAffinity>  (1) 
-5.3186903

>  <minimizedRMSD>  (1) 
0.431652665

$$$$
