
     RDKit          3D

 27 29  0  0  0  0  0  0  0  0999 V2000
   46.6960   34.7600   42.0230 C   0  0  0  0  0  0  0  0  0  0  0  0
   47.9890   35.2740   41.9460 C   0  0  0  0  0  0  0  0  0  0  0  0
   48.6830   35.1250   40.7470 C   0  0  0  0  0  0  0  0  0  0  0  0
   48.1350   34.4920   39.6480 C   0  0  0  0  0  0  0  0  0  0  0  0
   46.8660   33.9970   39.7460 C   0  0  0  0  0  0  0  0  0  0  0  0
   46.1680   34.1360   40.9200 C   0  0  0  0  0  0  0  0  0  0  0  0
   45.4860   34.0720   45.3860 C   0  0  0  0  0  0  0  0  0  0  0  0
   44.6450   35.1630   45.6790 C   0  0  0  0  0  0  0  0  0  0  0  0
   44.5060   36.1440   44.6870 C   0  0  0  0  0  0  0  0  0  0  0  0
   45.1790   35.9910   43.5140 N   0  0  0  0  0  0  0  0  0  0  0  0
   45.9790   34.9190   43.2770 C   0  0  0  0  0  0  0  0  0  0  0  0
   46.1300   33.9710   44.2040 N   0  0  0  0  0  0  0  0  0  0  0  0
   44.8490   33.6050   40.9780 N   0  0  0  0  0  0  0  0  0  0  0  0
   43.8390   34.3920   40.5100 C   0  0  0  0  0  0  0  0  0  0  0  0
   42.6560   33.6670   40.6690 C   0  0  0  0  0  0  0  0  0  0  0  0
   42.9720   32.4750   41.2220 N   0  0  0  0  0  0  0  0  0  0  0  0
   44.3090   32.4400   41.4100 C   0  0  0  0  0  0  0  0  0  0  0  0
   48.4483   35.7824   42.8065 H   0  0  0  0  0  0  0  0  0  0  0  0
   49.7046   35.5260   40.6727 H   0  0  0  0  0  0  0  0  0  0  0  0
   48.7081   34.3890   38.7148 H   0  0  0  0  0  0  0  0  0  0  0  0
   46.4044   33.4884   38.8868 H   0  0  0  0  0  0  0  0  0  0  0  0
   45.6215   33.2821   46.1395 H   0  0  0  0  0  0  0  0  0  0  0  0
   44.1207   35.2419   46.6428 H   0  0  0  0  0  0  0  0  0  0  0  0
   43.8644   37.0218   44.8538 H   0  0  0  0  0  0  0  0  0  0  0  0
   43.9370   35.4033   40.0884 H   0  0  0  0  0  0  0  0  0  0  0  0
   41.6465   34.0059   40.3932 H   0  0  0  0  0  0  0  0  0  0  0  0
   44.8700   31.5996   41.8446 H   0  0  0  0  0  0  0  0  0  0  0  0
  1 11  1  0
  2  1  2  0
  3  2  1  0
  4  5  1  0
  4  3  2  0
  5  6  2  0
  6 13  1  0
  6  1  1  0
  7  8  2  0
  9  8  1  0
 10  9  2  0
 11 10  1  0
 11 12  2  0
 12  7  1  0
 13 17  1  0
 14 15  2  0
 14 13  1  0
 15 16  1  0
 16 17  2  0
  2 18  1  0
  3 19  1  0
  4 20  1  0
  5 21  1  0
  7 22  1  0
  8 23  1  0
  9 24  1  0
 14 25  1  0
 15 26  1  0
 17 27  1  0
M  ISO  8  18  14  19  14  20  14  21  14  22  14  23  14  24  14  25  14
M  ISO  2  26  14  27  14
M  END
>  <minimizedAffinity>  (1) 
-5.27823687

>  <minimizedRMSD>  (1) 
0.501755953

$$$$
