
     RDKit          3D

 26 28  0  0  0  0  0  0  0  0999 V2000
   46.7240   34.7860   42.0090 C   0  0  0  0  0  0  0  0  0  0  0  0
   48.0170   35.2870   41.9450 C   0  0  0  0  0  0  0  0  0  0  0  0
   48.7150   35.1380   40.7480 C   0  0  0  0  0  0  0  0  0  0  0  0
   48.1700   34.5210   39.6460 C   0  0  0  0  0  0  0  0  0  0  0  0
   46.8890   34.0370   39.7390 C   0  0  0  0  0  0  0  0  0  0  0  0
   46.1830   34.1710   40.9080 C   0  0  0  0  0  0  0  0  0  0  0  0
   45.4930   34.0720   45.3680 C   0  0  0  0  0  0  0  0  0  0  0  0
   44.6470   35.1500   45.6670 C   0  0  0  0  0  0  0  0  0  0  0  0
   44.5090   36.1360   44.6790 C   0  0  0  0  0  0  0  0  0  0  0  0
   45.1850   36.0030   43.5110 N   0  0  0  0  0  0  0  0  0  0  0  0
   45.9950   34.9400   43.2590 C   0  0  0  0  0  0  0  0  0  0  0  0
   46.1410   33.9880   44.1880 N   0  0  0  0  0  0  0  0  0  0  0  0
   44.8600   33.6500   40.9490 N   0  0  0  0  0  0  0  0  0  0  0  0
   44.2580   32.4990   41.3020 C   0  0  0  0  0  0  0  0  0  0  0  0
   42.9340   32.5950   41.1170 N   0  0  0  0  0  0  0  0  0  0  0  0
   42.6850   33.8230   40.6410 C   0  0  0  0  0  0  0  0  0  0  0  0
   43.8890   34.4520   40.5460 N   0  0  0  0  0  0  0  0  0  0  0  0
   48.4760   35.7857   42.8114 H   0  0  0  0  0  0  0  0  0  0  0  0
   49.7411   35.5288   40.6819 H   0  0  0  0  0  0  0  0  0  0  0  0
   48.7458   34.4182   38.7144 H   0  0  0  0  0  0  0  0  0  0  0  0
   46.4267   33.5400   38.8734 H   0  0  0  0  0  0  0  0  0  0  0  0
   45.6314   33.2756   46.1140 H   0  0  0  0  0  0  0  0  0  0  0  0
   44.1178   35.2188   46.6289 H   0  0  0  0  0  0  0  0  0  0  0  0
   43.8597   37.0074   44.8497 H   0  0  0  0  0  0  0  0  0  0  0  0
   44.7773   31.6088   41.6865 H   0  0  0  0  0  0  0  0  0  0  0  0
   41.7017   34.2405   40.3787 H   0  0  0  0  0  0  0  0  0  0  0  0
  1 11  1  0
  2  1  2  0
  3  2  1  0
  4  5  1  0
  4  3  2  0
  5  6  2  0
  6 13  1  0
  6  1  1  0
  7  8  2  0
  9  8  1  0
 10  9  2  0
 11 10  1  0
 11 12  2  0
 12  7  1  0
 13 14  1  0
 15 14  2  0
 16 15  1  0
 17 16  2  0
 17 13  1  0
  2 18  1  0
  3 19  1  0
  4 20  1  0
  5 21  1  0
  7 22  1  0
  8 23  1  0
  9 24  1  0
 14 25  1  0
 16 26  1  0
M  ISO  8  18  14  19  14  20  14  21  14  22  14  23  14  24  14  25  14
M  ISO  1  26  14
M  END
>  <minimizedAffinity>  (1) 
-5.28042936

>  <minimizedRMSD>  (1) 
0.360591471

$$$$
