
     RDKit          3D

 23 24  0  0  0  0  0  0  0  0999 V2000
   46.7600   34.7580   41.9380 C   0  0  0  0  0  0  0  0  0  0  0  0
   48.0260   35.3350   41.8560 C   0  0  0  0  0  0  0  0  0  0  0  0
   48.7130   35.1800   40.6500 C   0  0  0  0  0  0  0  0  0  0  0  0
   48.2100   34.4980   39.5670 C   0  0  0  0  0  0  0  0  0  0  0  0
   46.9490   33.9400   39.6880 C   0  0  0  0  0  0  0  0  0  0  0  0
   46.2480   34.0750   40.8620 C   0  0  0  0  0  0  0  0  0  0  0  0
   45.5570   34.0580   45.3170 C   0  0  0  0  0  0  0  0  0  0  0  0
   44.6870   35.1140   45.5960 C   0  0  0  0  0  0  0  0  0  0  0  0
   44.5110   36.0940   44.5880 C   0  0  0  0  0  0  0  0  0  0  0  0
   45.1960   35.9400   43.4280 N   0  0  0  0  0  0  0  0  0  0  0  0
   46.0250   34.9120   43.1970 C   0  0  0  0  0  0  0  0  0  0  0  0
   46.2130   33.9610   44.1400 N   0  0  0  0  0  0  0  0  0  0  0  0
   44.8860   33.4600   40.9670 C   0  0  0  0  0  0  0  0  0  0  0  0
   44.5420   32.8400   39.7700 F   0  0  0  0  0  0  0  0  0  0  0  0
   43.9290   34.4240   41.2110 F   0  0  0  0  0  0  0  0  0  0  0  0
   44.8770   32.5020   41.9620 F   0  0  0  0  0  0  0  0  0  0  0  0
   48.4635   35.8865   42.7013 H   0  0  0  0  0  0  0  0  0  0  0  0
   49.7133   35.6290   40.5614 H   0  0  0  0  0  0  0  0  0  0  0  0
   48.7894   34.3993   38.6372 H   0  0  0  0  0  0  0  0  0  0  0  0
   46.5082   33.3886   38.8444 H   0  0  0  0  0  0  0  0  0  0  0  0
   45.7131   33.2807   46.0795 H   0  0  0  0  0  0  0  0  0  0  0  0
   44.1598   35.1822   46.5590 H   0  0  0  0  0  0  0  0  0  0  0  0
   43.8402   36.9522   44.7415 H   0  0  0  0  0  0  0  0  0  0  0  0
  1 11  1  0
  2  1  2  0
  3  2  1  0
  4  5  1  0
  4  3  2  0
  5  6  2  0
  6 13  1  0
  6  1  1  0
  7  8  2  0
  9  8  1  0
 10  9  2  0
 11 10  1  0
 11 12  2  0
 12  7  1  0
 13 15  1  0
 13 16  1  0
 14 13  1  0
  2 17  1  0
  3 18  1  0
  4 19  1  0
  5 20  1  0
  7 21  1  0
  8 22  1  0
  9 23  1  0
M  ISO  7  17  14  18  14  19  14  20  14  21  14  22  14  23  14
M  END
>  <minimizedAffinity>  (1) 
-5.11353445

>  <minimizedRMSD>  (1) 
0.160743564

$$$$
