
     RDKit          3D

 21 22  0  0  0  0  0  0  0  0999 V2000
   46.7700   34.7330   41.9820 C   0  0  0  0  0  0  0  0  0  0  0  0
   47.9690   35.4080   41.8270 C   0  0  0  0  0  0  0  0  0  0  0  0
   48.6720   35.2740   40.6410 C   0  0  0  0  0  0  0  0  0  0  0  0
   48.2120   34.4830   39.6010 C   0  0  0  0  0  0  0  0  0  0  0  0
   47.0210   33.8140   39.7600 C   0  0  0  0  0  0  0  0  0  0  0  0
   46.3120   33.9420   40.9390 C   0  0  0  0  0  0  0  0  0  0  0  0
   45.5210   33.9680   45.3150 C   0  0  0  0  0  0  0  0  0  0  0  0
   44.6920   35.0690   45.6280 C   0  0  0  0  0  0  0  0  0  0  0  0
   44.5750   36.0820   44.6600 C   0  0  0  0  0  0  0  0  0  0  0  0
   45.2610   35.9500   43.4840 N   0  0  0  0  0  0  0  0  0  0  0  0
   46.0410   34.8800   43.2280 C   0  0  0  0  0  0  0  0  0  0  0  0
   46.1680   33.8960   44.1410 N   0  0  0  0  0  0  0  0  0  0  0  0
   45.1030   33.2690   41.1090 O   0  0  0  0  0  0  0  0  0  0  0  0
   48.3587   36.0432   42.6362 H   0  0  0  0  0  0  0  0  0  0  0  0
   49.6241   35.8118   40.5215 H   0  0  0  0  0  0  0  0  0  0  0  0
   48.7871   34.3919   38.6678 H   0  0  0  0  0  0  0  0  0  0  0  0
   46.6336   33.1783   38.9502 H   0  0  0  0  0  0  0  0  0  0  0  0
   45.6382   33.1552   46.0468 H   0  0  0  0  0  0  0  0  0  0  0  0
   44.1604   35.1308   46.5890 H   0  0  0  0  0  0  0  0  0  0  0  0
   43.9439   36.9638   44.8449 H   0  0  0  0  0  0  0  0  0  0  0  0
   44.5985   33.3638   41.9555 H   0  0  0  0  0  0  0  0  0  0  0  0
  1 11  1  0
  2  1  2  0
  3  2  1  0
  4  5  1  0
  4  3  2  0
  5  6  2  0
  6 13  1  0
  6  1  1  0
  7  8  2  0
  9  8  1  0
 10  9  2  0
 11 10  1  0
 11 12  2  0
 12  7  1  0
  2 14  1  0
  3 15  1  0
  4 16  1  0
  5 17  1  0
  7 18  1  0
  8 19  1  0
  9 20  1  0
 13 21  1  0
M  ISO  8  14  14  15  14  16  14  17  14  18  14  19  14  20  14  21   3
M  END
>  <minimizedAffinity>  (1) 
-4.89981747

>  <minimizedRMSD>  (1) 
0.0450649485

$$$$
