
     RDKit          3D

 23 24  0  0  0  0  0  0  0  0999 V2000
   46.7640   34.7600   41.9220 C   0  0  0  0  0  0  0  0  0  0  0  0
   48.0160   35.3760   41.8220 C   0  0  0  0  0  0  0  0  0  0  0  0
   48.7360   35.2400   40.6440 C   0  0  0  0  0  0  0  0  0  0  0  0
   48.2380   34.5080   39.5680 C   0  0  0  0  0  0  0  0  0  0  0  0
   46.9950   33.9090   39.6920 C   0  0  0  0  0  0  0  0  0  0  0  0
   46.2900   34.0450   40.8540 C   0  0  0  0  0  0  0  0  0  0  0  0
   45.5980   34.0340   45.3010 C   0  0  0  0  0  0  0  0  0  0  0  0
   44.7050   35.1010   45.5790 C   0  0  0  0  0  0  0  0  0  0  0  0
   44.5210   36.0650   44.5740 C   0  0  0  0  0  0  0  0  0  0  0  0
   45.1930   35.9290   43.4110 N   0  0  0  0  0  0  0  0  0  0  0  0
   46.0320   34.9120   43.1720 C   0  0  0  0  0  0  0  0  0  0  0  0
   46.2370   33.9620   44.1150 N   0  0  0  0  0  0  0  0  0  0  0  0
   44.9560   33.4000   40.9840 C   0  0  0  0  0  0  0  0  0  0  0  0
   48.4223   35.9578   42.6624 H   0  0  0  0  0  0  0  0  0  0  0  0
   49.7217   35.7206   40.5575 H   0  0  0  0  0  0  0  0  0  0  0  0
   48.8196   34.4079   38.6397 H   0  0  0  0  0  0  0  0  0  0  0  0
   46.5774   33.3261   38.8579 H   0  0  0  0  0  0  0  0  0  0  0  0
   45.7711   33.2573   46.0605 H   0  0  0  0  0  0  0  0  0  0  0  0
   44.1783   35.1705   46.5422 H   0  0  0  0  0  0  0  0  0  0  0  0
   43.8415   36.9155   44.7318 H   0  0  0  0  0  0  0  0  0  0  0  0
   44.7088   33.2805   42.0492 H   0  0  0  0  0  0  0  0  0  0  0  0
   44.1954   34.0299   40.4995 H   0  0  0  0  0  0  0  0  0  0  0  0
   44.9773   32.4127   40.4995 H   0  0  0  0  0  0  0  0  0  0  0  0
  1 11  1  0
  2  1  2  0
  3  2  1  0
  4  5  1  0
  4  3  2  0
  5  6  2  0
  6 13  1  0
  6  1  1  0
  7  8  2  0
  9  8  1  0
 10  9  2  0
 11 10  1  0
 11 12  2  0
 12  7  1  0
  2 14  1  0
  3 15  1  0
  4 16  1  0
  5 17  1  0
  7 18  1  0
  8 19  1  0
  9 20  1  0
 13 21  1  0
 13 22  1  0
 13 23  1  0
M  ISO  8  14  14  15  14  16  14  17  14  18  14  19  14  20  14  21   8
M  ISO  2  22   8  23   8
M  END
>  <minimizedAffinity>  (1) 
-4.99095535

>  <minimizedRMSD>  (1) 
0.0746570155

$$$$
