
     RDKit          3D

 29 30  0  0  0  0  0  0  0  0999 V2000
   46.7590   34.7960   42.0090 C   0  0  0  0  0  0  0  0  0  0  0  0
   48.0380   35.3030   41.9410 C   0  0  0  0  0  0  0  0  0  0  0  0
   48.7330   35.1540   40.7440 C   0  0  0  0  0  0  0  0  0  0  0  0
   48.1870   34.5220   39.6360 C   0  0  0  0  0  0  0  0  0  0  0  0
   46.9170   34.0290   39.7330 C   0  0  0  0  0  0  0  0  0  0  0  0
   46.2060   34.1600   40.9000 C   0  0  0  0  0  0  0  0  0  0  0  0
   45.5020   34.0760   45.3650 C   0  0  0  0  0  0  0  0  0  0  0  0
   44.6470   35.1480   45.6460 C   0  0  0  0  0  0  0  0  0  0  0  0
   44.5040   36.1470   44.6440 C   0  0  0  0  0  0  0  0  0  0  0  0
   45.2000   36.0010   43.4840 N   0  0  0  0  0  0  0  0  0  0  0  0
   46.0170   34.9430   43.2560 C   0  0  0  0  0  0  0  0  0  0  0  0
   46.1580   33.9990   44.1950 N   0  0  0  0  0  0  0  0  0  0  0  0
   44.8220   33.6140   40.9830 C   0  0  0  0  0  0  0  0  0  0  0  0
   44.7960   32.6590   42.1600 C   0  0  0  0  0  0  0  0  0  0  0  0
   43.8550   34.7480   41.3510 C   0  0  0  0  0  0  0  0  0  0  0  0
   48.4952   35.8090   42.8041 H   0  0  0  0  0  0  0  0  0  0  0  0
   49.7556   35.5532   40.6738 H   0  0  0  0  0  0  0  0  0  0  0  0
   48.7620   34.4207   38.7038 H   0  0  0  0  0  0  0  0  0  0  0  0
   46.4604   33.5231   38.8695 H   0  0  0  0  0  0  0  0  0  0  0  0
   45.6392   33.2830   46.1149 H   0  0  0  0  0  0  0  0  0  0  0  0
   44.1079   35.2150   46.6025 H   0  0  0  0  0  0  0  0  0  0  0  0
   43.8476   37.0153   44.8027 H   0  0  0  0  0  0  0  0  0  0  0  0
   44.5423   33.1423   40.0295 H   0  0  0  0  0  0  0  0  0  0  0  0
   44.8116   33.2329   43.0983 H   0  0  0  0  0  0  0  0  0  0  0  0
   43.8809   32.0500   42.1179 H   0  0  0  0  0  0  0  0  0  0  0  0
   45.6766   32.0011   42.1179 H   0  0  0  0  0  0  0  0  0  0  0  0
   43.7853   34.8297   42.4457 H   0  0  0  0  0  0  0  0  0  0  0  0
   44.2268   35.6962   40.9355 H   0  0  0  0  0  0  0  0  0  0  0  0
   42.8600   34.5307   40.9355 H   0  0  0  0  0  0  0  0  0  0  0  0
  1 11  1  0
  2  1  2  0
  3  2  1  0
  4  5  1  0
  4  3  2  0
  5  6  2  0
  6 13  1  0
  6  1  1  0
  7  8  2  0
  9  8  1  0
 10  9  2  0
 11 10  1  0
 11 12  2  0
 12  7  1  0
 13 15  1  0
 13 14  1  0
  2 16  1  0
  3 17  1  0
  4 18  1  0
  5 19  1  0
  7 20  1  0
  8 21  1  0
  9 22  1  0
 13 23  1  0
 14 24  1  0
 14 25  1  0
 14 26  1  0
 15 27  1  0
 15 28  1  0
 15 29  1  0
M  ISO  8  16  14  17  14  18  14  19  14  20  14  21  14  22  14  23   8
M  ISO  6  24   8  25   8  26   8  27   8  28   8  29   8
M  END
>  <minimizedAffinity>  (1) 
-5.13735485

>  <minimizedRMSD>  (1) 
0.391001791

$$$$
