
     RDKit          3D

 25 26  0  0  0  0  0  0  0  0999 V2000
   47.2100   34.0860   40.9620 C   0  0  0  0  0  0  0  0  0  0  0  0
   48.2740   34.8980   40.6240 C   0  0  0  0  0  0  0  0  0  0  0  0
   48.6870   34.9530   39.2910 C   0  0  0  0  0  0  0  0  0  0  0  0
   48.0770   34.2330   38.3080 C   0  0  0  0  0  0  0  0  0  0  0  0
   47.0240   33.4310   38.6480 C   0  0  0  0  0  0  0  0  0  0  0  0
   46.6060   33.3670   39.9630 C   0  0  0  0  0  0  0  0  0  0  0  0
   46.9830   32.9570   44.4120 C   0  0  0  0  0  0  0  0  0  0  0  0
   46.0670   33.8210   45.0070 C   0  0  0  0  0  0  0  0  0  0  0  0
   45.5300   34.8060   44.1780 C   0  0  0  0  0  0  0  0  0  0  0  0
   45.9000   34.8900   42.8720 N   0  0  0  0  0  0  0  0  0  0  0  0
   46.7870   34.0330   42.3460 C   0  0  0  0  0  0  0  0  0  0  0  0
   47.3230   33.0720   43.1180 N   0  0  0  0  0  0  0  0  0  0  0  0
   44.5310   35.8080   44.6820 C   0  0  0  0  0  0  0  0  0  0  0  0
   44.3660   35.6600   46.0230 F   0  0  0  0  0  0  0  0  0  0  0  0
   43.3250   35.7220   44.0330 F   0  0  0  0  0  0  0  0  0  0  0  0
   45.0170   37.1000   44.4670 F   0  0  0  0  0  0  0  0  0  0  0  0
   45.4930   32.5180   40.3210 N   0  0  0  0  0  0  0  0  0  0  0  0
   48.7888   35.4927   41.3930 H   0  0  0  0  0  0  0  0  0  0  0  0
   49.5353   35.6009   39.0250 H   0  0  0  0  0  0  0  0  0  0  0  0
   48.4238   34.2958   37.2660 H   0  0  0  0  0  0  0  0  0  0  0  0
   46.5107   32.8381   37.8766 H   0  0  0  0  0  0  0  0  0  0  0  0
   47.4396   32.1601   45.0174 H   0  0  0  0  0  0  0  0  0  0  0  0
   45.7842   33.7321   46.0663 H   0  0  0  0  0  0  0  0  0  0  0  0
   45.1781   32.4673   41.3004 H   0  0  0  0  0  0  0  0  0  0  0  0
   45.0145   31.9634   39.5968 H   0  0  0  0  0  0  0  0  0  0  0  0
  1 11  1  0
  2  1  2  0
  3  2  1  0
  4  5  1  0
  4  3  2  0
  5  6  2  0
  6 17  1  0
  6  1  1  0
  7  8  2  0
  9 13  1  0
  9  8  1  0
 10  9  2  0
 11 10  1  0
 11 12  2  0
 12  7  1  0
 13 14  1  0
 15 13  1  0
 16 13  1  0
  2 18  1  0
  3 19  1  0
  4 20  1  0
  5 21  1  0
  7 22  1  0
  8 23  1  0
 17 24  1  0
 17 25  1  0
M  ISO  6  18  14  19  14  20  14  21  14  22  14  23  14
M  END
>  <minimizedAffinity>  (1) 
-4.98909378

>  <minimizedRMSD>  (1) 
1.52350092

$$$$
