
     RDKit          3D

 28 29  0  0  0  0  0  0  0  0999 V2000
   47.4850   34.0580   41.9880 C   0  0  0  0  0  0  0  0  0  0  0  0
   48.3280   35.1440   41.8790 C   0  0  0  0  0  0  0  0  0  0  0  0
   48.7890   35.5050   40.6120 C   0  0  0  0  0  0  0  0  0  0  0  0
   48.4340   34.8200   39.4820 C   0  0  0  0  0  0  0  0  0  0  0  0
   47.5930   33.7380   39.6030 C   0  0  0  0  0  0  0  0  0  0  0  0
   47.1380   33.3810   40.8520 C   0  0  0  0  0  0  0  0  0  0  0  0
   47.1210   32.1610   45.0760 C   0  0  0  0  0  0  0  0  0  0  0  0
   46.1870   32.8750   45.8200 C   0  0  0  0  0  0  0  0  0  0  0  0
   45.6730   34.0450   45.2310 C   0  0  0  0  0  0  0  0  0  0  0  0
   46.1140   34.3950   43.9970 N   0  0  0  0  0  0  0  0  0  0  0  0
   47.0100   33.6890   43.3090 C   0  0  0  0  0  0  0  0  0  0  0  0
   47.5130   32.5620   43.8610 N   0  0  0  0  0  0  0  0  0  0  0  0
   44.6870   34.9800   45.7840 C   0  0  0  0  0  0  0  0  0  0  0  0
   44.4160   36.1780   44.9460 C   0  0  0  0  0  0  0  0  0  0  0  0
   46.2580   32.2480   40.9770 N   0  0  0  0  0  0  0  0  0  0  0  0
   48.6303   35.7129   42.7706 H   0  0  0  0  0  0  0  0  0  0  0  0
   49.4613   36.3706   40.5186 H   0  0  0  0  0  0  0  0  0  0  0  0
   48.8134   35.1282   38.4966 H   0  0  0  0  0  0  0  0  0  0  0  0
   47.2885   33.1662   38.7140 H   0  0  0  0  0  0  0  0  0  0  0  0
   47.5496   31.2403   45.4987 H   0  0  0  0  0  0  0  0  0  0  0  0
   45.8666   32.5418   46.8181 H   0  0  0  0  0  0  0  0  0  0  0  0
   43.7400   34.4367   45.9186 H   0  0  0  0  0  0  0  0  0  0  0  0
   45.1141   35.3547   46.7259 H   0  0  0  0  0  0  0  0  0  0  0  0
   44.2202   37.0435   45.5961 H   0  0  0  0  0  0  0  0  0  0  0  0
   45.2897   36.3865   44.3110 H   0  0  0  0  0  0  0  0  0  0  0  0
   43.5376   35.9902   44.3110 H   0  0  0  0  0  0  0  0  0  0  0  0
   45.9083   31.9673   41.9043 H   0  0  0  0  0  0  0  0  0  0  0  0
   45.9783   31.7183   40.1391 H   0  0  0  0  0  0  0  0  0  0  0  0
  1 11  1  0
  2  1  2  0
  3  2  1  0
  4  5  1  0
  4  3  2  0
  5  6  2  0
  6 15  1  0
  6  1  1  0
  7  8  2  0
  9 13  1  0
  9  8  1  0
 10  9  2  0
 11 12  2  0
 11 10  1  0
 12  7  1  0
 14 13  1  0
  2 16  1  0
  3 17  1  0
  4 18  1  0
  5 19  1  0
  7 20  1  0
  8 21  1  0
 13 22  1  0
 13 23  1  0
 14 24  1  0
 14 25  1  0
 14 26  1  0
 15 27  1  0
 15 28  1  0
M  ISO  8  16  14  17  14  18  14  19  14  20  14  21  14  22   8  23   8
M  ISO  3  24   8  25   8  26   8
M  END
>  <minimizedAffinity>  (1) 
-4.4271369

>  <minimizedRMSD>  (1) 
1.72485673

$$$$
