
     RDKit          3D

 32 33  0  0  0  0  0  0  0  0999 V2000
   47.8780   33.5890   43.0230 C   0  0  0  0  0  0  0  0  0  0  0  0
   49.1070   34.1930   43.1580 C   0  0  0  0  0  0  0  0  0  0  0  0
   49.5140   35.1320   42.2120 C   0  0  0  0  0  0  0  0  0  0  0  0
   48.7460   35.4800   41.1530 C   0  0  0  0  0  0  0  0  0  0  0  0
   47.5200   34.8790   41.0140 C   0  0  0  0  0  0  0  0  0  0  0  0
   47.1070   33.9450   41.9500 C   0  0  0  0  0  0  0  0  0  0  0  0
   47.4840   30.3970   44.7170 C   0  0  0  0  0  0  0  0  0  0  0  0
   46.7520   30.7030   45.8490 C   0  0  0  0  0  0  0  0  0  0  0  0
   46.3810   32.0320   46.0410 C   0  0  0  0  0  0  0  0  0  0  0  0
   46.7580   32.9650   45.1070 N   0  0  0  0  0  0  0  0  0  0  0  0
   47.4720   32.6160   44.0170 C   0  0  0  0  0  0  0  0  0  0  0  0
   47.8360   31.3360   43.8210 N   0  0  0  0  0  0  0  0  0  0  0  0
   45.6600   32.5730   47.0750 O   0  0  0  0  0  0  0  0  0  0  0  0
   46.1450   32.5480   48.3850 C   0  0  0  0  0  0  0  0  0  0  0  0
   47.6220   32.2030   48.2940 C   0  0  0  0  0  0  0  0  0  0  0  0
   45.4940   31.4280   49.1940 C   0  0  0  0  0  0  0  0  0  0  0  0
   45.8170   33.3150   41.8040 N   0  0  0  0  0  0  0  0  0  0  0  0
   49.7617   33.9372   44.0041 H   0  0  0  0  0  0  0  0  0  0  0  0
   50.4980   35.6091   42.3305 H   0  0  0  0  0  0  0  0  0  0  0  0
   49.0954   36.2250   40.4230 H   0  0  0  0  0  0  0  0  0  0  0  0
   46.8698   35.1372   40.1652 H   0  0  0  0  0  0  0  0  0  0  0  0
   47.7877   29.3540   44.5439 H   0  0  0  0  0  0  0  0  0  0  0  0
   46.4721   29.9239   46.5733 H   0  0  0  0  0  0  0  0  0  0  0  0
   45.9409   33.5162   48.8656 H   0  0  0  0  0  0  0  0  0  0  0  0
   48.0389   32.1056   49.3073 H   0  0  0  0  0  0  0  0  0  0  0  0
   47.7439   31.2522   47.7544 H   0  0  0  0  0  0  0  0  0  0  0  0
   48.1525   33.0014   47.7544 H   0  0  0  0  0  0  0  0  0  0  0  0
   45.6138   31.6341   50.2679 H   0  0  0  0  0  0  0  0  0  0  0  0
   44.4232   31.3730   48.9484 H   0  0  0  0  0  0  0  0  0  0  0  0
   45.9762   30.4703   48.9484 H   0  0  0  0  0  0  0  0  0  0  0  0
   45.5023   32.6195   42.4955 H   0  0  0  0  0  0  0  0  0  0  0  0
   45.2109   33.5608   41.0083 H   0  0  0  0  0  0  0  0  0  0  0  0
  1  2  2  0
  1 11  1  0
  3  2  1  0
  4  3  2  0
  5  4  1  0
  5  6  2  0
  6  1  1  0
  7  8  2  0
  8  9  1  0
  9 13  1  0
 10  9  2  0
 11 10  1  0
 12 11  2  0
 12  7  1  0
 13 14  1  0
 14 16  1  0
 15 14  1  0
 17  6  1  0
  2 18  1  0
  3 19  1  0
  4 20  1  0
  5 21  1  0
  7 22  1  0
  8 23  1  0
 14 24  1  0
 15 25  1  0
 15 26  1  0
 15 27  1  0
 16 28  1  0
 16 29  1  0
 16 30  1  0
 17 31  1  0
 17 32  1  0
M  ISO  8  18  14  19  14  20  14  21  14  22  14  23  14  24   8  25   8
M  ISO  5  26   8  27   8  28   8  29   8  30   8
M  END
>  <minimizedAffinity>  (1) 
-4.77258682

>  <minimizedRMSD>  (1) 
3.30299711

$$$$
