
     RDKit          3D

 27 28  0  0  0  0  0  0  0  0999 V2000
   47.1870   32.2090   45.0610 C   0  0  0  0  0  0  0  0  0  0  0  0
   46.2590   32.9510   45.7890 C   0  0  0  0  0  0  0  0  0  0  0  0
   45.7530   34.0860   45.1780 C   0  0  0  0  0  0  0  0  0  0  0  0
   46.1560   34.4400   43.9260 N   0  0  0  0  0  0  0  0  0  0  0  0
   47.0550   33.6960   43.2550 C   0  0  0  0  0  0  0  0  0  0  0  0
   47.5620   32.5860   43.8330 N   0  0  0  0  0  0  0  0  0  0  0  0
   47.5100   34.0350   41.9280 C   0  0  0  0  0  0  0  0  0  0  0  0
   48.3360   35.1240   41.7620 C   0  0  0  0  0  0  0  0  0  0  0  0
   48.7810   35.4580   40.4790 C   0  0  0  0  0  0  0  0  0  0  0  0
   48.4190   34.7370   39.3890 C   0  0  0  0  0  0  0  0  0  0  0  0
   47.6030   33.6600   39.5420 C   0  0  0  0  0  0  0  0  0  0  0  0
   47.1570   33.3210   40.8110 C   0  0  0  0  0  0  0  0  0  0  0  0
   46.2940   32.1820   40.9790 N   0  0  0  0  0  0  0  0  0  0  0  0
   44.8160   34.9840   45.7100 O   0  0  0  0  0  0  0  0  0  0  0  0
   44.3010   35.9360   44.8280 C   0  0  0  0  0  0  0  0  0  0  0  0
   43.3150   35.7800   43.8030 N   0  0  0  0  0  0  0  0  0  0  0  0
   44.7480   37.1110   44.9240 O   0  0  0  0  0  0  0  0  0  0  0  0
   47.6183   31.2987   45.5029 H   0  0  0  0  0  0  0  0  0  0  0  0
   45.9440   32.6500   46.7990 H   0  0  0  0  0  0  0  0  0  0  0  0
   48.6429   35.7256   42.6303 H   0  0  0  0  0  0  0  0  0  0  0  0
   49.4417   36.3280   40.3507 H   0  0  0  0  0  0  0  0  0  0  0  0
   48.7821   35.0208   38.3902 H   0  0  0  0  0  0  0  0  0  0  0  0
   47.2998   33.0639   38.6687 H   0  0  0  0  0  0  0  0  0  0  0  0
   45.9587   31.9240   41.9181 H   0  0  0  0  0  0  0  0  0  0  0  0
   46.0115   31.6247   40.1602 H   0  0  0  0  0  0  0  0  0  0  0  0
   42.8836   34.8591   43.6392 H   0  0  0  0  0  0  0  0  0  0  0  0
   43.0366   36.5886   43.2289 H   0  0  0  0  0  0  0  0  0  0  0  0
  1  2  2  0
  3 14  1  0
  3  2  1  0
  4  3  2  0
  5  6  2  0
  5  4  1  0
  6  1  1  0
  7  5  1  0
  8  7  2  0
  9  8  1  0
 10 11  1  0
 10  9  2  0
 11 12  2  0
 12 13  1  0
 12  7  1  0
 15 17  2  0
 15 14  1  0
 16 15  1  0
  1 18  1  0
  2 19  1  0
  8 20  1  0
  9 21  1  0
 10 22  1  0
 11 23  1  0
 13 24  1  0
 13 25  1  0
 16 26  1  0
 16 27  1  0
M  ISO  6  18  14  19  14  20  14  21  14  22  14  23  14
M  END
>  <minimizedAffinity>  (1) 
-5.03795004

>  <minimizedRMSD>  (1) 
1.3005861

$$$$
