
     RDKit          3D

 33 34  0  0  1  0  0  0  0  0999 V2000
   47.9400   30.6960   44.1450 C   0  0  0  0  0  0  0  0  0  0  0  0
   47.0300   30.9920   45.1650 C   0  0  0  0  0  0  0  0  0  0  0  0
   46.4800   32.2860   45.2110 C   0  0  0  0  0  0  0  0  0  0  0  0
   46.8550   33.1870   44.2660 N   0  0  0  0  0  0  0  0  0  0  0  0
   47.7430   32.8630   43.2900 C   0  0  0  0  0  0  0  0  0  0  0  0
   48.2830   31.6260   43.2280 N   0  0  0  0  0  0  0  0  0  0  0  0
   48.1340   33.8210   42.2840 C   0  0  0  0  0  0  0  0  0  0  0  0
   48.8890   34.8920   42.6600 C   0  0  0  0  0  0  0  0  0  0  0  0
   49.2700   35.8240   41.6800 C   0  0  0  0  0  0  0  0  0  0  0  0
   48.9260   35.7090   40.3870 C   0  0  0  0  0  0  0  0  0  0  0  0
   48.1660   34.6340   39.9990 C   0  0  0  0  0  0  0  0  0  0  0  0
   47.7870   33.7150   40.9550 C   0  0  0  0  0  0  0  0  0  0  0  0
   46.9840   32.5770   40.5450 N   0  0  0  0  0  0  0  0  0  0  0  0
   45.6050   32.6730   46.1290 O   0  0  0  0  0  0  0  0  0  0  0  0
   45.7550   32.4790   47.5030 C   0  0  2  0  0  0  0  0  0  0  0  0
   47.3060   32.4700   47.7380 C   0  0  0  0  0  0  0  0  0  0  0  0
   45.3370   31.0850   47.8830 C   0  0  0  0  0  0  0  0  0  0  0  0
   45.0980   31.0040   49.6780 S   0  0  0  0  0  0  0  0  0  0  0  0
   48.3829   29.6907   44.0889 H   0  0  0  0  0  0  0  0  0  0  0  0
   46.7518   30.2333   45.9113 H   0  0  0  0  0  0  0  0  0  0  0  0
   49.1936   35.0238   43.7087 H   0  0  0  0  0  0  0  0  0  0  0  0
   49.8783   36.6879   41.9861 H   0  0  0  0  0  0  0  0  0  0  0  0
   49.2473   36.4623   39.6526 H   0  0  0  0  0  0  0  0  0  0  0  0
   47.8657   34.5081   38.9483 H   0  0  0  0  0  0  0  0  0  0  0  0
   46.6889   31.8775   41.2410 H   0  0  0  0  0  0  0  0  0  0  0  0
   46.7095   32.4692   39.5581 H   0  0  0  0  0  0  0  0  0  0  0  0
   45.1801   33.2352   48.0576 H   0  0  0  0  0  0  0  0  0  0  0  0
   47.5132   32.4688   48.8183 H   0  0  0  0  0  0  0  0  0  0  0  0
   47.7410   31.5693   47.2802 H   0  0  0  0  0  0  0  0  0  0  0  0
   47.7514   33.3656   47.2802 H   0  0  0  0  0  0  0  0  0  0  0  0
   44.3951   30.8317   47.3745 H   0  0  0  0  0  0  0  0  0  0  0  0
   46.1163   30.3698   47.5809 H   0  0  0  0  0  0  0  0  0  0  0  0
   46.2492   31.3941   50.3100 H   0  0  0  0  0  0  0  0  0  0  0  0
  1  2  2  0
  2  3  1  0
  3 14  1  0
  4  3  2  0
  5  4  1  0
  6  5  2  0
  6  1  1  0
  7  8  2  0
  7  5  1  0
  9  8  1  0
 10  9  2  0
 11 10  1  0
 11 12  2  0
 12  7  1  0
 13 12  1  0
 14 15  1  0
 15 16  1  0
 15 17  1  0
 17 18  1  0
  1 19  1  0
  2 20  1  0
  8 21  1  0
  9 22  1  0
 10 23  1  0
 11 24  1  0
 13 25  1  0
 13 26  1  0
 15 27  1  1
 16 28  1  0
 16 29  1  0
 16 30  1  0
 17 31  1  0
 17 32  1  0
 18 33  1  0
M  ISO  8  19  14  20  14  21  14  22  14  23  14  24  14  27   8  28   8
M  ISO  5  29   8  30   8  31   8  32   8  33  11
M  END
>  <minimizedAffinity>  (1) 
-4.35611153

>  <minimizedRMSD>  (1) 
1.07435799

$$$$
