
     RDKit          3D

 45 47  0  0  1  0  0  0  0  0999 V2000
   48.7080   29.4000   41.5990 C   0  0  0  0  0  0  0  0  0  0  0  0
   48.3840   28.9240   42.8720 C   0  0  0  0  0  0  0  0  0  0  0  0
   48.1770   29.8650   43.8980 C   0  0  0  0  0  0  0  0  0  0  0  0
   48.3020   31.1830   43.6020 N   0  0  0  0  0  0  0  0  0  0  0  0
   48.6150   31.6050   42.3670 C   0  0  0  0  0  0  0  0  0  0  0  0
   48.8210   30.7240   41.3580 N   0  0  0  0  0  0  0  0  0  0  0  0
   48.7420   33.0160   42.0560 C   0  0  0  0  0  0  0  0  0  0  0  0
   49.6430   33.7670   42.7530 C   0  0  0  0  0  0  0  0  0  0  0  0
   49.7780   35.1140   42.4650 C   0  0  0  0  0  0  0  0  0  0  0  0
   49.0410   35.7400   41.5020 C   0  0  0  0  0  0  0  0  0  0  0  0
   48.1260   34.9880   40.7910 C   0  0  0  0  0  0  0  0  0  0  0  0
   47.9930   33.6420   41.0810 C   0  0  0  0  0  0  0  0  0  0  0  0
   47.0390   32.8660   40.3420 N   0  0  0  0  0  0  0  0  0  0  0  0
   47.8600   29.5240   45.1430 O   0  0  0  0  0  0  0  0  0  0  0  0
   48.6090   29.8450   46.2690 C   0  0  2  0  0  0  0  0  0  0  0  0
   49.9400   29.0230   46.1160 C   0  0  0  0  0  0  0  0  0  0  0  0
   47.9960   29.2670   47.5070 C   0  0  0  0  0  0  0  0  0  0  0  0
   47.1330   30.1520   48.2160 N   0  0  0  0  0  0  0  0  0  0  0  0
   47.3760   31.5450   48.0580 C   0  0  0  0  0  0  0  0  0  0  0  0
   46.2240   32.2860   48.7120 C   0  0  0  0  0  0  0  0  0  0  0  0
   45.0170   32.0820   48.1030 O   0  0  0  0  0  0  0  0  0  0  0  0
   44.8240   30.8170   47.6080 C   0  0  0  0  0  0  0  0  0  0  0  0
   45.7420   29.7780   48.1290 C   0  0  0  0  0  0  0  0  0  0  0  0
   48.8737   28.6848   40.7798 H   0  0  0  0  0  0  0  0  0  0  0  0
   48.2933   27.8452   43.0667 H   0  0  0  0  0  0  0  0  0  0  0  0
   50.2583   33.3048   43.5390 H   0  0  0  0  0  0  0  0  0  0  0  0
   50.5097   35.7045   43.0360 H   0  0  0  0  0  0  0  0  0  0  0  0
   49.1718   36.8129   41.2978 H   0  0  0  0  0  0  0  0  0  0  0  0
   47.5120   35.4528   40.0055 H   0  0  0  0  0  0  0  0  0  0  0  0
   46.9252   31.8623   40.5431 H   0  0  0  0  0  0  0  0  0  0  0  0
   46.4680   33.3126   39.6103 H   0  0  0  0  0  0  0  0  0  0  0  0
   48.7063   30.9380   46.3464 H   0  0  0  0  0  0  0  0  0  0  0  0
   50.3364   28.7782   47.1125 H   0  0  0  0  0  0  0  0  0  0  0  0
   49.7356   28.0936   45.5642 H   0  0  0  0  0  0  0  0  0  0  0  0
   50.6795   29.6219   45.5642 H   0  0  0  0  0  0  0  0  0  0  0  0
   47.4137   28.3796   47.2182 H   0  0  0  0  0  0  0  0  0  0  0  0
   48.8296   29.0369   48.1868 H   0  0  0  0  0  0  0  0  0  0  0  0
   48.3235   31.8186   48.5452 H   0  0  0  0  0  0  0  0  0  0  0  0
   47.4500   31.8070   46.9922 H   0  0  0  0  0  0  0  0  0  0  0  0
   46.1456   31.9513   49.7569 H   0  0  0  0  0  0  0  0  0  0  0  0
   46.4465   33.3600   48.6280 H   0  0  0  0  0  0  0  0  0  0  0  0
   43.7954   30.5121   47.8508 H   0  0  0  0  0  0  0  0  0  0  0  0
   45.0260   30.8826   46.5287 H   0  0  0  0  0  0  0  0  0  0  0  0
   45.4028   29.5044   49.1390 H   0  0  0  0  0  0  0  0  0  0  0  0
   45.7005   28.9529   47.4027 H   0  0  0  0  0  0  0  0  0  0  0  0
  1  2  2  0
  2  3  1  0
  3 14  1  0
  4  3  2  0
  5  4  1  0
  6  1  1  0
  6  5  2  0
  7  5  1  0
  7  8  2  0
  9  8  1  0
 10  9  2  0
 11 12  2  0
 11 10  1  0
 12  7  1  0
 13 12  1  0
 14 15  1  0
 15 17  1  0
 16 15  1  0
 17 18  1  0
 19 18  1  0
 19 20  1  0
 21 20  1  0
 22 21  1  0
 22 23  1  0
 23 18  1  0
  1 24  1  0
  2 25  1  0
  8 26  1  0
  9 27  1  0
 10 28  1  0
 11 29  1  0
 13 30  1  0
 13 31  1  0
 15 32  1  1
 16 33  1  0
 16 34  1  0
 16 35  1  0
 17 36  1  0
 17 37  1  0
 19 38  1  0
 19 39  1  0
 20 40  1  0
 20 41  1  0
 22 42  1  0
 22 43  1  0
 23 44  1  0
 23 45  1  0
M  ISO  8  24  14  25  14  26  14  27  14  28  14  29  14  32   8  33   8
M  ISO  8  34   8  35   8  36   8  37   8  38  13  39  13  40  13  41  13
M  ISO  4  42  13  43  13  44  13  45  13
M  END
>  <minimizedAffinity>  (1) 
-4.47945166

>  <minimizedRMSD>  (1) 
3.15220237

$$$$
