
     RDKit          3D

 34 35  0  0  1  0  0  0  0  0999 V2000
   47.6090   30.3170   44.5580 C   0  0  0  0  0  0  0  0  0  0  0  0
   46.8790   30.6090   45.7110 C   0  0  0  0  0  0  0  0  0  0  0  0
   46.5150   31.9520   45.9380 C   0  0  0  0  0  0  0  0  0  0  0  0
   46.8890   32.8920   45.0320 N   0  0  0  0  0  0  0  0  0  0  0  0
   47.5930   32.5630   43.9300 C   0  0  0  0  0  0  0  0  0  0  0  0
   47.9570   31.2850   43.6850 N   0  0  0  0  0  0  0  0  0  0  0  0
   47.9850   33.5670   42.9590 C   0  0  0  0  0  0  0  0  0  0  0  0
   49.1850   34.1970   43.1090 C   0  0  0  0  0  0  0  0  0  0  0  0
   49.5600   35.1570   42.1770 C   0  0  0  0  0  0  0  0  0  0  0  0
   48.7830   35.5070   41.1110 C   0  0  0  0  0  0  0  0  0  0  0  0
   47.5830   34.8780   40.9580 C   0  0  0  0  0  0  0  0  0  0  0  0
   47.1990   33.9170   41.8820 C   0  0  0  0  0  0  0  0  0  0  0  0
   45.9220   33.2580   41.7160 N   0  0  0  0  0  0  0  0  0  0  0  0
   45.8160   32.3530   46.9990 O   0  0  0  0  0  0  0  0  0  0  0  0
   46.3390   32.4920   48.2800 C   0  0  2  0  0  0  0  0  0  0  0  0
   47.8660   32.1700   48.1350 C   0  0  0  0  0  0  0  0  0  0  0  0
   45.8240   31.4080   49.1800 C   0  0  0  0  0  0  0  0  0  0  0  0
   44.3880   31.5740   49.2710 N   0  0  0  0  0  0  0  0  0  0  0  0
   47.9065   29.2772   44.3570 H   0  0  0  0  0  0  0  0  0  0  0  0
   46.5967   29.8167   46.4200 H   0  0  0  0  0  0  0  0  0  0  0  0
   49.8450   33.9495   43.9535 H   0  0  0  0  0  0  0  0  0  0  0  0
   50.5303   35.6593   42.3046 H   0  0  0  0  0  0  0  0  0  0  0  0
   49.1152   36.2742   40.3961 H   0  0  0  0  0  0  0  0  0  0  0  0
   46.9269   35.1296   40.1117 H   0  0  0  0  0  0  0  0  0  0  0  0
   45.6202   32.5420   42.3921 H   0  0  0  0  0  0  0  0  0  0  0  0
   45.3145   33.5048   40.9217 H   0  0  0  0  0  0  0  0  0  0  0  0
   46.0924   33.4865   48.6802 H   0  0  0  0  0  0  0  0  0  0  0  0
   48.3171   32.0749   49.1337 H   0  0  0  0  0  0  0  0  0  0  0  0
   47.9910   31.2257   47.5848 H   0  0  0  0  0  0  0  0  0  0  0  0
   48.3616   32.9834   47.5848 H   0  0  0  0  0  0  0  0  0  0  0  0
   46.0634   30.4213   48.7569 H   0  0  0  0  0  0  0  0  0  0  0  0
   46.2887   31.4726   50.1750 H   0  0  0  0  0  0  0  0  0  0  0  0
   44.1082   31.6063   50.2617 H   0  0  0  0  0  0  0  0  0  0  0  0
   44.1139   32.4523   48.8080 H   0  0  0  0  0  0  0  0  0  0  0  0
  1  2  2  0
  2  3  1  0
  3 14  1  0
  4  3  2  0
  5  4  1  0
  6  5  2  0
  6  1  1  0
  7  8  2  0
  7  5  1  0
  9  8  1  0
 10  9  2  0
 11 10  1  0
 11 12  2  0
 12  7  1  0
 13 12  1  0
 14 15  1  0
 15 17  1  0
 16 15  1  0
 17 18  1  0
  1 19  1  0
  2 20  1  0
  8 21  1  0
  9 22  1  0
 10 23  1  0
 11 24  1  0
 13 25  1  0
 13 26  1  0
 15 27  1  1
 16 28  1  0
 16 29  1  0
 16 30  1  0
 17 31  1  0
 17 32  1  0
 18 33  1  0
 18 34  1  0
M  ISO  8  19  14  20  14  21  14  22  14  23  14  24  14  27   8  28   8
M  ISO  6  29   8  30   8  31   8  32   8  33   5  34   5
M  END
>  <minimizedAffinity>  (1) 
-4.69092035

>  <minimizedRMSD>  (1) 
0.198129669

$$$$
