
     RDKit          3D

 39 40  0  0  1  0  0  0  0  0999 V2000
   44.8670   35.3440   44.6730 C   0  0  0  0  0  0  0  0  0  0  0  0
   45.8100   35.2320   43.6280 C   0  0  0  0  0  0  0  0  0  0  0  0
   46.7620   34.1660   43.6780 C   0  0  0  0  0  0  0  0  0  0  0  0
   46.7090   33.3180   44.7170 N   0  0  0  0  0  0  0  0  0  0  0  0
   45.7930   33.4470   45.7030 C   0  0  0  0  0  0  0  0  0  0  0  0
   44.8730   34.4470   45.6970 N   0  0  0  0  0  0  0  0  0  0  0  0
   45.7550   32.5160   46.8090 C   0  0  0  0  0  0  0  0  0  0  0  0
   45.8290   32.9880   48.0750 C   0  0  0  0  0  0  0  0  0  0  0  0
   45.7830   32.0700   49.1310 C   0  0  0  0  0  0  0  0  0  0  0  0
   45.6690   30.7180   48.9490 C   0  0  0  0  0  0  0  0  0  0  0  0
   45.5970   30.2660   47.6740 C   0  0  0  0  0  0  0  0  0  0  0  0
   45.6390   31.1450   46.6250 C   0  0  0  0  0  0  0  0  0  0  0  0
   45.5540   30.6180   45.2760 N   0  0  0  0  0  0  0  0  0  0  0  0
   47.6070   34.0920   42.7170 O   0  0  0  0  0  0  0  0  0  0  0  0
   48.9210   34.5180   42.6900 C   0  0  2  0  0  0  0  0  0  0  0  0
   48.8720   35.6350   41.5000 C   0  0  0  0  0  0  0  0  0  0  0  0
   49.7680   33.4860   42.0550 C   0  0  0  0  0  0  0  0  0  0  0  0
   49.2120   32.9200   40.9220 O   0  0  0  0  0  0  0  0  0  0  0  0
   50.0480   31.9250   40.4440 C   0  0  0  0  0  0  0  0  0  0  0  0
   51.3460   31.9740   41.2120 C   0  0  0  0  0  0  0  0  0  0  0  0
   44.1264   36.1573   44.6596 H   0  0  0  0  0  0  0  0  0  0  0  0
   45.8123   35.9490   42.7938 H   0  0  0  0  0  0  0  0  0  0  0  0
   45.9230   34.0666   48.2697 H   0  0  0  0  0  0  0  0  0  0  0  0
   45.8415   32.4549   50.1598 H   0  0  0  0  0  0  0  0  0  0  0  0
   45.6371   30.0264   49.8038 H   0  0  0  0  0  0  0  0  0  0  0  0
   45.5043   29.1871   47.4804 H   0  0  0  0  0  0  0  0  0  0  0  0
   45.4676   29.6029   45.1241 H   0  0  0  0  0  0  0  0  0  0  0  0
   45.5800   31.2589   44.4701 H   0  0  0  0  0  0  0  0  0  0  0  0
   49.2796   34.8012   43.6906 H   0  0  0  0  0  0  0  0  0  0  0  0
   48.8279   36.6409   41.9429 H   0  0  0  0  0  0  0  0  0  0  0  0
   49.7748   35.5476   40.8777 H   0  0  0  0  0  0  0  0  0  0  0  0
   47.9803   35.4689   40.8777 H   0  0  0  0  0  0  0  0  0  0  0  0
   50.7260   33.9488   41.7758 H   0  0  0  0  0  0  0  0  0  0  0  0
   49.8867   32.6759   42.7896 H   0  0  0  0  0  0  0  0  0  0  0  0
   49.5722   30.9431   40.5833 H   0  0  0  0  0  0  0  0  0  0  0  0
   50.2404   32.0798   39.3721 H   0  0  0  0  0  0  0  0  0  0  0  0
   51.1339   31.9660   42.2913 H   0  0  0  0  0  0  0  0  0  0  0  0
   51.9590   31.0984   40.9523 H   0  0  0  0  0  0  0  0  0  0  0  0
   51.8912   32.8934   40.9523 H   0  0  0  0  0  0  0  0  0  0  0  0
  1  6  2  0
  2  3  2  0
  2  1  1  0
  3  4  1  0
  4  5  2  0
  5  7  1  0
  6  5  1  0
  7  8  2  0
  8  9  1  0
 10  9  2  0
 11 10  1  0
 12  7  1  0
 12 11  2  0
 13 12  1  0
 14  3  1  0
 15 14  1  0
 16 15  1  0
 17 15  1  0
 18 17  1  0
 19 18  1  0
 19 20  1  0
  1 21  1  0
  2 22  1  0
  8 23  1  0
  9 24  1  0
 10 25  1  0
 11 26  1  0
 13 27  1  0
 13 28  1  0
 15 29  1  1
 16 30  1  0
 16 31  1  0
 16 32  1  0
 17 33  1  0
 17 34  1  0
 19 35  1  0
 19 36  1  0
 20 37  1  0
 20 38  1  0
 20 39  1  0
M  ISO  8  21  14  22  14  23  14  24  14  25  14  26  14  29   8  30   8
M  ISO  8  31   8  32   8  33   8  34   8  35   8  36   8  37   8  38   8
M  ISO  1  39   8
M  END
>  <minimizedAffinity>  (1) 
-5.05194998

>  <minimizedRMSD>  (1) 
7.13862371

$$$$
