
     RDKit          3D

 27 29  0  0  0  0  0  0  0  0999 V2000
   44.4880   35.8250   44.7230 C   0  0  0  0  0  0  0  0  0  0  0  0
   45.1940   35.7860   43.5090 C   0  0  0  0  0  0  0  0  0  0  0  0
   46.1610   34.8130   43.3310 C   0  0  0  0  0  0  0  0  0  0  0  0
   46.3940   33.9230   44.3500 N   0  0  0  0  0  0  0  0  0  0  0  0
   45.6930   33.9920   45.5060 C   0  0  0  0  0  0  0  0  0  0  0  0
   44.7590   34.9240   45.6900 N   0  0  0  0  0  0  0  0  0  0  0  0
   45.9730   33.0250   46.5610 C   0  0  0  0  0  0  0  0  0  0  0  0
   47.0490   32.1880   46.4730 C   0  0  0  0  0  0  0  0  0  0  0  0
   47.3810   31.2470   47.4280 C   0  0  0  0  0  0  0  0  0  0  0  0
   46.5510   31.1740   48.5320 C   0  0  0  0  0  0  0  0  0  0  0  0
   45.4490   31.9950   48.6770 C   0  0  0  0  0  0  0  0  0  0  0  0
   45.1710   32.9220   47.6760 C   0  0  0  0  0  0  0  0  0  0  0  0
   46.9160   34.7470   42.0740 C   0  0  0  0  0  0  0  0  0  0  0  0
   46.4550   34.1160   40.9490 C   0  0  0  0  0  0  0  0  0  0  0  0
   47.4470   34.2840   40.0230 N   0  0  0  0  0  0  0  0  0  0  0  0
   48.4330   34.9850   40.5990 C   0  0  0  0  0  0  0  0  0  0  0  0
   48.1370   35.2890   41.8740 N   0  0  0  0  0  0  0  0  0  0  0  0
   43.7144   36.5900   44.8851 H   0  0  0  0  0  0  0  0  0  0  0  0
   44.9816   36.5162   42.7142 H   0  0  0  0  0  0  0  0  0  0  0  0
   47.6924   32.2686   45.5844 H   0  0  0  0  0  0  0  0  0  0  0  0
   48.2574   30.5916   47.3167 H   0  0  0  0  0  0  0  0  0  0  0  0
   46.7752   30.4393   49.3194 H   0  0  0  0  0  0  0  0  0  0  0  0
   44.8046   31.9178   49.5651 H   0  0  0  0  0  0  0  0  0  0  0  0
   44.2972   33.5824   47.7772 H   0  0  0  0  0  0  0  0  0  0  0  0
   45.4977   33.5900   40.8191 H   0  0  0  0  0  0  0  0  0  0  0  0
   49.3657   35.2746   40.0928 H   0  0  0  0  0  0  0  0  0  0  0  0
   48.7115   35.8163   42.5469 H   0  0  0  0  0  0  0  0  0  0  0  0
  1  6  2  0
  2  1  1  0
  3  2  2  0
  3  4  1  0
  4  5  2  0
  5  6  1  0
  5  7  1  0
  7 12  1  0
  8  7  2  0
  8  9  1  0
  9 10  2  0
 10 11  1  0
 12 11  2  0
 13  3  1  0
 14 13  2  0
 15 16  2  0
 15 14  1  0
 16 17  1  0
 17 13  1  0
  1 18  1  0
  2 19  1  0
  8 20  1  0
  9 21  1  0
 10 22  1  0
 11 23  1  0
 12 24  1  0
 14 25  1  0
 16 26  1  0
 17 27  1  0
M  ISO  8  18  14  19  14  20  14  21  14  22  14  23  14  24  14  25  14
M  ISO  2  26  14  27   9
M  END
>  <minimizedAffinity>  (1) 
-5.83183146

>  <minimizedRMSD>  (1) 
0.611415267

$$$$
