
     RDKit          3D

 32 34  0  0  0  0  0  0  0  0999 V2000
   44.5150   35.7680   44.8830 C   0  0  0  0  0  0  0  0  0  0  0  0
   45.2010   35.7660   43.6510 C   0  0  0  0  0  0  0  0  0  0  0  0
   46.1420   34.7590   43.4410 C   0  0  0  0  0  0  0  0  0  0  0  0
   46.3590   33.8340   44.4160 N   0  0  0  0  0  0  0  0  0  0  0  0
   45.6820   33.8640   45.5900 C   0  0  0  0  0  0  0  0  0  0  0  0
   44.7790   34.8150   45.8140 N   0  0  0  0  0  0  0  0  0  0  0  0
   45.9740   32.8570   46.5520 N   0  0  0  0  0  0  0  0  0  0  0  0
   47.1730   32.0720   46.3860 C   0  0  0  0  0  0  0  0  0  0  0  0
   47.3250   30.9750   47.3650 C   0  0  0  0  0  0  0  0  0  0  0  0
   46.9910   31.3390   48.7840 C   0  0  0  0  0  0  0  0  0  0  0  0
   45.9120   32.3620   48.9390 C   0  0  0  0  0  0  0  0  0  0  0  0
   45.1220   32.6020   47.6710 C   0  0  0  0  0  0  0  0  0  0  0  0
   46.8800   34.7210   42.1680 C   0  0  0  0  0  0  0  0  0  0  0  0
   46.3850   34.1110   41.0320 C   0  0  0  0  0  0  0  0  0  0  0  0
   47.3390   34.2850   40.0830 N   0  0  0  0  0  0  0  0  0  0  0  0
   48.3540   34.9760   40.6570 C   0  0  0  0  0  0  0  0  0  0  0  0
   48.0950   35.2560   41.9420 N   0  0  0  0  0  0  0  0  0  0  0  0
   43.7635   36.5440   45.0907 H   0  0  0  0  0  0  0  0  0  0  0  0
   45.0013   36.5297   42.8850 H   0  0  0  0  0  0  0  0  0  0  0  0
   47.1603   31.6336   45.3772 H   0  0  0  0  0  0  0  0  0  0  0  0
   48.0202   32.7552   46.5460 H   0  0  0  0  0  0  0  0  0  0  0  0
   46.6635   30.1509   47.0594 H   0  0  0  0  0  0  0  0  0  0  0  0
   48.3912   30.7043   47.3600 H   0  0  0  0  0  0  0  0  0  0  0  0
   46.6705   30.4242   49.3041 H   0  0  0  0  0  0  0  0  0  0  0  0
   47.9016   31.7876   49.2077 H   0  0  0  0  0  0  0  0  0  0  0  0
   45.2187   32.0211   49.7220 H   0  0  0  0  0  0  0  0  0  0  0  0
   46.4014   33.3118   49.2003 H   0  0  0  0  0  0  0  0  0  0  0  0
   44.4633   33.4700   47.8214 H   0  0  0  0  0  0  0  0  0  0  0  0
   44.5392   31.6943   47.4557 H   0  0  0  0  0  0  0  0  0  0  0  0
   45.4209   33.5934   40.9202 H   0  0  0  0  0  0  0  0  0  0  0  0
   49.2756   35.2704   40.1335 H   0  0  0  0  0  0  0  0  0  0  0  0
   48.6922   35.7665   42.6081 H   0  0  0  0  0  0  0  0  0  0  0  0
  1  6  2  0
  2  1  1  0
  3  2  2  0
  3  4  1  0
  4  5  2  0
  5  6  1  0
  5  7  1  0
  7 12  1  0
  8  7  1  0
  8  9  1  0
  9 10  1  0
 10 11  1  0
 12 11  1  0
 13  3  1  0
 14 13  2  0
 15 16  2  0
 15 14  1  0
 16 17  1  0
 17 13  1  0
  1 18  1  0
  2 19  1  0
  8 20  1  0
  8 21  1  0
  9 22  1  0
  9 23  1  0
 10 24  1  0
 10 25  1  0
 11 26  1  0
 11 27  1  0
 12 28  1  0
 12 29  1  0
 14 30  1  0
 16 31  1  0
 17 32  1  0
M  ISO  8  18  14  19  14  20  13  21  13  22  13  23  13  24  13  25  13
M  ISO  7  26  13  27  13  28  13  29  13  30  14  31  14  32   9
M  END
>  <minimizedAffinity>  (1) 
-5.89420223

>  <minimizedRMSD>  (1) 
0.339748085

$$$$
