
     RDKit          3D

 30 32  0  0  0  0  0  0  0  0999 V2000
   44.5450   35.9530   44.3850 C   0  0  0  0  0  0  0  0  0  0  0  0
   45.3020   35.9130   43.2020 C   0  0  0  0  0  0  0  0  0  0  0  0
   46.2540   34.9180   43.0690 C   0  0  0  0  0  0  0  0  0  0  0  0
   46.4250   34.0100   44.0850 N   0  0  0  0  0  0  0  0  0  0  0  0
   45.6750   34.0860   45.2060 C   0  0  0  0  0  0  0  0  0  0  0  0
   44.7540   35.0340   45.3570 N   0  0  0  0  0  0  0  0  0  0  0  0
   45.9140   33.1080   46.2130 N   0  0  0  0  0  0  0  0  0  0  0  0
   46.8160   32.1440   45.9650 C   0  0  0  0  0  0  0  0  0  0  0  0
   47.1170   31.1550   46.8720 C   0  0  0  0  0  0  0  0  0  0  0  0
   48.1310   30.0910   46.5640 C   0  0  0  0  0  0  0  0  0  0  0  0
   46.4910   31.1160   48.1000 C   0  0  0  0  0  0  0  0  0  0  0  0
   46.7130   30.2490   48.9740 O   0  0  0  0  0  0  0  0  0  0  0  0
   45.6040   32.0960   48.2980 N   0  0  0  0  0  0  0  0  0  0  0  0
   45.3030   33.0640   47.4200 C   0  0  0  0  0  0  0  0  0  0  0  0
   44.4620   33.9740   47.6340 O   0  0  0  0  0  0  0  0  0  0  0  0
   47.0660   34.8430   41.8440 C   0  0  0  0  0  0  0  0  0  0  0  0
   46.6950   34.1360   40.7270 C   0  0  0  0  0  0  0  0  0  0  0  0
   47.7080   34.3250   39.8350 N   0  0  0  0  0  0  0  0  0  0  0  0
   48.6360   35.1170   40.4180 C   0  0  0  0  0  0  0  0  0  0  0  0
   48.2630   35.4530   41.6620 N   0  0  0  0  0  0  0  0  0  0  0  0
   43.7810   36.7325   44.5217 H   0  0  0  0  0  0  0  0  0  0  0  0
   45.1421   36.6525   42.4035 H   0  0  0  0  0  0  0  0  0  0  0  0
   47.3358   32.1457   44.9956 H   0  0  0  0  0  0  0  0  0  0  0  0
   48.5253   29.6772   47.5038 H   0  0  0  0  0  0  0  0  0  0  0  0
   47.6550   29.2886   45.9813 H   0  0  0  0  0  0  0  0  0  0  0  0
   48.9554   30.5278   45.9813 H   0  0  0  0  0  0  0  0  0  0  0  0
   45.1097   32.1089   49.2016 H   0  0  0  0  0  0  0  0  0  0  0  0
   45.7785   33.5449   40.5832 H   0  0  0  0  0  0  0  0  0  0  0  0
   49.5705   35.4419   39.9372 H   0  0  0  0  0  0  0  0  0  0  0  0
   48.7742   36.0449   42.3322 H   0  0  0  0  0  0  0  0  0  0  0  0
  1  6  2  0
  2  1  1  0
  3  2  2  0
  3  4  1  0
  4  5  2  0
  5  6  1  0
  5  7  1  0
  7 14  1  0
  8  7  1  0
  8  9  2  0
  9 11  1  0
 10  9  1  0
 11 13  1  0
 11 12  2  0
 14 15  2  0
 14 13  1  0
 16  3  1  0
 17 16  2  0
 18 19  2  0
 18 17  1  0
 19 20  1  0
 20 16  1  0
  1 21  1  0
  2 22  1  0
  8 23  1  0
 10 24  1  0
 10 25  1  0
 10 26  1  0
 13 27  1  0
 17 28  1  0
 19 29  1  0
 20 30  1  0
M  ISO  8  21  14  22  14  23  14  24   8  25   8  26   8  27   9  28  14
M  ISO  2  29  14  30   9
M  END
>  <minimizedAffinity>  (1) 
-6.05552626

>  <minimizedRMSD>  (1) 
0.248248786

$$$$
