
     RDKit          3D

 33 36  0  0  0  0  0  0  0  0999 V2000
   44.4580   36.0780   44.6570 C   0  0  0  0  0  0  0  0  0  0  0  0
   45.1740   36.0210   43.4400 C   0  0  0  0  0  0  0  0  0  0  0  0
   46.0420   34.9620   43.2990 C   0  0  0  0  0  0  0  0  0  0  0  0
   46.1280   34.0870   44.3200 N   0  0  0  0  0  0  0  0  0  0  0  0
   45.4560   34.1390   45.4670 C   0  0  0  0  0  0  0  0  0  0  0  0
   44.6170   35.1530   45.6160 N   0  0  0  0  0  0  0  0  0  0  0  0
   45.7970   33.0310   46.3440 C   0  0  0  0  0  0  0  0  0  0  0  0
   45.3450   32.9490   47.6410 C   0  0  0  0  0  0  0  0  0  0  0  0
   45.6450   31.9180   48.5030 C   0  0  0  0  0  0  0  0  0  0  0  0
   46.4430   30.8760   48.0900 C   0  0  0  0  0  0  0  0  0  0  0  0
   46.9190   30.9120   46.8070 C   0  0  0  0  0  0  0  0  0  0  0  0
   47.7170   29.8570   46.4190 C   0  0  0  0  0  0  0  0  0  0  0  0
   48.2360   29.8150   45.1470 C   0  0  0  0  0  0  0  0  0  0  0  0
   47.9190   30.8670   44.2980 C   0  0  0  0  0  0  0  0  0  0  0  0
   47.1160   31.8970   44.7350 C   0  0  0  0  0  0  0  0  0  0  0  0
   46.5890   31.9650   45.9880 C   0  0  0  0  0  0  0  0  0  0  0  0
   46.8350   34.8080   42.0640 C   0  0  0  0  0  0  0  0  0  0  0  0
   46.3820   34.1170   40.9620 C   0  0  0  0  0  0  0  0  0  0  0  0
   47.3870   34.2050   40.0500 N   0  0  0  0  0  0  0  0  0  0  0  0
   48.3800   34.9190   40.6080 C   0  0  0  0  0  0  0  0  0  0  0  0
   48.0570   35.2980   41.8460 N   0  0  0  0  0  0  0  0  0  0  0  0
   43.7505   36.9038   44.8228 H   0  0  0  0  0  0  0  0  0  0  0  0
   45.0454   36.7779   42.6522 H   0  0  0  0  0  0  0  0  0  0  0  0
   44.7020   33.7600   48.0136 H   0  0  0  0  0  0  0  0  0  0  0  0
   45.2445   31.9275   49.5274 H   0  0  0  0  0  0  0  0  0  0  0  0
   46.6895   30.0442   48.7662 H   0  0  0  0  0  0  0  0  0  0  0  0
   47.9389   29.0468   47.1291 H   0  0  0  0  0  0  0  0  0  0  0  0
   48.8753   28.9834   44.8157 H   0  0  0  0  0  0  0  0  0  0  0  0
   48.3115   30.8778   43.2705 H   0  0  0  0  0  0  0  0  0  0  0  0
   46.8876   32.7110   44.0313 H   0  0  0  0  0  0  0  0  0  0  0  0
   45.4158   33.6045   40.8448 H   0  0  0  0  0  0  0  0  0  0  0  0
   49.3314   35.1587   40.1106 H   0  0  0  0  0  0  0  0  0  0  0  0
   48.6308   35.8527   42.4971 H   0  0  0  0  0  0  0  0  0  0  0  0
  1  6  2  0
  2  1  1  0
  3  2  2  0
  3  4  1  0
  4  5  2  0
  5  6  1  0
  5  7  1  0
  7  8  2  0
  8  9  1  0
 10  9  2  0
 11 10  1  0
 12 11  2  0
 13 12  1  0
 14 15  1  0
 14 13  2  0
 15 16  2  0
 16  7  1  0
 16 11  1  0
 17  3  1  0
 18 17  2  0
 19 20  2  0
 19 18  1  0
 20 21  1  0
 21 17  1  0
  1 22  1  0
  2 23  1  0
  8 24  1  0
  9 25  1  0
 10 26  1  0
 12 27  1  0
 13 28  1  0
 14 29  1  0
 15 30  1  0
 18 31  1  0
 20 32  1  0
 21 33  1  0
M  ISO  8  22  14  23  14  24  14  25  14  26  14  27  14  28  14  29  14
M  ISO  4  30  14  31  14  32  14  33   9
M  END
>  <minimizedAffinity>  (1) 
-6.36190414

>  <minimizedRMSD>  (1) 
0.21218127

$$$$
