
     RDKit          3D

 29 31  0  0  0  0  0  0  0  0999 V2000
   44.5300   35.7520   44.8610 C   0  0  0  0  0  0  0  0  0  0  0  0
   45.2220   35.7690   43.6350 C   0  0  0  0  0  0  0  0  0  0  0  0
   46.1600   34.7690   43.4280 C   0  0  0  0  0  0  0  0  0  0  0  0
   46.3790   33.8220   44.3950 N   0  0  0  0  0  0  0  0  0  0  0  0
   45.6960   33.8450   45.5510 C   0  0  0  0  0  0  0  0  0  0  0  0
   44.7820   34.7970   45.7830 N   0  0  0  0  0  0  0  0  0  0  0  0
   45.9430   32.8510   46.5380 N   0  0  0  0  0  0  0  0  0  0  0  0
   45.1170   32.5360   47.6880 C   0  0  0  0  0  0  0  0  0  0  0  0
   46.1990   32.4550   48.7720 C   0  0  0  0  0  0  0  0  0  0  0  0
   47.4580   32.0260   48.0600 C   0  0  0  0  0  0  0  0  0  0  0  0
   47.0790   31.9500   46.5890 C   0  0  0  0  0  0  0  0  0  0  0  0
   46.9140   34.7420   42.1530 C   0  0  0  0  0  0  0  0  0  0  0  0
   46.4510   34.1250   41.0160 C   0  0  0  0  0  0  0  0  0  0  0  0
   47.4270   34.3270   40.0860 N   0  0  0  0  0  0  0  0  0  0  0  0
   48.4150   35.0370   40.6740 C   0  0  0  0  0  0  0  0  0  0  0  0
   48.1300   35.3090   41.9480 N   0  0  0  0  0  0  0  0  0  0  0  0
   43.7758   36.5248   45.0706 H   0  0  0  0  0  0  0  0  0  0  0  0
   45.0273   36.5407   42.8757 H   0  0  0  0  0  0  0  0  0  0  0  0
   44.3868   33.3316   47.8975 H   0  0  0  0  0  0  0  0  0  0  0  0
   44.4961   31.6342   47.5820 H   0  0  0  0  0  0  0  0  0  0  0  0
   46.3419   33.4375   49.2456 H   0  0  0  0  0  0  0  0  0  0  0  0
   45.9229   31.7496   49.5696 H   0  0  0  0  0  0  0  0  0  0  0  0
   48.2588   32.7642   48.2142 H   0  0  0  0  0  0  0  0  0  0  0  0
   47.8358   31.0642   48.4371 H   0  0  0  0  0  0  0  0  0  0  0  0
   46.7947   30.9276   46.2993 H   0  0  0  0  0  0  0  0  0  0  0  0
   47.8947   32.2161   45.9006 H   0  0  0  0  0  0  0  0  0  0  0  0
   45.5010   33.5862   40.8849 H   0  0  0  0  0  0  0  0  0  0  0  0
   49.3385   35.3512   40.1656 H   0  0  0  0  0  0  0  0  0  0  0  0
   48.7039   35.8321   42.6247 H   0  0  0  0  0  0  0  0  0  0  0  0
  1  6  2  0
  2  1  1  0
  3  2  2  0
  3  4  1  0
  4  5  2  0
  5  6  1  0
  5  7  1  0
  7 11  1  0
  7  8  1  0
  8  9  1  0
 10  9  1  0
 11 10  1  0
 12  3  1  0
 13 12  2  0
 14 15  2  0
 14 13  1  0
 15 16  1  0
 16 12  1  0
  1 17  1  0
  2 18  1  0
  8 19  1  0
  8 20  1  0
  9 21  1  0
  9 22  1  0
 10 23  1  0
 10 24  1  0
 11 25  1  0
 11 26  1  0
 13 27  1  0
 15 28  1  0
 16 29  1  0
M  ISO  8  17  14  18  14  19  13  20  13  21  13  22  13  23  13  24  13
M  ISO  5  25  13  26  13  27  14  28  14  29   9
M  END
>  <minimizedAffinity>  (1) 
-5.58738279

>  <minimizedRMSD>  (1) 
0.320662826

$$$$
