
     RDKit          3D

 24 26  0  0  0  0  0  0  0  0999 V2000
   44.4490   36.0190   44.5550 C   0  0  0  0  0  0  0  0  0  0  0  0
   45.1750   35.9380   43.3510 C   0  0  0  0  0  0  0  0  0  0  0  0
   46.1080   34.9220   43.2390 C   0  0  0  0  0  0  0  0  0  0  0  0
   46.2930   34.0440   44.2810 N   0  0  0  0  0  0  0  0  0  0  0  0
   45.5680   34.1640   45.4180 C   0  0  0  0  0  0  0  0  0  0  0  0
   44.6630   35.1320   45.5560 N   0  0  0  0  0  0  0  0  0  0  0  0
   45.7750   33.2450   46.4860 N   0  0  0  0  0  0  0  0  0  0  0  0
   45.1440   32.9570   47.6160 N   0  0  0  0  0  0  0  0  0  0  0  0
   45.8060   31.9690   48.2610 C   0  0  0  0  0  0  0  0  0  0  0  0
   46.9210   31.6000   47.5040 C   0  0  0  0  0  0  0  0  0  0  0  0
   46.8640   32.4260   46.4000 C   0  0  0  0  0  0  0  0  0  0  0  0
   46.8970   34.7920   41.9960 C   0  0  0  0  0  0  0  0  0  0  0  0
   46.4420   34.1020   40.8880 C   0  0  0  0  0  0  0  0  0  0  0  0
   47.4470   34.2160   39.9750 N   0  0  0  0  0  0  0  0  0  0  0  0
   48.4400   34.9450   40.5370 C   0  0  0  0  0  0  0  0  0  0  0  0
   48.1150   35.3060   41.7830 N   0  0  0  0  0  0  0  0  0  0  0  0
   43.6985   36.8128   44.6841 H   0  0  0  0  0  0  0  0  0  0  0  0
   45.0072   36.6535   42.5325 H   0  0  0  0  0  0  0  0  0  0  0  0
   45.5138   31.5276   49.2253 H   0  0  0  0  0  0  0  0  0  0  0  0
   47.6710   30.8291   47.7348 H   0  0  0  0  0  0  0  0  0  0  0  0
   47.5890   32.4248   45.5727 H   0  0  0  0  0  0  0  0  0  0  0  0
   45.4823   33.5776   40.7697 H   0  0  0  0  0  0  0  0  0  0  0  0
   49.3848   35.2048   40.0371 H   0  0  0  0  0  0  0  0  0  0  0  0
   48.6815   35.8617   42.4397 H   0  0  0  0  0  0  0  0  0  0  0  0
  1  6  2  0
  2  1  1  0
  3  2  2  0
  3  4  1  0
  4  5  2  0
  5  6  1  0
  5  7  1  0
  7  8  1  0
  8  9  2  0
 10  9  1  0
 11  7  1  0
 11 10  2  0
 12  3  1  0
 13 12  2  0
 14 15  2  0
 14 13  1  0
 15 16  1  0
 16 12  1  0
  1 17  1  0
  2 18  1  0
  9 19  1  0
 10 20  1  0
 11 21  1  0
 13 22  1  0
 15 23  1  0
 16 24  1  0
M  ISO  8  17  14  18  14  19  14  20  14  21  14  22  14  23  14  24   9
M  END
>  <minimizedAffinity>  (1) 
-5.61365557

>  <minimizedRMSD>  (1) 
0.150131688

$$$$
