
     RDKit          3D

 25 27  0  0  0  0  0  0  0  0999 V2000
   44.4920   35.8440   44.6960 C   0  0  0  0  0  0  0  0  0  0  0  0
   45.1930   35.8170   43.4790 C   0  0  0  0  0  0  0  0  0  0  0  0
   46.1630   34.8160   43.3230 C   0  0  0  0  0  0  0  0  0  0  0  0
   46.3800   33.9370   44.3340 N   0  0  0  0  0  0  0  0  0  0  0  0
   45.6800   34.0050   45.4870 C   0  0  0  0  0  0  0  0  0  0  0  0
   44.7500   34.9430   45.6670 N   0  0  0  0  0  0  0  0  0  0  0  0
   46.9230   34.7510   42.0620 C   0  0  0  0  0  0  0  0  0  0  0  0
   46.4590   34.1230   40.9340 C   0  0  0  0  0  0  0  0  0  0  0  0
   47.4370   34.2850   40.0070 N   0  0  0  0  0  0  0  0  0  0  0  0
   48.4370   34.9860   40.5830 C   0  0  0  0  0  0  0  0  0  0  0  0
   48.1490   35.2930   41.8670 N   0  0  0  0  0  0  0  0  0  0  0  0
   45.9510   33.0340   46.5410 C   0  0  0  0  0  0  0  0  0  0  0  0
   47.0240   32.1780   46.4410 C   0  0  0  0  0  0  0  0  0  0  0  0
   47.3090   31.2500   47.4210 C   0  0  0  0  0  0  0  0  0  0  0  0
   46.5070   31.1900   48.4970 N   0  0  0  0  0  0  0  0  0  0  0  0
   45.4410   32.0310   48.6120 C   0  0  0  0  0  0  0  0  0  0  0  0
   45.1750   32.9430   47.6330 N   0  0  0  0  0  0  0  0  0  0  0  0
   43.7210   36.6112   44.8600 H   0  0  0  0  0  0  0  0  0  0  0  0
   44.9901   36.5488   42.6832 H   0  0  0  0  0  0  0  0  0  0  0  0
   45.4995   33.6000   40.8078 H   0  0  0  0  0  0  0  0  0  0  0  0
   49.3683   35.2711   40.0717 H   0  0  0  0  0  0  0  0  0  0  0  0
   48.7266   35.8167   42.5401 H   0  0  0  0  0  0  0  0  0  0  0  0
   47.6727   32.2355   45.5545 H   0  0  0  0  0  0  0  0  0  0  0  0
   48.1723   30.5753   47.3237 H   0  0  0  0  0  0  0  0  0  0  0  0
   44.7920   31.9742   49.4983 H   0  0  0  0  0  0  0  0  0  0  0  0
  1  6  2  0
  2  1  1  0
  3  2  2  0
  3  4  1  0
  4  5  2  0
  5  6  1  0
  5 12  1  0
  7  3  1  0
  8  7  2  0
  9 10  2  0
  9  8  1  0
 10 11  1  0
 11  7  1  0
 12 17  1  0
 13 12  2  0
 13 14  1  0
 14 15  2  0
 15 16  1  0
 17 16  2  0
  1 18  1  0
  2 19  1  0
  8 20  1  0
 10 21  1  0
 11 22  1  0
 13 23  1  0
 14 24  1  0
 16 25  1  0
M  ISO  8  18  14  19  14  20  14  21  14  22   9  23  14  24  14  25  14
M  END
>  <minimizedAffinity>  (1) 
-5.59493589

>  <minimizedRMSD>  (1) 
0.306342214

$$$$
