
     RDKit          3D

 33 35  0  0  0  0  0  0  0  0999 V2000
   44.5200   35.6650   44.8010 C   0  0  0  0  0  0  0  0  0  0  0  0
   45.1970   35.6860   43.5610 C   0  0  0  0  0  0  0  0  0  0  0  0
   46.2080   34.7490   43.3820 C   0  0  0  0  0  0  0  0  0  0  0  0
   46.5090   33.8590   44.3850 N   0  0  0  0  0  0  0  0  0  0  0  0
   45.8260   33.8880   45.5510 C   0  0  0  0  0  0  0  0  0  0  0  0
   44.8500   34.7670   45.7690 N   0  0  0  0  0  0  0  0  0  0  0  0
   46.9470   34.7240   42.1070 C   0  0  0  0  0  0  0  0  0  0  0  0
   46.4870   34.1150   40.9670 C   0  0  0  0  0  0  0  0  0  0  0  0
   47.4650   34.3260   40.0350 N   0  0  0  0  0  0  0  0  0  0  0  0
   48.4490   35.0290   40.6180 C   0  0  0  0  0  0  0  0  0  0  0  0
   48.1620   35.2930   41.8990 N   0  0  0  0  0  0  0  0  0  0  0  0
   46.2170   32.8950   46.5720 C   0  0  0  0  0  0  0  0  0  0  0  0
   46.3790   31.4980   46.0680 C   0  0  0  0  0  0  0  0  0  0  0  0
   47.0370   30.7080   47.1800 C   0  0  0  0  0  0  0  0  0  0  0  0
   46.4090   30.8540   48.5150 C   0  0  0  0  0  0  0  0  0  0  0  0
   45.9320   32.2260   48.8720 C   0  0  0  0  0  0  0  0  0  0  0  0
   45.1790   32.8130   47.6970 C   0  0  0  0  0  0  0  0  0  0  0  0
   43.7117   36.3874   44.9874 H   0  0  0  0  0  0  0  0  0  0  0  0
   44.9363   36.4096   42.7745 H   0  0  0  0  0  0  0  0  0  0  0  0
   45.5383   33.5748   40.8321 H   0  0  0  0  0  0  0  0  0  0  0  0
   49.3712   35.3468   40.1095 H   0  0  0  0  0  0  0  0  0  0  0  0
   48.7366   35.8133   42.5773 H   0  0  0  0  0  0  0  0  0  0  0  0
   47.1934   33.2655   46.9173 H   0  0  0  0  0  0  0  0  0  0  0  0
   45.3968   31.0660   45.8259 H   0  0  0  0  0  0  0  0  0  0  0  0
   46.9884   31.4757   45.1525 H   0  0  0  0  0  0  0  0  0  0  0  0
   47.0075   29.6434   46.9046 H   0  0  0  0  0  0  0  0  0  0  0  0
   48.0568   31.1087   47.2769 H   0  0  0  0  0  0  0  0  0  0  0  0
   45.5434   30.1764   48.5550 H   0  0  0  0  0  0  0  0  0  0  0  0
   47.2010   30.6186   49.2411 H   0  0  0  0  0  0  0  0  0  0  0  0
   45.2648   32.1680   49.7446 H   0  0  0  0  0  0  0  0  0  0  0  0
   46.7937   32.8651   49.1151 H   0  0  0  0  0  0  0  0  0  0  0  0
   44.7942   33.8136   47.9435 H   0  0  0  0  0  0  0  0  0  0  0  0
   44.3069   32.2045   47.4154 H   0  0  0  0  0  0  0  0  0  0  0  0
  1  6  2  0
  2  1  1  0
  3  2  2  0
  3  4  1  0
  4  5  2  0
  5  6  1  0
  5 12  1  0
  7  3  1  0
  8  7  2  0
  9 10  2  0
  9  8  1  0
 10 11  1  0
 11  7  1  0
 12 17  1  0
 13 12  1  0
 13 14  1  0
 14 15  1  0
 15 16  1  0
 17 16  1  0
  1 18  1  0
  2 19  1  0
  8 20  1  0
 10 21  1  0
 11 22  1  0
 12 23  1  0
 13 24  1  0
 13 25  1  0
 14 26  1  0
 14 27  1  0
 15 28  1  0
 15 29  1  0
 16 30  1  0
 16 31  1  0
 17 32  1  0
 17 33  1  0
M  ISO  8  18  14  19  14  20  14  21  14  22   9  23  13  24  13  25  13
M  ISO  8  26  13  27  13  28  13  29  13  30  13  31  13  32  13  33  13
M  END
>  <minimizedAffinity>  (1) 
-5.72201777

>  <minimizedRMSD>  (1) 
0.468938321

$$$$
