
     RDKit          3D

 35 38  0  0  1  0  0  0  0  0999 V2000
   44.9620   35.0840   44.5330 C   0  0  0  0  0  0  0  0  0  0  0  0
   45.6630   35.3940   43.3650 C   0  0  0  0  0  0  0  0  0  0  0  0
   46.6630   34.5390   42.9720 C   0  0  0  0  0  0  0  0  0  0  0  0
   46.8950   33.4400   43.7680 N   0  0  0  0  0  0  0  0  0  0  0  0
   46.1980   33.1740   44.8890 C   0  0  0  0  0  0  0  0  0  0  0  0
   45.2530   33.9960   45.2470 N   0  0  0  0  0  0  0  0  0  0  0  0
   46.8920   31.9700   45.2260 C   0  0  0  0  0  0  0  0  0  0  0  0
   47.4810   30.9470   45.5100 N   0  0  0  0  0  0  0  0  0  0  0  0
   48.1680   29.9350   45.5370 C   0  0  0  0  0  0  0  0  0  0  0  0
   47.7410   29.8090   46.7980 N   0  0  0  0  0  0  0  0  0  0  0  0
   46.8850   30.7010   47.3850 C   0  0  0  0  0  0  0  0  0  0  0  0
   46.5490   30.3820   48.7390 C   0  0  0  0  0  0  0  0  0  0  0  0
   45.6920   31.2630   49.3370 C   0  0  0  0  0  0  0  0  0  0  0  0
   45.1500   32.3870   48.7650 C   0  0  0  0  0  0  0  0  0  0  0  0
   45.5800   32.5390   47.4630 C   0  0  0  0  0  0  0  0  0  0  0  0
   46.4380   31.8110   46.6030 C   0  0  0  0  0  0  0  0  0  0  0  0
   47.4410   34.7970   41.7410 C   0  0  0  0  0  0  0  0  0  0  0  0
   47.1560   34.2000   40.5430 C   0  0  0  0  0  0  0  0  0  0  0  0
   48.1080   34.6950   39.6870 N   0  0  0  0  0  0  0  0  0  0  0  0
   48.8840   35.5290   40.3790 C   0  0  0  0  0  0  0  0  0  0  0  0
   48.4950   35.6110   41.6510 N   0  0  0  0  0  0  0  0  0  0  0  0
   44.1543   35.7503   44.8702 H   0  0  0  0  0  0  0  0  0  0  0  0
   45.4218   36.2934   42.7794 H   0  0  0  0  0  0  0  0  0  0  0  0
   45.9376   31.4963   45.4993 H   0  0  0  0  0  0  0  0  0  0  0  0
   47.9355   31.3588   46.3375 H   0  0  0  0  0  0  0  0  0  0  0  0
   47.8476   29.1349   44.8535 H   0  0  0  0  0  0  0  0  0  0  0  0
   49.2337   29.9299   45.2647 H   0  0  0  0  0  0  0  0  0  0  0  0
   48.0708   29.0055   47.3517 H   0  0  0  0  0  0  0  0  0  0  0  0
   46.9487   29.4980   49.2574 H   0  0  0  0  0  0  0  0  0  0  0  0
   45.4089   31.0505   50.3785 H   0  0  0  0  0  0  0  0  0  0  0  0
   44.4628   33.0762   49.2776 H   0  0  0  0  0  0  0  0  0  0  0  0
   45.1586   33.4334   46.9808 H   0  0  0  0  0  0  0  0  0  0  0  0
   46.3492   33.4871   40.3177 H   0  0  0  0  0  0  0  0  0  0  0  0
   49.7366   36.0793   39.9544 H   0  0  0  0  0  0  0  0  0  0  0  0
   48.9157   36.1784   42.4007 H   0  0  0  0  0  0  0  0  0  0  0  0
  1  6  2  0
  2  1  1  0
  3  2  2  0
  3  4  1  0
  4  5  2  0
  5  6  1  0
  7  5  1  0
  7  8  1  0
  7 16  1  0
  8  9  1  0
  9 10  1  0
 10 11  1  0
 11 12  2  0
 12 13  1  0
 14 13  2  0
 15 14  1  0
 16 11  1  0
 16 15  2  0
 17  3  1  0
 18 17  2  0
 19 20  2  0
 19 18  1  0
 20 21  1  0
 21 17  1  0
  1 22  1  0
  2 23  1  0
  7 24  1  0
  8 25  1  0
  9 26  1  0
  9 27  1  0
 10 28  1  0
 12 29  1  0
 13 30  1  0
 14 31  1  0
 15 32  1  0
 18 33  1  0
 20 34  1  0
 21 35  1  0
M  ISO  8  22  14  23  14  24  13  25   5  26  13  27  13  29  14  30  14
M  ISO  5  31  14  32  14  33  14  34  14  35   9
M  END
>  <minimizedAffinity>  (1) 
-5.59650993

>  <minimizedRMSD>  (1) 
1.51536167

$$$$
