
     RDKit          3D

 24 26  0  0  0  0  0  0  0  0999 V2000
   44.4730   35.8640   44.6300 C   0  0  0  0  0  0  0  0  0  0  0  0
   45.1820   35.8130   43.4270 C   0  0  0  0  0  0  0  0  0  0  0  0
   46.1610   34.8460   43.2750 C   0  0  0  0  0  0  0  0  0  0  0  0
   46.4010   33.9730   44.3100 N   0  0  0  0  0  0  0  0  0  0  0  0
   45.6970   34.0480   45.4640 C   0  0  0  0  0  0  0  0  0  0  0  0
   44.7500   34.9740   45.6250 N   0  0  0  0  0  0  0  0  0  0  0  0
   46.9200   34.7650   42.0260 C   0  0  0  0  0  0  0  0  0  0  0  0
   46.4530   34.0950   40.9030 C   0  0  0  0  0  0  0  0  0  0  0  0
   47.4510   34.2580   39.9730 N   0  0  0  0  0  0  0  0  0  0  0  0
   48.4330   34.9840   40.5410 C   0  0  0  0  0  0  0  0  0  0  0  0
   48.1250   35.3050   41.8020 N   0  0  0  0  0  0  0  0  0  0  0  0
   45.9320   33.1340   46.5780 C   0  0  0  0  0  0  0  0  0  0  0  0
   47.0010   32.2650   46.8070 C   0  0  0  0  0  0  0  0  0  0  0  0
   46.7200   31.6390   48.0040 C   0  0  0  0  0  0  0  0  0  0  0  0
   45.5150   32.1430   48.4470 C   0  0  0  0  0  0  0  0  0  0  0  0
   45.0770   33.0200   47.5890 O   0  0  0  0  0  0  0  0  0  0  0  0
   43.6903   36.6233   44.7745 H   0  0  0  0  0  0  0  0  0  0  0  0
   44.9668   36.5262   42.6177 H   0  0  0  0  0  0  0  0  0  0  0  0
   45.5011   33.5565   40.7849 H   0  0  0  0  0  0  0  0  0  0  0  0
   49.3652   35.2745   40.0345 H   0  0  0  0  0  0  0  0  0  0  0  0
   48.6949   35.8526   42.4625 H   0  0  0  0  0  0  0  0  0  0  0  0
   47.8825   32.1117   46.1671 H   0  0  0  0  0  0  0  0  0  0  0  0
   47.3388   30.8824   48.5086 H   0  0  0  0  0  0  0  0  0  0  0  0
   45.0050   31.8509   49.3768 H   0  0  0  0  0  0  0  0  0  0  0  0
  1  6  2  0
  2  1  1  0
  3  2  2  0
  3  4  1  0
  4  5  2  0
  5  6  1  0
  5 12  1  0
  7  3  1  0
  8  7  2  0
  9 10  2  0
  9  8  1  0
 10 11  1  0
 11  7  1  0
 12 13  2  0
 12 16  1  0
 13 14  1  0
 14 15  2  0
 16 15  1  0
  1 17  1  0
  2 18  1  0
  8 19  1  0
 10 20  1  0
 11 21  1  0
 13 22  1  0
 14 23  1  0
 15 24  1  0
M  ISO  8  17  14  18  14  19  14  20  14  21   9  22  14  23  14  24  14
M  END
>  <minimizedAffinity>  (1) 
-5.43656635

>  <minimizedRMSD>  (1) 
0.592121482

$$$$
