
     RDKit          3D

 19 20  0  0  0  0  0  0  0  0999 V2000
   44.5260   36.1460   44.5880 C   0  0  0  0  0  0  0  0  0  0  0  0
   45.2650   36.0510   43.4040 C   0  0  0  0  0  0  0  0  0  0  0  0
   46.0780   34.9500   43.2150 C   0  0  0  0  0  0  0  0  0  0  0  0
   46.1160   34.0000   44.2060 N   0  0  0  0  0  0  0  0  0  0  0  0
   45.3900   34.1210   45.3380 C   0  0  0  0  0  0  0  0  0  0  0  0
   44.6040   35.1780   45.5280 N   0  0  0  0  0  0  0  0  0  0  0  0
   45.6150   33.0040   46.1890 N   0  0  0  0  0  0  0  0  0  0  0  0
   46.8740   34.8100   41.9840 C   0  0  0  0  0  0  0  0  0  0  0  0
   46.4140   34.1210   40.8840 C   0  0  0  0  0  0  0  0  0  0  0  0
   47.4350   34.2270   39.9790 N   0  0  0  0  0  0  0  0  0  0  0  0
   48.4180   34.9400   40.5450 C   0  0  0  0  0  0  0  0  0  0  0  0
   48.0990   35.3150   41.7880 N   0  0  0  0  0  0  0  0  0  0  0  0
   43.8752   37.0169   44.7556 H   0  0  0  0  0  0  0  0  0  0  0  0
   45.2000   36.8379   42.6381 H   0  0  0  0  0  0  0  0  0  0  0  0
   45.1332   32.9433   47.0973 H   0  0  0  0  0  0  0  0  0  0  0  0
   46.2598   32.2557   45.8970 H   0  0  0  0  0  0  0  0  0  0  0  0
   45.4501   33.6054   40.7613 H   0  0  0  0  0  0  0  0  0  0  0  0
   49.3685   35.1861   40.0491 H   0  0  0  0  0  0  0  0  0  0  0  0
   48.6669   35.8674   42.4462 H   0  0  0  0  0  0  0  0  0  0  0  0
  1  6  2  0
  2  1  1  0
  3  2  2  0
  3  4  1  0
  4  5  2  0
  5  6  1  0
  5  7  1  0
  8  3  1  0
  9  8  2  0
 10 11  2  0
 10  9  1  0
 11 12  1  0
 12  8  1  0
  1 13  1  0
  2 14  1  0
  7 15  1  0
  7 16  1  0
  9 17  1  0
 11 18  1  0
 12 19  1  0
M  ISO  5  13  14  14  14  17  14  18  14  19   9
M  END
>  <minimizedAffinity>  (1) 
-4.46707249

>  <minimizedRMSD>  (1) 
0.121073

$$$$
