
     RDKit          3D

 19 20  0  0  0  0  0  0  0  0999 V2000
   44.4920   35.9330   44.6590 C   0  0  0  0  0  0  0  0  0  0  0  0
   45.2080   35.8780   43.4510 C   0  0  0  0  0  0  0  0  0  0  0  0
   46.1340   34.8590   43.2840 C   0  0  0  0  0  0  0  0  0  0  0  0
   46.3190   33.9510   44.2920 N   0  0  0  0  0  0  0  0  0  0  0  0
   45.6140   34.0370   45.4350 C   0  0  0  0  0  0  0  0  0  0  0  0
   44.7180   35.0020   45.6250 N   0  0  0  0  0  0  0  0  0  0  0  0
   46.9050   34.7730   42.0260 C   0  0  0  0  0  0  0  0  0  0  0  0
   46.4520   34.1130   40.9070 C   0  0  0  0  0  0  0  0  0  0  0  0
   47.4450   34.2690   39.9870 N   0  0  0  0  0  0  0  0  0  0  0  0
   48.4300   34.9910   40.5550 C   0  0  0  0  0  0  0  0  0  0  0  0
   48.1190   35.3150   41.8220 N   0  0  0  0  0  0  0  0  0  0  0  0
   45.8970   33.0200   46.4260 C   0  0  0  0  0  0  0  0  0  0  0  0
   45.2100   32.9680   47.4790 O   0  0  0  0  0  0  0  0  0  0  0  0
   43.7496   36.7279   44.8233 H   0  0  0  0  0  0  0  0  0  0  0  0
   45.0387   36.6228   42.6595 H   0  0  0  0  0  0  0  0  0  0  0  0
   45.4991   33.5778   40.7826 H   0  0  0  0  0  0  0  0  0  0  0  0
   49.3641   35.2773   40.0496 H   0  0  0  0  0  0  0  0  0  0  0  0
   48.6852   35.8583   42.4892 H   0  0  0  0  0  0  0  0  0  0  0  0
   46.7085   32.2964   46.2592 H   0  0  0  0  0  0  0  0  0  0  0  0
  1  6  2  0
  2  1  1  0
  3  2  2  0
  3  4  1  0
  4  5  2  0
  5  6  1  0
  5 12  1  0
  7  3  1  0
  8  7  2  0
  9 10  2  0
  9  8  1  0
 10 11  1  0
 11  7  1  0
 12 13  2  0
  1 14  1  0
  2 15  1  0
  8 16  1  0
 10 17  1  0
 11 18  1  0
 12 19  1  0
M  ISO  6  14  14  15  14  16  14  17  14  18   9  19   6
M  END
>  <minimizedAffinity>  (1) 
-4.5055604

>  <minimizedRMSD>  (1) 
0.0938298032

$$$$
