
     RDKit          3D

 26 27  0  0  0  0  0  0  0  0999 V2000
   44.5640   35.6550   44.7950 C   0  0  0  0  0  0  0  0  0  0  0  0
   45.2510   35.6720   43.5680 C   0  0  0  0  0  0  0  0  0  0  0  0
   46.2530   34.7200   43.3580 C   0  0  0  0  0  0  0  0  0  0  0  0
   46.5190   33.8180   44.3510 N   0  0  0  0  0  0  0  0  0  0  0  0
   45.8470   33.8260   45.5110 C   0  0  0  0  0  0  0  0  0  0  0  0
   44.8750   34.7350   45.7360 N   0  0  0  0  0  0  0  0  0  0  0  0
   46.9830   34.7210   42.0840 C   0  0  0  0  0  0  0  0  0  0  0  0
   46.5030   34.1010   40.9440 C   0  0  0  0  0  0  0  0  0  0  0  0
   47.4620   34.3300   39.9980 N   0  0  0  0  0  0  0  0  0  0  0  0
   48.4350   35.0440   40.5680 C   0  0  0  0  0  0  0  0  0  0  0  0
   48.1670   35.3020   41.8590 N   0  0  0  0  0  0  0  0  0  0  0  0
   46.1860   32.8130   46.5540 C   0  0  0  0  0  0  0  0  0  0  0  0
   45.2130   32.8240   47.6840 C   0  0  0  0  0  0  0  0  0  0  0  0
   46.2220   31.4600   45.8480 C   0  0  0  0  0  0  0  0  0  0  0  0
   43.7713   36.3923   44.9899 H   0  0  0  0  0  0  0  0  0  0  0  0
   45.0065   36.4145   42.7942 H   0  0  0  0  0  0  0  0  0  0  0  0
   45.5599   33.5473   40.8257 H   0  0  0  0  0  0  0  0  0  0  0  0
   49.3432   35.3794   40.0458 H   0  0  0  0  0  0  0  0  0  0  0  0
   48.7453   35.8304   42.5278 H   0  0  0  0  0  0  0  0  0  0  0  0
   47.1595   33.0409   47.0127 H   0  0  0  0  0  0  0  0  0  0  0  0
   45.7596   32.8178   48.6386 H   0  0  0  0  0  0  0  0  0  0  0  0
   44.5910   33.7292   47.6235 H   0  0  0  0  0  0  0  0  0  0  0  0
   44.5707   31.9331   47.6235 H   0  0  0  0  0  0  0  0  0  0  0  0
   46.2434   30.6556   46.5979 H   0  0  0  0  0  0  0  0  0  0  0  0
   45.3264   31.3509   45.2187 H   0  0  0  0  0  0  0  0  0  0  0  0
   47.1221   31.3986   45.2187 H   0  0  0  0  0  0  0  0  0  0  0  0
  1  6  2  0
  2  1  1  0
  3  2  2  0
  3  4  1  0
  4  5  2  0
  5  6  1  0
  5 12  1  0
  7  3  1  0
  8  7  2  0
  9 10  2  0
  9  8  1  0
 10 11  1  0
 11  7  1  0
 12 13  1  0
 14 12  1  0
  1 15  1  0
  2 16  1  0
  8 17  1  0
 10 18  1  0
 11 19  1  0
 12 20  1  0
 13 21  1  0
 13 22  1  0
 13 23  1  0
 14 24  1  0
 14 25  1  0
 14 26  1  0
M  ISO  8  15  14  16  14  17  14  18  14  19   9  20   8  21   8  22   8
M  ISO  4  23   8  24   8  25   8  26   8
M  END
>  <minimizedAffinity>  (1) 
-4.7041626

>  <minimizedRMSD>  (1) 
0.540765405

$$$$
