
     RDKit          3D

 38 41  0  0  1  0  0  0  0  0999 V2000
   44.5330   35.8860   44.8720 C   0  0  0  0  0  0  0  0  0  0  0  0
   45.1420   35.8930   43.5830 C   0  0  0  0  0  0  0  0  0  0  0  0
   45.9710   34.8470   43.2680 C   0  0  0  0  0  0  0  0  0  0  0  0
   46.1700   33.8610   44.2000 N   0  0  0  0  0  0  0  0  0  0  0  0
   45.5780   33.8910   45.4020 C   0  0  0  0  0  0  0  0  0  0  0  0
   44.7720   34.8830   45.7390 N   0  0  0  0  0  0  0  0  0  0  0  0
   45.8290   32.8150   46.3640 N   0  0  0  0  0  0  0  0  0  0  0  0
   45.2030   32.8270   47.6600 C   0  0  0  0  0  0  0  0  0  0  0  0
   46.0960   32.2790   48.7290 C   0  0  0  0  0  0  0  0  0  0  0  0
   47.5130   32.2220   48.2500 C   0  0  0  0  0  0  0  0  0  0  0  0
   47.5400   31.2070   47.0980 C   0  0  0  0  0  0  0  0  0  0  0  0
   46.7320   31.7290   45.9790 C   0  0  1  0  0  0  0  0  0  0  0  0
   46.0110   30.6690   45.1980 C   0  0  0  0  0  0  0  0  0  0  0  0
   46.0450   30.4120   43.9000 N   0  0  0  0  0  0  0  0  0  0  0  0
   45.3010   29.4000   43.5800 O   0  0  0  0  0  0  0  0  0  0  0  0
   44.7600   28.9750   44.7080 C   0  0  0  0  0  0  0  0  0  0  0  0
   45.1750   29.7390   45.7370 N   0  0  0  0  0  0  0  0  0  0  0  0
   43.6440   27.5660   44.7410 S   0  0  0  0  0  0  0  0  0  0  0  0
   40.0240   27.5690   46.0090 N   0  0  0  0  0  0  0  0  0  0  0  0
   41.2320   27.0900   45.7520 N   0  0  0  0  0  0  0  0  0  0  0  0
   41.9810   28.0640   45.1510 C   0  0  0  0  0  0  0  0  0  0  0  0
   41.1580   29.1850   45.0500 C   0  0  0  0  0  0  0  0  0  0  0  0
   39.9340   28.8560   45.5930 C   0  0  0  0  0  0  0  0  0  0  0  0
   43.8614   36.7076   45.1615 H   0  0  0  0  0  0  0  0  0  0  0  0
   44.9539   36.7072   42.8677 H   0  0  0  0  0  0  0  0  0  0  0  0
   46.4666   34.7998   42.2871 H   0  0  0  0  0  0  0  0  0  0  0  0
   44.9404   33.8640   47.9161 H   0  0  0  0  0  0  0  0  0  0  0  0
   44.3100   32.1868   47.6076 H   0  0  0  0  0  0  0  0  0  0  0  0
   46.0394   32.9276   49.6156 H   0  0  0  0  0  0  0  0  0  0  0  0
   45.7648   31.2610   48.9821 H   0  0  0  0  0  0  0  0  0  0  0  0
   47.8341   33.2116   47.8929 H   0  0  0  0  0  0  0  0  0  0  0  0
   48.1962   31.9252   49.0594 H   0  0  0  0  0  0  0  0  0  0  0  0
   48.5772   31.0550   46.7646 H   0  0  0  0  0  0  0  0  0  0  0  0
   47.1261   30.2466   47.4390 H   0  0  0  0  0  0  0  0  0  0  0  0
   47.4794   32.1615   45.2976 H   0  0  0  0  0  0  0  0  0  0  0  0
   39.2635   27.0403   46.4595 H   0  0  0  0  0  0  0  0  0  0  0  0
   41.4352   30.1567   44.6154 H   0  0  0  0  0  0  0  0  0  0  0  0
   39.0542   29.5114   45.6731 H   0  0  0  0  0  0  0  0  0  0  0  0
  1  6  2  0
  2  1  1  0
  3  2  2  0
  3  4  1  0
  4  5  2  0
  5  6  1  0
  5  7  1  0
  7  8  1  0
  8  9  1  0
 10  9  1  0
 11 10  1  0
 12  7  1  0
 12 11  1  0
 13 17  1  0
 13 12  1  0
 14 13  2  0
 15 14  1  0
 15 16  1  0
 16 18  1  0
 16 17  2  0
 18 21  1  0
 20 19  1  0
 21 20  2  0
 22 21  1  0
 22 23  2  0
 23 19  1  0
  1 24  1  0
  2 25  1  0
  3 26  1  0
  8 27  1  0
  8 28  1  0
  9 29  1  0
  9 30  1  0
 10 31  1  0
 10 32  1  0
 11 33  1  0
 11 34  1  0
 12 35  1  6
 19 36  1  0
 22 37  1  0
 23 38  1  0
M  ISO  8  24  14  25  14  26  14  27  13  28  13  29  13  30  13  31  13
M  ISO  7  32  13  33  13  34  13  35  13  36   9  37  14  38  14
M  END
>  <minimizedAffinity>  (1) 
-5.79046392

>  <minimizedRMSD>  (1) 
0.370082647

$$$$
