
     RDKit          3D

 18 19  0  0  0  0  0  0  0  0999 V2000
   44.5010   35.9530   44.5780 C   0  0  0  0  0  0  0  0  0  0  0  0
   45.2220   35.9110   43.3610 C   0  0  0  0  0  0  0  0  0  0  0  0
   46.1480   34.8940   43.2250 C   0  0  0  0  0  0  0  0  0  0  0  0
   46.3350   33.9910   44.2370 N   0  0  0  0  0  0  0  0  0  0  0  0
   45.6170   34.0760   45.3890 C   0  0  0  0  0  0  0  0  0  0  0  0
   44.7090   35.0510   45.5520 N   0  0  0  0  0  0  0  0  0  0  0  0
   46.9310   34.7970   41.9770 C   0  0  0  0  0  0  0  0  0  0  0  0
   46.4830   34.1160   40.8610 C   0  0  0  0  0  0  0  0  0  0  0  0
   47.4780   34.2590   39.9360 N   0  0  0  0  0  0  0  0  0  0  0  0
   48.4590   34.9980   40.5060 C   0  0  0  0  0  0  0  0  0  0  0  0
   48.1420   35.3400   41.7630 N   0  0  0  0  0  0  0  0  0  0  0  0
   46.0520   32.7840   46.5380 S   0  0  0  0  0  0  0  0  0  0  0  0
   43.7517   36.7437   44.7304 H   0  0  0  0  0  0  0  0  0  0  0  0
   45.0540   36.6501   42.5638 H   0  0  0  0  0  0  0  0  0  0  0  0
   45.5319   33.5761   40.7432 H   0  0  0  0  0  0  0  0  0  0  0  0
   49.3952   35.2812   40.0027 H   0  0  0  0  0  0  0  0  0  0  0  0
   48.7042   35.8977   42.4217 H   0  0  0  0  0  0  0  0  0  0  0  0
   45.8978   33.2420   47.8199 H   0  0  0  0  0  0  0  0  0  0  0  0
  1  6  2  0
  2  1  1  0
  3  2  2  0
  3  4  1  0
  4  5  2  0
  5  6  1  0
  5 12  1  0
  7  3  1  0
  8  7  2  0
  9 10  2  0
  9  8  1  0
 10 11  1  0
 11  7  1  0
  1 13  1  0
  2 14  1  0
  8 15  1  0
 10 16  1  0
 11 17  1  0
 12 18  1  0
M  ISO  6  13  14  14  14  15  14  16  14  17   9  18  11
M  END
>  <minimizedAffinity>  (1) 
-4.37815666

>  <minimizedRMSD>  (1) 
0.063681066

$$$$
