
     RDKit          3D

 26 28  0  0  0  0  0  0  0  0999 V2000
   46.6920   34.7810   42.0010 C   0  0  0  0  0  0  0  0  0  0  0  0
   47.9580   35.3690   41.9020 C   0  0  0  0  0  0  0  0  0  0  0  0
   48.7790   35.2910   40.8030 C   0  0  0  0  0  0  0  0  0  0  0  0
   48.3390   34.5870   39.7070 C   0  0  0  0  0  0  0  0  0  0  0  0
   47.1040   33.9820   39.7270 C   0  0  0  0  0  0  0  0  0  0  0  0
   46.6460   33.3050   38.6190 C   0  0  0  0  0  0  0  0  0  0  0  0
   45.3870   32.7140   38.5920 C   0  0  0  0  0  0  0  0  0  0  0  0
   44.6250   32.8550   39.7520 C   0  0  0  0  0  0  0  0  0  0  0  0
   45.1200   33.5300   40.8180 C   0  0  0  0  0  0  0  0  0  0  0  0
   46.3550   34.1120   40.8630 C   0  0  0  0  0  0  0  0  0  0  0  0
   44.4410   35.9660   44.8490 C   0  0  0  0  0  0  0  0  0  0  0  0
   45.0850   35.9600   43.6150 C   0  0  0  0  0  0  0  0  0  0  0  0
   45.9930   34.9900   43.2340 C   0  0  0  0  0  0  0  0  0  0  0  0
   46.1780   34.0510   44.1950 N   0  0  0  0  0  0  0  0  0  0  0  0
   45.5830   34.0160   45.3920 C   0  0  0  0  0  0  0  0  0  0  0  0
   44.7180   34.9800   45.7010 N   0  0  0  0  0  0  0  0  0  0  0  0
   48.3237   35.9369   42.7702 H   0  0  0  0  0  0  0  0  0  0  0  0
   49.7644   35.7799   40.8001 H   0  0  0  0  0  0  0  0  0  0  0  0
   48.9753   34.5076   38.8133 H   0  0  0  0  0  0  0  0  0  0  0  0
   47.2924   33.2295   37.7322 H   0  0  0  0  0  0  0  0  0  0  0  0
   45.0156   32.1696   37.7112 H   0  0  0  0  0  0  0  0  0  0  0  0
   43.6175   32.4162   39.8018 H   0  0  0  0  0  0  0  0  0  0  0  0
   44.4821   33.6152   41.7101 H   0  0  0  0  0  0  0  0  0  0  0  0
   43.7262   36.7595   45.1123 H   0  0  0  0  0  0  0  0  0  0  0  0
   44.8594   36.7699   42.9056 H   0  0  0  0  0  0  0  0  0  0  0  0
   45.8033   33.2085   46.1058 H   0  0  0  0  0  0  0  0  0  0  0  0
  1 13  1  0
  2  1  2  0
  3  2  1  0
  4  5  1  0
  4  3  2  0
  5 10  2  0
  6  5  1  0
  7  6  2  0
  7  8  1  0
  8  9  2  0
  9 10  1  0
 10  1  1  0
 11 16  2  0
 12 11  1  0
 13 12  2  0
 13 14  1  0
 14 15  2  0
 15 16  1  0
  2 17  1  0
  3 18  1  0
  4 19  1  0
  6 20  1  0
  7 21  1  0
  8 22  1  0
  9 23  1  0
 11 24  1  0
 12 25  1  0
 15 26  1  0
M  ISO  8  17  14  18  14  19  14  20  14  21  14  22  14  23  14  24  14
M  ISO  2  25  14  26  14
M  END
>  <minimizedAffinity>  (1) 
-5.59469938

>  <minimizedRMSD>  (1) 
1.03474295

$$$$
