
     RDKit          3D

 37 40  0  0  0  0  0  0  0  0999 V2000
   46.5590   33.0060   45.4290 C   0  0  0  0  0  0  0  0  0  0  0  0
   44.4500   35.9020   44.6130 C   0  0  0  0  0  0  0  0  0  0  0  0
   43.9810   35.6250   43.3020 C   0  0  0  0  0  0  0  0  0  0  0  0
   44.4210   34.4170   42.7300 C   0  0  0  0  0  0  0  0  0  0  0  0
   45.2380   33.6060   43.4270 N   0  0  0  0  0  0  0  0  0  0  0  0
   45.6670   33.8970   44.6740 C   0  0  0  0  0  0  0  0  0  0  0  0
   45.2720   35.0390   45.2580 N   0  0  0  0  0  0  0  0  0  0  0  0
   43.9640   34.0810   41.3700 C   0  0  0  0  0  0  0  0  0  0  0  0
   42.6890   33.6100   41.1060 C   0  0  0  0  0  0  0  0  0  0  0  0
   42.6760   33.4250   39.7430 N   0  0  0  0  0  0  0  0  0  0  0  0
   43.8830   33.7740   39.2620 C   0  0  0  0  0  0  0  0  0  0  0  0
   44.6860   34.1790   40.2560 N   0  0  0  0  0  0  0  0  0  0  0  0
   45.9100   32.4280   46.6560 C   0  0  0  0  0  0  0  0  0  0  0  0
   46.4540   31.0910   46.8220 N   0  0  0  0  0  0  0  0  0  0  0  0
   46.0520   30.0310   46.0830 C   0  0  0  0  0  0  0  0  0  0  0  0
   46.7760   28.9610   46.5180 N   0  0  0  0  0  0  0  0  0  0  0  0
   47.6060   29.3800   47.5110 C   0  0  0  0  0  0  0  0  0  0  0  0
   48.5370   28.7150   48.2850 C   0  0  0  0  0  0  0  0  0  0  0  0
   48.7140   27.4720   48.0960 O   0  0  0  0  0  0  0  0  0  0  0  0
   49.2570   29.3530   49.2300 N   0  0  0  0  0  0  0  0  0  0  0  0
   49.0250   30.6690   49.3830 C   0  0  0  0  0  0  0  0  0  0  0  0
   49.7580   31.3840   50.3650 N   0  0  0  0  0  0  0  0  0  0  0  0
   48.1170   31.3580   48.6420 N   0  0  0  0  0  0  0  0  0  0  0  0
   47.3970   30.7330   47.7010 C   0  0  0  0  0  0  0  0  0  0  0  0
   47.4463   33.5779   45.7381 H   0  0  0  0  0  0  0  0  0  0  0  0
   46.8216   32.1663   44.7688 H   0  0  0  0  0  0  0  0  0  0  0  0
   44.1413   36.8318   45.1132 H   0  0  0  0  0  0  0  0  0  0  0  0
   43.3129   36.3142   42.7649 H   0  0  0  0  0  0  0  0  0  0  0  0
   41.8740   33.4261   41.8215 H   0  0  0  0  0  0  0  0  0  0  0  0
   44.1708   33.7328   38.2011 H   0  0  0  0  0  0  0  0  0  0  0  0
   45.6613   34.5001   40.1745 H   0  0  0  0  0  0  0  0  0  0  0  0
   46.1444   33.0452   47.5359 H   0  0  0  0  0  0  0  0  0  0  0  0
   44.8154   32.4009   46.5506 H   0  0  0  0  0  0  0  0  0  0  0  0
   45.2914   30.0325   45.2884 H   0  0  0  0  0  0  0  0  0  0  0  0
   49.9511   28.8565   49.8068 H   0  0  0  0  0  0  0  0  0  0  0  0
   49.5944   32.3923   50.4970 H   0  0  0  0  0  0  0  0  0  0  0  0
   50.4538   30.8948   50.9459 H   0  0  0  0  0  0  0  0  0  0  0  0
  1 13  1  0
  2  7  2  0
  3  2  1  0
  4  3  2  0
  4  5  1  0
  5  6  2  0
  6  7  1  0
  6  1  1  0
  8  4  1  0
  9  8  2  0
 10  9  1  0
 11 10  2  0
 11 12  1  0
 12  8  1  0
 13 14  1  0
 14 24  1  0
 15 16  2  0
 15 14  1  0
 16 17  1  0
 17 24  2  0
 17 18  1  0
 18 20  1  0
 19 18  2  0
 20 21  1  0
 21 22  1  0
 23 21  2  0
 24 23  1  0
  1 25  1  0
  1 26  1  0
  2 27  1  0
  3 28  1  0
  9 29  1  0
 11 30  1  0
 12 31  1  0
 13 32  1  0
 13 33  1  0
 15 34  1  0
 20 35  1  0
 22 36  1  0
 22 37  1  0
M  ISO  8  25   8  26   8  27  14  28  14  29  14  30  14  31   9  32   8
M  ISO  3  33   8  34  14  35   9
M  END
>  <minimizedAffinity>  (1) 
-5.25985098

>  <minimizedRMSD>  (1) 
2.66955638

$$$$
