
     RDKit          3D

 23 24  0  0  0  0  0  0  0  0999 V2000
   44.5820   35.6250   44.8000 C   0  0  0  0  0  0  0  0  0  0  0  0
   45.2500   35.6770   43.5530 C   0  0  0  0  0  0  0  0  0  0  0  0
   46.2550   34.7220   43.3450 C   0  0  0  0  0  0  0  0  0  0  0  0
   46.5290   33.8230   44.3220 N   0  0  0  0  0  0  0  0  0  0  0  0
   45.8720   33.8030   45.5010 C   0  0  0  0  0  0  0  0  0  0  0  0
   44.9100   34.6950   45.7340 N   0  0  0  0  0  0  0  0  0  0  0  0
   46.9870   34.7260   42.0640 C   0  0  0  0  0  0  0  0  0  0  0  0
   46.5100   34.1000   40.9310 C   0  0  0  0  0  0  0  0  0  0  0  0
   47.4730   34.3390   39.9860 N   0  0  0  0  0  0  0  0  0  0  0  0
   48.4460   35.0640   40.5550 C   0  0  0  0  0  0  0  0  0  0  0  0
   48.1700   35.3170   41.8450 N   0  0  0  0  0  0  0  0  0  0  0  0
   46.1820   32.8190   46.5520 C   0  0  0  0  0  0  0  0  0  0  0  0
   45.1890   32.8530   47.6910 C   0  0  0  0  0  0  0  0  0  0  0  0
   43.7836   36.3502   45.0163 H   0  0  0  0  0  0  0  0  0  0  0  0
   44.9944   36.4259   42.7889 H   0  0  0  0  0  0  0  0  0  0  0  0
   45.5718   33.5379   40.8132 H   0  0  0  0  0  0  0  0  0  0  0  0
   49.3520   35.4070   40.0339 H   0  0  0  0  0  0  0  0  0  0  0  0
   48.7414   35.8480   42.5176 H   0  0  0  0  0  0  0  0  0  0  0  0
   46.1730   31.8132   46.1067 H   0  0  0  0  0  0  0  0  0  0  0  0
   47.1702   33.0715   46.9638 H   0  0  0  0  0  0  0  0  0  0  0  0
   45.7292   32.8345   48.6491 H   0  0  0  0  0  0  0  0  0  0  0  0
   44.5883   33.7722   47.6264 H   0  0  0  0  0  0  0  0  0  0  0  0
   44.5268   31.9770   47.6264 H   0  0  0  0  0  0  0  0  0  0  0  0
  1  6  2  0
  2  1  1  0
  3  2  2  0
  3  4  1  0
  4  5  2  0
  5  6  1  0
  5 12  1  0
  7  3  1  0
  8  7  2  0
  9 10  2  0
  9  8  1  0
 10 11  1  0
 11  7  1  0
 12 13  1  0
  1 14  1  0
  2 15  1  0
  8 16  1  0
 10 17  1  0
 11 18  1  0
 12 19  1  0
 12 20  1  0
 13 21  1  0
 13 22  1  0
 13 23  1  0
M  ISO  8  14  14  15  14  16  14  17  14  18   9  19   8  20   8  21   8
M  ISO  2  22   8  23   8
M  END
>  <minimizedAffinity>  (1) 
-4.46220636

>  <minimizedRMSD>  (1) 
0.437151402

$$$$
