
     RDKit          3D

 30 32  0  0  0  0  0  0  0  0999 V2000
   44.5860   35.6560   44.7860 C   0  0  0  0  0  0  0  0  0  0  0  0
   45.2620   35.6990   43.5380 C   0  0  0  0  0  0  0  0  0  0  0  0
   46.2540   34.7140   43.3290 C   0  0  0  0  0  0  0  0  0  0  0  0
   46.5090   33.7970   44.3020 N   0  0  0  0  0  0  0  0  0  0  0  0
   45.8360   33.8010   45.4740 C   0  0  0  0  0  0  0  0  0  0  0  0
   44.8870   34.7170   45.7140 N   0  0  0  0  0  0  0  0  0  0  0  0
   46.9880   34.7260   42.0630 C   0  0  0  0  0  0  0  0  0  0  0  0
   46.5500   34.1100   40.9280 C   0  0  0  0  0  0  0  0  0  0  0  0
   47.5210   34.3670   39.9950 N   0  0  0  0  0  0  0  0  0  0  0  0
   48.4730   35.0990   40.5680 C   0  0  0  0  0  0  0  0  0  0  0  0
   48.1750   35.3430   41.8640 N   0  0  0  0  0  0  0  0  0  0  0  0
   46.1430   32.8430   46.5370 C   0  0  0  0  0  0  0  0  0  0  0  0
   45.2290   32.9210   47.7100 C   0  0  0  0  0  0  0  0  0  0  0  0
   44.7480   31.6410   48.2800 C   0  0  0  0  0  0  0  0  0  0  0  0
   45.4950   31.0990   49.4830 C   0  0  0  0  0  0  0  0  0  0  0  0
   45.4060   30.3470   48.1610 C   0  0  0  0  0  0  0  0  0  0  0  0
   43.8040   36.3986   45.0027 H   0  0  0  0  0  0  0  0  0  0  0  0
   45.0267   36.4568   42.7762 H   0  0  0  0  0  0  0  0  0  0  0  0
   45.6227   33.5343   40.7913 H   0  0  0  0  0  0  0  0  0  0  0  0
   49.3790   35.4568   40.0569 H   0  0  0  0  0  0  0  0  0  0  0  0
   48.7285   35.8792   42.5474 H   0  0  0  0  0  0  0  0  0  0  0  0
   46.0792   31.8286   46.1165 H   0  0  0  0  0  0  0  0  0  0  0  0
   47.1505   33.0890   46.9037 H   0  0  0  0  0  0  0  0  0  0  0  0
   45.7604   33.4597   48.5083 H   0  0  0  0  0  0  0  0  0  0  0  0
   44.3248   33.4205   47.3321 H   0  0  0  0  0  0  0  0  0  0  0  0
   43.7253   31.9487   48.0165 H   0  0  0  0  0  0  0  0  0  0  0  0
   46.4437   31.5552   49.8020 H   0  0  0  0  0  0  0  0  0  0  0  0
   45.2560   30.8852   50.5352 H   0  0  0  0  0  0  0  0  0  0  0  0
   44.8017   29.4304   48.0928 H   0  0  0  0  0  0  0  0  0  0  0  0
   46.1434   29.9178   47.4668 H   0  0  0  0  0  0  0  0  0  0  0  0
  1  6  2  0
  2  1  1  0
  3  2  2  0
  3  4  1  0
  4  5  2  0
  5  6  1  0
  5 12  1  0
  7  3  1  0
  8  7  2  0
  9 10  2  0
  9  8  1  0
 10 11  1  0
 11  7  1  0
 12 13  1  0
 13 14  1  0
 14 15  1  0
 16 14  1  0
 16 15  1  0
  1 17  1  0
  2 18  1  0
  8 19  1  0
 10 20  1  0
 11 21  1  0
 12 22  1  0
 12 23  1  0
 13 24  1  0
 13 25  1  0
 14 26  1  0
 15 27  1  0
 15 28  1  0
 16 29  1  0
 16 30  1  0
M  ISO  8  17  14  18  14  19  14  20  14  21   9  22   8  23   8  24   8
M  ISO  6  25   8  26  13  27  13  28  13  29  13  30  13
M  END
>  <minimizedAffinity>  (1) 
-5.24533558

>  <minimizedRMSD>  (1) 
0.988589406

$$$$
