
     RDKit          3D

 36 38  0  0  0  0  0  0  0  0999 V2000
   44.5460   35.8830   44.5890 C   0  0  0  0  0  0  0  0  0  0  0  0
   45.2710   35.8730   43.3670 C   0  0  0  0  0  0  0  0  0  0  0  0
   46.2200   34.8660   43.2060 C   0  0  0  0  0  0  0  0  0  0  0  0
   46.3960   33.9710   44.1990 N   0  0  0  0  0  0  0  0  0  0  0  0
   45.6920   34.0010   45.3560 C   0  0  0  0  0  0  0  0  0  0  0  0
   44.7840   34.9460   45.5370 N   0  0  0  0  0  0  0  0  0  0  0  0
   47.0020   34.8060   41.9560 C   0  0  0  0  0  0  0  0  0  0  0  0
   46.5670   34.1170   40.8400 C   0  0  0  0  0  0  0  0  0  0  0  0
   47.5470   34.2930   39.9070 N   0  0  0  0  0  0  0  0  0  0  0  0
   48.5000   35.0590   40.4860 C   0  0  0  0  0  0  0  0  0  0  0  0
   48.1800   35.3850   41.7510 N   0  0  0  0  0  0  0  0  0  0  0  0
   45.9140   33.0030   46.4120 C   0  0  0  0  0  0  0  0  0  0  0  0
   46.0430   31.5990   45.8560 C   0  0  0  0  0  0  0  0  0  0  0  0
   46.6750   30.7020   46.7200 N   0  0  0  0  0  0  0  0  0  0  0  0
   45.8540   29.9320   47.5790 C   0  0  0  0  0  0  0  0  0  0  0  0
   46.1250   28.4430   47.3580 C   0  0  0  0  0  0  0  0  0  0  0  0
   47.4400   28.1390   47.6050 O   0  0  0  0  0  0  0  0  0  0  0  0
   48.3820   29.0160   47.1670 C   0  0  0  0  0  0  0  0  0  0  0  0
   47.8980   30.1340   46.2870 C   0  0  0  0  0  0  0  0  0  0  0  0
   43.7856   36.6579   44.7662 H   0  0  0  0  0  0  0  0  0  0  0  0
   45.0913   36.6252   42.5848 H   0  0  0  0  0  0  0  0  0  0  0  0
   45.6318   33.5488   40.7279 H   0  0  0  0  0  0  0  0  0  0  0  0
   49.4251   35.3769   39.9828 H   0  0  0  0  0  0  0  0  0  0  0  0
   48.7258   35.9555   42.4124 H   0  0  0  0  0  0  0  0  0  0  0  0
   46.8390   33.2570   46.9504 H   0  0  0  0  0  0  0  0  0  0  0  0
   45.0421   33.0216   47.0824 H   0  0  0  0  0  0  0  0  0  0  0  0
   45.0338   31.2184   45.6399 H   0  0  0  0  0  0  0  0  0  0  0  0
   46.6708   31.6696   44.9555 H   0  0  0  0  0  0  0  0  0  0  0  0
   46.0747   30.1920   48.6248 H   0  0  0  0  0  0  0  0  0  0  0  0
   44.7976   30.1453   47.3589 H   0  0  0  0  0  0  0  0  0  0  0  0
   45.4872   27.8571   48.0361 H   0  0  0  0  0  0  0  0  0  0  0  0
   45.9006   28.1986   46.3092 H   0  0  0  0  0  0  0  0  0  0  0  0
   48.8555   29.4675   48.0513 H   0  0  0  0  0  0  0  0  0  0  0  0
   49.0623   28.4232   46.5379 H   0  0  0  0  0  0  0  0  0  0  0  0
   47.7588   29.7411   45.2690 H   0  0  0  0  0  0  0  0  0  0  0  0
   48.6569   30.9293   46.3258 H   0  0  0  0  0  0  0  0  0  0  0  0
  1  6  2  0
  2  1  1  0
  3  2  2  0
  3  4  1  0
  4  5  2  0
  5  6  1  0
  5 12  1  0
  7  3  1  0
  8  7  2  0
  9 10  2  0
  9  8  1  0
 10 11  1  0
 11  7  1  0
 13 12  1  0
 13 14  1  0
 14 15  1  0
 16 15  1  0
 16 17  1  0
 18 17  1  0
 19 14  1  0
 19 18  1  0
  1 20  1  0
  2 21  1  0
  8 22  1  0
 10 23  1  0
 11 24  1  0
 12 25  1  0
 12 26  1  0
 13 27  1  0
 13 28  1  0
 15 29  1  0
 15 30  1  0
 16 31  1  0
 16 32  1  0
 18 33  1  0
 18 34  1  0
 19 35  1  0
 19 36  1  0
M  ISO  8  20  14  21  14  22  14  23  14  24   9  25   8  26   8  27   8
M  ISO  8  28   8  29  13  30  13  31  13  32  13  33  13  34  13  35  13
M  ISO  1  36  13
M  END
>  <minimizedAffinity>  (1) 
-4.87561417

>  <minimizedRMSD>  (1) 
2.49451828

$$$$
