
     RDKit          3D

 24 25  0  0  0  0  0  0  0  0999 V2000
   44.5920   35.4160   45.1130 C   0  0  0  0  0  0  0  0  0  0  0  0
   45.2310   35.5260   43.8520 C   0  0  0  0  0  0  0  0  0  0  0  0
   46.2310   34.5780   43.5870 C   0  0  0  0  0  0  0  0  0  0  0  0
   46.5320   33.6300   44.5190 N   0  0  0  0  0  0  0  0  0  0  0  0
   45.9000   33.5580   45.7120 C   0  0  0  0  0  0  0  0  0  0  0  0
   44.9450   34.4420   45.9970 N   0  0  0  0  0  0  0  0  0  0  0  0
   46.9370   34.6330   42.2970 C   0  0  0  0  0  0  0  0  0  0  0  0
   46.3930   34.1180   41.1280 C   0  0  0  0  0  0  0  0  0  0  0  0
   47.3380   34.3600   40.1740 N   0  0  0  0  0  0  0  0  0  0  0  0
   48.3700   34.9810   40.7640 C   0  0  0  0  0  0  0  0  0  0  0  0
   48.1370   35.1560   42.0760 N   0  0  0  0  0  0  0  0  0  0  0  0
   46.2260   32.5350   46.7050 C   0  0  0  0  0  0  0  0  0  0  0  0
   45.5670   32.8080   48.0470 C   0  0  0  0  0  0  0  0  0  0  0  0
   44.3440   32.1300   48.0710 O   0  0  0  0  0  0  0  0  0  0  0  0
   43.7984   36.1288   45.3816 H   0  0  0  0  0  0  0  0  0  0  0  0
   44.9595   36.3066   43.1261 H   0  0  0  0  0  0  0  0  0  0  0  0
   45.4181   33.6251   40.9996 H   0  0  0  0  0  0  0  0  0  0  0  0
   49.2841   35.3037   40.2441 H   0  0  0  0  0  0  0  0  0  0  0  0
   48.7589   35.6022   42.7653 H   0  0  0  0  0  0  0  0  0  0  0  0
   45.8823   31.5583   46.3336 H   0  0  0  0  0  0  0  0  0  0  0  0
   47.3156   32.5449   46.8553 H   0  0  0  0  0  0  0  0  0  0  0  0
   46.2118   32.4447   48.8608 H   0  0  0  0  0  0  0  0  0  0  0  0
   45.4092   33.8880   48.1838 H   0  0  0  0  0  0  0  0  0  0  0  0
   44.0694   31.9778   49.0099 H   0  0  0  0  0  0  0  0  0  0  0  0
  1  6  2  0
  2  1  1  0
  3  2  2  0
  3  4  1  0
  4  5  2  0
  5  6  1  0
  5 12  1  0
  7  3  1  0
  8  7  2  0
  9 10  2  0
  9  8  1  0
 10 11  1  0
 11  7  1  0
 12 13  1  0
 13 14  1  0
  1 15  1  0
  2 16  1  0
  8 17  1  0
 10 18  1  0
 11 19  1  0
 12 20  1  0
 12 21  1  0
 13 22  1  0
 13 23  1  0
 14 24  1  0
M  ISO  8  15  14  16  14  17  14  18  14  19   9  20   8  21   8  22   8
M  ISO  2  23   8  24   3
M  END
>  <minimizedAffinity>  (1) 
-4.6332469

>  <minimizedRMSD>  (1) 
0.432592571

$$$$
