
     RDKit          3D

 29 31  0  0  0  0  0  0  0  0999 V2000
   44.5810   35.4220   44.8140 C   0  0  0  0  0  0  0  0  0  0  0  0
   45.1970   35.4840   43.5370 C   0  0  0  0  0  0  0  0  0  0  0  0
   46.3120   34.6410   43.3530 C   0  0  0  0  0  0  0  0  0  0  0  0
   46.7290   33.8380   44.3660 N   0  0  0  0  0  0  0  0  0  0  0  0
   46.0980   33.8240   45.5620 C   0  0  0  0  0  0  0  0  0  0  0  0
   45.0420   34.6030   45.7820 N   0  0  0  0  0  0  0  0  0  0  0  0
   46.9980   34.6610   42.0540 C   0  0  0  0  0  0  0  0  0  0  0  0
   46.5100   34.0490   40.9330 C   0  0  0  0  0  0  0  0  0  0  0  0
   47.4410   34.3080   39.9620 N   0  0  0  0  0  0  0  0  0  0  0  0
   48.4290   35.0440   40.5160 C   0  0  0  0  0  0  0  0  0  0  0  0
   48.1760   35.2740   41.8050 N   0  0  0  0  0  0  0  0  0  0  0  0
   46.5720   32.9430   46.6570 C   0  0  0  0  0  0  0  0  0  0  0  0
   45.4260   32.4280   47.5030 C   0  0  0  0  0  0  0  0  0  0  0  0
   45.3980   30.9550   47.2800 C   0  0  0  0  0  0  0  0  0  0  0  0
   45.1380   30.1820   48.3470 C   0  0  0  0  0  0  0  0  0  0  0  0
   45.1860   28.4370   47.7050 S   0  0  0  0  0  0  0  0  0  0  0  0
   45.5780   29.1390   45.9810 C   0  0  0  0  0  0  0  0  0  0  0  0
   45.5850   30.2340   46.2060 N   0  0  0  0  0  0  0  0  0  0  0  0
   43.7066   36.0570   45.0195 H   0  0  0  0  0  0  0  0  0  0  0  0
   44.8279   36.1477   42.7412 H   0  0  0  0  0  0  0  0  0  0  0  0
   45.5766   33.4757   40.8329 H   0  0  0  0  0  0  0  0  0  0  0  0
   49.3188   35.4037   39.9785 H   0  0  0  0  0  0  0  0  0  0  0  0
   48.7556   35.8061   42.4697 H   0  0  0  0  0  0  0  0  0  0  0  0
   47.1040   32.0857   46.2188 H   0  0  0  0  0  0  0  0  0  0  0  0
   47.2368   33.5324   47.3056 H   0  0  0  0  0  0  0  0  0  0  0  0
   45.6010   32.6528   48.5655 H   0  0  0  0  0  0  0  0  0  0  0  0
   44.4714   32.9007   47.2287 H   0  0  0  0  0  0  0  0  0  0  0  0
   44.9395   30.5100   49.3780 H   0  0  0  0  0  0  0  0  0  0  0  0
   45.7497   28.6145   45.0295 H   0  0  0  0  0  0  0  0  0  0  0  0
  1  6  2  0
  2  1  1  0
  3  2  2  0
  3  4  1  0
  4  5  2  0
  5  6  1  0
  5 12  1  0
  7  3  1  0
  8  7  2  0
  9 10  2  0
  9  8  1  0
 10 11  1  0
 11  7  1  0
 12 13  1  0
 14 13  1  0
 14 15  2  0
 16 15  1  0
 17 18  2  0
 17 16  1  0
 18 14  1  0
  1 19  1  0
  2 20  1  0
  8 21  1  0
 10 22  1  0
 11 23  1  0
 12 24  1  0
 12 25  1  0
 13 26  1  0
 13 27  1  0
 15 28  1  0
 17 29  1  0
M  ISO  8  19  14  20  14  21  14  22  14  23   9  24   8  25   8  26   8
M  ISO  3  27   8  28  14  29  14
M  END
>  <minimizedAffinity>  (1) 
-4.8442378

>  <minimizedRMSD>  (1) 
1.59595776

$$$$
