
     RDKit          3D

 41 44  0  0  1  0  0  0  0  0999 V2000
   44.4850   36.0080   44.8070 C   0  0  0  0  0  0  0  0  0  0  0  0
   45.1120   36.0710   43.5300 C   0  0  0  0  0  0  0  0  0  0  0  0
   45.9720   35.0560   43.2030 C   0  0  0  0  0  0  0  0  0  0  0  0
   46.1760   34.0540   44.1130 N   0  0  0  0  0  0  0  0  0  0  0  0
   45.5670   34.0310   45.3030 C   0  0  0  0  0  0  0  0  0  0  0  0
   44.7300   34.9950   45.6490 N   0  0  0  0  0  0  0  0  0  0  0  0
   45.8330   32.9280   46.2370 N   0  0  0  0  0  0  0  0  0  0  0  0
   45.1750   32.8900   47.5170 C   0  0  0  0  0  0  0  0  0  0  0  0
   46.0520   32.3230   48.5950 C   0  0  0  0  0  0  0  0  0  0  0  0
   47.4790   32.3220   48.1460 C   0  0  0  0  0  0  0  0  0  0  0  0
   47.5690   31.3520   46.9630 C   0  0  0  0  0  0  0  0  0  0  0  0
   46.7750   31.8810   45.8370 C   0  0  1  0  0  0  0  0  0  0  0  0
   46.0970   30.8230   45.0220 C   0  0  0  0  0  0  0  0  0  0  0  0
   46.1820   30.6010   43.7150 N   0  0  0  0  0  0  0  0  0  0  0  0
   45.4640   29.5820   43.3540 O   0  0  0  0  0  0  0  0  0  0  0  0
   44.8930   29.1230   44.4460 C   0  0  0  0  0  0  0  0  0  0  0  0
   45.2510   29.8610   45.5210 N   0  0  0  0  0  0  0  0  0  0  0  0
   43.7990   27.6950   44.4050 S   0  0  0  0  0  0  0  0  0  0  0  0
   44.0960   26.8280   45.9410 C   0  0  0  0  0  0  0  0  0  0  0  0
   45.2970   26.5720   46.5680 C   0  0  0  0  0  0  0  0  0  0  0  0
   45.2910   25.8790   47.7600 C   0  0  0  0  0  0  0  0  0  0  0  0
   44.1190   25.4400   48.3320 C   0  0  0  0  0  0  0  0  0  0  0  0
   42.9060   25.6860   47.7230 C   0  0  0  0  0  0  0  0  0  0  0  0
   42.8970   26.3870   46.5140 C   0  0  0  0  0  0  0  0  0  0  0  0
   43.7879   36.8042   45.1071 H   0  0  0  0  0  0  0  0  0  0  0  0
   44.9140   36.9003   42.8349 H   0  0  0  0  0  0  0  0  0  0  0  0
   46.4870   35.0464   42.2311 H   0  0  0  0  0  0  0  0  0  0  0  0
   44.8883   33.9143   47.7973 H   0  0  0  0  0  0  0  0  0  0  0  0
   44.2952   32.2366   47.4224 H   0  0  0  0  0  0  0  0  0  0  0  0
   45.9562   32.9367   49.5029 H   0  0  0  0  0  0  0  0  0  0  0  0
   45.7399   31.2900   48.8083 H   0  0  0  0  0  0  0  0  0  0  0  0
   47.7778   33.3327   47.8309 H   0  0  0  0  0  0  0  0  0  0  0  0
   48.1497   32.0139   48.9616 H   0  0  0  0  0  0  0  0  0  0  0  0
   48.6194   31.2457   46.6540 H   0  0  0  0  0  0  0  0  0  0  0  0
   47.1756   30.3691   47.2616 H   0  0  0  0  0  0  0  0  0  0  0  0
   47.5218   32.3489   45.1787 H   0  0  0  0  0  0  0  0  0  0  0  0
   46.2437   26.9147   46.1249 H   0  0  0  0  0  0  0  0  0  0  0  0
   46.2457   25.6722   48.2657 H   0  0  0  0  0  0  0  0  0  0  0  0
   44.1497   24.8882   49.2831 H   0  0  0  0  0  0  0  0  0  0  0  0
   41.9671   25.3383   48.1786 H   0  0  0  0  0  0  0  0  0  0  0  0
   41.9417   26.5936   46.0093 H   0  0  0  0  0  0  0  0  0  0  0  0
  1  6  2  0
  2  1  1  0
  3  2  2  0
  3  4  1  0
  4  5  2  0
  5  6  1  0
  5  7  1  0
  7  8  1  0
  8  9  1  0
 10  9  1  0
 11 10  1  0
 12  7  1  0
 12 11  1  0
 13 17  1  0
 13 12  1  0
 14 13  2  0
 15 14  1  0
 15 16  1  0
 16 17  2  0
 18 16  1  0
 18 19  1  0
 19 24  1  0
 19 20  2  0
 20 21  1  0
 21 22  2  0
 23 22  1  0
 24 23  2  0
  1 25  1  0
  2 26  1  0
  3 27  1  0
  8 28  1  0
  8 29  1  0
  9 30  1  0
  9 31  1  0
 10 32  1  0
 10 33  1  0
 11 34  1  0
 11 35  1  0
 12 36  1  6
 20 37  1  0
 21 38  1  0
 22 39  1  0
 23 40  1  0
 24 41  1  0
M  ISO  8  25  14  26  14  27  14  28  13  29  13  30  13  31  13  32  13
M  ISO  8  33  13  34  13  35  13  36  13  37  14  38  14  39  14  40  14
M  ISO  1  41  14
M  END
>  <minimizedAffinity>  (1) 
-5.65858316

>  <minimizedRMSD>  (1) 
1.34452236

$$$$
