
     RDKit          3D

 38 41  0  0  0  0  0  0  0  0999 V2000
   45.5800   33.1930   46.4500 C   0  0  0  0  0  0  0  0  0  0  0  0
   44.5100   36.1140   44.5300 C   0  0  0  0  0  0  0  0  0  0  0  0
   45.2300   36.0090   43.3210 C   0  0  0  0  0  0  0  0  0  0  0  0
   46.0960   34.9010   43.1890 C   0  0  0  0  0  0  0  0  0  0  0  0
   46.1670   34.0400   44.2120 N   0  0  0  0  0  0  0  0  0  0  0  0
   45.4630   34.1690   45.3580 C   0  0  0  0  0  0  0  0  0  0  0  0
   44.6440   35.1940   45.5140 N   0  0  0  0  0  0  0  0  0  0  0  0
   46.8670   34.7460   41.9520 C   0  0  0  0  0  0  0  0  0  0  0  0
   48.1320   35.2870   41.7970 C   0  0  0  0  0  0  0  0  0  0  0  0
   48.4870   34.9160   40.5230 N   0  0  0  0  0  0  0  0  0  0  0  0
   47.4930   34.2150   39.9940 C   0  0  0  0  0  0  0  0  0  0  0  0
   46.4590   34.0860   40.8600 N   0  0  0  0  0  0  0  0  0  0  0  0
   46.8740   32.4260   46.4310 C   0  0  0  0  0  0  0  0  0  0  0  0
   47.4960   32.2980   48.1350 S   0  0  0  0  0  0  0  0  0  0  0  0
   48.2550   30.6830   48.2790 C   0  0  0  0  0  0  0  0  0  0  0  0
   47.7590   29.7540   47.4140 N   0  0  0  0  0  0  0  0  0  0  0  0
   48.2450   28.5000   47.4210 C   0  0  0  0  0  0  0  0  0  0  0  0
   49.2140   28.1490   48.2680 N   0  0  0  0  0  0  0  0  0  0  0  0
   49.7410   29.0250   49.1420 C   0  0  0  0  0  0  0  0  0  0  0  0
   50.7400   28.7280   50.0410 C   0  0  0  0  0  0  0  0  0  0  0  0
   51.2190   29.7000   50.9030 C   0  0  0  0  0  0  0  0  0  0  0  0
   50.7070   30.9880   50.8840 C   0  0  0  0  0  0  0  0  0  0  0  0
   49.7000   31.3180   49.9910 C   0  0  0  0  0  0  0  0  0  0  0  0
   49.2570   30.3160   49.1520 C   0  0  0  0  0  0  0  0  0  0  0  0
   45.5075   33.7305   47.4070 H   0  0  0  0  0  0  0  0  0  0  0  0
   44.7680   32.4624   46.3203 H   0  0  0  0  0  0  0  0  0  0  0  0
   43.8248   36.9620   44.6761 H   0  0  0  0  0  0  0  0  0  0  0  0
   45.1220   36.7546   42.5195 H   0  0  0  0  0  0  0  0  0  0  0  0
   48.7145   35.8745   42.5220 H   0  0  0  0  0  0  0  0  0  0  0  0
   47.5064   33.7913   38.9790 H   0  0  0  0  0  0  0  0  0  0  0  0
   45.5660   33.5943   40.7128 H   0  0  0  0  0  0  0  0  0  0  0  0
   46.7023   31.4193   46.0223 H   0  0  0  0  0  0  0  0  0  0  0  0
   47.6101   32.9454   45.7998 H   0  0  0  0  0  0  0  0  0  0  0  0
   47.8389   27.7554   46.7205 H   0  0  0  0  0  0  0  0  0  0  0  0
   51.1605   27.7121   50.0749 H   0  0  0  0  0  0  0  0  0  0  0  0
   52.0187   29.4460   51.6143 H   0  0  0  0  0  0  0  0  0  0  0  0
   51.0994   31.7470   51.5767 H   0  0  0  0  0  0  0  0  0  0  0  0
   49.2737   32.3313   49.9528 H   0  0  0  0  0  0  0  0  0  0  0  0
  2  7  2  0
  3  2  1  0
  4  3  2  0
  4  5  1  0
  5  6  2  0
  6  7  1  0
  6  1  1  0
  8  4  1  0
  9  8  2  0
 10  9  1  0
 11 10  2  0
 11 12  1  0
 12  8  1  0
 13  1  1  0
 13 14  1  0
 14 15  1  0
 15 24  2  0
 16 17  2  0
 16 15  1  0
 17 18  1  0
 18 19  2  0
 19 24  1  0
 19 20  1  0
 20 21  2  0
 22 21  1  0
 23 22  2  0
 24 23  1  0
  1 25  1  0
  1 26  1  0
  2 27  1  0
  3 28  1  0
  9 29  1  0
 11 30  1  0
 12 31  1  0
 13 32  1  0
 13 33  1  0
 17 34  1  0
 20 35  1  0
 21 36  1  0
 22 37  1  0
 23 38  1  0
M  ISO  8  25   8  26   8  27  14  28  14  29  14  30  14  31   9  32   8
M  ISO  6  33   8  34  14  35  14  36  14  37  14  38  14
M  END
>  <minimizedAffinity>  (1) 
-5.9267168

>  <minimizedRMSD>  (1) 
1.02278781

$$$$
