
     RDKit          3D

 44 47  0  0  1  0  0  0  0  0999 V2000
   44.6010   35.7650   44.9130 C   0  0  0  0  0  0  0  0  0  0  0  0
   45.1940   35.6840   43.6090 C   0  0  0  0  0  0  0  0  0  0  0  0
   45.9800   34.5830   43.3330 C   0  0  0  0  0  0  0  0  0  0  0  0
   46.1430   33.6390   44.3100 N   0  0  0  0  0  0  0  0  0  0  0  0
   45.5680   33.7470   45.5080 C   0  0  0  0  0  0  0  0  0  0  0  0
   44.8060   34.8000   45.8140 N   0  0  0  0  0  0  0  0  0  0  0  0
   45.7840   32.7120   46.5170 N   0  0  0  0  0  0  0  0  0  0  0  0
   45.1700   32.8170   47.8250 C   0  0  0  0  0  0  0  0  0  0  0  0
   46.0400   32.2770   48.9160 C   0  0  0  0  0  0  0  0  0  0  0  0
   47.4520   32.1350   48.4230 C   0  0  0  0  0  0  0  0  0  0  0  0
   47.4140   31.0650   47.3380 C   0  0  0  0  0  0  0  0  0  0  0  0
   46.6260   31.5750   46.1850 C   0  0  1  0  0  0  0  0  0  0  0  0
   45.8470   30.5080   45.4770 C   0  0  0  0  0  0  0  0  0  0  0  0
   45.7990   30.2370   44.1730 N   0  0  0  0  0  0  0  0  0  0  0  0
   45.0190   29.2280   43.9190 O   0  0  0  0  0  0  0  0  0  0  0  0
   44.5440   28.8170   45.0790 C   0  0  0  0  0  0  0  0  0  0  0  0
   45.0350   29.5860   46.0710 N   0  0  0  0  0  0  0  0  0  0  0  0
   43.4280   27.4270   45.1990 S   0  0  0  0  0  0  0  0  0  0  0  0
   44.1410   26.0900   46.1730 C   0  0  0  0  0  0  0  0  0  0  0  0
   43.6470   24.7910   45.5400 C   0  0  0  0  0  0  0  0  0  0  0  0
   42.1500   24.9210   45.8020 C   0  0  0  0  0  0  0  0  0  0  0  0
   42.0280   25.7320   47.0860 C   0  0  0  0  0  0  0  0  0  0  0  0
   43.4620   25.9650   47.5330 C   0  0  0  0  0  0  0  0  0  0  0  0
   43.9721   36.6292   45.1732 H   0  0  0  0  0  0  0  0  0  0  0  0
   45.0286   36.4698   42.8572 H   0  0  0  0  0  0  0  0  0  0  0  0
   46.4634   34.4675   42.3517 H   0  0  0  0  0  0  0  0  0  0  0  0
   44.9626   33.8772   48.0324 H   0  0  0  0  0  0  0  0  0  0  0  0
   44.2476   32.2180   47.8082 H   0  0  0  0  0  0  0  0  0  0  0  0
   46.0207   32.9668   49.7726 H   0  0  0  0  0  0  0  0  0  0  0  0
   45.6635   31.2903   49.2236 H   0  0  0  0  0  0  0  0  0  0  0  0
   47.8090   33.0886   48.0067 H   0  0  0  0  0  0  0  0  0  0  0  0
   48.1367   31.8575   49.2379 H   0  0  0  0  0  0  0  0  0  0  0  0
   48.4387   30.8339   47.0114 H   0  0  0  0  0  0  0  0  0  0  0  0
   46.9470   30.1507   47.7329 H   0  0  0  0  0  0  0  0  0  0  0  0
   47.3847   31.9383   45.4763 H   0  0  0  0  0  0  0  0  0  0  0  0
   45.2250   26.2672   46.2322 H   0  0  0  0  0  0  0  0  0  0  0  0
   44.0731   23.9069   46.0369 H   0  0  0  0  0  0  0  0  0  0  0  0
   43.9224   24.6565   44.4836 H   0  0  0  0  0  0  0  0  0  0  0  0
   41.6584   25.4446   44.9689 H   0  0  0  0  0  0  0  0  0  0  0  0
   41.6659   23.9376   45.8940 H   0  0  0  0  0  0  0  0  0  0  0  0
   41.5213   26.6892   46.8936 H   0  0  0  0  0  0  0  0  0  0  0  0
   41.4327   25.2125   47.8514 H   0  0  0  0  0  0  0  0  0  0  0  0
   43.8542   25.1141   48.1093 H   0  0  0  0  0  0  0  0  0  0  0  0
   43.6060   26.8235   48.2055 H   0  0  0  0  0  0  0  0  0  0  0  0
  1  6  2  0
  2  1  1  0
  3  2  2  0
  3  4  1  0
  4  5  2  0
  5  6  1  0
  5  7  1  0
  7  8  1  0
  8  9  1  0
 10  9  1  0
 11 10  1  0
 12  7  1  0
 12 11  1  0
 13 17  1  0
 13 12  1  0
 14 13  2  0
 15 14  1  0
 15 16  1  0
 16 18  1  0
 16 17  2  0
 18 19  1  0
 19 23  1  0
 20 21  1  0
 20 19  1  0
 21 22  1  0
 22 23  1  0
  1 24  1  0
  2 25  1  0
  3 26  1  0
  8 27  1  0
  8 28  1  0
  9 29  1  0
  9 30  1  0
 10 31  1  0
 10 32  1  0
 11 33  1  0
 11 34  1  0
 12 35  1  6
 19 36  1  0
 20 37  1  0
 20 38  1  0
 21 39  1  0
 21 40  1  0
 22 41  1  0
 22 42  1  0
 23 43  1  0
 23 44  1  0
M  ISO  8  24  14  25  14  26  14  27  13  28  13  29  13  30  13  31  13
M  ISO  8  32  13  33  13  34  13  35  13  36  13  37  13  38  13  39  13
M  ISO  5  40  13  41  13  42  13  43  13  44  13
M  END
>  <minimizedAffinity>  (1) 
-5.61418915

>  <minimizedRMSD>  (1) 
1.97505343

$$$$
