
     RDKit          3D

 31 33  0  0  0  0  0  0  0  0999 V2000
   44.4960   36.1640   44.4990 C   0  0  0  0  0  0  0  0  0  0  0  0
   45.2200   36.0440   43.2850 C   0  0  0  0  0  0  0  0  0  0  0  0
   46.0730   34.9440   43.1740 C   0  0  0  0  0  0  0  0  0  0  0  0
   46.1620   34.0770   44.1960 N   0  0  0  0  0  0  0  0  0  0  0  0
   45.4480   34.2290   45.3480 C   0  0  0  0  0  0  0  0  0  0  0  0
   44.6300   35.2620   45.4850 N   0  0  0  0  0  0  0  0  0  0  0  0
   46.8530   34.7670   41.9330 C   0  0  0  0  0  0  0  0  0  0  0  0
   48.1260   35.2970   41.7830 C   0  0  0  0  0  0  0  0  0  0  0  0
   48.4740   34.9040   40.5110 N   0  0  0  0  0  0  0  0  0  0  0  0
   47.4810   34.2080   39.9870 C   0  0  0  0  0  0  0  0  0  0  0  0
   46.4470   34.0990   40.8440 N   0  0  0  0  0  0  0  0  0  0  0  0
   45.5620   33.2640   46.4570 C   0  0  0  0  0  0  0  0  0  0  0  0
   46.9480   32.6850   46.5740 C   0  0  0  0  0  0  0  0  0  0  0  0
   47.1360   31.8800   48.1780 S   0  0  0  0  0  0  0  0  0  0  0  0
   46.5810   30.1910   47.9880 C   0  0  0  0  0  0  0  0  0  0  0  0
   45.2370   29.8550   48.1050 C   0  0  0  0  0  0  0  0  0  0  0  0
   45.0910   28.4950   47.9140 C   0  0  0  0  0  0  0  0  0  0  0  0
   46.3510   28.0360   47.6850 N   0  0  0  0  0  0  0  0  0  0  0  0
   47.2340   29.0220   47.7260 N   0  0  0  0  0  0  0  0  0  0  0  0
   43.8106   37.0135   44.6356 H   0  0  0  0  0  0  0  0  0  0  0  0
   45.1149   36.7791   42.4734 H   0  0  0  0  0  0  0  0  0  0  0  0
   48.7127   35.8862   42.5032 H   0  0  0  0  0  0  0  0  0  0  0  0
   47.4964   33.7719   38.9772 H   0  0  0  0  0  0  0  0  0  0  0  0
   45.5505   33.6138   40.6963 H   0  0  0  0  0  0  0  0  0  0  0  0
   45.3124   33.7761   47.3980 H   0  0  0  0  0  0  0  0  0  0  0  0
   44.8682   32.4351   46.2531 H   0  0  0  0  0  0  0  0  0  0  0  0
   47.1049   31.9469   45.7736 H   0  0  0  0  0  0  0  0  0  0  0  0
   47.6895   33.4923   46.4819 H   0  0  0  0  0  0  0  0  0  0  0  0
   44.4197   30.5603   48.3162 H   0  0  0  0  0  0  0  0  0  0  0  0
   44.1595   27.9106   47.9411 H   0  0  0  0  0  0  0  0  0  0  0  0
   46.5874   27.0501   47.5034 H   0  0  0  0  0  0  0  0  0  0  0  0
  1  6  2  0
  2  1  1  0
  3  2  2  0
  3  4  1  0
  4  5  2  0
  5  6  1  0
  5 12  1  0
  7  3  1  0
  8  7  2  0
  9  8  1  0
 10  9  2  0
 10 11  1  0
 11  7  1  0
 12 13  1  0
 13 14  1  0
 15 16  1  0
 15 14  1  0
 17 16  2  0
 18 19  1  0
 18 17  1  0
 19 15  2  0
  1 20  1  0
  2 21  1  0
  8 22  1  0
 10 23  1  0
 11 24  1  0
 12 25  1  0
 12 26  1  0
 13 27  1  0
 13 28  1  0
 16 29  1  0
 17 30  1  0
 18 31  1  0
M  ISO  8  20  14  21  14  22  14  23  14  24   9  25   8  26   8  27   8
M  ISO  4  28   8  29  14  30  14  31   9
M  END
>  <minimizedAffinity>  (1) 
-5.1520071

>  <minimizedRMSD>  (1) 
2.22046208

$$$$
