
     RDKit          3D

 27 28  0  0  0  0  0  0  0  0999 V2000
   44.5730   36.0080   44.4500 C   0  0  0  0  0  0  0  0  0  0  0  0
   45.3060   35.9640   43.2430 C   0  0  0  0  0  0  0  0  0  0  0  0
   46.2090   34.9050   43.0970 C   0  0  0  0  0  0  0  0  0  0  0  0
   46.3190   34.0180   44.0950 N   0  0  0  0  0  0  0  0  0  0  0  0
   45.6080   34.0790   45.2410 C   0  0  0  0  0  0  0  0  0  0  0  0
   44.7400   35.0700   45.4160 N   0  0  0  0  0  0  0  0  0  0  0  0
   47.0030   34.8060   41.8530 C   0  0  0  0  0  0  0  0  0  0  0  0
   48.2350   35.4190   41.7130 C   0  0  0  0  0  0  0  0  0  0  0  0
   48.6150   35.0750   40.4320 N   0  0  0  0  0  0  0  0  0  0  0  0
   47.6630   34.3260   39.9020 C   0  0  0  0  0  0  0  0  0  0  0  0
   46.6370   34.1340   40.7560 N   0  0  0  0  0  0  0  0  0  0  0  0
   45.7560   33.0930   46.3070 C   0  0  0  0  0  0  0  0  0  0  0  0
   46.5370   31.8870   45.8960 C   0  0  0  0  0  0  0  0  0  0  0  0
   46.6080   30.7180   47.2900 S   0  0  0  0  0  0  0  0  0  0  0  0
   47.2010   31.6090   48.7510 C   0  0  0  0  0  0  0  0  0  0  0  0
   46.1750   32.2050   49.4320 F   0  0  0  0  0  0  0  0  0  0  0  0
   48.1490   32.5790   48.4130 F   0  0  0  0  0  0  0  0  0  0  0  0
   47.7990   30.7120   49.6410 F   0  0  0  0  0  0  0  0  0  0  0  0
   43.8502   36.8215   44.6103 H   0  0  0  0  0  0  0  0  0  0  0  0
   45.1737   36.7233   42.4582 H   0  0  0  0  0  0  0  0  0  0  0  0
   48.7800   36.0324   42.4457 H   0  0  0  0  0  0  0  0  0  0  0  0
   47.7031   33.9089   38.8849 H   0  0  0  0  0  0  0  0  0  0  0  0
   45.7730   33.5954   40.5998 H   0  0  0  0  0  0  0  0  0  0  0  0
   46.2710   33.5699   47.1540 H   0  0  0  0  0  0  0  0  0  0  0  0
   44.7457   32.7499   46.5744 H   0  0  0  0  0  0  0  0  0  0  0  0
   46.0466   31.4060   45.0368 H   0  0  0  0  0  0  0  0  0  0  0  0
   47.5566   32.1857   45.6112 H   0  0  0  0  0  0  0  0  0  0  0  0
  1  6  2  0
  2  1  1  0
  3  2  2  0
  3  4  1  0
  4  5  2  0
  5  6  1  0
  5 12  1  0
  7  3  1  0
  8  7  2  0
  9  8  1  0
 10  9  2  0
 10 11  1  0
 11  7  1  0
 13 12  1  0
 13 14  1  0
 14 15  1  0
 15 16  1  0
 15 18  1  0
 17 15  1  0
  1 19  1  0
  2 20  1  0
  8 21  1  0
 10 22  1  0
 11 23  1  0
 12 24  1  0
 12 25  1  0
 13 26  1  0
 13 27  1  0
M  ISO  8  19  14  20  14  21  14  22  14  23   9  24   8  25   8  26   8
M  ISO  1  27   8
M  END
>  <minimizedAffinity>  (1) 
-5.168365

>  <minimizedRMSD>  (1) 
1.24336457

$$$$
