
     RDKit          3D

 31 33  0  0  0  0  0  0  0  0999 V2000
   44.4990   36.1610   44.4910 C   0  0  0  0  0  0  0  0  0  0  0  0
   45.2220   36.0490   43.2830 C   0  0  0  0  0  0  0  0  0  0  0  0
   46.0890   34.9370   43.1710 C   0  0  0  0  0  0  0  0  0  0  0  0
   46.1690   34.0790   44.1950 N   0  0  0  0  0  0  0  0  0  0  0  0
   45.4570   34.2190   45.3460 C   0  0  0  0  0  0  0  0  0  0  0  0
   44.6290   35.2570   45.4830 N   0  0  0  0  0  0  0  0  0  0  0  0
   46.8670   34.7690   41.9330 C   0  0  0  0  0  0  0  0  0  0  0  0
   48.1240   35.3010   41.7620 C   0  0  0  0  0  0  0  0  0  0  0  0
   48.4840   34.9220   40.5050 N   0  0  0  0  0  0  0  0  0  0  0  0
   47.4830   34.2080   39.9840 C   0  0  0  0  0  0  0  0  0  0  0  0
   46.4470   34.0890   40.8530 N   0  0  0  0  0  0  0  0  0  0  0  0
   45.5690   33.2610   46.4450 C   0  0  0  0  0  0  0  0  0  0  0  0
   46.9690   32.7470   46.6260 C   0  0  0  0  0  0  0  0  0  0  0  0
   47.0910   31.8080   48.1580 S   0  0  0  0  0  0  0  0  0  0  0  0
   46.3370   27.9800   47.6890 N   0  0  0  0  0  0  0  0  0  0  0  0
   47.2050   29.0010   47.7320 N   0  0  0  0  0  0  0  0  0  0  0  0
   46.5080   30.1340   47.9830 C   0  0  0  0  0  0  0  0  0  0  0  0
   45.1740   29.7970   48.0960 C   0  0  0  0  0  0  0  0  0  0  0  0
   45.0820   28.4480   47.9100 C   0  0  0  0  0  0  0  0  0  0  0  0
   43.8112   37.0087   44.6263 H   0  0  0  0  0  0  0  0  0  0  0  0
   45.1167   36.7862   42.4734 H   0  0  0  0  0  0  0  0  0  0  0  0
   48.7067   35.8979   42.4791 H   0  0  0  0  0  0  0  0  0  0  0  0
   47.4963   33.7702   38.9750 H   0  0  0  0  0  0  0  0  0  0  0  0
   45.5531   33.5956   40.7170 H   0  0  0  0  0  0  0  0  0  0  0  0
   45.2523   33.7545   47.3757 H   0  0  0  0  0  0  0  0  0  0  0  0
   44.9281   32.4006   46.2022 H   0  0  0  0  0  0  0  0  0  0  0  0
   47.2298   32.0960   45.7786 H   0  0  0  0  0  0  0  0  0  0  0  0
   47.6624   33.5998   46.6705 H   0  0  0  0  0  0  0  0  0  0  0  0
   46.5837   26.9951   47.5155 H   0  0  0  0  0  0  0  0  0  0  0  0
   44.3412   30.4866   48.2981 H   0  0  0  0  0  0  0  0  0  0  0  0
   44.1595   27.8494   47.9347 H   0  0  0  0  0  0  0  0  0  0  0  0
  1  6  2  0
  2  1  1  0
  3  2  2  0
  3  4  1  0
  4  5  2  0
  5  6  1  0
  5 12  1  0
  7  3  1  0
  8  7  2  0
  9  8  1  0
 10  9  2  0
 10 11  1  0
 11  7  1  0
 12 13  1  0
 13 14  1  0
 15 16  1  0
 15 19  1  0
 16 17  2  0
 17 18  1  0
 17 14  1  0
 19 18  2  0
  1 20  1  0
  2 21  1  0
  8 22  1  0
 10 23  1  0
 11 24  1  0
 12 25  1  0
 12 26  1  0
 13 27  1  0
 13 28  1  0
 15 29  1  0
 18 30  1  0
 19 31  1  0
M  ISO  8  20  14  21  14  22  14  23  14  24   9  25   8  26   8  27   8
M  ISO  4  28   8  29   9  30  14  31  14
M  END
>  <minimizedAffinity>  (1) 
-5.12147522

>  <minimizedRMSD>  (1) 
1.12415683

$$$$
