
     RDKit          3D

 31 33  0  0  0  0  0  0  0  0999 V2000
   44.4990   36.0600   44.6180 C   0  0  0  0  0  0  0  0  0  0  0  0
   45.2130   35.9620   43.3980 C   0  0  0  0  0  0  0  0  0  0  0  0
   46.0830   34.8710   43.2450 C   0  0  0  0  0  0  0  0  0  0  0  0
   46.1700   34.0050   44.2690 N   0  0  0  0  0  0  0  0  0  0  0  0
   45.4810   34.1140   45.4270 C   0  0  0  0  0  0  0  0  0  0  0  0
   44.6530   35.1390   45.5910 N   0  0  0  0  0  0  0  0  0  0  0  0
   46.8430   34.7260   42.0010 C   0  0  0  0  0  0  0  0  0  0  0  0
   48.0960   35.2860   41.8290 C   0  0  0  0  0  0  0  0  0  0  0  0
   48.4420   34.9200   40.5600 N   0  0  0  0  0  0  0  0  0  0  0  0
   47.4490   34.1940   40.0410 C   0  0  0  0  0  0  0  0  0  0  0  0
   46.4440   34.0590   40.9130 N   0  0  0  0  0  0  0  0  0  0  0  0
   45.6160   33.1320   46.5130 C   0  0  0  0  0  0  0  0  0  0  0  0
   47.0480   32.7530   46.7820 C   0  0  0  0  0  0  0  0  0  0  0  0
   47.1430   31.7650   48.2930 S   0  0  0  0  0  0  0  0  0  0  0  0
   46.2870   30.2220   48.0410 C   0  0  0  0  0  0  0  0  0  0  0  0
   45.0390   29.6940   48.2520 C   0  0  0  0  0  0  0  0  0  0  0  0
   45.1300   28.3800   47.7810 C   0  0  0  0  0  0  0  0  0  0  0  0
   46.4360   28.1940   47.3140 C   0  0  0  0  0  0  0  0  0  0  0  0
   47.0840   29.3380   47.4970 O   0  0  0  0  0  0  0  0  0  0  0  0
   43.8077   36.9012   44.7740 H   0  0  0  0  0  0  0  0  0  0  0  0
   45.0904   36.7113   42.6021 H   0  0  0  0  0  0  0  0  0  0  0  0
   48.6768   35.8851   42.5457 H   0  0  0  0  0  0  0  0  0  0  0  0
   47.4565   33.7633   39.0288 H   0  0  0  0  0  0  0  0  0  0  0  0
   45.5575   33.5526   40.7765 H   0  0  0  0  0  0  0  0  0  0  0  0
   45.1878   33.5617   47.4306 H   0  0  0  0  0  0  0  0  0  0  0  0
   45.0846   32.2201   46.2030 H   0  0  0  0  0  0  0  0  0  0  0  0
   47.4360   32.1662   45.9364 H   0  0  0  0  0  0  0  0  0  0  0  0
   47.6495   33.6657   46.9050 H   0  0  0  0  0  0  0  0  0  0  0  0
   44.1629   30.1921   48.6928 H   0  0  0  0  0  0  0  0  0  0  0  0
   44.3240   27.6314   47.7782 H   0  0  0  0  0  0  0  0  0  0  0  0
   46.8483   27.2725   46.8771 H   0  0  0  0  0  0  0  0  0  0  0  0
  1  6  2  0
  2  1  1  0
  3  2  2  0
  3  4  1  0
  4  5  2  0
  5  6  1  0
  5 12  1  0
  7  3  1  0
  8  7  2  0
  9  8  1  0
 10  9  2  0
 10 11  1  0
 11  7  1  0
 12 13  1  0
 13 14  1  0
 15 16  2  0
 15 14  1  0
 17 16  1  0
 18 19  1  0
 18 17  2  0
 19 15  1  0
  1 20  1  0
  2 21  1  0
  8 22  1  0
 10 23  1  0
 11 24  1  0
 12 25  1  0
 12 26  1  0
 13 27  1  0
 13 28  1  0
 16 29  1  0
 17 30  1  0
 18 31  1  0
M  ISO  8  20  14  21  14  22  14  23  14  24   9  25   8  26   8  27   8
M  ISO  4  28   8  29  14  30  14  31  14
M  END
>  <minimizedAffinity>  (1) 
-5.08588457

>  <minimizedRMSD>  (1) 
0.991252601

$$$$
