
     RDKit          3D

 31 33  0  0  0  0  0  0  0  0999 V2000
   44.5240   36.0740   44.7070 C   0  0  0  0  0  0  0  0  0  0  0  0
   45.2450   35.9900   43.4880 C   0  0  0  0  0  0  0  0  0  0  0  0
   46.0810   34.8740   43.3300 C   0  0  0  0  0  0  0  0  0  0  0  0
   46.1410   33.9670   44.3320 N   0  0  0  0  0  0  0  0  0  0  0  0
   45.4390   34.0770   45.4830 C   0  0  0  0  0  0  0  0  0  0  0  0
   44.6350   35.1350   45.6570 N   0  0  0  0  0  0  0  0  0  0  0  0
   46.8520   34.7270   42.0970 C   0  0  0  0  0  0  0  0  0  0  0  0
   48.1320   35.2280   41.9440 C   0  0  0  0  0  0  0  0  0  0  0  0
   48.4760   34.8750   40.6590 N   0  0  0  0  0  0  0  0  0  0  0  0
   47.4550   34.2170   40.1230 C   0  0  0  0  0  0  0  0  0  0  0  0
   46.4290   34.1020   40.9770 N   0  0  0  0  0  0  0  0  0  0  0  0
   45.5360   33.0660   46.5480 C   0  0  0  0  0  0  0  0  0  0  0  0
   46.9740   32.6940   46.8460 C   0  0  0  0  0  0  0  0  0  0  0  0
   47.0750   31.9000   48.4610 S   0  0  0  0  0  0  0  0  0  0  0  0
   48.6910   31.1740   48.7260 C   0  0  0  0  0  0  0  0  0  0  0  0
   49.7360   31.7510   49.5140 C   0  0  0  0  0  0  0  0  0  0  0  0
   50.9040   31.0380   49.5940 C   0  0  0  0  0  0  0  0  0  0  0  0
   51.0330   29.8310   48.9390 C   0  0  0  0  0  0  0  0  0  0  0  0
   49.3800   29.6060   48.0970 S   0  0  0  0  0  0  0  0  0  0  0  0
   43.8567   36.9318   44.8769 H   0  0  0  0  0  0  0  0  0  0  0  0
   45.1535   36.7596   42.7074 H   0  0  0  0  0  0  0  0  0  0  0  0
   48.7354   35.7807   42.6792 H   0  0  0  0  0  0  0  0  0  0  0  0
   47.4518   33.8141   39.0994 H   0  0  0  0  0  0  0  0  0  0  0  0
   45.5222   33.6409   40.8157 H   0  0  0  0  0  0  0  0  0  0  0  0
   45.0760   33.4681   47.4627 H   0  0  0  0  0  0  0  0  0  0  0  0
   45.0139   32.1602   46.2061 H   0  0  0  0  0  0  0  0  0  0  0  0
   47.3396   32.0006   46.0743 H   0  0  0  0  0  0  0  0  0  0  0  0
   47.5922   33.6038   46.8485 H   0  0  0  0  0  0  0  0  0  0  0  0
   49.6092   32.7151   50.0282 H   0  0  0  0  0  0  0  0  0  0  0  0
   51.7444   31.4312   50.1848 H   0  0  0  0  0  0  0  0  0  0  0  0
   51.9037   29.1592   48.9174 H   0  0  0  0  0  0  0  0  0  0  0  0
  1  6  2  0
  2  1  1  0
  3  2  2  0
  3  4  1  0
  4  5  2  0
  5  6  1  0
  5 12  1  0
  7  3  1  0
  8  7  2  0
  9  8  1  0
 10  9  2  0
 10 11  1  0
 11  7  1  0
 12 13  1  0
 13 14  1  0
 14 15  1  0
 15 16  2  0
 16 17  1  0
 18 17  2  0
 19 15  1  0
 19 18  1  0
  1 20  1  0
  2 21  1  0
  8 22  1  0
 10 23  1  0
 11 24  1  0
 12 25  1  0
 12 26  1  0
 13 27  1  0
 13 28  1  0
 16 29  1  0
 17 30  1  0
 18 31  1  0
M  ISO  8  20  14  21  14  22  14  23  14  24   9  25   8  26   8  27   8
M  ISO  4  28   8  29  14  30  14  31  14
M  END
>  <minimizedAffinity>  (1) 
-5.05112934

>  <minimizedRMSD>  (1) 
0.607262909

$$$$
