
     RDKit          3D

 38 41  0  0  1  0  0  0  0  0999 V2000
   44.5090   35.9520   44.8690 C   0  0  0  0  0  0  0  0  0  0  0  0
   45.1210   35.9860   43.5770 C   0  0  0  0  0  0  0  0  0  0  0  0
   45.9590   34.9510   43.2540 C   0  0  0  0  0  0  0  0  0  0  0  0
   46.1550   33.9610   44.1820 N   0  0  0  0  0  0  0  0  0  0  0  0
   45.5680   33.9660   45.3690 C   0  0  0  0  0  0  0  0  0  0  0  0
   44.7500   34.9520   45.7150 N   0  0  0  0  0  0  0  0  0  0  0  0
   45.8240   32.8730   46.3200 N   0  0  0  0  0  0  0  0  0  0  0  0
   45.1890   32.8710   47.6130 C   0  0  0  0  0  0  0  0  0  0  0  0
   46.0800   32.3090   48.6870 C   0  0  0  0  0  0  0  0  0  0  0  0
   47.5030   32.2720   48.2020 C   0  0  0  0  0  0  0  0  0  0  0  0
   47.5430   31.2790   47.0460 C   0  0  0  0  0  0  0  0  0  0  0  0
   46.7360   31.7980   45.9240 C   0  0  1  0  0  0  0  0  0  0  0  0
   46.0310   30.7470   45.1400 C   0  0  0  0  0  0  0  0  0  0  0  0
   46.1100   30.4770   43.8410 N   0  0  0  0  0  0  0  0  0  0  0  0
   45.3600   29.4750   43.5050 O   0  0  0  0  0  0  0  0  0  0  0  0
   44.7630   29.0630   44.6110 C   0  0  0  0  0  0  0  0  0  0  0  0
   45.1530   29.8270   45.6490 N   0  0  0  0  0  0  0  0  0  0  0  0
   43.6240   27.6790   44.6040 S   0  0  0  0  0  0  0  0  0  0  0  0
   43.6250   26.8880   46.2060 C   0  0  0  0  0  0  0  0  0  0  0  0
   42.4850   26.1320   46.4690 C   0  0  0  0  0  0  0  0  0  0  0  0
   42.6270   25.5790   47.7470 C   0  0  0  0  0  0  0  0  0  0  0  0
   43.8710   26.0500   48.1750 C   0  0  0  0  0  0  0  0  0  0  0  0
   44.4150   26.8010   47.2550 O   0  0  0  0  0  0  0  0  0  0  0  0
   43.8294   36.7635   45.1684 H   0  0  0  0  0  0  0  0  0  0  0  0
   44.9273   36.8081   42.8723 H   0  0  0  0  0  0  0  0  0  0  0  0
   46.4612   34.9154   42.2760 H   0  0  0  0  0  0  0  0  0  0  0  0
   44.9244   33.9052   47.8785 H   0  0  0  0  0  0  0  0  0  0  0  0
   44.2965   32.2313   47.5480 H   0  0  0  0  0  0  0  0  0  0  0  0
   46.0162   32.9436   49.5832 H   0  0  0  0  0  0  0  0  0  0  0  0
   45.7534   31.2875   48.9316 H   0  0  0  0  0  0  0  0  0  0  0  0
   47.8124   33.2695   47.8565 H   0  0  0  0  0  0  0  0  0  0  0  0
   48.1891   31.9712   49.0075 H   0  0  0  0  0  0  0  0  0  0  0  0
   48.5834   31.1414   46.7166 H   0  0  0  0  0  0  0  0  0  0  0  0
   47.1328   30.3136   47.3772 H   0  0  0  0  0  0  0  0  0  0  0  0
   47.4800   32.2357   45.2422 H   0  0  0  0  0  0  0  0  0  0  0  0
   41.6275   25.9944   45.7939 H   0  0  0  0  0  0  0  0  0  0  0  0
   41.9247   24.9271   48.2872 H   0  0  0  0  0  0  0  0  0  0  0  0
   44.3277   25.8207   49.1491 H   0  0  0  0  0  0  0  0  0  0  0  0
  1  6  2  0
  2  1  1  0
  3  2  2  0
  3  4  1  0
  4  5  2  0
  5  6  1  0
  5  7  1  0
  7  8  1  0
  8  9  1  0
 10  9  1  0
 11 10  1  0
 12  7  1  0
 12 11  1  0
 13 17  1  0
 13 12  1  0
 14 13  2  0
 15 14  1  0
 15 16  1  0
 16 17  2  0
 18 16  1  0
 18 19  1  0
 19 20  2  0
 19 23  1  0
 20 21  1  0
 21 22  2  0
 23 22  1  0
  1 24  1  0
  2 25  1  0
  3 26  1  0
  8 27  1  0
  8 28  1  0
  9 29  1  0
  9 30  1  0
 10 31  1  0
 10 32  1  0
 11 33  1  0
 11 34  1  0
 12 35  1  6
 20 36  1  0
 21 37  1  0
 22 38  1  0
M  ISO  8  24  14  25  14  26  14  27  13  28  13  29  13  30  13  31  13
M  ISO  7  32  13  33  13  34  13  35  13  36  14  37  14  38  14
M  END
>  <minimizedAffinity>  (1) 
-5.60633087

>  <minimizedRMSD>  (1) 
1.32912171

$$$$
