
     RDKit          3D

 30 31  0  0  0  0  0  0  0  0999 V2000
   44.5130   36.1530   44.4780 C   0  0  0  0  0  0  0  0  0  0  0  0
   45.2310   36.0420   43.2720 C   0  0  0  0  0  0  0  0  0  0  0  0
   46.0990   34.9390   43.1530 C   0  0  0  0  0  0  0  0  0  0  0  0
   46.1790   34.0840   44.1820 N   0  0  0  0  0  0  0  0  0  0  0  0
   45.4750   34.2110   45.3330 C   0  0  0  0  0  0  0  0  0  0  0  0
   44.6450   35.2470   45.4750 N   0  0  0  0  0  0  0  0  0  0  0  0
   46.8760   34.7710   41.9260 C   0  0  0  0  0  0  0  0  0  0  0  0
   48.1390   35.3020   41.7530 C   0  0  0  0  0  0  0  0  0  0  0  0
   48.4930   34.9160   40.4940 N   0  0  0  0  0  0  0  0  0  0  0  0
   47.5020   34.2090   39.9750 C   0  0  0  0  0  0  0  0  0  0  0  0
   46.4750   34.0940   40.8370 N   0  0  0  0  0  0  0  0  0  0  0  0
   45.5930   33.2510   46.4340 C   0  0  0  0  0  0  0  0  0  0  0  0
   46.8860   32.4870   46.3870 C   0  0  0  0  0  0  0  0  0  0  0  0
   47.4610   32.1960   48.0760 S   0  0  0  0  0  0  0  0  0  0  0  0
   46.5140   30.8570   48.8400 C   0  0  0  0  0  0  0  0  0  0  0  0
   45.2590   31.3290   49.5220 C   0  0  0  0  0  0  0  0  0  0  0  0
   43.8249   37.0004   44.6139 H   0  0  0  0  0  0  0  0  0  0  0  0
   45.1197   36.7795   42.4634 H   0  0  0  0  0  0  0  0  0  0  0  0
   48.7250   35.8993   42.4670 H   0  0  0  0  0  0  0  0  0  0  0  0
   47.5160   33.7706   38.9662 H   0  0  0  0  0  0  0  0  0  0  0  0
   45.5832   33.5989   40.6942 H   0  0  0  0  0  0  0  0  0  0  0  0
   45.5392   33.7973   47.3872 H   0  0  0  0  0  0  0  0  0  0  0  0
   44.7702   32.5270   46.3394 H   0  0  0  0  0  0  0  0  0  0  0  0
   46.7266   31.5235   45.8807 H   0  0  0  0  0  0  0  0  0  0  0  0
   47.6394   33.0662   45.8331 H   0  0  0  0  0  0  0  0  0  0  0  0
   46.2359   30.1356   48.0575 H   0  0  0  0  0  0  0  0  0  0  0  0
   47.1539   30.4051   49.6122 H   0  0  0  0  0  0  0  0  0  0  0  0
   45.3932   31.2785   50.6126 H   0  0  0  0  0  0  0  0  0  0  0  0
   45.0492   32.3675   49.2260 H   0  0  0  0  0  0  0  0  0  0  0  0
   44.4169   30.6861   49.2260 H   0  0  0  0  0  0  0  0  0  0  0  0
  1  6  2  0
  2  1  1  0
  3  2  2  0
  3  4  1  0
  4  5  2  0
  5  6  1  0
  5 12  1  0
  7  3  1  0
  8  7  2  0
  9  8  1  0
 10  9  2  0
 10 11  1  0
 11  7  1  0
 13 12  1  0
 13 14  1  0
 14 15  1  0
 15 16  1  0
  1 17  1  0
  2 18  1  0
  8 19  1  0
 10 20  1  0
 11 21  1  0
 12 22  1  0
 12 23  1  0
 13 24  1  0
 13 25  1  0
 15 26  1  0
 15 27  1  0
 16 28  1  0
 16 29  1  0
 16 30  1  0
M  ISO  8  17  14  18  14  19  14  20  14  21   9  22   8  23   8  24   8
M  ISO  6  25   8  26   8  27   8  28   8  29   8  30   8
M  END
>  <minimizedAffinity>  (1) 
-4.89618158

>  <minimizedRMSD>  (1) 
0.151953712

$$$$
