
     RDKit          3D

 34 36  0  0  0  0  0  0  0  0999 V2000
   45.2870   36.0140   42.9660 C   0  0  0  0  0  0  0  0  0  0  0  0
   44.2410   35.7000   42.0750 C   0  0  0  0  0  0  0  0  0  0  0  0
   43.7610   34.3690   42.1120 C   0  0  0  0  0  0  0  0  0  0  0  0
   44.3240   33.5110   42.9810 N   0  0  0  0  0  0  0  0  0  0  0  0
   45.3310   33.8480   43.8250 C   0  0  0  0  0  0  0  0  0  0  0  0
   45.7940   35.0870   43.8050 N   0  0  0  0  0  0  0  0  0  0  0  0
   42.6670   33.9760   41.2030 C   0  0  0  0  0  0  0  0  0  0  0  0
   42.6970   34.2380   39.8540 C   0  0  0  0  0  0  0  0  0  0  0  0
   41.5160   33.7190   39.4000 N   0  0  0  0  0  0  0  0  0  0  0  0
   40.8550   33.1920   40.4370 C   0  0  0  0  0  0  0  0  0  0  0  0
   41.5410   33.3320   41.5870 N   0  0  0  0  0  0  0  0  0  0  0  0
   45.9160   32.8770   44.7580 C   0  0  0  0  0  0  0  0  0  0  0  0
   45.8580   33.3380   46.1790 C   0  0  0  0  0  0  0  0  0  0  0  0
   46.9920   32.3900   47.2160 S   0  0  0  0  0  0  0  0  0  0  0  0
   46.6250   30.6610   47.2740 C   0  0  0  0  0  0  0  0  0  0  0  0
   47.4540   29.5930   46.9810 C   0  0  0  0  0  0  0  0  0  0  0  0
   47.0670   28.2800   47.0620 C   0  0  0  0  0  0  0  0  0  0  0  0
   45.7660   27.9490   47.4600 C   0  0  0  0  0  0  0  0  0  0  0  0
   44.9530   29.0210   47.7490 C   0  0  0  0  0  0  0  0  0  0  0  0
   45.3210   30.3430   47.6750 C   0  0  0  0  0  0  0  0  0  0  0  0
   45.6978   37.0343   42.9775 H   0  0  0  0  0  0  0  0  0  0  0  0
   43.8204   36.4490   41.3879 H   0  0  0  0  0  0  0  0  0  0  0  0
   43.4842   34.7449   39.2766 H   0  0  0  0  0  0  0  0  0  0  0  0
   39.8720   32.7043   40.3596 H   0  0  0  0  0  0  0  0  0  0  0  0
   41.2729   33.0230   42.5322 H   0  0  0  0  0  0  0  0  0  0  0  0
   45.3640   31.9294   44.6723 H   0  0  0  0  0  0  0  0  0  0  0  0
   46.9759   32.7548   44.4904 H   0  0  0  0  0  0  0  0  0  0  0  0
   46.1346   34.4017   46.2233 H   0  0  0  0  0  0  0  0  0  0  0  0
   44.8345   33.1891   46.5534 H   0  0  0  0  0  0  0  0  0  0  0  0
   48.4848   29.8099   46.6642 H   0  0  0  0  0  0  0  0  0  0  0  0
   47.7825   27.4825   46.8130 H   0  0  0  0  0  0  0  0  0  0  0  0
   45.4191   26.9079   47.5361 H   0  0  0  0  0  0  0  0  0  0  0  0
   43.9227   28.8014   48.0656 H   0  0  0  0  0  0  0  0  0  0  0  0
   44.6037   31.1381   47.9264 H   0  0  0  0  0  0  0  0  0  0  0  0
  1  6  2  0
  2  3  2  0
  2  1  1  0
  3  4  1  0
  4  5  2  0
  5 12  1  0
  6  5  1  0
  7 11  1  0
  7  3  1  0
  8  7  2  0
  9  8  1  0
  9 10  2  0
 10 11  1  0
 12 13  1  0
 13 14  1  0
 14 15  1  0
 15 20  2  0
 16 17  2  0
 16 15  1  0
 17 18  1  0
 18 19  2  0
 20 19  1  0
  1 21  1  0
  2 22  1  0
  8 23  1  0
 10 24  1  0
 11 25  1  0
 12 26  1  0
 12 27  1  0
 13 28  1  0
 13 29  1  0
 16 30  1  0
 17 31  1  0
 18 32  1  0
 19 33  1  0
 20 34  1  0
M  ISO  8  21  14  22  14  23  14  24  14  25   9  26   8  27   8  28   8
M  ISO  6  29   8  30  14  31  14  32  14  33  14  34  14
M  END
>  <minimizedAffinity>  (1) 
-4.47084713

>  <minimizedRMSD>  (1) 
4.89765692

$$$$
