
     RDKit          3D

 51 55  0  0  0  0  0  0  0  0999 V2000
   46.7050   29.8060   43.8770 C   0  0  0  0  0  0  0  0  0  0  0  0
   45.2600   29.9020   44.2730 C   0  0  0  0  0  0  0  0  0  0  0  0
   45.2500   27.8710   47.3190 C   0  0  0  0  0  0  0  0  0  0  0  0
   44.1300   27.0260   47.1360 C   0  0  0  0  0  0  0  0  0  0  0  0
   43.3810   27.1980   45.9520 C   0  0  0  0  0  0  0  0  0  0  0  0
   43.7850   28.1520   45.0840 N   0  0  0  0  0  0  0  0  0  0  0  0
   44.8540   28.9280   45.3010 C   0  0  0  0  0  0  0  0  0  0  0  0
   45.5820   28.7980   46.3990 N   0  0  0  0  0  0  0  0  0  0  0  0
   42.2050   26.3430   45.7090 C   0  0  0  0  0  0  0  0  0  0  0  0
   41.4340   25.8600   46.7350 C   0  0  0  0  0  0  0  0  0  0  0  0
   40.4640   25.1280   46.0980 N   0  0  0  0  0  0  0  0  0  0  0  0
   40.6900   25.2020   44.7870 C   0  0  0  0  0  0  0  0  0  0  0  0
   41.7670   25.9510   44.5060 N   0  0  0  0  0  0  0  0  0  0  0  0
   47.4570   31.4480   44.0480 S   0  0  0  0  0  0  0  0  0  0  0  0
   46.5460   32.4990   45.1240 C   0  0  0  0  0  0  0  0  0  0  0  0
   46.1510   32.4120   46.4650 C   0  0  0  0  0  0  0  0  0  0  0  0
   45.3750   33.4810   46.7900 N   0  0  0  0  0  0  0  0  0  0  0  0
   45.2780   34.2490   45.6430 C   0  0  0  0  0  0  0  0  0  0  0  0
   44.5700   35.4590   45.5440 C   0  0  0  0  0  0  0  0  0  0  0  0
   44.6180   36.0920   44.3030 C   0  0  0  0  0  0  0  0  0  0  0  0
   45.3560   35.5130   43.2450 C   0  0  0  0  0  0  0  0  0  0  0  0
   46.0050   34.3350   43.4760 C   0  0  0  0  0  0  0  0  0  0  0  0
   46.0110   33.6300   44.6320 C   0  0  0  0  0  0  0  0  0  0  0  0
   46.8810   34.2910   42.3870 N   0  0  0  0  0  0  0  0  0  0  0  0
   48.2930   34.5350   42.6050 C   0  0  0  0  0  0  0  0  0  0  0  0
   48.5780   35.7550   41.6860 C   0  0  0  0  0  0  0  0  0  0  0  0
   48.7500   35.2150   40.4180 O   0  0  0  0  0  0  0  0  0  0  0  0
   47.8890   34.1560   40.1640 C   0  0  0  0  0  0  0  0  0  0  0  0
   46.6320   34.2020   40.9720 C   0  0  0  0  0  0  0  0  0  0  0  0
   46.7823   29.4691   42.8327 H   0  0  0  0  0  0  0  0  0  0  0  0
   47.2260   29.0831   44.5219 H   0  0  0  0  0  0  0  0  0  0  0  0
   45.0748   30.9138   44.6629 H   0  0  0  0  0  0  0  0  0  0  0  0
   44.6681   29.6797   43.3729 H   0  0  0  0  0  0  0  0  0  0  0  0
   45.8605   27.7694   48.2284 H   0  0  0  0  0  0  0  0  0  0  0  0
   43.8549   26.2679   47.8840 H   0  0  0  0  0  0  0  0  0  0  0  0
   41.5630   26.0215   47.8154 H   0  0  0  0  0  0  0  0  0  0  0  0
   40.0679   24.7080   44.0261 H   0  0  0  0  0  0  0  0  0  0  0  0
   42.1638   26.1725   43.5817 H   0  0  0  0  0  0  0  0  0  0  0  0
   46.4273   31.5997   47.1533 H   0  0  0  0  0  0  0  0  0  0  0  0
   44.9461   33.6789   47.7053 H   0  0  0  0  0  0  0  0  0  0  0  0
   44.0124   35.8805   46.3934 H   0  0  0  0  0  0  0  0  0  0  0  0
   44.0827   37.0402   44.1471 H   0  0  0  0  0  0  0  0  0  0  0  0
   45.4058   36.0001   42.2600 H   0  0  0  0  0  0  0  0  0  0  0  0
   48.4951   34.7771   43.6588 H   0  0  0  0  0  0  0  0  0  0  0  0
   48.9252   33.6634   42.3799 H   0  0  0  0  0  0  0  0  0  0  0  0
   47.7290   36.4544   41.6969 H   0  0  0  0  0  0  0  0  0  0  0  0
   49.4588   36.3252   42.0161 H   0  0  0  0  0  0  0  0  0  0  0  0
   47.6185   34.1753   39.0980 H   0  0  0  0  0  0  0  0  0  0  0  0
   48.4195   33.2337   40.4434 H   0  0  0  0  0  0  0  0  0  0  0  0
   46.0471   35.0806   40.6622 H   0  0  0  0  0  0  0  0  0  0  0  0
   46.0870   33.2639   40.7901 H   0  0  0  0  0  0  0  0  0  0  0  0
  1 14  1  0
  1  2  1  0
  2  7  1  0
  4  3  2  0
  5  4  1  0
  6  7  1  0
  6  5  2  0
  7  8  2  0
  8  3  1  0
  9  5  1  0
  9 10  2  0
 11 10  1  0
 12 11  2  0
 13 12  1  0
 13  9  1  0
 14 15  1  0
 15 16  2  0
 16 17  1  0
 18 17  1  0
 19 18  2  0
 20 19  1  0
 21 22  1  0
 21 20  2  0
 22 23  2  0
 23 15  1  0
 23 18  1  0
 24 25  1  0
 24 22  1  0
 26 25  1  0
 27 26  1  0
 28 27  1  0
 28 29  1  0
 29 24  1  0
  1 30  1  0
  1 31  1  0
  2 32  1  0
  2 33  1  0
  3 34  1  0
  4 35  1  0
 10 36  1  0
 12 37  1  0
 13 38  1  0
 16 39  1  0
 17 40  1  0
 19 41  1  0
 20 42  1  0
 21 43  1  0
 25 44  1  0
 25 45  1  0
 26 46  1  0
 26 47  1  0
 28 48  1  0
 28 49  1  0
 29 50  1  0
 29 51  1  0
M  ISO  8  30   8  31   8  32   8  33   8  34  14  35  14  36  14  37  14
M  ISO  8  38   9  39  14  40   9  41  14  42  14  43  14  44  13  45  13
M  ISO  6  46  13  47  13  48  13  49  13  50  13  51  13
M  END
>  <minimizedAffinity>  (1) 
-5.98759699

>  <minimizedRMSD>  (1) 
8.25718594

$$$$
