
     RDKit          3D

 45 49  0  0  0  0  0  0  0  0999 V2000
   46.9970   32.7970   46.8060 C   0  0  0  0  0  0  0  0  0  0  0  0
   45.5900   33.1270   46.4300 C   0  0  0  0  0  0  0  0  0  0  0  0
   44.4950   36.0960   44.5870 C   0  0  0  0  0  0  0  0  0  0  0  0
   45.2100   35.9890   43.3660 C   0  0  0  0  0  0  0  0  0  0  0  0
   46.0750   34.8900   43.2240 C   0  0  0  0  0  0  0  0  0  0  0  0
   46.1630   34.0200   44.2520 N   0  0  0  0  0  0  0  0  0  0  0  0
   45.4690   34.1590   45.3860 C   0  0  0  0  0  0  0  0  0  0  0  0
   44.6410   35.1790   45.5690 N   0  0  0  0  0  0  0  0  0  0  0  0
   46.8430   34.7310   41.9750 C   0  0  0  0  0  0  0  0  0  0  0  0
   48.0910   35.2890   41.8160 C   0  0  0  0  0  0  0  0  0  0  0  0
   48.4520   34.9140   40.5490 N   0  0  0  0  0  0  0  0  0  0  0  0
   47.4630   34.1900   40.0340 C   0  0  0  0  0  0  0  0  0  0  0  0
   46.4410   34.0550   40.8950 N   0  0  0  0  0  0  0  0  0  0  0  0
   46.9990   32.0660   48.4710 S   0  0  0  0  0  0  0  0  0  0  0  0
   48.5100   31.2370   48.8390 C   0  0  0  0  0  0  0  0  0  0  0  0
   49.5880   31.5060   49.6880 C   0  0  0  0  0  0  0  0  0  0  0  0
   50.5480   30.5570   49.5280 N   0  0  0  0  0  0  0  0  0  0  0  0
   50.0730   29.6810   48.5700 C   0  0  0  0  0  0  0  0  0  0  0  0
   50.7620   28.5460   48.1120 C   0  0  0  0  0  0  0  0  0  0  0  0
   50.0990   27.7850   47.1490 C   0  0  0  0  0  0  0  0  0  0  0  0
   48.8180   28.1690   46.7040 C   0  0  0  0  0  0  0  0  0  0  0  0
   48.2540   29.2930   47.2350 C   0  0  0  0  0  0  0  0  0  0  0  0
   48.8120   30.1130   48.1600 C   0  0  0  0  0  0  0  0  0  0  0  0
   46.8830   29.1670   46.9190 N   0  0  0  0  0  0  0  0  0  0  0  0
   46.4750   29.5230   45.7090 N   0  0  0  0  0  0  0  0  0  0  0  0
   45.1690   29.4530   45.5340 C   0  0  0  0  0  0  0  0  0  0  0  0
   44.6290   29.0110   46.7250 C   0  0  0  0  0  0  0  0  0  0  0  0
   45.7480   28.8520   47.5450 C   0  0  0  0  0  0  0  0  0  0  0  0
   47.6056   33.7133   46.8033 H   0  0  0  0  0  0  0  0  0  0  0  0
   47.4209   32.0844   46.0832 H   0  0  0  0  0  0  0  0  0  0  0  0
   45.1064   32.2089   46.0649 H   0  0  0  0  0  0  0  0  0  0  0  0
   45.1092   33.5330   47.3322 H   0  0  0  0  0  0  0  0  0  0  0  0
   43.8083   36.9421   44.7372 H   0  0  0  0  0  0  0  0  0  0  0  0
   45.0925   36.7339   42.5651 H   0  0  0  0  0  0  0  0  0  0  0  0
   48.6630   35.8930   42.5358 H   0  0  0  0  0  0  0  0  0  0  0  0
   47.4797   33.7540   39.0242 H   0  0  0  0  0  0  0  0  0  0  0  0
   45.5549   33.5489   40.7554 H   0  0  0  0  0  0  0  0  0  0  0  0
   49.6499   32.3577   50.3813 H   0  0  0  0  0  0  0  0  0  0  0  0
   51.4500   30.5017   50.0223 H   0  0  0  0  0  0  0  0  0  0  0  0
   51.7595   28.2748   48.4882 H   0  0  0  0  0  0  0  0  0  0  0  0
   50.5766   26.8841   46.7364 H   0  0  0  0  0  0  0  0  0  0  0  0
   48.2848   27.5764   45.9460 H   0  0  0  0  0  0  0  0  0  0  0  0
   44.6166   29.6996   44.6153 H   0  0  0  0  0  0  0  0  0  0  0  0
   43.5722   28.8281   46.9692 H   0  0  0  0  0  0  0  0  0  0  0  0
   45.6991   28.5064   48.5882 H   0  0  0  0  0  0  0  0  0  0  0  0
  1 14  1  0
  2  1  1  0
  3  8  2  0
  4  3  1  0
  5  4  2  0
  5  6  1  0
  6  7  2  0
  7  8  1  0
  7  2  1  0
  9  5  1  0
 10  9  2  0
 11 10  1  0
 12 11  2  0
 12 13  1  0
 13  9  1  0
 14 15  1  0
 15 16  2  0
 17 16  1  0
 18 17  1  0
 19 18  2  0
 20 19  1  0
 21 20  2  0
 21 22  1  0
 22 23  2  0
 23 18  1  0
 23 15  1  0
 24 22  1  0
 24 28  1  0
 25 24  1  0
 26 25  2  0
 26 27  1  0
 27 28  2  0
  1 29  1  0
  1 30  1  0
  2 31  1  0
  2 32  1  0
  3 33  1  0
  4 34  1  0
 10 35  1  0
 12 36  1  0
 13 37  1  0
 16 38  1  0
 17 39  1  0
 19 40  1  0
 20 41  1  0
 21 42  1  0
 26 43  1  0
 27 44  1  0
 28 45  1  0
M  ISO  8  29   8  30   8  31   8  32   8  33  14  34  14  35  14  36  14
M  ISO  8  37   9  38  14  39   9  40  14  41  14  42  14  43  14  44  14
M  ISO  1  45  14
M  END
>  <minimizedAffinity>  (1) 
-5.91153765

>  <minimizedRMSD>  (1) 
2.73777533

$$$$
