
     RDKit          3D

 41 44  0  0  0  0  0  0  0  0999 V2000
   46.9230   32.6740   46.5640 C   0  0  0  0  0  0  0  0  0  0  0  0
   45.5650   33.2590   46.3990 C   0  0  0  0  0  0  0  0  0  0  0  0
   44.5010   36.1880   44.4840 C   0  0  0  0  0  0  0  0  0  0  0  0
   45.2190   36.0590   43.2790 C   0  0  0  0  0  0  0  0  0  0  0  0
   46.0730   34.9490   43.1580 C   0  0  0  0  0  0  0  0  0  0  0  0
   46.1440   34.0900   44.1970 N   0  0  0  0  0  0  0  0  0  0  0  0
   45.4440   34.2490   45.3250 C   0  0  0  0  0  0  0  0  0  0  0  0
   44.6290   35.2830   45.4760 N   0  0  0  0  0  0  0  0  0  0  0  0
   46.8550   34.7690   41.9210 C   0  0  0  0  0  0  0  0  0  0  0  0
   48.1210   35.2900   41.7820 C   0  0  0  0  0  0  0  0  0  0  0  0
   48.4880   34.9020   40.5130 N   0  0  0  0  0  0  0  0  0  0  0  0
   47.4780   34.2080   39.9900 C   0  0  0  0  0  0  0  0  0  0  0  0
   46.4400   34.1030   40.8380 N   0  0  0  0  0  0  0  0  0  0  0  0
   47.1720   32.2280   48.3050 S   0  0  0  0  0  0  0  0  0  0  0  0
   48.2760   30.9040   48.5460 C   0  0  0  0  0  0  0  0  0  0  0  0
   49.5970   30.8010   49.0010 C   0  0  0  0  0  0  0  0  0  0  0  0
   50.0360   29.5180   48.8680 N   0  0  0  0  0  0  0  0  0  0  0  0
   48.9900   28.8040   48.3260 C   0  0  0  0  0  0  0  0  0  0  0  0
   49.0430   27.4370   47.9880 C   0  0  0  0  0  0  0  0  0  0  0  0
   47.8650   26.9370   47.4150 C   0  0  0  0  0  0  0  0  0  0  0  0
   46.7480   27.7400   47.2270 C   0  0  0  0  0  0  0  0  0  0  0  0
   46.8110   29.0530   47.6020 C   0  0  0  0  0  0  0  0  0  0  0  0
   47.8900   29.6820   48.1380 C   0  0  0  0  0  0  0  0  0  0  0  0
   45.4200   29.5340   47.8810 C   0  0  0  0  0  0  0  0  0  0  0  0
   44.8850   30.0090   46.7140 F   0  0  0  0  0  0  0  0  0  0  0  0
   44.8800   29.9180   48.9480 F   0  0  0  0  0  0  0  0  0  0  0  0
   44.6250   28.2270   47.8500 F   0  0  0  0  0  0  0  0  0  0  0  0
   47.6808   33.4116   46.2610 H   0  0  0  0  0  0  0  0  0  0  0  0
   47.0181   31.7766   45.9350 H   0  0  0  0  0  0  0  0  0  0  0  0
   44.8633   32.4387   46.1877 H   0  0  0  0  0  0  0  0  0  0  0  0
   45.3438   33.7922   47.3354 H   0  0  0  0  0  0  0  0  0  0  0  0
   43.8227   37.0434   44.6187 H   0  0  0  0  0  0  0  0  0  0  0  0
   45.1159   36.7949   42.4679 H   0  0  0  0  0  0  0  0  0  0  0  0
   48.7009   35.8760   42.5102 H   0  0  0  0  0  0  0  0  0  0  0  0
   47.4918   33.7712   38.9805 H   0  0  0  0  0  0  0  0  0  0  0  0
   45.5403   33.6241   40.6892 H   0  0  0  0  0  0  0  0  0  0  0  0
   50.1919   31.6330   49.4058 H   0  0  0  0  0  0  0  0  0  0  0  0
   50.9655   29.1542   49.1222 H   0  0  0  0  0  0  0  0  0  0  0  0
   49.9336   26.8145   48.1593 H   0  0  0  0  0  0  0  0  0  0  0  0
   47.8248   25.8819   47.1066 H   0  0  0  0  0  0  0  0  0  0  0  0
   45.8294   27.3272   46.7845 H   0  0  0  0  0  0  0  0  0  0  0  0
  1 14  1  0
  2  1  1  0
  3  8  2  0
  4  3  1  0
  5  4  2  0
  5  6  1  0
  6  7  2  0
  7  8  1  0
  7  2  1  0
  9  5  1  0
 10  9  2  0
 11 10  1  0
 12 11  2  0
 12 13  1  0
 13  9  1  0
 14 15  1  0
 15 16  2  0
 17 16  1  0
 18 17  1  0
 19 18  2  0
 20 19  1  0
 21 20  2  0
 21 22  1  0
 22 24  1  0
 22 23  2  0
 23 18  1  0
 23 15  1  0
 24 26  1  0
 25 24  1  0
 27 24  1  0
  1 28  1  0
  1 29  1  0
  2 30  1  0
  2 31  1  0
  3 32  1  0
  4 33  1  0
 10 34  1  0
 12 35  1  0
 13 36  1  0
 16 37  1  0
 17 38  1  0
 19 39  1  0
 20 40  1  0
 21 41  1  0
M  ISO  8  28   8  29   8  30   8  31   8  32  14  33  14  34  14  35  14
M  ISO  6  36   9  37  14  38   9  39  14  40  14  41  14
M  END
>  <minimizedAffinity>  (1) 
-6.06044865

>  <minimizedRMSD>  (1) 
1.66895521

$$$$
