
     RDKit          3D

 44 47  0  0  0  0  0  0  0  0999 V2000
   46.8730   32.7950   46.6750 C   0  0  0  0  0  0  0  0  0  0  0  0
   45.4940   33.2080   46.2990 C   0  0  0  0  0  0  0  0  0  0  0  0
   44.5430   36.2250   44.4520 C   0  0  0  0  0  0  0  0  0  0  0  0
   45.2810   36.0980   43.2530 C   0  0  0  0  0  0  0  0  0  0  0  0
   46.1110   34.9700   43.1270 C   0  0  0  0  0  0  0  0  0  0  0  0
   46.1500   34.0900   44.1470 N   0  0  0  0  0  0  0  0  0  0  0  0
   45.4250   34.2550   45.2720 C   0  0  0  0  0  0  0  0  0  0  0  0
   44.6350   35.2940   45.4350 N   0  0  0  0  0  0  0  0  0  0  0  0
   46.8960   34.7830   41.8930 C   0  0  0  0  0  0  0  0  0  0  0  0
   48.1500   35.3090   41.7410 C   0  0  0  0  0  0  0  0  0  0  0  0
   48.5110   34.9100   40.4750 N   0  0  0  0  0  0  0  0  0  0  0  0
   47.5140   34.2050   39.9610 C   0  0  0  0  0  0  0  0  0  0  0  0
   46.4820   34.0970   40.8090 N   0  0  0  0  0  0  0  0  0  0  0  0
   46.8960   32.2720   48.4130 S   0  0  0  0  0  0  0  0  0  0  0  0
   48.1940   31.1520   48.7820 C   0  0  0  0  0  0  0  0  0  0  0  0
   49.4050   31.2570   49.4780 C   0  0  0  0  0  0  0  0  0  0  0  0
   50.0910   30.0880   49.3880 N   0  0  0  0  0  0  0  0  0  0  0  0
   49.3200   29.2310   48.6340 C   0  0  0  0  0  0  0  0  0  0  0  0
   49.6700   27.9180   48.2710 C   0  0  0  0  0  0  0  0  0  0  0  0
   48.7330   27.2490   47.4770 C   0  0  0  0  0  0  0  0  0  0  0  0
   47.5500   27.8510   47.1020 C   0  0  0  0  0  0  0  0  0  0  0  0
   47.3100   29.1320   47.5160 C   0  0  0  0  0  0  0  0  0  0  0  0
   48.1320   29.9080   48.2660 C   0  0  0  0  0  0  0  0  0  0  0  0
   45.8360   29.3280   47.4070 C   0  0  0  0  0  0  0  0  0  0  0  0
   45.1170   27.9930   47.8110 C   0  0  0  0  0  0  0  0  0  0  0  0
   47.5598   33.6433   46.5384 H   0  0  0  0  0  0  0  0  0  0  0  0
   47.1919   31.9581   46.0363 H   0  0  0  0  0  0  0  0  0  0  0  0
   44.9621   32.3223   45.9214 H   0  0  0  0  0  0  0  0  0  0  0  0
   45.0389   33.6325   47.2060 H   0  0  0  0  0  0  0  0  0  0  0  0
   43.8826   37.0937   44.5906 H   0  0  0  0  0  0  0  0  0  0  0  0
   45.2090   36.8494   42.4529 H   0  0  0  0  0  0  0  0  0  0  0  0
   48.7302   35.9073   42.4589 H   0  0  0  0  0  0  0  0  0  0  0  0
   47.5313   33.7601   38.9552 H   0  0  0  0  0  0  0  0  0  0  0  0
   45.5871   33.6073   40.6666 H   0  0  0  0  0  0  0  0  0  0  0  0
   49.7490   32.1521   50.0168 H   0  0  0  0  0  0  0  0  0  0  0  0
   51.0107   29.8821   49.8036 H   0  0  0  0  0  0  0  0  0  0  0  0
   50.6136   27.4506   48.5890 H   0  0  0  0  0  0  0  0  0  0  0  0
   48.9438   26.2218   47.1448 H   0  0  0  0  0  0  0  0  0  0  0  0
   46.8163   27.3128   46.4839 H   0  0  0  0  0  0  0  0  0  0  0  0
   45.5197   30.1371   48.0818 H   0  0  0  0  0  0  0  0  0  0  0  0
   45.5702   29.5979   46.3743 H   0  0  0  0  0  0  0  0  0  0  0  0
   45.0756   27.9161   48.9075 H   0  0  0  0  0  0  0  0  0  0  0  0
   44.0949   27.9894   47.4043 H   0  0  0  0  0  0  0  0  0  0  0  0
   45.6764   27.1376   47.4043 H   0  0  0  0  0  0  0  0  0  0  0  0
  1 14  1  0
  2  1  1  0
  3  8  2  0
  4  3  1  0
  5  4  2  0
  5  6  1  0
  6  7  2  0
  7  8  1  0
  7  2  1  0
  9  5  1  0
 10  9  2  0
 11 10  1  0
 12 11  2  0
 12 13  1  0
 13  9  1  0
 14 15  1  0
 15 16  2  0
 17 16  1  0
 18 17  1  0
 19 18  2  0
 20 19  1  0
 21 20  2  0
 21 22  1  0
 22 23  2  0
 23 18  1  0
 23 15  1  0
 24 22  1  0
 24 25  1  0
  1 26  1  0
  1 27  1  0
  2 28  1  0
  2 29  1  0
  3 30  1  0
  4 31  1  0
 10 32  1  0
 12 33  1  0
 13 34  1  0
 16 35  1  0
 17 36  1  0
 19 37  1  0
 20 38  1  0
 21 39  1  0
 24 40  1  0
 24 41  1  0
 25 42  1  0
 25 43  1  0
 25 44  1  0
M  ISO  8  26   8  27   8  28   8  29   8  30  14  31  14  32  14  33  14
M  ISO  8  34   9  35  14  36   9  37  14  38  14  39  14  40   8  41   8
M  ISO  3  42   8  43   8  44   8
M  END
>  <minimizedAffinity>  (1) 
-5.57882738

>  <minimizedRMSD>  (1) 
2.00427222

$$$$
