
     RDKit          3D

 38 42  0  0  0  0  0  0  0  0999 V2000
   47.2320   34.9240   41.7850 C   0  0  0  0  0  0  0  0  0  0  0  0
   48.4760   35.5510   41.6800 C   0  0  0  0  0  0  0  0  0  0  0  0
   48.9780   35.3190   40.4560 N   0  0  0  0  0  0  0  0  0  0  0  0
   48.0920   34.5690   39.7900 C   0  0  0  0  0  0  0  0  0  0  0  0
   48.1300   34.0580   38.4950 C   0  0  0  0  0  0  0  0  0  0  0  0
   47.0780   33.3070   38.0470 C   0  0  0  0  0  0  0  0  0  0  0  0
   45.9340   33.0040   38.8110 C   0  0  0  0  0  0  0  0  0  0  0  0
   45.9720   33.5460   40.0840 C   0  0  0  0  0  0  0  0  0  0  0  0
   46.9790   34.2990   40.5940 C   0  0  0  0  0  0  0  0  0  0  0  0
   44.7890   33.2440   40.9000 C   0  0  0  0  0  0  0  0  0  0  0  0
   44.4510   32.4170   41.9680 C   0  0  0  0  0  0  0  0  0  0  0  0
   43.1560   32.6230   42.2660 N   0  0  0  0  0  0  0  0  0  0  0  0
   42.6140   33.5270   41.4690 C   0  0  0  0  0  0  0  0  0  0  0  0
   41.3180   34.0030   41.4630 C   0  0  0  0  0  0  0  0  0  0  0  0
   40.9760   34.9580   40.5280 C   0  0  0  0  0  0  0  0  0  0  0  0
   41.9380   35.3940   39.6450 C   0  0  0  0  0  0  0  0  0  0  0  0
   43.2100   34.8990   39.6810 C   0  0  0  0  0  0  0  0  0  0  0  0
   43.6180   33.9460   40.5880 C   0  0  0  0  0  0  0  0  0  0  0  0
   44.5230   35.9080   44.1500 C   0  0  0  0  0  0  0  0  0  0  0  0
   45.3600   35.9010   43.0220 C   0  0  0  0  0  0  0  0  0  0  0  0
   46.3650   34.9330   42.9460 C   0  0  0  0  0  0  0  0  0  0  0  0
   46.4830   34.0330   43.9840 N   0  0  0  0  0  0  0  0  0  0  0  0
   45.6530   34.0810   45.0500 C   0  0  0  0  0  0  0  0  0  0  0  0
   44.6820   35.0020   45.1430 N   0  0  0  0  0  0  0  0  0  0  0  0
   48.9647   36.1389   42.4709 H   0  0  0  0  0  0  0  0  0  0  0  0
   49.8815   35.6572   40.0952 H   0  0  0  0  0  0  0  0  0  0  0  0
   48.9930   34.2553   37.8421 H   0  0  0  0  0  0  0  0  0  0  0  0
   47.1289   32.9132   37.0211 H   0  0  0  0  0  0  0  0  0  0  0  0
   45.0963   32.3987   38.4345 H   0  0  0  0  0  0  0  0  0  0  0  0
   45.1268   31.7160   42.4797 H   0  0  0  0  0  0  0  0  0  0  0  0
   42.6502   32.1373   43.0205 H   0  0  0  0  0  0  0  0  0  0  0  0
   40.5769   33.6302   42.1854 H   0  0  0  0  0  0  0  0  0  0  0  0
   39.9542   35.3633   40.4888 H   0  0  0  0  0  0  0  0  0  0  0  0
   41.6768   36.1560   38.8959 H   0  0  0  0  0  0  0  0  0  0  0  0
   43.9420   35.2784   38.9528 H   0  0  0  0  0  0  0  0  0  0  0  0
   43.7256   36.6618   44.2276 H   0  0  0  0  0  0  0  0  0  0  0  0
   45.2276   36.6397   42.2178 H   0  0  0  0  0  0  0  0  0  0  0  0
   45.7767   33.3475   45.8603 H   0  0  0  0  0  0  0  0  0  0  0  0
  1 21  1  0
  2  1  2  0
  3  2  1  0
  4  3  1  0
  4  9  2  0
  5  4  1  0
  6  5  2  0
  6  7  1  0
  7  8  2  0
  8  9  1  0
  8 10  1  0
  9  1  1  0
 10 11  2  0
 11 12  1  0
 13 12  1  0
 14 13  2  0
 15 14  1  0
 16 17  1  0
 16 15  2  0
 17 18  2  0
 18 10  1  0
 18 13  1  0
 19 24  2  0
 20 19  1  0
 21 20  2  0
 21 22  1  0
 22 23  2  0
 23 24  1  0
  2 25  1  0
  3 26  1  0
  5 27  1  0
  6 28  1  0
  7 29  1  0
 11 30  1  0
 12 31  1  0
 14 32  1  0
 15 33  1  0
 16 34  1  0
 17 35  1  0
 19 36  1  0
 20 37  1  0
 23 38  1  0
M  ISO  8  25  14  26   9  27  14  28  14  29  14  30  14  31   9  32  14
M  ISO  6  33  14  34  14  35  14  36  14  37  14  38  14
M  END
>  <minimizedAffinity>  (1) 
-7.30748558

>  <minimizedRMSD>  (1) 
1.25423121

$$$$
