
     RDKit          3D

 38 41  0  0  0  0  0  0  0  0999 V2000
   47.1850   34.9030   41.9210 C   0  0  0  0  0  0  0  0  0  0  0  0
   48.4730   35.4400   41.8060 C   0  0  0  0  0  0  0  0  0  0  0  0
   48.9490   35.1660   40.5740 N   0  0  0  0  0  0  0  0  0  0  0  0
   48.0030   34.4800   39.9200 C   0  0  0  0  0  0  0  0  0  0  0  0
   47.9820   33.9610   38.6310 C   0  0  0  0  0  0  0  0  0  0  0  0
   46.8740   33.2930   38.1990 C   0  0  0  0  0  0  0  0  0  0  0  0
   45.7290   33.0770   38.9600 C   0  0  0  0  0  0  0  0  0  0  0  0
   45.8180   33.6200   40.2350 C   0  0  0  0  0  0  0  0  0  0  0  0
   46.8810   34.2950   40.7340 C   0  0  0  0  0  0  0  0  0  0  0  0
   44.6000   36.1220   44.3300 C   0  0  0  0  0  0  0  0  0  0  0  0
   45.4220   36.0460   43.2030 C   0  0  0  0  0  0  0  0  0  0  0  0
   46.3280   34.9830   43.0940 C   0  0  0  0  0  0  0  0  0  0  0  0
   46.3740   34.0480   44.1070 N   0  0  0  0  0  0  0  0  0  0  0  0
   45.5460   34.1790   45.1800 C   0  0  0  0  0  0  0  0  0  0  0  0
   44.6720   35.1930   45.2990 N   0  0  0  0  0  0  0  0  0  0  0  0
   44.6440   33.3820   41.0000 N   0  0  0  0  0  0  0  0  0  0  0  0
   44.1680   32.4530   41.9980 C   0  0  0  0  0  0  0  0  0  0  0  0
   43.0090   31.6620   41.4310 C   0  0  0  0  0  0  0  0  0  0  0  0
   41.9920   32.5240   40.8650 N   0  0  0  0  0  0  0  0  0  0  0  0
   42.2450   33.9210   41.1560 C   0  0  0  0  0  0  0  0  0  0  0  0
   43.5980   34.3680   40.6930 C   0  0  0  0  0  0  0  0  0  0  0  0
   49.0085   35.9941   42.5910 H   0  0  0  0  0  0  0  0  0  0  0  0
   49.8717   35.4353   40.2038 H   0  0  0  0  0  0  0  0  0  0  0  0
   48.8494   34.0875   37.9664 H   0  0  0  0  0  0  0  0  0  0  0  0
   46.8864   32.8957   37.1733 H   0  0  0  0  0  0  0  0  0  0  0  0
   44.8468   32.5336   38.5906 H   0  0  0  0  0  0  0  0  0  0  0  0
   43.8849   36.9524   44.4257 H   0  0  0  0  0  0  0  0  0  0  0  0
   45.3588   36.8091   42.4133 H   0  0  0  0  0  0  0  0  0  0  0  0
   45.5943   33.4259   45.9803 H   0  0  0  0  0  0  0  0  0  0  0  0
   44.9802   31.7659   42.2778 H   0  0  0  0  0  0  0  0  0  0  0  0
   43.8363   33.0064   42.8889 H   0  0  0  0  0  0  0  0  0  0  0  0
   43.3865   30.9930   40.6437 H   0  0  0  0  0  0  0  0  0  0  0  0
   42.5525   31.0901   42.2523 H   0  0  0  0  0  0  0  0  0  0  0  0
   41.0768   32.2623   41.2585 H   0  0  0  0  0  0  0  0  0  0  0  0
   41.4806   34.5304   40.6517 H   0  0  0  0  0  0  0  0  0  0  0  0
   42.2072   34.0469   42.2481 H   0  0  0  0  0  0  0  0  0  0  0  0
   43.8476   35.3161   41.1917 H   0  0  0  0  0  0  0  0  0  0  0  0
   43.5580   34.4886   39.6004 H   0  0  0  0  0  0  0  0  0  0  0  0
  1 12  1  0
  2  1  2  0
  3  2  1  0
  4  3  1  0
  4  9  2  0
  5  4  1  0
  6  5  2  0
  6  7  1  0
  7  8  2  0
  8  9  1  0
  8 16  1  0
  9  1  1  0
 10 15  2  0
 11 10  1  0
 12 11  2  0
 12 13  1  0
 13 14  2  0
 14 15  1  0
 16 17  1  0
 18 17  1  0
 19 20  1  0
 19 18  1  0
 21 16  1  0
 21 20  1  0
  2 22  1  0
  3 23  1  0
  5 24  1  0
  6 25  1  0
  7 26  1  0
 10 27  1  0
 11 28  1  0
 14 29  1  0
 17 30  1  0
 17 31  1  0
 18 32  1  0
 18 33  1  0
 19 34  1  0
 20 35  1  0
 20 36  1  0
 21 37  1  0
 21 38  1  0
M  ISO  8  22  14  23   9  24  14  25  14  26  14  27  14  28  14  29  14
M  ISO  8  30  13  31  13  32  13  33  13  34   5  35  13  36  13  37  13
M  ISO  1  38  13
M  END
>  <minimizedAffinity>  (1) 
-6.25384092

>  <minimizedRMSD>  (1) 
0.912521064

$$$$
