
     RDKit          3D

 38 42  0  0  0  0  0  0  0  0999 V2000
   47.4050   34.8950   41.7680 C   0  0  0  0  0  0  0  0  0  0  0  0
   48.5420   35.6950   41.6390 C   0  0  0  0  0  0  0  0  0  0  0  0
   49.0230   35.5830   40.3800 N   0  0  0  0  0  0  0  0  0  0  0  0
   48.2160   34.7350   39.7230 C   0  0  0  0  0  0  0  0  0  0  0  0
   48.2740   34.2910   38.4090 C   0  0  0  0  0  0  0  0  0  0  0  0
   47.3100   33.4160   37.9760 C   0  0  0  0  0  0  0  0  0  0  0  0
   46.2640   32.9300   38.7610 C   0  0  0  0  0  0  0  0  0  0  0  0
   46.2710   33.4180   40.0660 C   0  0  0  0  0  0  0  0  0  0  0  0
   47.1850   34.2820   40.5670 C   0  0  0  0  0  0  0  0  0  0  0  0
   45.1910   32.8690   40.8740 C   0  0  0  0  0  0  0  0  0  0  0  0
   45.2180   31.8590   41.7540 N   0  0  0  0  0  0  0  0  0  0  0  0
   44.1600   31.4470   42.4670 C   0  0  0  0  0  0  0  0  0  0  0  0
   42.9630   32.0520   42.3320 N   0  0  0  0  0  0  0  0  0  0  0  0
   42.8020   33.0750   41.4870 C   0  0  0  0  0  0  0  0  0  0  0  0
   41.6120   33.7250   41.3270 C   0  0  0  0  0  0  0  0  0  0  0  0
   41.4650   34.7790   40.4690 C   0  0  0  0  0  0  0  0  0  0  0  0
   42.5560   35.2100   39.7290 C   0  0  0  0  0  0  0  0  0  0  0  0
   43.7350   34.5350   39.9130 C   0  0  0  0  0  0  0  0  0  0  0  0
   43.9390   33.4620   40.7690 C   0  0  0  0  0  0  0  0  0  0  0  0
   44.7060   35.4660   44.2820 C   0  0  0  0  0  0  0  0  0  0  0  0
   45.4890   35.6100   43.1360 C   0  0  0  0  0  0  0  0  0  0  0  0
   46.5870   34.7430   42.9690 C   0  0  0  0  0  0  0  0  0  0  0  0
   46.8450   33.8090   43.9150 N   0  0  0  0  0  0  0  0  0  0  0  0
   46.0470   33.7100   45.0180 C   0  0  0  0  0  0  0  0  0  0  0  0
   44.9840   34.5320   45.2020 N   0  0  0  0  0  0  0  0  0  0  0  0
   48.9773   36.3173   42.4348 H   0  0  0  0  0  0  0  0  0  0  0  0
   49.8525   36.0588   39.9973 H   0  0  0  0  0  0  0  0  0  0  0  0
   49.0719   34.6317   37.7327 H   0  0  0  0  0  0  0  0  0  0  0  0
   47.3660   33.0722   36.9326 H   0  0  0  0  0  0  0  0  0  0  0  0
   45.5053   32.2278   38.3851 H   0  0  0  0  0  0  0  0  0  0  0  0
   44.2698   30.6072   43.1689 H   0  0  0  0  0  0  0  0  0  0  0  0
   40.7411   33.3888   41.9088 H   0  0  0  0  0  0  0  0  0  0  0  0
   40.4912   35.2803   40.3665 H   0  0  0  0  0  0  0  0  0  0  0  0
   42.4789   36.0537   39.0275 H   0  0  0  0  0  0  0  0  0  0  0  0
   44.6010   34.8762   39.3268 H   0  0  0  0  0  0  0  0  0  0  0  0
   43.8438   36.1321   44.4332 H   0  0  0  0  0  0  0  0  0  0  0  0
   45.2557   36.3785   42.3844 H   0  0  0  0  0  0  0  0  0  0  0  0
   46.2715   32.9451   45.7759 H   0  0  0  0  0  0  0  0  0  0  0  0
  1 22  1  0
  2  1  2  0
  3  2  1  0
  4  3  1  0
  4  9  2  0
  5  4  1  0
  6  5  2  0
  6  7  1  0
  7  8  2  0
  8  9  1  0
  8 10  1  0
  9  1  1  0
 10 11  2  0
 11 12  1  0
 13 12  2  0
 14 13  1  0
 15 14  2  0
 16 15  1  0
 17 18  1  0
 17 16  2  0
 18 19  2  0
 19 10  1  0
 19 14  1  0
 20 25  2  0
 21 20  1  0
 22 21  2  0
 22 23  1  0
 23 24  2  0
 24 25  1  0
  2 26  1  0
  3 27  1  0
  5 28  1  0
  6 29  1  0
  7 30  1  0
 12 31  1  0
 15 32  1  0
 16 33  1  0
 17 34  1  0
 18 35  1  0
 20 36  1  0
 21 37  1  0
 24 38  1  0
M  ISO  8  26  14  27   9  28  14  29  14  30  14  31  14  32  14  33  14
M  ISO  5  34  14  35  14  36  14  37  14  38  14
M  END
>  <minimizedAffinity>  (1) 
-6.88117599

>  <minimizedRMSD>  (1) 
1.22864735

$$$$
