
     RDKit          3D

 29 32  0  0  0  0  0  0  0  0999 V2000
   47.3320   34.9160   41.8590 C   0  0  0  0  0  0  0  0  0  0  0  0
   48.5390   35.6140   41.7400 C   0  0  0  0  0  0  0  0  0  0  0  0
   49.0250   35.4510   40.5000 N   0  0  0  0  0  0  0  0  0  0  0  0
   48.1560   34.6690   39.8320 C   0  0  0  0  0  0  0  0  0  0  0  0
   48.1940   34.2230   38.5270 C   0  0  0  0  0  0  0  0  0  0  0  0
   47.1720   33.4410   38.0820 C   0  0  0  0  0  0  0  0  0  0  0  0
   46.0810   33.0520   38.8490 C   0  0  0  0  0  0  0  0  0  0  0  0
   46.0850   33.5240   40.1530 C   0  0  0  0  0  0  0  0  0  0  0  0
   47.0720   34.3070   40.6560 C   0  0  0  0  0  0  0  0  0  0  0  0
   44.6560   35.7840   44.3220 C   0  0  0  0  0  0  0  0  0  0  0  0
   45.4710   35.8550   43.1650 C   0  0  0  0  0  0  0  0  0  0  0  0
   46.4820   34.8650   43.0410 C   0  0  0  0  0  0  0  0  0  0  0  0
   46.6480   33.8940   44.0100 N   0  0  0  0  0  0  0  0  0  0  0  0
   45.8170   33.9030   45.0910 C   0  0  0  0  0  0  0  0  0  0  0  0
   44.8350   34.8310   45.2480 N   0  0  0  0  0  0  0  0  0  0  0  0
   44.9150   33.0610   40.9330 C   0  0  0  0  0  0  0  0  0  0  0  0
   43.7570   33.7030   40.8600 N   0  0  0  0  0  0  0  0  0  0  0  0
   42.8660   33.1270   41.6040 O   0  0  0  0  0  0  0  0  0  0  0  0
   43.3610   32.0960   42.2010 C   0  0  0  0  0  0  0  0  0  0  0  0
   44.5810   32.1060   41.7630 N   0  0  0  0  0  0  0  0  0  0  0  0
   49.0146   36.2036   42.5376 H   0  0  0  0  0  0  0  0  0  0  0  0
   49.8992   35.8495   40.1287 H   0  0  0  0  0  0  0  0  0  0  0  0
   49.0286   34.4923   37.8630 H   0  0  0  0  0  0  0  0  0  0  0  0
   47.2132   33.0920   37.0397 H   0  0  0  0  0  0  0  0  0  0  0  0
   45.2749   32.4175   38.4520 H   0  0  0  0  0  0  0  0  0  0  0  0
   43.8581   36.5278   44.4637 H   0  0  0  0  0  0  0  0  0  0  0  0
   45.3283   36.6355   42.4031 H   0  0  0  0  0  0  0  0  0  0  0  0
   45.9455   33.1315   45.8645 H   0  0  0  0  0  0  0  0  0  0  0  0
   42.8766   31.3949   42.8966 H   0  0  0  0  0  0  0  0  0  0  0  0
  1 12  1  0
  2  1  2  0
  3  2  1  0
  4  3  1  0
  4  9  2  0
  5  4  1  0
  6  5  2  0
  6  7  1  0
  7  8  2  0
  8  9  1  0
  8 16  1  0
  9  1  1  0
 10 15  2  0
 11 10  1  0
 12 11  2  0
 12 13  1  0
 13 14  2  0
 14 15  1  0
 16 20  1  0
 17 16  2  0
 17 18  1  0
 18 19  1  0
 20 19  2  0
  2 21  1  0
  3 22  1  0
  5 23  1  0
  6 24  1  0
  7 25  1  0
 10 26  1  0
 11 27  1  0
 14 28  1  0
 19 29  1  0
M  ISO  8  21  14  22   9  23  14  24  14  25  14  26  14  27  14  28  14
M  ISO  1  29  14
M  END
>  <minimizedAffinity>  (1) 
-6.05025196

>  <minimizedRMSD>  (1) 
0.182601452

$$$$
