
     RDKit          3D

 37 40  0  0  0  0  0  0  0  0999 V2000
   47.2710   34.9360   41.7650 C   0  0  0  0  0  0  0  0  0  0  0  0
   48.5200   35.5650   41.7450 C   0  0  0  0  0  0  0  0  0  0  0  0
   49.0850   35.3940   40.5410 N   0  0  0  0  0  0  0  0  0  0  0  0
   48.2210   34.6690   39.7910 C   0  0  0  0  0  0  0  0  0  0  0  0
   48.3440   34.2430   38.4910 C   0  0  0  0  0  0  0  0  0  0  0  0
   47.3140   33.5210   37.9570 C   0  0  0  0  0  0  0  0  0  0  0  0
   46.1380   33.1840   38.6410 C   0  0  0  0  0  0  0  0  0  0  0  0
   46.0940   33.6490   39.9390 C   0  0  0  0  0  0  0  0  0  0  0  0
   47.0840   34.3730   40.5330 C   0  0  0  0  0  0  0  0  0  0  0  0
   44.4510   35.7790   44.0550 C   0  0  0  0  0  0  0  0  0  0  0  0
   45.3340   35.8290   42.9730 C   0  0  0  0  0  0  0  0  0  0  0  0
   46.3520   34.8930   42.8800 C   0  0  0  0  0  0  0  0  0  0  0  0
   46.4340   33.9500   43.8790 N   0  0  0  0  0  0  0  0  0  0  0  0
   45.5690   33.9310   44.9040 C   0  0  0  0  0  0  0  0  0  0  0  0
   44.5770   34.8370   45.0030 N   0  0  0  0  0  0  0  0  0  0  0  0
   42.2170   32.8050   41.5510 C   0  0  0  0  0  0  0  0  0  0  0  0
   42.4610   33.7710   40.6180 C   0  0  0  0  0  0  0  0  0  0  0  0
   43.7550   33.9770   40.1650 C   0  0  0  0  0  0  0  0  0  0  0  0
   44.8670   33.2400   40.6100 C   0  0  0  0  0  0  0  0  0  0  0  0
   44.5720   32.2770   41.5490 C   0  0  0  0  0  0  0  0  0  0  0  0
   43.2880   32.0730   42.0000 C   0  0  0  0  0  0  0  0  0  0  0  0
   40.6510   32.4180   42.2260 S   0  0  0  0  0  0  0  0  0  0  0  0
   39.6100   32.3330   41.1250 O   0  0  0  0  0  0  0  0  0  0  0  0
   40.7510   31.0540   42.8470 O   0  0  0  0  0  0  0  0  0  0  0  0
   48.9688   36.1143   42.5857 H   0  0  0  0  0  0  0  0  0  0  0  0
   50.0049   35.7481   40.2421 H   0  0  0  0  0  0  0  0  0  0  0  0
   49.2418   34.4753   37.8994 H   0  0  0  0  0  0  0  0  0  0  0  0
   47.4150   33.1800   36.9161 H   0  0  0  0  0  0  0  0  0  0  0  0
   45.3241   32.6017   38.1843 H   0  0  0  0  0  0  0  0  0  0  0  0
   43.6425   36.5210   44.1308 H   0  0  0  0  0  0  0  0  0  0  0  0
   45.2220   36.6049   42.2014 H   0  0  0  0  0  0  0  0  0  0  0  0
   45.6719   33.1588   45.6806 H   0  0  0  0  0  0  0  0  0  0  0  0
   41.6348   34.3832   40.2274 H   0  0  0  0  0  0  0  0  0  0  0  0
   43.9217   34.7629   39.4136 H   0  0  0  0  0  0  0  0  0  0  0  0
   45.3850   31.6537   41.9496 H   0  0  0  0  0  0  0  0  0  0  0  0
   43.1123   31.2900   42.7524 H   0  0  0  0  0  0  0  0  0  0  0  0
   40.2927   33.3816   43.1316 H   0  0  0  0  0  0  0  0  0  0  0  0
  1 12  1  0
  2  1  2  0
  3  2  1  0
  4  9  2  0
  4  3  1  0
  5  4  1  0
  6  5  2  0
  6  7  1  0
  7  8  2  0
  8  9  1  0
  8 19  1  0
  9  1  1  0
 10 15  2  0
 11 10  1  0
 12 11  2  0
 12 13  1  0
 13 14  2  0
 14 15  1  0
 16 21  2  0
 16 22  1  0
 17 16  1  0
 18 19  1  0
 18 17  2  0
 19 20  2  0
 20 21  1  0
 22 24  2  0
 23 22  2  0
  2 25  1  0
  3 26  1  0
  5 27  1  0
  6 28  1  0
  7 29  1  0
 10 30  1  0
 11 31  1  0
 14 32  1  0
 17 33  1  0
 18 34  1  0
 20 35  1  0
 21 36  1  0
 22 37  1  0
M  ISO  8  25  14  26   9  27  14  28  14  29  14  30  14  31  14  32  14
M  ISO  5  33  14  34  14  35  14  36  14  37  11
M  END
>  <minimizedAffinity>  (1) 
-6.05365992

>  <minimizedRMSD>  (1) 
0.657280147

$$$$
