
     RDKit          3D

 31 33  0  0  0  0  0  0  0  0999 V2000
   47.2130   34.9760   41.8890 C   0  0  0  0  0  0  0  0  0  0  0  0
   48.4490   35.6090   41.7560 C   0  0  0  0  0  0  0  0  0  0  0  0
   48.9480   35.3490   40.5410 N   0  0  0  0  0  0  0  0  0  0  0  0
   48.0580   34.5610   39.8850 C   0  0  0  0  0  0  0  0  0  0  0  0
   48.1210   34.0390   38.6150 C   0  0  0  0  0  0  0  0  0  0  0  0
   47.0710   33.2710   38.1930 C   0  0  0  0  0  0  0  0  0  0  0  0
   45.9500   32.9830   38.9620 C   0  0  0  0  0  0  0  0  0  0  0  0
   45.9370   33.5280   40.2240 C   0  0  0  0  0  0  0  0  0  0  0  0
   46.9430   34.3010   40.7070 C   0  0  0  0  0  0  0  0  0  0  0  0
   44.7060   36.1650   44.3750 C   0  0  0  0  0  0  0  0  0  0  0  0
   45.5460   36.1610   43.2340 C   0  0  0  0  0  0  0  0  0  0  0  0
   46.3440   35.0120   43.0500 C   0  0  0  0  0  0  0  0  0  0  0  0
   46.2790   33.9740   43.9530 N   0  0  0  0  0  0  0  0  0  0  0  0
   45.4450   34.0600   45.0230 C   0  0  0  0  0  0  0  0  0  0  0  0
   44.6640   35.1410   45.2380 N   0  0  0  0  0  0  0  0  0  0  0  0
   44.8140   33.2210   41.0370 N   0  0  0  0  0  0  0  0  0  0  0  0
   43.5560   33.8830   40.9830 C   0  0  0  0  0  0  0  0  0  0  0  0
   43.0980   34.1060   39.7880 N   0  0  0  0  0  0  0  0  0  0  0  0
   42.7860   34.2990   42.1350 N   0  0  0  0  0  0  0  0  0  0  0  0
   42.1920   34.5810   39.6820 H   0  0  0  0  0  0  0  0  0  0  0  0
   48.9363   36.2241   42.5269 H   0  0  0  0  0  0  0  0  0  0  0  0
   49.8475   35.6869   40.1699 H   0  0  0  0  0  0  0  0  0  0  0  0
   48.9847   34.2320   37.9617 H   0  0  0  0  0  0  0  0  0  0  0  0
   47.1169   32.8532   37.1765 H   0  0  0  0  0  0  0  0  0  0  0  0
   45.1261   32.3591   38.5852 H   0  0  0  0  0  0  0  0  0  0  0  0
   44.0654   37.0401   44.5589 H   0  0  0  0  0  0  0  0  0  0  0  0
   45.5744   37.0065   42.5309 H   0  0  0  0  0  0  0  0  0  0  0  0
   45.4049   33.2233   45.7360 H   0  0  0  0  0  0  0  0  0  0  0  0
   44.9187   32.4578   41.7207 H   0  0  0  0  0  0  0  0  0  0  0  0
   41.8814   34.7742   42.0055 H   0  0  0  0  0  0  0  0  0  0  0  0
   43.1424   34.1200   43.0846 H   0  0  0  0  0  0  0  0  0  0  0  0
  1 12  1  0
  2  1  2  0
  3  2  1  0
  4  3  1  0
  4  9  2  0
  5  4  1  0
  6  5  2  0
  6  7  1  0
  7  8  2  0
  8  9  1  0
  8 16  1  0
  9  1  1  0
 10 15  2  0
 11 10  1  0
 12 11  2  0
 12 13  1  0
 13 14  2  0
 14 15  1  0
 17 16  1  0
 17 19  1  0
 18 17  2  0
 20 18  1  0
  2 21  1  0
  3 22  1  0
  5 23  1  0
  6 24  1  0
  7 25  1  0
 10 26  1  0
 11 27  1  0
 14 28  1  0
 16 29  1  0
 19 30  1  0
 19 31  1  0
M  ISO  8  21  14  22   9  23  14  24  14  25  14  26  14  27  14  28  14
M  END
>  <minimizedAffinity>  (1) 
-6.07253742

>  <minimizedRMSD>  (1) 
0.49673298

$$$$
