
     RDKit          3D

 35 39  0  0  0  0  0  0  0  0999 V2000
   47.2560   34.9610   41.7440 C   0  0  0  0  0  0  0  0  0  0  0  0
   48.5120   35.5680   41.6930 C   0  0  0  0  0  0  0  0  0  0  0  0
   49.0620   35.3400   40.4880 N   0  0  0  0  0  0  0  0  0  0  0  0
   48.1810   34.5980   39.7730 C   0  0  0  0  0  0  0  0  0  0  0  0
   48.2820   34.1100   38.4870 C   0  0  0  0  0  0  0  0  0  0  0  0
   47.2380   33.3780   37.9920 C   0  0  0  0  0  0  0  0  0  0  0  0
   46.0630   33.0860   38.7010 C   0  0  0  0  0  0  0  0  0  0  0  0
   46.0400   33.6110   39.9780 C   0  0  0  0  0  0  0  0  0  0  0  0
   47.0400   34.3460   40.5320 C   0  0  0  0  0  0  0  0  0  0  0  0
   44.8670   33.3440   40.7430 N   0  0  0  0  0  0  0  0  0  0  0  0
   44.8890   32.2840   41.6040 C   0  0  0  0  0  0  0  0  0  0  0  0
   43.6840   32.2000   42.2360 N   0  0  0  0  0  0  0  0  0  0  0  0
   42.9030   33.1870   41.7880 C   0  0  0  0  0  0  0  0  0  0  0  0
   41.6150   33.6910   41.9740 C   0  0  0  0  0  0  0  0  0  0  0  0
   41.1710   34.7740   41.2920 N   0  0  0  0  0  0  0  0  0  0  0  0
   41.9680   35.4040   40.4020 C   0  0  0  0  0  0  0  0  0  0  0  0
   43.2400   34.9710   40.1640 N   0  0  0  0  0  0  0  0  0  0  0  0
   43.6500   33.8900   40.8610 C   0  0  0  0  0  0  0  0  0  0  0  0
   44.4970   35.9480   44.0480 C   0  0  0  0  0  0  0  0  0  0  0  0
   45.3720   35.9640   42.9510 C   0  0  0  0  0  0  0  0  0  0  0  0
   46.3350   34.9680   42.8720 C   0  0  0  0  0  0  0  0  0  0  0  0
   46.3880   34.0170   43.8670 N   0  0  0  0  0  0  0  0  0  0  0  0
   45.5170   34.0470   44.9110 C   0  0  0  0  0  0  0  0  0  0  0  0
   44.5750   35.0040   45.0060 N   0  0  0  0  0  0  0  0  0  0  0  0
   48.9772   36.1412   42.5085 H   0  0  0  0  0  0  0  0  0  0  0  0
   49.9838   35.6687   40.1667 H   0  0  0  0  0  0  0  0  0  0  0  0
   49.1765   34.3039   37.8769 H   0  0  0  0  0  0  0  0  0  0  0  0
   47.3257   32.9911   36.9660 H   0  0  0  0  0  0  0  0  0  0  0  0
   45.2373   32.4942   38.2791 H   0  0  0  0  0  0  0  0  0  0  0  0
   45.7416   31.6072   41.7620 H   0  0  0  0  0  0  0  0  0  0  0  0
   40.9439   33.1968   42.6919 H   0  0  0  0  0  0  0  0  0  0  0  0
   41.5852   36.2812   39.8597 H   0  0  0  0  0  0  0  0  0  0  0  0
   43.7257   36.7282   44.1279 H   0  0  0  0  0  0  0  0  0  0  0  0
   45.2968   36.7423   42.1773 H   0  0  0  0  0  0  0  0  0  0  0  0
   45.5834   33.2752   45.6920 H   0  0  0  0  0  0  0  0  0  0  0  0
  1 21  1  0
  2  1  2  0
  3  2  1  0
  4  3  1  0
  4  9  2  0
  5  4  1  0
  6  5  2  0
  6  7  1  0
  7  8  2  0
  8  9  1  0
  8 10  1  0
  9  1  1  0
 10 18  1  0
 10 11  1  0
 11 12  2  0
 13 14  2  0
 13 12  1  0
 15 14  1  0
 16 15  2  0
 17 16  1  0
 17 18  2  0
 18 13  1  0
 19 24  2  0
 20 19  1  0
 21 20  2  0
 21 22  1  0
 22 23  2  0
 23 24  1  0
  2 25  1  0
  3 26  1  0
  5 27  1  0
  6 28  1  0
  7 29  1  0
 11 30  1  0
 14 31  1  0
 16 32  1  0
 19 33  1  0
 20 34  1  0
 23 35  1  0
M  ISO  8  25  14  26   9  27  14  28  14  29  14  30  14  31  14  32  14
M  ISO  3  33  14  34  14  35  14
M  END
>  <minimizedAffinity>  (1) 
-6.17033195

>  <minimizedRMSD>  (1) 
0.610728085

$$$$
