
     RDKit          3D

 35 38  0  0  0  0  0  0  0  0999 V2000
   47.4470   34.9410   41.6830 C   0  0  0  0  0  0  0  0  0  0  0  0
   48.5970   35.7340   41.6240 C   0  0  0  0  0  0  0  0  0  0  0  0
   49.1120   35.6620   40.3910 N   0  0  0  0  0  0  0  0  0  0  0  0
   48.3300   34.8510   39.6610 C   0  0  0  0  0  0  0  0  0  0  0  0
   48.4380   34.4610   38.3410 C   0  0  0  0  0  0  0  0  0  0  0  0
   47.4870   33.6120   37.8450 C   0  0  0  0  0  0  0  0  0  0  0  0
   46.3920   33.0930   38.5650 C   0  0  0  0  0  0  0  0  0  0  0  0
   46.3570   33.5320   39.8770 C   0  0  0  0  0  0  0  0  0  0  0  0
   47.2680   34.3780   40.4450 C   0  0  0  0  0  0  0  0  0  0  0  0
   45.2730   33.0440   40.6600 N   0  0  0  0  0  0  0  0  0  0  0  0
   44.0610   33.5660   40.9120 C   0  0  0  0  0  0  0  0  0  0  0  0
   43.1870   32.8710   41.7210 C   0  0  0  0  0  0  0  0  0  0  0  0
   43.5340   31.6570   42.2740 C   0  0  0  0  0  0  0  0  0  0  0  0
   42.5840   31.0030   43.0940 N   0  0  0  0  0  0  0  0  0  0  0  0
   44.7480   31.1430   42.0170 N   0  0  0  0  0  0  0  0  0  0  0  0
   45.6040   31.8400   41.2140 C   0  0  0  0  0  0  0  0  0  0  0  0
   46.7010   31.2180   41.0740 O   0  0  0  0  0  0  0  0  0  0  0  0
   44.7560   35.4300   44.2120 C   0  0  0  0  0  0  0  0  0  0  0  0
   45.5660   35.6460   43.0830 C   0  0  0  0  0  0  0  0  0  0  0  0
   46.5910   34.7400   42.8490 C   0  0  0  0  0  0  0  0  0  0  0  0
   46.7650   33.6870   43.7180 N   0  0  0  0  0  0  0  0  0  0  0  0
   45.9650   33.5170   44.7910 C   0  0  0  0  0  0  0  0  0  0  0  0
   44.9540   34.3940   45.0380 N   0  0  0  0  0  0  0  0  0  0  0  0
   49.0113   36.3219   42.4563 H   0  0  0  0  0  0  0  0  0  0  0  0
   49.9598   36.1443   40.0601 H   0  0  0  0  0  0  0  0  0  0  0  0
   49.2625   34.8215   37.7083 H   0  0  0  0  0  0  0  0  0  0  0  0
   47.5854   33.3078   36.7925 H   0  0  0  0  0  0  0  0  0  0  0  0
   45.6453   32.4120   38.1306 H   0  0  0  0  0  0  0  0  0  0  0  0
   43.7699   34.5344   40.4790 H   0  0  0  0  0  0  0  0  0  0  0  0
   42.1931   33.2938   41.9292 H   0  0  0  0  0  0  0  0  0  0  0  0
   42.8120   30.0945   43.5224 H   0  0  0  0  0  0  0  0  0  0  0  0
   41.6645   31.4355   43.2625 H   0  0  0  0  0  0  0  0  0  0  0  0
   43.9359   36.1321   44.4231 H   0  0  0  0  0  0  0  0  0  0  0  0
   45.3939   36.5000   42.4113 H   0  0  0  0  0  0  0  0  0  0  0  0
   46.1305   32.6665   45.4687 H   0  0  0  0  0  0  0  0  0  0  0  0
  1 20  1  0
  2  1  2  0
  3  2  1  0
  4  3  1  0
  4  9  2  0
  5  4  1  0
  6  5  2  0
  6  7  1  0
  7  8  2  0
  8  9  1  0
  8 10  1  0
  9  1  1  0
 10 11  1  0
 10 16  1  0
 11 12  2  0
 12 13  1  0
 13 14  1  0
 15 13  2  0
 16 15  1  0
 17 16  2  0
 18 23  2  0
 19 18  1  0
 20 19  2  0
 20 21  1  0
 21 22  2  0
 22 23  1  0
  2 24  1  0
  3 25  1  0
  5 26  1  0
  6 27  1  0
  7 28  1  0
 11 29  1  0
 12 30  1  0
 14 31  1  0
 14 32  1  0
 18 33  1  0
 19 34  1  0
 22 35  1  0
M  ISO  8  24  14  25   9  26  14  27  14  28  14  29  14  30  14  33  14
M  ISO  2  34  14  35  14
M  END
>  <minimizedAffinity>  (1) 
-6.10234499

>  <minimizedRMSD>  (1) 
0.664461017

$$$$
