
     RDKit          3D

 32 35  0  0  0  0  0  0  0  0999 V2000
   47.2740   34.9360   41.8740 C   0  0  0  0  0  0  0  0  0  0  0  0
   48.5270   35.5510   41.7800 C   0  0  0  0  0  0  0  0  0  0  0  0
   49.0300   35.3500   40.5550 N   0  0  0  0  0  0  0  0  0  0  0  0
   48.1240   34.6200   39.8630 C   0  0  0  0  0  0  0  0  0  0  0  0
   48.1900   34.1410   38.5760 C   0  0  0  0  0  0  0  0  0  0  0  0
   47.1450   33.3970   38.1150 C   0  0  0  0  0  0  0  0  0  0  0  0
   46.0010   33.0800   38.8580 C   0  0  0  0  0  0  0  0  0  0  0  0
   46.0080   33.6000   40.1470 C   0  0  0  0  0  0  0  0  0  0  0  0
   47.0140   34.3450   40.6610 C   0  0  0  0  0  0  0  0  0  0  0  0
   44.5840   35.8950   44.2620 C   0  0  0  0  0  0  0  0  0  0  0  0
   45.4340   35.8870   43.1610 C   0  0  0  0  0  0  0  0  0  0  0  0
   46.4160   34.9170   43.0410 C   0  0  0  0  0  0  0  0  0  0  0  0
   46.5140   33.9780   44.0440 N   0  0  0  0  0  0  0  0  0  0  0  0
   45.6760   34.0040   45.1110 C   0  0  0  0  0  0  0  0  0  0  0  0
   44.7160   34.9550   45.2220 N   0  0  0  0  0  0  0  0  0  0  0  0
   44.8050   33.1540   40.8180 C   0  0  0  0  0  0  0  0  0  0  0  0
   43.5000   33.5630   40.7910 C   0  0  0  0  0  0  0  0  0  0  0  0
   42.4340   32.9910   41.4270 C   0  0  0  0  0  0  0  0  0  0  0  0
   42.6550   31.9010   42.1690 N   0  0  0  0  0  0  0  0  0  0  0  0
   43.9210   31.4420   42.2370 C   0  0  0  0  0  0  0  0  0  0  0  0
   44.9360   32.0350   41.5980 N   0  0  0  0  0  0  0  0  0  0  0  0
   49.0219   36.1121   42.5863 H   0  0  0  0  0  0  0  0  0  0  0  0
   49.9376   35.6881   40.2046 H   0  0  0  0  0  0  0  0  0  0  0  0
   49.0603   34.3519   37.9372 H   0  0  0  0  0  0  0  0  0  0  0  0
   47.2046   33.0179   37.0841 H   0  0  0  0  0  0  0  0  0  0  0  0
   45.1735   32.4754   38.4585 H   0  0  0  0  0  0  0  0  0  0  0  0
   43.8049   36.6665   44.3504 H   0  0  0  0  0  0  0  0  0  0  0  0
   45.3259   36.6552   42.3811 H   0  0  0  0  0  0  0  0  0  0  0  0
   45.7771   33.2420   45.8978 H   0  0  0  0  0  0  0  0  0  0  0  0
   43.2832   34.4564   40.1870 H   0  0  0  0  0  0  0  0  0  0  0  0
   41.4236   33.4151   41.3312 H   0  0  0  0  0  0  0  0  0  0  0  0
   44.1272   30.5459   42.8408 H   0  0  0  0  0  0  0  0  0  0  0  0
  1 12  1  0
  2  1  2  0
  3  2  1  0
  4  3  1  0
  4  9  2  0
  5  4  1  0
  6  5  2  0
  6  7  1  0
  7  8  2  0
  8  9  1  0
  8 16  1  0
  9  1  1  0
 10 15  2  0
 11 10  1  0
 12 11  2  0
 12 13  1  0
 13 14  2  0
 14 15  1  0
 16 21  1  0
 17 16  2  0
 17 18  1  0
 18 19  2  0
 19 20  1  0
 21 20  2  0
  2 22  1  0
  3 23  1  0
  5 24  1  0
  6 25  1  0
  7 26  1  0
 10 27  1  0
 11 28  1  0
 14 29  1  0
 17 30  1  0
 18 31  1  0
 20 32  1  0
M  ISO  8  22  14  23   9  24  14  25  14  26  14  27  14  28  14  29  14
M  ISO  3  30  14  31  14  32  14
M  END
>  <minimizedAffinity>  (1) 
-6.14603376

>  <minimizedRMSD>  (1) 
0.77003938

$$$$
