
     RDKit          3D

 36 38  0  0  0  0  0  0  0  0999 V2000
   47.1790   34.9170   41.8950 C   0  0  0  0  0  0  0  0  0  0  0  0
   48.4380   35.4910   41.8230 C   0  0  0  0  0  0  0  0  0  0  0  0
   48.9610   35.2670   40.6030 N   0  0  0  0  0  0  0  0  0  0  0  0
   48.0400   34.5590   39.9190 C   0  0  0  0  0  0  0  0  0  0  0  0
   48.1120   34.0640   38.6390 C   0  0  0  0  0  0  0  0  0  0  0  0
   47.0480   33.3460   38.1900 C   0  0  0  0  0  0  0  0  0  0  0  0
   45.9140   33.0930   38.9420 C   0  0  0  0  0  0  0  0  0  0  0  0
   45.8620   33.5980   40.2150 C   0  0  0  0  0  0  0  0  0  0  0  0
   46.8960   34.3180   40.7080 C   0  0  0  0  0  0  0  0  0  0  0  0
   44.6220   36.1150   44.3170 C   0  0  0  0  0  0  0  0  0  0  0  0
   45.4400   36.0470   43.2130 C   0  0  0  0  0  0  0  0  0  0  0  0
   46.3440   34.9830   43.0450 C   0  0  0  0  0  0  0  0  0  0  0  0
   46.3390   34.0490   44.0650 N   0  0  0  0  0  0  0  0  0  0  0  0
   45.5350   34.1420   45.1270 C   0  0  0  0  0  0  0  0  0  0  0  0
   44.6700   35.1670   45.2660 N   0  0  0  0  0  0  0  0  0  0  0  0
   44.6180   33.2440   40.9300 C   0  0  0  0  0  0  0  0  0  0  0  0
   43.5160   32.6380   40.1530 C   0  0  0  0  0  0  0  0  0  0  0  0
   44.8760   32.6460   42.2900 C   0  0  0  0  0  0  0  0  0  0  0  0
   43.9260   34.5360   41.3950 C   0  0  0  0  0  0  0  0  0  0  0  0
   48.9327   36.0433   42.6356 H   0  0  0  0  0  0  0  0  0  0  0  0
   49.8820   35.5753   40.2602 H   0  0  0  0  0  0  0  0  0  0  0  0
   48.9930   34.2411   38.0045 H   0  0  0  0  0  0  0  0  0  0  0  0
   47.0912   32.9420   37.1678 H   0  0  0  0  0  0  0  0  0  0  0  0
   45.0804   32.5049   38.5307 H   0  0  0  0  0  0  0  0  0  0  0  0
   43.9207   36.9558   44.4232 H   0  0  0  0  0  0  0  0  0  0  0  0
   45.3861   36.8373   42.4497 H   0  0  0  0  0  0  0  0  0  0  0  0
   45.5793   33.3658   45.9052 H   0  0  0  0  0  0  0  0  0  0  0  0
   42.7650   32.2250   40.8426 H   0  0  0  0  0  0  0  0  0  0  0  0
   43.0487   33.4060   39.5191 H   0  0  0  0  0  0  0  0  0  0  0  0
   43.9143   31.8320   39.5191 H   0  0  0  0  0  0  0  0  0  0  0  0
   44.5682   33.3594   43.0686 H   0  0  0  0  0  0  0  0  0  0  0  0
   44.2993   31.7154   42.3967 H   0  0  0  0  0  0  0  0  0  0  0  0
   45.9487   32.4270   42.3967 H   0  0  0  0  0  0  0  0  0  0  0  0
   43.9091   34.5676   42.4944 H   0  0  0  0  0  0  0  0  0  0  0  0
   44.4787   35.4064   41.0116 H   0  0  0  0  0  0  0  0  0  0  0  0
   42.8952   34.5583   41.0116 H   0  0  0  0  0  0  0  0  0  0  0  0
  1 12  1  0
  2  1  2  0
  3  2  1  0
  4  3  1  0
  4  9  2  0
  5  4  1  0
  6  5  2  0
  6  7  1  0
  7  8  2  0
  8  9  1  0
  8 16  1  0
  9  1  1  0
 10 15  2  0
 11 10  1  0
 12 11  2  0
 12 13  1  0
 13 14  2  0
 14 15  1  0
 16 19  1  0
 16 18  1  0
 17 16  1  0
  2 20  1  0
  3 21  1  0
  5 22  1  0
  6 23  1  0
  7 24  1  0
 10 25  1  0
 11 26  1  0
 14 27  1  0
 17 28  1  0
 17 29  1  0
 17 30  1  0
 18 31  1  0
 18 32  1  0
 18 33  1  0
 19 34  1  0
 19 35  1  0
 19 36  1  0
M  ISO  8  20  14  21   9  22  14  23  14  24  14  25  14  26  14  27  14
M  ISO  8  28   8  29   8  30   8  31   8  32   8  33   8  34   8  35   8
M  ISO  1  36   8
M  END
>  <minimizedAffinity>  (1) 
-5.98766899

>  <minimizedRMSD>  (1) 
0.259941816

$$$$
