
     RDKit          3D

 43 45  0  0  1  0  0  0  0  0999 V2000
   44.6290   35.7390   44.8940 C   0  0  0  0  0  0  0  0  0  0  0  0
   45.1850   35.6140   43.5770 C   0  0  0  0  0  0  0  0  0  0  0  0
   45.9110   34.4750   43.2970 C   0  0  0  0  0  0  0  0  0  0  0  0
   46.0650   33.5420   44.2860 N   0  0  0  0  0  0  0  0  0  0  0  0
   45.5400   33.6990   45.5010 C   0  0  0  0  0  0  0  0  0  0  0  0
   44.8320   34.7870   45.8090 N   0  0  0  0  0  0  0  0  0  0  0  0
   45.7440   32.6740   46.5190 N   0  0  0  0  0  0  0  0  0  0  0  0
   45.1620   32.8130   47.8400 C   0  0  0  0  0  0  0  0  0  0  0  0
   46.0530   32.2800   48.9180 C   0  0  0  0  0  0  0  0  0  0  0  0
   47.4380   32.0570   48.3890 C   0  0  0  0  0  0  0  0  0  0  0  0
   47.3280   30.9770   47.3220 C   0  0  0  0  0  0  0  0  0  0  0  0
   46.5250   31.4960   46.1850 C   0  0  1  0  0  0  0  0  0  0  0  0
   45.6810   30.4480   45.5240 C   0  0  0  0  0  0  0  0  0  0  0  0
   45.3540   30.3340   44.2370 N   0  0  0  0  0  0  0  0  0  0  0  0
   44.6170   29.2860   44.0210 O   0  0  0  0  0  0  0  0  0  0  0  0
   44.4450   28.6950   45.1880 C   0  0  0  0  0  0  0  0  0  0  0  0
   45.0890   29.3860   46.1460 N   0  0  0  0  0  0  0  0  0  0  0  0
   43.4630   27.2120   45.3590 S   0  0  0  0  0  0  0  0  0  0  0  0
   41.7360   27.5120   44.9950 C   0  0  0  0  0  0  0  0  0  0  0  0
   40.9040   26.6650   45.9510 C   0  0  0  0  0  0  0  0  0  0  0  0
   41.3070   28.9390   45.1990 C   0  0  0  0  0  0  0  0  0  0  0  0
   41.3820   27.0530   43.5970 C   0  0  0  0  0  0  0  0  0  0  0  0
   44.0311   36.6255   45.1521 H   0  0  0  0  0  0  0  0  0  0  0  0
   45.0377   36.3973   42.8189 H   0  0  0  0  0  0  0  0  0  0  0  0
   46.3554   34.3205   42.3027 H   0  0  0  0  0  0  0  0  0  0  0  0
   44.9747   33.8797   48.0325 H   0  0  0  0  0  0  0  0  0  0  0  0
   44.2300   32.2290   47.8577 H   0  0  0  0  0  0  0  0  0  0  0  0
   46.0933   33.0035   49.7456 H   0  0  0  0  0  0  0  0  0  0  0  0
   45.6483   31.3210   49.2736 H   0  0  0  0  0  0  0  0  0  0  0  0
   47.8305   32.9859   47.9496 H   0  0  0  0  0  0  0  0  0  0  0  0
   48.1249   31.7522   49.1923 H   0  0  0  0  0  0  0  0  0  0  0  0
   48.3335   30.7047   46.9687 H   0  0  0  0  0  0  0  0  0  0  0  0
   46.8390   30.0871   47.7449 H   0  0  0  0  0  0  0  0  0  0  0  0
   47.2736   31.8131   45.4441 H   0  0  0  0  0  0  0  0  0  0  0  0
   41.1597   26.9253   46.9887 H   0  0  0  0  0  0  0  0  0  0  0  0
   39.8352   26.8586   45.7771 H   0  0  0  0  0  0  0  0  0  0  0  0
   41.1167   25.5999   45.7771 H   0  0  0  0  0  0  0  0  0  0  0  0
   41.2429   29.1522   46.2762 H   0  0  0  0  0  0  0  0  0  0  0  0
   42.0423   29.6128   44.7350 H   0  0  0  0  0  0  0  0  0  0  0  0
   40.3220   29.0957   44.7350 H   0  0  0  0  0  0  0  0  0  0  0  0
   40.7112   26.1832   43.6555 H   0  0  0  0  0  0  0  0  0  0  0  0
   40.8776   27.8696   43.0597 H   0  0  0  0  0  0  0  0  0  0  0  0
   42.3000   26.7726   43.0597 H   0  0  0  0  0  0  0  0  0  0  0  0
  1  6  2  0
  2  1  1  0
  3  2  2  0
  3  4  1  0
  4  5  2  0
  5  6  1  0
  5  7  1  0
  7  8  1  0
  8  9  1  0
 10  9  1  0
 11 10  1  0
 12  7  1  0
 12 11  1  0
 13 17  1  0
 13 12  1  0
 14 13  2  0
 15 14  1  0
 15 16  1  0
 16 18  1  0
 16 17  2  0
 19 21  1  0
 19 18  1  0
 19 20  1  0
 22 19  1  0
  1 23  1  0
  2 24  1  0
  3 25  1  0
  8 26  1  0
  8 27  1  0
  9 28  1  0
  9 29  1  0
 10 30  1  0
 10 31  1  0
 11 32  1  0
 11 33  1  0
 12 34  1  6
 20 35  1  0
 20 36  1  0
 20 37  1  0
 21 38  1  0
 21 39  1  0
 21 40  1  0
 22 41  1  0
 22 42  1  0
 22 43  1  0
M  ISO  8  23  14  24  14  25  14  26  13  27  13  28  13  29  13  30  13
M  ISO  8  31  13  32  13  33  13  34  13  35   8  36   8  37   8  38   8
M  ISO  5  39   8  40   8  41   8  42   8  43   8
M  END
>  <minimizedAffinity>  (1) 
-5.42819262

>  <minimizedRMSD>  (1) 
1.17823005

$$$$
