
     RDKit          3D

 30 33  0  0  0  0  0  0  0  0999 V2000
   47.2580   34.9300   41.8800 C   0  0  0  0  0  0  0  0  0  0  0  0
   48.5180   35.5220   41.7880 C   0  0  0  0  0  0  0  0  0  0  0  0
   49.0260   35.3110   40.5650 N   0  0  0  0  0  0  0  0  0  0  0  0
   48.1180   34.5970   39.8760 C   0  0  0  0  0  0  0  0  0  0  0  0
   48.1700   34.1120   38.5850 C   0  0  0  0  0  0  0  0  0  0  0  0
   47.1090   33.3870   38.1220 C   0  0  0  0  0  0  0  0  0  0  0  0
   45.9700   33.0960   38.8570 C   0  0  0  0  0  0  0  0  0  0  0  0
   45.9640   33.6070   40.1490 C   0  0  0  0  0  0  0  0  0  0  0  0
   46.9840   34.3340   40.6700 C   0  0  0  0  0  0  0  0  0  0  0  0
   44.5490   35.9300   44.2290 C   0  0  0  0  0  0  0  0  0  0  0  0
   45.4120   35.8980   43.1370 C   0  0  0  0  0  0  0  0  0  0  0  0
   46.3950   34.9280   43.0400 C   0  0  0  0  0  0  0  0  0  0  0  0
   46.4840   34.0040   44.0600 N   0  0  0  0  0  0  0  0  0  0  0  0
   45.6330   34.0530   45.1170 C   0  0  0  0  0  0  0  0  0  0  0  0
   44.6680   35.0020   45.2150 N   0  0  0  0  0  0  0  0  0  0  0  0
   44.7530   33.1860   40.8600 C   0  0  0  0  0  0  0  0  0  0  0  0
   43.5140   33.6820   40.6330 C   0  0  0  0  0  0  0  0  0  0  0  0
   42.3820   32.6850   41.7190 S   0  0  0  0  0  0  0  0  0  0  0  0
   43.8890   31.7030   42.3310 C   0  0  0  0  0  0  0  0  0  0  0  0
   44.6880   32.2120   41.7380 N   0  0  0  0  0  0  0  0  0  0  0  0
   49.0183   36.0770   42.5953 H   0  0  0  0  0  0  0  0  0  0  0  0
   49.9402   35.6350   40.2183 H   0  0  0  0  0  0  0  0  0  0  0  0
   49.0438   34.3044   37.9451 H   0  0  0  0  0  0  0  0  0  0  0  0
   47.1621   33.0064   37.0913 H   0  0  0  0  0  0  0  0  0  0  0  0
   45.1359   32.5063   38.4489 H   0  0  0  0  0  0  0  0  0  0  0  0
   43.7716   36.7055   44.2938 H   0  0  0  0  0  0  0  0  0  0  0  0
   45.3117   36.6519   42.3423 H   0  0  0  0  0  0  0  0  0  0  0  0
   45.7285   33.3028   45.9158 H   0  0  0  0  0  0  0  0  0  0  0  0
   43.2366   34.4999   39.9518 H   0  0  0  0  0  0  0  0  0  0  0  0
   43.9555   30.8775   43.0550 H   0  0  0  0  0  0  0  0  0  0  0  0
  1 12  1  0
  2  1  2  0
  3  2  1  0
  4  3  1  0
  4  9  2  0
  5  4  1  0
  6  5  2  0
  6  7  1  0
  7  8  2  0
  8  9  1  0
  8 16  1  0
  9  1  1  0
 10 15  2  0
 11 10  1  0
 12 11  2  0
 12 13  1  0
 13 14  2  0
 14 15  1  0
 16 20  1  0
 17 16  2  0
 17 18  1  0
 18 19  1  0
 20 19  2  0
  2 21  1  0
  3 22  1  0
  5 23  1  0
  6 24  1  0
  7 25  1  0
 10 26  1  0
 11 27  1  0
 14 28  1  0
 17 29  1  0
 19 30  1  0
M  ISO  8  21  14  22   9  23  14  24  14  25  14  26  14  27  14  28  14
M  ISO  2  29  14  30  14
M  END
>  <minimizedAffinity>  (1) 
-5.88698816

>  <minimizedRMSD>  (1) 
0.316918582

$$$$
