
     RDKit          3D

 31 34  0  0  0  0  0  0  0  0999 V2000
   47.2380   34.9450   41.9030 C   0  0  0  0  0  0  0  0  0  0  0  0
   48.5010   35.5100   41.8030 C   0  0  0  0  0  0  0  0  0  0  0  0
   48.9990   35.2640   40.5770 N   0  0  0  0  0  0  0  0  0  0  0  0
   48.0680   34.5490   39.9000 C   0  0  0  0  0  0  0  0  0  0  0  0
   48.1050   34.0580   38.6100 C   0  0  0  0  0  0  0  0  0  0  0  0
   47.0210   33.3620   38.1590 C   0  0  0  0  0  0  0  0  0  0  0  0
   45.8790   33.1080   38.9060 C   0  0  0  0  0  0  0  0  0  0  0  0
   45.8960   33.6220   40.1890 C   0  0  0  0  0  0  0  0  0  0  0  0
   46.9420   34.3260   40.7020 C   0  0  0  0  0  0  0  0  0  0  0  0
   44.6370   36.0990   44.3110 C   0  0  0  0  0  0  0  0  0  0  0  0
   45.4700   36.0700   43.1900 C   0  0  0  0  0  0  0  0  0  0  0  0
   46.3680   34.9880   43.0600 C   0  0  0  0  0  0  0  0  0  0  0  0
   46.3730   34.0240   44.0440 N   0  0  0  0  0  0  0  0  0  0  0  0
   45.5410   34.1120   45.1030 C   0  0  0  0  0  0  0  0  0  0  0  0
   44.6710   35.1410   45.2470 N   0  0  0  0  0  0  0  0  0  0  0  0
   44.7010   33.3920   41.0500 C   0  0  0  0  0  0  0  0  0  0  0  0
   43.4490   32.8690   40.3470 C   0  0  0  0  0  0  0  0  0  0  0  0
   43.4710   34.2750   40.8000 C   0  0  0  0  0  0  0  0  0  0  0  0
   49.0138   36.0699   42.5989 H   0  0  0  0  0  0  0  0  0  0  0  0
   49.9174   35.5636   40.2197 H   0  0  0  0  0  0  0  0  0  0  0  0
   48.9812   34.2227   37.9656 H   0  0  0  0  0  0  0  0  0  0  0  0
   47.0548   32.9747   37.1300 H   0  0  0  0  0  0  0  0  0  0  0  0
   45.0252   32.5406   38.5072 H   0  0  0  0  0  0  0  0  0  0  0  0
   43.9312   36.9344   44.4289 H   0  0  0  0  0  0  0  0  0  0  0  0
   45.4277   36.8657   42.4317 H   0  0  0  0  0  0  0  0  0  0  0  0
   45.5699   33.3256   45.8716 H   0  0  0  0  0  0  0  0  0  0  0  0
   45.3001   33.1087   41.9280 H   0  0  0  0  0  0  0  0  0  0  0  0
   42.8004   32.1412   40.8565 H   0  0  0  0  0  0  0  0  0  0  0  0
   43.2575   32.3737   39.3837 H   0  0  0  0  0  0  0  0  0  0  0  0
   43.5218   35.0876   40.0604 H   0  0  0  0  0  0  0  0  0  0  0  0
   42.8202   34.8911   41.4378 H   0  0  0  0  0  0  0  0  0  0  0  0
  1 12  1  0
  2  1  2  0
  3  2  1  0
  4  3  1  0
  4  9  2  0
  5  4  1  0
  6  5  2  0
  6  7  1  0
  7  8  2  0
  8  9  1  0
  8 16  1  0
  9  1  1  0
 10 15  2  0
 11 10  1  0
 12 11  2  0
 12 13  1  0
 13 14  2  0
 14 15  1  0
 17 18  1  0
 17 16  1  0
 18 16  1  0
  2 19  1  0
  3 20  1  0
  5 21  1  0
  6 22  1  0
  7 23  1  0
 10 24  1  0
 11 25  1  0
 14 26  1  0
 16 27  1  0
 17 28  1  0
 17 29  1  0
 18 30  1  0
 18 31  1  0
M  ISO  8  19  14  20   9  21  14  22  14  23  14  24  14  25  14  26  14
M  ISO  5  27  13  28  13  29  13  30  13  31  13
M  END
>  <minimizedAffinity>  (1) 
-5.82450676

>  <minimizedRMSD>  (1) 
0.139316335

$$$$
