
     RDKit          3D

 26 28  0  0  0  0  0  0  0  0999 V2000
   47.2530   34.9150   41.9150 C   0  0  0  0  0  0  0  0  0  0  0  0
   48.4990   35.5400   41.7910 C   0  0  0  0  0  0  0  0  0  0  0  0
   48.9750   35.3180   40.5490 N   0  0  0  0  0  0  0  0  0  0  0  0
   48.0570   34.5690   39.8920 C   0  0  0  0  0  0  0  0  0  0  0  0
   48.0650   34.0770   38.6020 C   0  0  0  0  0  0  0  0  0  0  0  0
   46.9980   33.3370   38.1760 C   0  0  0  0  0  0  0  0  0  0  0  0
   45.8830   33.0320   38.9480 C   0  0  0  0  0  0  0  0  0  0  0  0
   45.9580   33.5620   40.2210 C   0  0  0  0  0  0  0  0  0  0  0  0
   46.9750   34.3050   40.7230 C   0  0  0  0  0  0  0  0  0  0  0  0
   44.6360   35.9690   44.3640 C   0  0  0  0  0  0  0  0  0  0  0  0
   45.4590   35.9630   43.2210 C   0  0  0  0  0  0  0  0  0  0  0  0
   46.3990   34.9170   43.1020 C   0  0  0  0  0  0  0  0  0  0  0  0
   46.4700   33.9770   44.0780 N   0  0  0  0  0  0  0  0  0  0  0  0
   45.6520   34.0280   45.1600 C   0  0  0  0  0  0  0  0  0  0  0  0
   44.7470   35.0090   45.3070 N   0  0  0  0  0  0  0  0  0  0  0  0
   44.8090   33.2490   41.0500 C   0  0  0  0  0  0  0  0  0  0  0  0
   43.6940   33.8100   41.0430 O   0  0  0  0  0  0  0  0  0  0  0  0
   49.0067   36.1175   42.5775 H   0  0  0  0  0  0  0  0  0  0  0  0
   49.8712   35.6556   40.1698 H   0  0  0  0  0  0  0  0  0  0  0  0
   48.9132   34.2766   37.9306 H   0  0  0  0  0  0  0  0  0  0  0  0
   47.0234   32.9541   37.1451 H   0  0  0  0  0  0  0  0  0  0  0  0
   45.0341   32.4341   38.5848 H   0  0  0  0  0  0  0  0  0  0  0  0
   43.8910   36.7684   44.4904 H   0  0  0  0  0  0  0  0  0  0  0  0
   45.3724   36.7435   42.4507 H   0  0  0  0  0  0  0  0  0  0  0  0
   45.7322   33.2492   45.9327 H   0  0  0  0  0  0  0  0  0  0  0  0
   44.9349   32.4235   41.7660 H   0  0  0  0  0  0  0  0  0  0  0  0
  1 12  1  0
  2  1  2  0
  3  2  1  0
  4  3  1  0
  4  9  2  0
  5  4  1  0
  6  5  2  0
  6  7  1  0
  7  8  2  0
  8  9  1  0
  8 16  1  0
  9  1  1  0
 10 15  2  0
 11 10  1  0
 12 11  2  0
 12 13  1  0
 13 14  2  0
 14 15  1  0
 17 16  2  0
  2 18  1  0
  3 19  1  0
  5 20  1  0
  6 21  1  0
  7 22  1  0
 10 23  1  0
 11 24  1  0
 14 25  1  0
 16 26  1  0
M  ISO  8  18  14  19   9  20  14  21  14  22  14  23  14  24  14  25  14
M  ISO  1  26   6
M  END
>  <minimizedAffinity>  (1) 
-5.61908531

>  <minimizedRMSD>  (1) 
0.211858749

$$$$
