
     RDKit          3D

 36 39  0  0  0  0  0  0  0  0999 V2000
   47.2680   34.9320   41.8890 C   0  0  0  0  0  0  0  0  0  0  0  0
   48.5080   35.5740   41.7770 C   0  0  0  0  0  0  0  0  0  0  0  0
   49.0030   35.3670   40.5460 N   0  0  0  0  0  0  0  0  0  0  0  0
   48.1130   34.6140   39.8770 C   0  0  0  0  0  0  0  0  0  0  0  0
   48.1600   34.1390   38.5830 C   0  0  0  0  0  0  0  0  0  0  0  0
   47.1090   33.3910   38.1380 C   0  0  0  0  0  0  0  0  0  0  0  0
   45.9690   33.0560   38.8910 C   0  0  0  0  0  0  0  0  0  0  0  0
   46.0090   33.5740   40.1790 C   0  0  0  0  0  0  0  0  0  0  0  0
   47.0150   34.3240   40.6890 C   0  0  0  0  0  0  0  0  0  0  0  0
   44.6240   35.8890   44.3360 C   0  0  0  0  0  0  0  0  0  0  0  0
   45.4370   35.9160   43.2020 C   0  0  0  0  0  0  0  0  0  0  0  0
   46.4130   34.9180   43.0570 C   0  0  0  0  0  0  0  0  0  0  0  0
   46.5160   33.9700   44.0400 N   0  0  0  0  0  0  0  0  0  0  0  0
   45.7170   33.9710   45.1220 C   0  0  0  0  0  0  0  0  0  0  0  0
   44.7680   34.9260   45.2800 N   0  0  0  0  0  0  0  0  0  0  0  0
   44.8560   33.1700   40.9080 N   0  0  0  0  0  0  0  0  0  0  0  0
   43.5110   33.6320   41.2260 C   0  0  0  0  0  0  0  0  0  0  0  0
   42.7840   32.3960   41.7050 C   0  0  0  0  0  0  0  0  0  0  0  0
   43.8960   31.7790   42.5600 C   0  0  0  0  0  0  0  0  0  0  0  0
   45.0330   31.8640   41.5660 C   0  0  0  0  0  0  0  0  0  0  0  0
   48.9985   36.1555   42.5715 H   0  0  0  0  0  0  0  0  0  0  0  0
   49.8994   35.7201   40.1816 H   0  0  0  0  0  0  0  0  0  0  0  0
   49.0181   34.3564   37.9300 H   0  0  0  0  0  0  0  0  0  0  0  0
   47.1573   33.0189   37.1040 H   0  0  0  0  0  0  0  0  0  0  0  0
   45.1371   32.4502   38.5023 H   0  0  0  0  0  0  0  0  0  0  0  0
   43.8528   36.6624   44.4664 H   0  0  0  0  0  0  0  0  0  0  0  0
   45.3158   36.7004   42.4404 H   0  0  0  0  0  0  0  0  0  0  0  0
   45.8348   33.1889   45.8865 H   0  0  0  0  0  0  0  0  0  0  0  0
   43.5401   34.3959   42.0169 H   0  0  0  0  0  0  0  0  0  0  0  0
   43.0155   34.0975   40.3613 H   0  0  0  0  0  0  0  0  0  0  0  0
   41.8951   32.6461   42.3027 H   0  0  0  0  0  0  0  0  0  0  0  0
   42.3817   31.7474   40.9129 H   0  0  0  0  0  0  0  0  0  0  0  0
   44.0954   32.3697   43.4663 H   0  0  0  0  0  0  0  0  0  0  0  0
   43.6868   30.7738   42.9549 H   0  0  0  0  0  0  0  0  0  0  0  0
   44.9684   31.0475   40.8317 H   0  0  0  0  0  0  0  0  0  0  0  0
   46.0168   31.7708   42.0492 H   0  0  0  0  0  0  0  0  0  0  0  0
  1 12  1  0
  2  1  2  0
  3  2  1  0
  4  3  1  0
  4  9  2  0
  5  4  1  0
  6  5  2  0
  6  7  1  0
  7  8  2  0
  8  9  1  0
  8 16  1  0
  9  1  1  0
 10 15  2  0
 11 10  1  0
 12 11  2  0
 12 13  1  0
 13 14  2  0
 14 15  1  0
 16 17  1  0
 16 20  1  0
 17 18  1  0
 18 19  1  0
 20 19  1  0
  2 21  1  0
  3 22  1  0
  5 23  1  0
  6 24  1  0
  7 25  1  0
 10 26  1  0
 11 27  1  0
 14 28  1  0
 17 29  1  0
 17 30  1  0
 18 31  1  0
 18 32  1  0
 19 33  1  0
 19 34  1  0
 20 35  1  0
 20 36  1  0
M  ISO  8  21  14  22   9  23  14  24  14  25  14  26  14  27  14  28  14
M  ISO  8  29  13  30  13  31  13  32  13  33  13  34  13  35  13  36  13
M  END
>  <minimizedAffinity>  (1) 
-6.03364754

>  <minimizedRMSD>  (1) 
0.462014973

$$$$
