
     RDKit          3D

 50 55  0  0  1  0  0  0  0  0999 V2000
   44.7600   33.3350   40.8070 N   0  0  0  0  0  0  0  0  0  0  0  0
   43.4630   33.8660   41.1160 C   0  0  0  0  0  0  0  0  0  0  0  0
   42.6370   32.6980   41.5770 C   0  0  0  0  0  0  0  0  0  0  0  0
   43.6580   31.9740   42.3980 C   0  0  0  0  0  0  0  0  0  0  0  0
   44.8370   32.0000   41.4210 C   0  0  1  0  0  0  0  0  0  0  0  0
   47.2610   34.9180   41.8690 C   0  0  0  0  0  0  0  0  0  0  0  0
   48.5450   35.4890   41.7900 C   0  0  0  0  0  0  0  0  0  0  0  0
   49.0500   35.2790   40.5730 N   0  0  0  0  0  0  0  0  0  0  0  0
   48.1310   34.5940   39.8740 C   0  0  0  0  0  0  0  0  0  0  0  0
   48.1660   34.1410   38.5690 C   0  0  0  0  0  0  0  0  0  0  0  0
   47.0750   33.4630   38.0880 C   0  0  0  0  0  0  0  0  0  0  0  0
   45.9200   33.1940   38.8260 C   0  0  0  0  0  0  0  0  0  0  0  0
   45.9640   33.6760   40.1120 C   0  0  0  0  0  0  0  0  0  0  0  0
   46.9980   34.3490   40.6490 C   0  0  0  0  0  0  0  0  0  0  0  0
   44.6400   36.0160   44.2680 C   0  0  0  0  0  0  0  0  0  0  0  0
   45.4690   36.0090   43.1570 C   0  0  0  0  0  0  0  0  0  0  0  0
   46.3920   34.9450   43.0140 C   0  0  0  0  0  0  0  0  0  0  0  0
   46.4010   33.9950   43.9850 N   0  0  0  0  0  0  0  0  0  0  0  0
   45.5810   34.0320   45.0530 C   0  0  0  0  0  0  0  0  0  0  0  0
   44.6980   35.0430   45.1970 N   0  0  0  0  0  0  0  0  0  0  0  0
   44.7010   30.8820   40.4820 C   0  0  0  0  0  0  0  0  0  0  0  0
   45.4150   29.7730   40.5660 N   0  0  0  0  0  0  0  0  0  0  0  0
   45.3500   28.7350   39.7170 C   0  0  0  0  0  0  0  0  0  0  0  0
   44.5140   28.7380   38.6630 N   0  0  0  0  0  0  0  0  0  0  0  0
   43.7340   29.8350   38.4840 C   0  0  0  0  0  0  0  0  0  0  0  0
   42.8740   29.8590   37.4130 C   0  0  0  0  0  0  0  0  0  0  0  0
   42.0660   30.9570   37.1970 C   0  0  0  0  0  0  0  0  0  0  0  0
   42.1560   32.0110   38.0880 C   0  0  0  0  0  0  0  0  0  0  0  0
   43.0300   31.9420   39.1460 C   0  0  0  0  0  0  0  0  0  0  0  0
   43.8530   30.8640   39.3950 C   0  0  0  0  0  0  0  0  0  0  0  0
   43.5385   34.6195   41.9138 H   0  0  0  0  0  0  0  0  0  0  0  0
   43.0111   34.3599   40.2431 H   0  0  0  0  0  0  0  0  0  0  0  0
   41.7769   33.0188   42.1832 H   0  0  0  0  0  0  0  0  0  0  0  0
   42.1802   32.1038   40.7718 H   0  0  0  0  0  0  0  0  0  0  0  0
   43.8874   32.5087   43.3315 H   0  0  0  0  0  0  0  0  0  0  0  0
   43.3574   30.9729   42.7407 H   0  0  0  0  0  0  0  0  0  0  0  0
   45.8289   31.8614   41.8760 H   0  0  0  0  0  0  0  0  0  0  0  0
   49.0532   36.0251   42.6050 H   0  0  0  0  0  0  0  0  0  0  0  0
   49.9728   35.5853   40.2332 H   0  0  0  0  0  0  0  0  0  0  0  0
   49.0455   34.3194   37.9328 H   0  0  0  0  0  0  0  0  0  0  0  0
   47.1122   33.1061   37.0482 H   0  0  0  0  0  0  0  0  0  0  0  0
   45.0572   32.6482   38.4166 H   0  0  0  0  0  0  0  0  0  0  0  0
   43.9176   36.8359   44.3937 H   0  0  0  0  0  0  0  0  0  0  0  0
   45.4112   36.8100   42.4053 H   0  0  0  0  0  0  0  0  0  0  0  0
   45.6310   33.2358   45.8103 H   0  0  0  0  0  0  0  0  0  0  0  0
   45.9959   27.8610   39.8873 H   0  0  0  0  0  0  0  0  0  0  0  0
   42.8292   29.0011   36.7259 H   0  0  0  0  0  0  0  0  0  0  0  0
   41.3728   30.9926   36.3437 H   0  0  0  0  0  0  0  0  0  0  0  0
   41.5284   32.9038   37.9498 H   0  0  0  0  0  0  0  0  0  0  0  0
   43.0759   32.7978   39.8355 H   0  0  0  0  0  0  0  0  0  0  0  0
  1  2  1  0
  1  5  1  0
  2  3  1  0
  3  4  1  0
  5  4  1  0
  6 17  1  0
  7  6  2  0
  8  7  1  0
  9  8  1  0
  9 14  2  0
 10  9  1  0
 11 10  2  0
 11 12  1  0
 12 13  2  0
 13 14  1  0
 13  1  1  0
 14  6  1  0
 15 20  2  0
 16 15  1  0
 17 16  2  0
 17 18  1  0
 18 19  2  0
 19 20  1  0
 21 22  2  0
 21  5  1  0
 23 22  1  0
 24 23  2  0
 25 24  1  0
 25 30  2  0
 26 25  1  0
 27 26  2  0
 27 28  1  0
 28 29  2  0
 29 30  1  0
 30 21  1  0
  2 31  1  0
  2 32  1  0
  3 33  1  0
  3 34  1  0
  4 35  1  0
  4 36  1  0
  5 37  1  1
  7 38  1  0
  8 39  1  0
 10 40  1  0
 11 41  1  0
 12 42  1  0
 15 43  1  0
 16 44  1  0
 19 45  1  0
 23 46  1  0
 26 47  1  0
 27 48  1  0
 28 49  1  0
 29 50  1  0
M  ISO  8  31  13  32  13  33  13  34  13  35  13  36  13  37  13  38  14
M  ISO  8  39   9  40  14  41  14  42  14  43  14  44  14  45  14  46  14
M  ISO  4  47  14  48  14  49  14  50  14
M  END
>  <minimizedAffinity>  (1) 
-6.38917494

>  <minimizedRMSD>  (1) 
0.39088732

$$$$
