
     RDKit          3D

 37 40  0  0  1  0  0  0  0  0999 V2000
   47.2770   34.9220   41.8800 C   0  0  0  0  0  0  0  0  0  0  0  0
   48.5150   35.5660   41.7780 C   0  0  0  0  0  0  0  0  0  0  0  0
   49.0100   35.3680   40.5410 N   0  0  0  0  0  0  0  0  0  0  0  0
   48.1190   34.6170   39.8620 C   0  0  0  0  0  0  0  0  0  0  0  0
   48.1620   34.1500   38.5750 C   0  0  0  0  0  0  0  0  0  0  0  0
   47.1220   33.4060   38.1260 C   0  0  0  0  0  0  0  0  0  0  0  0
   45.9870   33.0680   38.8820 C   0  0  0  0  0  0  0  0  0  0  0  0
   46.0220   33.5790   40.1680 C   0  0  0  0  0  0  0  0  0  0  0  0
   47.0240   34.3240   40.6750 C   0  0  0  0  0  0  0  0  0  0  0  0
   44.8410   33.1940   40.8870 N   0  0  0  0  0  0  0  0  0  0  0  0
   43.4890   33.6010   41.1420 C   0  0  0  0  0  0  0  0  0  0  0  0
   42.7940   32.3730   41.6920 C   0  0  0  0  0  0  0  0  0  0  0  0
   43.9030   31.8460   42.5830 C   0  0  0  0  0  0  0  0  0  0  0  0
   45.0760   31.9310   41.6310 C   0  0  1  0  0  0  0  0  0  0  0  0
   45.1970   30.8480   40.8030 O   0  0  0  0  0  0  0  0  0  0  0  0
   44.6070   35.8370   44.3130 C   0  0  0  0  0  0  0  0  0  0  0  0
   45.4170   35.8710   43.1830 C   0  0  0  0  0  0  0  0  0  0  0  0
   46.4310   34.9010   43.0450 C   0  0  0  0  0  0  0  0  0  0  0  0
   46.5440   33.9850   44.0500 N   0  0  0  0  0  0  0  0  0  0  0  0
   45.7470   33.9760   45.1350 C   0  0  0  0  0  0  0  0  0  0  0  0
   44.7780   34.9000   45.2690 N   0  0  0  0  0  0  0  0  0  0  0  0
   49.0045   36.1407   42.5781 H   0  0  0  0  0  0  0  0  0  0  0  0
   49.9059   35.7251   40.1795 H   0  0  0  0  0  0  0  0  0  0  0  0
   49.0189   34.3732   37.9224 H   0  0  0  0  0  0  0  0  0  0  0  0
   47.1702   33.0386   37.0903 H   0  0  0  0  0  0  0  0  0  0  0  0
   45.1569   32.4605   38.4925 H   0  0  0  0  0  0  0  0  0  0  0  0
   43.4658   34.4180   41.8782 H   0  0  0  0  0  0  0  0  0  0  0  0
   42.9969   33.9755   40.2322 H   0  0  0  0  0  0  0  0  0  0  0  0
   41.8926   32.6327   42.2665 H   0  0  0  0  0  0  0  0  0  0  0  0
   42.4194   31.6657   40.9374 H   0  0  0  0  0  0  0  0  0  0  0  0
   44.0505   32.4815   43.4687 H   0  0  0  0  0  0  0  0  0  0  0  0
   43.7212   30.8455   43.0024 H   0  0  0  0  0  0  0  0  0  0  0  0
   46.0340   31.9273   42.1717 H   0  0  0  0  0  0  0  0  0  0  0  0
   45.2889   30.0257   41.3465 H   0  0  0  0  0  0  0  0  0  0  0  0
   43.8119   36.5881   44.4297 H   0  0  0  0  0  0  0  0  0  0  0  0
   45.2693   36.6406   42.4110 H   0  0  0  0  0  0  0  0  0  0  0  0
   45.8882   33.2118   45.9135 H   0  0  0  0  0  0  0  0  0  0  0  0
  1 18  1  0
  2  1  2  0
  3  2  1  0
  4  3  1  0
  4  9  2  0
  5  4  1  0
  6  5  2  0
  6  7  1  0
  7  8  2  0
  8  9  1  0
  8 10  1  0
  9  1  1  0
 10 11  1  0
 10 14  1  0
 11 12  1  0
 12 13  1  0
 14 13  1  0
 15 14  1  0
 16 21  2  0
 17 16  1  0
 18 17  2  0
 18 19  1  0
 19 20  2  0
 20 21  1  0
  2 22  1  0
  3 23  1  0
  5 24  1  0
  6 25  1  0
  7 26  1  0
 11 27  1  0
 11 28  1  0
 12 29  1  0
 12 30  1  0
 13 31  1  0
 13 32  1  0
 14 33  1  1
 15 34  1  0
 16 35  1  0
 17 36  1  0
 20 37  1  0
M  ISO  8  22  14  23   9  24  14  25  14  26  14  27  13  28  13  29  13
M  ISO  8  30  13  31  13  32  13  33  13  34   3  35  14  36  14  37  14
M  END
>  <minimizedAffinity>  (1) 
-6.06258249

>  <minimizedRMSD>  (1) 
0.0533721261

$$$$
