
     RDKit          3D

 43 47  0  0  1  0  0  0  0  0999 V2000
   47.2570   34.9450   41.9020 C   0  0  0  0  0  0  0  0  0  0  0  0
   48.4870   35.6090   41.7960 C   0  0  0  0  0  0  0  0  0  0  0  0
   48.9880   35.4000   40.5690 N   0  0  0  0  0  0  0  0  0  0  0  0
   48.1110   34.6280   39.9050 C   0  0  0  0  0  0  0  0  0  0  0  0
   48.1490   34.1310   38.6110 C   0  0  0  0  0  0  0  0  0  0  0  0
   47.1190   33.3680   38.1730 C   0  0  0  0  0  0  0  0  0  0  0  0
   45.9890   33.0250   38.9310 C   0  0  0  0  0  0  0  0  0  0  0  0
   46.0340   33.5630   40.2160 C   0  0  0  0  0  0  0  0  0  0  0  0
   47.0200   34.3280   40.7160 C   0  0  0  0  0  0  0  0  0  0  0  0
   44.8730   33.1460   40.9450 N   0  0  0  0  0  0  0  0  0  0  0  0
   43.5590   33.6430   41.3380 C   0  0  0  0  0  0  0  0  0  0  0  0
   42.7800   32.4150   41.7340 C   0  0  0  0  0  0  0  0  0  0  0  0
   43.8790   31.6680   42.4810 C   0  0  0  0  0  0  0  0  0  0  0  0
   44.9690   31.8010   41.4550 C   0  0  2  0  0  0  0  0  0  0  0  0
   46.2350   31.2390   41.7950 C   0  0  0  0  0  0  0  0  0  0  0  0
   47.3260   30.6800   41.1780 C   0  0  0  0  0  0  0  0  0  0  0  0
   48.3120   30.2960   42.0640 C   0  0  0  0  0  0  0  0  0  0  0  0
   47.7400   30.6610   43.2660 C   0  0  0  0  0  0  0  0  0  0  0  0
   46.5730   31.1890   43.0850 O   0  0  0  0  0  0  0  0  0  0  0  0
   44.5900   35.8920   44.3300 C   0  0  0  0  0  0  0  0  0  0  0  0
   45.4000   35.9200   43.2040 C   0  0  0  0  0  0  0  0  0  0  0  0
   46.4040   34.9350   43.0690 C   0  0  0  0  0  0  0  0  0  0  0  0
   46.5020   34.0200   44.0680 N   0  0  0  0  0  0  0  0  0  0  0  0
   45.7060   34.0140   45.1480 C   0  0  0  0  0  0  0  0  0  0  0  0
   44.7450   34.9530   45.2820 N   0  0  0  0  0  0  0  0  0  0  0  0
   48.9635   36.2040   42.5890 H   0  0  0  0  0  0  0  0  0  0  0  0
   49.8796   35.7639   40.2036 H   0  0  0  0  0  0  0  0  0  0  0  0
   49.0010   34.3526   37.9515 H   0  0  0  0  0  0  0  0  0  0  0  0
   47.1726   32.9874   37.1423 H   0  0  0  0  0  0  0  0  0  0  0  0
   45.1632   32.4034   38.5546 H   0  0  0  0  0  0  0  0  0  0  0  0
   43.6461   34.3363   42.1876 H   0  0  0  0  0  0  0  0  0  0  0  0
   43.0681   34.1998   40.5262 H   0  0  0  0  0  0  0  0  0  0  0  0
   41.9292   32.6588   42.3873 H   0  0  0  0  0  0  0  0  0  0  0  0
   42.3114   31.8637   40.9054 H   0  0  0  0  0  0  0  0  0  0  0  0
   44.1412   32.1564   43.4311 H   0  0  0  0  0  0  0  0  0  0  0  0
   43.6353   30.6412   42.7913 H   0  0  0  0  0  0  0  0  0  0  0  0
   44.8249   31.1229   40.6009 H   0  0  0  0  0  0  0  0  0  0  0  0
   47.4064   30.5512   40.0885 H   0  0  0  0  0  0  0  0  0  0  0  0
   49.2872   29.8272   41.8663 H   0  0  0  0  0  0  0  0  0  0  0  0
   48.2142   30.5213   44.2487 H   0  0  0  0  0  0  0  0  0  0  0  0
   43.8046   36.6531   44.4473 H   0  0  0  0  0  0  0  0  0  0  0  0
   45.2635   36.6925   42.4329 H   0  0  0  0  0  0  0  0  0  0  0  0
   45.8361   33.2449   45.9236 H   0  0  0  0  0  0  0  0  0  0  0  0
  1 22  1  0
  2  1  2  0
  3  2  1  0
  4  3  1  0
  4  9  2  0
  5  4  1  0
  6  5  2  0
  6  7  1  0
  7  8  2  0
  8  9  1  0
  8 10  1  0
  9  1  1  0
 10 11  1  0
 10 14  1  0
 11 12  1  0
 12 13  1  0
 14 15  1  0
 14 13  1  0
 15 19  1  0
 16 15  2  0
 16 17  1  0
 17 18  2  0
 19 18  1  0
 20 25  2  0
 21 20  1  0
 22 21  2  0
 22 23  1  0
 23 24  2  0
 24 25  1  0
  2 26  1  0
  3 27  1  0
  5 28  1  0
  6 29  1  0
  7 30  1  0
 11 31  1  0
 11 32  1  0
 12 33  1  0
 12 34  1  0
 13 35  1  0
 13 36  1  0
 14 37  1  6
 16 38  1  0
 17 39  1  0
 18 40  1  0
 20 41  1  0
 21 42  1  0
 24 43  1  0
M  ISO  8  26  14  27   9  28  14  29  14  30  14  31  13  32  13  33  13
M  ISO  8  34  13  35  13  36  13  37  13  38  14  39  14  40  14  41  14
M  ISO  2  42  14  43  14
M  END
>  <minimizedAffinity>  (1) 
-6.0945096

>  <minimizedRMSD>  (1) 
0.183480099

$$$$
