
     RDKit          3D

 46 50  0  0  1  0  0  0  0  0999 V2000
   47.3260   34.9170   41.8690 C   0  0  0  0  0  0  0  0  0  0  0  0
   48.5480   35.5810   41.7610 C   0  0  0  0  0  0  0  0  0  0  0  0
   49.0330   35.4100   40.5220 N   0  0  0  0  0  0  0  0  0  0  0  0
   48.1490   34.6550   39.8460 C   0  0  0  0  0  0  0  0  0  0  0  0
   48.1890   34.2010   38.5410 C   0  0  0  0  0  0  0  0  0  0  0  0
   47.1480   33.4350   38.0920 C   0  0  0  0  0  0  0  0  0  0  0  0
   46.0290   33.0670   38.8570 C   0  0  0  0  0  0  0  0  0  0  0  0
   46.0730   33.5640   40.1480 C   0  0  0  0  0  0  0  0  0  0  0  0
   47.0720   34.3330   40.6680 C   0  0  0  0  0  0  0  0  0  0  0  0
   44.9190   33.1340   40.8800 N   0  0  0  0  0  0  0  0  0  0  0  0
   43.5170   33.4550   40.9970 C   0  0  0  0  0  0  0  0  0  0  0  0
   42.9010   32.2520   41.6950 C   0  0  0  0  0  0  0  0  0  0  0  0
   44.0110   31.9440   42.6650 C   0  0  0  0  0  0  0  0  0  0  0  0
   45.2220   32.0270   41.8050 C   0  0  1  0  0  0  0  0  0  0  0  0
   45.7490   30.8600   41.2360 N   0  0  0  0  0  0  0  0  0  0  0  0
   45.1980   29.9430   40.4290 C   0  0  0  0  0  0  0  0  0  0  0  0
   45.7630   28.8060   39.8970 C   0  0  0  0  0  0  0  0  0  0  0  0
   47.0790   28.5560   40.2270 C   0  0  0  0  0  0  0  0  0  0  0  0
   47.6390   27.5310   39.7660 O   0  0  0  0  0  0  0  0  0  0  0  0
   47.6880   29.4410   41.0350 N   0  0  0  0  0  0  0  0  0  0  0  0
   47.0530   30.5200   41.5020 C   0  0  0  0  0  0  0  0  0  0  0  0
   47.8290   31.2040   42.2430 O   0  0  0  0  0  0  0  0  0  0  0  0
   44.5980   35.7180   44.2810 C   0  0  0  0  0  0  0  0  0  0  0  0
   45.4040   35.7780   43.1390 C   0  0  0  0  0  0  0  0  0  0  0  0
   46.4850   34.8740   43.0400 C   0  0  0  0  0  0  0  0  0  0  0  0
   46.6470   34.0160   44.0760 N   0  0  0  0  0  0  0  0  0  0  0  0
   45.8750   33.9670   45.1590 C   0  0  0  0  0  0  0  0  0  0  0  0
   44.8410   34.8220   45.2650 N   0  0  0  0  0  0  0  0  0  0  0  0
   49.0360   36.1534   42.5636 H   0  0  0  0  0  0  0  0  0  0  0  0
   49.9188   35.7873   40.1561 H   0  0  0  0  0  0  0  0  0  0  0  0
   49.0341   34.4486   37.8819 H   0  0  0  0  0  0  0  0  0  0  0  0
   47.1907   33.0800   37.0517 H   0  0  0  0  0  0  0  0  0  0  0  0
   45.2049   32.4492   38.4709 H   0  0  0  0  0  0  0  0  0  0  0  0
   43.3766   34.3657   41.5978 H   0  0  0  0  0  0  0  0  0  0  0  0
   43.0525   33.6512   40.0194 H   0  0  0  0  0  0  0  0  0  0  0  0
   41.9638   32.5099   42.2099 H   0  0  0  0  0  0  0  0  0  0  0  0
   42.6079   31.4225   41.0347 H   0  0  0  0  0  0  0  0  0  0  0  0
   44.0477   32.6863   43.4760 H   0  0  0  0  0  0  0  0  0  0  0  0
   43.8964   30.9728   43.1687 H   0  0  0  0  0  0  0  0  0  0  0  0
   46.1065   32.2162   42.4310 H   0  0  0  0  0  0  0  0  0  0  0  0
   44.1486   30.1239   40.1534 H   0  0  0  0  0  0  0  0  0  0  0  0
   45.1936   28.1306   39.2415 H   0  0  0  0  0  0  0  0  0  0  0  0
   48.6704   29.2832   41.3013 H   0  0  0  0  0  0  0  0  0  0  0  0
   43.7508   36.4124   44.3807 H   0  0  0  0  0  0  0  0  0  0  0  0
   45.2018   36.5079   42.3413 H   0  0  0  0  0  0  0  0  0  0  0  0
   46.0793   33.2376   45.9567 H   0  0  0  0  0  0  0  0  0  0  0  0
  1 25  1  0
  2  1  2  0
  3  2  1  0
  4  3  1  0
  4  9  2  0
  5  4  1  0
  6  5  2  0
  6  7  1  0
  7  8  2  0
  8  9  1  0
  8 10  1  0
  9  1  1  0
 10 11  1  0
 10 14  1  0
 11 12  1  0
 12 13  1  0
 14 13  1  0
 15 21  1  0
 15 14  1  0
 16 15  1  0
 17 18  1  0
 17 16  2  0
 18 20  1  0
 19 18  2  0
 20 21  1  0
 21 22  2  0
 23 28  2  0
 24 23  1  0
 25 24  2  0
 25 26  1  0
 26 27  2  0
 27 28  1  0
  2 29  1  0
  3 30  1  0
  5 31  1  0
  6 32  1  0
  7 33  1  0
 11 34  1  0
 11 35  1  0
 12 36  1  0
 12 37  1  0
 13 38  1  0
 13 39  1  0
 14 40  1  1
 16 41  1  0
 17 42  1  0
 20 43  1  0
 23 44  1  0
 24 45  1  0
 27 46  1  0
M  ISO  8  29  14  30   9  31  14  32  14  33  14  34  13  35  13  36  13
M  ISO  8  37  13  38  13  39  13  40  13  41  14  42  14  43   9  44  14
M  ISO  2  45  14  46  14
M  END
>  <minimizedAffinity>  (1) 
-5.96135283

>  <minimizedRMSD>  (1) 
1.42185831

$$$$
