
     RDKit          3D

 39 42  0  0  1  0  0  0  0  0999 V2000
   47.2550   34.9390   41.9010 C   0  0  0  0  0  0  0  0  0  0  0  0
   48.4930   35.5870   41.7830 C   0  0  0  0  0  0  0  0  0  0  0  0
   48.9860   35.3740   40.5550 N   0  0  0  0  0  0  0  0  0  0  0  0
   48.1010   34.6130   39.8890 C   0  0  0  0  0  0  0  0  0  0  0  0
   48.1480   34.1280   38.5990 C   0  0  0  0  0  0  0  0  0  0  0  0
   47.0960   33.3680   38.1650 C   0  0  0  0  0  0  0  0  0  0  0  0
   45.9680   33.0370   38.9230 C   0  0  0  0  0  0  0  0  0  0  0  0
   46.0110   33.5700   40.2070 C   0  0  0  0  0  0  0  0  0  0  0  0
   47.0060   34.3250   40.7060 C   0  0  0  0  0  0  0  0  0  0  0  0
   44.8420   33.1820   40.9330 N   0  0  0  0  0  0  0  0  0  0  0  0
   43.5470   33.6830   41.3330 C   0  0  0  0  0  0  0  0  0  0  0  0
   42.7540   32.4410   41.7230 C   0  0  0  0  0  0  0  0  0  0  0  0
   43.8480   31.6900   42.4730 C   0  0  0  0  0  0  0  0  0  0  0  0
   44.9260   31.8160   41.4410 C   0  0  2  0  0  0  0  0  0  0  0  0
   46.1990   31.2710   41.7640 C   0  0  0  0  0  0  0  0  0  0  0  0
   46.2640   30.9340   42.9780 O   0  0  0  0  0  0  0  0  0  0  0  0
   47.4420   30.9280   41.3510 O   0  0  0  0  0  0  0  0  0  0  0  0
   44.6280   35.9290   44.3490 C   0  0  0  0  0  0  0  0  0  0  0  0
   45.4420   35.9510   43.2160 C   0  0  0  0  0  0  0  0  0  0  0  0
   46.4080   34.9330   43.0640 C   0  0  0  0  0  0  0  0  0  0  0  0
   46.4720   34.0000   44.0470 N   0  0  0  0  0  0  0  0  0  0  0  0
   45.6790   33.9990   45.1270 C   0  0  0  0  0  0  0  0  0  0  0  0
   44.7540   34.9660   45.2800 N   0  0  0  0  0  0  0  0  0  0  0  0
   48.9818   36.1764   42.5727 H   0  0  0  0  0  0  0  0  0  0  0  0
   49.8807   35.7291   40.1884 H   0  0  0  0  0  0  0  0  0  0  0  0
   49.0024   34.3447   37.9409 H   0  0  0  0  0  0  0  0  0  0  0  0
   47.1412   32.9857   37.1346 H   0  0  0  0  0  0  0  0  0  0  0  0
   45.1377   32.4224   38.5450 H   0  0  0  0  0  0  0  0  0  0  0  0
   43.6433   34.3663   42.1896 H   0  0  0  0  0  0  0  0  0  0  0  0
   43.0566   34.2546   40.5313 H   0  0  0  0  0  0  0  0  0  0  0  0
   41.8998   32.6833   42.3723 H   0  0  0  0  0  0  0  0  0  0  0  0
   42.2888   31.8941   40.8897 H   0  0  0  0  0  0  0  0  0  0  0  0
   44.1173   32.1808   43.4199 H   0  0  0  0  0  0  0  0  0  0  0  0
   43.6011   30.6670   42.7933 H   0  0  0  0  0  0  0  0  0  0  0  0
   44.7520   31.1252   40.6028 H   0  0  0  0  0  0  0  0  0  0  0  0
   48.0838   30.5294   41.9908 H   0  0  0  0  0  0  0  0  0  0  0  0
   43.8690   36.7137   44.4836 H   0  0  0  0  0  0  0  0  0  0  0  0
   45.3336   36.7423   42.4597 H   0  0  0  0  0  0  0  0  0  0  0  0
   45.7831   33.2104   45.8868 H   0  0  0  0  0  0  0  0  0  0  0  0
  1 20  1  0
  2  1  2  0
  3  2  1  0
  4  3  1  0
  4  9  2  0
  5  4  1  0
  6  5  2  0
  6  7  1  0
  7  8  2  0
  8  9  1  0
  8 10  1  0
  9  1  1  0
 10 11  1  0
 10 14  1  0
 11 12  1  0
 12 13  1  0
 14 15  1  0
 14 13  1  0
 15 16  2  0
 17 15  1  0
 18 23  2  0
 19 18  1  0
 20 19  2  0
 20 21  1  0
 21 22  2  0
 22 23  1  0
  2 24  1  0
  3 25  1  0
  5 26  1  0
  6 27  1  0
  7 28  1  0
 11 29  1  0
 11 30  1  0
 12 31  1  0
 12 32  1  0
 13 33  1  0
 13 34  1  0
 14 35  1  6
 17 36  1  0
 18 37  1  0
 19 38  1  0
 22 39  1  0
M  ISO  8  24  14  25   9  26  14  27  14  28  14  29  13  30  13  31  13
M  ISO  8  32  13  33  13  34  13  35  13  36   3  37  14  38  14  39  14
M  END
>  <minimizedAffinity>  (1) 
-5.94004965

>  <minimizedRMSD>  (1) 
0.486784667

$$$$
