
     RDKit          3D

 51 55  0  0  1  0  0  0  0  0999 V2000
   47.3100   34.8940   41.8590 C   0  0  0  0  0  0  0  0  0  0  0  0
   48.5420   35.5550   41.7470 C   0  0  0  0  0  0  0  0  0  0  0  0
   49.0230   35.3780   40.5060 N   0  0  0  0  0  0  0  0  0  0  0  0
   48.1360   34.6290   39.8350 C   0  0  0  0  0  0  0  0  0  0  0  0
   48.1640   34.1800   38.5300 C   0  0  0  0  0  0  0  0  0  0  0  0
   47.1150   33.4260   38.0790 C   0  0  0  0  0  0  0  0  0  0  0  0
   46.0010   33.0710   38.8530 C   0  0  0  0  0  0  0  0  0  0  0  0
   46.0470   33.5550   40.1410 C   0  0  0  0  0  0  0  0  0  0  0  0
   47.0460   34.3010   40.6420 C   0  0  0  0  0  0  0  0  0  0  0  0
   44.8960   33.1260   40.8730 N   0  0  0  0  0  0  0  0  0  0  0  0
   43.5120   33.4750   41.0590 C   0  0  0  0  0  0  0  0  0  0  0  0
   42.8730   32.2580   41.6930 C   0  0  0  0  0  0  0  0  0  0  0  0
   43.9930   31.8820   42.6260 C   0  0  0  0  0  0  0  0  0  0  0  0
   45.1770   31.9600   41.7110 C   0  0  1  0  0  0  0  0  0  0  0  0
   45.6000   30.8310   41.0650 N   0  0  0  0  0  0  0  0  0  0  0  0
   46.8580   30.2880   41.0170 C   0  0  0  0  0  0  0  0  0  0  0  0
   46.8550   28.7960   40.6290 C   0  0  0  0  0  0  0  0  0  0  0  0
   46.1660   28.6000   39.2990 C   0  0  0  0  0  0  0  0  0  0  0  0
   45.1190   29.6620   39.0610 C   0  0  0  0  0  0  0  0  0  0  0  0
   44.5770   30.0190   40.4520 C   0  0  0  0  0  0  0  0  0  0  0  0
   44.6190   35.7340   44.2950 C   0  0  0  0  0  0  0  0  0  0  0  0
   45.4160   35.7890   43.1530 C   0  0  0  0  0  0  0  0  0  0  0  0
   46.4740   34.8610   43.0270 C   0  0  0  0  0  0  0  0  0  0  0  0
   46.6250   33.9810   44.0470 N   0  0  0  0  0  0  0  0  0  0  0  0
   45.8580   33.9340   45.1380 C   0  0  0  0  0  0  0  0  0  0  0  0
   44.8400   34.8230   45.2620 N   0  0  0  0  0  0  0  0  0  0  0  0
   49.0349   36.1265   42.5472 H   0  0  0  0  0  0  0  0  0  0  0  0
   49.9102   35.7493   40.1372 H   0  0  0  0  0  0  0  0  0  0  0  0
   49.0090   34.4224   37.8688 H   0  0  0  0  0  0  0  0  0  0  0  0
   47.1479   33.0741   37.0373 H   0  0  0  0  0  0  0  0  0  0  0  0
   45.1691   32.4633   38.4676 H   0  0  0  0  0  0  0  0  0  0  0  0
   43.4208   34.3475   41.7227 H   0  0  0  0  0  0  0  0  0  0  0  0
   43.0266   33.7444   40.1094 H   0  0  0  0  0  0  0  0  0  0  0  0
   41.9488   32.5091   42.2341 H   0  0  0  0  0  0  0  0  0  0  0  0
   42.5455   31.4718   40.9968 H   0  0  0  0  0  0  0  0  0  0  0  0
   44.0800   32.5955   43.4586 H   0  0  0  0  0  0  0  0  0  0  0  0
   43.8641   30.9042   43.1131 H   0  0  0  0  0  0  0  0  0  0  0  0
   46.0966   32.0701   42.3045 H   0  0  0  0  0  0  0  0  0  0  0  0
   47.4510   30.8422   40.2746 H   0  0  0  0  0  0  0  0  0  0  0  0
   47.2886   30.3649   42.0263 H   0  0  0  0  0  0  0  0  0  0  0  0
   47.8926   28.4382   40.5560 H   0  0  0  0  0  0  0  0  0  0  0  0
   46.3130   28.2277   41.3992 H   0  0  0  0  0  0  0  0  0  0  0  0
   46.9162   28.6503   38.4961 H   0  0  0  0  0  0  0  0  0  0  0  0
   45.6692   27.6186   39.3069 H   0  0  0  0  0  0  0  0  0  0  0  0
   45.5686   30.5457   38.5847 H   0  0  0  0  0  0  0  0  0  0  0  0
   44.3224   29.3080   38.3900 H   0  0  0  0  0  0  0  0  0  0  0  0
   43.6374   30.5843   40.3655 H   0  0  0  0  0  0  0  0  0  0  0  0
   44.3558   29.1211   41.0477 H   0  0  0  0  0  0  0  0  0  0  0  0
   43.7917   36.4500   44.4090 H   0  0  0  0  0  0  0  0  0  0  0  0
   45.2260   36.5367   42.3688 H   0  0  0  0  0  0  0  0  0  0  0  0
   46.0476   33.1875   45.9234 H   0  0  0  0  0  0  0  0  0  0  0  0
  1 23  1  0
  2  1  2  0
  3  2  1  0
  4  3  1  0
  4  9  2  0
  5  4  1  0
  6  5  2  0
  6  7  1  0
  7  8  2  0
  8  9  1  0
  8 10  1  0
  9  1  1  0
 10 11  1  0
 10 14  1  0
 11 12  1  0
 12 13  1  0
 14 13  1  0
 15 14  1  0
 16 15  1  0
 17 16  1  0
 18 17  1  0
 19 18  1  0
 19 20  1  0
 20 15  1  0
 21 26  2  0
 22 21  1  0
 23 22  2  0
 23 24  1  0
 24 25  2  0
 25 26  1  0
  2 27  1  0
  3 28  1  0
  5 29  1  0
  6 30  1  0
  7 31  1  0
 11 32  1  0
 11 33  1  0
 12 34  1  0
 12 35  1  0
 13 36  1  0
 13 37  1  0
 14 38  1  1
 16 39  1  0
 16 40  1  0
 17 41  1  0
 17 42  1  0
 18 43  1  0
 18 44  1  0
 19 45  1  0
 19 46  1  0
 20 47  1  0
 20 48  1  0
 21 49  1  0
 22 50  1  0
 25 51  1  0
M  ISO  8  27  14  28   9  29  14  30  14  31  14  32  13  33  13  34  13
M  ISO  8  35  13  36  13  37  13  38  13  39  13  40  13  41  13  42  13
M  ISO  8  43  13  44  13  45  13  46  13  47  13  48  13  49  14  50  14
M  ISO  1  51  14
M  END
>  <minimizedAffinity>  (1) 
-5.86888599

>  <minimizedRMSD>  (1) 
0.448975086

$$$$
