
     RDKit          3D

 47 51  0  0  1  0  0  0  0  0999 V2000
   47.3160   34.9300   41.8730 C   0  0  0  0  0  0  0  0  0  0  0  0
   48.5440   35.5940   41.7640 C   0  0  0  0  0  0  0  0  0  0  0  0
   49.0350   35.4160   40.5290 N   0  0  0  0  0  0  0  0  0  0  0  0
   48.1530   34.6580   39.8530 C   0  0  0  0  0  0  0  0  0  0  0  0
   48.2030   34.2040   38.5580 C   0  0  0  0  0  0  0  0  0  0  0  0
   47.1680   33.4410   38.1040 C   0  0  0  0  0  0  0  0  0  0  0  0
   46.0430   33.0790   38.8610 C   0  0  0  0  0  0  0  0  0  0  0  0
   46.0750   33.5750   40.1510 C   0  0  0  0  0  0  0  0  0  0  0  0
   47.0750   34.3430   40.6680 C   0  0  0  0  0  0  0  0  0  0  0  0
   44.9120   33.1490   40.8790 N   0  0  0  0  0  0  0  0  0  0  0  0
   43.5080   33.4730   40.9970 C   0  0  0  0  0  0  0  0  0  0  0  0
   42.8980   32.2730   41.6950 C   0  0  0  0  0  0  0  0  0  0  0  0
   44.0060   31.9550   42.6640 C   0  0  0  0  0  0  0  0  0  0  0  0
   45.2200   32.0450   41.7910 C   0  0  1  0  0  0  0  0  0  0  0  0
   45.7370   30.8760   41.2240 N   0  0  0  0  0  0  0  0  0  0  0  0
   45.1830   29.9600   40.4130 C   0  0  0  0  0  0  0  0  0  0  0  0
   45.7740   28.8280   39.9020 C   0  0  0  0  0  0  0  0  0  0  0  0
   47.0850   28.5500   40.2250 C   0  0  0  0  0  0  0  0  0  0  0  0
   47.7110   27.3950   39.7130 N   0  0  0  0  0  0  0  0  0  0  0  0
   47.6860   29.4460   41.0410 N   0  0  0  0  0  0  0  0  0  0  0  0
   47.0380   30.5310   41.5000 C   0  0  0  0  0  0  0  0  0  0  0  0
   47.8210   31.1970   42.2370 O   0  0  0  0  0  0  0  0  0  0  0  0
   44.5970   35.7200   44.2890 C   0  0  0  0  0  0  0  0  0  0  0  0
   45.3930   35.7930   43.1440 C   0  0  0  0  0  0  0  0  0  0  0  0
   46.4700   34.8890   43.0440 C   0  0  0  0  0  0  0  0  0  0  0  0
   46.6410   34.0230   44.0750 N   0  0  0  0  0  0  0  0  0  0  0  0
   45.8700   33.9690   45.1620 C   0  0  0  0  0  0  0  0  0  0  0  0
   44.8380   34.8250   45.2690 N   0  0  0  0  0  0  0  0  0  0  0  0
   49.0293   36.1707   42.5652 H   0  0  0  0  0  0  0  0  0  0  0  0
   49.9230   35.7903   40.1653 H   0  0  0  0  0  0  0  0  0  0  0  0
   49.0539   34.4489   37.9053 H   0  0  0  0  0  0  0  0  0  0  0  0
   47.2187   33.0819   37.0655 H   0  0  0  0  0  0  0  0  0  0  0  0
   45.2202   32.4637   38.4681 H   0  0  0  0  0  0  0  0  0  0  0  0
   43.3685   34.3842   41.5972 H   0  0  0  0  0  0  0  0  0  0  0  0
   43.0412   33.6706   40.0208 H   0  0  0  0  0  0  0  0  0  0  0  0
   41.9626   32.5318   42.2127 H   0  0  0  0  0  0  0  0  0  0  0  0
   42.6061   31.4455   41.0316 H   0  0  0  0  0  0  0  0  0  0  0  0
   44.0458   32.6907   43.4808 H   0  0  0  0  0  0  0  0  0  0  0  0
   43.8913   30.9822   43.1645 H   0  0  0  0  0  0  0  0  0  0  0  0
   46.1134   32.2404   42.4022 H   0  0  0  0  0  0  0  0  0  0  0  0
   44.1362   30.1352   40.1242 H   0  0  0  0  0  0  0  0  0  0  0  0
   45.2075   28.1529   39.2437 H   0  0  0  0  0  0  0  0  0  0  0  0
   48.6907   27.1896   39.9559 H   0  0  0  0  0  0  0  0  0  0  0  0
   47.1886   26.7567   39.0961 H   0  0  0  0  0  0  0  0  0  0  0  0
   43.7489   36.4124   44.3948 H   0  0  0  0  0  0  0  0  0  0  0  0
   45.1876   36.5272   42.3511 H   0  0  0  0  0  0  0  0  0  0  0  0
   46.0746   33.2371   45.9572 H   0  0  0  0  0  0  0  0  0  0  0  0
  1 25  1  0
  2  1  2  0
  3  2  1  0
  4  3  1  0
  4  9  2  0
  5  4  1  0
  6  5  2  0
  6  7  1  0
  7  8  2  0
  8  9  1  0
  8 10  1  0
  9  1  1  0
 10 11  1  0
 10 14  1  0
 11 12  1  0
 12 13  1  0
 14 13  1  0
 15 21  1  0
 15 14  1  0
 16 15  1  0
 17 18  1  0
 17 16  2  0
 18 20  2  0
 19 18  1  0
 20 21  1  0
 21 22  2  0
 23 28  2  0
 24 23  1  0
 25 24  2  0
 25 26  1  0
 26 27  2  0
 27 28  1  0
  2 29  1  0
  3 30  1  0
  5 31  1  0
  6 32  1  0
  7 33  1  0
 11 34  1  0
 11 35  1  0
 12 36  1  0
 12 37  1  0
 13 38  1  0
 13 39  1  0
 14 40  1  1
 16 41  1  0
 17 42  1  0
 19 43  1  0
 19 44  1  0
 23 45  1  0
 24 46  1  0
 27 47  1  0
M  ISO  8  29  14  30   9  31  14  32  14  33  14  34  13  35  13  36  13
M  ISO  8  37  13  38  13  39  13  40  13  41  14  42  14  45  14  46  14
M  ISO  1  47  14
M  END
>  <minimizedAffinity>  (1) 
-5.96867752

>  <minimizedRMSD>  (1) 
0.583628476

$$$$
