
     RDKit          3D

 41 45  0  0  1  0  0  0  0  0999 V2000
   47.2920   34.9120   41.8840 C   0  0  0  0  0  0  0  0  0  0  0  0
   48.5330   35.5590   41.7760 C   0  0  0  0  0  0  0  0  0  0  0  0
   49.0220   35.3700   40.5450 N   0  0  0  0  0  0  0  0  0  0  0  0
   48.1300   34.6220   39.8650 C   0  0  0  0  0  0  0  0  0  0  0  0
   48.1600   34.1580   38.5590 C   0  0  0  0  0  0  0  0  0  0  0  0
   47.1160   33.4190   38.1120 C   0  0  0  0  0  0  0  0  0  0  0  0
   45.9950   33.0830   38.8750 C   0  0  0  0  0  0  0  0  0  0  0  0
   46.0310   33.5780   40.1660 C   0  0  0  0  0  0  0  0  0  0  0  0
   47.0360   34.3170   40.6710 C   0  0  0  0  0  0  0  0  0  0  0  0
   44.8600   33.1740   40.8890 N   0  0  0  0  0  0  0  0  0  0  0  0
   43.4950   33.5830   41.1240 C   0  0  0  0  0  0  0  0  0  0  0  0
   42.8100   32.3640   41.6860 C   0  0  0  0  0  0  0  0  0  0  0  0
   43.9150   31.8690   42.5990 C   0  0  0  0  0  0  0  0  0  0  0  0
   45.1000   31.9420   41.6470 C   0  0  1  0  0  0  0  0  0  0  0  0
   45.1630   30.7300   40.8080 C   0  0  0  0  0  0  0  0  0  0  0  0
   46.1110   29.8300   40.5720 N   0  0  0  0  0  0  0  0  0  0  0  0
   45.6850   28.9260   39.7420 O   0  0  0  0  0  0  0  0  0  0  0  0
   44.4530   29.1750   39.3870 C   0  0  0  0  0  0  0  0  0  0  0  0
   44.1190   30.2880   40.0420 N   0  0  0  0  0  0  0  0  0  0  0  0
   44.6140   35.8160   44.3070 C   0  0  0  0  0  0  0  0  0  0  0  0
   45.4220   35.8540   43.1730 C   0  0  0  0  0  0  0  0  0  0  0  0
   46.4460   34.8890   43.0490 C   0  0  0  0  0  0  0  0  0  0  0  0
   46.5870   33.9680   44.0520 N   0  0  0  0  0  0  0  0  0  0  0  0
   45.7790   33.9710   45.1340 C   0  0  0  0  0  0  0  0  0  0  0  0
   44.7940   34.8880   45.2690 N   0  0  0  0  0  0  0  0  0  0  0  0
   49.0254   36.1307   42.5764 H   0  0  0  0  0  0  0  0  0  0  0  0
   49.9165   35.7302   40.1830 H   0  0  0  0  0  0  0  0  0  0  0  0
   49.0117   34.3846   37.9008 H   0  0  0  0  0  0  0  0  0  0  0  0
   47.1538   33.0576   37.0737 H   0  0  0  0  0  0  0  0  0  0  0  0
   45.1611   32.4807   38.4852 H   0  0  0  0  0  0  0  0  0  0  0  0
   43.4594   34.4127   41.8453 H   0  0  0  0  0  0  0  0  0  0  0  0
   43.0086   33.9416   40.2048 H   0  0  0  0  0  0  0  0  0  0  0  0
   41.8989   32.6240   42.2449 H   0  0  0  0  0  0  0  0  0  0  0  0
   42.4515   31.6380   40.9414 H   0  0  0  0  0  0  0  0  0  0  0  0
   44.0502   32.5274   43.4698 H   0  0  0  0  0  0  0  0  0  0  0  0
   43.7389   30.8781   43.0431 H   0  0  0  0  0  0  0  0  0  0  0  0
   46.0790   31.9738   42.1476 H   0  0  0  0  0  0  0  0  0  0  0  0
   43.8257   28.5922   38.6964 H   0  0  0  0  0  0  0  0  0  0  0  0
   43.8112   36.5594   44.4204 H   0  0  0  0  0  0  0  0  0  0  0  0
   45.2667   36.6155   42.3945 H   0  0  0  0  0  0  0  0  0  0  0  0
   45.9244   33.2145   45.9192 H   0  0  0  0  0  0  0  0  0  0  0  0
  1 22  1  0
  2  1  2  0
  3  2  1  0
  4  3  1  0
  4  9  2  0
  5  4  1  0
  6  5  2  0
  6  7  1  0
  7  8  2  0
  8  9  1  0
  8 10  1  0
  9  1  1  0
 10 11  1  0
 10 14  1  0
 11 12  1  0
 12 13  1  0
 14 13  1  0
 15 14  1  0
 16 15  2  0
 17 16  1  0
 18 17  1  0
 18 19  2  0
 19 15  1  0
 20 25  2  0
 21 20  1  0
 22 21  2  0
 22 23  1  0
 23 24  2  0
 24 25  1  0
  2 26  1  0
  3 27  1  0
  5 28  1  0
  6 29  1  0
  7 30  1  0
 11 31  1  0
 11 32  1  0
 12 33  1  0
 12 34  1  0
 13 35  1  0
 13 36  1  0
 14 37  1  1
 18 38  1  0
 20 39  1  0
 21 40  1  0
 24 41  1  0
M  ISO  8  26  14  27   9  28  14  29  14  30  14  31  13  32  13  33  13
M  ISO  8  34  13  35  13  36  13  37  13  38  14  39  14  40  14  41  14
M  END
>  <minimizedAffinity>  (1) 
-5.86409616

>  <minimizedRMSD>  (1) 
0.441128701

$$$$
