
     RDKit          3D

 46 50  0  0  1  0  0  0  0  0999 V2000
   47.2900   34.9140   41.8790 C   0  0  0  0  0  0  0  0  0  0  0  0
   48.5280   35.5440   41.7840 C   0  0  0  0  0  0  0  0  0  0  0  0
   49.0190   35.3460   40.5470 N   0  0  0  0  0  0  0  0  0  0  0  0
   48.1270   34.6170   39.8750 C   0  0  0  0  0  0  0  0  0  0  0  0
   48.1610   34.1570   38.5710 C   0  0  0  0  0  0  0  0  0  0  0  0
   47.1030   33.4260   38.1150 C   0  0  0  0  0  0  0  0  0  0  0  0
   45.9620   33.0890   38.8610 C   0  0  0  0  0  0  0  0  0  0  0  0
   46.0140   33.5900   40.1600 C   0  0  0  0  0  0  0  0  0  0  0  0
   47.0220   34.3190   40.6730 C   0  0  0  0  0  0  0  0  0  0  0  0
   44.8570   33.1860   40.8820 N   0  0  0  0  0  0  0  0  0  0  0  0
   43.4670   33.5870   41.0700 C   0  0  0  0  0  0  0  0  0  0  0  0
   42.7810   32.3880   41.6770 C   0  0  0  0  0  0  0  0  0  0  0  0
   43.8830   31.9370   42.6050 C   0  0  0  0  0  0  0  0  0  0  0  0
   45.0760   32.0000   41.7100 C   0  0  1  0  0  0  0  0  0  0  0  0
   45.4890   30.7990   41.0340 C   0  0  0  0  0  0  0  0  0  0  0  0
   44.5310   30.1170   40.2690 C   0  0  0  0  0  0  0  0  0  0  0  0
   44.8310   28.9500   39.5960 C   0  0  0  0  0  0  0  0  0  0  0  0
   46.1060   28.3870   39.6380 C   0  0  0  0  0  0  0  0  0  0  0  0
   47.0840   29.0440   40.3900 C   0  0  0  0  0  0  0  0  0  0  0  0
   46.7270   30.1990   41.0400 C   0  0  0  0  0  0  0  0  0  0  0  0
   44.5860   35.8410   44.2810 C   0  0  0  0  0  0  0  0  0  0  0  0
   45.4020   35.8710   43.1520 C   0  0  0  0  0  0  0  0  0  0  0  0
   46.4310   34.9070   43.0460 C   0  0  0  0  0  0  0  0  0  0  0  0
   46.5400   34.0220   44.0660 N   0  0  0  0  0  0  0  0  0  0  0  0
   45.7470   34.0110   45.1430 C   0  0  0  0  0  0  0  0  0  0  0  0
   44.7630   34.9220   45.2570 N   0  0  0  0  0  0  0  0  0  0  0  0
   49.0227   36.1099   42.5872 H   0  0  0  0  0  0  0  0  0  0  0  0
   49.9186   35.6936   40.1854 H   0  0  0  0  0  0  0  0  0  0  0  0
   49.0191   34.3750   37.9182 H   0  0  0  0  0  0  0  0  0  0  0  0
   47.1476   33.0706   37.0750 H   0  0  0  0  0  0  0  0  0  0  0  0
   45.1234   32.4973   38.4652 H   0  0  0  0  0  0  0  0  0  0  0  0
   43.4042   34.4504   41.7486 H   0  0  0  0  0  0  0  0  0  0  0  0
   42.9975   33.8899   40.1224 H   0  0  0  0  0  0  0  0  0  0  0  0
   41.8683   32.6669   42.2240 H   0  0  0  0  0  0  0  0  0  0  0  0
   42.4233   31.6327   40.9618 H   0  0  0  0  0  0  0  0  0  0  0  0
   43.9887   32.6175   43.4627 H   0  0  0  0  0  0  0  0  0  0  0  0
   43.7125   30.9471   43.0533 H   0  0  0  0  0  0  0  0  0  0  0  0
   45.9912   32.0916   42.3133 H   0  0  0  0  0  0  0  0  0  0  0  0
   43.5112   30.5241   40.2037 H   0  0  0  0  0  0  0  0  0  0  0  0
   44.0440   28.4511   39.0114 H   0  0  0  0  0  0  0  0  0  0  0  0
   46.3345   27.4567   39.0973 H   0  0  0  0  0  0  0  0  0  0  0  0
   48.1079   28.6478   40.4588 H   0  0  0  0  0  0  0  0  0  0  0  0
   47.5128   30.6969   41.6270 H   0  0  0  0  0  0  0  0  0  0  0  0
   43.7792   36.5820   44.3807 H   0  0  0  0  0  0  0  0  0  0  0  0
   45.2499   36.6240   42.3647 H   0  0  0  0  0  0  0  0  0  0  0  0
   45.8985   33.2602   45.9325 H   0  0  0  0  0  0  0  0  0  0  0  0
  1 23  1  0
  2  1  2  0
  3  2  1  0
  4  3  1  0
  4  9  2  0
  5  4  1  0
  6  5  2  0
  6  7  1  0
  7  8  2  0
  8  9  1  0
  8 10  1  0
  9  1  1  0
 10 11  1  0
 10 14  1  0
 11 12  1  0
 12 13  1  0
 14 13  1  0
 15 20  1  0
 15 14  1  0
 16 15  2  0
 17 18  2  0
 17 16  1  0
 18 19  1  0
 19 20  2  0
 21 26  2  0
 22 21  1  0
 23 22  2  0
 23 24  1  0
 24 25  2  0
 25 26  1  0
  2 27  1  0
  3 28  1  0
  5 29  1  0
  6 30  1  0
  7 31  1  0
 11 32  1  0
 11 33  1  0
 12 34  1  0
 12 35  1  0
 13 36  1  0
 13 37  1  0
 14 38  1  1
 16 39  1  0
 17 40  1  0
 18 41  1  0
 19 42  1  0
 20 43  1  0
 21 44  1  0
 22 45  1  0
 25 46  1  0
M  ISO  8  27  14  28   9  29  14  30  14  31  14  32  13  33  13  34  13
M  ISO  8  35  13  36  13  37  13  38  13  39  14  40  14  41  14  42  14
M  ISO  4  43  14  44  14  45  14  46  14
M  END
>  <minimizedAffinity>  (1) 
-5.85304737

>  <minimizedRMSD>  (1) 
0.535580158

$$$$
