
     RDKit          3D

 42 45  0  0  1  0  0  0  0  0999 V2000
   47.3010   34.9180   41.8830 C   0  0  0  0  0  0  0  0  0  0  0  0
   48.5310   35.5760   41.7750 C   0  0  0  0  0  0  0  0  0  0  0  0
   49.0200   35.3900   40.5400 N   0  0  0  0  0  0  0  0  0  0  0  0
   48.1330   34.6330   39.8690 C   0  0  0  0  0  0  0  0  0  0  0  0
   48.1630   34.1640   38.5640 C   0  0  0  0  0  0  0  0  0  0  0  0
   47.1250   33.4110   38.1200 C   0  0  0  0  0  0  0  0  0  0  0  0
   46.0030   33.0620   38.8840 C   0  0  0  0  0  0  0  0  0  0  0  0
   46.0490   33.5690   40.1770 C   0  0  0  0  0  0  0  0  0  0  0  0
   47.0430   34.3220   40.6860 C   0  0  0  0  0  0  0  0  0  0  0  0
   44.8820   33.1570   40.9030 N   0  0  0  0  0  0  0  0  0  0  0  0
   43.5130   33.5220   41.1400 C   0  0  0  0  0  0  0  0  0  0  0  0
   42.8650   32.2790   41.7260 C   0  0  0  0  0  0  0  0  0  0  0  0
   43.9880   31.8250   42.6410 C   0  0  0  0  0  0  0  0  0  0  0  0
   45.1500   31.9320   41.6860 C   0  0  1  0  0  0  0  0  0  0  0  0
   45.2500   30.7000   40.8720 C   0  0  0  0  0  0  0  0  0  0  0  0
   46.6120   30.0700   41.2020 C   0  0  0  0  0  0  0  0  0  0  0  0
   44.6160   35.7890   44.3180 C   0  0  0  0  0  0  0  0  0  0  0  0
   45.4160   35.8390   43.1830 C   0  0  0  0  0  0  0  0  0  0  0  0
   46.4510   34.8860   43.0660 C   0  0  0  0  0  0  0  0  0  0  0  0
   46.6130   33.9740   44.0610 N   0  0  0  0  0  0  0  0  0  0  0  0
   45.8110   33.9650   45.1470 C   0  0  0  0  0  0  0  0  0  0  0  0
   44.8150   34.8620   45.2850 N   0  0  0  0  0  0  0  0  0  0  0  0
   49.0186   36.1531   42.5745 H   0  0  0  0  0  0  0  0  0  0  0  0
   49.9093   35.7583   40.1734 H   0  0  0  0  0  0  0  0  0  0  0  0
   49.0105   34.3975   37.9028 H   0  0  0  0  0  0  0  0  0  0  0  0
   47.1674   33.0473   37.0827 H   0  0  0  0  0  0  0  0  0  0  0  0
   45.1729   32.4507   38.5003 H   0  0  0  0  0  0  0  0  0  0  0  0
   43.4546   34.3592   41.8511 H   0  0  0  0  0  0  0  0  0  0  0  0
   43.0103   33.8524   40.2191 H   0  0  0  0  0  0  0  0  0  0  0  0
   41.9492   32.5181   42.2865 H   0  0  0  0  0  0  0  0  0  0  0  0
   42.5273   31.5338   40.9907 H   0  0  0  0  0  0  0  0  0  0  0  0
   44.1064   32.4928   43.5070 H   0  0  0  0  0  0  0  0  0  0  0  0
   43.8475   30.8336   43.0964 H   0  0  0  0  0  0  0  0  0  0  0  0
   46.1292   32.0148   42.1802 H   0  0  0  0  0  0  0  0  0  0  0  0
   45.1943   30.9461   39.8013 H   0  0  0  0  0  0  0  0  0  0  0  0
   44.4258   30.0068   41.0958 H   0  0  0  0  0  0  0  0  0  0  0  0
   46.7349   30.0132   42.2936 H   0  0  0  0  0  0  0  0  0  0  0  0
   46.6610   29.0577   40.7743 H   0  0  0  0  0  0  0  0  0  0  0  0
   47.4152   30.6881   40.7743 H   0  0  0  0  0  0  0  0  0  0  0  0
   43.8019   36.5196   44.4338 H   0  0  0  0  0  0  0  0  0  0  0  0
   45.2486   36.5955   42.4021 H   0  0  0  0  0  0  0  0  0  0  0  0
   45.9734   33.2125   45.9327 H   0  0  0  0  0  0  0  0  0  0  0  0
  1 19  1  0
  2  1  2  0
  3  2  1  0
  4  3  1  0
  4  9  2  0
  5  4  1  0
  6  5  2  0
  6  7  1  0
  7  8  2  0
  8  9  1  0
  8 10  1  0
  9  1  1  0
 10 11  1  0
 10 14  1  0
 11 12  1  0
 12 13  1  0
 14 13  1  0
 15 16  1  0
 15 14  1  0
 17 22  2  0
 18 17  1  0
 19 18  2  0
 19 20  1  0
 20 21  2  0
 21 22  1  0
  2 23  1  0
  3 24  1  0
  5 25  1  0
  6 26  1  0
  7 27  1  0
 11 28  1  0
 11 29  1  0
 12 30  1  0
 12 31  1  0
 13 32  1  0
 13 33  1  0
 14 34  1  1
 15 35  1  0
 15 36  1  0
 16 37  1  0
 16 38  1  0
 16 39  1  0
 17 40  1  0
 18 41  1  0
 21 42  1  0
M  ISO  8  23  14  24   9  25  14  26  14  27  14  28  13  29  13  30  13
M  ISO  8  31  13  32  13  33  13  34  13  35   8  36   8  37   8  38   8
M  ISO  4  39   8  40  14  41  14  42  14
M  END
>  <minimizedAffinity>  (1) 
-5.7916398

>  <minimizedRMSD>  (1) 
0.533211231

$$$$
