
     RDKit          3D

 50 54  0  0  1  0  0  0  0  0999 V2000
   47.2850   34.9240   41.9070 C   0  0  0  0  0  0  0  0  0  0  0  0
   48.5070   35.5850   41.8060 C   0  0  0  0  0  0  0  0  0  0  0  0
   48.9980   35.3930   40.5760 N   0  0  0  0  0  0  0  0  0  0  0  0
   48.1210   34.6310   39.8990 C   0  0  0  0  0  0  0  0  0  0  0  0
   48.1630   34.1600   38.6080 C   0  0  0  0  0  0  0  0  0  0  0  0
   47.1290   33.3970   38.1610 C   0  0  0  0  0  0  0  0  0  0  0  0
   46.0180   33.0540   38.9260 C   0  0  0  0  0  0  0  0  0  0  0  0
   46.0470   33.5660   40.2150 C   0  0  0  0  0  0  0  0  0  0  0  0
   47.0330   34.3210   40.7110 C   0  0  0  0  0  0  0  0  0  0  0  0
   44.5750   35.7980   44.3220 C   0  0  0  0  0  0  0  0  0  0  0  0
   45.3810   35.8370   43.1880 C   0  0  0  0  0  0  0  0  0  0  0  0
   46.4410   34.8980   43.0800 C   0  0  0  0  0  0  0  0  0  0  0  0
   46.5710   34.0340   44.1150 N   0  0  0  0  0  0  0  0  0  0  0  0
   45.7920   34.0090   45.1920 C   0  0  0  0  0  0  0  0  0  0  0  0
   44.7920   34.8890   45.3020 N   0  0  0  0  0  0  0  0  0  0  0  0
   46.0050   33.0610   46.2300 N   0  0  0  0  0  0  0  0  0  0  0  0
   45.2370   32.9240   47.4520 C   0  0  0  0  0  0  0  0  0  0  0  0
   46.1340   32.3340   48.4840 C   0  0  0  0  0  0  0  0  0  0  0  0
   47.3510   31.8580   47.7620 C   0  0  0  0  0  0  0  0  0  0  0  0
   47.0200   32.0290   46.3150 C   0  0  0  0  0  0  0  0  0  0  0  0
   44.8640   33.1550   40.9380 N   0  0  0  0  0  0  0  0  0  0  0  0
   43.4960   33.5430   41.1380 C   0  0  0  0  0  0  0  0  0  0  0  0
   42.8240   32.3260   41.7230 C   0  0  0  0  0  0  0  0  0  0  0  0
   43.9350   31.8630   42.6630 C   0  0  0  0  0  0  0  0  0  0  0  0
   45.1200   31.9450   41.7380 C   0  0  1  0  0  0  0  0  0  0  0  0
   45.2670   30.7360   40.9320 C   0  0  0  0  0  0  0  0  0  0  0  0
   44.4480   30.2060   40.1760 O   0  0  0  0  0  0  0  0  0  0  0  0
   48.9885   36.1681   42.6048 H   0  0  0  0  0  0  0  0  0  0  0  0
   49.8882   35.7627   40.2129 H   0  0  0  0  0  0  0  0  0  0  0  0
   49.0136   34.3948   37.9512 H   0  0  0  0  0  0  0  0  0  0  0  0
   47.1741   33.0266   37.1262 H   0  0  0  0  0  0  0  0  0  0  0  0
   45.1934   32.4343   38.5439 H   0  0  0  0  0  0  0  0  0  0  0  0
   43.7487   36.5169   44.4238 H   0  0  0  0  0  0  0  0  0  0  0  0
   45.2013   36.5773   42.3945 H   0  0  0  0  0  0  0  0  0  0  0  0
   44.8812   33.9105   47.7840 H   0  0  0  0  0  0  0  0  0  0  0  0
   44.3610   32.2793   47.2874 H   0  0  0  0  0  0  0  0  0  0  0  0
   46.4074   33.0945   49.2302 H   0  0  0  0  0  0  0  0  0  0  0  0
   45.6392   31.5096   49.0183 H   0  0  0  0  0  0  0  0  0  0  0  0
   48.2269   32.4651   48.0346 H   0  0  0  0  0  0  0  0  0  0  0  0
   47.6050   30.8174   48.0123 H   0  0  0  0  0  0  0  0  0  0  0  0
   46.6344   31.0853   45.9019 H   0  0  0  0  0  0  0  0  0  0  0  0
   47.9140   32.3101   45.7390 H   0  0  0  0  0  0  0  0  0  0  0  0
   43.4332   34.3915   41.8353 H   0  0  0  0  0  0  0  0  0  0  0  0
   43.0185   33.8674   40.2017 H   0  0  0  0  0  0  0  0  0  0  0  0
   41.9047   32.5855   42.2684 H   0  0  0  0  0  0  0  0  0  0  0  0
   42.4831   31.5784   40.9917 H   0  0  0  0  0  0  0  0  0  0  0  0
   44.0449   32.5360   43.5261 H   0  0  0  0  0  0  0  0  0  0  0  0
   43.7723   30.8744   43.1171 H   0  0  0  0  0  0  0  0  0  0  0  0
   46.0785   32.0128   42.2735 H   0  0  0  0  0  0  0  0  0  0  0  0
   46.2400   30.2288   41.0092 H   0  0  0  0  0  0  0  0  0  0  0  0
  1 12  1  0
  2  1  2  0
  3  2  1  0
  4  3  1  0
  4  9  2  0
  5  4  1  0
  6  5  2  0
  6  7  1  0
  7  8  2  0
  8  9  1  0
  8 21  1  0
  9  1  1  0
 10 15  2  0
 11 10  1  0
 12 11  2  0
 12 13  1  0
 13 14  2  0
 14 15  1  0
 14 16  1  0
 16 20  1  0
 16 17  1  0
 17 18  1  0
 19 18  1  0
 20 19  1  0
 21 22  1  0
 21 25  1  0
 22 23  1  0
 23 24  1  0
 25 24  1  0
 26 25  1  0
 27 26  2  0
  2 28  1  0
  3 29  1  0
  5 30  1  0
  6 31  1  0
  7 32  1  0
 10 33  1  0
 11 34  1  0
 17 35  1  0
 17 36  1  0
 18 37  1  0
 18 38  1  0
 19 39  1  0
 19 40  1  0
 20 41  1  0
 20 42  1  0
 22 43  1  0
 22 44  1  0
 23 45  1  0
 23 46  1  0
 24 47  1  0
 24 48  1  0
 25 49  1  1
 26 50  1  0
M  ISO  8  28  14  29   9  30  14  31  14  32  14  33  14  34  14  35  13
M  ISO  8  36  13  37  13  38  13  39  13  40  13  41  13  42  13  43  13
M  ISO  7  44  13  45  13  46  13  47  13  48  13  49  13  50   6
M  END
>  <minimizedAffinity>  (1) 
-7.24205446

>  <minimizedRMSD>  (1) 
0.0722051412

$$$$
