
     RDKit          3D

 45 49  0  0  1  0  0  0  0  0999 V2000
   47.3550   34.8860   41.8630 C   0  0  0  0  0  0  0  0  0  0  0  0
   48.5540   35.5730   41.7200 C   0  0  0  0  0  0  0  0  0  0  0  0
   49.0100   35.4160   40.4690 N   0  0  0  0  0  0  0  0  0  0  0  0
   48.1220   34.6400   39.8140 C   0  0  0  0  0  0  0  0  0  0  0  0
   48.1270   34.1920   38.5150 C   0  0  0  0  0  0  0  0  0  0  0  0
   47.0980   33.4120   38.0920 C   0  0  0  0  0  0  0  0  0  0  0  0
   46.0270   33.0310   38.8920 C   0  0  0  0  0  0  0  0  0  0  0  0
   46.0920   33.5190   40.1790 C   0  0  0  0  0  0  0  0  0  0  0  0
   47.0700   34.2910   40.6640 C   0  0  0  0  0  0  0  0  0  0  0  0
   44.9480   33.0670   40.9410 N   0  0  0  0  0  0  0  0  0  0  0  0
   43.5650   33.3870   41.1690 C   0  0  0  0  0  0  0  0  0  0  0  0
   42.9700   32.1500   41.7980 C   0  0  0  0  0  0  0  0  0  0  0  0
   44.1170   31.7710   42.7130 C   0  0  0  0  0  0  0  0  0  0  0  0
   45.2800   31.8900   41.7650 C   0  0  1  0  0  0  0  0  0  0  0  0
   45.4750   30.6710   40.9830 C   0  0  0  0  0  0  0  0  0  0  0  0
   44.6910   30.1130   40.2130 O   0  0  0  0  0  0  0  0  0  0  0  0
   44.6790   35.6030   44.3570 C   0  0  0  0  0  0  0  0  0  0  0  0
   45.4410   35.6840   43.1940 C   0  0  0  0  0  0  0  0  0  0  0  0
   46.5570   34.8180   43.0530 C   0  0  0  0  0  0  0  0  0  0  0  0
   46.7710   33.9800   44.0920 N   0  0  0  0  0  0  0  0  0  0  0  0
   46.0410   33.9040   45.2040 C   0  0  0  0  0  0  0  0  0  0  0  0
   44.9900   34.7210   45.3330 N   0  0  0  0  0  0  0  0  0  0  0  0
   46.3910   32.9440   46.2510 C   0  0  0  0  0  0  0  0  0  0  0  0
   45.9960   31.6230   46.3230 C   0  0  0  0  0  0  0  0  0  0  0  0
   46.5320   31.0910   47.4370 N   0  0  0  0  0  0  0  0  0  0  0  0
   47.2320   32.0770   48.0180 C   0  0  0  0  0  0  0  0  0  0  0  0
   47.1650   33.2230   47.3160 N   0  0  0  0  0  0  0  0  0  0  0  0
   49.0516   36.1549   42.5098 H   0  0  0  0  0  0  0  0  0  0  0  0
   49.8770   35.8138   40.0804 H   0  0  0  0  0  0  0  0  0  0  0  0
   48.9468   34.4592   37.8320 H   0  0  0  0  0  0  0  0  0  0  0  0
   47.1135   33.0596   37.0501 H   0  0  0  0  0  0  0  0  0  0  0  0
   45.2031   32.3980   38.5308 H   0  0  0  0  0  0  0  0  0  0  0  0
   43.4752   34.2467   41.8493 H   0  0  0  0  0  0  0  0  0  0  0  0
   43.0485   33.6634   40.2380 H   0  0  0  0  0  0  0  0  0  0  0  0
   42.0515   32.3747   42.3600 H   0  0  0  0  0  0  0  0  0  0  0  0
   42.6508   31.3686   41.0926 H   0  0  0  0  0  0  0  0  0  0  0  0
   44.2095   32.4693   43.5579 H   0  0  0  0  0  0  0  0  0  0  0  0
   44.0148   30.7848   43.1893 H   0  0  0  0  0  0  0  0  0  0  0  0
   46.2426   32.0181   42.2818 H   0  0  0  0  0  0  0  0  0  0  0  0
   46.4553   30.1852   41.0972 H   0  0  0  0  0  0  0  0  0  0  0  0
   43.8110   36.2668   44.4832 H   0  0  0  0  0  0  0  0  0  0  0  0
   45.1838   36.4030   42.4023 H   0  0  0  0  0  0  0  0  0  0  0  0
   45.3564   31.0982   45.5981 H   0  0  0  0  0  0  0  0  0  0  0  0
   47.7939   31.9623   48.9567 H   0  0  0  0  0  0  0  0  0  0  0  0
   47.6113   34.1226   47.5451 H   0  0  0  0  0  0  0  0  0  0  0  0
  1 19  1  0
  2  1  2  0
  3  2  1  0
  4  3  1  0
  4  9  2  0
  5  4  1  0
  6  5  2  0
  6  7  1  0
  7  8  2  0
  8  9  1  0
  8 10  1  0
  9  1  1  0
 10 11  1  0
 10 14  1  0
 11 12  1  0
 12 13  1  0
 14 13  1  0
 15 14  1  0
 16 15  2  0
 17 22  2  0
 18 17  1  0
 19 18  2  0
 19 20  1  0
 20 21  2  0
 21 22  1  0
 21 23  1  0
 23 24  2  0
 23 27  1  0
 24 25  1  0
 25 26  2  0
 27 26  1  0
  2 28  1  0
  3 29  1  0
  5 30  1  0
  6 31  1  0
  7 32  1  0
 11 33  1  0
 11 34  1  0
 12 35  1  0
 12 36  1  0
 13 37  1  0
 13 38  1  0
 14 39  1  1
 15 40  1  0
 17 41  1  0
 18 42  1  0
 24 43  1  0
 26 44  1  0
 27 45  1  0
M  ISO  8  28  14  29   9  30  14  31  14  32  14  33  13  34  13  35  13
M  ISO  8  36  13  37  13  38  13  39  13  40   6  41  14  42  14  43  14
M  ISO  2  44  14  45   9
M  END
>  <minimizedAffinity>  (1) 
-7.11309671

>  <minimizedRMSD>  (1) 
0.221587509

$$$$
