
     RDKit          3D

 45 49  0  0  1  0  0  0  0  0999 V2000
   47.2710   34.9390   41.8940 C   0  0  0  0  0  0  0  0  0  0  0  0
   48.5030   35.5810   41.7960 C   0  0  0  0  0  0  0  0  0  0  0  0
   49.0060   35.3760   40.5670 N   0  0  0  0  0  0  0  0  0  0  0  0
   48.1220   34.6210   39.8870 C   0  0  0  0  0  0  0  0  0  0  0  0
   48.1730   34.1460   38.6000 C   0  0  0  0  0  0  0  0  0  0  0  0
   47.1330   33.3950   38.1470 C   0  0  0  0  0  0  0  0  0  0  0  0
   46.0110   33.0710   38.9020 C   0  0  0  0  0  0  0  0  0  0  0  0
   46.0350   33.5840   40.1800 C   0  0  0  0  0  0  0  0  0  0  0  0
   47.0240   34.3310   40.6940 C   0  0  0  0  0  0  0  0  0  0  0  0
   44.5780   35.8720   44.3010 C   0  0  0  0  0  0  0  0  0  0  0  0
   45.3960   35.9020   43.1710 C   0  0  0  0  0  0  0  0  0  0  0  0
   46.4190   34.9250   43.0470 C   0  0  0  0  0  0  0  0  0  0  0  0
   46.4980   34.0400   44.0680 N   0  0  0  0  0  0  0  0  0  0  0  0
   45.7120   34.0210   45.1400 C   0  0  0  0  0  0  0  0  0  0  0  0
   44.7460   34.9410   45.2600 N   0  0  0  0  0  0  0  0  0  0  0  0
   46.0490   32.9650   46.0330 N   0  0  0  0  0  0  0  0  0  0  0  0
   45.7570   32.5780   47.2890 C   0  0  0  0  0  0  0  0  0  0  0  0
   46.4500   31.4100   47.5600 C   0  0  0  0  0  0  0  0  0  0  0  0
   47.1750   31.0770   46.4630 N   0  0  0  0  0  0  0  0  0  0  0  0
   46.9180   32.0360   45.5410 C   0  0  0  0  0  0  0  0  0  0  0  0
   44.8430   33.1940   40.8980 N   0  0  0  0  0  0  0  0  0  0  0  0
   43.4800   33.6130   41.1010 C   0  0  0  0  0  0  0  0  0  0  0  0
   42.7770   32.4080   41.6580 C   0  0  0  0  0  0  0  0  0  0  0  0
   43.8700   31.9090   42.6020 C   0  0  0  0  0  0  0  0  0  0  0  0
   45.0660   31.9750   41.6860 C   0  0  1  0  0  0  0  0  0  0  0  0
   45.1890   30.7640   40.8740 C   0  0  0  0  0  0  0  0  0  0  0  0
   44.3530   30.2460   40.1300 O   0  0  0  0  0  0  0  0  0  0  0  0
   48.9862   36.1619   42.5954 H   0  0  0  0  0  0  0  0  0  0  0  0
   49.9043   35.7316   40.2099 H   0  0  0  0  0  0  0  0  0  0  0  0
   49.0333   34.3671   37.9512 H   0  0  0  0  0  0  0  0  0  0  0  0
   47.1829   33.0189   37.1145 H   0  0  0  0  0  0  0  0  0  0  0  0
   45.1813   32.4615   38.5145 H   0  0  0  0  0  0  0  0  0  0  0  0
   43.7812   36.6224   44.4108 H   0  0  0  0  0  0  0  0  0  0  0  0
   45.2515   36.6660   42.3930 H   0  0  0  0  0  0  0  0  0  0  0  0
   45.0822   33.1010   47.9826 H   0  0  0  0  0  0  0  0  0  0  0  0
   46.4179   30.8476   48.5048 H   0  0  0  0  0  0  0  0  0  0  0  0
   47.3522   32.0619   44.5307 H   0  0  0  0  0  0  0  0  0  0  0  0
   43.4356   34.4495   41.8140 H   0  0  0  0  0  0  0  0  0  0  0  0
   43.0150   33.9662   40.1688 H   0  0  0  0  0  0  0  0  0  0  0  0
   41.8579   32.6796   42.1980 H   0  0  0  0  0  0  0  0  0  0  0  0
   42.4259   31.6787   40.9131 H   0  0  0  0  0  0  0  0  0  0  0  0
   43.9878   32.5694   43.4738 H   0  0  0  0  0  0  0  0  0  0  0  0
   43.6814   30.9192   43.0433 H   0  0  0  0  0  0  0  0  0  0  0  0
   46.0240   32.0210   42.2246 H   0  0  0  0  0  0  0  0  0  0  0  0
   46.1574   30.2460   40.9355 H   0  0  0  0  0  0  0  0  0  0  0  0
  1 12  1  0
  2  1  2  0
  3  2  1  0
  4  3  1  0
  4  9  2  0
  5  4  1  0
  6  5  2  0
  6  7  1  0
  7  8  2  0
  8  9  1  0
  8 21  1  0
  9  1  1  0
 10 15  2  0
 11 10  1  0
 12 11  2  0
 12 13  1  0
 13 14  2  0
 14 15  1  0
 14 16  1  0
 16 17  1  0
 17 18  2  0
 19 18  1  0
 20 16  1  0
 20 19  2  0
 21 22  1  0
 21 25  1  0
 22 23  1  0
 23 24  1  0
 25 24  1  0
 26 25  1  0
 27 26  2  0
  2 28  1  0
  3 29  1  0
  5 30  1  0
  6 31  1  0
  7 32  1  0
 10 33  1  0
 11 34  1  0
 17 35  1  0
 18 36  1  0
 20 37  1  0
 22 38  1  0
 22 39  1  0
 23 40  1  0
 23 41  1  0
 24 42  1  0
 24 43  1  0
 25 44  1  1
 26 45  1  0
M  ISO  8  28  14  29   9  30  14  31  14  32  14  33  14  34  14  35  14
M  ISO  8  36  14  37  14  38  13  39  13  40  13  41  13  42  13  43  13
M  ISO  2  44  13  45   6
M  END
>  <minimizedAffinity>  (1) 
-6.95788097

>  <minimizedRMSD>  (1) 
0.123152278

$$$$
