
     RDKit          3D

 45 49  0  0  1  0  0  0  0  0999 V2000
   47.2780   34.9440   41.8880 C   0  0  0  0  0  0  0  0  0  0  0  0
   48.5080   35.5860   41.7910 C   0  0  0  0  0  0  0  0  0  0  0  0
   49.0090   35.3760   40.5690 N   0  0  0  0  0  0  0  0  0  0  0  0
   48.1250   34.6180   39.8920 C   0  0  0  0  0  0  0  0  0  0  0  0
   48.1780   34.1380   38.6050 C   0  0  0  0  0  0  0  0  0  0  0  0
   47.1380   33.3820   38.1500 C   0  0  0  0  0  0  0  0  0  0  0  0
   46.0140   33.0620   38.9120 C   0  0  0  0  0  0  0  0  0  0  0  0
   46.0380   33.5830   40.1930 C   0  0  0  0  0  0  0  0  0  0  0  0
   47.0280   34.3290   40.6930 C   0  0  0  0  0  0  0  0  0  0  0  0
   44.8440   33.1940   40.9090 N   0  0  0  0  0  0  0  0  0  0  0  0
   43.4770   33.5910   41.0950 C   0  0  0  0  0  0  0  0  0  0  0  0
   42.7870   32.3920   41.6900 C   0  0  0  0  0  0  0  0  0  0  0  0
   43.8820   31.9330   42.6350 C   0  0  0  0  0  0  0  0  0  0  0  0
   45.0790   31.9920   41.7290 C   0  0  1  0  0  0  0  0  0  0  0  0
   45.2320   30.7710   40.9340 C   0  0  0  0  0  0  0  0  0  0  0  0
   44.4090   30.2240   40.1960 O   0  0  0  0  0  0  0  0  0  0  0  0
   44.5400   35.8700   44.2530 C   0  0  0  0  0  0  0  0  0  0  0  0
   45.3640   35.8820   43.1310 C   0  0  0  0  0  0  0  0  0  0  0  0
   46.4200   34.9370   43.0510 C   0  0  0  0  0  0  0  0  0  0  0  0
   46.5330   34.0870   44.1010 N   0  0  0  0  0  0  0  0  0  0  0  0
   45.7400   34.0830   45.1690 C   0  0  0  0  0  0  0  0  0  0  0  0
   44.7440   34.9710   45.2500 N   0  0  0  0  0  0  0  0  0  0  0  0
   45.9070   33.1420   46.2720 C   0  0  0  0  0  0  0  0  0  0  0  0
   46.9390   32.2140   46.2130 C   0  0  0  0  0  0  0  0  0  0  0  0
   46.8550   31.4630   47.3810 C   0  0  0  0  0  0  0  0  0  0  0  0
   45.8140   31.9350   48.0970 N   0  0  0  0  0  0  0  0  0  0  0  0
   45.2380   32.9490   47.4310 N   0  0  0  0  0  0  0  0  0  0  0  0
   48.9897   36.1706   42.5886 H   0  0  0  0  0  0  0  0  0  0  0  0
   49.9076   35.7296   40.2106 H   0  0  0  0  0  0  0  0  0  0  0  0
   49.0392   34.3585   37.9571 H   0  0  0  0  0  0  0  0  0  0  0  0
   47.1885   33.0013   37.1192 H   0  0  0  0  0  0  0  0  0  0  0  0
   45.1838   32.4506   38.5287 H   0  0  0  0  0  0  0  0  0  0  0  0
   43.4158   34.4491   41.7804 H   0  0  0  0  0  0  0  0  0  0  0  0
   43.0103   33.9025   40.1489 H   0  0  0  0  0  0  0  0  0  0  0  0
   41.8680   32.6693   42.2272 H   0  0  0  0  0  0  0  0  0  0  0  0
   42.4394   31.6391   40.9673 H   0  0  0  0  0  0  0  0  0  0  0  0
   43.9890   32.6143   43.4920 H   0  0  0  0  0  0  0  0  0  0  0  0
   43.7054   30.9484   43.0926 H   0  0  0  0  0  0  0  0  0  0  0  0
   46.0280   32.0557   42.2816 H   0  0  0  0  0  0  0  0  0  0  0  0
   46.2118   30.2759   41.0047 H   0  0  0  0  0  0  0  0  0  0  0  0
   43.7166   36.5950   44.3326 H   0  0  0  0  0  0  0  0  0  0  0  0
   45.1999   36.6095   42.3224 H   0  0  0  0  0  0  0  0  0  0  0  0
   47.6754   32.0965   45.4044 H   0  0  0  0  0  0  0  0  0  0  0  0
   47.5180   30.6338   47.6687 H   0  0  0  0  0  0  0  0  0  0  0  0
   45.5084   31.5740   49.0120 H   0  0  0  0  0  0  0  0  0  0  0  0
  1 19  1  0
  2  1  2  0
  3  2  1  0
  4  3  1  0
  4  9  2  0
  5  4  1  0
  6  5  2  0
  6  7  1  0
  7  8  2  0
  8  9  1  0
  8 10  1  0
  9  1  1  0
 10 11  1  0
 10 14  1  0
 11 12  1  0
 12 13  1  0
 14 13  1  0
 15 14  1  0
 16 15  2  0
 17 22  2  0
 18 17  1  0
 19 18  2  0
 19 20  1  0
 20 21  2  0
 21 22  1  0
 21 23  1  0
 23 27  2  0
 24 23  1  0
 24 25  2  0
 25 26  1  0
 27 26  1  0
  2 28  1  0
  3 29  1  0
  5 30  1  0
  6 31  1  0
  7 32  1  0
 11 33  1  0
 11 34  1  0
 12 35  1  0
 12 36  1  0
 13 37  1  0
 13 38  1  0
 14 39  1  1
 15 40  1  0
 17 41  1  0
 18 42  1  0
 24 43  1  0
 25 44  1  0
 26 45  1  0
M  ISO  8  28  14  29   9  30  14  31  14  32  14  33  13  34  13  35  13
M  ISO  8  36  13  37  13  38  13  39  13  40   6  41  14  42  14  43  14
M  ISO  2  44  14  45   9
M  END
>  <minimizedAffinity>  (1) 
-6.77333164

>  <minimizedRMSD>  (1) 
0.291376054

$$$$
