
     RDKit          3D

 39 42  0  0  1  0  0  0  0  0999 V2000
   47.3180   34.9180   41.8730 C   0  0  0  0  0  0  0  0  0  0  0  0
   48.5350   35.5820   41.7600 C   0  0  0  0  0  0  0  0  0  0  0  0
   49.0190   35.4030   40.5240 N   0  0  0  0  0  0  0  0  0  0  0  0
   48.1390   34.6410   39.8540 C   0  0  0  0  0  0  0  0  0  0  0  0
   48.1720   34.1780   38.5560 C   0  0  0  0  0  0  0  0  0  0  0  0
   47.1370   33.4110   38.1040 C   0  0  0  0  0  0  0  0  0  0  0  0
   46.0390   33.0620   38.8800 C   0  0  0  0  0  0  0  0  0  0  0  0
   46.0740   33.5610   40.1670 C   0  0  0  0  0  0  0  0  0  0  0  0
   47.0600   34.3190   40.6670 C   0  0  0  0  0  0  0  0  0  0  0  0
   44.9010   33.1430   40.9000 N   0  0  0  0  0  0  0  0  0  0  0  0
   43.5260   33.5230   41.1040 C   0  0  0  0  0  0  0  0  0  0  0  0
   42.8670   32.3040   41.6900 C   0  0  0  0  0  0  0  0  0  0  0  0
   43.9820   31.8500   42.6290 C   0  0  0  0  0  0  0  0  0  0  0  0
   45.1670   31.9450   41.7030 C   0  0  1  0  0  0  0  0  0  0  0  0
   45.3180   30.7270   40.9000 C   0  0  0  0  0  0  0  0  0  0  0  0
   44.5050   30.1930   40.1390 O   0  0  0  0  0  0  0  0  0  0  0  0
   44.6260   35.7590   44.3080 C   0  0  0  0  0  0  0  0  0  0  0  0
   45.4220   35.8100   43.1750 C   0  0  0  0  0  0  0  0  0  0  0  0
   46.4850   34.8780   43.0450 C   0  0  0  0  0  0  0  0  0  0  0  0
   46.6200   34.0040   44.0720 N   0  0  0  0  0  0  0  0  0  0  0  0
   45.8530   33.9600   45.1580 C   0  0  0  0  0  0  0  0  0  0  0  0
   44.8490   34.8420   45.2790 N   0  0  0  0  0  0  0  0  0  0  0  0
   46.1140   32.7650   46.4620 S   0  0  0  0  0  0  0  0  0  0  0  0
   49.0221   36.1615   42.5581 H   0  0  0  0  0  0  0  0  0  0  0  0
   49.9035   35.7804   40.1551 H   0  0  0  0  0  0  0  0  0  0  0  0
   49.0174   34.4223   37.8960 H   0  0  0  0  0  0  0  0  0  0  0  0
   47.1747   33.0487   37.0661 H   0  0  0  0  0  0  0  0  0  0  0  0
   45.2130   32.4417   38.5019 H   0  0  0  0  0  0  0  0  0  0  0  0
   43.4588   34.3714   41.8010 H   0  0  0  0  0  0  0  0  0  0  0  0
   43.0434   33.8440   40.1691 H   0  0  0  0  0  0  0  0  0  0  0  0
   41.9463   32.5566   42.2364 H   0  0  0  0  0  0  0  0  0  0  0  0
   42.5319   31.5530   40.9595 H   0  0  0  0  0  0  0  0  0  0  0  0
   44.0856   32.5225   43.4933 H   0  0  0  0  0  0  0  0  0  0  0  0
   43.8288   30.8592   43.0815 H   0  0  0  0  0  0  0  0  0  0  0  0
   46.1257   32.0299   42.2357 H   0  0  0  0  0  0  0  0  0  0  0  0
   46.2897   30.2189   40.9877 H   0  0  0  0  0  0  0  0  0  0  0  0
   43.7990   36.4755   44.4205 H   0  0  0  0  0  0  0  0  0  0  0  0
   45.2339   36.5584   42.3911 H   0  0  0  0  0  0  0  0  0  0  0  0
   45.9796   33.3801   47.6787 H   0  0  0  0  0  0  0  0  0  0  0  0
  1 19  1  0
  2  1  2  0
  3  2  1  0
  4  3  1  0
  4  9  2  0
  5  4  1  0
  6  5  2  0
  6  7  1  0
  7  8  2  0
  8  9  1  0
  8 10  1  0
  9  1  1  0
 10 11  1  0
 10 14  1  0
 11 12  1  0
 12 13  1  0
 14 13  1  0
 15 14  1  0
 16 15  2  0
 17 22  2  0
 18 17  1  0
 19 18  2  0
 19 20  1  0
 20 21  2  0
 21 22  1  0
 21 23  1  0
  2 24  1  0
  3 25  1  0
  5 26  1  0
  6 27  1  0
  7 28  1  0
 11 29  1  0
 11 30  1  0
 12 31  1  0
 12 32  1  0
 13 33  1  0
 13 34  1  0
 14 35  1  1
 15 36  1  0
 17 37  1  0
 18 38  1  0
 23 39  1  0
M  ISO  8  24  14  25   9  26  14  27  14  28  14  29  13  30  13  31  13
M  ISO  8  32  13  33  13  34  13  35  13  36   6  37  14  38  14  39  11
M  END
>  <minimizedAffinity>  (1) 
-6.10349369

>  <minimizedRMSD>  (1) 
0.0208762623

$$$$
