
     RDKit          3D

 45 49  0  0  1  0  0  0  0  0999 V2000
   47.2900   34.9060   41.8950 C   0  0  0  0  0  0  0  0  0  0  0  0
   48.5250   35.5450   41.7970 C   0  0  0  0  0  0  0  0  0  0  0  0
   49.0140   35.3560   40.5630 N   0  0  0  0  0  0  0  0  0  0  0  0
   48.1230   34.6140   39.8800 C   0  0  0  0  0  0  0  0  0  0  0  0
   48.1580   34.1560   38.5830 C   0  0  0  0  0  0  0  0  0  0  0  0
   47.1150   33.4160   38.1250 C   0  0  0  0  0  0  0  0  0  0  0  0
   45.9990   33.0860   38.8850 C   0  0  0  0  0  0  0  0  0  0  0  0
   46.0350   33.5790   40.1690 C   0  0  0  0  0  0  0  0  0  0  0  0
   47.0310   34.3170   40.6890 C   0  0  0  0  0  0  0  0  0  0  0  0
   44.8470   33.1820   40.8930 N   0  0  0  0  0  0  0  0  0  0  0  0
   43.4940   33.6130   41.1380 C   0  0  0  0  0  0  0  0  0  0  0  0
   42.7820   32.3960   41.6640 C   0  0  0  0  0  0  0  0  0  0  0  0
   43.8830   31.8390   42.5640 C   0  0  0  0  0  0  0  0  0  0  0  0
   45.0610   31.9240   41.6290 C   0  0  1  0  0  0  0  0  0  0  0  0
   45.1490   30.7490   40.7630 C   0  0  0  0  0  0  0  0  0  0  0  0
   44.2790   30.2530   40.0430 O   0  0  0  0  0  0  0  0  0  0  0  0
   44.6610   35.8640   44.3630 C   0  0  0  0  0  0  0  0  0  0  0  0
   45.4750   35.9020   43.2330 C   0  0  0  0  0  0  0  0  0  0  0  0
   46.4440   34.8790   43.0580 C   0  0  0  0  0  0  0  0  0  0  0  0
   46.4880   33.9400   44.0300 N   0  0  0  0  0  0  0  0  0  0  0  0
   45.7060   33.9120   45.1070 C   0  0  0  0  0  0  0  0  0  0  0  0
   44.7860   34.8830   45.2720 N   0  0  0  0  0  0  0  0  0  0  0  0
   45.8260   32.8300   46.1320 C   0  0  0  0  0  0  0  0  0  0  0  0
   47.0230   32.7260   46.9880 C   0  0  0  0  0  0  0  0  0  0  0  0
   46.8860   31.8020   45.7880 C   0  0  0  0  0  0  0  0  0  0  0  0
   49.0178   36.1117   42.6007 H   0  0  0  0  0  0  0  0  0  0  0  0
   49.9100   35.7141   40.2027 H   0  0  0  0  0  0  0  0  0  0  0  0
   49.0133   34.3845   37.9302 H   0  0  0  0  0  0  0  0  0  0  0  0
   47.1562   33.0550   37.0867 H   0  0  0  0  0  0  0  0  0  0  0  0
   45.1636   32.4857   38.4956 H   0  0  0  0  0  0  0  0  0  0  0  0
   43.4758   34.4226   41.8825 H   0  0  0  0  0  0  0  0  0  0  0  0
   43.0170   34.0078   40.2288 H   0  0  0  0  0  0  0  0  0  0  0  0
   41.8794   32.6614   42.2340 H   0  0  0  0  0  0  0  0  0  0  0  0
   42.4044   31.7031   40.8976 H   0  0  0  0  0  0  0  0  0  0  0  0
   44.0290   32.4594   43.4605 H   0  0  0  0  0  0  0  0  0  0  0  0
   43.6854   30.8346   42.9667 H   0  0  0  0  0  0  0  0  0  0  0  0
   46.0275   31.9307   42.1542 H   0  0  0  0  0  0  0  0  0  0  0  0
   46.1232   30.2382   40.7522 H   0  0  0  0  0  0  0  0  0  0  0  0
   43.9049   36.6488   44.5130 H   0  0  0  0  0  0  0  0  0  0  0  0
   45.3692   36.7078   42.4917 H   0  0  0  0  0  0  0  0  0  0  0  0
   44.7547   32.8487   46.3808 H   0  0  0  0  0  0  0  0  0  0  0  0
   47.7749   33.5288   46.9782 H   0  0  0  0  0  0  0  0  0  0  0  0
   47.1932   32.5755   48.0643 H   0  0  0  0  0  0  0  0  0  0  0  0
   46.6872   30.7298   45.9328 H   0  0  0  0  0  0  0  0  0  0  0  0
   47.4946   31.5624   44.9036 H   0  0  0  0  0  0  0  0  0  0  0  0
  1 19  1  0
  2  1  2  0
  3  2  1  0
  4  3  1  0
  4  9  2  0
  5  4  1  0
  6  5  2  0
  6  7  1  0
  7  8  2  0
  8  9  1  0
  8 10  1  0
  9  1  1  0
 10 11  1  0
 10 14  1  0
 11 12  1  0
 12 13  1  0
 14 13  1  0
 15 14  1  0
 16 15  2  0
 17 22  2  0
 18 17  1  0
 19 18  2  0
 19 20  1  0
 20 21  2  0
 21 22  1  0
 21 23  1  0
 23 24  1  0
 25 23  1  0
 25 24  1  0
  2 26  1  0
  3 27  1  0
  5 28  1  0
  6 29  1  0
  7 30  1  0
 11 31  1  0
 11 32  1  0
 12 33  1  0
 12 34  1  0
 13 35  1  0
 13 36  1  0
 14 37  1  1
 15 38  1  0
 17 39  1  0
 18 40  1  0
 23 41  1  0
 24 42  1  0
 24 43  1  0
 25 44  1  0
 25 45  1  0
M  ISO  8  26  14  27   9  28  14  29  14  30  14  31  13  32  13  33  13
M  ISO  8  34  13  35  13  36  13  37  13  38   6  39  14  40  14  41  13
M  ISO  4  42  13  43  13  44  13  45  13
M  END
>  <minimizedAffinity>  (1) 
-6.28072977

>  <minimizedRMSD>  (1) 
0.234123498

$$$$
