
     RDKit          3D

 30 32  0  0  1  0  0  0  0  0999 V2000
   46.2430   35.1930   42.3150 C   0  0  1  0  0  0  0  0  0  0  0  0
   45.5540   34.4380   41.2420 C   0  0  0  0  0  0  0  0  0  0  0  0
   46.2680   33.5170   40.5260 N   0  0  0  0  0  0  0  0  0  0  0  0
   45.7490   32.7740   39.5600 C   0  0  0  0  0  0  0  0  0  0  0  0
   44.4680   32.8500   39.1890 N   0  0  0  0  0  0  0  0  0  0  0  0
   43.7020   33.7420   39.8550 C   0  0  0  0  0  0  0  0  0  0  0  0
   42.3520   33.9200   39.5570 C   0  0  0  0  0  0  0  0  0  0  0  0
   41.5520   34.8270   40.2190 C   0  0  0  0  0  0  0  0  0  0  0  0
   42.1270   35.5990   41.2320 C   0  0  0  0  0  0  0  0  0  0  0  0
   43.4610   35.4130   41.5170 C   0  0  0  0  0  0  0  0  0  0  0  0
   44.2380   34.5190   40.8600 C   0  0  0  0  0  0  0  0  0  0  0  0
   45.2020   34.9400   44.5510 C   0  0  0  0  0  0  0  0  0  0  0  0
   46.1490   34.5540   43.6040 C   0  0  0  0  0  0  0  0  0  0  0  0
   46.9820   33.5100   43.9950 C   0  0  0  0  0  0  0  0  0  0  0  0
   46.8330   32.9530   45.2190 N   0  0  0  0  0  0  0  0  0  0  0  0
   45.9050   33.3630   46.0930 C   0  0  0  0  0  0  0  0  0  0  0  0
   45.0810   34.3670   45.7530 N   0  0  0  0  0  0  0  0  0  0  0  0
   47.7090   35.2890   41.9340 C   0  0  0  0  0  0  0  0  0  0  0  0
   45.7606   36.1775   42.4047 H   0  0  0  0  0  0  0  0  0  0  0  0
   46.4040   32.0605   39.0385 H   0  0  0  0  0  0  0  0  0  0  0  0
   41.9051   33.3098   38.7583 H   0  0  0  0  0  0  0  0  0  0  0  0
   40.4897   34.9399   39.9568 H   0  0  0  0  0  0  0  0  0  0  0  0
   41.5290   36.3365   41.7875 H   0  0  0  0  0  0  0  0  0  0  0  0
   43.9166   36.0180   42.3147 H   0  0  0  0  0  0  0  0  0  0  0  0
   44.5164   35.7613   44.2954 H   0  0  0  0  0  0  0  0  0  0  0  0
   47.7593   33.1387   43.3109 H   0  0  0  0  0  0  0  0  0  0  0  0
   45.8187   32.8825   47.0787 H   0  0  0  0  0  0  0  0  0  0  0  0
   48.3229   35.3292   42.8458 H   0  0  0  0  0  0  0  0  0  0  0  0
   47.9920   34.4075   41.3400 H   0  0  0  0  0  0  0  0  0  0  0  0
   47.8746   36.1999   41.3400 H   0  0  0  0  0  0  0  0  0  0  0  0
  1 13  1  0
  2  1  1  0
  3  2  2  0
  4  3  1  0
  5  4  2  0
  5  6  1  0
  6 11  2  0
  7  6  1  0
  7  8  2  0
  8  9  1  0
  9 10  2  0
 11  2  1  0
 11 10  1  0
 12 17  2  0
 13 14  2  0
 13 12  1  0
 14 15  1  0
 15 16  2  0
 17 16  1  0
 18  1  1  0
  1 19  1  1
  4 20  1  0
  7 21  1  0
  8 22  1  0
  9 23  1  0
 10 24  1  0
 12 25  1  0
 14 26  1  0
 16 27  1  0
 18 28  1  0
 18 29  1  0
 18 30  1  0
M  ISO  8  19   8  20  14  21  14  22  14  23  14  24  14  25  14  26  14
M  ISO  4  27  14  28   8  29   8  30   8
M  END
>  <minimizedAffinity>  (1) 
-5.18770266

>  <minimizedRMSD>  (1) 
1.50167978

$$$$
