
     RDKit          3D

 25 26  0  0  1  0  0  0  0  0999 V2000
   47.7540   35.1670   41.7310 C   0  0  2  0  0  0  0  0  0  0  0  0
   45.7480   35.5440   43.1060 C   0  0  0  0  0  0  0  0  0  0  0  0
   46.9260   34.7940   42.8830 C   0  0  0  0  0  0  0  0  0  0  0  0
   47.2290   33.7450   43.7780 C   0  0  0  0  0  0  0  0  0  0  0  0
   46.3670   33.5290   44.7930 N   0  0  0  0  0  0  0  0  0  0  0  0
   45.2630   34.2610   44.9720 C   0  0  0  0  0  0  0  0  0  0  0  0
   44.9460   35.2560   44.1460 N   0  0  0  0  0  0  0  0  0  0  0  0
   47.3750   34.4350   40.5030 C   0  0  0  0  0  0  0  0  0  0  0  0
   46.2720   33.6410   40.2770 C   0  0  0  0  0  0  0  0  0  0  0  0
   46.0800   33.0310   39.0580 C   0  0  0  0  0  0  0  0  0  0  0  0
   46.9630   33.1720   38.0000 C   0  0  0  0  0  0  0  0  0  0  0  0
   48.0440   33.9710   38.2700 C   0  0  0  0  0  0  0  0  0  0  0  0
   48.2430   34.5720   39.4560 N   0  0  0  0  0  0  0  0  0  0  0  0
   49.1890   34.8460   42.0680 C   0  0  0  0  0  0  0  0  0  0  0  0
   47.6086   36.2391   41.5322 H   0  0  0  0  0  0  0  0  0  0  0  0
   45.4865   36.3673   42.4250 H   0  0  0  0  0  0  0  0  0  0  0  0
   48.1315   33.1287   43.6528 H   0  0  0  0  0  0  0  0  0  0  0  0
   44.6011   34.0362   45.8213 H   0  0  0  0  0  0  0  0  0  0  0  0
   45.5356   33.4927   41.0806 H   0  0  0  0  0  0  0  0  0  0  0  0
   45.1868   32.4045   38.9180 H   0  0  0  0  0  0  0  0  0  0  0  0
   46.8099   32.6843   37.0260 H   0  0  0  0  0  0  0  0  0  0  0  0
   48.7873   34.1285   37.4746 H   0  0  0  0  0  0  0  0  0  0  0  0
   49.3117   34.8186   43.1608 H   0  0  0  0  0  0  0  0  0  0  0  0
   49.4548   33.8662   41.6445 H   0  0  0  0  0  0  0  0  0  0  0  0
   49.8469   35.6192   41.6445 H   0  0  0  0  0  0  0  0  0  0  0  0
  1 14  1  0
  1  3  1  0
  2  7  2  0
  3  2  1  0
  3  4  2  0
  4  5  1  0
  5  6  2  0
  7  6  1  0
  8  1  1  0
  9  8  2  0
 10  9  1  0
 11 12  1  0
 11 10  2  0
 12 13  2  0
 13  8  1  0
  1 15  1  6
  2 16  1  0
  4 17  1  0
  6 18  1  0
  9 19  1  0
 10 20  1  0
 11 21  1  0
 12 22  1  0
 14 23  1  0
 14 24  1  0
 14 25  1  0
M  ISO  8  15   8  16  14  17  14  18  14  19  14  20  14  21  14  22  14
M  ISO  3  23   8  24   8  25   8
M  END
>  <minimizedAffinity>  (1) 
-4.31187677

>  <minimizedRMSD>  (1) 
1.54201019

$$$$
