
     RDKit          3D

 23 24  0  0  1  0  0  0  0  0999 V2000
   45.9190   35.4120   42.7560 C   0  0  0  0  0  0  0  0  0  0  0  0
   47.1690   34.7980   42.5130 C   0  0  0  0  0  0  0  0  0  0  0  0
   47.6140   33.8170   43.3810 C   0  0  0  0  0  0  0  0  0  0  0  0
   46.7950   33.5020   44.4360 N   0  0  0  0  0  0  0  0  0  0  0  0
   45.6150   34.0880   44.6560 C   0  0  0  0  0  0  0  0  0  0  0  0
   45.1630   35.0490   43.8230 N   0  0  0  0  0  0  0  0  0  0  0  0
   47.8960   35.2160   41.3510 C   0  0  1  0  0  0  0  0  0  0  0  0
   49.1920   35.8590   41.7650 C   0  0  0  0  0  0  0  0  0  0  0  0
   48.1100   34.0060   40.4720 C   0  0  0  0  0  0  0  0  0  0  0  0
   48.0530   34.1610   38.9590 C   0  0  0  0  0  0  0  0  0  0  0  0
   46.8750   33.5820   39.7060 C   0  0  0  0  0  0  0  0  0  0  0  0
   45.5549   36.1930   42.0723 H   0  0  0  0  0  0  0  0  0  0  0  0
   48.5801   33.3126   43.2323 H   0  0  0  0  0  0  0  0  0  0  0  0
   45.0076   33.7854   45.5218 H   0  0  0  0  0  0  0  0  0  0  0  0
   47.3345   35.9699   40.7797 H   0  0  0  0  0  0  0  0  0  0  0  0
   49.2522   35.8889   42.8629 H   0  0  0  0  0  0  0  0  0  0  0  0
   50.0348   35.2745   41.3673 H   0  0  0  0  0  0  0  0  0  0  0  0
   49.2364   36.8836   41.3673 H   0  0  0  0  0  0  0  0  0  0  0  0
   48.8444   33.5464   41.1498 H   0  0  0  0  0  0  0  0  0  0  0  0
   48.6685   33.5146   38.3160 H   0  0  0  0  0  0  0  0  0  0  0  0
   48.1953   34.9950   38.2561 H   0  0  0  0  0  0  0  0  0  0  0  0
   45.9452   34.1624   39.7992 H   0  0  0  0  0  0  0  0  0  0  0  0
   46.2899   32.6535   39.6311 H   0  0  0  0  0  0  0  0  0  0  0  0
  1  6  2  0
  2  1  1  0
  2  3  2  0
  3  4  1  0
  4  5  2  0
  6  5  1  0
  7  8  1  0
  7  2  1  0
  9  7  1  0
 10 11  1  0
 10  9  1  0
 11  9  1  0
  1 12  1  0
  3 13  1  0
  5 14  1  0
  7 15  1  6
  8 16  1  0
  8 17  1  0
  8 18  1  0
  9 19  1  0
 10 20  1  0
 10 21  1  0
 11 22  1  0
 11 23  1  0
M  ISO  8  12  14  13  14  14  14  15   8  16   8  17   8  18   8  19  13
M  ISO  4  20  13  21  13  22  13  23  13
M  END
>  <minimizedAffinity>  (1) 
-3.95925498

>  <minimizedRMSD>  (1) 
1.9777

$$$$
