
     RDKit          3D

 22 23  0  0  1  0  0  0  0  0999 V2000
   47.0320   35.1710   41.8300 C   0  0  2  0  0  0  0  0  0  0  0  0
   45.3510   36.0360   43.3720 C   0  0  0  0  0  0  0  0  0  0  0  0
   46.2820   35.0410   43.0790 C   0  0  0  0  0  0  0  0  0  0  0  0
   46.4150   34.0100   44.0030 C   0  0  0  0  0  0  0  0  0  0  0  0
   45.6360   34.0500   45.1060 N   0  0  0  0  0  0  0  0  0  0  0  0
   44.7500   35.0160   45.3620 C   0  0  0  0  0  0  0  0  0  0  0  0
   44.6060   36.0110   44.4940 N   0  0  0  0  0  0  0  0  0  0  0  0
   46.5020   34.2660   40.7770 C   0  0  0  0  0  0  0  0  0  0  0  0
   47.4240   33.6130   39.8730 C   0  0  0  0  0  0  0  0  0  0  0  0
   46.2520   32.6430   38.8080 S   0  0  0  0  0  0  0  0  0  0  0  0
   44.7550   33.3010   39.7790 C   0  0  0  0  0  0  0  0  0  0  0  0
   45.2290   33.9820   40.5650 N   0  0  0  0  0  0  0  0  0  0  0  0
   48.4760   34.8450   42.1440 C   0  0  0  0  0  0  0  0  0  0  0  0
   46.9370   36.1932   41.4350 H   0  0  0  0  0  0  0  0  0  0  0  0
   45.2205   36.8681   42.6645 H   0  0  0  0  0  0  0  0  0  0  0  0
   47.1301   33.1900   43.8412 H   0  0  0  0  0  0  0  0  0  0  0  0
   44.1464   34.9879   46.2812 H   0  0  0  0  0  0  0  0  0  0  0  0
   48.5214   33.6745   39.8286 H   0  0  0  0  0  0  0  0  0  0  0  0
   43.6891   33.0794   39.6219 H   0  0  0  0  0  0  0  0  0  0  0  0
   48.6160   34.8134   43.2346 H   0  0  0  0  0  0  0  0  0  0  0  0
   48.7330   33.8662   41.7128 H   0  0  0  0  0  0  0  0  0  0  0  0
   49.1286   35.6184   41.7128 H   0  0  0  0  0  0  0  0  0  0  0  0
  1 13  1  0
  1  3  1  0
  2  7  2  0
  3  2  1  0
  3  4  2  0
  4  5  1  0
  5  6  2  0
  7  6  1  0
  8  1  1  0
  9  8  2  0
 10 11  1  0
 10  9  1  0
 11 12  2  0
 12  8  1  0
  1 14  1  6
  2 15  1  0
  4 16  1  0
  6 17  1  0
  9 18  1  0
 11 19  1  0
 13 20  1  0
 13 21  1  0
 13 22  1  0
M  ISO  8  14   8  15  14  16  14  17  14  18  14  19  14  20   8  21   8
M  ISO  1  22   8
M  END
>  <minimizedAffinity>  (1) 
-3.92922378

>  <minimizedRMSD>  (1) 
1.13879931

$$$$
