
     RDKit          3D

 34 37  0  0  1  0  0  0  0  0999 V2000
   46.8490   32.9360   43.8930 C   0  0  1  0  0  0  0  0  0  0  0  0
   45.9560   35.0250   43.0120 C   0  0  0  0  0  0  0  0  0  0  0  0
   46.0190   34.1370   44.0910 C   0  0  0  0  0  0  0  0  0  0  0  0
   45.3080   34.4490   45.2280 C   0  0  0  0  0  0  0  0  0  0  0  0
   44.6010   35.5900   45.2230 N   0  0  0  0  0  0  0  0  0  0  0  0
   44.5360   36.4380   44.2000 C   0  0  0  0  0  0  0  0  0  0  0  0
   45.2140   36.1570   43.0930 N   0  0  0  0  0  0  0  0  0  0  0  0
   47.9470   33.2550   42.9800 C   0  0  0  0  0  0  0  0  0  0  0  0
   48.3060   32.8080   41.7250 C   0  0  0  0  0  0  0  0  0  0  0  0
   49.4450   33.4380   41.3300 N   0  0  0  0  0  0  0  0  0  0  0  0
   49.8210   34.2720   42.2960 C   0  0  0  0  0  0  0  0  0  0  0  0
   48.9190   34.1570   43.2790 N   0  0  0  0  0  0  0  0  0  0  0  0
   47.3650   32.5030   45.2390 C   0  0  0  0  0  0  0  0  0  0  0  0
   46.5970   31.3460   45.7110 N   0  0  0  0  0  0  0  0  0  0  0  0
   46.1570   30.2140   45.1500 C   0  0  0  0  0  0  0  0  0  0  0  0
   45.4920   29.4840   46.0620 N   0  0  0  0  0  0  0  0  0  0  0  0
   45.4950   30.1340   47.2250 C   0  0  0  0  0  0  0  0  0  0  0  0
   44.9380   29.7690   48.4360 C   0  0  0  0  0  0  0  0  0  0  0  0
   45.0960   30.6350   49.4630 N   0  0  0  0  0  0  0  0  0  0  0  0
   45.7820   31.7950   49.2520 C   0  0  0  0  0  0  0  0  0  0  0  0
   46.3120   32.1240   48.0670 N   0  0  0  0  0  0  0  0  0  0  0  0
   46.1910   31.3120   47.0110 C   0  0  0  0  0  0  0  0  0  0  0  0
   46.2663   32.1161   43.4479 H   0  0  0  0  0  0  0  0  0  0  0  0
   46.5132   34.8031   42.0899 H   0  0  0  0  0  0  0  0  0  0  0  0
   45.3189   33.7882   46.1073 H   0  0  0  0  0  0  0  0  0  0  0  0
   43.9320   37.3547   44.2696 H   0  0  0  0  0  0  0  0  0  0  0  0
   47.7567   32.0589   41.1357 H   0  0  0  0  0  0  0  0  0  0  0  0
   50.7029   34.9294   42.2886 H   0  0  0  0  0  0  0  0  0  0  0  0
   48.9573   34.6901   44.1595 H   0  0  0  0  0  0  0  0  0  0  0  0
   48.4264   32.2275   45.1529 H   0  0  0  0  0  0  0  0  0  0  0  0
   47.2565   33.3306   45.9555 H   0  0  0  0  0  0  0  0  0  0  0  0
   46.3155   29.9243   44.1007 H   0  0  0  0  0  0  0  0  0  0  0  0
   44.3932   28.8213   48.5586 H   0  0  0  0  0  0  0  0  0  0  0  0
   45.9055   32.4922   50.0938 H   0  0  0  0  0  0  0  0  0  0  0  0
  1  3  1  0
  1 13  1  0
  2  7  2  0
  2  3  1  0
  3  4  2  0
  5  4  1  0
  6  5  2  0
  7  6  1  0
  8 12  1  0
  8  1  1  0
  9  8  2  0
 10  9  1  0
 10 11  2  0
 11 12  1  0
 13 14  1  0
 14 22  1  0
 15 14  1  0
 15 16  2  0
 16 17  1  0
 17 18  2  0
 18 19  1  0
 20 19  2  0
 21 20  1  0
 22 17  1  0
 22 21  2  0
  1 23  1  6
  2 24  1  0
  4 25  1  0
  6 26  1  0
  9 27  1  0
 11 28  1  0
 12 29  1  0
 13 30  1  0
 13 31  1  0
 15 32  1  0
 18 33  1  0
 20 34  1  0
M  ISO  8  23   8  24  14  25  14  26  14  27  14  28  14  29   9  30   8
M  ISO  4  31   8  32  14  33  14  34  14
M  END
>  <minimizedAffinity>  (1) 
-5.36289883

>  <minimizedRMSD>  (1) 
4.27134562

$$$$
