
     RDKit          3D

 33 35  0  0  1  0  0  0  0  0999 V2000
   46.4000   32.6590   43.9300 C   0  0  1  0  0  0  0  0  0  0  0  0
   45.4320   30.5920   44.7880 C   0  0  0  0  0  0  0  0  0  0  0  0
   46.3330   31.6350   44.9870 C   0  0  0  0  0  0  0  0  0  0  0  0
   47.0880   31.6260   46.1410 C   0  0  0  0  0  0  0  0  0  0  0  0
   46.9080   30.6160   47.0030 N   0  0  0  0  0  0  0  0  0  0  0  0
   46.0360   29.6110   46.8050 C   0  0  0  0  0  0  0  0  0  0  0  0
   45.3020   29.5990   45.7030 N   0  0  0  0  0  0  0  0  0  0  0  0
   45.6240   33.8300   44.3580 C   0  0  0  0  0  0  0  0  0  0  0  0
   45.1200   34.9290   43.6920 C   0  0  0  0  0  0  0  0  0  0  0  0
   44.4760   35.7380   44.5890 N   0  0  0  0  0  0  0  0  0  0  0  0
   44.5620   35.1760   45.7990 C   0  0  0  0  0  0  0  0  0  0  0  0
   45.2530   34.0340   45.6500 N   0  0  0  0  0  0  0  0  0  0  0  0
   47.8440   33.0090   43.7050 C   0  0  0  0  0  0  0  0  0  0  0  0
   48.0700   33.7560   42.4410 C   0  0  0  0  0  0  0  0  0  0  0  0
   48.8500   34.8920   42.6710 C   0  0  0  0  0  0  0  0  0  0  0  0
   49.1970   35.7690   41.6420 C   0  0  0  0  0  0  0  0  0  0  0  0
   48.7580   35.5150   40.3430 C   0  0  0  0  0  0  0  0  0  0  0  0
   47.9930   34.3870   40.1610 C   0  0  0  0  0  0  0  0  0  0  0  0
   47.6400   33.5090   41.1640 C   0  0  0  0  0  0  0  0  0  0  0  0
   45.9744   32.2903   42.9851 H   0  0  0  0  0  0  0  0  0  0  0  0
   44.8171   30.5731   43.8761 H   0  0  0  0  0  0  0  0  0  0  0  0
   47.8162   32.4241   46.3477 H   0  0  0  0  0  0  0  0  0  0  0  0
   45.9339   28.8083   47.5501 H   0  0  0  0  0  0  0  0  0  0  0  0
   45.2198   35.1234   42.6139 H   0  0  0  0  0  0  0  0  0  0  0  0
   44.1464   35.5729   46.7370 H   0  0  0  0  0  0  0  0  0  0  0  0
   45.4753   33.3897   46.4223 H   0  0  0  0  0  0  0  0  0  0  0  0
   48.1894   33.6292   44.5453 H   0  0  0  0  0  0  0  0  0  0  0  0
   48.4042   32.0650   43.6340 H   0  0  0  0  0  0  0  0  0  0  0  0
   49.2008   35.1013   43.6923 H   0  0  0  0  0  0  0  0  0  0  0  0
   49.8131   36.6552   41.8545 H   0  0  0  0  0  0  0  0  0  0  0  0
   49.0108   36.1830   39.5065 H   0  0  0  0  0  0  0  0  0  0  0  0
   47.6374   34.1696   39.1430 H   0  0  0  0  0  0  0  0  0  0  0  0
   47.0236   32.6253   40.9425 H   0  0  0  0  0  0  0  0  0  0  0  0
  1  8  1  0
  1  3  1  0
  2  3  2  0
  2  7  1  0
  3  4  1  0
  4  5  2  0
  6  5  1  0
  7  6  2  0
  8 12  1  0
  9  8  2  0
  9 10  1  0
 10 11  2  0
 12 11  1  0
 13  1  1  0
 14 15  2  0
 14 13  1  0
 16 15  1  0
 17 16  2  0
 18 17  1  0
 18 19  2  0
 19 14  1  0
  1 20  1  6
  2 21  1  0
  4 22  1  0
  6 23  1  0
  9 24  1  0
 11 25  1  0
 12 26  1  0
 13 27  1  0
 13 28  1  0
 15 29  1  0
 16 30  1  0
 17 31  1  0
 18 32  1  0
 19 33  1  0
M  ISO  8  20   8  21  14  22  14  23  14  24  14  25  14  26   9  27   8
M  ISO  6  28   8  29  14  30  14  31  14  32  14  33  14
M  END
>  <minimizedAffinity>  (1) 
-5.00263214

>  <minimizedRMSD>  (1) 
6.05907249

$$$$
