
     RDKit          3D

 37 40  0  0  1  0  0  0  0  0999 V2000
   45.9210   34.7500   43.0740 C   0  0  1  0  0  0  0  0  0  0  0  0
   44.0440   33.4050   42.2700 C   0  0  0  0  0  0  0  0  0  0  0  0
   44.6850   34.6390   42.2820 C   0  0  0  0  0  0  0  0  0  0  0  0
   44.1060   35.6790   41.5510 C   0  0  0  0  0  0  0  0  0  0  0  0
   42.9670   35.4030   40.8860 N   0  0  0  0  0  0  0  0  0  0  0  0
   42.3660   34.2200   40.8830 C   0  0  0  0  0  0  0  0  0  0  0  0
   42.9030   33.2150   41.5760 N   0  0  0  0  0  0  0  0  0  0  0  0
   46.3060   33.3880   43.5170 C   0  0  0  0  0  0  0  0  0  0  0  0
   47.0240   32.9410   44.6140 C   0  0  0  0  0  0  0  0  0  0  0  0
   47.1220   31.5900   44.5610 N   0  0  0  0  0  0  0  0  0  0  0  0
   46.4880   31.1670   43.4630 C   0  0  0  0  0  0  0  0  0  0  0  0
   45.9920   32.2550   42.8290 N   0  0  0  0  0  0  0  0  0  0  0  0
   46.9940   35.3230   42.1790 C   0  0  0  0  0  0  0  0  0  0  0  0
   47.4370   34.2210   41.2520 C   0  0  0  0  0  0  0  0  0  0  0  0
   46.6010   33.7990   40.2880 N   0  0  0  0  0  0  0  0  0  0  0  0
   46.9510   32.7980   39.4230 C   0  0  0  0  0  0  0  0  0  0  0  0
   48.1610   32.2620   39.5860 N   0  0  0  0  0  0  0  0  0  0  0  0
   49.0030   32.6500   40.5170 C   0  0  0  0  0  0  0  0  0  0  0  0
   50.2270   31.9950   40.5590 C   0  0  0  0  0  0  0  0  0  0  0  0
   51.1370   32.3950   41.5460 C   0  0  0  0  0  0  0  0  0  0  0  0
   50.7970   33.4040   42.4240 C   0  0  0  0  0  0  0  0  0  0  0  0
   49.5670   34.0720   42.3920 C   0  0  0  0  0  0  0  0  0  0  0  0
   48.6950   33.6600   41.4170 C   0  0  0  0  0  0  0  0  0  0  0  0
   45.7833   35.3983   43.9519 H   0  0  0  0  0  0  0  0  0  0  0  0
   44.4758   32.5675   42.8375 H   0  0  0  0  0  0  0  0  0  0  0  0
   44.5603   36.6803   41.5196 H   0  0  0  0  0  0  0  0  0  0  0  0
   41.4357   34.0700   40.3155 H   0  0  0  0  0  0  0  0  0  0  0  0
   47.4473   33.5805   45.4026 H   0  0  0  0  0  0  0  0  0  0  0  0
   46.3874   30.1223   43.1338 H   0  0  0  0  0  0  0  0  0  0  0  0
   45.4537   32.2299   41.9512 H   0  0  0  0  0  0  0  0  0  0  0  0
   46.5898   36.1648   41.5976 H   0  0  0  0  0  0  0  0  0  0  0  0
   47.8405   35.6962   42.7742 H   0  0  0  0  0  0  0  0  0  0  0  0
   46.2682   32.4528   38.6327 H   0  0  0  0  0  0  0  0  0  0  0  0
   50.4720   31.1942   39.8458 H   0  0  0  0  0  0  0  0  0  0  0  0
   52.1196   31.9063   41.6210 H   0  0  0  0  0  0  0  0  0  0  0  0
   51.5306   33.6988   43.1888 H   0  0  0  0  0  0  0  0  0  0  0  0
   49.3166   34.8741   43.1019 H   0  0  0  0  0  0  0  0  0  0  0  0
  1  8  1  0
  2  3  2  0
  3  1  1  0
  4  3  1  0
  5  4  2  0
  6  5  1  0
  6  7  2  0
  7  2  1  0
  8  9  2  0
 10  9  1  0
 11 10  2  0
 12 11  1  0
 12  8  1  0
 13  1  1  0
 14 23  1  0
 14 13  1  0
 15 14  2  0
 16 17  2  0
 16 15  1  0
 17 18  1  0
 18 19  1  0
 18 23  2  0
 19 20  2  0
 20 21  1  0
 22 21  2  0
 23 22  1  0
  1 24  1  1
  2 25  1  0
  4 26  1  0
  6 27  1  0
  9 28  1  0
 11 29  1  0
 12 30  1  0
 13 31  1  0
 13 32  1  0
 16 33  1  0
 19 34  1  0
 20 35  1  0
 21 36  1  0
 22 37  1  0
M  ISO  8  24   8  25  14  26  14  27  14  28  14  29  14  30   9  31   8
M  ISO  6  32   8  33  14  34  14  35  14  36  14  37  14
M  END
>  <minimizedAffinity>  (1) 
-4.94735384

>  <minimizedRMSD>  (1) 
7.08297777

$$$$
