
     RDKit          3D

 33 35  0  0  1  0  0  0  0  0999 V2000
   46.2100   32.7880   44.6330 C   0  0  1  0  0  0  0  0  0  0  0  0
   44.7490   33.4520   42.7910 C   0  0  0  0  0  0  0  0  0  0  0  0
   45.3270   33.7960   44.0170 C   0  0  0  0  0  0  0  0  0  0  0  0
   45.0240   35.0340   44.5460 C   0  0  0  0  0  0  0  0  0  0  0  0
   44.1920   35.8280   43.8440 N   0  0  0  0  0  0  0  0  0  0  0  0
   43.6450   35.4900   42.6720 C   0  0  0  0  0  0  0  0  0  0  0  0
   43.9200   34.3110   42.1490 N   0  0  0  0  0  0  0  0  0  0  0  0
   47.4540   32.7090   43.8610 C   0  0  0  0  0  0  0  0  0  0  0  0
   48.1550   31.6530   43.3050 C   0  0  0  0  0  0  0  0  0  0  0  0
   49.2760   32.1500   42.6900 N   0  0  0  0  0  0  0  0  0  0  0  0
   49.2970   33.4760   42.8410 C   0  0  0  0  0  0  0  0  0  0  0  0
   48.1980   33.7760   43.5440 N   0  0  0  0  0  0  0  0  0  0  0  0
   46.4780   33.2090   46.0440 C   0  0  0  0  0  0  0  0  0  0  0  0
   46.0170   32.2800   47.0910 C   0  0  0  0  0  0  0  0  0  0  0  0
   45.7870   30.9590   46.6770 C   0  0  0  0  0  0  0  0  0  0  0  0
   45.3490   29.9680   47.5160 C   0  0  0  0  0  0  0  0  0  0  0  0
   45.1060   30.2220   48.8370 C   0  0  0  0  0  0  0  0  0  0  0  0
   45.3260   31.5040   49.2500 C   0  0  0  0  0  0  0  0  0  0  0  0
   45.7650   32.5050   48.4170 C   0  0  0  0  0  0  0  0  0  0  0  0
   45.7415   31.7928   44.6346 H   0  0  0  0  0  0  0  0  0  0  0  0
   44.9698   32.4723   42.3421 H   0  0  0  0  0  0  0  0  0  0  0  0
   45.4470   35.3612   45.5073 H   0  0  0  0  0  0  0  0  0  0  0  0
   42.9733   36.1872   42.1499 H   0  0  0  0  0  0  0  0  0  0  0  0
   47.8625   30.5935   43.3489 H   0  0  0  0  0  0  0  0  0  0  0  0
   50.0583   34.1760   42.4661 H   0  0  0  0  0  0  0  0  0  0  0  0
   47.9482   34.7376   43.8156 H   0  0  0  0  0  0  0  0  0  0  0  0
   47.5650   33.3330   46.1581 H   0  0  0  0  0  0  0  0  0  0  0  0
   45.9029   34.1348   46.1930 H   0  0  0  0  0  0  0  0  0  0  0  0
   45.9681   30.7053   45.6221 H   0  0  0  0  0  0  0  0  0  0  0  0
   45.1907   28.9537   47.1209 H   0  0  0  0  0  0  0  0  0  0  0  0
   44.7542   29.4399   49.5259 H   0  0  0  0  0  0  0  0  0  0  0  0
   45.1421   31.7493   50.3064 H   0  0  0  0  0  0  0  0  0  0  0  0
   45.9179   33.5141   48.8272 H   0  0  0  0  0  0  0  0  0  0  0  0
  1 13  1  0
  2  3  2  0
  3  4  1  0
  3  1  1  0
  5  4  2  0
  6  5  1  0
  7  6  2  0
  7  2  1  0
  8  1  1  0
  9  8  2  0
 10 11  2  0
 10  9  1  0
 11 12  1  0
 12  8  1  0
 13 14  1  0
 14 19  1  0
 15 14  2  0
 15 16  1  0
 16 17  2  0
 17 18  1  0
 19 18  2  0
  1 20  1  1
  2 21  1  0
  4 22  1  0
  6 23  1  0
  9 24  1  0
 11 25  1  0
 12 26  1  0
 13 27  1  0
 13 28  1  0
 15 29  1  0
 16 30  1  0
 17 31  1  0
 18 32  1  0
 19 33  1  0
M  ISO  8  20   8  21  14  22  14  23  14  24  14  25  14  26   9  27   8
M  ISO  6  28   8  29  14  30  14  31  14  32  14  33  14
M  END
>  <minimizedAffinity>  (1) 
-5.15234661

>  <minimizedRMSD>  (1) 
3.86931872

$$$$
