
     RDKit          3D

 36 38  0  0  1  0  0  0  0  0999 V2000
   46.8190   32.7450   43.9250 C   0  0  1  0  0  0  0  0  0  0  0  0
   45.8540   34.8480   43.1410 C   0  0  0  0  0  0  0  0  0  0  0  0
   45.9980   33.9350   44.2040 C   0  0  0  0  0  0  0  0  0  0  0  0
   45.3730   34.2200   45.3990 C   0  0  0  0  0  0  0  0  0  0  0  0
   44.6620   35.3580   45.4650 N   0  0  0  0  0  0  0  0  0  0  0  0
   44.5250   36.2220   44.4570 C   0  0  0  0  0  0  0  0  0  0  0  0
   45.1150   35.9740   43.3000 N   0  0  0  0  0  0  0  0  0  0  0  0
   47.9890   33.1450   43.1270 C   0  0  0  0  0  0  0  0  0  0  0  0
   48.5410   32.6210   41.9540 C   0  0  0  0  0  0  0  0  0  0  0  0
   49.6420   33.3630   41.6330 N   0  0  0  0  0  0  0  0  0  0  0  0
   49.7970   34.3250   42.5550 C   0  0  0  0  0  0  0  0  0  0  0  0
   48.7980   34.1890   43.4520 N   0  0  0  0  0  0  0  0  0  0  0  0
   47.2510   32.1640   45.2410 C   0  0  0  0  0  0  0  0  0  0  0  0
   46.8050   30.7310   45.4220 C   0  0  0  0  0  0  0  0  0  0  0  0
   45.7060   30.5940   46.4460 C   0  0  0  0  0  0  0  0  0  0  0  0
   46.2900   29.8790   47.6450 C   0  0  0  0  0  0  0  0  0  0  0  0
   47.7640   30.1980   47.5120 C   0  0  0  0  0  0  0  0  0  0  0  0
   47.9800   29.9870   46.0230 C   0  0  0  0  0  0  0  0  0  0  0  0
   46.2499   31.9937   43.3578 H   0  0  0  0  0  0  0  0  0  0  0  0
   46.3436   34.6466   42.1768 H   0  0  0  0  0  0  0  0  0  0  0  0
   45.4530   33.5437   46.2628 H   0  0  0  0  0  0  0  0  0  0  0  0
   43.9250   37.1346   44.5880 H   0  0  0  0  0  0  0  0  0  0  0  0
   48.1554   31.7603   41.3878 H   0  0  0  0  0  0  0  0  0  0  0  0
   50.5921   35.0849   42.5760 H   0  0  0  0  0  0  0  0  0  0  0  0
   48.6657   34.7955   44.2739 H   0  0  0  0  0  0  0  0  0  0  0  0
   48.3489   32.2005   45.2981 H   0  0  0  0  0  0  0  0  0  0  0  0
   46.7816   32.7606   46.0371 H   0  0  0  0  0  0  0  0  0  0  0  0
   46.4564   30.3579   44.4477 H   0  0  0  0  0  0  0  0  0  0  0  0
   45.3422   31.5889   46.7422 H   0  0  0  0  0  0  0  0  0  0  0  0
   44.8582   30.0285   46.0320 H   0  0  0  0  0  0  0  0  0  0  0  0
   45.8786   30.2738   48.5857 H   0  0  0  0  0  0  0  0  0  0  0  0
   46.0691   28.8017   47.6709 H   0  0  0  0  0  0  0  0  0  0  0  0
   47.9799   31.2354   47.8074 H   0  0  0  0  0  0  0  0  0  0  0  0
   48.4170   29.5878   48.1533 H   0  0  0  0  0  0  0  0  0  0  0  0
   47.9510   28.9186   45.7630 H   0  0  0  0  0  0  0  0  0  0  0  0
   48.9577   30.3405   45.6636 H   0  0  0  0  0  0  0  0  0  0  0  0
  1  3  1  0
  1 13  1  0
  2  7  2  0
  2  3  1  0
  3  4  2  0
  4  5  1  0
  6  5  2  0
  7  6  1  0
  8 12  1  0
  8  1  1  0
  9  8  2  0
 10  9  1  0
 10 11  2  0
 11 12  1  0
 13 14  1  0
 14 18  1  0
 14 15  1  0
 15 16  1  0
 17 16  1  0
 18 17  1  0
  1 19  1  6
  2 20  1  0
  4 21  1  0
  6 22  1  0
  9 23  1  0
 11 24  1  0
 12 25  1  0
 13 26  1  0
 13 27  1  0
 14 28  1  0
 15 29  1  0
 15 30  1  0
 16 31  1  0
 16 32  1  0
 17 33  1  0
 17 34  1  0
 18 35  1  0
 18 36  1  0
M  ISO  8  19   8  20  14  21  14  22  14  23  14  24  14  25   9  26   8
M  ISO  8  27   8  28  13  29  13  30  13  31  13  32  13  33  13  34  13
M  ISO  2  35  13  36  13
M  END
>  <minimizedAffinity>  (1) 
-4.66252899

>  <minimizedRMSD>  (1) 
4.34632254

$$$$
