
     RDKit          3D

 33 35  0  0  1  0  0  0  0  0999 V2000
   46.6750   32.6080   43.7470 C   0  0  1  0  0  0  0  0  0  0  0  0
   45.5310   34.6710   43.1520 C   0  0  0  0  0  0  0  0  0  0  0  0
   45.8830   33.7800   44.1600 C   0  0  0  0  0  0  0  0  0  0  0  0
   45.4730   34.0520   45.4470 C   0  0  0  0  0  0  0  0  0  0  0  0
   44.7560   35.1630   45.6510 N   0  0  0  0  0  0  0  0  0  0  0  0
   44.4170   36.0230   44.6740 C   0  0  0  0  0  0  0  0  0  0  0  0
   44.8040   35.7760   43.4290 N   0  0  0  0  0  0  0  0  0  0  0  0
   47.8800   33.0660   43.0470 C   0  0  0  0  0  0  0  0  0  0  0  0
   48.5080   32.6270   41.8840 C   0  0  0  0  0  0  0  0  0  0  0  0
   49.6220   33.4080   41.6810 N   0  0  0  0  0  0  0  0  0  0  0  0
   49.6970   34.3040   42.6770 C   0  0  0  0  0  0  0  0  0  0  0  0
   48.6430   34.0780   43.4800 N   0  0  0  0  0  0  0  0  0  0  0  0
   47.0250   31.8210   44.9790 C   0  0  0  0  0  0  0  0  0  0  0  0
   46.1740   30.6770   45.2210 N   0  0  0  0  0  0  0  0  0  0  0  0
   45.6160   29.7960   44.3860 C   0  0  0  0  0  0  0  0  0  0  0  0
   44.8410   28.7650   44.8700 C   0  0  0  0  0  0  0  0  0  0  0  0
   44.6130   28.6020   46.2210 C   0  0  0  0  0  0  0  0  0  0  0  0
   43.8930   27.6410   46.6320 O   0  0  0  0  0  0  0  0  0  0  0  0
   45.1880   29.5060   47.0540 N   0  0  0  0  0  0  0  0  0  0  0  0
   45.9350   30.4970   46.5560 C   0  0  0  0  0  0  0  0  0  0  0  0
   46.3970   31.2540   47.4780 O   0  0  0  0  0  0  0  0  0  0  0  0
   46.1053   31.9642   43.0607 H   0  0  0  0  0  0  0  0  0  0  0  0
   45.8480   34.4741   42.1172 H   0  0  0  0  0  0  0  0  0  0  0  0
   45.7266   33.3784   46.2788 H   0  0  0  0  0  0  0  0  0  0  0  0
   43.8254   36.9213   44.9045 H   0  0  0  0  0  0  0  0  0  0  0  0
   48.1720   31.8005   41.2405 H   0  0  0  0  0  0  0  0  0  0  0  0
   50.4710   35.0742   42.8105 H   0  0  0  0  0  0  0  0  0  0  0  0
   48.4446   34.6217   44.3320 H   0  0  0  0  0  0  0  0  0  0  0  0
   48.0602   31.4636   44.8760 H   0  0  0  0  0  0  0  0  0  0  0  0
   46.8877   32.4998   45.8337 H   0  0  0  0  0  0  0  0  0  0  0  0
   45.7768   29.8947   43.3023 H   0  0  0  0  0  0  0  0  0  0  0  0
   44.3924   28.0534   44.1612 H   0  0  0  0  0  0  0  0  0  0  0  0
   45.0488   29.4286   48.0716 H   0  0  0  0  0  0  0  0  0  0  0  0
  1  3  1  0
  1 13  1  0
  2  7  2  0
  2  3  1  0
  3  4  2  0
  4  5  1  0
  6  5  2  0
  7  6  1  0
  8 12  1  0
  8  1  1  0
  9  8  2  0
 10  9  1  0
 10 11  2  0
 11 12  1  0
 13 14  1  0
 14 20  1  0
 15 16  2  0
 15 14  1  0
 16 17  1  0
 17 18  2  0
 17 19  1  0
 20 19  1  0
 20 21  2  0
  1 22  1  6
  2 23  1  0
  4 24  1  0
  6 25  1  0
  9 26  1  0
 11 27  1  0
 12 28  1  0
 13 29  1  0
 13 30  1  0
 15 31  1  0
 16 32  1  0
 19 33  1  0
M  ISO  8  22   8  23  14  24  14  25  14  26  14  27  14  28   9  29   8
M  ISO  4  30   8  31  14  32  14  33   9
M  END
>  <minimizedAffinity>  (1) 
-4.72746515

>  <minimizedRMSD>  (1) 
4.77188778

$$$$
