
     RDKit          3D

 37 40  0  0  1  0  0  0  0  0999 V2000
   47.0180   33.8290   43.8260 C   0  0  1  0  0  0  0  0  0  0  0  0
   45.3200   33.4500   42.1230 C   0  0  0  0  0  0  0  0  0  0  0  0
   45.9220   34.3530   42.9860 C   0  0  0  0  0  0  0  0  0  0  0  0
   45.4610   35.6630   43.0260 C   0  0  0  0  0  0  0  0  0  0  0  0
   44.4450   35.9710   42.2080 N   0  0  0  0  0  0  0  0  0  0  0  0
   43.8610   35.0940   41.3700 C   0  0  0  0  0  0  0  0  0  0  0  0
   44.2950   33.8340   41.3240 N   0  0  0  0  0  0  0  0  0  0  0  0
   46.8180   32.3960   44.0250 C   0  0  0  0  0  0  0  0  0  0  0  0
   45.6890   31.6120   44.1490 C   0  0  0  0  0  0  0  0  0  0  0  0
   46.0830   30.3120   44.3440 N   0  0  0  0  0  0  0  0  0  0  0  0
   47.4250   30.2680   44.3440 C   0  0  0  0  0  0  0  0  0  0  0  0
   47.8280   31.5280   44.1510 N   0  0  0  0  0  0  0  0  0  0  0  0
   48.3200   34.1380   43.1430 C   0  0  0  0  0  0  0  0  0  0  0  0
   48.3190   33.9640   41.6800 C   0  0  0  0  0  0  0  0  0  0  0  0
   48.3990   35.1600   40.9340 C   0  0  0  0  0  0  0  0  0  0  0  0
   48.4750   34.9310   39.6130 N   0  0  0  0  0  0  0  0  0  0  0  0
   48.4470   33.6010   39.4230 C   0  0  0  0  0  0  0  0  0  0  0  0
   48.4710   32.7320   38.3520 C   0  0  0  0  0  0  0  0  0  0  0  0
   48.4000   31.3470   38.5270 C   0  0  0  0  0  0  0  0  0  0  0  0
   48.3030   30.8330   39.8010 C   0  0  0  0  0  0  0  0  0  0  0  0
   48.2790   31.6970   40.8700 C   0  0  0  0  0  0  0  0  0  0  0  0
   48.3520   33.0510   40.6740 C   0  0  0  0  0  0  0  0  0  0  0  0
   47.0319   34.3003   44.8198 H   0  0  0  0  0  0  0  0  0  0  0  0
   45.6783   32.4106   42.0865 H   0  0  0  0  0  0  0  0  0  0  0  0
   45.9083   36.4113   43.6967 H   0  0  0  0  0  0  0  0  0  0  0  0
   43.0293   35.4155   40.7259 H   0  0  0  0  0  0  0  0  0  0  0  0
   44.6496   31.9687   44.0999 H   0  0  0  0  0  0  0  0  0  0  0  0
   48.0606   29.3799   44.4755 H   0  0  0  0  0  0  0  0  0  0  0  0
   48.8194   31.8035   44.1039 H   0  0  0  0  0  0  0  0  0  0  0  0
   48.5782   35.1849   43.3608 H   0  0  0  0  0  0  0  0  0  0  0  0
   49.0493   33.4141   43.5355 H   0  0  0  0  0  0  0  0  0  0  0  0
   48.3991   36.1641   41.3833 H   0  0  0  0  0  0  0  0  0  0  0  0
   48.5427   35.6476   38.8762 H   0  0  0  0  0  0  0  0  0  0  0  0
   48.5481   33.1397   37.3333 H   0  0  0  0  0  0  0  0  0  0  0  0
   48.4214   30.6749   37.6565 H   0  0  0  0  0  0  0  0  0  0  0  0
   48.2455   29.7462   39.9610 H   0  0  0  0  0  0  0  0  0  0  0  0
   48.2005   31.2976   41.8919 H   0  0  0  0  0  0  0  0  0  0  0  0
  1  8  1  0
  2  3  2  0
  3  4  1  0
  3  1  1  0
  5  4  2  0
  6  5  1  0
  7  6  2  0
  7  2  1  0
  8  9  2  0
  8 12  1  0
  9 10  1  0
 11 10  2  0
 12 11  1  0
 13  1  1  0
 14 13  1  0
 15 14  2  0
 16 15  1  0
 17 16  1  0
 17 22  2  0
 18 19  2  0
 18 17  1  0
 19 20  1  0
 20 21  2  0
 22 21  1  0
 22 14  1  0
  1 23  1  1
  2 24  1  0
  4 25  1  0
  6 26  1  0
  9 27  1  0
 11 28  1  0
 12 29  1  0
 13 30  1  0
 13 31  1  0
 15 32  1  0
 16 33  1  0
 18 34  1  0
 19 35  1  0
 20 36  1  0
 21 37  1  0
M  ISO  8  23   8  24  14  25  14  26  14  27  14  28  14  29   9  30   8
M  ISO  7  31   8  32  14  33   9  34  14  35  14  36  14  37  14
M  END
>  <minimizedAffinity>  (1) 
-4.32064295

>  <minimizedRMSD>  (1) 
7.14195204

$$$$
