
     RDKit          3D

 30 32  0  0  1  0  0  0  0  0999 V2000
   46.0690   32.7020   44.9750 C   0  0  1  0  0  0  0  0  0  0  0  0
   44.8400   33.5750   43.0470 C   0  0  0  0  0  0  0  0  0  0  0  0
   45.2960   33.7970   44.3600 C   0  0  0  0  0  0  0  0  0  0  0  0
   45.0050   35.0030   44.9690 C   0  0  0  0  0  0  0  0  0  0  0  0
   44.2900   35.8960   44.2510 N   0  0  0  0  0  0  0  0  0  0  0  0
   43.8610   35.6760   43.0070 C   0  0  0  0  0  0  0  0  0  0  0  0
   44.1270   34.5360   42.4030 N   0  0  0  0  0  0  0  0  0  0  0  0
   47.2590   32.4400   44.1370 C   0  0  0  0  0  0  0  0  0  0  0  0
   47.8370   31.2680   43.6600 C   0  0  0  0  0  0  0  0  0  0  0  0
   48.9450   31.5870   42.9370 N   0  0  0  0  0  0  0  0  0  0  0  0
   49.0890   32.9210   42.9410 C   0  0  0  0  0  0  0  0  0  0  0  0
   48.0760   33.4170   43.6600 N   0  0  0  0  0  0  0  0  0  0  0  0
   46.4950   33.1620   46.3420 C   0  0  0  0  0  0  0  0  0  0  0  0
   45.9590   32.3060   47.4280 C   0  0  0  0  0  0  0  0  0  0  0  0
   45.9120   32.3330   48.7900 C   0  0  0  0  0  0  0  0  0  0  0  0
   45.2640   31.2250   49.2010 N   0  0  0  0  0  0  0  0  0  0  0  0
   44.9090   30.5110   48.1310 C   0  0  0  0  0  0  0  0  0  0  0  0
   45.3260   31.1580   47.0430 N   0  0  0  0  0  0  0  0  0  0  0  0
   45.4729   31.7809   45.0540 H   0  0  0  0  0  0  0  0  0  0  0  0
   45.0609   32.6231   42.5419 H   0  0  0  0  0  0  0  0  0  0  0  0
   45.3407   35.2256   45.9926 H   0  0  0  0  0  0  0  0  0  0  0  0
   43.2821   36.4507   42.4829 H   0  0  0  0  0  0  0  0  0  0  0  0
   47.4602   30.2500   43.8381 H   0  0  0  0  0  0  0  0  0  0  0  0
   49.8866   33.4961   42.4479 H   0  0  0  0  0  0  0  0  0  0  0  0
   47.9315   34.4221   43.8324 H   0  0  0  0  0  0  0  0  0  0  0  0
   47.5938   33.1464   46.3917 H   0  0  0  0  0  0  0  0  0  0  0  0
   46.0948   34.1758   46.4905 H   0  0  0  0  0  0  0  0  0  0  0  0
   46.3284   33.1185   49.4378 H   0  0  0  0  0  0  0  0  0  0  0  0
   44.3663   29.5543   48.1446 H   0  0  0  0  0  0  0  0  0  0  0  0
   45.1929   30.8440   46.0711 H   0  0  0  0  0  0  0  0  0  0  0  0
  1 13  1  0
  2  3  2  0
  3  4  1  0
  3  1  1  0
  5  4  2  0
  6  5  1  0
  7  6  2  0
  7  2  1  0
  8  1  1  0
  9  8  2  0
 10 11  2  0
 10  9  1  0
 11 12  1  0
 12  8  1  0
 13 14  1  0
 14 15  2  0
 15 16  1  0
 17 16  2  0
 18 14  1  0
 18 17  1  0
  1 19  1  1
  2 20  1  0
  4 21  1  0
  6 22  1  0
  9 23  1  0
 11 24  1  0
 12 25  1  0
 13 26  1  0
 13 27  1  0
 15 28  1  0
 17 29  1  0
 18 30  1  0
M  ISO  8  19   8  20  14  21  14  22  14  23  14  24  14  25   9  26   8
M  ISO  4  27   8  28  14  29  14  30   9
M  END
>  <minimizedAffinity>  (1) 
-4.62202597

>  <minimizedRMSD>  (1) 
3.62199783

$$$$
