
     RDKit          3D

 39 42  0  0  1  0  0  0  0  0999 V2000
   46.7550   32.9890   42.9330 C   0  0  1  0  0  0  0  0  0  0  0  0
   46.4210   33.4060   45.3240 C   0  0  0  0  0  0  0  0  0  0  0  0
   46.8610   32.5230   44.3290 C   0  0  0  0  0  0  0  0  0  0  0  0
   47.3610   31.2970   44.7210 C   0  0  0  0  0  0  0  0  0  0  0  0
   47.3890   31.0350   46.0400 N   0  0  0  0  0  0  0  0  0  0  0  0
   46.9700   31.8790   46.9810 C   0  0  0  0  0  0  0  0  0  0  0  0
   46.4890   33.0520   46.6310 N   0  0  0  0  0  0  0  0  0  0  0  0
   45.7660   34.0890   42.8890 C   0  0  0  0  0  0  0  0  0  0  0  0
   44.3780   34.1160   42.7160 C   0  0  0  0  0  0  0  0  0  0  0  0
   43.9640   35.4080   42.7380 N   0  0  0  0  0  0  0  0  0  0  0  0
   45.0160   36.1940   42.9170 C   0  0  0  0  0  0  0  0  0  0  0  0
   46.1100   35.4000   43.0080 N   0  0  0  0  0  0  0  0  0  0  0  0
   48.1080   33.4800   42.5040 C   0  0  0  0  0  0  0  0  0  0  0  0
   48.5460   33.0690   41.1720 C   0  0  0  0  0  0  0  0  0  0  0  0
   48.0830   33.3630   39.9180 C   0  0  0  0  0  0  0  0  0  0  0  0
   48.6390   32.8690   38.7610 C   0  0  0  0  0  0  0  0  0  0  0  0
   49.7200   32.0280   38.8180 C   0  0  0  0  0  0  0  0  0  0  0  0
   50.2160   31.7090   40.0640 C   0  0  0  0  0  0  0  0  0  0  0  0
   51.3060   30.8570   40.0620 C   0  0  0  0  0  0  0  0  0  0  0  0
   51.8660   30.4820   41.2440 C   0  0  0  0  0  0  0  0  0  0  0  0
   51.3440   30.9500   42.4310 C   0  0  0  0  0  0  0  0  0  0  0  0
   50.2670   31.7890   42.3880 C   0  0  0  0  0  0  0  0  0  0  0  0
   49.6530   32.2090   41.2300 C   0  0  0  0  0  0  0  0  0  0  0  0
   46.4297   32.1828   42.2590 H   0  0  0  0  0  0  0  0  0  0  0  0
   46.0187   34.3906   45.0435 H   0  0  0  0  0  0  0  0  0  0  0  0
   47.7219   30.5642   43.9843 H   0  0  0  0  0  0  0  0  0  0  0  0
   47.0258   31.5973   48.0428 H   0  0  0  0  0  0  0  0  0  0  0  0
   43.7304   33.2367   42.5842 H   0  0  0  0  0  0  0  0  0  0  0  0
   45.0032   37.2921   42.9802 H   0  0  0  0  0  0  0  0  0  0  0  0
   47.0713   35.7422   43.1482 H   0  0  0  0  0  0  0  0  0  0  0  0
   48.0901   34.5796   42.5280 H   0  0  0  0  0  0  0  0  0  0  0  0
   48.8241   33.0260   43.2048 H   0  0  0  0  0  0  0  0  0  0  0  0
   47.2155   34.0336   39.8304 H   0  0  0  0  0  0  0  0  0  0  0  0
   48.2144   33.1500   37.7859 H   0  0  0  0  0  0  0  0  0  0  0  0
   50.1752   31.6223   37.9025 H   0  0  0  0  0  0  0  0  0  0  0  0
   51.7170   30.4854   39.1117 H   0  0  0  0  0  0  0  0  0  0  0  0
   52.7340   29.8064   41.2524 H   0  0  0  0  0  0  0  0  0  0  0  0
   51.7861   30.6536   43.3937 H   0  0  0  0  0  0  0  0  0  0  0  0
   49.8629   32.1538   43.3438 H   0  0  0  0  0  0  0  0  0  0  0  0
  1  3  1  0
  2  7  2  0
  3  4  2  0
  3  2  1  0
  4  5  1  0
  5  6  2  0
  7  6  1  0
  8  1  1  0
  8 12  1  0
  9 10  1  0
  9  8  2  0
 10 11  2  0
 11 12  1  0
 13  1  1  0
 14 23  1  0
 14 13  1  0
 15 14  2  0
 16 17  2  0
 16 15  1  0
 17 18  1  0
 18 23  2  0
 19 18  1  0
 19 20  2  0
 20 21  1  0
 22 21  2  0
 23 22  1  0
  1 24  1  6
  2 25  1  0
  4 26  1  0
  6 27  1  0
  9 28  1  0
 11 29  1  0
 12 30  1  0
 13 31  1  0
 13 32  1  0
 15 33  1  0
 16 34  1  0
 17 35  1  0
 19 36  1  0
 20 37  1  0
 21 38  1  0
 22 39  1  0
M  ISO  8  24   8  25  14  26  14  27  14  28  14  29  14  30   9  31   8
M  ISO  8  32   8  33  14  34  14  35  14  36  14  37  14  38  14  39  14
M  END
>  <minimizedAffinity>  (1) 
-4.43224049

>  <minimizedRMSD>  (1) 
7.41868877

$$$$
