
     RDKit          3D

 30 32  0  0  1  0  0  0  0  0999 V2000
   46.2810   32.8380   44.4660 C   0  0  1  0  0  0  0  0  0  0  0  0
   44.7740   33.4270   42.6510 C   0  0  0  0  0  0  0  0  0  0  0  0
   45.3550   33.8060   43.8570 C   0  0  0  0  0  0  0  0  0  0  0  0
   45.0240   35.0350   44.3870 C   0  0  0  0  0  0  0  0  0  0  0  0
   44.1530   35.7940   43.6980 N   0  0  0  0  0  0  0  0  0  0  0  0
   43.5880   35.4310   42.5310 C   0  0  0  0  0  0  0  0  0  0  0  0
   43.9000   34.2460   42.0070 N   0  0  0  0  0  0  0  0  0  0  0  0
   47.5560   32.8670   43.7090 C   0  0  0  0  0  0  0  0  0  0  0  0
   48.2880   31.8360   43.1030 C   0  0  0  0  0  0  0  0  0  0  0  0
   49.4040   32.3940   42.5440 N   0  0  0  0  0  0  0  0  0  0  0  0
   49.3890   33.7160   42.7790 C   0  0  0  0  0  0  0  0  0  0  0  0
   48.2780   33.9960   43.4790 N   0  0  0  0  0  0  0  0  0  0  0  0
   46.5330   33.2660   45.8910 C   0  0  0  0  0  0  0  0  0  0  0  0
   45.9320   32.2620   46.7870 N   0  0  0  0  0  0  0  0  0  0  0  0
   45.8190   30.9420   46.6060 N   0  0  0  0  0  0  0  0  0  0  0  0
   45.2040   30.4020   47.6760 C   0  0  0  0  0  0  0  0  0  0  0  0
   44.9040   31.4070   48.5880 C   0  0  0  0  0  0  0  0  0  0  0  0
   45.3850   32.5430   47.9740 C   0  0  0  0  0  0  0  0  0  0  0  0
   45.8607   31.8217   44.4448 H   0  0  0  0  0  0  0  0  0  0  0  0
   45.0253   32.4503   42.2118 H   0  0  0  0  0  0  0  0  0  0  0  0
   45.4559   35.3818   45.3374 H   0  0  0  0  0  0  0  0  0  0  0  0
   42.8813   36.1007   42.0191 H   0  0  0  0  0  0  0  0  0  0  0  0
   48.0140   30.7709   43.0813 H   0  0  0  0  0  0  0  0  0  0  0  0
   50.1510   34.4404   42.4557 H   0  0  0  0  0  0  0  0  0  0  0  0
   48.0093   34.9377   43.7983 H   0  0  0  0  0  0  0  0  0  0  0  0
   47.6157   33.3286   46.0750 H   0  0  0  0  0  0  0  0  0  0  0  0
   46.0872   34.2546   46.0751 H   0  0  0  0  0  0  0  0  0  0  0  0
   44.9753   29.3341   47.8072 H   0  0  0  0  0  0  0  0  0  0  0  0
   44.4038   31.3173   49.5636 H   0  0  0  0  0  0  0  0  0  0  0  0
   45.3263   33.5530   48.4058 H   0  0  0  0  0  0  0  0  0  0  0  0
  1 13  1  0
  2  3  2  0
  3  4  1  0
  3  1  1  0
  5  4  2  0
  6  5  1  0
  7  6  2  0
  7  2  1  0
  8  1  1  0
  9  8  2  0
 10 11  2  0
 10  9  1  0
 11 12  1  0
 12  8  1  0
 13 14  1  0
 14 18  1  0
 15 14  1  0
 15 16  2  0
 16 17  1  0
 18 17  2  0
  1 19  1  1
  2 20  1  0
  4 21  1  0
  6 22  1  0
  9 23  1  0
 11 24  1  0
 12 25  1  0
 13 26  1  0
 13 27  1  0
 16 28  1  0
 17 29  1  0
 18 30  1  0
M  ISO  8  19   8  20  14  21  14  22  14  23  14  24  14  25   9  26   8
M  ISO  4  27   8  28  14  29  14  30  14
M  END
>  <minimizedAffinity>  (1) 
-4.53476763

>  <minimizedRMSD>  (1) 
3.75354481

$$$$
