
     RDKit          3D

 30 32  0  0  1  0  0  0  0  0999 V2000
   46.5450   32.8020   43.3810 C   0  0  1  0  0  0  0  0  0  0  0  0
   46.9780   34.0090   41.3080 C   0  0  0  0  0  0  0  0  0  0  0  0
   47.4110   33.7040   42.6040 C   0  0  0  0  0  0  0  0  0  0  0  0
   48.5910   34.2630   43.0520 C   0  0  0  0  0  0  0  0  0  0  0  0
   49.2490   35.0690   42.2030 N   0  0  0  0  0  0  0  0  0  0  0  0
   48.8390   35.3670   40.9560 C   0  0  0  0  0  0  0  0  0  0  0  0
   47.6960   34.8300   40.5120 N   0  0  0  0  0  0  0  0  0  0  0  0
   46.5420   31.4800   42.7580 C   0  0  0  0  0  0  0  0  0  0  0  0
   45.5470   30.6750   42.2380 C   0  0  0  0  0  0  0  0  0  0  0  0
   46.0920   29.5210   41.7850 N   0  0  0  0  0  0  0  0  0  0  0  0
   47.4160   29.5540   41.9960 C   0  0  0  0  0  0  0  0  0  0  0  0
   47.6690   30.7380   42.5810 N   0  0  0  0  0  0  0  0  0  0  0  0
   47.0930   32.7380   44.7880 C   0  0  0  0  0  0  0  0  0  0  0  0
   46.0650   33.3610   45.7010 C   0  0  0  0  0  0  0  0  0  0  0  0
   45.3490   34.4700   45.3350 C   0  0  0  0  0  0  0  0  0  0  0  0
   44.5030   34.7700   46.4030 C   0  0  0  0  0  0  0  0  0  0  0  0
   44.7400   33.8380   47.3660 N   0  0  0  0  0  0  0  0  0  0  0  0
   45.6770   32.9980   46.9390 N   0  0  0  0  0  0  0  0  0  0  0  0
   45.5078   33.1674   43.4063 H   0  0  0  0  0  0  0  0  0  0  0  0
   46.0399   33.5738   40.9330 H   0  0  0  0  0  0  0  0  0  0  0  0
   48.9760   34.0570   44.0616 H   0  0  0  0  0  0  0  0  0  0  0  0
   49.4306   36.0375   40.3154 H   0  0  0  0  0  0  0  0  0  0  0  0
   44.4781   30.9315   42.1981 H   0  0  0  0  0  0  0  0  0  0  0  0
   48.1464   28.7717   41.7421 H   0  0  0  0  0  0  0  0  0  0  0  0
   48.6097   31.0484   42.8633 H   0  0  0  0  0  0  0  0  0  0  0  0
   47.2669   31.6909   45.0766 H   0  0  0  0  0  0  0  0  0  0  0  0
   48.0504   33.2752   44.8570 H   0  0  0  0  0  0  0  0  0  0  0  0
   45.4261   35.0175   44.3840 H   0  0  0  0  0  0  0  0  0  0  0  0
   43.7831   35.6000   46.4564 H   0  0  0  0  0  0  0  0  0  0  0  0
   44.2682   33.7912   48.2804 H   0  0  0  0  0  0  0  0  0  0  0  0
  1 13  1  0
  2  3  2  0
  3  4  1  0
  3  1  1  0
  5  4  2  0
  6  5  1  0
  7  6  2  0
  7  2  1  0
  8  1  1  0
  9  8  2  0
 10 11  2  0
 10  9  1  0
 11 12  1  0
 12  8  1  0
 13 14  1  0
 14 18  2  0
 15 14  1  0
 15 16  2  0
 16 17  1  0
 18 17  1  0
  1 19  1  1
  2 20  1  0
  4 21  1  0
  6 22  1  0
  9 23  1  0
 11 24  1  0
 12 25  1  0
 13 26  1  0
 13 27  1  0
 15 28  1  0
 16 29  1  0
 17 30  1  0
M  ISO  8  19   8  20  14  21  14  22  14  23  14  24  14  25   9  26   8
M  ISO  4  27   8  28  14  29  14  30   9
M  END
>  <minimizedAffinity>  (1) 
-3.84645796

>  <minimizedRMSD>  (1) 
3.42733717

$$$$
