
     RDKit          3D

 43 46  0  0  1  0  0  0  0  0999 V2000
   44.5040   35.9340   44.8870 C   0  0  0  0  0  0  0  0  0  0  0  0
   45.1250   35.9670   43.5800 C   0  0  0  0  0  0  0  0  0  0  0  0
   45.9650   34.9260   43.2600 C   0  0  0  0  0  0  0  0  0  0  0  0
   46.1590   33.9380   44.1840 N   0  0  0  0  0  0  0  0  0  0  0  0
   45.5610   33.9500   45.3840 C   0  0  0  0  0  0  0  0  0  0  0  0
   44.7510   34.9260   45.7300 N   0  0  0  0  0  0  0  0  0  0  0  0
   45.8270   32.8440   46.3250 N   0  0  0  0  0  0  0  0  0  0  0  0
   45.1700   32.8370   47.6150 C   0  0  0  0  0  0  0  0  0  0  0  0
   46.0690   32.2780   48.6860 C   0  0  0  0  0  0  0  0  0  0  0  0
   47.4840   32.2570   48.2210 C   0  0  0  0  0  0  0  0  0  0  0  0
   47.5350   31.2560   47.0590 C   0  0  0  0  0  0  0  0  0  0  0  0
   46.7570   31.7740   45.9250 C   0  0  1  0  0  0  0  0  0  0  0  0
   46.0500   30.7200   45.1440 C   0  0  0  0  0  0  0  0  0  0  0  0
   45.9900   30.5750   43.8250 N   0  0  0  0  0  0  0  0  0  0  0  0
   45.2770   29.5240   43.4870 O   0  0  0  0  0  0  0  0  0  0  0  0
   44.8630   28.9710   44.6170 C   0  0  0  0  0  0  0  0  0  0  0  0
   45.3170   29.6770   45.6750 N   0  0  0  0  0  0  0  0  0  0  0  0
   43.8510   27.4980   44.6020 S   0  0  0  0  0  0  0  0  0  0  0  0
   44.3470   26.5410   46.0350 C   0  0  0  0  0  0  0  0  0  0  0  0
   45.3050   25.7580   46.5730 N   0  0  0  0  0  0  0  0  0  0  0  0
   44.9470   25.3890   47.7530 O   0  0  0  0  0  0  0  0  0  0  0  0
   43.7730   25.8720   48.0840 C   0  0  0  0  0  0  0  0  0  0  0  0
   43.4030   26.5930   47.0030 N   0  0  0  0  0  0  0  0  0  0  0  0
   43.0480   25.6830   49.3060 N   0  0  0  0  0  0  0  0  0  0  0  0
   43.7180   25.7910   50.5520 C   0  0  0  0  0  0  0  0  0  0  0  0
   44.9300   25.3730   50.6720 N   0  0  0  0  0  0  0  0  0  0  0  0
   43.0560   26.3590   51.6730 N   0  0  0  0  0  0  0  0  0  0  0  0
   45.4490   24.9500   49.8760 H   0  0  0  0  0  0  0  0  0  0  0  0
   43.8239   36.7441   45.1890 H   0  0  0  0  0  0  0  0  0  0  0  0
   44.9336   36.7884   42.8738 H   0  0  0  0  0  0  0  0  0  0  0  0
   46.4690   34.8895   42.2829 H   0  0  0  0  0  0  0  0  0  0  0  0
   44.8937   33.8678   47.8816 H   0  0  0  0  0  0  0  0  0  0  0  0
   44.2765   32.1993   47.5452 H   0  0  0  0  0  0  0  0  0  0  0  0
   45.9931   32.9056   49.5862 H   0  0  0  0  0  0  0  0  0  0  0  0
   45.7540   31.2489   48.9134 H   0  0  0  0  0  0  0  0  0  0  0  0
   47.7878   33.2568   47.8773 H   0  0  0  0  0  0  0  0  0  0  0  0
   48.1692   31.9674   49.0314 H   0  0  0  0  0  0  0  0  0  0  0  0
   48.5800   31.1088   46.7487 H   0  0  0  0  0  0  0  0  0  0  0  0
   47.1082   30.2963   47.3857 H   0  0  0  0  0  0  0  0  0  0  0  0
   47.5079   32.2083   45.2486 H   0  0  0  0  0  0  0  0  0  0  0  0
   42.0409   25.4688   49.2796 H   0  0  0  0  0  0  0  0  0  0  0  0
   43.5457   26.4357   52.5759 H   0  0  0  0  0  0  0  0  0  0  0  0
   42.0862   26.6942   51.5830 H   0  0  0  0  0  0  0  0  0  0  0  0
  1  6  2  0
  2  1  1  0
  3  2  2  0
  3  4  1  0
  4  5  2  0
  5  6  1  0
  5  7  1  0
  7  8  1  0
  8  9  1  0
 10  9  1  0
 11 10  1  0
 12  7  1  0
 12 11  1  0
 13 17  1  0
 13 12  1  0
 14 13  2  0
 15 14  1  0
 15 16  1  0
 16 17  2  0
 18 16  1  0
 18 19  1  0
 19 20  2  0
 19 23  1  0
 20 21  1  0
 21 22  1  0
 22 24  1  0
 23 22  2  0
 24 25  1  0
 25 26  2  0
 25 27  1  0
 28 26  1  0
  1 29  1  0
  2 30  1  0
  3 31  1  0
  8 32  1  0
  8 33  1  0
  9 34  1  0
  9 35  1  0
 10 36  1  0
 10 37  1  0
 11 38  1  0
 11 39  1  0
 12 40  1  6
 24 41  1  0
 27 42  1  0
 27 43  1  0
M  ISO  8  29  14  30  14  31  14  32  13  33  13  34  13  35  13  36  13
M  ISO  4  37  13  38  13  39  13  40  13
M  END
>  <minimizedAffinity>  (1) 
-7.0865221

>  <minimizedRMSD>  (1) 
1.28587627

$$$$
