
     RDKit          3D

 40 42  0  0  1  0  0  0  0  0999 V2000
   46.8830   32.9160   43.9130 C   0  0  1  0  0  0  0  0  0  0  0  0
   45.3950   34.3270   45.2220 C   0  0  0  0  0  0  0  0  0  0  0  0
   46.0610   34.1540   44.0030 C   0  0  0  0  0  0  0  0  0  0  0  0
   45.9070   35.0850   43.0120 C   0  0  0  0  0  0  0  0  0  0  0  0
   45.1060   36.1260   43.2900 N   0  0  0  0  0  0  0  0  0  0  0  0
   44.4580   36.3110   44.4560 C   0  0  0  0  0  0  0  0  0  0  0  0
   44.6090   35.3940   45.4330 N   0  0  0  0  0  0  0  0  0  0  0  0
   48.0630   33.1850   43.1190 C   0  0  0  0  0  0  0  0  0  0  0  0
   48.6310   32.5600   42.0180 C   0  0  0  0  0  0  0  0  0  0  0  0
   49.7720   33.2280   41.6750 N   0  0  0  0  0  0  0  0  0  0  0  0
   49.9350   34.2520   42.5270 C   0  0  0  0  0  0  0  0  0  0  0  0
   48.9100   34.2280   43.3950 N   0  0  0  0  0  0  0  0  0  0  0  0
   47.1940   32.4820   45.3030 C   0  0  0  0  0  0  0  0  0  0  0  0
   46.9630   30.9960   45.4230 C   0  0  0  0  0  0  0  0  0  0  0  0
   47.7540   29.9650   45.0860 N   0  0  0  0  0  0  0  0  0  0  0  0
   47.1630   28.8520   45.3630 O   0  0  0  0  0  0  0  0  0  0  0  0
   45.9710   29.0940   45.8880 C   0  0  0  0  0  0  0  0  0  0  0  0
   45.8370   30.4500   45.9300 N   0  0  0  0  0  0  0  0  0  0  0  0
   44.9890   28.0910   46.3360 C   0  0  0  0  0  0  0  0  0  0  0  0
   44.9730   28.0550   47.8420 C   0  0  0  0  0  0  0  0  0  0  0  0
   43.6170   28.4170   45.8410 C   0  0  0  0  0  0  0  0  0  0  0  0
   45.4290   26.7420   45.8090 C   0  0  0  0  0  0  0  0  0  0  0  0
   46.3498   32.0959   43.4098 H   0  0  0  0  0  0  0  0  0  0  0  0
   45.5176   33.5779   46.0181 H   0  0  0  0  0  0  0  0  0  0  0  0
   46.4123   34.9858   42.0400 H   0  0  0  0  0  0  0  0  0  0  0  0
   43.8182   37.1927   44.6084 H   0  0  0  0  0  0  0  0  0  0  0  0
   48.2289   31.6733   41.5061 H   0  0  0  0  0  0  0  0  0  0  0  0
   50.7596   34.9800   42.5165 H   0  0  0  0  0  0  0  0  0  0  0  0
   48.7781   34.9012   44.1633 H   0  0  0  0  0  0  0  0  0  0  0  0
   48.2451   32.7105   45.5331 H   0  0  0  0  0  0  0  0  0  0  0  0
   46.5424   33.0153   46.0108 H   0  0  0  0  0  0  0  0  0  0  0  0
   45.3902   28.9936   48.2357 H   0  0  0  0  0  0  0  0  0  0  0  0
   43.9378   27.9373   48.1950 H   0  0  0  0  0  0  0  0  0  0  0  0
   45.5793   27.2078   48.1950 H   0  0  0  0  0  0  0  0  0  0  0  0
   42.9462   28.5764   46.6981 H   0  0  0  0  0  0  0  0  0  0  0  0
   43.6551   29.3311   45.2303 H   0  0  0  0  0  0  0  0  0  0  0  0
   43.2399   27.5835   45.2303 H   0  0  0  0  0  0  0  0  0  0  0  0
   45.6476   26.0719   46.6535 H   0  0  0  0  0  0  0  0  0  0  0  0
   44.6257   26.3084   45.1952 H   0  0  0  0  0  0  0  0  0  0  0  0
   46.3335   26.8654   45.1952 H   0  0  0  0  0  0  0  0  0  0  0  0
  1  3  1  0
  1 13  1  0
  2  7  2  0
  3  2  1  0
  4  5  1  0
  4  3  2  0
  5  6  2  0
  6  7  1  0
  8 12  1  0
  8  1  1  0
  9  8  2  0
 10  9  1  0
 10 11  2  0
 11 12  1  0
 13 14  1  0
 14 18  1  0
 15 16  1  0
 15 14  2  0
 16 17  1  0
 17 18  2  0
 17 19  1  0
 19 20  1  0
 21 19  1  0
 22 19  1  0
  1 23  1  6
  2 24  1  0
  4 25  1  0
  6 26  1  0
  9 27  1  0
 11 28  1  0
 12 29  1  0
 13 30  1  0
 13 31  1  0
 20 32  1  0
 20 33  1  0
 20 34  1  0
 21 35  1  0
 21 36  1  0
 21 37  1  0
 22 38  1  0
 22 39  1  0
 22 40  1  0
M  ISO  8  23   8  24  14  25  14  26  14  27  14  28  14  29   9  30   8
M  ISO  8  31   8  32   8  33   8  34   8  35   8  36   8  37   8  38   8
M  ISO  2  39   8  40   8
M  END
>  <minimizedAffinity>  (1) 
-4.80589819

>  <minimizedRMSD>  (1) 
3.41375613

$$$$
