
     RDKit          3D

 31 33  0  0  1  0  0  0  0  0999 V2000
   46.4920   32.8670   43.5470 C   0  0  1  0  0  0  0  0  0  0  0  0
   45.2020   34.4130   44.9020 C   0  0  0  0  0  0  0  0  0  0  0  0
   45.8860   34.2190   43.6950 C   0  0  0  0  0  0  0  0  0  0  0  0
   45.9420   35.2300   42.7730 C   0  0  0  0  0  0  0  0  0  0  0  0
   45.3160   36.3700   43.1090 N   0  0  0  0  0  0  0  0  0  0  0  0
   44.6540   36.5830   44.2630 C   0  0  0  0  0  0  0  0  0  0  0  0
   44.6030   35.5960   45.1530 N   0  0  0  0  0  0  0  0  0  0  0  0
   47.3140   32.8470   42.3550 C   0  0  0  0  0  0  0  0  0  0  0  0
   47.0550   32.5330   41.0300 C   0  0  0  0  0  0  0  0  0  0  0  0
   48.2110   32.6620   40.3160 N   0  0  0  0  0  0  0  0  0  0  0  0
   49.1860   33.0450   41.1520 C   0  0  0  0  0  0  0  0  0  0  0  0
   48.6500   33.1580   42.3780 N   0  0  0  0  0  0  0  0  0  0  0  0
   47.2620   32.5820   44.7940 C   0  0  0  0  0  0  0  0  0  0  0  0
   46.4880   31.5900   45.6300 C   0  0  0  0  0  0  0  0  0  0  0  0
   45.8100   30.4920   45.2500 N   0  0  0  0  0  0  0  0  0  0  0  0
   45.2890   29.9240   46.3020 O   0  0  0  0  0  0  0  0  0  0  0  0
   45.6020   30.6120   47.3770 C   0  0  0  0  0  0  0  0  0  0  0  0
   46.3600   31.6700   46.9700 N   0  0  0  0  0  0  0  0  0  0  0  0
   45.1900   30.2680   48.7330 C   0  0  0  0  0  0  0  0  0  0  0  0
   45.0280   31.2450   49.5230 O   0  0  0  0  0  0  0  0  0  0  0  0
   44.9970   28.9430   49.0980 O   0  0  0  0  0  0  0  0  0  0  0  0
   45.7344   32.0793   43.4222 H   0  0  0  0  0  0  0  0  0  0  0  0
   45.1532   33.6024   45.6440 H   0  0  0  0  0  0  0  0  0  0  0  0
   46.4685   35.1153   41.8140 H   0  0  0  0  0  0  0  0  0  0  0  0
   44.1679   37.5491   44.4640 H   0  0  0  0  0  0  0  0  0  0  0  0
   46.0795   32.2301   40.6217 H   0  0  0  0  0  0  0  0  0  0  0  0
   50.2358   33.2329   40.8825 H   0  0  0  0  0  0  0  0  0  0  0  0
   49.1709   33.4397   43.2207 H   0  0  0  0  0  0  0  0  0  0  0  0
   48.2436   32.1592   44.5336 H   0  0  0  0  0  0  0  0  0  0  0  0
   47.4106   33.5125   45.3616 H   0  0  0  0  0  0  0  0  0  0  0  0
   44.7173   28.7195   50.0210 H   0  0  0  0  0  0  0  0  0  0  0  0
  1  3  1  0
  1 13  1  0
  2  7  2  0
  3  2  1  0
  4  5  1  0
  4  3  2  0
  5  6  2  0
  6  7  1  0
  8 12  1  0
  8  1  1  0
  9  8  2  0
 10  9  1  0
 10 11  2  0
 11 12  1  0
 13 14  1  0
 14 18  1  0
 15 14  2  0
 15 16  1  0
 16 17  1  0
 17 19  1  0
 18 17  2  0
 19 21  1  0
 19 20  2  0
  1 22  1  6
  2 23  1  0
  4 24  1  0
  6 25  1  0
  9 26  1  0
 11 27  1  0
 12 28  1  0
 13 29  1  0
 13 30  1  0
 21 31  1  0
M  ISO  8  22   8  23  14  24  14  25  14  26  14  27  14  28   9  29   8
M  ISO  2  30   8  31   3
M  END
>  <minimizedAffinity>  (1) 
-4.8085103

>  <minimizedRMSD>  (1) 
2.39716291

$$$$
