
     RDKit          3D

 39 42  0  0  1  0  0  0  0  0999 V2000
   44.6050   35.6690   44.8410 C   0  0  0  0  0  0  0  0  0  0  0  0
   45.3000   35.7010   43.5800 C   0  0  0  0  0  0  0  0  0  0  0  0
   46.2140   34.6920   43.3380 C   0  0  0  0  0  0  0  0  0  0  0  0
   46.3970   33.7370   44.3050 N   0  0  0  0  0  0  0  0  0  0  0  0
   45.7220   33.7560   45.4590 C   0  0  0  0  0  0  0  0  0  0  0  0
   44.8460   34.7000   45.7240 N   0  0  0  0  0  0  0  0  0  0  0  0
   45.9800   32.6910   46.4500 N   0  0  0  0  0  0  0  0  0  0  0  0
   45.2390   32.6950   47.6930 C   0  0  0  0  0  0  0  0  0  0  0  0
   46.0980   32.2080   48.8380 C   0  0  0  0  0  0  0  0  0  0  0  0
   47.5360   32.2410   48.4640 C   0  0  0  0  0  0  0  0  0  0  0  0
   47.7140   31.2100   47.3340 C   0  0  0  0  0  0  0  0  0  0  0  0
   46.9860   31.6570   46.1410 C   0  0  1  0  0  0  0  0  0  0  0  0
   46.3760   30.5490   45.3510 C   0  0  0  0  0  0  0  0  0  0  0  0
   46.8770   29.3490   45.0890 N   0  0  0  0  0  0  0  0  0  0  0  0
   46.0500   28.6330   44.3640 O   0  0  0  0  0  0  0  0  0  0  0  0
   44.9840   29.3850   44.1510 C   0  0  0  0  0  0  0  0  0  0  0  0
   45.1340   30.5910   44.7430 N   0  0  0  0  0  0  0  0  0  0  0  0
   43.6010   28.7640   43.1870 S   0  0  0  0  0  0  0  0  0  0  0  0
   43.0720   27.2540   44.0110 C   0  0  0  0  0  0  0  0  0  0  0  0
   43.2720   25.9240   44.1300 N   0  0  0  0  0  0  0  0  0  0  0  0
   42.4430   25.4380   44.9960 O   0  0  0  0  0  0  0  0  0  0  0  0
   41.6710   26.3820   45.4870 C   0  0  0  0  0  0  0  0  0  0  0  0
   42.0650   27.5220   44.8690 N   0  0  0  0  0  0  0  0  0  0  0  0
   40.6510   26.0310   46.4950 C   0  0  0  0  0  0  0  0  0  0  0  0
   39.7820   27.0910   46.7340 F   0  0  0  0  0  0  0  0  0  0  0  0
   41.3230   25.6760   47.6540 F   0  0  0  0  0  0  0  0  0  0  0  0
   39.8660   24.9810   46.0710 F   0  0  0  0  0  0  0  0  0  0  0  0
   43.8687   36.4512   45.0776 H   0  0  0  0  0  0  0  0  0  0  0  0
   45.1118   36.4940   42.8412 H   0  0  0  0  0  0  0  0  0  0  0  0
   46.7792   34.6563   42.3950 H   0  0  0  0  0  0  0  0  0  0  0  0
   44.9015   33.7198   47.9072 H   0  0  0  0  0  0  0  0  0  0  0  0
   44.3774   32.0190   47.5893 H   0  0  0  0  0  0  0  0  0  0  0  0
   45.9368   32.8562   49.7120 H   0  0  0  0  0  0  0  0  0  0  0  0
   45.8172   31.1714   49.0761 H   0  0  0  0  0  0  0  0  0  0  0  0
   47.8145   33.2448   48.1107 H   0  0  0  0  0  0  0  0  0  0  0  0
   48.1780   32.0042   49.3252 H   0  0  0  0  0  0  0  0  0  0  0  0
   48.7830   31.1101   47.0946 H   0  0  0  0  0  0  0  0  0  0  0  0
   47.3175   30.2374   47.6609 H   0  0  0  0  0  0  0  0  0  0  0  0
   47.7588   32.1076   45.5008 H   0  0  0  0  0  0  0  0  0  0  0  0
  1  6  2  0
  2  1  1  0
  3  2  2  0
  3  4  1  0
  4  5  2  0
  5  6  1  0
  5  7  1  0
  7  8  1  0
  8  9  1  0
 10  9  1  0
 11 10  1  0
 12  7  1  0
 12 11  1  0
 13 12  1  0
 14 13  2  0
 15 14  1  0
 16 15  1  0
 16 17  2  0
 17 13  1  0
 18 19  1  0
 18 16  1  0
 19 20  2  0
 19 23  1  0
 20 21  1  0
 21 22  1  0
 22 24  1  0
 23 22  2  0
 24 25  1  0
 24 26  1  0
 27 24  1  0
  1 28  1  0
  2 29  1  0
  3 30  1  0
  8 31  1  0
  8 32  1  0
  9 33  1  0
  9 34  1  0
 10 35  1  0
 10 36  1  0
 11 37  1  0
 11 38  1  0
 12 39  1  6
M  ISO  8  28  14  29  14  30  14  31  13  32  13  33  13  34  13  35  13
M  ISO  4  36  13  37  13  38  13  39  13
M  END
>  <minimizedAffinity>  (1) 
-5.87501287

>  <minimizedRMSD>  (1) 
1.76086807

$$$$
