
     RDKit          3D

 30 32  0  0  1  0  0  0  0  0999 V2000
   45.8030   32.6200   44.9400 C   0  0  1  0  0  0  0  0  0  0  0  0
   44.8520   34.8490   45.1590 C   0  0  0  0  0  0  0  0  0  0  0  0
   45.6060   33.9760   44.3660 C   0  0  0  0  0  0  0  0  0  0  0  0
   46.0860   34.3960   43.1530 C   0  0  0  0  0  0  0  0  0  0  0  0
   45.7860   35.6560   42.8070 N   0  0  0  0  0  0  0  0  0  0  0  0
   45.0660   36.5170   43.5420 C   0  0  0  0  0  0  0  0  0  0  0  0
   44.5970   36.1010   44.7320 N   0  0  0  0  0  0  0  0  0  0  0  0
   45.6190   31.6230   43.9110 C   0  0  0  0  0  0  0  0  0  0  0  0
   44.5220   31.2260   43.1580 C   0  0  0  0  0  0  0  0  0  0  0  0
   44.9170   30.2080   42.3320 N   0  0  0  0  0  0  0  0  0  0  0  0
   46.2000   29.9600   42.5390 C   0  0  0  0  0  0  0  0  0  0  0  0
   46.6310   30.8080   43.4900 N   0  0  0  0  0  0  0  0  0  0  0  0
   47.1380   32.5850   45.5830 C   0  0  0  0  0  0  0  0  0  0  0  0
   47.0200   32.0650   46.9880 C   0  0  0  0  0  0  0  0  0  0  0  0
   47.8670   31.3670   47.7520 N   0  0  0  0  0  0  0  0  0  0  0  0
   47.3310   31.1380   48.9150 O   0  0  0  0  0  0  0  0  0  0  0  0
   46.1270   31.6690   48.9650 C   0  0  0  0  0  0  0  0  0  0  0  0
   45.9190   32.2580   47.7520 N   0  0  0  0  0  0  0  0  0  0  0  0
   45.0730   31.7670   49.9090 N   0  0  0  0  0  0  0  0  0  0  0  0
   45.0568   32.3883   45.7143 H   0  0  0  0  0  0  0  0  0  0  0  0
   44.4669   34.5121   46.1328 H   0  0  0  0  0  0  0  0  0  0  0  0
   46.6816   33.7388   42.5024 H   0  0  0  0  0  0  0  0  0  0  0  0
   44.8645   37.5363   43.1809 H   0  0  0  0  0  0  0  0  0  0  0  0
   43.5107   31.6551   43.2152 H   0  0  0  0  0  0  0  0  0  0  0  0
   46.8050   29.1979   42.0260 H   0  0  0  0  0  0  0  0  0  0  0  0
   47.5948   30.8386   43.8521 H   0  0  0  0  0  0  0  0  0  0  0  0
   47.8030   31.9259   45.0056 H   0  0  0  0  0  0  0  0  0  0  0  0
   47.5522   33.6037   45.6093 H   0  0  0  0  0  0  0  0  0  0  0  0
   44.2055   32.2647   49.6626 H   0  0  0  0  0  0  0  0  0  0  0  0
   45.1750   31.3405   50.8410 H   0  0  0  0  0  0  0  0  0  0  0  0
  1 13  1  0
  3  1  1  0
  3  2  2  0
  4  3  1  0
  5  4  2  0
  5  6  1  0
  6  7  2  0
  7  2  1  0
  8  1  1  0
  9  8  2  0
 10 11  2  0
 10  9  1  0
 11 12  1  0
 12  8  1  0
 13 14  1  0
 14 15  2  0
 14 18  1  0
 15 16  1  0
 16 17  1  0
 17 19  1  0
 18 17  2  0
  1 20  1  1
  2 21  1  0
  4 22  1  0
  6 23  1  0
  9 24  1  0
 11 25  1  0
 12 26  1  0
 13 27  1  0
 13 28  1  0
 19 29  1  0
 19 30  1  0
M  ISO  8  20   8  21  14  22  14  23  14  24  14  25  14  26   9  27   8
M  ISO  1  28   8
M  END
>  <minimizedAffinity>  (1) 
-4.48780727

>  <minimizedRMSD>  (1) 
1.01205671

$$$$
