
     RDKit          3D

 33 36  0  0  1  0  0  0  0  0999 V2000
   46.8640   32.8670   43.9780 C   0  0  1  0  0  0  0  0  0  0  0  0
   45.3850   34.3270   45.2400 C   0  0  0  0  0  0  0  0  0  0  0  0
   46.0540   34.1130   44.0290 C   0  0  0  0  0  0  0  0  0  0  0  0
   45.9120   35.0180   43.0120 C   0  0  0  0  0  0  0  0  0  0  0  0
   45.1170   36.0760   43.2610 N   0  0  0  0  0  0  0  0  0  0  0  0
   44.4670   36.2970   44.4170 C   0  0  0  0  0  0  0  0  0  0  0  0
   44.6080   35.4040   45.4190 N   0  0  0  0  0  0  0  0  0  0  0  0
   48.0580   33.1080   43.1930 C   0  0  0  0  0  0  0  0  0  0  0  0
   48.6730   32.4170   42.1610 C   0  0  0  0  0  0  0  0  0  0  0  0
   49.8040   33.0850   41.7950 N   0  0  0  0  0  0  0  0  0  0  0  0
   49.9170   34.1780   42.5700 C   0  0  0  0  0  0  0  0  0  0  0  0
   48.8700   34.1930   43.4110 N   0  0  0  0  0  0  0  0  0  0  0  0
   47.1580   32.4660   45.3850 C   0  0  0  0  0  0  0  0  0  0  0  0
   47.0070   30.9670   45.5090 C   0  0  0  0  0  0  0  0  0  0  0  0
   47.9270   29.9940   45.3920 N   0  0  0  0  0  0  0  0  0  0  0  0
   47.3640   28.8350   45.5760 O   0  0  0  0  0  0  0  0  0  0  0  0
   46.0820   29.0030   45.8150 C   0  0  0  0  0  0  0  0  0  0  0  0
   45.8390   30.3450   45.7760 N   0  0  0  0  0  0  0  0  0  0  0  0
   44.9520   28.1220   46.0900 C   0  0  0  0  0  0  0  0  0  0  0  0
   44.9220   27.3650   47.2050 N   0  0  0  0  0  0  0  0  0  0  0  0
   43.8130   26.6660   47.2260 O   0  0  0  0  0  0  0  0  0  0  0  0
   43.0900   26.9360   46.1440 C   0  0  0  0  0  0  0  0  0  0  0  0
   43.8020   27.8520   45.4260 N   0  0  0  0  0  0  0  0  0  0  0  0
   46.3286   32.0401   43.4885 H   0  0  0  0  0  0  0  0  0  0  0  0
   45.4989   33.5997   46.0574 H   0  0  0  0  0  0  0  0  0  0  0  0
   46.4193   34.8882   42.0446 H   0  0  0  0  0  0  0  0  0  0  0  0
   43.8334   37.1873   44.5435 H   0  0  0  0  0  0  0  0  0  0  0  0
   48.3082   31.4821   41.7106 H   0  0  0  0  0  0  0  0  0  0  0  0
   50.7225   34.9257   42.5235 H   0  0  0  0  0  0  0  0  0  0  0  0
   48.6998   34.9188   44.1217 H   0  0  0  0  0  0  0  0  0  0  0  0
   48.1869   32.7561   45.6443 H   0  0  0  0  0  0  0  0  0  0  0  0
   46.4589   32.9688   46.0695 H   0  0  0  0  0  0  0  0  0  0  0  0
   42.1123   26.5065   45.8799 H   0  0  0  0  0  0  0  0  0  0  0  0
  1  3  1  0
  1 13  1  0
  2  7  2  0
  3  2  1  0
  4  5  1  0
  4  3  2  0
  5  6  2  0
  6  7  1  0
  8 12  1  0
  8  1  1  0
  9  8  2  0
 10  9  1  0
 10 11  2  0
 11 12  1  0
 13 14  1  0
 14 18  1  0
 15 14  2  0
 15 16  1  0
 16 17  1  0
 17 19  1  0
 18 17  2  0
 19 20  2  0
 20 21  1  0
 22 21  1  0
 23 19  1  0
 23 22  2  0
  1 24  1  6
  2 25  1  0
  4 26  1  0
  6 27  1  0
  9 28  1  0
 11 29  1  0
 12 30  1  0
 13 31  1  0
 13 32  1  0
 22 33  1  0
M  ISO  8  24   8  25  14  26  14  27  14  28  14  29  14  30   9  31   8
M  ISO  2  32   8  33  14
M  END
>  <minimizedAffinity>  (1) 
-4.75337267

>  <minimizedRMSD>  (1) 
3.70197105

$$$$
