
     RDKit          3D

 29 31  0  0  1  0  0  0  0  0999 V2000
   45.7650   32.6630   44.9400 C   0  0  1  0  0  0  0  0  0  0  0  0
   44.8340   34.9040   45.0960 C   0  0  0  0  0  0  0  0  0  0  0  0
   45.5990   34.0120   44.3360 C   0  0  0  0  0  0  0  0  0  0  0  0
   46.1110   34.4210   43.1300 C   0  0  0  0  0  0  0  0  0  0  0  0
   45.8280   35.6780   42.7690 N   0  0  0  0  0  0  0  0  0  0  0  0
   45.0980   36.5540   43.4800 C   0  0  0  0  0  0  0  0  0  0  0  0
   44.5950   36.1520   44.6640 N   0  0  0  0  0  0  0  0  0  0  0  0
   45.6170   31.6600   43.9070 C   0  0  0  0  0  0  0  0  0  0  0  0
   44.5460   31.2510   43.1270 C   0  0  0  0  0  0  0  0  0  0  0  0
   44.9580   30.2390   42.3130 N   0  0  0  0  0  0  0  0  0  0  0  0
   46.2480   29.9970   42.5540 C   0  0  0  0  0  0  0  0  0  0  0  0
   46.6530   30.8480   43.5120 N   0  0  0  0  0  0  0  0  0  0  0  0
   47.0980   32.6260   45.6020 C   0  0  0  0  0  0  0  0  0  0  0  0
   46.9260   32.2020   47.0410 C   0  0  0  0  0  0  0  0  0  0  0  0
   47.7990   31.6200   47.8820 N   0  0  0  0  0  0  0  0  0  0  0  0
   47.2300   31.4290   49.0360 O   0  0  0  0  0  0  0  0  0  0  0  0
   45.9890   31.8700   48.9920 C   0  0  0  0  0  0  0  0  0  0  0  0
   45.7710   32.3660   47.7390 N   0  0  0  0  0  0  0  0  0  0  0  0
   45.1090   31.8110   50.0740 O   0  0  0  0  0  0  0  0  0  0  0  0
   44.9983   32.4502   45.6995 H   0  0  0  0  0  0  0  0  0  0  0  0
   44.4223   34.5772   46.0623 H   0  0  0  0  0  0  0  0  0  0  0  0
   46.7175   33.7554   42.4982 H   0  0  0  0  0  0  0  0  0  0  0  0
   44.9158   37.5722   43.1056 H   0  0  0  0  0  0  0  0  0  0  0  0
   43.5311   31.6739   43.1600 H   0  0  0  0  0  0  0  0  0  0  0  0
   46.8689   29.2368   42.0573 H   0  0  0  0  0  0  0  0  0  0  0  0
   47.6076   30.8864   43.8969 H   0  0  0  0  0  0  0  0  0  0  0  0
   47.7474   31.9067   45.0816 H   0  0  0  0  0  0  0  0  0  0  0  0
   47.5577   33.6246   45.5633 H   0  0  0  0  0  0  0  0  0  0  0  0
   44.1867   32.1587   49.9815 H   0  0  0  0  0  0  0  0  0  0  0  0
  1 13  1  0
  3  1  1  0
  3  2  2  0
  4  3  1  0
  5  4  2  0
  5  6  1  0
  6  7  2  0
  7  2  1  0
  8  1  1  0
  9  8  2  0
 10 11  2  0
 10  9  1  0
 11 12  1  0
 12  8  1  0
 13 14  1  0
 14 18  1  0
 14 15  2  0
 15 16  1  0
 17 16  1  0
 17 19  1  0
 18 17  2  0
  1 20  1  1
  2 21  1  0
  4 22  1  0
  6 23  1  0
  9 24  1  0
 11 25  1  0
 12 26  1  0
 13 27  1  0
 13 28  1  0
 19 29  1  0
M  ISO  8  20   8  21  14  22  14  23  14  24  14  25  14  26   9  27   8
M  ISO  2  28   8  29   3
M  END
>  <minimizedAffinity>  (1) 
-4.63210583

>  <minimizedRMSD>  (1) 
0.977654636

$$$$
