
     RDKit          3D

 37 40  0  0  1  0  0  0  0  0999 V2000
   44.5470   35.8300   44.9160 C   0  0  0  0  0  0  0  0  0  0  0  0
   45.1810   35.8280   43.6270 C   0  0  0  0  0  0  0  0  0  0  0  0
   46.0160   34.7760   43.3470 C   0  0  0  0  0  0  0  0  0  0  0  0
   46.1920   33.8080   44.2990 N   0  0  0  0  0  0  0  0  0  0  0  0
   45.5810   33.8530   45.4830 C   0  0  0  0  0  0  0  0  0  0  0  0
   44.7740   34.8440   45.7880 N   0  0  0  0  0  0  0  0  0  0  0  0
   45.8250   32.7710   46.4550 N   0  0  0  0  0  0  0  0  0  0  0  0
   45.1420   32.8090   47.7320 C   0  0  0  0  0  0  0  0  0  0  0  0
   46.0250   32.2710   48.8350 C   0  0  0  0  0  0  0  0  0  0  0  0
   47.4460   32.2290   48.3980 C   0  0  0  0  0  0  0  0  0  0  0  0
   47.5150   31.1960   47.2560 C   0  0  0  0  0  0  0  0  0  0  0  0
   46.7570   31.6860   46.0990 C   0  0  1  0  0  0  0  0  0  0  0  0
   46.0560   30.6180   45.3330 C   0  0  0  0  0  0  0  0  0  0  0  0
   45.9880   30.4530   44.0190 N   0  0  0  0  0  0  0  0  0  0  0  0
   45.2820   29.3930   43.7060 O   0  0  0  0  0  0  0  0  0  0  0  0
   44.8800   28.8510   44.8440 C   0  0  0  0  0  0  0  0  0  0  0  0
   45.3380   29.5790   45.8750 N   0  0  0  0  0  0  0  0  0  0  0  0
   43.8760   27.3640   44.8530 S   0  0  0  0  0  0  0  0  0  0  0  0
   44.3830   26.4430   46.3150 C   0  0  0  0  0  0  0  0  0  0  0  0
   45.3430   25.6620   46.8630 N   0  0  0  0  0  0  0  0  0  0  0  0
   45.0000   25.3350   48.0640 O   0  0  0  0  0  0  0  0  0  0  0  0
   43.8350   25.8570   48.3760 C   0  0  0  0  0  0  0  0  0  0  0  0
   43.4370   26.5630   47.2680 N   0  0  0  0  0  0  0  0  0  0  0  0
   43.2740   25.6300   49.6270 O   0  0  0  0  0  0  0  0  0  0  0  0
   43.8679   36.6516   45.1876 H   0  0  0  0  0  0  0  0  0  0  0  0
   45.0051   36.6328   42.8981 H   0  0  0  0  0  0  0  0  0  0  0  0
   46.5330   34.7117   42.3782 H   0  0  0  0  0  0  0  0  0  0  0  0
   44.8704   33.8494   47.9638 H   0  0  0  0  0  0  0  0  0  0  0  0
   44.2413   32.1810   47.6665 H   0  0  0  0  0  0  0  0  0  0  0  0
   45.9377   32.9221   49.7173 H   0  0  0  0  0  0  0  0  0  0  0  0
   45.7004   31.2491   49.0809 H   0  0  0  0  0  0  0  0  0  0  0  0
   47.7631   33.2184   48.0367 H   0  0  0  0  0  0  0  0  0  0  0  0
   48.1125   31.9532   49.2285 H   0  0  0  0  0  0  0  0  0  0  0  0
   48.5648   31.0409   46.9663 H   0  0  0  0  0  0  0  0  0  0  0  0
   47.0818   30.2447   47.5988 H   0  0  0  0  0  0  0  0  0  0  0  0
   47.5231   32.0973   45.4252 H   0  0  0  0  0  0  0  0  0  0  0  0
   42.3960   26.0265   49.8551 H   0  0  0  0  0  0  0  0  0  0  0  0
  1  6  2  0
  2  1  1  0
  3  2  2  0
  3  4  1  0
  4  5  2  0
  5  6  1  0
  5  7  1  0
  7  8  1  0
  8  9  1  0
 10  9  1  0
 11 10  1  0
 12  7  1  0
 12 11  1  0
 13 17  1  0
 13 12  1  0
 14 13  2  0
 15 14  1  0
 15 16  1  0
 16 18  1  0
 16 17  2  0
 18 19  1  0
 19 20  2  0
 19 23  1  0
 20 21  1  0
 21 22  1  0
 22 24  1  0
 23 22  2  0
  1 25  1  0
  2 26  1  0
  3 27  1  0
  8 28  1  0
  8 29  1  0
  9 30  1  0
  9 31  1  0
 10 32  1  0
 10 33  1  0
 11 34  1  0
 11 35  1  0
 12 36  1  6
 24 37  1  0
M  ISO  8  25  14  26  14  27  14  28  13  29  13  30  13  31  13  32  13
M  ISO  5  33  13  34  13  35  13  36  13  37   3
M  END
>  <minimizedAffinity>  (1) 
-5.6837492

>  <minimizedRMSD>  (1) 
0.78632766

$$$$
