
     RDKit          3D

 34 36  0  0  1  0  0  0  0  0999 V2000
   45.8710   32.7510   45.0320 C   0  0  1  0  0  0  0  0  0  0  0  0
   44.8660   34.9600   45.1570 C   0  0  0  0  0  0  0  0  0  0  0  0
   45.6410   34.0770   44.3980 C   0  0  0  0  0  0  0  0  0  0  0  0
   46.1090   34.4670   43.1690 C   0  0  0  0  0  0  0  0  0  0  0  0
   45.7690   35.7150   42.7890 N   0  0  0  0  0  0  0  0  0  0  0  0
   45.0320   36.5750   43.4940 C   0  0  0  0  0  0  0  0  0  0  0  0
   44.5820   36.1900   44.6810 N   0  0  0  0  0  0  0  0  0  0  0  0
   46.5150   31.8730   44.0770 C   0  0  0  0  0  0  0  0  0  0  0  0
   46.0370   30.9940   43.1170 C   0  0  0  0  0  0  0  0  0  0  0  0
   47.0970   30.3940   42.5040 N   0  0  0  0  0  0  0  0  0  0  0  0
   48.2280   30.8720   43.0490 C   0  0  0  0  0  0  0  0  0  0  0  0
   47.8790   31.7610   43.9940 N   0  0  0  0  0  0  0  0  0  0  0  0
   46.6770   32.9770   46.2630 C   0  0  0  0  0  0  0  0  0  0  0  0
   46.1160   32.1280   47.3800 C   0  0  0  0  0  0  0  0  0  0  0  0
   45.8290   32.4730   48.6490 N   0  0  0  0  0  0  0  0  0  0  0  0
   45.3600   31.4250   49.2750 O   0  0  0  0  0  0  0  0  0  0  0  0
   45.3280   30.3970   48.4630 C   0  0  0  0  0  0  0  0  0  0  0  0
   45.8010   30.8070   47.2490 N   0  0  0  0  0  0  0  0  0  0  0  0
   44.8870   28.9880   48.6730 C   0  0  0  0  0  0  0  0  0  0  0  0
   44.9060   28.1840   47.3910 C   0  0  0  0  0  0  0  0  0  0  0  0
   44.9322   32.2577   45.3240 H   0  0  0  0  0  0  0  0  0  0  0  0
   44.4878   34.6513   46.1427 H   0  0  0  0  0  0  0  0  0  0  0  0
   46.7202   33.8064   42.5365 H   0  0  0  0  0  0  0  0  0  0  0  0
   44.8035   37.5768   43.1014 H   0  0  0  0  0  0  0  0  0  0  0  0
   44.9769   30.8108   42.8876 H   0  0  0  0  0  0  0  0  0  0  0  0
   49.2537   30.5872   42.7719 H   0  0  0  0  0  0  0  0  0  0  0  0
   48.5456   32.2870   44.5770 H   0  0  0  0  0  0  0  0  0  0  0  0
   47.7237   32.6954   46.0756 H   0  0  0  0  0  0  0  0  0  0  0  0
   46.6345   34.0392   46.5457 H   0  0  0  0  0  0  0  0  0  0  0  0
   45.5607   28.5109   49.4000 H   0  0  0  0  0  0  0  0  0  0  0  0
   43.8507   29.0107   49.0411 H   0  0  0  0  0  0  0  0  0  0  0  0
   44.9314   27.1109   47.6315 H   0  0  0  0  0  0  0  0  0  0  0  0
   44.0023   28.4071   46.8048 H   0  0  0  0  0  0  0  0  0  0  0  0
   45.7981   28.4496   46.8048 H   0  0  0  0  0  0  0  0  0  0  0  0
  1 13  1  0
  3  1  1  0
  3  2  2  0
  4  3  1  0
  5  4  2  0
  5  6  1  0
  6  7  2  0
  7  2  1  0
  8  1  1  0
  9  8  2  0
 10 11  2  0
 10  9  1  0
 11 12  1  0
 12  8  1  0
 13 14  1  0
 14 15  2  0
 15 16  1  0
 17 19  1  0
 17 16  1  0
 18 14  1  0
 18 17  2  0
 20 19  1  0
  1 21  1  1
  2 22  1  0
  4 23  1  0
  6 24  1  0
  9 25  1  0
 11 26  1  0
 12 27  1  0
 13 28  1  0
 13 29  1  0
 19 30  1  0
 19 31  1  0
 20 32  1  0
 20 33  1  0
 20 34  1  0
M  ISO  8  21   8  22  14  23  14  24  14  25  14  26  14  27   9  28   8
M  ISO  6  29   8  30   8  31   8  32   8  33   8  34   8
M  END
>  <minimizedAffinity>  (1) 
-4.39706945

>  <minimizedRMSD>  (1) 
1.2016151

$$$$
