
     RDKit          3D

 23 24  0  0  0  0  0  0  0  0999 V2000
   45.2840   34.9030   42.2990 C   0  0  0  0  0  0  0  0  0  0  0  0
   46.5700   35.1080   41.7200 C   0  0  0  0  0  0  0  0  0  0  0  0
   47.6780   34.7010   42.4510 C   0  0  0  0  0  0  0  0  0  0  0  0
   47.4830   34.1340   43.6690 N   0  0  0  0  0  0  0  0  0  0  0  0
   46.2480   33.9540   44.1900 C   0  0  0  0  0  0  0  0  0  0  0  0
   45.1710   34.3400   43.5010 N   0  0  0  0  0  0  0  0  0  0  0  0
   46.1710   33.3470   45.4770 N   0  0  0  0  0  0  0  0  0  0  0  0
   46.8670   32.3060   45.9640 C   0  0  0  0  0  0  0  0  0  0  0  0
   46.6380   31.8700   47.2520 C   0  0  0  0  0  0  0  0  0  0  0  0
   45.7000   32.5090   48.0200 C   0  0  0  0  0  0  0  0  0  0  0  0
   45.5030   32.1030   49.1880 O   0  0  0  0  0  0  0  0  0  0  0  0
   45.0110   33.5520   47.5190 N   0  0  0  0  0  0  0  0  0  0  0  0
   45.2510   33.9580   46.2630 C   0  0  0  0  0  0  0  0  0  0  0  0
   44.5290   34.9490   45.9260 O   0  0  0  0  0  0  0  0  0  0  0  0
   49.0410   34.9050   41.8650 C   0  0  0  0  0  0  0  0  0  0  0  0
   49.8520   35.2030   42.9540 F   0  0  0  0  0  0  0  0  0  0  0  0
   49.5240   33.7520   41.2770 F   0  0  0  0  0  0  0  0  0  0  0  0
   49.0610   35.9150   40.9450 F   0  0  0  0  0  0  0  0  0  0  0  0
   44.3812   35.2109   41.7512 H   0  0  0  0  0  0  0  0  0  0  0  0
   46.6808   35.5723   40.7290 H   0  0  0  0  0  0  0  0  0  0  0  0
   47.6176   31.8028   45.3368 H   0  0  0  0  0  0  0  0  0  0  0  0
   47.2025   31.0180   47.6588 H   0  0  0  0  0  0  0  0  0  0  0  0
   44.3060   34.0338   48.0950 H   0  0  0  0  0  0  0  0  0  0  0  0
  1  6  2  0
  2  1  1  0
  2  3  2  0
  3  4  1  0
  4  5  2  0
  5  7  1  0
  6  5  1  0
  7  8  1  0
  7 13  1  0
  8  9  2  0
  9 10  1  0
 10 11  2  0
 12 10  1  0
 13 12  1  0
 14 13  2  0
 15  3  1  0
 15 16  1  0
 17 15  1  0
 18 15  1  0
  1 19  1  0
  2 20  1  0
  8 21  1  0
  9 22  1  0
 12 23  1  0
M  ISO  5  19  14  20  14  21  14  22  14  23   9
M  END
>  <minimizedAffinity>  (1) 
-6.59745932

>  <minimizedRMSD>  (1) 
1.74888253

$$$$
