
     RDKit          3D

 24 25  0  0  0  0  0  0  0  0999 V2000
   44.6220   35.9050   44.4380 C   0  0  0  0  0  0  0  0  0  0  0  0
   45.3510   35.8430   43.2120 C   0  0  0  0  0  0  0  0  0  0  0  0
   46.2740   34.8040   43.0580 C   0  0  0  0  0  0  0  0  0  0  0  0
   46.4240   33.9110   44.0850 N   0  0  0  0  0  0  0  0  0  0  0  0
   45.7070   34.0110   45.2340 C   0  0  0  0  0  0  0  0  0  0  0  0
   44.8240   35.0010   45.3860 N   0  0  0  0  0  0  0  0  0  0  0  0
   45.9240   33.0430   46.2510 N   0  0  0  0  0  0  0  0  0  0  0  0
   45.1800   33.1910   47.3720 C   0  0  0  0  0  0  0  0  0  0  0  0
   45.3260   32.2980   48.4080 C   0  0  0  0  0  0  0  0  0  0  0  0
   46.2410   31.2790   48.2430 C   0  0  0  0  0  0  0  0  0  0  0  0
   46.3870   30.3560   49.3230 N   0  0  0  0  0  0  0  0  0  0  0  0
   46.9650   31.1630   47.1130 N   0  0  0  0  0  0  0  0  0  0  0  0
   46.8130   32.0520   46.0910 C   0  0  0  0  0  0  0  0  0  0  0  0
   47.4850   31.9600   45.0210 O   0  0  0  0  0  0  0  0  0  0  0  0
   47.0520   34.7010   41.8030 C   0  0  0  0  0  0  0  0  0  0  0  0
   47.8850   35.7940   41.7910 F   0  0  0  0  0  0  0  0  0  0  0  0
   47.8320   33.5700   41.7650 F   0  0  0  0  0  0  0  0  0  0  0  0
   46.2210   34.7050   40.6920 F   0  0  0  0  0  0  0  0  0  0  0  0
   43.8877   36.7085   44.5969 H   0  0  0  0  0  0  0  0  0  0  0  0
   45.1922   36.5862   42.4168 H   0  0  0  0  0  0  0  0  0  0  0  0
   44.4626   34.0208   47.4541 H   0  0  0  0  0  0  0  0  0  0  0  0
   44.7363   32.3927   49.3317 H   0  0  0  0  0  0  0  0  0  0  0  0
   47.0574   29.5777   49.2482 H   0  0  0  0  0  0  0  0  0  0  0  0
   45.8218   30.4687   50.1767 H   0  0  0  0  0  0  0  0  0  0  0  0
  1  6  2  0
  2  1  1  0
  3  2  2  0
  3  4  1  0
  4  5  2  0
  5  6  1  0
  5  7  1  0
  7  8  1  0
  8  9  2  0
 10  9  1  0
 10 11  1  0
 12 10  2  0
 13  7  1  0
 13 12  1  0
 14 13  2  0
 15  3  1  0
 16 15  1  0
 17 15  1  0
 18 15  1  0
  1 19  1  0
  2 20  1  0
  8 21  1  0
  9 22  1  0
 11 23  1  0
 11 24  1  0
M  ISO  4  19  14  20  14  21  14  22  14
M  END
>  <minimizedAffinity>  (1) 
-6.12792158

>  <minimizedRMSD>  (1) 
0.175489843

$$$$
