
     RDKit          3D

 26 27  0  0  0  0  0  0  0  0999 V2000
   45.3270   34.8490   42.2650 C   0  0  0  0  0  0  0  0  0  0  0  0
   46.6020   35.0280   41.6600 C   0  0  0  0  0  0  0  0  0  0  0  0
   47.7220   34.6560   42.4250 C   0  0  0  0  0  0  0  0  0  0  0  0
   47.5310   34.1560   43.6750 N   0  0  0  0  0  0  0  0  0  0  0  0
   46.3030   34.0020   44.2100 C   0  0  0  0  0  0  0  0  0  0  0  0
   45.2170   34.3540   43.4920 N   0  0  0  0  0  0  0  0  0  0  0  0
   46.0850   33.4810   45.5140 N   0  0  0  0  0  0  0  0  0  0  0  0
   46.8010   32.4210   45.9500 C   0  0  0  0  0  0  0  0  0  0  0  0
   46.6040   31.9000   47.2170 C   0  0  0  0  0  0  0  0  0  0  0  0
   47.3820   30.7250   47.7280 C   0  0  0  0  0  0  0  0  0  0  0  0
   45.6540   32.5000   48.0100 C   0  0  0  0  0  0  0  0  0  0  0  0
   45.4490   32.0450   49.1760 O   0  0  0  0  0  0  0  0  0  0  0  0
   44.9180   33.5650   47.6040 N   0  0  0  0  0  0  0  0  0  0  0  0
   45.1790   34.0040   46.3600 C   0  0  0  0  0  0  0  0  0  0  0  0
   44.5030   34.9980   45.9610 O   0  0  0  0  0  0  0  0  0  0  0  0
   49.0740   34.8250   41.8360 C   0  0  0  0  0  0  0  0  0  0  0  0
   48.9390   35.8520   40.9120 F   0  0  0  0  0  0  0  0  0  0  0  0
   50.0120   35.2190   42.7610 F   0  0  0  0  0  0  0  0  0  0  0  0
   49.5170   33.6930   41.2010 F   0  0  0  0  0  0  0  0  0  0  0  0
   44.4192   35.1247   41.7082 H   0  0  0  0  0  0  0  0  0  0  0  0
   46.7067   35.4371   40.6443 H   0  0  0  0  0  0  0  0  0  0  0  0
   47.5519   31.9653   45.2878 H   0  0  0  0  0  0  0  0  0  0  0  0
   47.3771   30.7324   48.8280 H   0  0  0  0  0  0  0  0  0  0  0  0
   46.9210   29.7944   47.3655 H   0  0  0  0  0  0  0  0  0  0  0  0
   48.4188   30.7860   47.3655 H   0  0  0  0  0  0  0  0  0  0  0  0
   44.2088   34.0065   48.2066 H   0  0  0  0  0  0  0  0  0  0  0  0
  1  6  2  0
  2  1  1  0
  2  3  2  0
  3  4  1  0
  4  5  2  0
  5  7  1  0
  6  5  1  0
  7  8  1  0
  7 14  1  0
  8  9  2  0
  9 10  1  0
  9 11  1  0
 11 12  2  0
 13 11  1  0
 14 13  1  0
 15 14  2  0
 16  3  1  0
 16 18  1  0
 17 16  1  0
 19 16  1  0
  1 20  1  0
  2 21  1  0
  8 22  1  0
 10 23  1  0
 10 24  1  0
 10 25  1  0
 13 26  1  0
M  ISO  7  20  14  21  14  22  14  23   8  24   8  25   8  26   9
M  END
>  <minimizedAffinity>  (1) 
-6.87357187

>  <minimizedRMSD>  (1) 
1.84084165

$$$$
