
     RDKit          3D

 23 24  0  0  0  0  0  0  0  0999 V2000
   44.5140   35.8130   44.7080 C   0  0  0  0  0  0  0  0  0  0  0  0
   45.1870   35.7560   43.4580 C   0  0  0  0  0  0  0  0  0  0  0  0
   46.1370   34.7470   43.2880 C   0  0  0  0  0  0  0  0  0  0  0  0
   46.3710   33.8780   44.3100 N   0  0  0  0  0  0  0  0  0  0  0  0
   45.7030   33.9680   45.4950 C   0  0  0  0  0  0  0  0  0  0  0  0
   44.7890   34.9330   45.6680 N   0  0  0  0  0  0  0  0  0  0  0  0
   45.9730   33.0250   46.5740 C   0  0  0  0  0  0  0  0  0  0  0  0
   45.1470   32.9630   47.6700 C   0  0  0  0  0  0  0  0  0  0  0  0
   45.4570   32.0460   48.6600 C   0  0  0  0  0  0  0  0  0  0  0  0
   46.5660   31.2010   48.5740 C   0  0  0  0  0  0  0  0  0  0  0  0
   47.4000   31.2630   47.4670 C   0  0  0  0  0  0  0  0  0  0  0  0
   47.0600   32.1800   46.5130 C   0  0  0  0  0  0  0  0  0  0  0  0
   46.8610   34.6530   42.0000 C   0  0  0  0  0  0  0  0  0  0  0  0
   47.7100   35.7430   41.9660 F   0  0  0  0  0  0  0  0  0  0  0  0
   47.6300   33.5010   41.9060 F   0  0  0  0  0  0  0  0  0  0  0  0
   46.0060   34.6860   40.9220 F   0  0  0  0  0  0  0  0  0  0  0  0
   43.7580   36.5923   44.8842 H   0  0  0  0  0  0  0  0  0  0  0  0
   44.9685   36.4774   42.6568 H   0  0  0  0  0  0  0  0  0  0  0  0
   44.2690   33.6197   47.7581 H   0  0  0  0  0  0  0  0  0  0  0  0
   44.8073   31.9806   49.5452 H   0  0  0  0  0  0  0  0  0  0  0  0
   46.7779   30.4869   49.3834 H   0  0  0  0  0  0  0  0  0  0  0  0
   48.2816   30.6132   47.3637 H   0  0  0  0  0  0  0  0  0  0  0  0
   47.7056   32.2494   45.6251 H   0  0  0  0  0  0  0  0  0  0  0  0
  1  6  2  0
  2  1  1  0
  3  2  2  0
  3  4  1  0
  4  5  2  0
  5  6  1  0
  5  7  1  0
  7  8  2  0
  8  9  1  0
 10  9  2  0
 11 10  1  0
 12  7  1  0
 12 11  2  0
 13  3  1  0
 14 13  1  0
 15 13  1  0
 16 13  1  0
  1 17  1  0
  2 18  1  0
  8 19  1  0
  9 20  1  0
 10 21  1  0
 11 22  1  0
 12 23  1  0
M  ISO  7  17  14  18  14  19  14  20  14  21  14  22  14  23  14
M  END
>  <minimizedAffinity>  (1) 
-5.56472445

>  <minimizedRMSD>  (1) 
0.516115367

$$$$
