
     RDKit          3D

 27 29  0  0  0  0  0  0  0  0999 V2000
   44.5560   36.0820   44.2430 C   0  0  0  0  0  0  0  0  0  0  0  0
   45.3950   35.9340   43.0980 C   0  0  0  0  0  0  0  0  0  0  0  0
   46.3010   34.8790   43.0980 C   0  0  0  0  0  0  0  0  0  0  0  0
   46.3420   34.0550   44.1700 N   0  0  0  0  0  0  0  0  0  0  0  0
   45.5380   34.2150   45.2410 C   0  0  0  0  0  0  0  0  0  0  0  0
   44.6570   35.2270   45.2600 N   0  0  0  0  0  0  0  0  0  0  0  0
   45.6300   33.2920   46.3660 C   0  0  0  0  0  0  0  0  0  0  0  0
   45.0050   33.4480   47.5850 C   0  0  0  0  0  0  0  0  0  0  0  0
   45.3250   32.3980   48.3660 N   0  0  0  0  0  0  0  0  0  0  0  0
   46.1430   31.5650   47.6770 C   0  0  0  0  0  0  0  0  0  0  0  0
   46.7210   30.3650   48.0800 C   0  0  0  0  0  0  0  0  0  0  0  0
   47.5140   29.7490   47.1350 C   0  0  0  0  0  0  0  0  0  0  0  0
   47.7500   30.2520   45.8600 C   0  0  0  0  0  0  0  0  0  0  0  0
   47.1450   31.4640   45.5060 C   0  0  0  0  0  0  0  0  0  0  0  0
   46.3420   32.1210   46.4140 C   0  0  0  0  0  0  0  0  0  0  0  0
   47.1860   34.7040   41.9180 C   0  0  0  0  0  0  0  0  0  0  0  0
   47.9850   35.8170   41.8650 F   0  0  0  0  0  0  0  0  0  0  0  0
   47.9890   33.5770   42.0290 F   0  0  0  0  0  0  0  0  0  0  0  0
   46.4560   34.5830   40.7460 F   0  0  0  0  0  0  0  0  0  0  0  0
   43.8251   36.9029   44.2860 H   0  0  0  0  0  0  0  0  0  0  0  0
   45.3275   36.6283   42.2475 H   0  0  0  0  0  0  0  0  0  0  0  0
   44.3549   34.2879   47.8714 H   0  0  0  0  0  0  0  0  0  0  0  0
   45.0000   32.2515   49.3324 H   0  0  0  0  0  0  0  0  0  0  0  0
   46.5570   29.9385   49.0806 H   0  0  0  0  0  0  0  0  0  0  0  0
   47.9917   28.7964   47.4077 H   0  0  0  0  0  0  0  0  0  0  0  0
   48.3939   29.7127   45.1497 H   0  0  0  0  0  0  0  0  0  0  0  0
   47.3099   31.8910   44.5058 H   0  0  0  0  0  0  0  0  0  0  0  0
  1  6  2  0
  2  3  2  0
  2  1  1  0
  3  4  1  0
  4  5  2  0
  5  6  1  0
  5  7  1  0
  7 15  1  0
  7  8  2  0
  8  9  1  0
 10 11  2  0
 10  9  1  0
 12 11  1  0
 13 12  2  0
 14 13  1  0
 14 15  2  0
 15 10  1  0
 16 18  1  0
 16  3  1  0
 17 16  1  0
 19 16  1  0
  1 20  1  0
  2 21  1  0
  8 22  1  0
  9 23  1  0
 11 24  1  0
 12 25  1  0
 13 26  1  0
 14 27  1  0
M  ISO  8  20  14  21  14  22  14  23   9  24  14  25  14  26  14  27  14
M  END
>  <minimizedAffinity>  (1) 
-5.78680515

>  <minimizedRMSD>  (1) 
0.862806261

$$$$
