
     RDKit          3D

 45 48  0  0  1  0  0  0  0  0999 V2000
   44.6170   35.6560   44.8430 C   0  0  0  0  0  0  0  0  0  0  0  0
   45.2970   35.6390   43.5790 C   0  0  0  0  0  0  0  0  0  0  0  0
   46.1670   34.6060   43.3540 C   0  0  0  0  0  0  0  0  0  0  0  0
   46.3430   33.6580   44.3280 N   0  0  0  0  0  0  0  0  0  0  0  0
   45.6770   33.7200   45.5040 C   0  0  0  0  0  0  0  0  0  0  0  0
   44.8360   34.6990   45.7480 N   0  0  0  0  0  0  0  0  0  0  0  0
   45.9150   32.6750   46.5020 N   0  0  0  0  0  0  0  0  0  0  0  0
   45.1900   32.7220   47.7560 C   0  0  0  0  0  0  0  0  0  0  0  0
   46.0420   32.2370   48.9060 C   0  0  0  0  0  0  0  0  0  0  0  0
   47.4860   32.2150   48.5080 C   0  0  0  0  0  0  0  0  0  0  0  0
   47.6100   31.1580   47.4070 C   0  0  0  0  0  0  0  0  0  0  0  0
   46.8850   31.6010   46.2120 C   0  0  1  0  0  0  0  0  0  0  0  0
   46.2380   30.4960   45.4500 C   0  0  0  0  0  0  0  0  0  0  0  0
   45.3610   30.5820   44.4580 N   0  0  0  0  0  0  0  0  0  0  0  0
   45.0090   29.3960   44.0200 O   0  0  0  0  0  0  0  0  0  0  0  0
   45.6760   28.5160   44.7450 C   0  0  0  0  0  0  0  0  0  0  0  0
   46.4520   29.1520   45.6460 N   0  0  0  0  0  0  0  0  0  0  0  0
   45.4730   26.7630   44.4550 S   0  0  0  0  0  0  0  0  0  0  0  0
   44.4350   26.1610   45.7970 C   0  0  0  0  0  0  0  0  0  0  0  0
   44.4230   25.5720   47.0160 N   0  0  0  0  0  0  0  0  0  0  0  0
   43.2010   25.4310   47.4180 O   0  0  0  0  0  0  0  0  0  0  0  0
   42.3570   25.8990   46.5270 C   0  0  0  0  0  0  0  0  0  0  0  0
   43.1210   26.3560   45.5130 N   0  0  0  0  0  0  0  0  0  0  0  0
   40.8520   25.9110   46.6390 C   0  0  0  0  0  0  0  0  0  0  0  0
   40.3550   24.7800   45.7620 C   0  0  0  0  0  0  0  0  0  0  0  0
   40.2780   27.1990   46.1130 C   0  0  0  0  0  0  0  0  0  0  0  0
   43.9079   36.4661   45.0685 H   0  0  0  0  0  0  0  0  0  0  0  0
   45.1267   36.4212   42.8246 H   0  0  0  0  0  0  0  0  0  0  0  0
   46.7174   34.5379   42.4041 H   0  0  0  0  0  0  0  0  0  0  0  0
   44.8817   33.7595   47.9521 H   0  0  0  0  0  0  0  0  0  0  0  0
   44.3136   32.0624   47.6732 H   0  0  0  0  0  0  0  0  0  0  0  0
   45.9121   32.9125   49.7644 H   0  0  0  0  0  0  0  0  0  0  0  0
   45.7297   31.2181   49.1787 H   0  0  0  0  0  0  0  0  0  0  0  0
   47.7914   33.2005   48.1265 H   0  0  0  0  0  0  0  0  0  0  0  0
   48.1342   31.9791   49.3648 H   0  0  0  0  0  0  0  0  0  0  0  0
   48.6715   31.0127   47.1577 H   0  0  0  0  0  0  0  0  0  0  0  0
   47.1806   30.2098   47.7627 H   0  0  0  0  0  0  0  0  0  0  0  0
   47.6663   32.0147   45.5575 H   0  0  0  0  0  0  0  0  0  0  0  0
   40.5499   25.8046   47.6914 H   0  0  0  0  0  0  0  0  0  0  0  0
   39.9932   23.9567   46.3954 H   0  0  0  0  0  0  0  0  0  0  0  0
   39.5332   25.1424   45.1269 H   0  0  0  0  0  0  0  0  0  0  0  0
   41.1777   24.4198   45.1269 H   0  0  0  0  0  0  0  0  0  0  0  0
   39.9906   27.8439   46.9565 H   0  0  0  0  0  0  0  0  0  0  0  0
   41.0323   27.7129   45.4990 H   0  0  0  0  0  0  0  0  0  0  0  0
   39.3916   26.9817   45.4990 H   0  0  0  0  0  0  0  0  0  0  0  0
  1  6  2  0
  2  1  1  0
  3  2  2  0
  3  4  1  0
  4  5  2  0
  5  6  1  0
  5  7  1  0
  7  8  1  0
  8  9  1  0
 10  9  1  0
 11 10  1  0
 12  7  1  0
 12 11  1  0
 13 17  1  0
 13 12  1  0
 14 13  2  0
 15 14  1  0
 15 16  1  0
 16 17  2  0
 18 16  1  0
 18 19  1  0
 19 20  2  0
 20 21  1  0
 22 24  1  0
 22 21  1  0
 23 19  1  0
 23 22  2  0
 25 24  1  0
 26 24  1  0
  1 27  1  0
  2 28  1  0
  3 29  1  0
  8 30  1  0
  8 31  1  0
  9 32  1  0
  9 33  1  0
 10 34  1  0
 10 35  1  0
 11 36  1  0
 11 37  1  0
 12 38  1  6
 24 39  1  0
 25 40  1  0
 25 41  1  0
 25 42  1  0
 26 43  1  0
 26 44  1  0
 26 45  1  0
M  ISO  8  27  14  28  14  29  14  30  13  31  13  32  13  33  13  34  13
M  ISO  8  35  13  36  13  37  13  38  13  39   8  40   8  41   8  42   8
M  ISO  3  43   8  44   8  45   8
M  END
>  <minimizedAffinity>  (1) 
-5.66459465

>  <minimizedRMSD>  (1) 
1.3473717

$$$$
