
     RDKit          3D

 22 23  0  0  0  0  0  0  0  0999 V2000
   44.5140   35.7950   44.7200 C   0  0  0  0  0  0  0  0  0  0  0  0
   45.1790   35.7300   43.4760 C   0  0  0  0  0  0  0  0  0  0  0  0
   46.1360   34.7350   43.2830 C   0  0  0  0  0  0  0  0  0  0  0  0
   46.3790   33.8750   44.3080 N   0  0  0  0  0  0  0  0  0  0  0  0
   45.7230   33.9620   45.4910 C   0  0  0  0  0  0  0  0  0  0  0  0
   44.8050   34.9190   45.6730 N   0  0  0  0  0  0  0  0  0  0  0  0
   46.0160   33.0160   46.5630 C   0  0  0  0  0  0  0  0  0  0  0  0
   45.1630   32.9430   47.6570 C   0  0  0  0  0  0  0  0  0  0  0  0
   45.4750   32.0370   48.6470 C   0  0  0  0  0  0  0  0  0  0  0  0
   46.6010   31.2430   48.5330 C   0  0  0  0  0  0  0  0  0  0  0  0
   47.4230   31.3430   47.4360 C   0  0  0  0  0  0  0  0  0  0  0  0
   47.1170   32.2220   46.4770 N   0  0  0  0  0  0  0  0  0  0  0  0
   46.8500   34.6450   41.9880 C   0  0  0  0  0  0  0  0  0  0  0  0
   47.7040   35.7420   41.9620 F   0  0  0  0  0  0  0  0  0  0  0  0
   47.6240   33.4980   41.8940 F   0  0  0  0  0  0  0  0  0  0  0  0
   45.9880   34.6990   40.9190 F   0  0  0  0  0  0  0  0  0  0  0  0
   43.7554   36.5712   44.8988 H   0  0  0  0  0  0  0  0  0  0  0  0
   44.9469   36.4490   42.6765 H   0  0  0  0  0  0  0  0  0  0  0  0
   44.2722   33.5842   47.7301 H   0  0  0  0  0  0  0  0  0  0  0  0
   44.8263   31.9452   49.5306 H   0  0  0  0  0  0  0  0  0  0  0  0
   46.8417   30.5232   49.3292 H   0  0  0  0  0  0  0  0  0  0  0  0
   48.3182   30.7098   47.3488 H   0  0  0  0  0  0  0  0  0  0  0  0
  1  6  2  0
  2  1  1  0
  3  2  2  0
  3  4  1  0
  4  5  2  0
  5  6  1  0
  5  7  1  0
  7  8  2  0
  8  9  1  0
 10  9  2  0
 11 10  1  0
 12  7  1  0
 12 11  2  0
 13  3  1  0
 14 13  1  0
 15 13  1  0
 16 13  1  0
  1 17  1  0
  2 18  1  0
  8 19  1  0
  9 20  1  0
 10 21  1  0
 11 22  1  0
M  ISO  6  17  14  18  14  19  14  20  14  21  14  22  14
M  END
>  <minimizedAffinity>  (1) 
-5.46139479

>  <minimizedRMSD>  (1) 
0.385794938

$$$$
