
     RDKit          3D

 26 27  0  0  0  0  0  0  0  0999 V2000
   44.5970   35.8550   44.8470 C   0  0  0  0  0  0  0  0  0  0  0  0
   45.2590   35.7910   43.5940 C   0  0  0  0  0  0  0  0  0  0  0  0
   46.0800   34.7040   43.3260 C   0  0  0  0  0  0  0  0  0  0  0  0
   46.2080   33.7500   44.2860 N   0  0  0  0  0  0  0  0  0  0  0  0
   45.5700   33.8290   45.4730 C   0  0  0  0  0  0  0  0  0  0  0  0
   44.7770   34.8740   45.7360 N   0  0  0  0  0  0  0  0  0  0  0  0
   45.7250   32.8230   46.4450 N   0  0  0  0  0  0  0  0  0  0  0  0
   46.5660   31.6630   46.2310 C   0  0  0  0  0  0  0  0  0  0  0  0
   47.6150   31.6250   47.2910 C   0  0  0  0  0  0  0  0  0  0  0  0
   47.3070   32.3250   48.4430 O   0  0  0  0  0  0  0  0  0  0  0  0
   45.9670   32.3260   48.7870 C   0  0  0  0  0  0  0  0  0  0  0  0
   45.0530   32.8780   47.7310 C   0  0  0  0  0  0  0  0  0  0  0  0
   46.7690   34.6360   42.0210 C   0  0  0  0  0  0  0  0  0  0  0  0
   47.6380   35.7140   41.9950 F   0  0  0  0  0  0  0  0  0  0  0  0
   47.5220   33.4830   41.8930 F   0  0  0  0  0  0  0  0  0  0  0  0
   45.8960   34.7190   40.9560 F   0  0  0  0  0  0  0  0  0  0  0  0
   43.9409   36.7053   45.0847 H   0  0  0  0  0  0  0  0  0  0  0  0
   45.1243   36.5882   42.8482 H   0  0  0  0  0  0  0  0  0  0  0  0
   45.9554   30.7495   46.2828 H   0  0  0  0  0  0  0  0  0  0  0  0
   47.0394   31.7234   45.2399 H   0  0  0  0  0  0  0  0  0  0  0  0
   47.7847   30.5735   47.5657 H   0  0  0  0  0  0  0  0  0  0  0  0
   48.5028   32.1131   46.8627 H   0  0  0  0  0  0  0  0  0  0  0  0
   45.6649   31.2889   48.9948 H   0  0  0  0  0  0  0  0  0  0  0  0
   45.8692   32.9862   49.6614 H   0  0  0  0  0  0  0  0  0  0  0  0
   44.8011   33.9216   47.9707 H   0  0  0  0  0  0  0  0  0  0  0  0
   44.1291   32.2822   47.6922 H   0  0  0  0  0  0  0  0  0  0  0  0
  1  6  2  0
  2  1  1  0
  3  2  2  0
  3  4  1  0
  4  5  2  0
  5  6  1  0
  5  7  1  0
  7 12  1  0
  8  7  1  0
  8  9  1  0
  9 10  1  0
 10 11  1  0
 12 11  1  0
 13  3  1  0
 14 13  1  0
 15 13  1  0
 16 13  1  0
  1 17  1  0
  2 18  1  0
  8 19  1  0
  8 20  1  0
  9 21  1  0
  9 22  1  0
 11 23  1  0
 11 24  1  0
 12 25  1  0
 12 26  1  0
M  ISO  8  17  14  18  14  19  13  20  13  21  13  22  13  23  13  24  13
M  ISO  2  25  13  26  13
M  END
>  <minimizedAffinity>  (1) 
-5.33255482

>  <minimizedRMSD>  (1) 
0.460625708

$$$$
