
     RDKit          3D

 21 22  0  0  0  0  0  0  0  0999 V2000
   44.5060   35.8420   44.6970 C   0  0  0  0  0  0  0  0  0  0  0  0
   45.1950   35.7600   43.4600 C   0  0  0  0  0  0  0  0  0  0  0  0
   46.1360   34.7540   43.2810 C   0  0  0  0  0  0  0  0  0  0  0  0
   46.3450   33.8910   44.3160 N   0  0  0  0  0  0  0  0  0  0  0  0
   45.6830   33.9830   45.4820 C   0  0  0  0  0  0  0  0  0  0  0  0
   44.7790   34.9500   45.6560 N   0  0  0  0  0  0  0  0  0  0  0  0
   45.9500   33.0320   46.5520 C   0  0  0  0  0  0  0  0  0  0  0  0
   47.0350   32.1840   46.4700 C   0  0  0  0  0  0  0  0  0  0  0  0
   47.3300   31.2610   47.4660 C   0  0  0  0  0  0  0  0  0  0  0  0
   46.5050   31.2330   48.5200 N   0  0  0  0  0  0  0  0  0  0  0  0
   45.4390   32.0520   48.6210 C   0  0  0  0  0  0  0  0  0  0  0  0
   45.1670   32.9490   47.6360 N   0  0  0  0  0  0  0  0  0  0  0  0
   46.8690   34.6550   41.9880 C   0  0  0  0  0  0  0  0  0  0  0  0
   47.7130   35.7470   41.9600 F   0  0  0  0  0  0  0  0  0  0  0  0
   47.6320   33.5140   41.9120 F   0  0  0  0  0  0  0  0  0  0  0  0
   46.0010   34.6930   40.9100 F   0  0  0  0  0  0  0  0  0  0  0  0
   43.7565   36.6292   44.8658 H   0  0  0  0  0  0  0  0  0  0  0  0
   44.9876   36.4811   42.6557 H   0  0  0  0  0  0  0  0  0  0  0  0
   47.6883   32.2403   45.5868 H   0  0  0  0  0  0  0  0  0  0  0  0
   48.1969   30.5879   47.3922 H   0  0  0  0  0  0  0  0  0  0  0  0
   44.7861   31.9943   49.5044 H   0  0  0  0  0  0  0  0  0  0  0  0
  1  6  2  0
  2  1  1  0
  3  2  2  0
  3  4  1  0
  4  5  2  0
  5  6  1  0
  5  7  1  0
  7 12  1  0
  8  7  2  0
  8  9  1  0
  9 10  2  0
 10 11  1  0
 12 11  2  0
 13  3  1  0
 14 13  1  0
 15 13  1  0
 16 13  1  0
  1 17  1  0
  2 18  1  0
  8 19  1  0
  9 20  1  0
 11 21  1  0
M  ISO  5  17  14  18  14  19  14  20  14  21  14
M  END
>  <minimizedAffinity>  (1) 
-5.33322716

>  <minimizedRMSD>  (1) 
0.636779666

$$$$
