
     RDKit          3D

 19 20  0  0  0  0  0  0  0  0999 V2000
   44.5300   35.9460   44.3610 C   0  0  0  0  0  0  0  0  0  0  0  0
   45.3110   35.8260   43.1860 C   0  0  0  0  0  0  0  0  0  0  0  0
   46.2710   34.8230   43.1290 C   0  0  0  0  0  0  0  0  0  0  0  0
   46.4050   34.0130   44.2070 N   0  0  0  0  0  0  0  0  0  0  0  0
   45.6560   34.1390   45.3170 C   0  0  0  0  0  0  0  0  0  0  0  0
   44.7340   35.0950   45.3820 N   0  0  0  0  0  0  0  0  0  0  0  0
   45.8650   33.2420   46.4050 N   0  0  0  0  0  0  0  0  0  0  0  0
   46.8590   32.3450   46.5340 C   0  0  0  0  0  0  0  0  0  0  0  0
   46.7080   31.6890   47.7020 N   0  0  0  0  0  0  0  0  0  0  0  0
   45.6130   32.1740   48.3180 C   0  0  0  0  0  0  0  0  0  0  0  0
   45.1120   33.1360   47.4900 N   0  0  0  0  0  0  0  0  0  0  0  0
   47.0980   34.6840   41.8990 C   0  0  0  0  0  0  0  0  0  0  0  0
   47.9240   35.7870   41.8810 F   0  0  0  0  0  0  0  0  0  0  0  0
   47.8860   33.5450   41.9450 F   0  0  0  0  0  0  0  0  0  0  0  0
   46.3230   34.6420   40.7640 F   0  0  0  0  0  0  0  0  0  0  0  0
   43.7620   36.7297   44.4380 H   0  0  0  0  0  0  0  0  0  0  0  0
   45.1613   36.5107   42.3382 H   0  0  0  0  0  0  0  0  0  0  0  0
   47.6646   32.1744   45.8046 H   0  0  0  0  0  0  0  0  0  0  0  0
   45.2057   31.8590   49.2900 H   0  0  0  0  0  0  0  0  0  0  0  0
  1  6  2  0
  2  1  1  0
  3  2  2  0
  3  4  1  0
  4  5  2  0
  5  6  1  0
  5  7  1  0
  7  8  1  0
  7 11  1  0
  8  9  2  0
  9 10  1  0
 11 10  2  0
 12 14  1  0
 12  3  1  0
 13 12  1  0
 15 12  1  0
  1 16  1  0
  2 17  1  0
  8 18  1  0
 10 19  1  0
M  ISO  4  16  14  17  14  18  14  19  14
M  END
>  <minimizedAffinity>  (1) 
-5.33173609

>  <minimizedRMSD>  (1) 
0.175118506

$$$$
