
     RDKit          3D

 21 22  0  0  0  0  0  0  0  0999 V2000
   44.5110   35.8260   44.6980 C   0  0  0  0  0  0  0  0  0  0  0  0
   45.1960   35.7580   43.4530 C   0  0  0  0  0  0  0  0  0  0  0  0
   46.1390   34.7490   43.2860 C   0  0  0  0  0  0  0  0  0  0  0  0
   46.3560   33.8840   44.3200 N   0  0  0  0  0  0  0  0  0  0  0  0
   45.6890   33.9780   45.4840 C   0  0  0  0  0  0  0  0  0  0  0  0
   44.7830   34.9370   45.6600 N   0  0  0  0  0  0  0  0  0  0  0  0
   45.9590   33.0260   46.5560 C   0  0  0  0  0  0  0  0  0  0  0  0
   47.0390   32.1770   46.4780 C   0  0  0  0  0  0  0  0  0  0  0  0
   47.3140   31.2580   47.4970 C   0  0  0  0  0  0  0  0  0  0  0  0
   46.4910   31.2080   48.5840 N   0  0  0  0  0  0  0  0  0  0  0  0
   45.4450   32.0460   48.6370 C   0  0  0  0  0  0  0  0  0  0  0  0
   45.1770   32.9420   47.6440 N   0  0  0  0  0  0  0  0  0  0  0  0
   46.8620   34.6660   41.9930 C   0  0  0  0  0  0  0  0  0  0  0  0
   47.7110   35.7470   41.9530 F   0  0  0  0  0  0  0  0  0  0  0  0
   47.6460   33.5220   41.9160 F   0  0  0  0  0  0  0  0  0  0  0  0
   46.0090   34.6990   40.9140 F   0  0  0  0  0  0  0  0  0  0  0  0
   43.7580   36.6093   44.8696 H   0  0  0  0  0  0  0  0  0  0  0  0
   44.9870   36.4792   42.6492 H   0  0  0  0  0  0  0  0  0  0  0  0
   47.6983   32.2214   45.5986 H   0  0  0  0  0  0  0  0  0  0  0  0
   48.1813   30.5856   47.4226 H   0  0  0  0  0  0  0  0  0  0  0  0
   44.7797   32.0094   49.5123 H   0  0  0  0  0  0  0  0  0  0  0  0
  1  6  2  0
  2  1  1  0
  3  2  2  0
  3  4  1  0
  4  5  2  0
  5  6  1  0
  5  7  1  0
  7 12  1  0
  8  7  2  0
  8  9  1  0
  9 10  2  0
 10 11  1  0
 12 11  2  0
 13  3  1  0
 14 13  1  0
 15 13  1  0
 16 13  1  0
  1 17  1  0
  2 18  1  0
  8 19  1  0
  9 20  1  0
 11 21  1  0
M  ISO  5  17  14  18  14  19  14  20  14  21  14
M  END
>  <minimizedAffinity>  (1) 
-5.33944893

>  <minimizedRMSD>  (1) 
0.520647466

$$$$
