
     RDKit          3D

 27 28  0  0  0  0  0  0  0  0999 V2000
   44.5060   35.8660   44.8650 C   0  0  0  0  0  0  0  0  0  0  0  0
   45.1850   35.7840   43.6170 C   0  0  0  0  0  0  0  0  0  0  0  0
   46.0750   34.7300   43.4250 C   0  0  0  0  0  0  0  0  0  0  0  0
   46.2360   33.8480   44.4450 N   0  0  0  0  0  0  0  0  0  0  0  0
   45.5850   33.9390   45.6190 C   0  0  0  0  0  0  0  0  0  0  0  0
   44.7340   34.9430   45.8080 N   0  0  0  0  0  0  0  0  0  0  0  0
   45.8120   32.9710   46.6360 N   0  0  0  0  0  0  0  0  0  0  0  0
   44.9170   32.8390   47.7710 C   0  0  0  0  0  0  0  0  0  0  0  0
   45.4340   31.7360   48.6680 C   0  0  0  0  0  0  0  0  0  0  0  0
   46.7950   32.0820   49.0310 N   0  0  0  0  0  0  0  0  0  0  0  0
   47.6660   32.2080   47.8950 C   0  0  0  0  0  0  0  0  0  0  0  0
   46.9530   32.0780   46.5700 C   0  0  0  0  0  0  0  0  0  0  0  0
   46.8000   34.6130   42.1370 C   0  0  0  0  0  0  0  0  0  0  0  0
   47.6660   35.6970   42.1080 F   0  0  0  0  0  0  0  0  0  0  0  0
   47.5470   33.4580   42.0590 F   0  0  0  0  0  0  0  0  0  0  0  0
   45.9540   34.6720   41.0610 F   0  0  0  0  0  0  0  0  0  0  0  0
   43.7963   36.6848   45.0544 H   0  0  0  0  0  0  0  0  0  0  0  0
   45.0121   36.5305   42.8278 H   0  0  0  0  0  0  0  0  0  0  0  0
   44.8846   33.7861   48.3294 H   0  0  0  0  0  0  0  0  0  0  0  0
   43.9023   32.5956   47.4229 H   0  0  0  0  0  0  0  0  0  0  0  0
   44.8104   31.6610   49.5711 H   0  0  0  0  0  0  0  0  0  0  0  0
   45.4020   30.7652   48.1518 H   0  0  0  0  0  0  0  0  0  0  0  0
   46.7817   32.9800   49.5352 H   0  0  0  0  0  0  0  0  0  0  0  0
   48.1490   33.1955   47.9348 H   0  0  0  0  0  0  0  0  0  0  0  0
   48.3930   31.3845   47.9526 H   0  0  0  0  0  0  0  0  0  0  0  0
   46.6178   31.0415   46.4173 H   0  0  0  0  0  0  0  0  0  0  0  0
   47.6159   32.3355   45.7308 H   0  0  0  0  0  0  0  0  0  0  0  0
  1  6  2  0
  2  1  1  0
  3  2  2  0
  3  4  1  0
  4  5  2  0
  5  6  1  0
  5  7  1  0
  7  8  1  0
  8  9  1  0
  9 10  1  0
 11 10  1  0
 12  7  1  0
 12 11  1  0
 13  3  1  0
 14 13  1  0
 15 13  1  0
 16 13  1  0
  1 17  1  0
  2 18  1  0
  8 19  1  0
  8 20  1  0
  9 21  1  0
  9 22  1  0
 10 23  1  0
 11 24  1  0
 11 25  1  0
 12 26  1  0
 12 27  1  0
M  ISO  8  17  14  18  14  19  13  20  13  21  13  22  13  23   5  24  13
M  ISO  3  25  13  26  13  27  13
M  END
>  <minimizedAffinity>  (1) 
-5.52425861

>  <minimizedRMSD>  (1) 
0.426870227

$$$$
