
     RDKit          3D

 25 25  0  0  0  0  0  0  0  0999 V2000
   46.8160   33.1390   44.5570 C   0  0  0  0  0  0  0  0  0  0  0  0
   45.7000   34.0310   44.5060 C   0  0  0  0  0  0  0  0  0  0  0  0
   45.7390   35.0320   43.5230 C   0  0  0  0  0  0  0  0  0  0  0  0
   46.8040   35.1000   42.6960 N   0  0  0  0  0  0  0  0  0  0  0  0
   47.8400   34.2460   42.7690 C   0  0  0  0  0  0  0  0  0  0  0  0
   47.8300   33.2730   43.7040 N   0  0  0  0  0  0  0  0  0  0  0  0
   44.5970   35.9810   43.4400 C   0  0  0  0  0  0  0  0  0  0  0  0
   45.1680   37.2440   43.3460 F   0  0  0  0  0  0  0  0  0  0  0  0
   43.8340   35.7750   42.2990 F   0  0  0  0  0  0  0  0  0  0  0  0
   43.7790   35.9250   44.5330 F   0  0  0  0  0  0  0  0  0  0  0  0
   48.9780   34.3830   41.8240 C   0  0  0  0  0  0  0  0  0  0  0  0
   50.3080   34.0380   42.4210 C   0  0  0  0  0  0  0  0  0  0  0  0
   49.0600   35.8510   41.3860 C   0  0  0  0  0  0  0  0  0  0  0  0
   48.7670   33.5470   40.5990 C   0  0  0  0  0  0  0  0  0  0  0  0
   46.8374   32.3349   45.3073 H   0  0  0  0  0  0  0  0  0  0  0  0
   44.8534   33.9375   45.2021 H   0  0  0  0  0  0  0  0  0  0  0  0
   50.2335   34.0573   43.5183 H   0  0  0  0  0  0  0  0  0  0  0  0
   50.6080   33.0323   42.0915 H   0  0  0  0  0  0  0  0  0  0  0  0
   51.0591   34.7710   42.0915 H   0  0  0  0  0  0  0  0  0  0  0  0
   49.0961   36.4975   42.2752 H   0  0  0  0  0  0  0  0  0  0  0  0
   49.9681   36.0040   40.7844 H   0  0  0  0  0  0  0  0  0  0  0  0
   48.1746   36.1041   40.7844 H   0  0  0  0  0  0  0  0  0  0  0  0
   48.5078   32.5201   40.8961 H   0  0  0  0  0  0  0  0  0  0  0  0
   47.9483   33.9733   40.0007 H   0  0  0  0  0  0  0  0  0  0  0  0
   49.6900   33.5337   40.0007 H   0  0  0  0  0  0  0  0  0  0  0  0
  2  1  2  0
  3  2  1  0
  4  5  1  0
  4  3  2  0
  5  6  2  0
  6  1  1  0
  7  3  1  0
  7 10  1  0
  8  7  1  0
  9  7  1  0
 11 12  1  0
 11  5  1  0
 13 11  1  0
 14 11  1  0
  1 15  1  0
  2 16  1  0
 12 17  1  0
 12 18  1  0
 12 19  1  0
 13 20  1  0
 13 21  1  0
 13 22  1  0
 14 23  1  0
 14 24  1  0
 14 25  1  0
M  ISO  8  15  14  16  14  17   8  18   8  19   8  20   8  21   8  22   8
M  ISO  3  23   8  24   8  25   8
M  END
>  <minimizedAffinity>  (1) 
-4.99225664

>  <minimizedRMSD>  (1) 
4.53065062

$$$$
