
     RDKit          3D

 26 27  0  0  0  0  0  0  0  0999 V2000
   44.5610   35.4640   44.8260 C   0  0  0  0  0  0  0  0  0  0  0  0
   45.1650   35.4880   43.5330 C   0  0  0  0  0  0  0  0  0  0  0  0
   46.2410   34.6320   43.3070 C   0  0  0  0  0  0  0  0  0  0  0  0
   46.6570   33.8270   44.3150 N   0  0  0  0  0  0  0  0  0  0  0  0
   46.0600   33.8290   45.5330 C   0  0  0  0  0  0  0  0  0  0  0  0
   45.0290   34.6450   45.7610 N   0  0  0  0  0  0  0  0  0  0  0  0
   46.5210   32.9420   46.6360 C   0  0  0  0  0  0  0  0  0  0  0  0
   45.4330   32.5650   47.5870 C   0  0  0  0  0  0  0  0  0  0  0  0
   45.4200   31.0410   47.5940 C   0  0  0  0  0  0  0  0  0  0  0  0
   45.7860   30.7640   46.1360 C   0  0  0  0  0  0  0  0  0  0  0  0
   47.0130   31.6410   45.9970 C   0  0  0  0  0  0  0  0  0  0  0  0
   46.8940   34.6340   41.9630 C   0  0  0  0  0  0  0  0  0  0  0  0
   47.7060   35.7480   41.9520 F   0  0  0  0  0  0  0  0  0  0  0  0
   47.6710   33.5120   41.7620 F   0  0  0  0  0  0  0  0  0  0  0  0
   45.9560   34.7130   40.9440 F   0  0  0  0  0  0  0  0  0  0  0  0
   43.7088   36.1231   45.0479 H   0  0  0  0  0  0  0  0  0  0  0  0
   44.7944   36.1581   42.7433 H   0  0  0  0  0  0  0  0  0  0  0  0
   47.2933   33.4877   47.1980 H   0  0  0  0  0  0  0  0  0  0  0  0
   45.6482   32.9537   48.5933 H   0  0  0  0  0  0  0  0  0  0  0  0
   44.4609   32.9834   47.2870 H   0  0  0  0  0  0  0  0  0  0  0  0
   46.1682   30.6298   48.2876 H   0  0  0  0  0  0  0  0  0  0  0  0
   44.4749   30.5879   47.9279 H   0  0  0  0  0  0  0  0  0  0  0  0
   46.0227   29.7027   45.9698 H   0  0  0  0  0  0  0  0  0  0  0  0
   44.9851   30.9725   45.4114 H   0  0  0  0  0  0  0  0  0  0  0  0
   47.8715   31.2229   46.5431 H   0  0  0  0  0  0  0  0  0  0  0  0
   47.3737   31.7531   44.9639 H   0  0  0  0  0  0  0  0  0  0  0  0
  1  6  2  0
  2  1  1  0
  3  2  2  0
  3  4  1  0
  4  5  2  0
  5  6  1  0
  5  7  1  0
  7  8  1  0
  8  9  1  0
 10  9  1  0
 11 10  1  0
 11  7  1  0
 12  3  1  0
 13 12  1  0
 14 12  1  0
 15 12  1  0
  1 16  1  0
  2 17  1  0
  7 18  1  0
  8 19  1  0
  8 20  1  0
  9 21  1  0
  9 22  1  0
 10 23  1  0
 10 24  1  0
 11 25  1  0
 11 26  1  0
M  ISO  8  16  14  17  14  18  13  19  13  20  13  21  13  22  13  23  13
M  ISO  3  24  13  25  13  26  13
M  END
>  <minimizedAffinity>  (1) 
-4.88362503

>  <minimizedRMSD>  (1) 
1.21086967

$$$$
