
     RDKit          3D

 19 19  0  0  0  0  0  0  0  0999 V2000
   44.5310   35.8010   44.7210 C   0  0  0  0  0  0  0  0  0  0  0  0
   45.2020   35.7510   43.4760 C   0  0  0  0  0  0  0  0  0  0  0  0
   46.1440   34.7490   43.2800 C   0  0  0  0  0  0  0  0  0  0  0  0
   46.3610   33.8780   44.3040 N   0  0  0  0  0  0  0  0  0  0  0  0
   45.7120   33.9410   45.4830 C   0  0  0  0  0  0  0  0  0  0  0  0
   44.8080   34.8960   45.6790 N   0  0  0  0  0  0  0  0  0  0  0  0
   46.8720   34.6660   41.9800 C   0  0  0  0  0  0  0  0  0  0  0  0
   47.7080   35.7660   41.9600 F   0  0  0  0  0  0  0  0  0  0  0  0
   47.6620   33.5250   41.9060 F   0  0  0  0  0  0  0  0  0  0  0  0
   46.0120   34.7060   40.9180 F   0  0  0  0  0  0  0  0  0  0  0  0
   46.1230   32.8890   46.4240 C   0  0  0  0  0  0  0  0  0  0  0  0
   45.2460   32.8090   47.6620 C   0  0  0  0  0  0  0  0  0  0  0  0
   43.7797   36.5827   44.9070 H   0  0  0  0  0  0  0  0  0  0  0  0
   44.9839   36.4847   42.6860 H   0  0  0  0  0  0  0  0  0  0  0  0
   46.0810   31.9206   45.9040 H   0  0  0  0  0  0  0  0  0  0  0  0
   47.1400   33.1361   46.7625 H   0  0  0  0  0  0  0  0  0  0  0  0
   45.8759   32.8665   48.5619 H   0  0  0  0  0  0  0  0  0  0  0  0
   44.5320   33.6457   47.6602 H   0  0  0  0  0  0  0  0  0  0  0  0
   44.6951   31.8569   47.6602 H   0  0  0  0  0  0  0  0  0  0  0  0
  1  6  2  0
  2  1  1  0
  3  2  2  0
  3  4  1  0
  4  5  2  0
  5  6  1  0
  5 11  1  0
  7  3  1  0
  8  7  1  0
  9  7  1  0
 10  7  1  0
 11 12  1  0
  1 13  1  0
  2 14  1  0
 11 15  1  0
 11 16  1  0
 12 17  1  0
 12 18  1  0
 12 19  1  0
M  ISO  7  13  14  14  14  15   8  16   8  17   8  18   8  19   8
M  END
>  <minimizedAffinity>  (1) 
-4.29695272

>  <minimizedRMSD>  (1) 
0.443747997

$$$$
