
     RDKit          3D

 20 21  0  0  0  0  0  0  0  0999 V2000
   44.6500   35.6300   44.8710 C   0  0  0  0  0  0  0  0  0  0  0  0
   45.2870   35.6710   43.6050 C   0  0  0  0  0  0  0  0  0  0  0  0
   46.1620   34.6320   43.2650 C   0  0  0  0  0  0  0  0  0  0  0  0
   46.3510   33.6380   44.1730 N   0  0  0  0  0  0  0  0  0  0  0  0
   45.7300   33.6220   45.3760 C   0  0  0  0  0  0  0  0  0  0  0  0
   44.8960   34.6070   45.7050 N   0  0  0  0  0  0  0  0  0  0  0  0
   46.8390   34.6640   41.9370 C   0  0  0  0  0  0  0  0  0  0  0  0
   47.6480   35.7840   41.9770 F   0  0  0  0  0  0  0  0  0  0  0  0
   47.6300   33.5490   41.7440 F   0  0  0  0  0  0  0  0  0  0  0  0
   45.9280   34.7710   40.9050 F   0  0  0  0  0  0  0  0  0  0  0  0
   46.0020   32.4990   46.2910 C   0  0  0  0  0  0  0  0  0  0  0  0
   46.9350   32.6140   47.4290 C   0  0  0  0  0  0  0  0  0  0  0  0
   45.4770   32.7130   47.7010 C   0  0  0  0  0  0  0  0  0  0  0  0
   43.9581   36.4318   45.1683 H   0  0  0  0  0  0  0  0  0  0  0  0
   45.0983   36.4994   42.9064 H   0  0  0  0  0  0  0  0  0  0  0  0
   45.9251   31.7606   45.4793 H   0  0  0  0  0  0  0  0  0  0  0  0
   47.4938   31.7290   47.7674 H   0  0  0  0  0  0  0  0  0  0  0  0
   47.8020   33.2542   47.6490 H   0  0  0  0  0  0  0  0  0  0  0  0
   45.0314   33.6778   47.9850 H   0  0  0  0  0  0  0  0  0  0  0  0
   44.7647   32.1952   48.3602 H   0  0  0  0  0  0  0  0  0  0  0  0
  1  6  2  0
  2  1  1  0
  3  2  2  0
  3  4  1  0
  4  5  2  0
  5  6  1  0
  5 11  1  0
  7  8  1  0
  7  3  1  0
  9  7  1  0
 10  7  1  0
 11 12  1  0
 11 13  1  0
 12 13  1  0
  1 14  1  0
  2 15  1  0
 11 16  1  0
 12 17  1  0
 12 18  1  0
 13 19  1  0
 13 20  1  0
M  ISO  7  14  14  15  14  16  13  17  13  18  13  19  13  20  13
M  END
>  <minimizedAffinity>  (1) 
-4.43002748

>  <minimizedRMSD>  (1) 
0.642920375

$$$$
