
     RDKit          3D

 14 14  0  0  0  0  0  0  0  0999 V2000
   44.6080   35.8140   44.4050 C   0  0  0  0  0  0  0  0  0  0  0  0
   45.3860   35.7680   43.2190 C   0  0  0  0  0  0  0  0  0  0  0  0
   46.3580   34.7810   43.1090 C   0  0  0  0  0  0  0  0  0  0  0  0
   46.5250   33.9060   44.1300 N   0  0  0  0  0  0  0  0  0  0  0  0
   45.7640   33.9750   45.2550 C   0  0  0  0  0  0  0  0  0  0  0  0
   44.8290   34.9150   45.3730 N   0  0  0  0  0  0  0  0  0  0  0  0
   47.1880   34.7110   41.8750 C   0  0  0  0  0  0  0  0  0  0  0  0
   47.9490   35.8740   41.8750 F   0  0  0  0  0  0  0  0  0  0  0  0
   48.0490   33.6460   41.8640 F   0  0  0  0  0  0  0  0  0  0  0  0
   46.4120   34.6850   40.7340 F   0  0  0  0  0  0  0  0  0  0  0  0
   45.9630   32.8350   46.6160 S   0  0  0  0  0  0  0  0  0  0  0  0
   43.8299   36.5817   44.5283 H   0  0  0  0  0  0  0  0  0  0  0  0
   45.2240   36.4940   42.4087 H   0  0  0  0  0  0  0  0  0  0  0  0
   45.8447   33.5130   47.8006 H   0  0  0  0  0  0  0  0  0  0  0  0
  1  6  2  0
  2  1  1  0
  3  2  2  0
  3  4  1  0
  4  5  2  0
  5  6  1  0
  5 11  1  0
  7  8  1  0
  7  3  1  0
  9  7  1  0
 10  7  1  0
  1 12  1  0
  2 13  1  0
 11 14  1  0
M  ISO  3  12  14  13  14  14  11
M  END
>  <minimizedAffinity>  (1) 
-4.07549381

>  <minimizedRMSD>  (1) 
0.11950434

$$$$
