
     RDKit          3D

 15 15  0  0  0  0  0  0  0  0999 V2000
   44.5860   36.1700   44.4610 C   0  0  0  0  0  0  0  0  0  0  0  0
   45.3570   36.0060   43.2780 C   0  0  0  0  0  0  0  0  0  0  0  0
   46.1480   34.8680   43.1760 C   0  0  0  0  0  0  0  0  0  0  0  0
   46.1520   33.9740   44.1960 N   0  0  0  0  0  0  0  0  0  0  0  0
   45.4000   34.1660   45.3160 C   0  0  0  0  0  0  0  0  0  0  0  0
   44.6350   35.2480   45.4340 N   0  0  0  0  0  0  0  0  0  0  0  0
   45.4560   33.1850   46.3420 N   0  0  0  0  0  0  0  0  0  0  0  0
   46.9620   34.6800   41.9460 C   0  0  0  0  0  0  0  0  0  0  0  0
   47.8290   35.7460   41.9000 F   0  0  0  0  0  0  0  0  0  0  0  0
   47.7380   33.5320   42.0060 F   0  0  0  0  0  0  0  0  0  0  0  0
   46.1980   34.6370   40.8150 F   0  0  0  0  0  0  0  0  0  0  0  0
   43.9463   37.0571   44.5790 H   0  0  0  0  0  0  0  0  0  0  0  0
   45.3285   36.7536   42.4716 H   0  0  0  0  0  0  0  0  0  0  0  0
   44.8981   33.3043   47.1996 H   0  0  0  0  0  0  0  0  0  0  0  0
   46.0545   32.3545   46.2283 H   0  0  0  0  0  0  0  0  0  0  0  0
  1  6  2  0
  2  1  1  0
  3  2  2  0
  3  4  1  0
  4  5  2  0
  5  6  1  0
  5  7  1  0
  8 10  1  0
  8  3  1  0
  9  8  1  0
 11  8  1  0
  1 12  1  0
  2 13  1  0
  7 14  1  0
  7 15  1  0
M  ISO  2  12  14  13  14
M  END
>  <minimizedAffinity>  (1) 
-4.26307249

>  <minimizedRMSD>  (1) 
0.249737307

$$$$
