
     RDKit          3D

 22 22  0  0  0  0  0  0  0  0999 V2000
   44.5740   35.6030   44.8370 C   0  0  0  0  0  0  0  0  0  0  0  0
   45.1820   35.6190   43.5580 C   0  0  0  0  0  0  0  0  0  0  0  0
   46.1740   34.6740   43.2970 C   0  0  0  0  0  0  0  0  0  0  0  0
   46.5060   33.7980   44.2670 N   0  0  0  0  0  0  0  0  0  0  0  0
   45.9030   33.8100   45.4860 C   0  0  0  0  0  0  0  0  0  0  0  0
   44.9520   34.7080   45.7500 N   0  0  0  0  0  0  0  0  0  0  0  0
   46.8340   34.6650   41.9580 C   0  0  0  0  0  0  0  0  0  0  0  0
   47.6730   35.7730   41.9530 F   0  0  0  0  0  0  0  0  0  0  0  0
   47.6080   33.5370   41.7690 F   0  0  0  0  0  0  0  0  0  0  0  0
   45.9150   34.7630   40.9310 F   0  0  0  0  0  0  0  0  0  0  0  0
   46.2830   32.8290   46.5550 C   0  0  0  0  0  0  0  0  0  0  0  0
   46.3610   31.4360   45.9880 C   0  0  0  0  0  0  0  0  0  0  0  0
   45.2070   32.8600   47.6400 C   0  0  0  0  0  0  0  0  0  0  0  0
   43.7865   36.3322   45.0782 H   0  0  0  0  0  0  0  0  0  0  0  0
   44.8817   36.3527   42.7954 H   0  0  0  0  0  0  0  0  0  0  0  0
   47.2661   33.1011   46.9668 H   0  0  0  0  0  0  0  0  0  0  0  0
   46.4018   30.7070   46.8107 H   0  0  0  0  0  0  0  0  0  0  0  0
   45.4723   31.2416   45.3696 H   0  0  0  0  0  0  0  0  0  0  0  0
   47.2658   31.3420   45.3696 H   0  0  0  0  0  0  0  0  0  0  0  0
   45.6848   32.8462   48.6307 H   0  0  0  0  0  0  0  0  0  0  0  0
   44.6068   33.7758   47.5351 H   0  0  0  0  0  0  0  0  0  0  0  0
   44.5550   31.9803   47.5351 H   0  0  0  0  0  0  0  0  0  0  0  0
  1  6  2  0
  2  1  1  0
  3  2  2  0
  3  4  1  0
  4  5  2  0
  5  6  1  0
  5 11  1  0
  7  3  1  0
  8  7  1  0
  9  7  1  0
 10  7  1  0
 11 13  1  0
 12 11  1  0
  1 14  1  0
  2 15  1  0
 11 16  1  0
 12 17  1  0
 12 18  1  0
 12 19  1  0
 13 20  1  0
 13 21  1  0
 13 22  1  0
M  ISO  8  14  14  15  14  16   8  17   8  18   8  19   8  20   8  21   8
M  ISO  1  22   8
M  END
>  <minimizedAffinity>  (1) 
-4.44535875

>  <minimizedRMSD>  (1) 
0.671199977

$$$$
