
     RDKit          3D

 34 37  0  0  1  0  0  0  0  0999 V2000
   46.4070   32.9620   46.5340 C   0  0  1  0  0  0  0  0  0  0  0  0
   45.4590   32.5410   47.6090 C   0  0  0  0  0  0  0  0  0  0  0  0
   45.7780   31.6040   46.4740 C   0  0  2  0  0  0  0  0  0  0  0  0
   46.5630   30.4160   46.9140 C   0  0  0  0  0  0  0  0  0  0  0  0
   47.8380   30.5020   47.3080 N   0  0  0  0  0  0  0  0  0  0  0  0
   48.5180   29.4030   47.7000 C   0  0  0  0  0  0  0  0  0  0  0  0
   47.9230   28.1770   47.7070 N   0  0  0  0  0  0  0  0  0  0  0  0
   46.6430   28.0650   47.3160 C   0  0  0  0  0  0  0  0  0  0  0  0
   46.0060   26.8350   47.3100 C   0  0  0  0  0  0  0  0  0  0  0  0
   44.6770   26.7170   46.9050 C   0  0  0  0  0  0  0  0  0  0  0  0
   43.9950   27.8520   46.5060 C   0  0  0  0  0  0  0  0  0  0  0  0
   44.6030   29.0860   46.5020 C   0  0  0  0  0  0  0  0  0  0  0  0
   45.9330   29.1880   46.9100 C   0  0  0  0  0  0  0  0  0  0  0  0
   44.5730   35.5960   44.6950 C   0  0  0  0  0  0  0  0  0  0  0  0
   45.2370   35.5840   43.4460 C   0  0  0  0  0  0  0  0  0  0  0  0
   46.2990   34.6810   43.2640 C   0  0  0  0  0  0  0  0  0  0  0  0
   46.6350   33.8630   44.2980 N   0  0  0  0  0  0  0  0  0  0  0  0
   45.9840   33.8970   45.4780 C   0  0  0  0  0  0  0  0  0  0  0  0
   44.9680   34.7540   45.6700 N   0  0  0  0  0  0  0  0  0  0  0  0
   47.0200   34.6630   41.9540 C   0  0  0  0  0  0  0  0  0  0  0  0
   46.0090   34.7950   41.0030 F   0  0  0  0  0  0  0  0  0  0  0  0
   47.8580   35.7490   41.8150 F   0  0  0  0  0  0  0  0  0  0  0  0
   47.6850   33.4850   41.7510 F   0  0  0  0  0  0  0  0  0  0  0  0
   47.4235   33.3813   46.5625 H   0  0  0  0  0  0  0  0  0  0  0  0
   45.8341   32.3275   48.6208 H   0  0  0  0  0  0  0  0  0  0  0  0
   44.5359   32.9565   48.0393 H   0  0  0  0  0  0  0  0  0  0  0  0
   45.2405   31.0687   45.6774 H   0  0  0  0  0  0  0  0  0  0  0  0
   49.5667   29.4988   48.0180 H   0  0  0  0  0  0  0  0  0  0  0  0
   46.5568   25.9380   47.6295 H   0  0  0  0  0  0  0  0  0  0  0  0
   44.1787   25.7363   46.9029 H   0  0  0  0  0  0  0  0  0  0  0  0
   42.9462   27.7664   46.1857 H   0  0  0  0  0  0  0  0  0  0  0  0
   44.0480   29.9800   46.1815 H   0  0  0  0  0  0  0  0  0  0  0  0
   43.7375   36.2899   44.8696 H   0  0  0  0  0  0  0  0  0  0  0  0
   44.9301   36.2640   42.6376 H   0  0  0  0  0  0  0  0  0  0  0  0
  1  2  1  0
  3  1  1  0
  3  4  1  0
  3  2  1  0
  4  5  2  0
  5  6  1  0
  6  7  2  0
  8  7  1  0
  9  8  2  0
 10  9  1  0
 11 10  2  0
 12 11  1  0
 12 13  2  0
 13  4  1  0
 13  8  1  0
 14 19  2  0
 15 14  1  0
 16 15  2  0
 16 17  1  0
 17 18  2  0
 18 19  1  0
 18  1  1  0
 20 16  1  0
 21 20  1  0
 22 20  1  0
 23 20  1  0
  1 24  1  1
  2 25  1  0
  2 26  1  0
  3 27  1  6
  6 28  1  0
  9 29  1  0
 10 30  1  0
 11 31  1  0
 12 32  1  0
 14 33  1  0
 15 34  1  0
M  ISO  8  24  13  25  13  26  13  27  13  28  14  29  14  30  14  31  14
M  ISO  3  32  14  33  14  34  14
M  END
>  <minimizedAffinity>  (1) 
-5.96761322

>  <minimizedRMSD>  (1) 
2.53061414

$$$$
