
     RDKit          3D

 33 35  0  0  1  0  0  0  0  0999 V2000
   46.8220   32.3980   45.5060 C   0  0  1  0  0  0  0  0  0  0  0  0
   47.1170   32.6920   46.9410 C   0  0  0  0  0  0  0  0  0  0  0  0
   45.7580   32.2000   46.5350 C   0  0  2  0  0  0  0  0  0  0  0  0
   45.2280   35.2430   43.7430 C   0  0  0  0  0  0  0  0  0  0  0  0
   46.1720   35.4930   42.7210 C   0  0  0  0  0  0  0  0  0  0  0  0
   47.3200   34.7050   42.6560 C   0  0  0  0  0  0  0  0  0  0  0  0
   47.4790   33.7230   43.5850 N   0  0  0  0  0  0  0  0  0  0  0  0
   46.5680   33.5000   44.5530 C   0  0  0  0  0  0  0  0  0  0  0  0
   45.4570   34.2540   44.6260 N   0  0  0  0  0  0  0  0  0  0  0  0
   48.3300   34.9680   41.5850 C   0  0  0  0  0  0  0  0  0  0  0  0
   48.7830   36.2600   41.8460 F   0  0  0  0  0  0  0  0  0  0  0  0
   49.4140   34.1200   41.6770 F   0  0  0  0  0  0  0  0  0  0  0  0
   47.7730   34.9260   40.3360 F   0  0  0  0  0  0  0  0  0  0  0  0
   44.9100   28.2090   47.9330 C   0  0  0  0  0  0  0  0  0  0  0  0
   44.9570   29.2730   48.8000 C   0  0  0  0  0  0  0  0  0  0  0  0
   45.2250   30.5640   48.3840 C   0  0  0  0  0  0  0  0  0  0  0  0
   45.4640   30.8370   47.0510 C   0  0  0  0  0  0  0  0  0  0  0  0
   45.4120   29.7510   46.2000 C   0  0  0  0  0  0  0  0  0  0  0  0
   45.1470   28.4560   46.5930 C   0  0  0  0  0  0  0  0  0  0  0  0
   44.5750   26.5590   48.4160 S   0  0  0  0  0  0  0  0  0  0  0  0
   44.1360   26.4900   49.8480 O   0  0  0  0  0  0  0  0  0  0  0  0
   43.4800   25.9570   47.5860 O   0  0  0  0  0  0  0  0  0  0  0  0
   47.3388   31.7890   44.7497 H   0  0  0  0  0  0  0  0  0  0  0  0
   47.7927   32.0362   47.5097 H   0  0  0  0  0  0  0  0  0  0  0  0
   47.4965   33.5628   47.4957 H   0  0  0  0  0  0  0  0  0  0  0  0
   44.7120   32.5362   46.5877 H   0  0  0  0  0  0  0  0  0  0  0  0
   44.3145   35.8515   43.8157 H   0  0  0  0  0  0  0  0  0  0  0  0
   46.0034   36.2964   41.9888 H   0  0  0  0  0  0  0  0  0  0  0  0
   44.7739   29.0906   49.8692 H   0  0  0  0  0  0  0  0  0  0  0  0
   45.2481   31.3806   49.1206 H   0  0  0  0  0  0  0  0  0  0  0  0
   45.5953   29.9319   45.1306 H   0  0  0  0  0  0  0  0  0  0  0  0
   45.1246   27.6383   45.8576 H   0  0  0  0  0  0  0  0  0  0  0  0
   45.7425   25.8644   48.2390 H   0  0  0  0  0  0  0  0  0  0  0  0
  1  3  1  0
  1  2  1  0
  3  2  1  0
  3 17  1  0
  4  9  2  0
  5  4  1  0
  6  5  2  0
  6  7  1  0
  7  8  2  0
  8  9  1  0
  8  1  1  0
 10 12  1  0
 10 11  1  0
 10  6  1  0
 13 10  1  0
 14 20  1  0
 14 15  2  0
 16 15  1  0
 17 16  2  0
 18 19  2  0
 18 17  1  0
 19 14  1  0
 20 21  2  0
 22 20  2  0
  1 23  1  6
  2 24  1  0
  2 25  1  0
  3 26  1  6
  4 27  1  0
  5 28  1  0
 15 29  1  0
 16 30  1  0
 18 31  1  0
 19 32  1  0
 20 33  1  0
M  ISO  8  23  13  24  13  25  13  26  13  27  14  28  14  29  14  30  14
M  ISO  3  31  14  32  14  33  11
M  END
>  <minimizedAffinity>  (1) 
-5.62640238

>  <minimizedRMSD>  (1) 
1.78060853

$$$$
