
     RDKit          3D

 27 29  0  0  1  0  0  0  0  0999 V2000
   44.8360   35.4000   44.5330 C   0  0  0  0  0  0  0  0  0  0  0  0
   45.5690   35.5200   43.3270 C   0  0  0  0  0  0  0  0  0  0  0  0
   46.5720   34.5850   43.0610 C   0  0  0  0  0  0  0  0  0  0  0  0
   46.7970   33.5970   43.9770 N   0  0  0  0  0  0  0  0  0  0  0  0
   46.0870   33.5060   45.1140 C   0  0  0  0  0  0  0  0  0  0  0  0
   45.1200   34.3960   45.3870 N   0  0  0  0  0  0  0  0  0  0  0  0
   46.3790   32.3960   46.0420 C   0  0  1  0  0  0  0  0  0  0  0  0
   47.1750   32.6280   47.2850 C   0  0  0  0  0  0  0  0  0  0  0  0
   45.6900   32.4870   47.3660 C   0  0  2  0  0  0  0  0  0  0  0  0
   45.1780   31.2720   48.0690 C   0  0  0  0  0  0  0  0  0  0  0  0
   44.9380   31.4750   49.5660 C   0  0  0  0  0  0  0  0  0  0  0  0
   46.0270   30.6000   49.0650 C   0  0  0  0  0  0  0  0  0  0  0  0
   47.3690   34.6980   41.7970 C   0  0  0  0  0  0  0  0  0  0  0  0
   48.0090   35.9300   41.9080 F   0  0  0  0  0  0  0  0  0  0  0  0
   48.3410   33.7280   41.7110 F   0  0  0  0  0  0  0  0  0  0  0  0
   46.5610   34.6970   40.6920 F   0  0  0  0  0  0  0  0  0  0  0  0
   44.0403   36.1211   44.7713 H   0  0  0  0  0  0  0  0  0  0  0  0
   45.3533   36.3311   42.6160 H   0  0  0  0  0  0  0  0  0  0  0  0
   46.4737   31.6677   45.2231 H   0  0  0  0  0  0  0  0  0  0  0  0
   47.8251   31.8325   47.6781 H   0  0  0  0  0  0  0  0  0  0  0  0
   47.9031   33.3849   47.6120 H   0  0  0  0  0  0  0  0  0  0  0  0
   44.8386   33.0838   47.7251 H   0  0  0  0  0  0  0  0  0  0  0  0
   44.6155   30.9114   47.1952 H   0  0  0  0  0  0  0  0  0  0  0  0
   45.1751   32.4391   50.0397 H   0  0  0  0  0  0  0  0  0  0  0  0
   44.0843   31.3561   50.2494 H   0  0  0  0  0  0  0  0  0  0  0  0
   45.9524   29.5104   49.1961 H   0  0  0  0  0  0  0  0  0  0  0  0
   47.1124   30.5561   49.2384 H   0  0  0  0  0  0  0  0  0  0  0  0
  1  6  2  0
  2  1  1  0
  3  2  2  0
  3  4  1  0
  4  5  2  0
  5  6  1  0
  5  7  1  0
  7  8  1  0
  7  9  1  0
  8  9  1  0
  9 10  1  0
 10 12  1  0
 10 11  1  0
 12 11  1  0
 13 14  1  0
 13  3  1  0
 15 13  1  0
 16 13  1  0
  1 17  1  0
  2 18  1  0
  7 19  1  6
  8 20  1  0
  8 21  1  0
  9 22  1  6
 10 23  1  0
 11 24  1  0
 11 25  1  0
 12 26  1  0
 12 27  1  0
M  ISO  8  17  14  18  14  19  13  20  13  21  13  22  13  23  13  24  13
M  ISO  3  25  13  26  13  27  13
M  END
>  <minimizedAffinity>  (1) 
-5.20628119

>  <minimizedRMSD>  (1) 
0.809548736

$$$$
