
     RDKit          3D

 34 36  0  0  1  0  0  0  0  0999 V2000
   45.9830   32.0570   45.0930 C   0  0  1  0  0  0  0  0  0  0  0  0
   47.3420   31.6360   44.6470 C   0  0  0  0  0  0  0  0  0  0  0  0
   47.1510   32.1580   46.0310 C   0  0  2  0  0  0  0  0  0  0  0  0
   44.6950   35.5300   45.1710 C   0  0  0  0  0  0  0  0  0  0  0  0
   44.3440   35.7310   43.8060 C   0  0  0  0  0  0  0  0  0  0  0  0
   44.5640   34.6840   42.9060 C   0  0  0  0  0  0  0  0  0  0  0  0
   45.1000   33.5210   43.3760 N   0  0  0  0  0  0  0  0  0  0  0  0
   45.4220   33.3630   44.6780 C   0  0  0  0  0  0  0  0  0  0  0  0
   45.2190   34.3600   45.5560 N   0  0  0  0  0  0  0  0  0  0  0  0
   44.2130   34.8780   41.4660 C   0  0  0  0  0  0  0  0  0  0  0  0
   43.8310   36.2160   41.3840 F   0  0  0  0  0  0  0  0  0  0  0  0
   45.3050   34.7080   40.6380 F   0  0  0  0  0  0  0  0  0  0  0  0
   43.1690   34.0830   41.0760 F   0  0  0  0  0  0  0  0  0  0  0  0
   47.0650   31.2700   47.1590 N   0  0  0  0  0  0  0  0  0  0  0  0
   46.0250   30.3130   46.9660 C   0  0  0  0  0  0  0  0  0  0  0  0
   44.9380   30.3130   47.9860 C   0  0  0  0  0  0  0  0  0  0  0  0
   44.6550   31.6840   48.3430 N   0  0  0  0  0  0  0  0  0  0  0  0
   45.7870   32.2640   49.0320 C   0  0  0  0  0  0  0  0  0  0  0  0
   47.1040   31.9110   48.4350 C   0  0  0  0  0  0  0  0  0  0  0  0
   45.0031   31.5584   45.0591 H   0  0  0  0  0  0  0  0  0  0  0  0
   47.5616   30.5699   44.4881 H   0  0  0  0  0  0  0  0  0  0  0  0
   47.9968   31.8986   43.8030 H   0  0  0  0  0  0  0  0  0  0  0  0
   47.6816   32.9316   46.6055 H   0  0  0  0  0  0  0  0  0  0  0  0
   44.5363   36.3327   45.9061 H   0  0  0  0  0  0  0  0  0  0  0  0
   43.9114   36.6844   43.4685 H   0  0  0  0  0  0  0  0  0  0  0  0
   45.5661   30.5081   45.9855 H   0  0  0  0  0  0  0  0  0  0  0  0
   46.5091   29.3288   47.0493 H   0  0  0  0  0  0  0  0  0  0  0  0
   44.0354   29.8429   47.5685 H   0  0  0  0  0  0  0  0  0  0  0  0
   45.2506   29.7453   48.8749 H   0  0  0  0  0  0  0  0  0  0  0  0
   44.4629   32.2256   47.4882 H   0  0  0  0  0  0  0  0  0  0  0  0
   45.6804   33.3586   49.0122 H   0  0  0  0  0  0  0  0  0  0  0  0
   45.7809   31.8566   50.0538 H   0  0  0  0  0  0  0  0  0  0  0  0
   47.6197   31.2364   49.1342 H   0  0  0  0  0  0  0  0  0  0  0  0
   47.6187   32.8688   48.2684 H   0  0  0  0  0  0  0  0  0  0  0  0
  1  3  1  0
  2  1  1  0
  2  3  1  0
  3 14  1  0
  4  9  2  0
  5  4  1  0
  6  7  1  0
  6  5  2  0
  7  8  2  0
  8  1  1  0
  8  9  1  0
 10  6  1  0
 11 10  1  0
 12 10  1  0
 13 10  1  0
 14 19  1  0
 15 14  1  0
 15 16  1  0
 16 17  1  0
 17 18  1  0
 19 18  1  0
  1 20  1  1
  2 21  1  0
  2 22  1  0
  3 23  1  1
  4 24  1  0
  5 25  1  0
 15 26  1  0
 15 27  1  0
 16 28  1  0
 16 29  1  0
 17 30  1  0
 18 31  1  0
 18 32  1  0
 19 33  1  0
 19 34  1  0
M  ISO  8  20  13  21  13  22  13  23  13  24  14  25  14  26  13  27  13
M  ISO  7  28  13  29  13  30   5  31  13  32  13  33  13  34  13
M  END
>  <minimizedAffinity>  (1) 
-5.35839987

>  <minimizedRMSD>  (1) 
2.36186075

$$$$
