
     RDKit          3D

 27 29  0  0  1  0  0  0  0  0999 V2000
   46.6860   32.4200   45.7820 C   0  0  1  0  0  0  0  0  0  0  0  0
   47.0750   32.7230   47.1920 C   0  0  0  0  0  0  0  0  0  0  0  0
   45.6830   32.2590   46.8860 C   0  0  2  0  0  0  0  0  0  0  0  0
   45.0500   35.2880   44.1020 C   0  0  0  0  0  0  0  0  0  0  0  0
   45.9050   35.4870   42.9900 C   0  0  0  0  0  0  0  0  0  0  0  0
   47.0190   34.6450   42.8450 C   0  0  0  0  0  0  0  0  0  0  0  0
   47.2260   33.6730   43.7820 N   0  0  0  0  0  0  0  0  0  0  0  0
   46.3880   33.5150   44.8290 C   0  0  0  0  0  0  0  0  0  0  0  0
   45.3180   34.3110   44.9850 N   0  0  0  0  0  0  0  0  0  0  0  0
   47.9340   34.8480   41.6850 C   0  0  0  0  0  0  0  0  0  0  0  0
   48.4310   36.1380   41.8610 F   0  0  0  0  0  0  0  0  0  0  0  0
   49.0100   33.9860   41.7230 F   0  0  0  0  0  0  0  0  0  0  0  0
   47.2760   34.7720   40.4880 F   0  0  0  0  0  0  0  0  0  0  0  0
   45.3510   30.8160   47.1640 C   0  0  0  0  0  0  0  0  0  0  0  0
   45.5710   30.2090   48.3760 C   0  0  0  0  0  0  0  0  0  0  0  0
   45.1430   28.9280   48.2180 N   0  0  0  0  0  0  0  0  0  0  0  0
   44.6800   28.7820   46.9440 C   0  0  0  0  0  0  0  0  0  0  0  0
   44.8110   29.9470   46.3010 N   0  0  0  0  0  0  0  0  0  0  0  0
   47.1439   31.7929   45.0028 H   0  0  0  0  0  0  0  0  0  0  0  0
   47.7710   32.0585   47.7249 H   0  0  0  0  0  0  0  0  0  0  0  0
   47.5081   33.5922   47.7086 H   0  0  0  0  0  0  0  0  0  0  0  0
   44.6863   32.6506   47.1373 H   0  0  0  0  0  0  0  0  0  0  0  0
   44.1690   35.9316   44.2423 H   0  0  0  0  0  0  0  0  0  0  0  0
   45.7009   36.2821   42.2578 H   0  0  0  0  0  0  0  0  0  0  0  0
   46.0014   30.6622   49.2812 H   0  0  0  0  0  0  0  0  0  0  0  0
   44.2664   27.8573   46.5153 H   0  0  0  0  0  0  0  0  0  0  0  0
   44.5460   30.1396   45.3245 H   0  0  0  0  0  0  0  0  0  0  0  0
  1  3  1  0
  1  2  1  0
  3 14  1  0
  3  2  1  0
  4  9  2  0
  5  4  1  0
  6  5  2  0
  6  7  1  0
  7  8  2  0
  8  9  1  0
  8  1  1  0
 10 12  1  0
 10 11  1  0
 10  6  1  0
 13 10  1  0
 14 15  2  0
 16 15  1  0
 17 16  2  0
 18 17  1  0
 18 14  1  0
  1 19  1  6
  2 20  1  0
  2 21  1  0
  3 22  1  6
  4 23  1  0
  5 24  1  0
 15 25  1  0
 17 26  1  0
 18 27  1  0
M  ISO  8  19  13  20  13  21  13  22  13  23  14  24  14  25  14  26  14
M  ISO  1  27   9
M  END
>  <minimizedAffinity>  (1) 
-5.23438358

>  <minimizedRMSD>  (1) 
1.20609546

$$$$
