
     RDKit          3D

 26 28  0  0  1  0  0  0  0  0999 V2000
   45.0430   35.2850   44.0450 C   0  0  0  0  0  0  0  0  0  0  0  0
   45.9020   35.4910   42.9340 C   0  0  0  0  0  0  0  0  0  0  0  0
   47.0330   34.6610   42.8010 C   0  0  0  0  0  0  0  0  0  0  0  0
   47.2480   33.6970   43.7500 N   0  0  0  0  0  0  0  0  0  0  0  0
   46.4080   33.5340   44.7890 C   0  0  0  0  0  0  0  0  0  0  0  0
   45.3260   34.3170   44.9320 N   0  0  0  0  0  0  0  0  0  0  0  0
   46.7020   32.4560   45.7540 C   0  0  1  0  0  0  0  0  0  0  0  0
   47.1020   32.7770   47.1580 C   0  0  0  0  0  0  0  0  0  0  0  0
   45.7080   32.3090   46.8660 C   0  0  2  0  0  0  0  0  0  0  0  0
   45.4480   30.9860   47.4280 N   0  0  0  0  0  0  0  0  0  0  0  0
   45.0830   30.8200   48.7130 C   0  0  0  0  0  0  0  0  0  0  0  0
   44.9130   29.5140   48.9510 N   0  0  0  0  0  0  0  0  0  0  0  0
   45.1710   28.8460   47.8050 C   0  0  0  0  0  0  0  0  0  0  0  0
   45.4940   29.7930   46.9030 N   0  0  0  0  0  0  0  0  0  0  0  0
   47.9520   34.8680   41.6450 C   0  0  0  0  0  0  0  0  0  0  0  0
   48.4470   36.1570   41.8290 F   0  0  0  0  0  0  0  0  0  0  0  0
   49.0220   34.0020   41.6820 F   0  0  0  0  0  0  0  0  0  0  0  0
   47.2920   34.7990   40.4470 F   0  0  0  0  0  0  0  0  0  0  0  0
   44.1508   35.9144   44.1788 H   0  0  0  0  0  0  0  0  0  0  0  0
   45.6903   36.2784   42.1957 H   0  0  0  0  0  0  0  0  0  0  0  0
   47.1506   31.8173   44.9789 H   0  0  0  0  0  0  0  0  0  0  0  0
   47.8018   32.1192   47.6944 H   0  0  0  0  0  0  0  0  0  0  0  0
   47.5388   33.6523   47.6610 H   0  0  0  0  0  0  0  0  0  0  0  0
   44.6758   32.6704   46.9845 H   0  0  0  0  0  0  0  0  0  0  0  0
   44.9466   31.6268   49.4481 H   0  0  0  0  0  0  0  0  0  0  0  0
   45.1266   27.7589   47.6430 H   0  0  0  0  0  0  0  0  0  0  0  0
  1  6  2  0
  2  1  1  0
  3  2  2  0
  3  4  1  0
  4  5  2  0
  5  6  1  0
  5  7  1  0
  7  9  1  0
  7  8  1  0
  9  8  1  0
  9 10  1  0
 10 11  1  0
 11 12  2  0
 13 12  1  0
 14 10  1  0
 14 13  2  0
 15 17  1  0
 15 16  1  0
 15  3  1  0
 18 15  1  0
  1 19  1  0
  2 20  1  0
  7 21  1  6
  8 22  1  0
  8 23  1  0
  9 24  1  6
 11 25  1  0
 13 26  1  0
M  ISO  8  19  14  20  14  21  13  22  13  23  13  24  13  25  14  26  14
M  END
>  <minimizedAffinity>  (1) 
-5.08272505

>  <minimizedRMSD>  (1) 
1.17446613

$$$$
