
     RDKit          3D

 32 33  0  0  1  0  0  0  0  0999 V2000
   44.7570   35.2000   45.0080 C   0  0  0  0  0  0  0  0  0  0  0  0
   45.2800   35.3440   43.6940 C   0  0  0  0  0  0  0  0  0  0  0  0
   46.3170   34.4870   43.2960 C   0  0  0  0  0  0  0  0  0  0  0  0
   46.7770   33.5510   44.1850 N   0  0  0  0  0  0  0  0  0  0  0  0
   46.2560   33.4460   45.4210 C   0  0  0  0  0  0  0  0  0  0  0  0
   45.2630   34.2570   45.8230 N   0  0  0  0  0  0  0  0  0  0  0  0
   46.7900   32.4010   46.3170 C   0  0  1  0  0  0  0  0  0  0  0  0
   47.2170   32.7330   47.7100 C   0  0  0  0  0  0  0  0  0  0  0  0
   45.9070   32.0540   47.4780 C   0  0  2  0  0  0  0  0  0  0  0  0
   45.7290   30.6280   47.9030 C   0  0  0  0  0  0  0  0  0  0  0  0
   44.7960   29.8750   46.9810 C   0  0  0  0  0  0  0  0  0  0  0  0
   45.1650   30.6100   49.2980 C   0  0  0  0  0  0  0  0  0  0  0  0
   47.0310   29.8610   47.9360 C   0  0  0  0  0  0  0  0  0  0  0  0
   46.8890   34.6310   41.9220 C   0  0  0  0  0  0  0  0  0  0  0  0
   47.6560   35.7910   41.9880 F   0  0  0  0  0  0  0  0  0  0  0  0
   47.7320   33.5900   41.6040 F   0  0  0  0  0  0  0  0  0  0  0  0
   45.9090   34.7840   40.9780 F   0  0  0  0  0  0  0  0  0  0  0  0
   43.9445   35.8549   45.3558 H   0  0  0  0  0  0  0  0  0  0  0  0
   44.8825   36.1065   43.0081 H   0  0  0  0  0  0  0  0  0  0  0  0
   47.2900   31.8757   45.4899 H   0  0  0  0  0  0  0  0  0  0  0  0
   48.0466   32.1815   48.1764 H   0  0  0  0  0  0  0  0  0  0  0  0
   47.5352   33.6505   48.2267 H   0  0  0  0  0  0  0  0  0  0  0  0
   44.8586   32.2606   47.7390 H   0  0  0  0  0  0  0  0  0  0  0  0
   44.0778   29.2954   47.5796 H   0  0  0  0  0  0  0  0  0  0  0  0
   44.2517   30.5899   46.3464 H   0  0  0  0  0  0  0  0  0  0  0  0
   45.3799   29.1921   46.3464 H   0  0  0  0  0  0  0  0  0  0  0  0
   45.9885   30.6363   50.0268 H   0  0  0  0  0  0  0  0  0  0  0  0
   44.5185   31.4880   49.4435 H   0  0  0  0  0  0  0  0  0  0  0  0
   44.5758   29.6926   49.4435 H   0  0  0  0  0  0  0  0  0  0  0  0
   47.3273   29.6864   48.9808 H   0  0  0  0  0  0  0  0  0  0  0  0
   46.9007   28.8953   47.4256 H   0  0  0  0  0  0  0  0  0  0  0  0
   47.8125   30.4430   47.4256 H   0  0  0  0  0  0  0  0  0  0  0  0
  1  6  2  0
  2  1  1  0
  3  2  2  0
  3  4  1  0
  4  5  2  0
  5  6  1  0
  5  7  1  0
  7  9  1  0
  7  8  1  0
  9  8  1  0
  9 10  1  0
 10 13  1  0
 10 12  1  0
 11 10  1  0
 14 15  1  0
 14  3  1  0
 16 14  1  0
 17 14  1  0
  1 18  1  0
  2 19  1  0
  7 20  1  6
  8 21  1  0
  8 22  1  0
  9 23  1  6
 11 24  1  0
 11 25  1  0
 11 26  1  0
 12 27  1  0
 12 28  1  0
 12 29  1  0
 13 30  1  0
 13 31  1  0
 13 32  1  0
M  ISO  8  18  14  19  14  20  13  21  13  22  13  23  13  24   8  25   8
M  ISO  7  26   8  27   8  28   8  29   8  30   8  31   8  32   8
M  END
>  <minimizedAffinity>  (1) 
-5.1917305

>  <minimizedRMSD>  (1) 
0.890129447

$$$$
