
     RDKit          3D

 33 35  0  0  1  0  0  0  0  0999 V2000
   46.5800   32.5350   46.0810 C   0  0  1  0  0  0  0  0  0  0  0  0
   47.1000   32.9070   47.4320 C   0  0  0  0  0  0  0  0  0  0  0  0
   45.6970   32.4440   47.2890 C   0  0  2  0  0  0  0  0  0  0  0  0
   44.8330   35.3610   44.4520 C   0  0  0  0  0  0  0  0  0  0  0  0
   45.5520   35.4780   43.2300 C   0  0  0  0  0  0  0  0  0  0  0  0
   46.6150   34.5950   43.0050 C   0  0  0  0  0  0  0  0  0  0  0  0
   46.9100   33.6630   43.9620 N   0  0  0  0  0  0  0  0  0  0  0  0
   46.1980   33.5900   45.1080 C   0  0  0  0  0  0  0  0  0  0  0  0
   45.1770   34.4280   45.3450 N   0  0  0  0  0  0  0  0  0  0  0  0
   47.3970   34.7030   41.7360 C   0  0  0  0  0  0  0  0  0  0  0  0
   48.0490   35.9310   41.8430 F   0  0  0  0  0  0  0  0  0  0  0  0
   48.3640   33.7270   41.6390 F   0  0  0  0  0  0  0  0  0  0  0  0
   46.5840   34.7150   40.6350 F   0  0  0  0  0  0  0  0  0  0  0  0
   45.2920   31.1090   47.6200 N   0  0  0  0  0  0  0  0  0  0  0  0
   45.3420   30.1450   46.5840 C   0  0  0  0  0  0  0  0  0  0  0  0
   46.5250   29.2190   46.5850 C   0  0  0  0  0  0  0  0  0  0  0  0
   47.0250   28.9430   47.8480 O   0  0  0  0  0  0  0  0  0  0  0  0
   47.2730   30.1470   48.5100 C   0  0  0  0  0  0  0  0  0  0  0  0
   45.8930   30.6790   48.8530 C   0  0  0  0  0  0  0  0  0  0  0  0
   46.9523   31.8637   45.2931 H   0  0  0  0  0  0  0  0  0  0  0  0
   47.8416   32.2654   47.9304 H   0  0  0  0  0  0  0  0  0  0  0  0
   47.5825   33.7988   47.8585 H   0  0  0  0  0  0  0  0  0  0  0  0
   44.7486   32.8671   47.6516 H   0  0  0  0  0  0  0  0  0  0  0  0
   43.9929   36.0393   44.6621 H   0  0  0  0  0  0  0  0  0  0  0  0
   45.2808   36.2396   42.4841 H   0  0  0  0  0  0  0  0  0  0  0  0
   45.3410   30.6846   45.6254 H   0  0  0  0  0  0  0  0  0  0  0  0
   44.4669   29.4986   46.7461 H   0  0  0  0  0  0  0  0  0  0  0  0
   46.2217   28.2702   46.1183 H   0  0  0  0  0  0  0  0  0  0  0  0
   47.3270   29.7274   46.0298 H   0  0  0  0  0  0  0  0  0  0  0  0
   47.8622   29.9753   49.4229 H   0  0  0  0  0  0  0  0  0  0  0  0
   47.8540   30.8514   47.8966 H   0  0  0  0  0  0  0  0  0  0  0  0
   45.9768   31.5269   49.5487 H   0  0  0  0  0  0  0  0  0  0  0  0
   45.2822   29.9039   49.3390 H   0  0  0  0  0  0  0  0  0  0  0  0
  1  3  1  0
  1  2  1  0
  3  2  1  0
  3 14  1  0
  4  9  2  0
  5  4  1  0
  6  5  2  0
  6  7  1  0
  7  8  2  0
  8  9  1  0
  8  1  1  0
 10 11  1  0
 10  6  1  0
 12 10  1  0
 13 10  1  0
 14 19  1  0
 15 16  1  0
 15 14  1  0
 16 17  1  0
 17 18  1  0
 18 19  1  0
  1 20  1  6
  2 21  1  0
  2 22  1  0
  3 23  1  6
  4 24  1  0
  5 25  1  0
 15 26  1  0
 15 27  1  0
 16 28  1  0
 16 29  1  0
 18 30  1  0
 18 31  1  0
 19 32  1  0
 19 33  1  0
M  ISO  8  20  13  21  13  22  13  23  13  24  14  25  14  26  13  27  13
M  ISO  6  28  13  29  13  30  13  31  13  32  13  33  13
M  END
>  <minimizedAffinity>  (1) 
-4.99218035

>  <minimizedRMSD>  (1) 
0.832425177

$$$$
