
     RDKit          3D

 37 40  0  0  1  0  0  0  0  0999 V2000
   44.5950   35.6540   44.8440 C   0  0  0  0  0  0  0  0  0  0  0  0
   45.3080   35.7090   43.5870 C   0  0  0  0  0  0  0  0  0  0  0  0
   46.2400   34.7220   43.3450 C   0  0  0  0  0  0  0  0  0  0  0  0
   46.4270   33.7620   44.3050 N   0  0  0  0  0  0  0  0  0  0  0  0
   45.7430   33.7540   45.4500 C   0  0  0  0  0  0  0  0  0  0  0  0
   44.8470   34.6790   45.7160 N   0  0  0  0  0  0  0  0  0  0  0  0
   46.0090   32.6810   46.4350 N   0  0  0  0  0  0  0  0  0  0  0  0
   45.2510   32.6530   47.6680 C   0  0  0  0  0  0  0  0  0  0  0  0
   46.0990   32.1690   48.8170 C   0  0  0  0  0  0  0  0  0  0  0  0
   47.5470   32.2400   48.4670 C   0  0  0  0  0  0  0  0  0  0  0  0
   47.7600   31.2260   47.3250 C   0  0  0  0  0  0  0  0  0  0  0  0
   47.0390   31.6720   46.1260 C   0  0  1  0  0  0  0  0  0  0  0  0
   46.4660   30.5640   45.3150 C   0  0  0  0  0  0  0  0  0  0  0  0
   47.1040   29.5890   44.6790 N   0  0  0  0  0  0  0  0  0  0  0  0
   46.2740   28.7820   44.0660 O   0  0  0  0  0  0  0  0  0  0  0  0
   45.0530   29.2490   44.3130 C   0  0  0  0  0  0  0  0  0  0  0  0
   45.1260   30.3540   45.0840 N   0  0  0  0  0  0  0  0  0  0  0  0
   43.6070   28.4170   43.6460 S   0  0  0  0  0  0  0  0  0  0  0  0
   42.9960   27.3610   44.9690 C   0  0  0  0  0  0  0  0  0  0  0  0
   43.1490   27.0020   46.2660 N   0  0  0  0  0  0  0  0  0  0  0  0
   42.2750   26.0980   46.5700 O   0  0  0  0  0  0  0  0  0  0  0  0
   41.5210   25.8140   45.5330 C   0  0  0  0  0  0  0  0  0  0  0  0
   41.9710   26.6110   44.5120 N   0  0  0  0  0  0  0  0  0  0  0  0
   40.2260   24.5940   45.6730 S   0  0  0  0  0  0  0  0  0  0  0  0
   43.8419   36.4200   45.0809 H   0  0  0  0  0  0  0  0  0  0  0  0
   45.1147   36.5058   42.8537 H   0  0  0  0  0  0  0  0  0  0  0  0
   46.8167   34.7056   42.4085 H   0  0  0  0  0  0  0  0  0  0  0  0
   44.8901   33.6680   47.8907 H   0  0  0  0  0  0  0  0  0  0  0  0
   44.4057   31.9604   47.5422 H   0  0  0  0  0  0  0  0  0  0  0  0
   45.9086   32.7999   49.6977 H   0  0  0  0  0  0  0  0  0  0  0  0
   45.8376   31.1229   49.0347 H   0  0  0  0  0  0  0  0  0  0  0  0
   47.8095   33.2541   48.1313 H   0  0  0  0  0  0  0  0  0  0  0  0
   48.1824   32.0082   49.3345 H   0  0  0  0  0  0  0  0  0  0  0  0
   48.8338   31.1503   47.0989 H   0  0  0  0  0  0  0  0  0  0  0  0
   47.3775   30.2424   47.6352 H   0  0  0  0  0  0  0  0  0  0  0  0
   47.8098   32.1457   45.5004 H   0  0  0  0  0  0  0  0  0  0  0  0
   39.9684   24.3513   46.9965 H   0  0  0  0  0  0  0  0  0  0  0  0
  1  6  2  0
  2  1  1  0
  3  2  2  0
  3  4  1  0
  4  5  2  0
  5  6  1  0
  5  7  1  0
  7  8  1  0
  8  9  1  0
 10  9  1  0
 11 10  1  0
 12  7  1  0
 12 11  1  0
 13 12  1  0
 14 13  2  0
 15 16  1  0
 15 14  1  0
 16 17  2  0
 17 13  1  0
 18 16  1  0
 18 19  1  0
 19 20  2  0
 20 21  1  0
 22 24  1  0
 22 21  1  0
 23 19  1  0
 23 22  2  0
  1 25  1  0
  2 26  1  0
  3 27  1  0
  8 28  1  0
  8 29  1  0
  9 30  1  0
  9 31  1  0
 10 32  1  0
 10 33  1  0
 11 34  1  0
 11 35  1  0
 12 36  1  6
 24 37  1  0
M  ISO  8  25  14  26  14  27  14  28  13  29  13  30  13  31  13  32  13
M  ISO  5  33  13  34  13  35  13  36  13  37  11
M  END
>  <minimizedAffinity>  (1) 
-5.07042742

>  <minimizedRMSD>  (1) 
1.26104629

$$$$
