
     RDKit          3D

 29 31  0  0  1  0  0  0  0  0999 V2000
   45.7950   34.5270   43.5420 C   0  0  0  0  0  0  0  0  0  0  0  0
   47.0010   34.8790   42.8670 C   0  0  0  0  0  0  0  0  0  0  0  0
   47.0950   34.6210   41.5030 C   0  0  0  0  0  0  0  0  0  0  0  0
   46.0380   34.0450   40.8590 N   0  0  0  0  0  0  0  0  0  0  0  0
   44.9090   33.7220   41.5230 C   0  0  0  0  0  0  0  0  0  0  0  0
   44.7970   33.9630   42.8500 N   0  0  0  0  0  0  0  0  0  0  0  0
   43.7990   33.1180   40.7650 C   0  0  1  0  0  0  0  0  0  0  0  0
   42.6560   32.4670   41.4980 C   0  0  0  0  0  0  0  0  0  0  0  0
   42.5040   33.8160   40.8330 C   0  0  1  0  0  0  0  0  0  0  0  0
   42.2650   34.8780   41.7870 N   0  0  0  0  0  0  0  0  0  0  0  0
   41.1190   35.6850   41.4200 C   0  0  0  0  0  0  0  0  0  0  0  0
   39.9410   34.8800   40.9350 C   0  0  0  0  0  0  0  0  0  0  0  0
   40.7650   35.8060   39.9990 C   0  0  0  0  0  0  0  0  0  0  0  0
   48.3580   34.9710   40.7680 C   0  0  0  0  0  0  0  0  0  0  0  0
   49.2280   33.9260   41.1240 F   0  0  0  0  0  0  0  0  0  0  0  0
   48.2090   34.9150   39.4060 F   0  0  0  0  0  0  0  0  0  0  0  0
   48.8930   36.1420   41.1950 F   0  0  0  0  0  0  0  0  0  0  0  0
   45.6858   34.7169   44.6200 H   0  0  0  0  0  0  0  0  0  0  0  0
   47.8365   35.3432   43.4115 H   0  0  0  0  0  0  0  0  0  0  0  0
   44.4734   32.7740   39.9670 H   0  0  0  0  0  0  0  0  0  0  0  0
   42.1590   31.5814   41.0752 H   0  0  0  0  0  0  0  0  0  0  0  0
   42.4965   32.0660   42.5098 H   0  0  0  0  0  0  0  0  0  0  0  0
   41.8959   34.2881   40.0473 H   0  0  0  0  0  0  0  0  0  0  0  0
   42.0961   34.4615   42.7138 H   0  0  0  0  0  0  0  0  0  0  0  0
   41.2930   36.4429   42.1980 H   0  0  0  0  0  0  0  0  0  0  0  0
   40.0140   33.7864   40.8418 H   0  0  0  0  0  0  0  0  0  0  0  0
   38.8825   34.7755   41.2156 H   0  0  0  0  0  0  0  0  0  0  0  0
   41.4190   35.3700   39.2294 H   0  0  0  0  0  0  0  0  0  0  0  0
   40.5281   36.6409   39.3232 H   0  0  0  0  0  0  0  0  0  0  0  0
  2  1  2  0
  3  2  1  0
  4  3  2  0
  4  5  1  0
  5  6  2  0
  6  1  1  0
  7  9  1  0
  7  8  1  0
  7  5  1  0
  9  8  1  0
  9 10  1  0
 11 10  1  0
 12 11  1  0
 13 12  1  0
 13 11  1  0
 14 15  1  0
 14 17  1  0
 14  3  1  0
 16 14  1  0
  1 18  1  0
  2 19  1  0
  7 20  1  6
  8 21  1  0
  8 22  1  0
  9 23  1  6
 10 24  1  0
 11 25  1  0
 12 26  1  0
 12 27  1  0
 13 28  1  0
 13 29  1  0
M  ISO  8  18  14  19  14  20  13  21  13  22  13  23  13  24   5  25  13
M  ISO  4  26  13  27  13  28  13  29  13
M  END
>  <minimizedAffinity>  (1) 
-4.83484316

>  <minimizedRMSD>  (1) 
5.42948389

$$$$
