
     RDKit          3D

 42 46  0  0  1  0  0  0  0  0999 V2000
   43.7630   31.7760   43.0900 N   0  0  0  0  0  0  0  0  0  0  0  0
   46.2920   31.4740   43.2190 C   0  0  1  0  0  0  0  0  0  0  0  0
   45.6240   30.9140   44.4340 C   0  0  0  0  0  0  0  0  0  0  0  0
   44.9150   30.9260   43.1130 C   0  0  1  0  0  0  0  0  0  0  0  0
   45.6260   35.1040   43.5100 C   0  0  0  0  0  0  0  0  0  0  0  0
   46.6790   35.6490   42.7260 C   0  0  0  0  0  0  0  0  0  0  0  0
   47.5680   34.7720   42.1270 C   0  0  0  0  0  0  0  0  0  0  0  0
   47.4150   33.4230   42.3030 N   0  0  0  0  0  0  0  0  0  0  0  0
   46.4110   32.9430   43.0510 C   0  0  0  0  0  0  0  0  0  0  0  0
   45.5250   33.7790   43.6470 N   0  0  0  0  0  0  0  0  0  0  0  0
   48.6970   35.3100   41.2840 C   0  0  0  0  0  0  0  0  0  0  0  0
   49.7300   34.4010   41.5190 F   0  0  0  0  0  0  0  0  0  0  0  0
   48.4150   35.2940   39.9440 F   0  0  0  0  0  0  0  0  0  0  0  0
   49.0970   36.5470   41.7040 F   0  0  0  0  0  0  0  0  0  0  0  0
   43.1270   31.8060   41.7950 C   0  0  2  0  0  0  0  0  0  0  0  0
   43.9530   32.4190   40.6980 C   0  0  0  0  0  0  0  0  0  0  0  0
   42.6960   33.0840   41.2430 C   0  0  1  0  0  0  0  0  0  0  0  0
   41.4830   32.9680   40.4140 N   0  0  0  0  0  0  0  0  0  0  0  0
   40.5450   31.9860   40.5480 C   0  0  0  0  0  0  0  0  0  0  0  0
   39.5590   32.1540   39.6450 N   0  0  0  0  0  0  0  0  0  0  0  0
   39.8610   33.2520   38.9230 C   0  0  0  0  0  0  0  0  0  0  0  0
   39.2870   33.9500   37.8750 C   0  0  0  0  0  0  0  0  0  0  0  0
   39.8500   35.0550   37.3470 N   0  0  0  0  0  0  0  0  0  0  0  0
   41.0220   35.5130   37.8480 C   0  0  0  0  0  0  0  0  0  0  0  0
   41.6010   34.8530   38.8660 N   0  0  0  0  0  0  0  0  0  0  0  0
   41.0360   33.7360   39.4040 C   0  0  0  0  0  0  0  0  0  0  0  0
   38.0490   33.4720   37.3400 N   0  0  0  0  0  0  0  0  0  0  0  0
   43.0841   31.4319   43.7840 H   0  0  0  0  0  0  0  0  0  0  0  0
   47.2672   31.2877   42.7455 H   0  0  0  0  0  0  0  0  0  0  0  0
   45.9708   29.9632   44.8651 H   0  0  0  0  0  0  0  0  0  0  0  0
   45.3997   31.2878   45.4439 H   0  0  0  0  0  0  0  0  0  0  0  0
   44.4677   30.2086   42.4092 H   0  0  0  0  0  0  0  0  0  0  0  0
   44.8995   35.7686   44.0004 H   0  0  0  0  0  0  0  0  0  0  0  0
   46.7848   36.7365   42.5986 H   0  0  0  0  0  0  0  0  0  0  0  0
   42.6030   30.8520   41.9542 H   0  0  0  0  0  0  0  0  0  0  0  0
   43.9568   31.9769   39.6908 H   0  0  0  0  0  0  0  0  0  0  0  0
   45.0068   32.7056   40.5661 H   0  0  0  0  0  0  0  0  0  0  0  0
   42.4808   34.0894   41.6341 H   0  0  0  0  0  0  0  0  0  0  0  0
   40.5877   31.1730   41.2878 H   0  0  0  0  0  0  0  0  0  0  0  0
   41.4939   36.4132   37.4274 H   0  0  0  0  0  0  0  0  0  0  0  0
   37.5983   33.9710   36.5598 H   0  0  0  0  0  0  0  0  0  0  0  0
   37.6086   32.6289   37.7351 H   0  0  0  0  0  0  0  0  0  0  0  0
  1  4  1  0
  2  3  1  0
  4  2  1  0
  4  3  1  0
  5 10  2  0
  6  5  1  0
  7  8  1  0
  7  6  2  0
  8  9  2  0
  9  2  1  0
  9 10  1  0
 11 12  1  0
 11 14  1  0
 11  7  1  0
 13 11  1  0
 15  1  1  0
 16 17  1  0
 16 15  1  0
 17 15  1  0
 18 19  1  0
 18 17  1  0
 20 19  2  0
 21 26  2  0
 21 20  1  0
 22 21  1  0
 23 24  1  0
 23 22  2  0
 24 25  2  0
 25 26  1  0
 26 18  1  0
 27 22  1  0
  1 28  1  0
  2 29  1  6
  3 30  1  0
  3 31  1  0
  4 32  1  6
  5 33  1  0
  6 34  1  0
 15 35  1  6
 16 36  1  0
 16 37  1  0
 17 38  1  1
 19 39  1  0
 24 40  1  0
 27 41  1  0
 27 42  1  0
M  ISO  8  28   5  29  13  30  13  31  13  32  13  33  14  34  14  35  13
M  ISO  5  36  13  37  13  38  13  39  14  40  14
M  END
>  <minimizedAffinity>  (1) 
-5.95633411

>  <minimizedRMSD>  (1) 
3.9581542

$$$$
