
     RDKit          3D

 43 47  0  0  1  0  0  0  0  0999 V2000
   44.7800   30.8830   41.9970 C   0  0  1  0  0  0  0  0  0  0  0  0
   44.6440   29.4250   42.2950 C   0  0  0  0  0  0  0  0  0  0  0  0
   43.4280   30.2700   42.0560 C   0  0  1  0  0  0  0  0  0  0  0  0
   46.0170   32.2630   45.2050 C   0  0  0  0  0  0  0  0  0  0  0  0
   45.6700   33.6400   45.0670 C   0  0  0  0  0  0  0  0  0  0  0  0
   45.0350   34.0450   43.9060 C   0  0  0  0  0  0  0  0  0  0  0  0
   44.7620   33.1230   42.9380 N   0  0  0  0  0  0  0  0  0  0  0  0
   45.0960   31.8360   43.0900 C   0  0  0  0  0  0  0  0  0  0  0  0
   45.7190   31.4130   44.2180 N   0  0  0  0  0  0  0  0  0  0  0  0
   44.6550   35.4880   43.7340 C   0  0  0  0  0  0  0  0  0  0  0  0
   45.7440   36.0300   43.0490 F   0  0  0  0  0  0  0  0  0  0  0  0
   43.5390   35.6510   42.9550 F   0  0  0  0  0  0  0  0  0  0  0  0
   44.5290   36.1270   44.9350 F   0  0  0  0  0  0  0  0  0  0  0  0
   42.5890   30.4000   43.2070 N   0  0  0  0  0  0  0  0  0  0  0  0
   41.2450   30.7980   42.8700 C   0  0  2  0  0  0  0  0  0  0  0  0
   40.3330   29.6850   42.4550 C   0  0  0  0  0  0  0  0  0  0  0  0
   40.8260   30.7420   41.4710 C   0  0  1  0  0  0  0  0  0  0  0  0
   39.8460   31.8230   41.1040 C   0  0  0  0  0  0  0  0  0  0  0  0
   38.4690   31.8980   41.0360 C   0  0  0  0  0  0  0  0  0  0  0  0
   38.1290   33.1390   40.6410 N   0  0  0  0  0  0  0  0  0  0  0  0
   39.2190   33.9010   40.4380 C   0  0  0  0  0  0  0  0  0  0  0  0
   39.3960   35.2150   40.0360 C   0  0  0  0  0  0  0  0  0  0  0  0
   40.6800   35.7580   39.9090 C   0  0  0  0  0  0  0  0  0  0  0  0
   41.7790   34.9470   40.1960 C   0  0  0  0  0  0  0  0  0  0  0  0
   41.5750   33.6420   40.5950 C   0  0  0  0  0  0  0  0  0  0  0  0
   40.3030   33.0910   40.7240 C   0  0  0  0  0  0  0  0  0  0  0  0
   45.3741   31.4454   41.2616 H   0  0  0  0  0  0  0  0  0  0  0  0
   44.9522   28.6785   41.5482 H   0  0  0  0  0  0  0  0  0  0  0  0
   44.9850   28.7575   43.1001 H   0  0  0  0  0  0  0  0  0  0  0  0
   42.5761   30.3150   41.3616 H   0  0  0  0  0  0  0  0  0  0  0  0
   46.5239   31.9053   46.1133 H   0  0  0  0  0  0  0  0  0  0  0  0
   45.9015   34.3620   45.8639 H   0  0  0  0  0  0  0  0  0  0  0  0
   42.5525   29.4926   43.6930 H   0  0  0  0  0  0  0  0  0  0  0  0
   41.2174   31.5968   43.6258 H   0  0  0  0  0  0  0  0  0  0  0  0
   40.7073   28.6524   42.3955 H   0  0  0  0  0  0  0  0  0  0  0  0
   39.3540   29.3025   42.7795 H   0  0  0  0  0  0  0  0  0  0  0  0
   41.3225   30.6957   40.4905 H   0  0  0  0  0  0  0  0  0  0  0  0
   37.7684   31.0817   41.2658 H   0  0  0  0  0  0  0  0  0  0  0  0
   37.1600   33.4632   40.5110 H   0  0  0  0  0  0  0  0  0  0  0  0
   38.5175   35.8387   39.8141 H   0  0  0  0  0  0  0  0  0  0  0  0
   40.8198   36.8014   39.5899 H   0  0  0  0  0  0  0  0  0  0  0  0
   42.8003   35.3453   40.1048 H   0  0  0  0  0  0  0  0  0  0  0  0
   42.4496   33.0138   40.8194 H   0  0  0  0  0  0  0  0  0  0  0  0
  1  3  1  0
  1  2  1  0
  1  8  1  0
  3  2  1  0
  3 14  1  0
  5  4  2  0
  6  5  1  0
  7  8  1  0
  7  6  2  0
  8  9  2  0
  9  4  1  0
 10  6  1  0
 10 13  1  0
 11 10  1  0
 12 10  1  0
 15 14  1  0
 16 15  1  0
 17 16  1  0
 17 15  1  0
 18 17  1  0
 19 18  2  0
 20 19  1  0
 21 20  1  0
 21 26  2  0
 22 21  1  0
 23 22  2  0
 23 24  1  0
 24 25  2  0
 25 26  1  0
 26 18  1  0
  1 27  1  6
  2 28  1  0
  2 29  1  0
  3 30  1  6
  4 31  1  0
  5 32  1  0
 14 33  1  0
 15 34  1  1
 16 35  1  0
 16 36  1  0
 17 37  1  6
 19 38  1  0
 20 39  1  0
 22 40  1  0
 23 41  1  0
 24 42  1  0
 25 43  1  0
M  ISO  8  27  13  28  13  29  13  30  13  31  14  32  14  33   5  34  13
M  ISO  8  35  13  36  13  37  13  38  14  39   9  40  14  41  14  42  14
M  ISO  1  43  14
M  END
>  <minimizedAffinity>  (1) 
-6.20280743

>  <minimizedRMSD>  (1) 
4.6979599

$$$$
