
     RDKit          3D

 34 37  0  0  1  0  0  0  0  0999 V2000
   44.8810   35.6580   42.4780 C   0  0  1  0  0  0  0  0  0  0  0  0
   45.3710   35.1910   43.8100 C   0  0  0  0  0  0  0  0  0  0  0  0
   46.2540   35.1070   42.6000 C   0  0  1  0  0  0  0  0  0  0  0  0
   42.8360   32.7750   41.3710 C   0  0  0  0  0  0  0  0  0  0  0  0
   42.1410   33.3380   40.2640 C   0  0  0  0  0  0  0  0  0  0  0  0
   42.3890   34.6600   39.9320 C   0  0  0  0  0  0  0  0  0  0  0  0
   43.2850   35.3800   40.6690 N   0  0  0  0  0  0  0  0  0  0  0  0
   43.9250   34.8260   41.7070 C   0  0  0  0  0  0  0  0  0  0  0  0
   43.7010   33.5330   42.0510 N   0  0  0  0  0  0  0  0  0  0  0  0
   41.6710   35.2830   38.7650 C   0  0  0  0  0  0  0  0  0  0  0  0
   40.7790   36.1690   39.3710 F   0  0  0  0  0  0  0  0  0  0  0  0
   42.5060   36.0050   37.9550 F   0  0  0  0  0  0  0  0  0  0  0  0
   40.9570   34.3570   38.0590 F   0  0  0  0  0  0  0  0  0  0  0  0
   46.5690   33.7680   42.2090 N   0  0  0  0  0  0  0  0  0  0  0  0
   47.6120   33.7160   41.2120 C   0  0  2  0  0  0  0  0  0  0  0  0
   48.4040   34.9980   41.0690 C   0  0  0  0  0  0  0  0  0  0  0  0
   47.4580   34.4910   39.9840 C   0  0  1  0  0  0  0  0  0  0  0  0
   48.1740   33.8880   38.8050 C   0  0  0  0  0  0  0  0  0  0  0  0
   48.3510   34.4870   37.5930 N   0  0  0  0  0  0  0  0  0  0  0  0
   49.0100   33.6940   36.8020 O   0  0  0  0  0  0  0  0  0  0  0  0
   49.2850   32.5790   37.4360 C   0  0  0  0  0  0  0  0  0  0  0  0
   48.7810   32.6710   38.6780 N   0  0  0  0  0  0  0  0  0  0  0  0
   44.4219   36.5971   42.1355 H   0  0  0  0  0  0  0  0  0  0  0  0
   45.5907   35.9204   44.6036 H   0  0  0  0  0  0  0  0  0  0  0  0
   45.0139   34.4777   44.5675 H   0  0  0  0  0  0  0  0  0  0  0  0
   47.2276   35.4903   42.2605 H   0  0  0  0  0  0  0  0  0  0  0  0
   42.6632   31.7287   41.6632 H   0  0  0  0  0  0  0  0  0  0  0  0
   41.4236   32.7375   39.6854 H   0  0  0  0  0  0  0  0  0  0  0  0
   46.8798   33.2452   43.0403 H   0  0  0  0  0  0  0  0  0  0  0  0
   47.8405   32.6558   41.3957 H   0  0  0  0  0  0  0  0  0  0  0  0
   48.1426   35.8838   41.6665 H   0  0  0  0  0  0  0  0  0  0  0  0
   49.4644   35.2851   41.1253 H   0  0  0  0  0  0  0  0  0  0  0  0
   46.6039   34.9171   39.4373 H   0  0  0  0  0  0  0  0  0  0  0  0
   49.8325   31.7190   37.0230 H   0  0  0  0  0  0  0  0  0  0  0  0
  1  3  1  0
  1  2  1  0
  3  2  1  0
  4  9  2  0
  5  4  1  0
  6  5  2  0
  6  7  1  0
  7  8  2  0
  8  9  1  0
  8  1  1  0
 10 11  1  0
 10  6  1  0
 12 10  1  0
 13 10  1  0
 14  3  1  0
 15 14  1  0
 16 15  1  0
 17 16  1  0
 17 15  1  0
 18 17  1  0
 19 18  2  0
 20 21  1  0
 20 19  1  0
 21 22  2  0
 22 18  1  0
  1 23  1  1
  2 24  1  0
  2 25  1  0
  3 26  1  1
  4 27  1  0
  5 28  1  0
 14 29  1  0
 15 30  1  6
 16 31  1  0
 16 32  1  0
 17 33  1  6
 21 34  1  0
M  ISO  8  23  13  24  13  25  13  26  13  27  14  28  14  29   5  30  13
M  ISO  4  31  13  32  13  33  13  34  14
M  END
>  <minimizedAffinity>  (1) 
-5.42579794

>  <minimizedRMSD>  (1) 
7.12641668

$$$$
