
     RDKit          3D

 36 39  0  0  1  0  0  0  0  0999 V2000
   45.6320   33.4550   42.4250 C   0  0  1  0  0  0  0  0  0  0  0  0
   45.0400   34.0840   43.6440 C   0  0  0  0  0  0  0  0  0  0  0  0
   44.3150   34.1340   42.3320 C   0  0  1  0  0  0  0  0  0  0  0  0
   48.5790   35.5810   41.7240 C   0  0  0  0  0  0  0  0  0  0  0  0
   48.7980   35.3150   40.3400 C   0  0  0  0  0  0  0  0  0  0  0  0
   47.9370   34.4310   39.7020 C   0  0  0  0  0  0  0  0  0  0  0  0
   46.9240   33.8520   40.4080 N   0  0  0  0  0  0  0  0  0  0  0  0
   46.7460   34.1240   41.7090 C   0  0  0  0  0  0  0  0  0  0  0  0
   47.5720   34.9830   42.3600 N   0  0  0  0  0  0  0  0  0  0  0  0
   48.1350   34.1290   38.2420 C   0  0  0  0  0  0  0  0  0  0  0  0
   48.9720   33.0120   38.2570 F   0  0  0  0  0  0  0  0  0  0  0  0
   46.9710   33.7800   37.6120 F   0  0  0  0  0  0  0  0  0  0  0  0
   48.7730   35.1480   37.5950 F   0  0  0  0  0  0  0  0  0  0  0  0
   44.1790   35.4560   41.8000 N   0  0  0  0  0  0  0  0  0  0  0  0
   42.9220   35.6450   41.1150 C   0  0  2  0  0  0  0  0  0  0  0  0
   41.7070   35.2660   41.9170 C   0  0  0  0  0  0  0  0  0  0  0  0
   42.1600   34.4800   40.6920 C   0  0  1  0  0  0  0  0  0  0  0  0
   41.3700   34.7110   39.4310 C   0  0  0  0  0  0  0  0  0  0  0  0
   41.6660   35.6510   38.4430 C   0  0  0  0  0  0  0  0  0  0  0  0
   40.7200   35.5710   37.4370 C   0  0  0  0  0  0  0  0  0  0  0  0
   39.8710   34.5530   37.8810 C   0  0  0  0  0  0  0  0  0  0  0  0
   40.2780   34.0820   39.0330 O   0  0  0  0  0  0  0  0  0  0  0  0
   46.0339   32.4516   42.2207 H   0  0  0  0  0  0  0  0  0  0  0  0
   44.6594   33.4530   44.4607 H   0  0  0  0  0  0  0  0  0  0  0  0
   45.3760   34.8297   44.3796 H   0  0  0  0  0  0  0  0  0  0  0  0
   43.3546   33.8081   41.9060 H   0  0  0  0  0  0  0  0  0  0  0  0
   49.2382   36.2766   42.2640 H   0  0  0  0  0  0  0  0  0  0  0  0
   49.6236   35.7952   39.7943 H   0  0  0  0  0  0  0  0  0  0  0  0
   44.2390   36.1324   42.5745 H   0  0  0  0  0  0  0  0  0  0  0  0
   43.2696   36.5377   40.5744 H   0  0  0  0  0  0  0  0  0  0  0  0
   41.8158   34.8385   42.9247 H   0  0  0  0  0  0  0  0  0  0  0  0
   40.7825   35.7670   42.2401 H   0  0  0  0  0  0  0  0  0  0  0  0
   42.3755   33.4174   40.5062 H   0  0  0  0  0  0  0  0  0  0  0  0
   42.5180   36.3465   38.4613 H   0  0  0  0  0  0  0  0  0  0  0  0
   40.6523   36.1639   36.5129 H   0  0  0  0  0  0  0  0  0  0  0  0
   38.9834   34.1968   37.3376 H   0  0  0  0  0  0  0  0  0  0  0  0
  1  2  1  0
  3  1  1  0
  3  2  1  0
  4  9  2  0
  5  4  1  0
  6  5  2  0
  6  7  1  0
  7  8  2  0
  8  9  1  0
  8  1  1  0
 10 11  1  0
 10  6  1  0
 12 10  1  0
 13 10  1  0
 14  3  1  0
 15 14  1  0
 15 16  1  0
 17 15  1  0
 17 16  1  0
 18 17  1  0
 19 18  2  0
 20 21  2  0
 20 19  1  0
 21 22  1  0
 22 18  1  0
  1 23  1  1
  2 24  1  0
  2 25  1  0
  3 26  1  1
  4 27  1  0
  5 28  1  0
 14 29  1  0
 15 30  1  6
 16 31  1  0
 16 32  1  0
 17 33  1  1
 19 34  1  0
 20 35  1  0
 21 36  1  0
M  ISO  8  23  13  24  13  25  13  26  13  27  14  28  14  29   5  30  13
M  ISO  6  31  13  32  13  33  13  34  14  35  14  36  14
M  END
>  <minimizedAffinity>  (1) 
-5.42883682

>  <minimizedRMSD>  (1) 
3.00218391

$$$$
