
     RDKit          3D

 43 47  0  0  1  0  0  0  0  0999 V2000
   45.4490   31.0270   41.0930 N   0  0  0  0  0  0  0  0  0  0  0  0
   46.2090   31.3500   43.5030 C   0  0  1  0  0  0  0  0  0  0  0  0
   44.8520   30.7330   43.4570 C   0  0  0  0  0  0  0  0  0  0  0  0
   45.8420   30.4810   42.3550 C   0  0  1  0  0  0  0  0  0  0  0  0
   45.5510   34.9680   43.1050 C   0  0  0  0  0  0  0  0  0  0  0  0
   46.7990   35.4240   42.6060 C   0  0  0  0  0  0  0  0  0  0  0  0
   47.8190   34.4940   42.4170 C   0  0  0  0  0  0  0  0  0  0  0  0
   47.5840   33.1880   42.7170 N   0  0  0  0  0  0  0  0  0  0  0  0
   46.3980   32.7840   43.1860 C   0  0  0  0  0  0  0  0  0  0  0  0
   45.3900   33.6700   43.3780 N   0  0  0  0  0  0  0  0  0  0  0  0
   49.1460   34.9510   41.8870 C   0  0  0  0  0  0  0  0  0  0  0  0
   49.8190   35.3850   43.0310 F   0  0  0  0  0  0  0  0  0  0  0  0
   49.8720   33.9250   41.3350 F   0  0  0  0  0  0  0  0  0  0  0  0
   49.0220   35.9990   41.0210 F   0  0  0  0  0  0  0  0  0  0  0  0
   44.0340   30.8760   40.8490 C   0  0  2  0  0  0  0  0  0  0  0  0
   43.6270   31.0500   39.4090 C   0  0  0  0  0  0  0  0  0  0  0  0
   43.2390   32.0440   40.5080 C   0  0  1  0  0  0  0  0  0  0  0  0
   41.7860   31.9190   40.8710 C   0  0  0  0  0  0  0  0  0  0  0  0
   41.3230   30.9090   41.6320 N   0  0  0  0  0  0  0  0  0  0  0  0
   40.0200   30.7920   41.9620 C   0  0  0  0  0  0  0  0  0  0  0  0
   39.1110   31.7060   41.5290 N   0  0  0  0  0  0  0  0  0  0  0  0
   39.5490   32.7240   40.7670 C   0  0  0  0  0  0  0  0  0  0  0  0
   38.6890   33.6930   40.2890 C   0  0  0  0  0  0  0  0  0  0  0  0
   39.0550   34.7660   39.5030 C   0  0  0  0  0  0  0  0  0  0  0  0
   40.4100   34.8780   39.1680 C   0  0  0  0  0  0  0  0  0  0  0  0
   41.2990   33.9120   39.6380 C   0  0  0  0  0  0  0  0  0  0  0  0
   40.8790   32.8570   40.4230 C   0  0  0  0  0  0  0  0  0  0  0  0
   45.6827   32.0300   41.0785 H   0  0  0  0  0  0  0  0  0  0  0  0
   46.9911   31.3729   44.2762 H   0  0  0  0  0  0  0  0  0  0  0  0
   44.5891   29.9263   44.1571 H   0  0  0  0  0  0  0  0  0  0  0  0
   43.8203   31.1111   43.5083 H   0  0  0  0  0  0  0  0  0  0  0  0
   46.3575   29.6294   41.8869 H   0  0  0  0  0  0  0  0  0  0  0  0
   44.7246   35.6761   43.2654 H   0  0  0  0  0  0  0  0  0  0  0  0
   46.9573   36.4875   42.3738 H   0  0  0  0  0  0  0  0  0  0  0  0
   43.9109   30.1022   41.6211 H   0  0  0  0  0  0  0  0  0  0  0  0
   42.8692   30.3911   38.9601 H   0  0  0  0  0  0  0  0  0  0  0  0
   44.1425   31.1003   38.4386 H   0  0  0  0  0  0  0  0  0  0  0  0
   43.3562   33.1245   40.6778 H   0  0  0  0  0  0  0  0  0  0  0  0
   39.6899   29.9493   42.5872 H   0  0  0  0  0  0  0  0  0  0  0  0
   37.6260   33.6019   40.5567 H   0  0  0  0  0  0  0  0  0  0  0  0
   38.3148   35.5014   39.1547 H   0  0  0  0  0  0  0  0  0  0  0  0
   40.7664   35.7122   38.5459 H   0  0  0  0  0  0  0  0  0  0  0  0
   42.3643   33.9928   39.3760 H   0  0  0  0  0  0  0  0  0  0  0  0
  1  4  1  0
  3  2  1  0
  4  3  1  0
  4  2  1  0
  5 10  2  0
  6  5  1  0
  7  6  2  0
  7  8  1  0
  8  9  2  0
  9 10  1  0
  9  2  1  0
 11  7  1  0
 11 12  1  0
 13 11  1  0
 14 11  1  0
 15  1  1  0
 16 17  1  0
 16 15  1  0
 17 15  1  0
 17 18  1  0
 18 19  2  0
 19 20  1  0
 21 20  2  0
 22 21  1  0
 23 22  2  0
 24 23  1  0
 25 24  2  0
 25 26  1  0
 26 27  2  0
 27 22  1  0
 27 18  1  0
  1 28  1  0
  2 29  1  1
  3 30  1  0
  3 31  1  0
  4 32  1  6
  5 33  1  0
  6 34  1  0
 15 35  1  1
 16 36  1  0
 16 37  1  0
 17 38  1  6
 20 39  1  0
 23 40  1  0
 24 41  1  0
 25 42  1  0
 26 43  1  0
M  ISO  8  28   5  29  13  30  13  31  13  32  13  33  14  34  14  35  13
M  ISO  8  36  13  37  13  38  13  39  14  40  14  41  14  42  14  43  14
M  END
>  <minimizedAffinity>  (1) 
-5.4088254

>  <minimizedRMSD>  (1) 
4.68504763

$$$$
