
     RDKit          3D

 41 43  0  0  1  0  0  0  0  0999 V2000
   44.3040   32.1220   41.3770 C   0  0  1  0  0  0  0  0  0  0  0  0
   43.3430   31.4910   42.3300 C   0  0  0  0  0  0  0  0  0  0  0  0
   42.8780   32.5340   41.3580 C   0  0  1  0  0  0  0  0  0  0  0  0
   45.9680   34.6420   43.5180 C   0  0  0  0  0  0  0  0  0  0  0  0
   47.0660   35.0300   42.6910 C   0  0  0  0  0  0  0  0  0  0  0  0
   47.1950   34.4290   41.4490 C   0  0  0  0  0  0  0  0  0  0  0  0
   46.2810   33.4930   41.0540 N   0  0  0  0  0  0  0  0  0  0  0  0
   45.2620   33.1490   41.8520 C   0  0  0  0  0  0  0  0  0  0  0  0
   45.1090   33.7230   43.0730 N   0  0  0  0  0  0  0  0  0  0  0  0
   48.3390   34.8180   40.5520 C   0  0  0  0  0  0  0  0  0  0  0  0
   49.2980   33.8400   40.8130 F   0  0  0  0  0  0  0  0  0  0  0  0
   48.0130   34.7550   39.2230 F   0  0  0  0  0  0  0  0  0  0  0  0
   48.8550   36.0380   40.8890 F   0  0  0  0  0  0  0  0  0  0  0  0
   42.4340   33.7460   41.9710 N   0  0  0  0  0  0  0  0  0  0  0  0
   41.1330   34.1600   41.4980 C   0  0  2  0  0  0  0  0  0  0  0  0
   40.0670   33.1020   41.5880 C   0  0  0  0  0  0  0  0  0  0  0  0
   40.6120   33.5980   40.2600 C   0  0  1  0  0  0  0  0  0  0  0  0
   39.7510   34.5920   39.4780 C   0  0  0  0  0  0  0  0  0  0  0  0
   39.9620   35.9210   40.1740 C   0  0  0  0  0  0  0  0  0  0  0  0
   38.2980   34.1940   39.4810 C   0  0  0  0  0  0  0  0  0  0  0  0
   40.1940   34.7530   38.0580 C   0  0  0  0  0  0  0  0  0  0  0  0
   45.0291   31.7075   40.6612 H   0  0  0  0  0  0  0  0  0  0  0  0
   43.0438   30.4408   42.1971 H   0  0  0  0  0  0  0  0  0  0  0  0
   43.2953   31.3643   43.4216 H   0  0  0  0  0  0  0  0  0  0  0  0
   42.1536   32.6282   40.5356 H   0  0  0  0  0  0  0  0  0  0  0  0
   45.8320   35.0958   44.5108 H   0  0  0  0  0  0  0  0  0  0  0  0
   47.7897   35.7855   43.0308 H   0  0  0  0  0  0  0  0  0  0  0  0
   42.3849   33.6024   42.9898 H   0  0  0  0  0  0  0  0  0  0  0  0
   41.2579   35.1958   41.8467 H   0  0  0  0  0  0  0  0  0  0  0  0
   40.3137   32.0926   41.9488 H   0  0  0  0  0  0  0  0  0  0  0  0
   39.0743   33.0159   42.0539 H   0  0  0  0  0  0  0  0  0  0  0  0
   41.0215   33.0829   39.3785 H   0  0  0  0  0  0  0  0  0  0  0  0
   39.9384   35.7721   41.2636 H   0  0  0  0  0  0  0  0  0  0  0  0
   40.9375   36.3371   39.8819 H   0  0  0  0  0  0  0  0  0  0  0  0
   39.1634   36.6188   39.8819 H   0  0  0  0  0  0  0  0  0  0  0  0
   37.9464   34.0977   40.5188 H   0  0  0  0  0  0  0  0  0  0  0  0
   37.7061   34.9631   38.9632 H   0  0  0  0  0  0  0  0  0  0  0  0
   38.1806   33.2306   38.9632 H   0  0  0  0  0  0  0  0  0  0  0  0
   41.2276   35.1287   38.0367 H   0  0  0  0  0  0  0  0  0  0  0  0
   40.1468   33.7802   37.5466 H   0  0  0  0  0  0  0  0  0  0  0  0
   39.5332   35.4685   37.5466 H   0  0  0  0  0  0  0  0  0  0  0  0
  1  8  1  0
  1  2  1  0
  3  1  1  0
  3 14  1  0
  3  2  1  0
  5  4  2  0
  6  5  1  0
  7  6  2  0
  7  8  1  0
  8  9  2  0
  9  4  1  0
 10 11  1  0
 10 13  1  0
 10  6  1  0
 12 10  1  0
 15 16  1  0
 15 14  1  0
 17 15  1  0
 17 16  1  0
 18 20  1  0
 18 19  1  0
 18 17  1  0
 21 18  1  0
  1 22  1  6
  2 23  1  0
  2 24  1  0
  3 25  1  6
  4 26  1  0
  5 27  1  0
 14 28  1  0
 15 29  1  6
 16 30  1  0
 16 31  1  0
 17 32  1  6
 19 33  1  0
 19 34  1  0
 19 35  1  0
 20 36  1  0
 20 37  1  0
 20 38  1  0
 21 39  1  0
 21 40  1  0
 21 41  1  0
M  ISO  8  22  13  23  13  24  13  25  13  26  14  27  14  28   5  29  13
M  ISO  8  30  13  31  13  32  13  33   8  34   8  35   8  36   8  37   8
M  ISO  4  38   8  39   8  40   8  41   8
M  END
>  <minimizedAffinity>  (1) 
-5.60401058

>  <minimizedRMSD>  (1) 
1.56640279

$$$$
