
     RDKit          3D

 35 37  0  0  1  0  0  0  0  0999 V2000
   43.7920   32.7850   40.7510 C   0  0  1  0  0  0  0  0  0  0  0  0
   42.5200   32.5050   41.4800 C   0  0  0  0  0  0  0  0  0  0  0  0
   42.5420   33.4620   40.3230 C   0  0  1  0  0  0  0  0  0  0  0  0
   45.5200   35.0610   43.1030 C   0  0  0  0  0  0  0  0  0  0  0  0
   46.7570   35.2560   42.4320 C   0  0  0  0  0  0  0  0  0  0  0  0
   46.9650   34.6260   41.2190 C   0  0  0  0  0  0  0  0  0  0  0  0
   45.9800   33.8350   40.7020 N   0  0  0  0  0  0  0  0  0  0  0  0
   44.8210   33.6630   41.3520 C   0  0  0  0  0  0  0  0  0  0  0  0
   44.5960   34.2740   42.5450 N   0  0  0  0  0  0  0  0  0  0  0  0
   48.2660   34.8230   40.4920 C   0  0  0  0  0  0  0  0  0  0  0  0
   49.0420   33.7450   40.9200 F   0  0  0  0  0  0  0  0  0  0  0  0
   48.1270   34.7270   39.1300 F   0  0  0  0  0  0  0  0  0  0  0  0
   48.8820   35.9860   40.8550 F   0  0  0  0  0  0  0  0  0  0  0  0
   42.2580   34.8170   40.6750 N   0  0  0  0  0  0  0  0  0  0  0  0
   41.3130   35.4380   39.7820 C   0  0  2  0  0  0  0  0  0  0  0  0
   39.9050   34.9210   39.9010 C   0  0  0  0  0  0  0  0  0  0  0  0
   40.7770   34.6610   38.6780 C   0  0  1  0  0  0  0  0  0  0  0  0
   40.3660   35.5030   37.4710 C   0  0  0  0  0  0  0  0  0  0  0  0
   41.3870   36.5300   37.1160 C   0  0  0  0  0  0  0  0  0  0  0  0
   44.5489   32.1322   40.2917 H   0  0  0  0  0  0  0  0  0  0  0  0
   42.0291   31.5260   41.3767 H   0  0  0  0  0  0  0  0  0  0  0  0
   42.1937   32.5555   42.5293 H   0  0  0  0  0  0  0  0  0  0  0  0
   42.0671   33.5714   39.3368 H   0  0  0  0  0  0  0  0  0  0  0  0
   45.3258   35.5512   44.0684 H   0  0  0  0  0  0  0  0  0  0  0  0
   47.5360   35.8973   42.8701 H   0  0  0  0  0  0  0  0  0  0  0  0
   41.8705   34.8351   41.6291 H   0  0  0  0  0  0  0  0  0  0  0  0
   41.8010   36.4228   39.8280 H   0  0  0  0  0  0  0  0  0  0  0  0
   39.6680   34.1054   40.6000 H   0  0  0  0  0  0  0  0  0  0  0  0
   38.9130   35.3573   40.0897 H   0  0  0  0  0  0  0  0  0  0  0  0
   41.1123   33.7685   38.1294 H   0  0  0  0  0  0  0  0  0  0  0  0
   40.2221   34.8359   36.6083 H   0  0  0  0  0  0  0  0  0  0  0  0
   39.4377   36.0317   37.7332 H   0  0  0  0  0  0  0  0  0  0  0  0
   41.8122   36.9577   38.0360 H   0  0  0  0  0  0  0  0  0  0  0  0
   42.1880   36.0618   36.5251 H   0  0  0  0  0  0  0  0  0  0  0  0
   40.9141   37.3282   36.5251 H   0  0  0  0  0  0  0  0  0  0  0  0
  1  8  1  0
  1  2  1  0
  3 14  1  0
  3  1  1  0
  3  2  1  0
  5  4  2  0
  6  5  1  0
  7  6  2  0
  7  8  1  0
  8  9  2  0
  9  4  1  0
 10 13  1  0
 10 11  1  0
 10  6  1  0
 12 10  1  0
 15 16  1  0
 15 14  1  0
 17 15  1  0
 17 16  1  0
 18 17  1  0
 19 18  1  0
  1 20  1  6
  2 21  1  0
  2 22  1  0
  3 23  1  6
  4 24  1  0
  5 25  1  0
 14 26  1  0
 15 27  1  6
 16 28  1  0
 16 29  1  0
 17 30  1  6
 18 31  1  0
 18 32  1  0
 19 33  1  0
 19 34  1  0
 19 35  1  0
M  ISO  8  20  13  21  13  22  13  23  13  24  14  25  14  26   5  27  13
M  ISO  8  28  13  29  13  30  13  31   8  32   8  33   8  34   8  35   8
M  END
>  <minimizedAffinity>  (1) 
-5.17953157

>  <minimizedRMSD>  (1) 
1.426373

$$$$
