
     RDKit          3D

 42 45  0  0  1  0  0  0  0  0999 V2000
   44.4980   33.6430   41.6880 C   0  0  1  0  0  0  0  0  0  0  0  0
   44.2260   34.7200   40.6900 C   0  0  0  0  0  0  0  0  0  0  0  0
   45.5560   34.0270   40.7210 C   0  0  1  0  0  0  0  0  0  0  0  0
   44.5460   35.4740   44.9040 C   0  0  0  0  0  0  0  0  0  0  0  0
   45.2810   34.5760   45.7210 C   0  0  0  0  0  0  0  0  0  0  0  0
   45.7340   33.3940   45.1660 C   0  0  0  0  0  0  0  0  0  0  0  0
   45.4630   33.1290   43.8570 N   0  0  0  0  0  0  0  0  0  0  0  0
   44.7690   33.9920   43.1050 C   0  0  0  0  0  0  0  0  0  0  0  0
   44.3130   35.1570   43.6270 N   0  0  0  0  0  0  0  0  0  0  0  0
   46.5180   32.4270   46.0080 C   0  0  0  0  0  0  0  0  0  0  0  0
   45.5390   31.5680   46.5100 F   0  0  0  0  0  0  0  0  0  0  0  0
   47.4000   31.6770   45.2700 F   0  0  0  0  0  0  0  0  0  0  0  0
   47.1430   33.0480   47.0540 F   0  0  0  0  0  0  0  0  0  0  0  0
   46.6410   34.8850   41.0890 N   0  0  0  0  0  0  0  0  0  0  0  0
   47.9140   34.4020   40.6120 C   0  0  2  0  0  0  0  0  0  0  0  0
   48.0760   34.4100   39.1140 C   0  0  0  0  0  0  0  0  0  0  0  0
   47.9610   33.1210   39.9140 C   0  0  1  0  0  0  0  0  0  0  0  0
   51.6020   31.0020   40.6860 C   0  0  0  0  0  0  0  0  0  0  0  0
   51.1350   31.9120   41.6140 C   0  0  0  0  0  0  0  0  0  0  0  0
   49.9520   32.5960   41.3540 C   0  0  0  0  0  0  0  0  0  0  0  0
   49.2400   32.3720   40.1750 C   0  0  0  0  0  0  0  0  0  0  0  0
   49.7140   31.4660   39.2640 C   0  0  0  0  0  0  0  0  0  0  0  0
   50.8900   30.7900   39.5270 C   0  0  0  0  0  0  0  0  0  0  0  0
   53.0970   30.1860   41.0930 S   0  0  0  0  0  0  0  0  0  0  0  0
   53.0690   29.6850   42.5240 O   0  0  0  0  0  0  0  0  0  0  0  0
   53.4120   29.0590   40.1840 O   0  0  0  0  0  0  0  0  0  0  0  0
   43.9589   32.7248   41.9641 H   0  0  0  0  0  0  0  0  0  0  0  0
   44.1417   35.7668   41.0173 H   0  0  0  0  0  0  0  0  0  0  0  0
   43.4564   34.8996   39.9248 H   0  0  0  0  0  0  0  0  0  0  0  0
   46.1887   33.4236   40.0534 H   0  0  0  0  0  0  0  0  0  0  0  0
   44.1717   36.4219   45.3180 H   0  0  0  0  0  0  0  0  0  0  0  0
   45.4860   34.8159   46.7748 H   0  0  0  0  0  0  0  0  0  0  0  0
   46.4723   35.8199   40.6910 H   0  0  0  0  0  0  0  0  0  0  0  0
   48.4719   34.8058   41.4697 H   0  0  0  0  0  0  0  0  0  0  0  0
   49.0351   34.6992   38.6596 H   0  0  0  0  0  0  0  0  0  0  0  0
   47.5465   34.8633   38.2631 H   0  0  0  0  0  0  0  0  0  0  0  0
   47.3159   32.2347   39.8231 H   0  0  0  0  0  0  0  0  0  0  0  0
   51.6908   32.0934   42.5458 H   0  0  0  0  0  0  0  0  0  0  0  0
   49.5728   33.3229   42.0873 H   0  0  0  0  0  0  0  0  0  0  0  0
   49.1631   31.2780   38.3306 H   0  0  0  0  0  0  0  0  0  0  0  0
   51.2669   30.0640   38.7916 H   0  0  0  0  0  0  0  0  0  0  0  0
   54.0858   31.1229   40.9464 H   0  0  0  0  0  0  0  0  0  0  0  0
  1  8  1  0
  2  3  1  0
  2  1  1  0
  3 14  1  0
  3  1  1  0
  4  5  2  0
  6  5  1  0
  6 10  1  0
  7  6  2  0
  8  9  2  0
  8  7  1  0
  9  4  1  0
 10 11  1  0
 10 13  1  0
 12 10  1  0
 15 14  1  0
 16 17  1  0
 16 15  1  0
 17 21  1  0
 17 15  1  0
 18 24  1  0
 18 19  2  0
 20 19  1  0
 21 20  2  0
 22 23  2  0
 22 21  1  0
 23 18  1  0
 24 25  2  0
 26 24  2  0
  1 27  1  1
  2 28  1  0
  2 29  1  0
  3 30  1  6
  4 31  1  0
  5 32  1  0
 14 33  1  0
 15 34  1  1
 16 35  1  0
 16 36  1  0
 17 37  1  6
 19 38  1  0
 20 39  1  0
 22 40  1  0
 23 41  1  0
 24 42  1  0
M  ISO  8  27  13  28  13  29  13  30  13  31  14  32  14  33   5  34  13
M  ISO  8  35  13  36  13  37  13  38  14  39  14  40  14  41  14  42  11
M  END
>  <minimizedAffinity>  (1) 
-4.89190054

>  <minimizedRMSD>  (1) 
9.90768433

$$$$
