
     RDKit          3D

 28 29  0  0  0  0  0  0  0  0999 V2000
   46.1480   33.3030   45.7610 C   0  0  0  0  0  0  0  0  0  0  0  0
   47.1010   32.4940   45.6040 O   0  0  0  0  0  0  0  0  0  0  0  0
   44.4770   36.1300   44.1510 C   0  0  0  0  0  0  0  0  0  0  0  0
   45.0810   36.2000   42.8960 C   0  0  0  0  0  0  0  0  0  0  0  0
   46.0760   35.2640   42.5990 C   0  0  0  0  0  0  0  0  0  0  0  0
   46.3950   34.3400   43.5530 N   0  0  0  0  0  0  0  0  0  0  0  0
   45.7850   34.3040   44.7610 C   0  0  0  0  0  0  0  0  0  0  0  0
   44.8340   35.1880   45.0660 N   0  0  0  0  0  0  0  0  0  0  0  0
   45.4390   33.1930   46.9660 O   0  0  0  0  0  0  0  0  0  0  0  0
   45.8210   30.2660   49.4920 N   0  0  0  0  0  0  0  0  0  0  0  0
   47.1370   30.8450   49.2590 C   0  0  0  0  0  0  0  0  0  0  0  0
   47.0850   31.9930   48.2850 C   0  0  0  0  0  0  0  0  0  0  0  0
   45.6440   32.1050   47.8010 C   0  0  0  0  0  0  0  0  0  0  0  0
   45.3360   30.7600   47.1780 C   0  0  0  0  0  0  0  0  0  0  0  0
   45.2150   29.7570   48.2900 C   0  0  0  0  0  0  0  0  0  0  0  0
   43.6911   36.8555   44.4082 H   0  0  0  0  0  0  0  0  0  0  0  0
   44.7845   36.9660   42.1643 H   0  0  0  0  0  0  0  0  0  0  0  0
   46.5873   35.2714   41.6251 H   0  0  0  0  0  0  0  0  0  0  0  0
   45.9163   29.4926   50.1655 H   0  0  0  0  0  0  0  0  0  0  0  0
   47.5390   31.2093   50.2159 H   0  0  0  0  0  0  0  0  0  0  0  0
   47.7802   30.0634   48.8284 H   0  0  0  0  0  0  0  0  0  0  0  0
   47.3891   32.9251   48.7838 H   0  0  0  0  0  0  0  0  0  0  0  0
   47.7694   31.8218   47.4410 H   0  0  0  0  0  0  0  0  0  0  0  0
   44.9429   32.3142   48.6224 H   0  0  0  0  0  0  0  0  0  0  0  0
   44.3906   30.8143   46.6183 H   0  0  0  0  0  0  0  0  0  0  0  0
   46.1348   30.4670   46.4808 H   0  0  0  0  0  0  0  0  0  0  0  0
   44.1510   29.5520   48.4792 H   0  0  0  0  0  0  0  0  0  0  0  0
   45.7311   28.8317   47.9941 H   0  0  0  0  0  0  0  0  0  0  0  0
  1  9  1  0
  2  1  2  0
  3  8  2  0
  4  3  1  0
  5  4  2  0
  5  6  1  0
  6  7  2  0
  7  8  1  0
  7  1  1  0
  9 13  1  0
 11 10  1  0
 12 11  1  0
 13 12  1  0
 14 13  1  0
 14 15  1  0
 15 10  1  0
  3 16  1  0
  4 17  1  0
  5 18  1  0
 10 19  1  0
 11 20  1  0
 11 21  1  0
 12 22  1  0
 12 23  1  0
 13 24  1  0
 14 25  1  0
 14 26  1  0
 15 27  1  0
 15 28  1  0
M  ISO  8  16  14  17  14  18  14  19   5  20  13  21  13  22  13  23  13
M  ISO  5  24  13  25  13  26  13  27  13  28  13
M  END
>  <minimizedAffinity>  (1) 
-4.66920757

>  <minimizedRMSD>  (1) 
1.40044641

$$$$
