
     RDKit          3D

 27 29  0  0  0  0  0  0  0  0999 V2000
   46.1490   33.1220   46.1740 C   0  0  0  0  0  0  0  0  0  0  0  0
   47.2480   32.5100   46.1770 O   0  0  0  0  0  0  0  0  0  0  0  0
   44.4850   35.9180   44.5200 C   0  0  0  0  0  0  0  0  0  0  0  0
   45.0980   35.9710   43.2600 C   0  0  0  0  0  0  0  0  0  0  0  0
   46.0890   35.0320   42.9920 C   0  0  0  0  0  0  0  0  0  0  0  0
   46.4230   34.1080   43.9490 N   0  0  0  0  0  0  0  0  0  0  0  0
   45.7940   34.1100   45.1460 C   0  0  0  0  0  0  0  0  0  0  0  0
   44.8300   35.0010   45.4440 N   0  0  0  0  0  0  0  0  0  0  0  0
   45.2780   32.8070   47.2090 O   0  0  0  0  0  0  0  0  0  0  0  0
   45.2900   31.5710   47.8480 C   0  0  0  0  0  0  0  0  0  0  0  0
   45.5440   31.3920   49.1960 C   0  0  0  0  0  0  0  0  0  0  0  0
   45.4780   30.0670   49.4970 N   0  0  0  0  0  0  0  0  0  0  0  0
   45.1860   29.4020   48.3500 C   0  0  0  0  0  0  0  0  0  0  0  0
   45.0080   28.0580   48.1020 C   0  0  0  0  0  0  0  0  0  0  0  0
   44.7070   27.5960   46.8220 C   0  0  0  0  0  0  0  0  0  0  0  0
   44.5890   28.5360   45.7930 C   0  0  0  0  0  0  0  0  0  0  0  0
   44.7670   29.8970   46.0340 C   0  0  0  0  0  0  0  0  0  0  0  0
   45.0630   30.3210   47.3110 C   0  0  0  0  0  0  0  0  0  0  0  0
   43.6981   36.6479   44.7611 H   0  0  0  0  0  0  0  0  0  0  0  0
   44.8071   36.7247   42.5135 H   0  0  0  0  0  0  0  0  0  0  0  0
   46.6015   35.0306   42.0187 H   0  0  0  0  0  0  0  0  0  0  0  0
   45.7650   32.1962   49.9132 H   0  0  0  0  0  0  0  0  0  0  0  0
   45.6231   29.6453   50.4255 H   0  0  0  0  0  0  0  0  0  0  0  0
   45.1051   27.3380   48.9280 H   0  0  0  0  0  0  0  0  0  0  0  0
   44.5662   26.5227   46.6266 H   0  0  0  0  0  0  0  0  0  0  0  0
   44.3513   28.1947   44.7747 H   0  0  0  0  0  0  0  0  0  0  0  0
   44.6723   30.6243   45.2142 H   0  0  0  0  0  0  0  0  0  0  0  0
  1  2  2  0
  1  9  1  0
  3  8  2  0
  4  3  1  0
  5  4  2  0
  5  6  1  0
  6  7  2  0
  7  8  1  0
  7  1  1  0
  9 10  1  0
 10 11  2  0
 11 12  1  0
 13 12  1  0
 14 13  2  0
 15 14  1  0
 16 17  1  0
 16 15  2  0
 17 18  2  0
 18 10  1  0
 18 13  1  0
  3 19  1  0
  4 20  1  0
  5 21  1  0
 11 22  1  0
 12 23  1  0
 14 24  1  0
 15 25  1  0
 16 26  1  0
 17 27  1  0
M  ISO  8  19  14  20  14  21  14  22  14  23   9  24  14  25  14  26  14
M  ISO  1  27  14
M  END
>  <minimizedAffinity>  (1) 
-5.15223885

>  <minimizedRMSD>  (1) 
1.80684948

$$$$
