
     RDKit          3D

 20 21  0  0  0  0  0  0  0  0999 V2000
   44.5400   35.6530   44.7690 C   0  0  0  0  0  0  0  0  0  0  0  0
   44.9230   36.0710   43.4880 C   0  0  0  0  0  0  0  0  0  0  0  0
   45.9430   35.3750   42.8480 C   0  0  0  0  0  0  0  0  0  0  0  0
   46.5280   34.3120   43.5000 N   0  0  0  0  0  0  0  0  0  0  0  0
   46.1250   33.9440   44.7360 C   0  0  0  0  0  0  0  0  0  0  0  0
   45.1480   34.6070   45.3560 N   0  0  0  0  0  0  0  0  0  0  0  0
   46.7490   32.8190   45.4200 C   0  0  0  0  0  0  0  0  0  0  0  0
   47.2340   31.8370   44.8150 O   0  0  0  0  0  0  0  0  0  0  0  0
   46.8370   32.7800   46.8100 O   0  0  0  0  0  0  0  0  0  0  0  0
   46.1520   31.8550   47.5860 C   0  0  0  0  0  0  0  0  0  0  0  0
   45.8720   32.2910   48.8810 C   0  0  0  0  0  0  0  0  0  0  0  0
   45.1870   31.2620   49.5290 C   0  0  0  0  0  0  0  0  0  0  0  0
   45.0990   30.2620   48.5680 C   0  0  0  0  0  0  0  0  0  0  0  0
   45.6740   30.6430   47.4450 O   0  0  0  0  0  0  0  0  0  0  0  0
   43.7357   36.1845   45.2988 H   0  0  0  0  0  0  0  0  0  0  0  0
   44.4306   36.9261   43.0017 H   0  0  0  0  0  0  0  0  0  0  0  0
   46.2759   35.6676   41.8412 H   0  0  0  0  0  0  0  0  0  0  0  0
   46.1415   33.2664   49.3122 H   0  0  0  0  0  0  0  0  0  0  0  0
   44.8055   31.2462   50.5606 H   0  0  0  0  0  0  0  0  0  0  0  0
   44.6157   29.2862   48.7234 H   0  0  0  0  0  0  0  0  0  0  0  0
  1  6  2  0
  2  1  1  0
  3  2  2  0
  3  4  1  0
  4  5  2  0
  5  6  1  0
  5  7  1  0
  7  9  1  0
  8  7  2  0
  9 10  1  0
 10 11  2  0
 11 12  1  0
 13 12  2  0
 14 10  1  0
 14 13  1  0
  1 15  1  0
  2 16  1  0
  3 17  1  0
 11 18  1  0
 12 19  1  0
 13 20  1  0
M  ISO  6  15  14  16  14  17  14  18  14  19  14  20  14
M  END
>  <minimizedAffinity>  (1) 
-4.64895487

>  <minimizedRMSD>  (1) 
1.81154776

$$$$
