
     RDKit          3D

 26 27  0  0  0  0  0  0  0  0999 V2000
   44.6060   36.0160   44.5970 C   0  0  0  0  0  0  0  0  0  0  0  0
   45.2320   36.0910   43.3470 C   0  0  0  0  0  0  0  0  0  0  0  0
   46.0640   35.0390   42.9840 C   0  0  0  0  0  0  0  0  0  0  0  0
   46.2470   33.9730   43.8460 N   0  0  0  0  0  0  0  0  0  0  0  0
   45.6030   33.9730   45.0440 C   0  0  0  0  0  0  0  0  0  0  0  0
   44.7870   34.9700   45.4380 N   0  0  0  0  0  0  0  0  0  0  0  0
   45.7760   32.8630   45.9720 C   0  0  0  0  0  0  0  0  0  0  0  0
   46.3690   31.7970   45.6470 O   0  0  0  0  0  0  0  0  0  0  0  0
   45.3030   32.8950   47.2780 O   0  0  0  0  0  0  0  0  0  0  0  0
   46.0630   32.6950   48.4190 C   0  0  0  0  0  0  0  0  0  0  0  0
   47.4770   32.3060   48.2300 C   0  0  0  0  0  0  0  0  0  0  0  0
   47.5820   30.9660   48.9290 C   0  0  0  0  0  0  0  0  0  0  0  0
   46.1960   30.3940   48.9880 C   0  0  0  0  0  0  0  0  0  0  0  0
   45.3770   31.6280   49.2420 C   0  0  0  0  0  0  0  0  0  0  0  0
   43.9428   36.8368   44.9075 H   0  0  0  0  0  0  0  0  0  0  0  0
   45.0714   36.9494   42.6782 H   0  0  0  0  0  0  0  0  0  0  0  0
   46.5771   35.0540   42.0111 H   0  0  0  0  0  0  0  0  0  0  0  0
   46.1179   33.6801   48.9055 H   0  0  0  0  0  0  0  0  0  0  0  0
   47.7170   32.2097   47.1608 H   0  0  0  0  0  0  0  0  0  0  0  0
   48.1796   33.0508   48.6321 H   0  0  0  0  0  0  0  0  0  0  0  0
   48.2442   30.2949   48.3623 H   0  0  0  0  0  0  0  0  0  0  0  0
   48.0032   31.0811   49.9386 H   0  0  0  0  0  0  0  0  0  0  0  0
   45.9176   29.9148   48.0378 H   0  0  0  0  0  0  0  0  0  0  0  0
   46.0668   29.6049   49.7434 H   0  0  0  0  0  0  0  0  0  0  0  0
   45.3864   31.8911   50.3100 H   0  0  0  0  0  0  0  0  0  0  0  0
   44.3188   31.4982   48.9713 H   0  0  0  0  0  0  0  0  0  0  0  0
  1  6  2  0
  2  1  1  0
  3  2  2  0
  3  4  1  0
  4  5  2  0
  5  6  1  0
  5  7  1  0
  7  9  1  0
  8  7  2  0
  9 10  1  0
 10 14  1  0
 11 10  1  0
 11 12  1  0
 12 13  1  0
 13 14  1  0
  1 15  1  0
  2 16  1  0
  3 17  1  0
 10 18  1  0
 11 19  1  0
 11 20  1  0
 12 21  1  0
 12 22  1  0
 13 23  1  0
 13 24  1  0
 14 25  1  0
 14 26  1  0
M  ISO  8  15  14  16  14  17  14  18  13  19  13  20  13  21  13  22  13
M  ISO  4  23  13  24  13  25  13  26  13
M  END
>  <minimizedAffinity>  (1) 
-4.51380396

>  <minimizedRMSD>  (1) 
1.5421747

$$$$
