
     RDKit          3D

 29 31  0  0  0  0  0  0  0  0999 V2000
   48.2030   33.6500   42.8350 C   0  0  0  0  0  0  0  0  0  0  0  0
   49.2170   34.3490   43.0290 O   0  0  0  0  0  0  0  0  0  0  0  0
   47.6660   30.3010   44.1750 C   0  0  0  0  0  0  0  0  0  0  0  0
   46.9820   30.5510   45.3650 C   0  0  0  0  0  0  0  0  0  0  0  0
   46.7010   31.8700   45.7120 C   0  0  0  0  0  0  0  0  0  0  0  0
   47.1080   32.8800   44.8710 N   0  0  0  0  0  0  0  0  0  0  0  0
   47.7710   32.5820   43.7250 C   0  0  0  0  0  0  0  0  0  0  0  0
   48.0410   31.3260   43.3900 N   0  0  0  0  0  0  0  0  0  0  0  0
   47.4930   33.9690   41.6810 O   0  0  0  0  0  0  0  0  0  0  0  0
   46.2170   34.5150   41.6920 C   0  0  0  0  0  0  0  0  0  0  0  0
   45.9780   35.3940   42.7330 C   0  0  0  0  0  0  0  0  0  0  0  0
   44.7650   36.0160   42.8790 C   0  0  0  0  0  0  0  0  0  0  0  0
   43.7670   35.7380   41.9460 C   0  0  0  0  0  0  0  0  0  0  0  0
   43.9750   34.8600   40.8920 C   0  0  0  0  0  0  0  0  0  0  0  0
   42.9990   34.5760   39.9630 C   0  0  0  0  0  0  0  0  0  0  0  0
   43.2680   33.6920   38.9330 C   0  0  0  0  0  0  0  0  0  0  0  0
   44.5100   33.0990   38.8400 C   0  0  0  0  0  0  0  0  0  0  0  0
   45.5210   33.3620   39.7610 C   0  0  0  0  0  0  0  0  0  0  0  0
   45.2030   34.2520   40.7690 C   0  0  0  0  0  0  0  0  0  0  0  0
   47.8980   29.2671   43.8796 H   0  0  0  0  0  0  0  0  0  0  0  0
   46.6705   29.7216   46.0170 H   0  0  0  0  0  0  0  0  0  0  0  0
   46.1625   32.1006   46.6431 H   0  0  0  0  0  0  0  0  0  0  0  0
   46.7784   35.5983   43.4593 H   0  0  0  0  0  0  0  0  0  0  0  0
   44.5842   36.7148   43.7090 H   0  0  0  0  0  0  0  0  0  0  0  0
   42.7876   36.2283   42.0483 H   0  0  0  0  0  0  0  0  0  0  0  0
   42.0093   35.0500   40.0394 H   0  0  0  0  0  0  0  0  0  0  0  0
   42.4916   33.4622   38.1885 H   0  0  0  0  0  0  0  0  0  0  0  0
   44.7074   32.3986   38.0151 H   0  0  0  0  0  0  0  0  0  0  0  0
   46.5121   32.8901   39.6903 H   0  0  0  0  0  0  0  0  0  0  0  0
  1  2  2  0
  1  7  1  0
  3  4  2  0
  4  5  1  0
  6  5  2  0
  7  6  1  0
  8  7  2  0
  8  3  1  0
  9 10  1  0
  9  1  1  0
 10 11  2  0
 11 12  1  0
 13 12  2  0
 14 13  1  0
 15 14  2  0
 16 15  1  0
 17 16  2  0
 17 18  1  0
 18 19  2  0
 19 14  1  0
 19 10  1  0
  3 20  1  0
  4 21  1  0
  5 22  1  0
 11 23  1  0
 12 24  1  0
 13 25  1  0
 15 26  1  0
 16 27  1  0
 17 28  1  0
 18 29  1  0
M  ISO  8  20  14  21  14  22  14  23  14  24  14  25  14  26  14  27  14
M  ISO  2  28  14  29  14
M  END
>  <minimizedAffinity>  (1) 
-4.47056055

>  <minimizedRMSD>  (1) 
7.69757891

$$$$
