
     RDKit          3D

 23 24  0  0  0  0  0  0  0  0999 V2000
   45.8880   32.9720   44.7860 C   0  0  0  0  0  0  0  0  0  0  0  0
   46.0120   31.7490   44.5710 O   0  0  0  0  0  0  0  0  0  0  0  0
   44.9170   36.1050   43.2150 C   0  0  0  0  0  0  0  0  0  0  0  0
   44.1540   35.6960   42.1090 C   0  0  0  0  0  0  0  0  0  0  0  0
   43.9790   34.3240   41.9130 C   0  0  0  0  0  0  0  0  0  0  0  0
   44.5580   33.4410   42.8040 N   0  0  0  0  0  0  0  0  0  0  0  0
   45.2840   33.9060   43.8540 C   0  0  0  0  0  0  0  0  0  0  0  0
   45.4660   35.2060   44.0630 N   0  0  0  0  0  0  0  0  0  0  0  0
   46.3900   33.3930   46.0280 O   0  0  0  0  0  0  0  0  0  0  0  0
   46.1890   32.6150   47.1790 C   0  0  0  0  0  0  0  0  0  0  0  0
   47.4110   32.1270   47.6490 C   0  0  0  0  0  0  0  0  0  0  0  0
   47.4810   31.3250   48.7850 C   0  0  0  0  0  0  0  0  0  0  0  0
   46.2680   31.0370   49.4210 C   0  0  0  0  0  0  0  0  0  0  0  0
   45.0840   31.5150   48.9560 C   0  0  0  0  0  0  0  0  0  0  0  0
   45.0150   32.3100   47.8330 C   0  0  0  0  0  0  0  0  0  0  0  0
   45.0712   37.1791   43.3952 H   0  0  0  0  0  0  0  0  0  0  0  0
   43.7097   36.4304   41.4211 H   0  0  0  0  0  0  0  0  0  0  0  0
   43.3892   33.9523   41.0622 H   0  0  0  0  0  0  0  0  0  0  0  0
   48.3360   32.3815   47.1109 H   0  0  0  0  0  0  0  0  0  0  0  0
   48.4390   30.9382   49.1626 H   0  0  0  0  0  0  0  0  0  0  0  0
   46.2732   30.4063   50.3222 H   0  0  0  0  0  0  0  0  0  0  0  0
   44.1566   31.2606   49.4901 H   0  0  0  0  0  0  0  0  0  0  0  0
   44.0495   32.6908   47.4685 H   0  0  0  0  0  0  0  0  0  0  0  0
  1  9  1  0
  2  1  2  0
  3  8  2  0
  4  3  1  0
  5  4  2  0
  5  6  1  0
  6  7  2  0
  7  8  1  0
  7  1  1  0
  9 10  1  0
 10 11  2  0
 10 15  1  0
 11 12  1  0
 12 13  2  0
 14 13  1  0
 15 14  2  0
  3 16  1  0
  4 17  1  0
  5 18  1  0
 11 19  1  0
 12 20  1  0
 13 21  1  0
 14 22  1  0
 15 23  1  0
M  ISO  8  16  14  17  14  18  14  19  14  20  14  21  14  22  14  23  14
M  END
>  <minimizedAffinity>  (1) 
-4.38476753

>  <minimizedRMSD>  (1) 
2.03135753

$$$$
