
     RDKit          3D

 20 21  0  0  0  0  0  0  0  0999 V2000
   44.5110   35.7160   44.5550 C   0  0  0  0  0  0  0  0  0  0  0  0
   44.8890   36.1470   43.2650 C   0  0  0  0  0  0  0  0  0  0  0  0
   45.9490   35.4810   42.6430 C   0  0  0  0  0  0  0  0  0  0  0  0
   46.5590   34.4580   43.3090 N   0  0  0  0  0  0  0  0  0  0  0  0
   46.1540   34.0810   44.5520 C   0  0  0  0  0  0  0  0  0  0  0  0
   45.1490   34.6980   45.1670 N   0  0  0  0  0  0  0  0  0  0  0  0
   46.8170   32.9890   45.2450 C   0  0  0  0  0  0  0  0  0  0  0  0
   47.3650   32.0170   44.6480 O   0  0  0  0  0  0  0  0  0  0  0  0
   46.8870   32.9500   46.6500 O   0  0  0  0  0  0  0  0  0  0  0  0
   46.2270   31.8850   47.3320 C   0  0  0  0  0  0  0  0  0  0  0  0
   45.9300   32.1550   48.6200 C   0  0  0  0  0  0  0  0  0  0  0  0
   45.3210   31.4030   49.5490 C   0  0  0  0  0  0  0  0  0  0  0  0
   44.9980   30.1010   48.8660 C   0  0  0  0  0  0  0  0  0  0  0  0
   45.6460   30.2810   47.0630 S   0  0  0  0  0  0  0  0  0  0  0  0
   43.6803   36.2201   45.0706 H   0  0  0  0  0  0  0  0  0  0  0  0
   44.3678   36.9777   42.7668 H   0  0  0  0  0  0  0  0  0  0  0  0
   46.2844   35.7754   41.6376 H   0  0  0  0  0  0  0  0  0  0  0  0
   46.2370   33.1537   48.9642 H   0  0  0  0  0  0  0  0  0  0  0  0
   45.1033   31.6797   50.5911 H   0  0  0  0  0  0  0  0  0  0  0  0
   44.4954   29.2273   49.3065 H   0  0  0  0  0  0  0  0  0  0  0  0
  1  6  2  0
  2  1  1  0
  3  2  2  0
  3  4  1  0
  4  5  2  0
  5  6  1  0
  5  7  1  0
  7  9  1  0
  8  7  2  0
  9 10  1  0
 10 11  2  0
 11 12  1  0
 13 12  2  0
 14 10  1  0
 14 13  1  0
  1 15  1  0
  2 16  1  0
  3 17  1  0
 11 18  1  0
 12 19  1  0
 13 20  1  0
M  ISO  6  15  14  16  14  17  14  18  14  19  14  20  14
M  END
>  <minimizedAffinity>  (1) 
-4.44684124

>  <minimizedRMSD>  (1) 
1.8463943

$$$$
