
     RDKit          3D

 37 40  0  0  0  0  0  0  0  0999 V2000
   45.3090   34.3000   43.5870 C   0  0  0  0  0  0  0  0  0  0  0  0
   45.6160   35.5900   43.2540 C   0  0  0  0  0  0  0  0  0  0  0  0
   44.8970   36.1770   42.2610 C   0  0  0  0  0  0  0  0  0  0  0  0
   43.9290   35.5190   41.6330 N   0  0  0  0  0  0  0  0  0  0  0  0
   43.6050   34.2430   41.9410 C   0  0  0  0  0  0  0  0  0  0  0  0
   44.3300   33.6530   42.9420 N   0  0  0  0  0  0  0  0  0  0  0  0
   42.5700   33.3650   41.3620 C   0  0  0  0  0  0  0  0  0  0  0  0
   42.7650   31.9760   41.3180 C   0  0  0  0  0  0  0  0  0  0  0  0
   41.8400   31.1110   40.7940 C   0  0  0  0  0  0  0  0  0  0  0  0
   40.6550   31.5820   40.2800 C   0  0  0  0  0  0  0  0  0  0  0  0
   40.4200   32.9350   40.3020 C   0  0  0  0  0  0  0  0  0  0  0  0
   39.2400   33.3950   39.7910 C   0  0  0  0  0  0  0  0  0  0  0  0
   38.9430   34.7410   39.7860 C   0  0  0  0  0  0  0  0  0  0  0  0
   39.9130   35.5900   40.3300 C   0  0  0  0  0  0  0  0  0  0  0  0
   41.0700   35.0710   40.8250 C   0  0  0  0  0  0  0  0  0  0  0  0
   41.3840   33.7520   40.8400 C   0  0  0  0  0  0  0  0  0  0  0  0
   45.8880   33.4650   44.5660 O   0  0  0  0  0  0  0  0  0  0  0  0
   45.5080   33.6940   45.9100 C   0  0  0  0  0  0  0  0  0  0  0  0
   44.7720   34.6930   46.1040 O   0  0  0  0  0  0  0  0  0  0  0  0
   47.6080   31.4050   47.8430 C   0  0  0  0  0  0  0  0  0  0  0  0
   46.8410   31.1350   48.9640 C   0  0  0  0  0  0  0  0  0  0  0  0
   45.6030   31.7380   49.0570 C   0  0  0  0  0  0  0  0  0  0  0  0
   45.1780   32.5780   48.0430 N   0  0  0  0  0  0  0  0  0  0  0  0
   45.9640   32.8070   46.9730 C   0  0  0  0  0  0  0  0  0  0  0  0
   47.1690   32.2320   46.8630 N   0  0  0  0  0  0  0  0  0  0  0  0
   46.4185   36.1350   43.7727 H   0  0  0  0  0  0  0  0  0  0  0  0
   45.1206   37.2147   41.9725 H   0  0  0  0  0  0  0  0  0  0  0  0
   43.7013   31.5634   41.7218 H   0  0  0  0  0  0  0  0  0  0  0  0
   42.0474   30.0308   40.7846 H   0  0  0  0  0  0  0  0  0  0  0  0
   39.9106   30.8896   39.8599 H   0  0  0  0  0  0  0  0  0  0  0  0
   38.5146   32.6795   39.3765 H   0  0  0  0  0  0  0  0  0  0  0  0
   37.9970   35.1259   39.3775 H   0  0  0  0  0  0  0  0  0  0  0  0
   39.7408   36.6761   40.3577 H   0  0  0  0  0  0  0  0  0  0  0  0
   41.8050   35.7740   41.2440 H   0  0  0  0  0  0  0  0  0  0  0  0
   48.5984   30.9365   47.7455 H   0  0  0  0  0  0  0  0  0  0  0  0
   47.2063   30.4623   49.7540 H   0  0  0  0  0  0  0  0  0  0  0  0
   44.9597   31.5524   49.9298 H   0  0  0  0  0  0  0  0  0  0  0  0
  1 17  1  0
  2  1  2  0
  3  2  1  0
  4  5  1  0
  4  3  2  0
  5  6  2  0
  6  1  1  0
  7  5  1  0
  8  7  2  0
  9  8  1  0
 10 11  1  0
 10  9  2  0
 11 16  2  0
 12 11  1  0
 13 12  2  0
 13 14  1  0
 14 15  2  0
 15 16  1  0
 16  7  1  0
 17 18  1  0
 18 19  2  0
 18 24  1  0
 20 21  2  0
 21 22  1  0
 23 22  2  0
 24 23  1  0
 25 24  2  0
 25 20  1  0
  2 26  1  0
  3 27  1  0
  8 28  1  0
  9 29  1  0
 10 30  1  0
 12 31  1  0
 13 32  1  0
 14 33  1  0
 15 34  1  0
 20 35  1  0
 21 36  1  0
 22 37  1  0
M  ISO  8  26  14  27  14  28  14  29  14  30  14  31  14  32  14  33  14
M  ISO  4  34  14  35  14  36  14  37  14
M  END
>  <minimizedAffinity>  (1) 
-6.2891655

>  <minimizedRMSD>  (1) 
2.35779643

$$$$
