
     RDKit          3D

 30 32  0  0  0  0  0  0  0  0999 V2000
   44.7130   34.6180   41.3180 C   0  0  0  0  0  0  0  0  0  0  0  0
   45.6950   34.0600   42.2510 C   0  0  0  0  0  0  0  0  0  0  0  0
   45.2500   33.1710   43.1860 N   0  0  0  0  0  0  0  0  0  0  0  0
   46.1120   32.5920   44.0720 C   0  0  0  0  0  0  0  0  0  0  0  0
   47.4380   32.8660   44.0740 N   0  0  0  0  0  0  0  0  0  0  0  0
   47.9250   33.7370   43.1700 C   0  0  0  0  0  0  0  0  0  0  0  0
   49.2740   34.0450   43.1470 C   0  0  0  0  0  0  0  0  0  0  0  0
   49.7770   34.9560   42.2140 C   0  0  0  0  0  0  0  0  0  0  0  0
   48.8880   35.5200   41.3390 C   0  0  0  0  0  0  0  0  0  0  0  0
   47.5300   35.2100   41.3630 C   0  0  0  0  0  0  0  0  0  0  0  0
   47.0360   34.3110   42.2830 C   0  0  0  0  0  0  0  0  0  0  0  0
   43.5660   35.3350   41.9910 C   0  0  0  0  0  0  0  0  0  0  0  0
   42.3850   35.4250   41.0840 C   0  0  0  0  0  0  0  0  0  0  0  0
   42.6680   34.9820   39.7800 C   0  0  0  0  0  0  0  0  0  0  0  0
   41.6500   35.0110   38.8350 C   0  0  0  0  0  0  0  0  0  0  0  0
   40.4200   35.4710   39.2290 N   0  0  0  0  0  0  0  0  0  0  0  0
   40.1930   35.8880   40.5020 C   0  0  0  0  0  0  0  0  0  0  0  0
   41.1690   35.8600   41.4060 N   0  0  0  0  0  0  0  0  0  0  0  0
   44.3010   33.7948   40.7158 H   0  0  0  0  0  0  0  0  0  0  0  0
   45.2417   35.3650   40.7077 H   0  0  0  0  0  0  0  0  0  0  0  0
   45.7159   31.8785   44.8095 H   0  0  0  0  0  0  0  0  0  0  0  0
   49.9551   33.5695   43.8681 H   0  0  0  0  0  0  0  0  0  0  0  0
   50.8468   35.2102   42.1839 H   0  0  0  0  0  0  0  0  0  0  0  0
   49.2573   36.2401   40.5940 H   0  0  0  0  0  0  0  0  0  0  0  0
   46.8479   35.6858   40.6431 H   0  0  0  0  0  0  0  0  0  0  0  0
   43.2807   34.7839   42.8992 H   0  0  0  0  0  0  0  0  0  0  0  0
   43.8911   36.3548   42.2448 H   0  0  0  0  0  0  0  0  0  0  0  0
   43.6724   34.6207   39.5141 H   0  0  0  0  0  0  0  0  0  0  0  0
   41.8255   34.6752   37.8023 H   0  0  0  0  0  0  0  0  0  0  0  0
   39.1948   36.2515   40.7875 H   0  0  0  0  0  0  0  0  0  0  0  0
  1 12  1  0
  1  2  1  0
  2 11  1  0
  2  3  2  0
  3  4  1  0
  4  5  2  0
  6  5  1  0
  7  6  2  0
  8  7  1  0
  9 10  1  0
  9  8  2  0
 10 11  2  0
 11  6  1  0
 13 18  1  0
 13 12  1  0
 14 13  2  0
 15 16  2  0
 15 14  1  0
 16 17  1  0
 17 18  2  0
  1 19  1  0
  1 20  1  0
  4 21  1  0
  7 22  1  0
  8 23  1  0
  9 24  1  0
 10 25  1  0
 12 26  1  0
 12 27  1  0
 14 28  1  0
 15 29  1  0
 17 30  1  0
M  ISO  8  19   8  20   8  21  14  22  14  23  14  24  14  25  14  26   8
M  ISO  4  27   8  28  14  29  14  30  14
M  END
>  <minimizedAffinity>  (1) 
-5.28826284

>  <minimizedRMSD>  (1) 
5.1390543

$$$$
