
     RDKit          3D

 35 38  0  0  0  0  0  0  0  0999 V2000
   45.1150   34.2860   43.2620 C   0  0  0  0  0  0  0  0  0  0  0  0
   45.0210   35.4820   42.6110 C   0  0  0  0  0  0  0  0  0  0  0  0
   44.0950   35.5920   41.6220 C   0  0  0  0  0  0  0  0  0  0  0  0
   43.3040   34.5780   41.2940 N   0  0  0  0  0  0  0  0  0  0  0  0
   43.3810   33.3840   41.9290 C   0  0  0  0  0  0  0  0  0  0  0  0
   44.3150   33.2670   42.9280 N   0  0  0  0  0  0  0  0  0  0  0  0
   42.6100   32.1390   41.7330 C   0  0  0  0  0  0  0  0  0  0  0  0
   43.2060   30.9100   41.8000 N   0  0  0  0  0  0  0  0  0  0  0  0
   42.5550   29.7580   41.6310 C   0  0  0  0  0  0  0  0  0  0  0  0
   41.2490   29.7210   41.3790 N   0  0  0  0  0  0  0  0  0  0  0  0
   40.5610   30.8820   41.2910 C   0  0  0  0  0  0  0  0  0  0  0  0
   39.2140   30.8840   41.0340 C   0  0  0  0  0  0  0  0  0  0  0  0
   38.4960   32.0580   40.9410 C   0  0  0  0  0  0  0  0  0  0  0  0
   39.2020   33.2300   41.1220 C   0  0  0  0  0  0  0  0  0  0  0  0
   40.5530   33.1930   41.3780 C   0  0  0  0  0  0  0  0  0  0  0  0
   41.2810   32.0350   41.4730 C   0  0  0  0  0  0  0  0  0  0  0  0
   45.9780   33.9060   44.3120 O   0  0  0  0  0  0  0  0  0  0  0  0
   45.4910   34.0090   45.6300 C   0  0  0  0  0  0  0  0  0  0  0  0
   44.7100   34.9580   45.8160 O   0  0  0  0  0  0  0  0  0  0  0  0
   47.4090   31.4470   47.4040 C   0  0  0  0  0  0  0  0  0  0  0  0
   46.6710   31.2410   48.5610 C   0  0  0  0  0  0  0  0  0  0  0  0
   45.5200   31.9860   48.7200 C   0  0  0  0  0  0  0  0  0  0  0  0
   45.1370   32.8920   47.7580 N   0  0  0  0  0  0  0  0  0  0  0  0
   45.9140   33.0420   46.6410 C   0  0  0  0  0  0  0  0  0  0  0  0
   47.0280   32.3390   46.4590 N   0  0  0  0  0  0  0  0  0  0  0  0
   45.6721   36.3276   42.8775 H   0  0  0  0  0  0  0  0  0  0  0  0
   43.9989   36.5446   41.0804 H   0  0  0  0  0  0  0  0  0  0  0  0
   43.1131   28.8128   41.7019 H   0  0  0  0  0  0  0  0  0  0  0  0
   38.6928   29.9248   40.8986 H   0  0  0  0  0  0  0  0  0  0  0  0
   37.4158   32.0601   40.7332 H   0  0  0  0  0  0  0  0  0  0  0  0
   38.6822   34.1976   41.0613 H   0  0  0  0  0  0  0  0  0  0  0  0
   41.0803   34.1486   41.5145 H   0  0  0  0  0  0  0  0  0  0  0  0
   48.3316   30.8681   47.2498 H   0  0  0  0  0  0  0  0  0  0  0  0
   46.9906   30.5130   49.3211 H   0  0  0  0  0  0  0  0  0  0  0  0
   44.9046   31.8545   49.6222 H   0  0  0  0  0  0  0  0  0  0  0  0
  1 17  1  0
  2  1  2  0
  3  2  1  0
  4  3  2  0
  4  5  1  0
  5  6  2  0
  6  1  1  0
  7  8  2  0
  7  5  1  0
  9  8  1  0
 10  9  2  0
 11 10  1  0
 11 16  2  0
 12 11  1  0
 13 12  2  0
 13 14  1  0
 14 15  2  0
 15 16  1  0
 16  7  1  0
 17 18  1  0
 18 19  2  0
 18 24  1  0
 20 21  2  0
 21 22  1  0
 23 22  2  0
 24 23  1  0
 25 24  2  0
 25 20  1  0
  2 26  1  0
  3 27  1  0
  9 28  1  0
 12 29  1  0
 13 30  1  0
 14 31  1  0
 15 32  1  0
 20 33  1  0
 21 34  1  0
 22 35  1  0
M  ISO  8  26  14  27  14  28  14  29  14  30  14  31  14  32  14  33  14
M  ISO  2  34  14  35  14
M  END
>  <minimizedAffinity>  (1) 
-5.75026131

>  <minimizedRMSD>  (1) 
0.953386068

$$$$
