
     RDKit          3D

 31 33  0  0  0  0  0  0  0  0999 V2000
   45.2800   34.4880   43.6010 C   0  0  0  0  0  0  0  0  0  0  0  0
   45.2990   35.8550   43.3620 C   0  0  0  0  0  0  0  0  0  0  0  0
   44.5460   36.3400   42.3400 C   0  0  0  0  0  0  0  0  0  0  0  0
   43.8030   35.5060   41.5860 N   0  0  0  0  0  0  0  0  0  0  0  0
   43.7850   34.1750   41.8220 C   0  0  0  0  0  0  0  0  0  0  0  0
   44.5300   33.6520   42.8400 N   0  0  0  0  0  0  0  0  0  0  0  0
   42.9830   33.2970   41.0040 N   0  0  0  0  0  0  0  0  0  0  0  0
   42.5010   33.7700   39.8400 C   0  0  0  0  0  0  0  0  0  0  0  0
   41.7350   32.8790   39.0930 C   0  0  0  0  0  0  0  0  0  0  0  0
   41.5290   31.6080   39.5870 C   0  0  0  0  0  0  0  0  0  0  0  0
   40.8370   30.7980   38.9180 O   0  0  0  0  0  0  0  0  0  0  0  0
   42.0190   31.1660   40.7430 N   0  0  0  0  0  0  0  0  0  0  0  0
   42.7660   32.0510   41.4590 C   0  0  0  0  0  0  0  0  0  0  0  0
   43.2470   31.6530   42.5720 O   0  0  0  0  0  0  0  0  0  0  0  0
   45.9650   33.7570   44.5860 O   0  0  0  0  0  0  0  0  0  0  0  0
   45.4860   33.8370   45.9060 C   0  0  0  0  0  0  0  0  0  0  0  0
   44.6620   34.7490   46.1180 O   0  0  0  0  0  0  0  0  0  0  0  0
   47.5460   31.3750   47.6500 C   0  0  0  0  0  0  0  0  0  0  0  0
   46.8210   31.1260   48.8090 C   0  0  0  0  0  0  0  0  0  0  0  0
   45.6120   31.8020   49.0020 C   0  0  0  0  0  0  0  0  0  0  0  0
   45.2040   32.6930   48.0170 N   0  0  0  0  0  0  0  0  0  0  0  0
   45.9570   32.8900   46.9150 C   0  0  0  0  0  0  0  0  0  0  0  0
   47.1150   32.2500   46.7140 N   0  0  0  0  0  0  0  0  0  0  0  0
   45.9076   36.5282   43.9835 H   0  0  0  0  0  0  0  0  0  0  0  0
   44.5429   37.4192   42.1270 H   0  0  0  0  0  0  0  0  0  0  0  0
   42.6999   34.7970   39.4998 H   0  0  0  0  0  0  0  0  0  0  0  0
   41.3028   33.1828   38.1282 H   0  0  0  0  0  0  0  0  0  0  0  0
   41.8429   30.2078   41.0773 H   0  0  0  0  0  0  0  0  0  0  0  0
   48.4968   30.8456   47.4897 H   0  0  0  0  0  0  0  0  0  0  0  0
   47.1905   30.4117   49.5595 H   0  0  0  0  0  0  0  0  0  0  0  0
   45.0044   31.6339   49.9034 H   0  0  0  0  0  0  0  0  0  0  0  0
  1 15  1  0
  2  1  2  0
  3  2  1  0
  4  5  1  0
  4  3  2  0
  5  6  2  0
  6  1  1  0
  7 13  1  0
  7  5  1  0
  8  7  1  0
  9 10  1  0
  9  8  2  0
 10 12  1  0
 11 10  2  0
 12 13  1  0
 13 14  2  0
 15 16  1  0
 16 17  2  0
 16 22  1  0
 18 19  2  0
 19 20  1  0
 21 20  2  0
 22 21  1  0
 23 22  2  0
 23 18  1  0
  2 24  1  0
  3 25  1  0
  8 26  1  0
  9 27  1  0
 12 28  1  0
 18 29  1  0
 19 30  1  0
 20 31  1  0
M  ISO  8  24  14  25  14  26  14  27  14  28   9  29  14  30  14  31  14
M  END
>  <minimizedAffinity>  (1) 
-5.33721638

>  <minimizedRMSD>  (1) 
1.47457623

$$$$
