
     RDKit          3D

 32 34  0  0  0  0  0  0  0  0999 V2000
   45.2110   34.3300   43.5510 C   0  0  0  0  0  0  0  0  0  0  0  0
   45.3020   35.6830   43.3350 C   0  0  0  0  0  0  0  0  0  0  0  0
   44.5720   36.2320   42.3150 C   0  0  0  0  0  0  0  0  0  0  0  0
   43.7870   35.4720   41.5460 N   0  0  0  0  0  0  0  0  0  0  0  0
   43.6950   34.1230   41.7590 C   0  0  0  0  0  0  0  0  0  0  0  0
   44.4170   33.5570   42.7730 N   0  0  0  0  0  0  0  0  0  0  0  0
   42.8500   33.2970   40.9330 N   0  0  0  0  0  0  0  0  0  0  0  0
   42.5900   33.8540   39.7150 C   0  0  0  0  0  0  0  0  0  0  0  0
   41.7900   33.1860   38.7960 C   0  0  0  0  0  0  0  0  0  0  0  0
   41.2940   31.9550   39.1930 C   0  0  0  0  0  0  0  0  0  0  0  0
   40.4780   31.2930   38.2340 N   0  0  0  0  0  0  0  0  0  0  0  0
   41.5710   31.4290   40.4100 N   0  0  0  0  0  0  0  0  0  0  0  0
   42.3480   32.1000   41.2790 C   0  0  0  0  0  0  0  0  0  0  0  0
   42.6450   31.6700   42.4230 O   0  0  0  0  0  0  0  0  0  0  0  0
   45.8510   33.5390   44.5190 O   0  0  0  0  0  0  0  0  0  0  0  0
   45.4860   33.7390   45.8700 C   0  0  0  0  0  0  0  0  0  0  0  0
   44.7490   34.7190   46.0700 O   0  0  0  0  0  0  0  0  0  0  0  0
   47.5750   31.3710   47.6940 C   0  0  0  0  0  0  0  0  0  0  0  0
   46.8500   31.1360   48.8640 C   0  0  0  0  0  0  0  0  0  0  0  0
   45.6420   31.7970   49.0180 C   0  0  0  0  0  0  0  0  0  0  0  0
   45.2080   32.6510   48.0220 N   0  0  0  0  0  0  0  0  0  0  0  0
   45.9620   32.8410   46.8990 C   0  0  0  0  0  0  0  0  0  0  0  0
   47.1410   32.2060   46.7320 N   0  0  0  0  0  0  0  0  0  0  0  0
   45.9467   36.3115   43.9670 H   0  0  0  0  0  0  0  0  0  0  0  0
   44.6327   37.3139   42.1260 H   0  0  0  0  0  0  0  0  0  0  0  0
   43.0153   34.8357   39.4595 H   0  0  0  0  0  0  0  0  0  0  0  0
   41.5630   33.6114   37.8073 H   0  0  0  0  0  0  0  0  0  0  0  0
   40.0703   30.3726   38.4522 H   0  0  0  0  0  0  0  0  0  0  0  0
   40.2948   31.7341   37.3214 H   0  0  0  0  0  0  0  0  0  0  0  0
   48.5361   30.8547   47.5535 H   0  0  0  0  0  0  0  0  0  0  0  0
   47.2251   30.4494   49.6372 H   0  0  0  0  0  0  0  0  0  0  0  0
   45.0354   31.6437   49.9227 H   0  0  0  0  0  0  0  0  0  0  0  0
  1 15  1  0
  2  1  2  0
  3  2  1  0
  4  5  1  0
  4  3  2  0
  5  6  2  0
  6  1  1  0
  7 13  1  0
  7  5  1  0
  8  7  1  0
  9 10  1  0
  9  8  2  0
 10 12  2  0
 11 10  1  0
 12 13  1  0
 13 14  2  0
 15 16  1  0
 16 17  2  0
 16 22  1  0
 18 19  2  0
 19 20  1  0
 21 20  2  0
 22 21  1  0
 23 22  2  0
 23 18  1  0
  2 24  1  0
  3 25  1  0
  8 26  1  0
  9 27  1  0
 11 28  1  0
 11 29  1  0
 18 30  1  0
 19 31  1  0
 20 32  1  0
M  ISO  7  24  14  25  14  26  14  27  14  30  14  31  14  32  14
M  END
>  <minimizedAffinity>  (1) 
-5.45370245

>  <minimizedRMSD>  (1) 
1.6151669

$$$$
