
     RDKit          3D

 35 37  0  0  0  0  0  0  0  0999 V2000
   45.3750   34.0480   43.2070 C   0  0  0  0  0  0  0  0  0  0  0  0
   45.3110   35.0240   42.2240 C   0  0  0  0  0  0  0  0  0  0  0  0
   44.4060   34.8270   41.2280 C   0  0  0  0  0  0  0  0  0  0  0  0
   43.6150   33.7520   41.1910 N   0  0  0  0  0  0  0  0  0  0  0  0
   43.6850   32.7980   42.1620 C   0  0  0  0  0  0  0  0  0  0  0  0
   44.5770   32.9520   43.1810 N   0  0  0  0  0  0  0  0  0  0  0  0
   42.8440   31.6480   42.1300 N   0  0  0  0  0  0  0  0  0  0  0  0
   43.2340   30.3630   42.6790 C   0  0  0  0  0  0  0  0  0  0  0  0
   42.0560   29.4320   42.3810 C   0  0  0  0  0  0  0  0  0  0  0  0
   40.8450   29.9530   42.9850 N   0  0  0  0  0  0  0  0  0  0  0  0
   40.4270   31.1720   42.3280 C   0  0  0  0  0  0  0  0  0  0  0  0
   41.5360   31.7750   41.5160 C   0  0  0  0  0  0  0  0  0  0  0  0
   46.2170   34.0100   44.3380 O   0  0  0  0  0  0  0  0  0  0  0  0
   45.6020   34.0420   45.6030 C   0  0  0  0  0  0  0  0  0  0  0  0
   44.7610   34.9490   45.7670 O   0  0  0  0  0  0  0  0  0  0  0  0
   47.4020   31.4010   47.3850 C   0  0  0  0  0  0  0  0  0  0  0  0
   46.6260   31.2150   48.5210 C   0  0  0  0  0  0  0  0  0  0  0  0
   45.4920   31.9830   48.6840 C   0  0  0  0  0  0  0  0  0  0  0  0
   45.1680   32.9120   47.7100 N   0  0  0  0  0  0  0  0  0  0  0  0
   45.9600   33.0550   46.6200 C   0  0  0  0  0  0  0  0  0  0  0  0
   47.0640   32.3150   46.4500 N   0  0  0  0  0  0  0  0  0  0  0  0
   45.9592   35.9124   42.2485 H   0  0  0  0  0  0  0  0  0  0  0  0
   44.3231   35.5770   40.4276 H   0  0  0  0  0  0  0  0  0  0  0  0
   44.1497   29.9962   42.1921 H   0  0  0  0  0  0  0  0  0  0  0  0
   43.4523   30.4222   43.7555 H   0  0  0  0  0  0  0  0  0  0  0  0
   41.9170   29.3579   41.2923 H   0  0  0  0  0  0  0  0  0  0  0  0
   42.2682   28.4370   42.7994 H   0  0  0  0  0  0  0  0  0  0  0  0
   40.0965   29.2504   42.9012 H   0  0  0  0  0  0  0  0  0  0  0  0
   39.5807   30.9459   41.6627 H   0  0  0  0  0  0  0  0  0  0  0  0
   40.1373   31.8967   43.1032 H   0  0  0  0  0  0  0  0  0  0  0  0
   41.3210   32.8445   41.3748 H   0  0  0  0  0  0  0  0  0  0  0  0
   41.5730   31.2250   40.5641 H   0  0  0  0  0  0  0  0  0  0  0  0
   48.3080   30.7933   47.2440 H   0  0  0  0  0  0  0  0  0  0  0  0
   46.9104   30.4687   49.2774 H   0  0  0  0  0  0  0  0  0  0  0  0
   44.8558   31.8595   49.5728 H   0  0  0  0  0  0  0  0  0  0  0  0
  1 13  1  0
  2  1  2  0
  3  2  1  0
  4  3  2  0
  4  5  1  0
  5  6  2  0
  6  1  1  0
  7  5  1  0
  7  8  1  0
  9  8  1  0
  9 10  1  0
 11 10  1  0
 12  7  1  0
 12 11  1  0
 13 14  1  0
 14 15  2  0
 14 20  1  0
 16 17  2  0
 17 18  1  0
 19 18  2  0
 20 19  1  0
 21 20  2  0
 21 16  1  0
  2 22  1  0
  3 23  1  0
  8 24  1  0
  8 25  1  0
  9 26  1  0
  9 27  1  0
 10 28  1  0
 11 29  1  0
 11 30  1  0
 12 31  1  0
 12 32  1  0
 16 33  1  0
 17 34  1  0
 18 35  1  0
M  ISO  8  22  14  23  14  24  13  25  13  26  13  27  13  28   5  29  13
M  ISO  6  30  13  31  13  32  13  33  14  34  14  35  14
M  END
>  <minimizedAffinity>  (1) 
-5.04595327

>  <minimizedRMSD>  (1) 
0.676072657

$$$$
