
     RDKit          3D

 34 37  0  0  0  0  0  0  0  0999 V2000
   45.1950   34.4220   43.3820 C   0  0  0  0  0  0  0  0  0  0  0  0
   45.2290   35.7130   42.9160 C   0  0  0  0  0  0  0  0  0  0  0  0
   44.3510   36.0450   41.9050 C   0  0  0  0  0  0  0  0  0  0  0  0
   43.5000   35.1510   41.3960 N   0  0  0  0  0  0  0  0  0  0  0  0
   43.4780   33.8680   41.8710 C   0  0  0  0  0  0  0  0  0  0  0  0
   44.3330   33.5060   42.8730 N   0  0  0  0  0  0  0  0  0  0  0  0
   42.5490   32.9590   41.2890 N   0  0  0  0  0  0  0  0  0  0  0  0
   42.2660   31.7410   41.7820 C   0  0  0  0  0  0  0  0  0  0  0  0
   41.3430   31.1390   40.9900 N   0  0  0  0  0  0  0  0  0  0  0  0
   41.0280   31.9720   39.9810 C   0  0  0  0  0  0  0  0  0  0  0  0
   40.1990   32.0090   38.8600 C   0  0  0  0  0  0  0  0  0  0  0  0
   40.1470   33.0660   38.0410 N   0  0  0  0  0  0  0  0  0  0  0  0
   40.9070   34.1520   38.2730 C   0  0  0  0  0  0  0  0  0  0  0  0
   41.7220   34.1510   39.3500 N   0  0  0  0  0  0  0  0  0  0  0  0
   41.7970   33.1120   40.1870 C   0  0  0  0  0  0  0  0  0  0  0  0
   39.4100   30.8410   38.6480 N   0  0  0  0  0  0  0  0  0  0  0  0
   45.9580   33.8110   44.3890 O   0  0  0  0  0  0  0  0  0  0  0  0
   45.4930   33.9300   45.7180 C   0  0  0  0  0  0  0  0  0  0  0  0
   44.7140   34.8840   45.9330 O   0  0  0  0  0  0  0  0  0  0  0  0
   47.4610   31.3960   47.4750 C   0  0  0  0  0  0  0  0  0  0  0  0
   46.7260   31.1840   48.6320 C   0  0  0  0  0  0  0  0  0  0  0  0
   45.5540   31.9100   48.8140 C   0  0  0  0  0  0  0  0  0  0  0  0
   45.1600   32.8120   47.8440 N   0  0  0  0  0  0  0  0  0  0  0  0
   45.9270   32.9710   46.7320 C   0  0  0  0  0  0  0  0  0  0  0  0
   47.0540   32.2850   46.5390 N   0  0  0  0  0  0  0  0  0  0  0  0
   45.9284   36.4531   43.3321 H   0  0  0  0  0  0  0  0  0  0  0  0
   44.3521   37.0711   41.5087 H   0  0  0  0  0  0  0  0  0  0  0  0
   42.7126   31.3011   42.6859 H   0  0  0  0  0  0  0  0  0  0  0  0
   40.8654   35.0214   37.6003 H   0  0  0  0  0  0  0  0  0  0  0  0
   38.7717   30.7901   37.8412 H   0  0  0  0  0  0  0  0  0  0  0  0
   39.4782   30.0478   39.3016 H   0  0  0  0  0  0  0  0  0  0  0  0
   48.3915   30.8315   47.3152 H   0  0  0  0  0  0  0  0  0  0  0  0
   47.0622   30.4588   49.3877 H   0  0  0  0  0  0  0  0  0  0  0  0
   44.9471   31.7678   49.7203 H   0  0  0  0  0  0  0  0  0  0  0  0
  1 17  1  0
  2  1  2  0
  3  2  1  0
  4  5  1  0
  4  3  2  0
  5  6  2  0
  6  1  1  0
  7  8  1  0
  7  5  1  0
  9  8  2  0
 10 15  2  0
 10  9  1  0
 11 10  1  0
 12 13  1  0
 12 11  2  0
 13 14  2  0
 14 15  1  0
 15  7  1  0
 16 11  1  0
 17 18  1  0
 18 19  2  0
 18 24  1  0
 20 21  2  0
 21 22  1  0
 23 22  2  0
 24 23  1  0
 25 24  2  0
 25 20  1  0
  2 26  1  0
  3 27  1  0
  8 28  1  0
 13 29  1  0
 16 30  1  0
 16 31  1  0
 20 32  1  0
 21 33  1  0
 22 34  1  0
M  ISO  7  26  14  27  14  28  14  29  14  32  14  33  14  34  14
M  END
>  <minimizedAffinity>  (1) 
-5.93494511

>  <minimizedRMSD>  (1) 
1.41899467

$$$$
