
     RDKit          3D

 34 36  0  0  0  0  0  0  0  0999 V2000
   45.3210   34.4980   43.6220 C   0  0  0  0  0  0  0  0  0  0  0  0
   45.3490   35.8480   43.3700 C   0  0  0  0  0  0  0  0  0  0  0  0
   44.5780   36.3420   42.3570 C   0  0  0  0  0  0  0  0  0  0  0  0
   43.8090   35.5220   41.6260 N   0  0  0  0  0  0  0  0  0  0  0  0
   43.7740   34.1850   41.8670 C   0  0  0  0  0  0  0  0  0  0  0  0
   44.5380   33.6620   42.8760 N   0  0  0  0  0  0  0  0  0  0  0  0
   42.9410   33.3190   41.0690 N   0  0  0  0  0  0  0  0  0  0  0  0
   42.2820   33.5690   39.9470 C   0  0  0  0  0  0  0  0  0  0  0  0
   41.5500   32.5710   39.3700 C   0  0  0  0  0  0  0  0  0  0  0  0
   40.8250   32.8860   38.1140 C   0  0  0  0  0  0  0  0  0  0  0  0
   41.4730   31.3040   39.9200 C   0  0  0  0  0  0  0  0  0  0  0  0
   40.7820   30.3990   39.3590 O   0  0  0  0  0  0  0  0  0  0  0  0
   42.1550   31.0920   41.0600 N   0  0  0  0  0  0  0  0  0  0  0  0
   42.8900   32.0820   41.6440 C   0  0  0  0  0  0  0  0  0  0  0  0
   43.4680   31.7100   42.7090 O   0  0  0  0  0  0  0  0  0  0  0  0
   46.0050   33.7430   44.5870 O   0  0  0  0  0  0  0  0  0  0  0  0
   45.5240   33.7890   45.9150 C   0  0  0  0  0  0  0  0  0  0  0  0
   44.6990   34.7000   46.1500 O   0  0  0  0  0  0  0  0  0  0  0  0
   47.5250   31.2200   47.5490 C   0  0  0  0  0  0  0  0  0  0  0  0
   46.8650   30.9960   48.7450 C   0  0  0  0  0  0  0  0  0  0  0  0
   45.7090   31.7420   48.9970 C   0  0  0  0  0  0  0  0  0  0  0  0
   45.2920   32.6590   48.0380 N   0  0  0  0  0  0  0  0  0  0  0  0
   45.9850   32.8250   46.8930 C   0  0  0  0  0  0  0  0  0  0  0  0
   47.0970   32.1140   46.6410 N   0  0  0  0  0  0  0  0  0  0  0  0
   45.9801   36.5180   43.9724 H   0  0  0  0  0  0  0  0  0  0  0  0
   44.5878   37.4202   42.1391 H   0  0  0  0  0  0  0  0  0  0  0  0
   42.3240   34.5671   39.4865 H   0  0  0  0  0  0  0  0  0  0  0  0
   39.8408   33.3136   38.3561 H   0  0  0  0  0  0  0  0  0  0  0  0
   41.4063   33.6127   37.5275 H   0  0  0  0  0  0  0  0  0  0  0  0
   40.6905   31.9652   37.5275 H   0  0  0  0  0  0  0  0  0  0  0  0
   42.1216   30.1621   41.5016 H   0  0  0  0  0  0  0  0  0  0  0  0
   48.4364   30.6432   47.3330 H   0  0  0  0  0  0  0  0  0  0  0  0
   47.2363   30.2578   49.4711 H   0  0  0  0  0  0  0  0  0  0  0  0
   45.1435   31.6068   49.9308 H   0  0  0  0  0  0  0  0  0  0  0  0
  1 16  1  0
  2  1  2  0
  3  2  1  0
  4  5  1  0
  4  3  2  0
  5  6  2  0
  6  1  1  0
  7 14  1  0
  7  5  1  0
  8  7  1  0
  9 11  1  0
  9  8  2  0
 10  9  1  0
 11 13  1  0
 12 11  2  0
 13 14  1  0
 14 15  2  0
 16 17  1  0
 17 18  2  0
 17 23  1  0
 19 20  2  0
 20 21  1  0
 22 21  2  0
 23 22  1  0
 24 23  2  0
 24 19  1  0
  2 25  1  0
  3 26  1  0
  8 27  1  0
 10 28  1  0
 10 29  1  0
 10 30  1  0
 13 31  1  0
 19 32  1  0
 20 33  1  0
 21 34  1  0
M  ISO  8  25  14  26  14  27  14  28   8  29   8  30   8  31   9  32  14
M  ISO  2  33  14  34  14
M  END
>  <minimizedAffinity>  (1) 
-5.54769802

>  <minimizedRMSD>  (1) 
1.59558487

$$$$
