
     RDKit          3D

 28 30  0  0  0  0  0  0  0  0999 V2000
   45.0960   34.4630   43.3150 C   0  0  0  0  0  0  0  0  0  0  0  0
   44.8280   35.6750   42.7250 C   0  0  0  0  0  0  0  0  0  0  0  0
   43.9310   35.7150   41.6960 C   0  0  0  0  0  0  0  0  0  0  0  0
   43.3250   34.5990   41.2700 N   0  0  0  0  0  0  0  0  0  0  0  0
   43.5890   33.3880   41.8540 C   0  0  0  0  0  0  0  0  0  0  0  0
   44.4910   33.3370   42.8920 N   0  0  0  0  0  0  0  0  0  0  0  0
   42.9370   32.2040   41.3910 N   0  0  0  0  0  0  0  0  0  0  0  0
   42.5060   31.8210   40.1810 N   0  0  0  0  0  0  0  0  0  0  0  0
   41.9510   30.5990   40.2760 C   0  0  0  0  0  0  0  0  0  0  0  0
   42.0430   30.2070   41.6110 C   0  0  0  0  0  0  0  0  0  0  0  0
   42.6650   31.2310   42.2980 C   0  0  0  0  0  0  0  0  0  0  0  0
   45.9690   34.1640   44.3750 O   0  0  0  0  0  0  0  0  0  0  0  0
   45.4460   34.1270   45.6760 C   0  0  0  0  0  0  0  0  0  0  0  0
   44.6140   35.0250   45.9210 O   0  0  0  0  0  0  0  0  0  0  0  0
   47.3620   31.4440   47.2300 C   0  0  0  0  0  0  0  0  0  0  0  0
   46.6660   31.1880   48.4000 C   0  0  0  0  0  0  0  0  0  0  0  0
   45.5340   31.9370   48.6600 C   0  0  0  0  0  0  0  0  0  0  0  0
   45.1410   32.9100   47.7460 N   0  0  0  0  0  0  0  0  0  0  0  0
   45.8680   33.1100   46.6180 C   0  0  0  0  0  0  0  0  0  0  0  0
   46.9750   32.3880   46.3500 N   0  0  0  0  0  0  0  0  0  0  0  0
   45.3249   36.5923   43.0738 H   0  0  0  0  0  0  0  0  0  0  0  0
   43.7033   36.6757   41.2110 H   0  0  0  0  0  0  0  0  0  0  0  0
   41.5075   30.0178   39.4541 H   0  0  0  0  0  0  0  0  0  0  0  0
   41.6863   29.2580   42.0379 H   0  0  0  0  0  0  0  0  0  0  0  0
   42.8957   31.2539   43.3733 H   0  0  0  0  0  0  0  0  0  0  0  0
   48.2645   30.8545   47.0112 H   0  0  0  0  0  0  0  0  0  0  0  0
   47.0044   30.4113   49.1016 H   0  0  0  0  0  0  0  0  0  0  0  0
   44.9514   31.7663   49.5773 H   0  0  0  0  0  0  0  0  0  0  0  0
  1 12  1  0
  2  1  2  0
  3  2  1  0
  4  3  2  0
  4  5  1  0
  5  6  2  0
  6  1  1  0
  7  5  1  0
  7 11  1  0
  8  9  2  0
  8  7  1  0
  9 10  1  0
 10 11  2  0
 12 13  1  0
 13 14  2  0
 13 19  1  0
 15 16  2  0
 16 17  1  0
 18 17  2  0
 19 18  1  0
 20 19  2  0
 20 15  1  0
  2 21  1  0
  3 22  1  0
  9 23  1  0
 10 24  1  0
 11 25  1  0
 15 26  1  0
 16 27  1  0
 17 28  1  0
M  ISO  8  21  14  22  14  23  14  24  14  25  14  26  14  27  14  28  14
M  END
>  <minimizedAffinity>  (1) 
-4.79954767

>  <minimizedRMSD>  (1) 
0.396875232

$$$$
