
     RDKit          3D

 31 33  0  0  0  0  0  0  0  0999 V2000
   45.2050   34.4510   43.3860 C   0  0  0  0  0  0  0  0  0  0  0  0
   45.1560   35.7150   42.8550 C   0  0  0  0  0  0  0  0  0  0  0  0
   44.2650   35.9470   41.8320 C   0  0  0  0  0  0  0  0  0  0  0  0
   43.4760   34.9630   41.3780 N   0  0  0  0  0  0  0  0  0  0  0  0
   43.5290   33.7210   41.9060 C   0  0  0  0  0  0  0  0  0  0  0  0
   44.4050   33.4730   42.9190 N   0  0  0  0  0  0  0  0  0  0  0  0
   42.6550   32.6520   41.3950 C   0  0  0  0  0  0  0  0  0  0  0  0
   42.6480   31.4440   42.0270 C   0  0  0  0  0  0  0  0  0  0  0  0
   41.8520   30.4010   41.5990 C   0  0  0  0  0  0  0  0  0  0  0  0
   41.0660   30.6390   40.5040 C   0  0  0  0  0  0  0  0  0  0  0  0
   41.0850   31.8760   39.8730 C   0  0  0  0  0  0  0  0  0  0  0  0
   41.8900   32.9260   40.3080 C   0  0  0  0  0  0  0  0  0  0  0  0
   46.0210   33.9610   44.4260 O   0  0  0  0  0  0  0  0  0  0  0  0
   45.4890   34.0040   45.7350 C   0  0  0  0  0  0  0  0  0  0  0  0
   44.6730   34.9240   45.9500 O   0  0  0  0  0  0  0  0  0  0  0  0
   47.4320   31.4250   47.4560 C   0  0  0  0  0  0  0  0  0  0  0  0
   46.6810   31.1720   48.5930 C   0  0  0  0  0  0  0  0  0  0  0  0
   45.5070   31.8820   48.7770 C   0  0  0  0  0  0  0  0  0  0  0  0
   45.1200   32.8190   47.8230 N   0  0  0  0  0  0  0  0  0  0  0  0
   45.8920   33.0230   46.7370 C   0  0  0  0  0  0  0  0  0  0  0  0
   47.0350   32.3410   46.5440 N   0  0  0  0  0  0  0  0  0  0  0  0
   45.8071   36.5164   43.2342 H   0  0  0  0  0  0  0  0  0  0  0  0
   44.1997   36.9490   41.3829 H   0  0  0  0  0  0  0  0  0  0  0  0
   43.2958   31.2963   42.9037 H   0  0  0  0  0  0  0  0  0  0  0  0
   41.8494   29.4279   42.1118 H   0  0  0  0  0  0  0  0  0  0  0  0
   40.4124   29.8421   40.1197 H   0  0  0  0  0  0  0  0  0  0  0  0
   40.4396   32.0325   38.9961 H   0  0  0  0  0  0  0  0  0  0  0  0
   41.9047   33.9054   39.8073 H   0  0  0  0  0  0  0  0  0  0  0  0
   48.3679   30.8706   47.2925 H   0  0  0  0  0  0  0  0  0  0  0  0
   47.0097   30.4255   49.3310 H   0  0  0  0  0  0  0  0  0  0  0  0
   44.8861   31.7075   49.6681 H   0  0  0  0  0  0  0  0  0  0  0  0
  1 13  1  0
  2  1  2  0
  3  2  1  0
  4  3  2  0
  4  5  1  0
  5  6  2  0
  6  1  1  0
  7  5  1  0
  7  8  2  0
  9  8  1  0
 10  9  2  0
 11 12  2  0
 11 10  1  0
 12  7  1  0
 13 14  1  0
 14 15  2  0
 14 20  1  0
 16 17  2  0
 17 18  1  0
 19 18  2  0
 20 19  1  0
 21 20  2  0
 21 16  1  0
  2 22  1  0
  3 23  1  0
  8 24  1  0
  9 25  1  0
 10 26  1  0
 11 27  1  0
 12 28  1  0
 16 29  1  0
 17 30  1  0
 18 31  1  0
M  ISO  8  22  14  23  14  24  14  25  14  26  14  27  14  28  14  29  14
M  ISO  2  30  14  31  14
M  END
>  <minimizedAffinity>  (1) 
-4.79247999

>  <minimizedRMSD>  (1) 
0.911345959

$$$$
