
     RDKit          3D

 28 30  0  0  0  0  0  0  0  0999 V2000
   45.2840   34.1760   43.2610 C   0  0  0  0  0  0  0  0  0  0  0  0
   45.1420   35.2570   42.4220 C   0  0  0  0  0  0  0  0  0  0  0  0
   44.2400   35.1730   41.3990 C   0  0  0  0  0  0  0  0  0  0  0  0
   43.5050   34.0510   41.2190 N   0  0  0  0  0  0  0  0  0  0  0  0
   43.6560   33.0000   42.0520 C   0  0  0  0  0  0  0  0  0  0  0  0
   44.5450   33.0480   43.0810 N   0  0  0  0  0  0  0  0  0  0  0  0
   42.8490   31.8040   41.8340 C   0  0  0  0  0  0  0  0  0  0  0  0
   42.5670   31.2080   40.6220 C   0  0  0  0  0  0  0  0  0  0  0  0
   41.7870   30.1320   40.9140 N   0  0  0  0  0  0  0  0  0  0  0  0
   41.6030   30.0780   42.2650 C   0  0  0  0  0  0  0  0  0  0  0  0
   42.2670   31.1190   42.7980 N   0  0  0  0  0  0  0  0  0  0  0  0
   46.1390   34.0340   44.3700 O   0  0  0  0  0  0  0  0  0  0  0  0
   45.5520   34.0410   45.6520 C   0  0  0  0  0  0  0  0  0  0  0  0
   44.7170   34.9410   45.8320 O   0  0  0  0  0  0  0  0  0  0  0  0
   47.3870   31.4030   47.3660 C   0  0  0  0  0  0  0  0  0  0  0  0
   46.6390   31.1860   48.5210 C   0  0  0  0  0  0  0  0  0  0  0  0
   45.5030   31.9480   48.7060 C   0  0  0  0  0  0  0  0  0  0  0  0
   45.1640   32.8850   47.7450 N   0  0  0  0  0  0  0  0  0  0  0  0
   45.9290   33.0520   46.6440 C   0  0  0  0  0  0  0  0  0  0  0  0
   47.0420   32.3170   46.4450 N   0  0  0  0  0  0  0  0  0  0  0  0
   45.7406   36.1677   42.5712 H   0  0  0  0  0  0  0  0  0  0  0  0
   44.1101   36.0251   40.7156 H   0  0  0  0  0  0  0  0  0  0  0  0
   42.9029   31.5347   39.6268 H   0  0  0  0  0  0  0  0  0  0  0  0
   41.0206   29.3242   42.8151 H   0  0  0  0  0  0  0  0  0  0  0  0
   42.3134   31.3454   43.8017 H   0  0  0  0  0  0  0  0  0  0  0  0
   48.2943   30.8030   47.2024 H   0  0  0  0  0  0  0  0  0  0  0  0
   46.9437   30.4319   49.2616 H   0  0  0  0  0  0  0  0  0  0  0  0
   44.8782   31.8131   49.6012 H   0  0  0  0  0  0  0  0  0  0  0  0
  1 12  1  0
  2  1  2  0
  3  2  1  0
  4  3  2  0
  4  5  1  0
  5  6  2  0
  6  1  1  0
  7  5  1  0
  7 11  1  0
  8  9  1  0
  8  7  2  0
  9 10  2  0
 10 11  1  0
 12 13  1  0
 13 14  2  0
 13 19  1  0
 15 16  2  0
 16 17  1  0
 18 17  2  0
 19 18  1  0
 20 19  2  0
 20 15  1  0
  2 21  1  0
  3 22  1  0
  8 23  1  0
 10 24  1  0
 11 25  1  0
 15 26  1  0
 16 27  1  0
 17 28  1  0
M  ISO  8  21  14  22  14  23  14  24  14  25   9  26  14  27  14  28  14
M  END
>  <minimizedAffinity>  (1) 
-4.82530928

>  <minimizedRMSD>  (1) 
0.412566394

$$$$
