
     RDKit          3D

 33 35  0  0  0  0  0  0  0  0999 V2000
   45.3320   34.0800   43.2350 C   0  0  0  0  0  0  0  0  0  0  0  0
   45.2880   35.1290   42.3390 C   0  0  0  0  0  0  0  0  0  0  0  0
   44.3610   35.0760   41.3380 C   0  0  0  0  0  0  0  0  0  0  0  0
   43.5100   34.0270   41.2280 N   0  0  0  0  0  0  0  0  0  0  0  0
   43.5730   33.0140   42.1190 C   0  0  0  0  0  0  0  0  0  0  0  0
   44.4780   33.0240   43.1290 N   0  0  0  0  0  0  0  0  0  0  0  0
   42.6510   31.9440   41.9450 N   0  0  0  0  0  0  0  0  0  0  0  0
   41.4870   31.9880   41.1170 C   0  0  0  0  0  0  0  0  0  0  0  0
   40.4220   31.4520   42.0560 C   0  0  0  0  0  0  0  0  0  0  0  0
   41.1600   30.3000   42.7210 C   0  0  0  0  0  0  0  0  0  0  0  0
   42.6450   30.6140   42.5230 C   0  0  0  0  0  0  0  0  0  0  0  0
   46.1740   33.8770   44.3480 O   0  0  0  0  0  0  0  0  0  0  0  0
   45.6010   33.9620   45.6240 C   0  0  0  0  0  0  0  0  0  0  0  0
   44.7900   34.8980   45.7820 O   0  0  0  0  0  0  0  0  0  0  0  0
   47.4230   31.3660   47.4360 C   0  0  0  0  0  0  0  0  0  0  0  0
   46.6520   31.1880   48.5910 C   0  0  0  0  0  0  0  0  0  0  0  0
   45.5120   31.9610   48.7390 C   0  0  0  0  0  0  0  0  0  0  0  0
   45.1770   32.8740   47.7490 N   0  0  0  0  0  0  0  0  0  0  0  0
   45.9640   33.0000   46.6560 C   0  0  0  0  0  0  0  0  0  0  0  0
   47.0640   32.2670   46.4940 N   0  0  0  0  0  0  0  0  0  0  0  0
   45.9781   35.9809   42.4286 H   0  0  0  0  0  0  0  0  0  0  0  0
   44.3040   35.8979   40.6091 H   0  0  0  0  0  0  0  0  0  0  0  0
   41.2601   33.0161   40.7982 H   0  0  0  0  0  0  0  0  0  0  0  0
   41.5835   31.4200   40.1800 H   0  0  0  0  0  0  0  0  0  0  0  0
   40.1149   32.2107   42.7909 H   0  0  0  0  0  0  0  0  0  0  0  0
   39.4877   31.1581   41.5552 H   0  0  0  0  0  0  0  0  0  0  0  0
   40.9147   30.2507   43.7922 H   0  0  0  0  0  0  0  0  0  0  0  0
   40.8822   29.3272   42.2892 H   0  0  0  0  0  0  0  0  0  0  0  0
   43.1097   29.8887   41.8388 H   0  0  0  0  0  0  0  0  0  0  0  0
   43.2171   30.5586   43.4609 H   0  0  0  0  0  0  0  0  0  0  0  0
   48.3330   30.7648   47.2930 H   0  0  0  0  0  0  0  0  0  0  0  0
   46.9430   30.4557   49.3585 H   0  0  0  0  0  0  0  0  0  0  0  0
   44.8789   31.8523   49.6319 H   0  0  0  0  0  0  0  0  0  0  0  0
  1 12  1  0
  2  1  2  0
  3  2  1  0
  4  3  2  0
  4  5  1  0
  5  6  2  0
  6  1  1  0
  7  5  1  0
  7 11  1  0
  8  7  1  0
  8  9  1  0
  9 10  1  0
 11 10  1  0
 12 13  1  0
 13 14  2  0
 13 19  1  0
 15 16  2  0
 16 17  1  0
 18 17  2  0
 19 18  1  0
 20 19  2  0
 20 15  1  0
  2 21  1  0
  3 22  1  0
  8 23  1  0
  8 24  1  0
  9 25  1  0
  9 26  1  0
 10 27  1  0
 10 28  1  0
 11 29  1  0
 11 30  1  0
 15 31  1  0
 16 32  1  0
 17 33  1  0
M  ISO  8  21  14  22  14  23  13  24  13  25  13  26  13  27  13  28  13
M  ISO  5  29  13  30  13  31  14  32  14  33  14
M  END
>  <minimizedAffinity>  (1) 
-4.97724009

>  <minimizedRMSD>  (1) 
0.613394201

$$$$
