
     RDKit          3D

 26 27  0  0  0  0  0  0  0  0999 V2000
   46.4300   34.5150   41.6840 C   0  0  0  0  0  0  0  0  0  0  0  0
   45.9060   34.6190   43.0530 C   0  0  0  0  0  0  0  0  0  0  0  0
   45.1460   35.7880   43.2420 C   0  0  0  0  0  0  0  0  0  0  0  0
   44.5710   36.0300   44.5090 C   0  0  0  0  0  0  0  0  0  0  0  0
   44.7990   35.0980   45.4750 N   0  0  0  0  0  0  0  0  0  0  0  0
   45.5340   33.9850   45.2620 C   0  0  0  0  0  0  0  0  0  0  0  0
   46.0790   33.7610   44.0490 N   0  0  0  0  0  0  0  0  0  0  0  0
   47.8570   35.0170   41.5970 C   0  0  0  0  0  0  0  0  0  0  0  0
   48.8390   33.9990   41.4290 N   0  0  0  0  0  0  0  0  0  0  0  0
   48.7630   32.8840   40.6510 C   0  0  0  0  0  0  0  0  0  0  0  0
   49.8130   31.9830   40.5960 C   0  0  0  0  0  0  0  0  0  0  0  0
   50.9480   32.2470   41.3580 C   0  0  0  0  0  0  0  0  0  0  0  0
   51.8560   31.3800   41.2510 O   0  0  0  0  0  0  0  0  0  0  0  0
   51.0270   33.3460   42.1260 N   0  0  0  0  0  0  0  0  0  0  0  0
   49.9740   34.1850   42.1390 C   0  0  0  0  0  0  0  0  0  0  0  0
   50.1510   35.1950   42.9000 O   0  0  0  0  0  0  0  0  0  0  0  0
   46.4018   33.4613   41.3694 H   0  0  0  0  0  0  0  0  0  0  0  0
   45.8044   35.1364   41.0264 H   0  0  0  0  0  0  0  0  0  0  0  0
   45.0022   36.5012   42.4170 H   0  0  0  0  0  0  0  0  0  0  0  0
   43.9678   36.9285   44.7060 H   0  0  0  0  0  0  0  0  0  0  0  0
   45.6878   33.2623   46.0769 H   0  0  0  0  0  0  0  0  0  0  0  0
   47.9265   35.7041   40.7408 H   0  0  0  0  0  0  0  0  0  0  0  0
   48.0743   35.5010   42.5606 H   0  0  0  0  0  0  0  0  0  0  0  0
   47.8554   32.6966   40.0584 H   0  0  0  0  0  0  0  0  0  0  0  0
   49.7520   31.0826   39.9670 H   0  0  0  0  0  0  0  0  0  0  0  0
   51.8678   33.5411   42.6881 H   0  0  0  0  0  0  0  0  0  0  0  0
  1  2  1  0
  2  3  2  0
  2  7  1  0
  3  4  1  0
  4  5  2  0
  6  5  1  0
  7  6  2  0
  8  1  1  0
  9  8  1  0
  9 15  1  0
 10  9  1  0
 11 10  2  0
 11 12  1  0
 12 14  1  0
 13 12  2  0
 14 15  1  0
 15 16  2  0
  1 17  1  0
  1 18  1  0
  3 19  1  0
  4 20  1  0
  6 21  1  0
  8 22  1  0
  8 23  1  0
 10 24  1  0
 11 25  1  0
 14 26  1  0
M  ISO  8  17   8  18   8  19  14  20  14  21  14  22   8  23   8  24  14
M  ISO  2  25  14  26   9
M  END
>  <minimizedAffinity>  (1) 
-4.7709918

>  <minimizedRMSD>  (1) 
4.56790924

$$$$
