
     RDKit          3D

 31 33  0  0  0  0  0  0  0  0999 V2000
   45.2200   34.4610   43.4230 C   0  0  0  0  0  0  0  0  0  0  0  0
   45.1090   35.7170   42.8530 C   0  0  0  0  0  0  0  0  0  0  0  0
   44.2220   35.8690   41.8220 C   0  0  0  0  0  0  0  0  0  0  0  0
   43.4820   34.8310   41.3770 N   0  0  0  0  0  0  0  0  0  0  0  0
   43.6010   33.6110   41.9420 C   0  0  0  0  0  0  0  0  0  0  0  0
   44.4730   33.4150   42.9740 N   0  0  0  0  0  0  0  0  0  0  0  0
   42.7890   32.4980   41.4450 C   0  0  0  0  0  0  0  0  0  0  0  0
   42.6740   31.3450   42.1700 C   0  0  0  0  0  0  0  0  0  0  0  0
   41.8960   30.2990   41.6770 C   0  0  0  0  0  0  0  0  0  0  0  0
   41.2820   30.5220   40.4500 C   0  0  0  0  0  0  0  0  0  0  0  0
   41.3770   31.6840   39.6850 C   0  0  0  0  0  0  0  0  0  0  0  0
   42.1610   32.6530   40.2490 C   0  0  0  0  0  0  0  0  0  0  0  0
   46.0470   34.0480   44.4800 O   0  0  0  0  0  0  0  0  0  0  0  0
   45.4860   34.0310   45.7740 C   0  0  0  0  0  0  0  0  0  0  0  0
   44.6380   34.9200   45.9900 O   0  0  0  0  0  0  0  0  0  0  0  0
   47.4150   31.4220   47.4350 C   0  0  0  0  0  0  0  0  0  0  0  0
   46.6860   31.1440   48.5810 C   0  0  0  0  0  0  0  0  0  0  0  0
   45.5190   31.8690   48.7730 C   0  0  0  0  0  0  0  0  0  0  0  0
   45.1270   32.8200   47.8450 N   0  0  0  0  0  0  0  0  0  0  0  0
   45.8910   33.0370   46.7480 C   0  0  0  0  0  0  0  0  0  0  0  0
   47.0170   32.3520   46.5440 N   0  0  0  0  0  0  0  0  0  0  0  0
   45.7119   36.5627   43.2155 H   0  0  0  0  0  0  0  0  0  0  0  0
   44.1099   36.8549   41.3471 H   0  0  0  0  0  0  0  0  0  0  0  0
   43.1916   31.2434   43.1353 H   0  0  0  0  0  0  0  0  0  0  0  0
   41.7751   29.3535   42.2260 H   0  0  0  0  0  0  0  0  0  0  0  0
   40.6643   29.7068   40.0452 H   0  0  0  0  0  0  0  0  0  0  0  0
   40.8687   31.8099   38.7177 H   0  0  0  0  0  0  0  0  0  0  0  0
   42.2894   33.6028   39.7092 H   0  0  0  0  0  0  0  0  0  0  0  0
   48.3460   30.8671   47.2472 H   0  0  0  0  0  0  0  0  0  0  0  0
   47.0174   30.3842   49.3041 H   0  0  0  0  0  0  0  0  0  0  0  0
   44.9024   31.6880   49.6657 H   0  0  0  0  0  0  0  0  0  0  0  0
  1 13  1  0
  2  1  2  0
  3  2  1  0
  4  3  2  0
  4  5  1  0
  5  6  2  0
  6  1  1  0
  7  5  1  0
  7  8  2  0
  9  8  1  0
 10  9  2  0
 11 12  2  0
 11 10  1  0
 12  7  1  0
 13 14  1  0
 14 15  2  0
 14 20  1  0
 16 17  2  0
 17 18  1  0
 19 18  2  0
 20 19  1  0
 21 20  2  0
 21 16  1  0
  2 22  1  0
  3 23  1  0
  8 24  1  0
  9 25  1  0
 10 26  1  0
 11 27  1  0
 12 28  1  0
 16 29  1  0
 17 30  1  0
 18 31  1  0
M  ISO  8  22  14  23  14  24  14  25  14  26  14  27  14  28  14  29  14
M  ISO  2  30  14  31  14
M  END
>  <minimizedAffinity>  (1) 
-4.77831984

>  <minimizedRMSD>  (1) 
0.699919224

$$$$
