
     RDKit          3D

 28 30  0  0  0  0  0  0  0  0999 V2000
   45.1580   34.3980   43.3600 C   0  0  0  0  0  0  0  0  0  0  0  0
   44.9710   35.6370   42.7690 C   0  0  0  0  0  0  0  0  0  0  0  0
   44.0640   35.7140   41.7500 C   0  0  0  0  0  0  0  0  0  0  0  0
   43.3890   34.6330   41.3440 N   0  0  0  0  0  0  0  0  0  0  0  0
   43.5790   33.4260   41.9270 C   0  0  0  0  0  0  0  0  0  0  0  0
   44.4810   33.3040   42.9560 N   0  0  0  0  0  0  0  0  0  0  0  0
   42.8140   32.2730   41.4460 C   0  0  0  0  0  0  0  0  0  0  0  0
   42.6510   31.1530   42.2620 C   0  0  0  0  0  0  0  0  0  0  0  0
   41.8880   30.2710   41.5010 C   0  0  0  0  0  0  0  0  0  0  0  0
   41.6180   30.8330   40.3060 N   0  0  0  0  0  0  0  0  0  0  0  0
   42.1800   32.0420   40.2800 N   0  0  0  0  0  0  0  0  0  0  0  0
   46.0190   34.0420   44.4170 O   0  0  0  0  0  0  0  0  0  0  0  0
   45.4750   34.0520   45.7220 C   0  0  0  0  0  0  0  0  0  0  0  0
   44.6380   34.9530   45.9570 O   0  0  0  0  0  0  0  0  0  0  0  0
   47.4130   31.4370   47.3700 C   0  0  0  0  0  0  0  0  0  0  0  0
   46.6810   31.1770   48.5250 C   0  0  0  0  0  0  0  0  0  0  0  0
   45.5140   31.9000   48.7430 C   0  0  0  0  0  0  0  0  0  0  0  0
   45.1290   32.8490   47.8030 N   0  0  0  0  0  0  0  0  0  0  0  0
   45.8910   33.0550   46.6950 C   0  0  0  0  0  0  0  0  0  0  0  0
   47.0100   32.3700   46.4740 N   0  0  0  0  0  0  0  0  0  0  0  0
   45.5298   36.5224   43.1063 H   0  0  0  0  0  0  0  0  0  0  0  0
   43.8861   36.6804   41.2557 H   0  0  0  0  0  0  0  0  0  0  0  0
   43.0389   31.0006   43.2800 H   0  0  0  0  0  0  0  0  0  0  0  0
   41.5577   29.2728   41.8242 H   0  0  0  0  0  0  0  0  0  0  0  0
   41.0725   30.4034   39.5453 H   0  0  0  0  0  0  0  0  0  0  0  0
   48.3383   30.8730   47.1807 H   0  0  0  0  0  0  0  0  0  0  0  0
   47.0176   30.4185   49.2471 H   0  0  0  0  0  0  0  0  0  0  0  0
   44.9062   31.7244   49.6429 H   0  0  0  0  0  0  0  0  0  0  0  0
  1 12  1  0
  2  1  2  0
  3  2  1  0
  4  3  2  0
  4  5  1  0
  5  6  2  0
  6  1  1  0
  7  5  1  0
  7  8  1  0
  9  8  2  0
 10  9  1  0
 11 10  1  0
 11  7  2  0
 12 13  1  0
 13 14  2  0
 13 19  1  0
 15 16  2  0
 16 17  1  0
 18 17  2  0
 19 18  1  0
 20 19  2  0
 20 15  1  0
  2 21  1  0
  3 22  1  0
  8 23  1  0
  9 24  1  0
 10 25  1  0
 15 26  1  0
 16 27  1  0
 17 28  1  0
M  ISO  8  21  14  22  14  23  14  24  14  25   9  26  14  27  14  28  14
M  END
>  <minimizedAffinity>  (1) 
-4.61097336

>  <minimizedRMSD>  (1) 
0.44877553

$$$$
