
     RDKit          3D

 26 28  0  0  0  0  0  0  0  0999 V2000
   45.1810   34.3500   43.3690 C   0  0  0  0  0  0  0  0  0  0  0  0
   44.9550   35.5000   42.6610 C   0  0  0  0  0  0  0  0  0  0  0  0
   44.0530   35.4840   41.6410 C   0  0  0  0  0  0  0  0  0  0  0  0
   43.3980   34.3590   41.3390 N   0  0  0  0  0  0  0  0  0  0  0  0
   43.6100   33.2160   42.0290 C   0  0  0  0  0  0  0  0  0  0  0  0
   44.5170   33.2070   43.0640 N   0  0  0  0  0  0  0  0  0  0  0  0
   42.8840   31.9700   41.6950 C   0  0  0  0  0  0  0  0  0  0  0  0
   41.5460   32.0650   41.6460 N   0  0  0  0  0  0  0  0  0  0  0  0
   41.0300   30.9160   41.3450 O   0  0  0  0  0  0  0  0  0  0  0  0
   41.9990   30.0500   41.1910 C   0  0  0  0  0  0  0  0  0  0  0  0
   43.1710   30.6860   41.4050 N   0  0  0  0  0  0  0  0  0  0  0  0
   46.0510   34.1170   44.4490 O   0  0  0  0  0  0  0  0  0  0  0  0
   45.4880   34.0770   45.7340 C   0  0  0  0  0  0  0  0  0  0  0  0
   44.6330   34.9650   45.9680 O   0  0  0  0  0  0  0  0  0  0  0  0
   47.4000   31.4430   47.3750 C   0  0  0  0  0  0  0  0  0  0  0  0
   46.6610   31.1670   48.5140 C   0  0  0  0  0  0  0  0  0  0  0  0
   45.5010   31.8860   48.7240 C   0  0  0  0  0  0  0  0  0  0  0  0
   45.1140   32.8510   47.8000 N   0  0  0  0  0  0  0  0  0  0  0  0
   45.8800   33.0690   46.7110 C   0  0  0  0  0  0  0  0  0  0  0  0
   47.0060   32.3840   46.4910 N   0  0  0  0  0  0  0  0  0  0  0  0
   45.4950   36.4246   42.9129 H   0  0  0  0  0  0  0  0  0  0  0  0
   43.8628   36.4006   41.0634 H   0  0  0  0  0  0  0  0  0  0  0  0
   41.8795   28.9876   40.9320 H   0  0  0  0  0  0  0  0  0  0  0  0
   48.3280   30.8831   47.1870 H   0  0  0  0  0  0  0  0  0  0  0  0
   46.9885   30.3983   49.2294 H   0  0  0  0  0  0  0  0  0  0  0  0
   44.8867   31.6968   49.6166 H   0  0  0  0  0  0  0  0  0  0  0  0
  1 12  1  0
  2  1  2  0
  3  2  1  0
  4  3  2  0
  4  5  1  0
  5  6  2  0
  6  1  1  0
  7  5  1  0
  8  7  2  0
  9  8  1  0
 10  9  1  0
 10 11  2  0
 11  7  1  0
 12 13  1  0
 13 14  2  0
 13 19  1  0
 15 16  2  0
 16 17  1  0
 18 17  2  0
 19 18  1  0
 20 19  2  0
 20 15  1  0
  2 21  1  0
  3 22  1  0
 10 23  1  0
 15 24  1  0
 16 25  1  0
 17 26  1  0
M  ISO  6  21  14  22  14  23  14  24  14  25  14  26  14
M  END
>  <minimizedAffinity>  (1) 
-4.59648991

>  <minimizedRMSD>  (1) 
0.317880929

$$$$
