
     RDKit          3D

 24 25  0  0  0  0  0  0  0  0999 V2000
   45.4590   34.1030   45.7410 C   0  0  0  0  0  0  0  0  0  0  0  0
   44.5970   34.9790   45.9790 O   0  0  0  0  0  0  0  0  0  0  0  0
   47.3910   31.4600   47.3490 C   0  0  0  0  0  0  0  0  0  0  0  0
   46.6700   31.1730   48.4960 C   0  0  0  0  0  0  0  0  0  0  0  0
   45.5140   31.8970   48.7060 C   0  0  0  0  0  0  0  0  0  0  0  0
   45.1270   32.8540   47.7990 N   0  0  0  0  0  0  0  0  0  0  0  0
   45.8770   33.0900   46.6960 C   0  0  0  0  0  0  0  0  0  0  0  0
   46.9950   32.4030   46.4690 N   0  0  0  0  0  0  0  0  0  0  0  0
   46.0390   34.1400   44.4490 O   0  0  0  0  0  0  0  0  0  0  0  0
   45.1750   34.3400   43.3700 C   0  0  0  0  0  0  0  0  0  0  0  0
   44.8620   35.5020   42.6830 C   0  0  0  0  0  0  0  0  0  0  0  0
   43.9730   35.4150   41.6530 C   0  0  0  0  0  0  0  0  0  0  0  0
   43.4170   34.2500   41.3080 N   0  0  0  0  0  0  0  0  0  0  0  0
   43.7270   33.1130   41.9860 C   0  0  0  0  0  0  0  0  0  0  0  0
   44.6110   33.1420   43.0270 N   0  0  0  0  0  0  0  0  0  0  0  0
   43.0660   31.8560   41.5430 C   0  0  0  0  0  0  0  0  0  0  0  0
   48.3169   30.9008   47.1488 H   0  0  0  0  0  0  0  0  0  0  0  0
   47.0035   30.4030   49.2073 H   0  0  0  0  0  0  0  0  0  0  0  0
   44.9019   31.7078   49.6002 H   0  0  0  0  0  0  0  0  0  0  0  0
   45.3166   36.4646   42.9600 H   0  0  0  0  0  0  0  0  0  0  0  0
   43.7075   36.3241   41.0935 H   0  0  0  0  0  0  0  0  0  0  0  0
   42.7594   31.2729   42.4239 H   0  0  0  0  0  0  0  0  0  0  0  0
   42.1800   32.1009   40.9388 H   0  0  0  0  0  0  0  0  0  0  0  0
   43.7699   31.2648   40.9388 H   0  0  0  0  0  0  0  0  0  0  0  0
  1  2  2  0
  1  7  1  0
  3  4  2  0
  4  5  1  0
  6  5  2  0
  7  6  1  0
  8  7  2  0
  8  3  1  0
  9  1  1  0
 10  9  1  0
 11 10  2  0
 12 11  1  0
 13 12  2  0
 13 14  1  0
 14 15  2  0
 15 10  1  0
 16 14  1  0
  3 17  1  0
  4 18  1  0
  5 19  1  0
 11 20  1  0
 12 21  1  0
 16 22  1  0
 16 23  1  0
 16 24  1  0
M  ISO  8  17  14  18  14  19  14  20  14  21  14  22   8  23   8  24   8
M  END
>  <minimizedAffinity>  (1) 
-4.37311983

>  <minimizedRMSD>  (1) 
0.059285298

$$$$
