
     RDKit          3D

 22 23  0  0  0  0  0  0  0  0999 V2000
   45.4620   34.1080   45.7420 C   0  0  0  0  0  0  0  0  0  0  0  0
   44.5960   34.9770   45.9810 O   0  0  0  0  0  0  0  0  0  0  0  0
   47.3860   31.4560   47.3470 C   0  0  0  0  0  0  0  0  0  0  0  0
   46.6640   31.1680   48.4940 C   0  0  0  0  0  0  0  0  0  0  0  0
   45.5040   31.8930   48.7160 C   0  0  0  0  0  0  0  0  0  0  0  0
   45.1320   32.8490   47.8010 N   0  0  0  0  0  0  0  0  0  0  0  0
   45.8770   33.0850   46.7020 C   0  0  0  0  0  0  0  0  0  0  0  0
   46.9980   32.4050   46.4590 N   0  0  0  0  0  0  0  0  0  0  0  0
   46.0420   34.1590   44.4590 O   0  0  0  0  0  0  0  0  0  0  0  0
   45.1780   34.3150   43.3670 C   0  0  0  0  0  0  0  0  0  0  0  0
   44.8680   35.4590   42.6560 C   0  0  0  0  0  0  0  0  0  0  0  0
   43.9830   35.3380   41.6220 C   0  0  0  0  0  0  0  0  0  0  0  0
   43.4330   34.1600   41.3020 N   0  0  0  0  0  0  0  0  0  0  0  0
   43.7460   33.0360   42.0120 C   0  0  0  0  0  0  0  0  0  0  0  0
   44.6310   33.1240   43.0570 N   0  0  0  0  0  0  0  0  0  0  0  0
   42.9830   31.4770   41.5460 S   0  0  0  0  0  0  0  0  0  0  0  0
   48.3100   30.8930   47.1488 H   0  0  0  0  0  0  0  0  0  0  0  0
   46.9985   30.3942   49.2007 H   0  0  0  0  0  0  0  0  0  0  0  0
   44.8908   31.7065   49.6100 H   0  0  0  0  0  0  0  0  0  0  0  0
   45.3167   36.4299   42.9128 H   0  0  0  0  0  0  0  0  0  0  0  0
   43.7157   36.2309   41.0378 H   0  0  0  0  0  0  0  0  0  0  0  0
   42.6419   30.7800   42.6751 H   0  0  0  0  0  0  0  0  0  0  0  0
  1  2  2  0
  1  7  1  0
  3  4  2  0
  4  5  1  0
  6  5  2  0
  7  6  1  0
  8  7  2  0
  8  3  1  0
  9  1  1  0
 10  9  1  0
 11 10  2  0
 12 11  1  0
 13 12  2  0
 13 14  1  0
 14 15  2  0
 15 10  1  0
 16 14  1  0
  3 17  1  0
  4 18  1  0
  5 19  1  0
 11 20  1  0
 12 21  1  0
 16 22  1  0
M  ISO  6  17  14  18  14  19  14  20  14  21  14  22  11
M  END
>  <minimizedAffinity>  (1) 
-4.36073875

>  <minimizedRMSD>  (1) 
0.0421040282

$$$$
