
     RDKit          3D

 22 23  0  0  0  0  0  0  0  0999 V2000
   45.4520   34.1090   45.7510 C   0  0  0  0  0  0  0  0  0  0  0  0
   44.5960   34.9750   45.9850 O   0  0  0  0  0  0  0  0  0  0  0  0
   47.3950   31.4530   47.3440 C   0  0  0  0  0  0  0  0  0  0  0  0
   46.6640   31.1670   48.5020 C   0  0  0  0  0  0  0  0  0  0  0  0
   45.5120   31.8980   48.7090 C   0  0  0  0  0  0  0  0  0  0  0  0
   45.1220   32.8570   47.8070 N   0  0  0  0  0  0  0  0  0  0  0  0
   45.8810   33.0860   46.6980 C   0  0  0  0  0  0  0  0  0  0  0  0
   47.0010   32.3980   46.4640 N   0  0  0  0  0  0  0  0  0  0  0  0
   46.0290   34.1480   44.4600 O   0  0  0  0  0  0  0  0  0  0  0  0
   45.1750   34.3330   43.3700 C   0  0  0  0  0  0  0  0  0  0  0  0
   44.8640   35.4740   42.6720 C   0  0  0  0  0  0  0  0  0  0  0  0
   43.9870   35.3710   41.6330 C   0  0  0  0  0  0  0  0  0  0  0  0
   43.4390   34.1840   41.2960 N   0  0  0  0  0  0  0  0  0  0  0  0
   43.7490   33.0670   41.9880 C   0  0  0  0  0  0  0  0  0  0  0  0
   44.6290   33.1410   43.0380 N   0  0  0  0  0  0  0  0  0  0  0  0
   43.1520   31.8730   41.5930 O   0  0  0  0  0  0  0  0  0  0  0  0
   48.3191   30.8907   47.1444 H   0  0  0  0  0  0  0  0  0  0  0  0
   46.9921   30.3956   49.2142 H   0  0  0  0  0  0  0  0  0  0  0  0
   44.9009   31.7108   49.6043 H   0  0  0  0  0  0  0  0  0  0  0  0
   45.3093   36.4426   42.9431 H   0  0  0  0  0  0  0  0  0  0  0  0
   43.7212   36.2710   41.0592 H   0  0  0  0  0  0  0  0  0  0  0  0
   43.3557   31.0338   42.0772 H   0  0  0  0  0  0  0  0  0  0  0  0
  1  2  2  0
  1  7  1  0
  3  4  2  0
  4  5  1  0
  6  5  2  0
  7  6  1  0
  8  7  2  0
  8  3  1  0
  9  1  1  0
 10  9  1  0
 11 10  2  0
 12 11  1  0
 13 12  2  0
 13 14  1  0
 14 15  2  0
 15 10  1  0
 16 14  1  0
  3 17  1  0
  4 18  1  0
  5 19  1  0
 11 20  1  0
 12 21  1  0
 16 22  1  0
M  ISO  6  17  14  18  14  19  14  20  14  21  14  22   3
M  END
>  <minimizedAffinity>  (1) 
-4.34812689

>  <minimizedRMSD>  (1) 
0.0296542458

$$$$
