
     RDKit          3D

 28 30  0  0  0  0  0  0  0  0999 V2000
   45.9980   34.1190   44.4440 O   0  0  0  0  0  0  0  0  0  0  0  0
   45.1280   34.2940   43.3620 C   0  0  0  0  0  0  0  0  0  0  0  0
   44.8070   35.4630   42.6930 C   0  0  0  0  0  0  0  0  0  0  0  0
   43.9250   35.3780   41.6610 C   0  0  0  0  0  0  0  0  0  0  0  0
   43.3810   34.1970   41.2990 N   0  0  0  0  0  0  0  0  0  0  0  0
   43.7090   33.0620   41.9680 C   0  0  0  0  0  0  0  0  0  0  0  0
   44.5830   33.0920   43.0040 N   0  0  0  0  0  0  0  0  0  0  0  0
   43.1110   31.7340   41.5780 C   0  0  0  0  0  0  0  0  0  0  0  0
   41.9700   31.7010   40.6490 C   0  0  0  0  0  0  0  0  0  0  0  0
   41.7270   31.4590   42.1090 C   0  0  0  0  0  0  0  0  0  0  0  0
   45.4470   34.0950   45.7350 C   0  0  0  0  0  0  0  0  0  0  0  0
   44.6110   34.9770   45.9630 O   0  0  0  0  0  0  0  0  0  0  0  0
   47.3970   31.4600   47.3380 C   0  0  0  0  0  0  0  0  0  0  0  0
   46.6670   31.1710   48.5030 C   0  0  0  0  0  0  0  0  0  0  0  0
   45.5030   31.8970   48.7200 C   0  0  0  0  0  0  0  0  0  0  0  0
   45.1140   32.8540   47.8010 N   0  0  0  0  0  0  0  0  0  0  0  0
   45.8680   33.0790   46.7010 C   0  0  0  0  0  0  0  0  0  0  0  0
   46.9990   32.3950   46.4600 N   0  0  0  0  0  0  0  0  0  0  0  0
   45.2497   36.4265   42.9858 H   0  0  0  0  0  0  0  0  0  0  0  0
   43.6497   36.2897   41.1106 H   0  0  0  0  0  0  0  0  0  0  0  0
   44.0863   31.2255   41.5933 H   0  0  0  0  0  0  0  0  0  0  0  0
   41.6170   32.6325   40.1825 H   0  0  0  0  0  0  0  0  0  0  0  0
   41.7415   31.1477   39.7262 H   0  0  0  0  0  0  0  0  0  0  0  0
   41.4608   30.4535   42.4669 H   0  0  0  0  0  0  0  0  0  0  0  0
   41.0797   31.8995   42.8816 H   0  0  0  0  0  0  0  0  0  0  0  0
   48.3242   30.9027   47.1386 H   0  0  0  0  0  0  0  0  0  0  0  0
   47.0033   30.4017   49.2137 H   0  0  0  0  0  0  0  0  0  0  0  0
   44.8944   31.7118   49.6174 H   0  0  0  0  0  0  0  0  0  0  0  0
  1 11  1  0
  2  1  1  0
  3  2  2  0
  4  3  1  0
  5  4  2  0
  5  6  1  0
  6  7  2  0
  7  2  1  0
  8  6  1  0
  8 10  1  0
  9  8  1  0
  9 10  1  0
 11 12  2  0
 11 17  1  0
 13 14  2  0
 14 15  1  0
 16 15  2  0
 17 16  1  0
 18 17  2  0
 18 13  1  0
  3 19  1  0
  4 20  1  0
  8 21  1  0
  9 22  1  0
  9 23  1  0
 10 24  1  0
 10 25  1  0
 13 26  1  0
 14 27  1  0
 15 28  1  0
M  ISO  8  19  14  20  14  21  13  22  13  23  13  24  13  25  13  26  14
M  ISO  2  27  14  28  14
M  END
>  <minimizedAffinity>  (1) 
-4.45002604

>  <minimizedRMSD>  (1) 
0.229528248

$$$$
