
     RDKit          3D

 41 43  0  0  0  0  0  0  0  0999 V2000
   44.9930   35.2970   42.3760 C   0  0  0  0  0  0  0  0  0  0  0  0
   44.7250   36.3580   42.9710 O   0  0  0  0  0  0  0  0  0  0  0  0
   47.8940   33.0900   42.4920 C   0  0  0  0  0  0  0  0  0  0  0  0
   47.7870   32.4630   43.7200 C   0  0  0  0  0  0  0  0  0  0  0  0
   46.7020   32.8000   44.5170 C   0  0  0  0  0  0  0  0  0  0  0  0
   45.7980   33.7370   44.0460 N   0  0  0  0  0  0  0  0  0  0  0  0
   45.9490   34.3220   42.8360 C   0  0  0  0  0  0  0  0  0  0  0  0
   46.9960   33.9980   42.0610 N   0  0  0  0  0  0  0  0  0  0  0  0
   46.5240   32.1970   45.7940 N   0  0  0  0  0  0  0  0  0  0  0  0
   47.0380   32.8550   46.8600 C   0  0  0  0  0  0  0  0  0  0  0  0
   46.9020   32.3280   48.1280 C   0  0  0  0  0  0  0  0  0  0  0  0
   46.2260   31.1130   48.2780 C   0  0  0  0  0  0  0  0  0  0  0  0
   46.0700   30.5500   49.5620 N   0  0  0  0  0  0  0  0  0  0  0  0
   45.7230   30.4800   47.1910 N   0  0  0  0  0  0  0  0  0  0  0  0
   45.8660   31.0150   45.9470 C   0  0  0  0  0  0  0  0  0  0  0  0
   45.4350   30.5030   44.8850 O   0  0  0  0  0  0  0  0  0  0  0  0
   44.2810   35.1000   41.1840 O   0  0  0  0  0  0  0  0  0  0  0  0
   42.9260   34.7100   41.2880 C   0  0  0  0  0  0  0  0  0  0  0  0
   41.8270   35.5440   41.2860 C   0  0  0  0  0  0  0  0  0  0  0  0
   40.6040   34.9440   41.3980 C   0  0  0  0  0  0  0  0  0  0  0  0
   40.4700   33.6100   41.5050 N   0  0  0  0  0  0  0  0  0  0  0  0
   41.5660   32.8120   41.5050 C   0  0  0  0  0  0  0  0  0  0  0  0
   42.8150   33.3710   41.3960 N   0  0  0  0  0  0  0  0  0  0  0  0
   41.4390   31.3260   41.6030 C   0  0  0  0  0  0  0  0  0  0  0  0
   42.7690   30.6380   41.6430 C   0  0  0  0  0  0  0  0  0  0  0  0
   40.5930   30.8850   42.7670 C   0  0  0  0  0  0  0  0  0  0  0  0
   48.7448   32.8379   41.8419 H   0  0  0  0  0  0  0  0  0  0  0  0
   48.5329   31.7259   44.0521 H   0  0  0  0  0  0  0  0  0  0  0  0
   47.5642   33.8101   46.7151 H   0  0  0  0  0  0  0  0  0  0  0  0
   47.3163   32.8522   49.0018 H   0  0  0  0  0  0  0  0  0  0  0  0
   45.5725   29.6552   49.6750 H   0  0  0  0  0  0  0  0  0  0  0  0
   46.4536   31.0337   50.3865 H   0  0  0  0  0  0  0  0  0  0  0  0
   41.9297   36.6357   41.1988 H   0  0  0  0  0  0  0  0  0  0  0  0
   39.7009   35.5720   41.4007 H   0  0  0  0  0  0  0  0  0  0  0  0
   40.9230   31.0221   40.6803 H   0  0  0  0  0  0  0  0  0  0  0  0
   43.0700   30.4823   42.6895 H   0  0  0  0  0  0  0  0  0  0  0  0
   42.6942   29.6655   41.1344 H   0  0  0  0  0  0  0  0  0  0  0  0
   43.5195   31.2610   41.1344 H   0  0  0  0  0  0  0  0  0  0  0  0
   41.0982   31.1483   43.7080 H   0  0  0  0  0  0  0  0  0  0  0  0
   39.6161   31.3886   42.7219 H   0  0  0  0  0  0  0  0  0  0  0  0
   40.4464   29.7957   42.7219 H   0  0  0  0  0  0  0  0  0  0  0  0
  1  7  1  0
  1  2  2  0
  3  4  2  0
  4  5  1  0
  5  9  1  0
  6  5  2  0
  7  6  1  0
  8  3  1  0
  8  7  2  0
  9 15  1  0
  9 10  1  0
 10 11  2  0
 11 12  1  0
 12 13  1  0
 14 12  2  0
 15 14  1  0
 16 15  2  0
 17 18  1  0
 17  1  1  0
 18 23  1  0
 19 18  2  0
 19 20  1  0
 20 21  2  0
 21 22  1  0
 22 24  1  0
 23 22  2  0
 24 25  1  0
 24 26  1  0
  3 27  1  0
  4 28  1  0
 10 29  1  0
 11 30  1  0
 13 31  1  0
 13 32  1  0
 19 33  1  0
 20 34  1  0
 24 35  1  0
 25 36  1  0
 25 37  1  0
 25 38  1  0
 26 39  1  0
 26 40  1  0
 26 41  1  0
M  ISO  8  27  14  28  14  29  14  30  14  33  14  34  14  35   8  36   8
M  ISO  5  37   8  38   8  39   8  40   8  41   8
M  END
>  <minimizedAffinity>  (1) 
-5.657166

>  <minimizedRMSD>  (1) 
3.74564719

$$$$
