
     RDKit          3D

 38 40  0  0  0  0  0  0  0  0999 V2000
   44.9110   35.9840   42.6260 O   0  0  0  0  0  0  0  0  0  0  0  0
   43.9740   35.3230   41.7880 C   0  0  0  0  0  0  0  0  0  0  0  0
   42.6010   35.3760   41.8730 C   0  0  0  0  0  0  0  0  0  0  0  0
   41.8990   34.6590   40.9560 C   0  0  0  0  0  0  0  0  0  0  0  0
   42.5090   33.9280   40.0060 N   0  0  0  0  0  0  0  0  0  0  0  0
   43.8630   33.8890   39.9390 C   0  0  0  0  0  0  0  0  0  0  0  0
   44.6120   34.5970   40.8440 N   0  0  0  0  0  0  0  0  0  0  0  0
   44.5610   33.0950   38.8720 C   0  0  0  0  0  0  0  0  0  0  0  0
   46.0500   33.1030   39.0460 C   0  0  0  0  0  0  0  0  0  0  0  0
   44.0560   31.6800   38.7760 C   0  0  0  0  0  0  0  0  0  0  0  0
   45.0450   35.5070   43.9390 C   0  0  0  0  0  0  0  0  0  0  0  0
   44.4240   36.1630   44.7970 O   0  0  0  0  0  0  0  0  0  0  0  0
   47.6280   32.9470   43.6820 C   0  0  0  0  0  0  0  0  0  0  0  0
   47.3900   32.1170   44.7890 C   0  0  0  0  0  0  0  0  0  0  0  0
   46.3290   32.4620   45.6110 C   0  0  0  0  0  0  0  0  0  0  0  0
   45.5770   33.5800   45.3050 N   0  0  0  0  0  0  0  0  0  0  0  0
   45.8530   34.3420   44.2220 C   0  0  0  0  0  0  0  0  0  0  0  0
   46.8800   34.0270   43.4080 N   0  0  0  0  0  0  0  0  0  0  0  0
   45.9160   31.7360   46.8080 C   0  0  0  0  0  0  0  0  0  0  0  0
   45.8980   32.3320   48.0510 C   0  0  0  0  0  0  0  0  0  0  0  0
   45.5220   31.7130   49.2180 C   0  0  0  0  0  0  0  0  0  0  0  0
   45.1340   30.4050   49.1460 N   0  0  0  0  0  0  0  0  0  0  0  0
   45.1500   29.8100   47.9190 C   0  0  0  0  0  0  0  0  0  0  0  0
   45.5250   30.4480   46.7960 N   0  0  0  0  0  0  0  0  0  0  0  0
   42.0952   35.9713   42.6475 H   0  0  0  0  0  0  0  0  0  0  0  0
   40.7997   34.6772   40.9920 H   0  0  0  0  0  0  0  0  0  0  0  0
   44.3211   33.5994   37.9244 H   0  0  0  0  0  0  0  0  0  0  0  0
   46.2938   33.1043   40.1186 H   0  0  0  0  0  0  0  0  0  0  0  0
   46.4792   32.2071   38.5735 H   0  0  0  0  0  0  0  0  0  0  0  0
   46.4695   34.0034   38.5735 H   0  0  0  0  0  0  0  0  0  0  0  0
   43.9108   31.2731   39.7876 H   0  0  0  0  0  0  0  0  0  0  0  0
   43.0982   31.6684   38.2351 H   0  0  0  0  0  0  0  0  0  0  0  0
   44.7900   31.0646   38.2351 H   0  0  0  0  0  0  0  0  0  0  0  0
   48.4637   32.7015   43.0102 H   0  0  0  0  0  0  0  0  0  0  0  0
   48.0154   31.2356   44.9939 H   0  0  0  0  0  0  0  0  0  0  0  0
   46.2090   33.3853   48.1130 H   0  0  0  0  0  0  0  0  0  0  0  0
   45.5329   32.2515   50.1771 H   0  0  0  0  0  0  0  0  0  0  0  0
   44.8411   28.7569   47.8441 H   0  0  0  0  0  0  0  0  0  0  0  0
  1 11  1  0
  2  3  2  0
  2  1  1  0
  4  3  1  0
  5  4  2  0
  6  5  1  0
  6  7  2  0
  7  2  1  0
  8  9  1  0
  8  6  1  0
 10  8  1  0
 11 17  1  0
 11 12  2  0
 13 14  2  0
 14 15  1  0
 15 19  1  0
 16 15  2  0
 17 16  1  0
 18 13  1  0
 18 17  2  0
 19 20  2  0
 20 21  1  0
 22 21  2  0
 23 22  1  0
 24 19  1  0
 24 23  2  0
  3 25  1  0
  4 26  1  0
  8 27  1  0
  9 28  1  0
  9 29  1  0
  9 30  1  0
 10 31  1  0
 10 32  1  0
 10 33  1  0
 13 34  1  0
 14 35  1  0
 20 36  1  0
 21 37  1  0
 23 38  1  0
M  ISO  8  25  14  26  14  27   8  28   8  29   8  30   8  31   8  32   8
M  ISO  6  33   8  34  14  35  14  36  14  37  14  38  14
M  END
>  <minimizedAffinity>  (1) 
-5.50315809

>  <minimizedRMSD>  (1) 
3.05287886

$$$$
