
     RDKit          3D

 40 42  0  0  0  0  0  0  0  0999 V2000
   44.8480   36.0340   42.7430 O   0  0  0  0  0  0  0  0  0  0  0  0
   44.0300   35.3350   41.8160 C   0  0  0  0  0  0  0  0  0  0  0  0
   42.6550   35.3560   41.7520 C   0  0  0  0  0  0  0  0  0  0  0  0
   42.0800   34.6060   40.7750 C   0  0  0  0  0  0  0  0  0  0  0  0
   42.8070   33.8770   39.9100 N   0  0  0  0  0  0  0  0  0  0  0  0
   44.1620   33.8720   39.9930 C   0  0  0  0  0  0  0  0  0  0  0  0
   44.7860   34.6110   40.9600 N   0  0  0  0  0  0  0  0  0  0  0  0
   44.9900   33.0810   39.0240 C   0  0  0  0  0  0  0  0  0  0  0  0
   46.4580   33.2010   39.3040 C   0  0  0  0  0  0  0  0  0  0  0  0
   44.6110   31.6230   39.0010 C   0  0  0  0  0  0  0  0  0  0  0  0
   45.0440   35.4480   44.0030 C   0  0  0  0  0  0  0  0  0  0  0  0
   44.4290   36.0120   44.9330 O   0  0  0  0  0  0  0  0  0  0  0  0
   47.8380   33.1390   43.6020 C   0  0  0  0  0  0  0  0  0  0  0  0
   47.5230   32.0900   44.4790 C   0  0  0  0  0  0  0  0  0  0  0  0
   46.3270   32.1900   45.2140 C   0  0  0  0  0  0  0  0  0  0  0  0
   45.5340   33.3150   45.0270 N   0  0  0  0  0  0  0  0  0  0  0  0
   45.8920   34.2940   44.1650 C   0  0  0  0  0  0  0  0  0  0  0  0
   47.0320   34.2010   43.4630 N   0  0  0  0  0  0  0  0  0  0  0  0
   45.9380   31.1660   46.1250 N   0  0  0  0  0  0  0  0  0  0  0  0
   45.4620   30.0560   45.5050 C   0  0  0  0  0  0  0  0  0  0  0  0
   45.0490   28.9880   46.2800 C   0  0  0  0  0  0  0  0  0  0  0  0
   45.1160   29.0370   47.6730 C   0  0  0  0  0  0  0  0  0  0  0  0
   44.7560   28.0990   48.4290 O   0  0  0  0  0  0  0  0  0  0  0  0
   45.5980   30.1690   48.2170 N   0  0  0  0  0  0  0  0  0  0  0  0
   46.0000   31.2120   47.4690 C   0  0  0  0  0  0  0  0  0  0  0  0
   46.4620   32.3000   47.8940 O   0  0  0  0  0  0  0  0  0  0  0  0
   42.0525   35.9493   42.4555 H   0  0  0  0  0  0  0  0  0  0  0  0
   40.9834   34.5950   40.6891 H   0  0  0  0  0  0  0  0  0  0  0  0
   44.7778   33.5164   38.0364 H   0  0  0  0  0  0  0  0  0  0  0  0
   46.6240   33.2146   40.3913 H   0  0  0  0  0  0  0  0  0  0  0  0
   46.9867   32.3431   38.8631 H   0  0  0  0  0  0  0  0  0  0  0  0
   46.8404   34.1334   38.8631 H   0  0  0  0  0  0  0  0  0  0  0  0
   44.5148   31.2528   40.0324 H   0  0  0  0  0  0  0  0  0  0  0  0
   43.6515   31.5018   38.4769 H   0  0  0  0  0  0  0  0  0  0  0  0
   45.3900   31.0499   38.4769 H   0  0  0  0  0  0  0  0  0  0  0  0
   48.7672   33.0888   43.0154 H   0  0  0  0  0  0  0  0  0  0  0  0
   48.1874   31.2202   44.5882 H   0  0  0  0  0  0  0  0  0  0  0  0
   45.4060   30.0072   44.4075 H   0  0  0  0  0  0  0  0  0  0  0  0
   44.6605   28.0832   45.7896 H   0  0  0  0  0  0  0  0  0  0  0  0
   45.6614   30.2395   49.2426 H   0  0  0  0  0  0  0  0  0  0  0  0
  1 11  1  0
  2  1  1  0
  3  2  2  0
  4  3  1  0
  5  6  1  0
  5  4  2  0
  6  7  2  0
  7  2  1  0
  8  9  1  0
  8  6  1  0
 10  8  1  0
 11 17  1  0
 11 12  2  0
 13 14  2  0
 14 15  1  0
 15 19  1  0
 16 15  2  0
 17 16  1  0
 18 13  1  0
 18 17  2  0
 19 25  1  0
 20 19  1  0
 20 21  2  0
 21 22  1  0
 22 24  1  0
 22 23  2  0
 25 26  2  0
 25 24  1  0
  3 27  1  0
  4 28  1  0
  8 29  1  0
  9 30  1  0
  9 31  1  0
  9 32  1  0
 10 33  1  0
 10 34  1  0
 10 35  1  0
 13 36  1  0
 14 37  1  0
 20 38  1  0
 21 39  1  0
 24 40  1  0
M  ISO  8  27  14  28  14  29   8  30   8  31   8  32   8  33   8  34   8
M  ISO  6  35   8  36  14  37  14  38  14  39  14  40   9
M  END
>  <minimizedAffinity>  (1) 
-5.62887049

>  <minimizedRMSD>  (1) 
3.55353808

$$$$
