
     RDKit          3D

 40 42  0  0  0  0  0  0  0  0999 V2000
   44.8850   36.0220   42.6300 O   0  0  0  0  0  0  0  0  0  0  0  0
   43.9590   35.3410   41.7950 C   0  0  0  0  0  0  0  0  0  0  0  0
   42.5860   35.3780   41.8750 C   0  0  0  0  0  0  0  0  0  0  0  0
   41.9000   34.6410   40.9620 C   0  0  0  0  0  0  0  0  0  0  0  0
   42.5230   33.9110   40.0220 N   0  0  0  0  0  0  0  0  0  0  0  0
   43.8780   33.8860   39.9580 C   0  0  0  0  0  0  0  0  0  0  0  0
   44.6140   34.6150   40.8610 N   0  0  0  0  0  0  0  0  0  0  0  0
   44.5880   33.0960   38.9010 C   0  0  0  0  0  0  0  0  0  0  0  0
   46.0730   33.1010   39.0950 C   0  0  0  0  0  0  0  0  0  0  0  0
   44.0830   31.6810   38.7980 C   0  0  0  0  0  0  0  0  0  0  0  0
   45.0140   35.5750   43.9540 C   0  0  0  0  0  0  0  0  0  0  0  0
   44.3930   36.2660   44.7940 O   0  0  0  0  0  0  0  0  0  0  0  0
   47.5730   32.9790   43.7830 C   0  0  0  0  0  0  0  0  0  0  0  0
   47.3000   32.1900   44.9070 C   0  0  0  0  0  0  0  0  0  0  0  0
   46.2360   32.5540   45.7140 C   0  0  0  0  0  0  0  0  0  0  0  0
   45.5110   33.6720   45.3610 N   0  0  0  0  0  0  0  0  0  0  0  0
   45.8110   34.4060   44.2640 C   0  0  0  0  0  0  0  0  0  0  0  0
   46.8330   34.0640   43.4780 N   0  0  0  0  0  0  0  0  0  0  0  0
   45.8480   31.8210   46.9090 C   0  0  0  0  0  0  0  0  0  0  0  0
   45.7440   32.4110   48.1480 C   0  0  0  0  0  0  0  0  0  0  0  0
   45.3720   31.7090   49.2910 C   0  0  0  0  0  0  0  0  0  0  0  0
   45.1010   30.3580   49.1500 C   0  0  0  0  0  0  0  0  0  0  0  0
   45.1920   29.7280   47.9330 C   0  0  0  0  0  0  0  0  0  0  0  0
   45.5650   30.4810   46.8420 C   0  0  0  0  0  0  0  0  0  0  0  0
   42.0687   35.9749   42.6405 H   0  0  0  0  0  0  0  0  0  0  0  0
   40.8005   34.6423   40.9938 H   0  0  0  0  0  0  0  0  0  0  0  0
   44.3620   33.6029   37.9513 H   0  0  0  0  0  0  0  0  0  0  0  0
   46.3022   33.1018   40.1709 H   0  0  0  0  0  0  0  0  0  0  0  0
   46.5068   32.2043   38.6283 H   0  0  0  0  0  0  0  0  0  0  0  0
   46.5007   34.0006   38.6283 H   0  0  0  0  0  0  0  0  0  0  0  0
   43.9362   31.2697   39.8076 H   0  0  0  0  0  0  0  0  0  0  0  0
   43.1261   31.6718   38.2556 H   0  0  0  0  0  0  0  0  0  0  0  0
   44.8179   31.0680   38.2556 H   0  0  0  0  0  0  0  0  0  0  0  0
   48.4152   32.7059   43.1302 H   0  0  0  0  0  0  0  0  0  0  0  0
   47.9128   31.3072   45.1417 H   0  0  0  0  0  0  0  0  0  0  0  0
   45.9646   33.4848   48.2391 H   0  0  0  0  0  0  0  0  0  0  0  0
   45.2962   32.2079   50.2684 H   0  0  0  0  0  0  0  0  0  0  0  0
   44.8055   29.7751   50.0348 H   0  0  0  0  0  0  0  0  0  0  0  0
   44.9736   28.6546   47.8328 H   0  0  0  0  0  0  0  0  0  0  0  0
   45.6399   29.9810   45.8651 H   0  0  0  0  0  0  0  0  0  0  0  0
  1 11  1  0
  2  3  2  0
  2  1  1  0
  4  3  1  0
  5  4  2  0
  6  5  1  0
  6  7  2  0
  7  2  1  0
  8  9  1  0
  8  6  1  0
 10  8  1  0
 11 17  1  0
 11 12  2  0
 13 14  2  0
 14 15  1  0
 15 19  1  0
 16 15  2  0
 17 16  1  0
 18 13  1  0
 18 17  2  0
 19 20  2  0
 20 21  1  0
 22 21  2  0
 23 22  1  0
 24 19  1  0
 24 23  2  0
  3 25  1  0
  4 26  1  0
  8 27  1  0
  9 28  1  0
  9 29  1  0
  9 30  1  0
 10 31  1  0
 10 32  1  0
 10 33  1  0
 13 34  1  0
 14 35  1  0
 20 36  1  0
 21 37  1  0
 22 38  1  0
 23 39  1  0
 24 40  1  0
M  ISO  8  25  14  26  14  27   8  28   8  29   8  30   8  31   8  32   8
M  ISO  8  33   8  34  14  35  14  36  14  37  14  38  14  39  14  40  14
M  END
>  <minimizedAffinity>  (1) 
-5.82229567

>  <minimizedRMSD>  (1) 
3.01797891

$$$$
