
     RDKit          3D

 36 38  0  0  0  0  0  0  0  0999 V2000
   43.6480   34.9270   41.8400 C   0  0  0  0  0  0  0  0  0  0  0  0
   42.7010   35.6750   41.1730 C   0  0  0  0  0  0  0  0  0  0  0  0
   41.6130   35.0070   40.7010 C   0  0  0  0  0  0  0  0  0  0  0  0
   41.4630   33.6800   40.8730 N   0  0  0  0  0  0  0  0  0  0  0  0
   42.4030   32.9570   41.5310 C   0  0  0  0  0  0  0  0  0  0  0  0
   43.5190   33.5940   42.0250 N   0  0  0  0  0  0  0  0  0  0  0  0
   42.2690   31.4850   41.7080 C   0  0  0  0  0  0  0  0  0  0  0  0
   43.4180   30.8860   42.4580 C   0  0  0  0  0  0  0  0  0  0  0  0
   40.9720   31.0960   42.3700 C   0  0  0  0  0  0  0  0  0  0  0  0
   44.8540   35.3930   42.4160 O   0  0  0  0  0  0  0  0  0  0  0  0
   45.0330   35.1930   43.7930 C   0  0  0  0  0  0  0  0  0  0  0  0
   44.4760   36.0340   44.5170 O   0  0  0  0  0  0  0  0  0  0  0  0
   47.4970   32.4970   43.9420 C   0  0  0  0  0  0  0  0  0  0  0  0
   47.3110   31.9700   45.2060 C   0  0  0  0  0  0  0  0  0  0  0  0
   46.3330   32.5320   46.0260 C   0  0  0  0  0  0  0  0  0  0  0  0
   45.5990   33.5940   45.5260 N   0  0  0  0  0  0  0  0  0  0  0  0
   45.8110   34.0830   44.2810 C   0  0  0  0  0  0  0  0  0  0  0  0
   46.7600   33.5310   43.5000 N   0  0  0  0  0  0  0  0  0  0  0  0
   46.0700   32.0560   47.3410 N   0  0  0  0  0  0  0  0  0  0  0  0
   46.9780   31.7640   48.2900 C   0  0  0  0  0  0  0  0  0  0  0  0
   46.3850   31.3450   49.4010 N   0  0  0  0  0  0  0  0  0  0  0  0
   45.0500   31.3690   49.1530 C   0  0  0  0  0  0  0  0  0  0  0  0
   44.8970   31.8060   47.8960 N   0  0  0  0  0  0  0  0  0  0  0  0
   42.8191   36.7592   41.0293 H   0  0  0  0  0  0  0  0  0  0  0  0
   40.8338   35.5674   40.1636 H   0  0  0  0  0  0  0  0  0  0  0  0
   42.2728   31.0742   40.6876 H   0  0  0  0  0  0  0  0  0  0  0  0
   43.2387   30.9795   43.5393 H   0  0  0  0  0  0  0  0  0  0  0  0
   43.5146   29.8228   42.1929 H   0  0  0  0  0  0  0  0  0  0  0  0
   44.3449   31.4156   42.1929 H   0  0  0  0  0  0  0  0  0  0  0  0
   41.0928   31.1322   43.4627 H   0  0  0  0  0  0  0  0  0  0  0  0
   40.1803   31.7962   42.0652 H   0  0  0  0  0  0  0  0  0  0  0  0
   40.6963   30.0757   42.0652 H   0  0  0  0  0  0  0  0  0  0  0  0
   48.2636   32.0616   43.2842 H   0  0  0  0  0  0  0  0  0  0  0  0
   47.9214   31.1252   45.5578 H   0  0  0  0  0  0  0  0  0  0  0  0
   48.0663   31.8597   48.1622 H   0  0  0  0  0  0  0  0  0  0  0  0
   44.2483   31.0843   49.8503 H   0  0  0  0  0  0  0  0  0  0  0  0
  1  6  1  0
  1 10  1  0
  2  1  2  0
  3  4  2  0
  3  2  1  0
  4  5  1  0
  5  7  1  0
  5  6  2  0
  7  9  1  0
  7  8  1  0
 10 11  1  0
 11 17  1  0
 11 12  2  0
 13 14  2  0
 14 15  1  0
 15 19  1  0
 16 15  2  0
 17 16  1  0
 18 13  1  0
 18 17  2  0
 19 23  1  0
 19 20  1  0
 20 21  2  0
 22 21  1  0
 23 22  2  0
  2 24  1  0
  3 25  1  0
  7 26  1  0
  8 27  1  0
  8 28  1  0
  8 29  1  0
  9 30  1  0
  9 31  1  0
  9 32  1  0
 13 33  1  0
 14 34  1  0
 20 35  1  0
 22 36  1  0
M  ISO  8  24  14  25  14  26   8  27   8  28   8  29   8  30   8  31   8
M  ISO  5  32   8  33  14  34  14  35  14  36  14
M  END
>  <minimizedAffinity>  (1) 
-5.2973299

>  <minimizedRMSD>  (1) 
2.33605194

$$$$
