
     RDKit          3D

 36 38  0  0  0  0  0  0  0  0999 V2000
   43.3540   35.0890   41.7660 C   0  0  0  0  0  0  0  0  0  0  0  0
   42.1760   35.6210   41.2960 C   0  0  0  0  0  0  0  0  0  0  0  0
   41.1760   34.7500   41.0090 C   0  0  0  0  0  0  0  0  0  0  0  0
   41.3210   33.4250   41.1730 N   0  0  0  0  0  0  0  0  0  0  0  0
   42.4900   32.9150   41.6380 C   0  0  0  0  0  0  0  0  0  0  0  0
   43.5260   33.7600   41.9400 N   0  0  0  0  0  0  0  0  0  0  0  0
   42.6780   31.4380   41.8070 C   0  0  0  0  0  0  0  0  0  0  0  0
   43.9420   31.1050   42.5400 C   0  0  0  0  0  0  0  0  0  0  0  0
   41.5060   30.7750   42.4830 C   0  0  0  0  0  0  0  0  0  0  0  0
   44.5290   35.8000   42.1270 O   0  0  0  0  0  0  0  0  0  0  0  0
   44.9960   35.6470   43.4430 C   0  0  0  0  0  0  0  0  0  0  0  0
   44.6000   36.5230   44.2350 O   0  0  0  0  0  0  0  0  0  0  0  0
   47.5830   33.0860   43.2510 C   0  0  0  0  0  0  0  0  0  0  0  0
   47.5140   32.4620   44.4940 C   0  0  0  0  0  0  0  0  0  0  0  0
   46.5690   32.9270   45.4040 C   0  0  0  0  0  0  0  0  0  0  0  0
   45.7660   33.9710   45.0130 N   0  0  0  0  0  0  0  0  0  0  0  0
   45.8620   34.5510   43.7960 C   0  0  0  0  0  0  0  0  0  0  0  0
   46.7630   34.1070   42.9310 N   0  0  0  0  0  0  0  0  0  0  0  0
   46.4230   32.3260   46.7500 C   0  0  0  0  0  0  0  0  0  0  0  0
   47.4020   31.4560   47.2270 C   0  0  0  0  0  0  0  0  0  0  0  0
   46.7410   31.0130   48.9040 S   0  0  0  0  0  0  0  0  0  0  0  0
   45.2250   32.1230   48.6260 C   0  0  0  0  0  0  0  0  0  0  0  0
   45.4170   32.5370   47.5830 N   0  0  0  0  0  0  0  0  0  0  0  0
   42.0501   36.7051   41.1588 H   0  0  0  0  0  0  0  0  0  0  0  0
   40.2194   35.1402   40.6313 H   0  0  0  0  0  0  0  0  0  0  0  0
   42.7522   31.0374   40.7852 H   0  0  0  0  0  0  0  0  0  0  0  0
   43.7607   31.1528   43.6239 H   0  0  0  0  0  0  0  0  0  0  0  0
   44.2677   30.0904   42.2671 H   0  0  0  0  0  0  0  0  0  0  0  0
   44.7253   31.8274   42.2671 H   0  0  0  0  0  0  0  0  0  0  0  0
   41.6258   30.8428   43.5744 H   0  0  0  0  0  0  0  0  0  0  0  0
   40.5761   31.2808   42.1841 H   0  0  0  0  0  0  0  0  0  0  0  0
   41.4605   29.7174   42.1841 H   0  0  0  0  0  0  0  0  0  0  0  0
   48.3224   32.7384   42.5145 H   0  0  0  0  0  0  0  0  0  0  0  0
   48.1849   31.6283   44.7486 H   0  0  0  0  0  0  0  0  0  0  0  0
   48.3271   31.1191   46.7365 H   0  0  0  0  0  0  0  0  0  0  0  0
   44.3779   32.3164   49.3005 H   0  0  0  0  0  0  0  0  0  0  0  0
  1  6  1  0
  1 10  1  0
  2  1  2  0
  3  4  2  0
  3  2  1  0
  4  5  1  0
  5  7  1  0
  5  6  2  0
  7  9  1  0
  7  8  1  0
 10 11  1  0
 11 17  1  0
 11 12  2  0
 13 14  2  0
 14 15  1  0
 15 19  1  0
 16 15  2  0
 17 16  1  0
 18 13  1  0
 18 17  2  0
 19 20  2  0
 19 23  1  0
 20 21  1  0
 22 21  1  0
 23 22  2  0
  2 24  1  0
  3 25  1  0
  7 26  1  0
  8 27  1  0
  8 28  1  0
  8 29  1  0
  9 30  1  0
  9 31  1  0
  9 32  1  0
 13 33  1  0
 14 34  1  0
 20 35  1  0
 22 36  1  0
M  ISO  8  24  14  25  14  26   8  27   8  28   8  29   8  30   8  31   8
M  ISO  5  32   8  33  14  34  14  35  14  36  14
M  END
>  <minimizedAffinity>  (1) 
-5.04548359

>  <minimizedRMSD>  (1) 
2.92204595

$$$$
