
     RDKit          3D

 38 40  0  0  0  0  0  0  0  0999 V2000
   44.9160   35.9600   42.6060 O   0  0  0  0  0  0  0  0  0  0  0  0
   43.9740   35.3050   41.7740 C   0  0  0  0  0  0  0  0  0  0  0  0
   42.5990   35.3510   41.8840 C   0  0  0  0  0  0  0  0  0  0  0  0
   41.8890   34.6390   40.9680 C   0  0  0  0  0  0  0  0  0  0  0  0
   42.4850   33.9270   40.0020 N   0  0  0  0  0  0  0  0  0  0  0  0
   43.8380   33.8920   39.9080 C   0  0  0  0  0  0  0  0  0  0  0  0
   44.5990   34.5930   40.8100 N   0  0  0  0  0  0  0  0  0  0  0  0
   44.5220   33.1180   38.8250 C   0  0  0  0  0  0  0  0  0  0  0  0
   45.9960   32.9880   39.0560 C   0  0  0  0  0  0  0  0  0  0  0  0
   43.9120   31.7570   38.6080 C   0  0  0  0  0  0  0  0  0  0  0  0
   45.0580   35.4940   43.9220 C   0  0  0  0  0  0  0  0  0  0  0  0
   44.4490   36.1670   44.7720 O   0  0  0  0  0  0  0  0  0  0  0  0
   47.6180   32.9080   43.6680 C   0  0  0  0  0  0  0  0  0  0  0  0
   47.3760   32.0910   44.7810 C   0  0  0  0  0  0  0  0  0  0  0  0
   46.3230   32.4490   45.6050 C   0  0  0  0  0  0  0  0  0  0  0  0
   45.5770   33.5710   45.2990 N   0  0  0  0  0  0  0  0  0  0  0  0
   45.8600   34.3200   44.2090 C   0  0  0  0  0  0  0  0  0  0  0  0
   46.8730   33.9910   43.4010 N   0  0  0  0  0  0  0  0  0  0  0  0
   45.9140   31.7300   46.8050 C   0  0  0  0  0  0  0  0  0  0  0  0
   45.8990   32.3270   48.0470 C   0  0  0  0  0  0  0  0  0  0  0  0
   45.5260   31.7180   49.2270 C   0  0  0  0  0  0  0  0  0  0  0  0
   45.1410   30.4110   49.1450 N   0  0  0  0  0  0  0  0  0  0  0  0
   45.1500   29.8050   47.9220 C   0  0  0  0  0  0  0  0  0  0  0  0
   45.5230   30.4440   46.7990 N   0  0  0  0  0  0  0  0  0  0  0  0
   42.1021   35.9344   42.6731 H   0  0  0  0  0  0  0  0  0  0  0  0
   40.7904   34.6480   41.0220 H   0  0  0  0  0  0  0  0  0  0  0  0
   44.3692   33.7078   37.9092 H   0  0  0  0  0  0  0  0  0  0  0  0
   46.1975   32.9702   40.1372 H   0  0  0  0  0  0  0  0  0  0  0  0
   46.3576   32.0545   38.6002 H   0  0  0  0  0  0  0  0  0  0  0  0
   46.5155   33.8438   38.6002 H   0  0  0  0  0  0  0  0  0  0  0  0
   43.7025   31.2896   39.5815 H   0  0  0  0  0  0  0  0  0  0  0  0
   42.9745   31.8614   38.0421 H   0  0  0  0  0  0  0  0  0  0  0  0
   44.6137   31.1267   38.0421 H   0  0  0  0  0  0  0  0  0  0  0  0
   48.4465   32.6525   42.9910 H   0  0  0  0  0  0  0  0  0  0  0  0
   47.9946   31.2058   44.9900 H   0  0  0  0  0  0  0  0  0  0  0  0
   46.2115   33.3802   48.1020 H   0  0  0  0  0  0  0  0  0  0  0  0
   45.5382   32.2580   50.1852 H   0  0  0  0  0  0  0  0  0  0  0  0
   44.8398   28.7520   47.8522 H   0  0  0  0  0  0  0  0  0  0  0  0
  1 11  1  0
  2  3  2  0
  2  1  1  0
  4  3  1  0
  5  4  2  0
  6  5  1  0
  6  7  2  0
  7  2  1  0
  8  9  1  0
  8  6  1  0
 10  8  1  0
 11 17  1  0
 11 12  2  0
 13 14  2  0
 14 15  1  0
 15 19  1  0
 16 15  2  0
 17 16  1  0
 18 13  1  0
 18 17  2  0
 19 20  2  0
 20 21  1  0
 22 21  2  0
 23 22  1  0
 24 19  1  0
 24 23  2  0
  3 25  1  0
  4 26  1  0
  8 27  1  0
  9 28  1  0
  9 29  1  0
  9 30  1  0
 10 31  1  0
 10 32  1  0
 10 33  1  0
 13 34  1  0
 14 35  1  0
 20 36  1  0
 21 37  1  0
 23 38  1  0
M  ISO  8  25  14  26  14  27   8  28   8  29   8  30   8  31   8  32   8
M  ISO  6  33   8  34  14  35  14  36  14  37  14  38  14
M  END
>  <minimizedAffinity>  (1) 
-5.50029707

>  <minimizedRMSD>  (1) 
3.05354333

$$$$
