
     RDKit          3D

 33 34  0  0  0  0  0  0  0  0999 V2000
   44.9700   35.0800   42.3580 C   0  0  0  0  0  0  0  0  0  0  0  0
   43.6280   35.2140   42.0840 C   0  0  0  0  0  0  0  0  0  0  0  0
   43.1900   34.6940   40.9060 C   0  0  0  0  0  0  0  0  0  0  0  0
   44.0160   34.0820   40.0530 N   0  0  0  0  0  0  0  0  0  0  0  0
   45.3390   33.9550   40.3350 C   0  0  0  0  0  0  0  0  0  0  0  0
   45.8260   34.4640   41.5120 N   0  0  0  0  0  0  0  0  0  0  0  0
   46.2800   33.2900   39.3820 C   0  0  0  0  0  0  0  0  0  0  0  0
   47.6330   33.9310   39.3690 C   0  0  0  0  0  0  0  0  0  0  0  0
   46.4220   31.8140   39.6470 C   0  0  0  0  0  0  0  0  0  0  0  0
   45.6620   35.5370   43.5130 O   0  0  0  0  0  0  0  0  0  0  0  0
   45.2330   35.0410   44.7580 C   0  0  0  0  0  0  0  0  0  0  0  0
   44.3630   35.7340   45.3180 O   0  0  0  0  0  0  0  0  0  0  0  0
   47.2140   31.9820   45.0750 C   0  0  0  0  0  0  0  0  0  0  0  0
   46.8550   31.4920   46.3210 C   0  0  0  0  0  0  0  0  0  0  0  0
   45.9280   32.2230   47.0480 C   0  0  0  0  0  0  0  0  0  0  0  0
   45.4050   33.3880   46.5180 N   0  0  0  0  0  0  0  0  0  0  0  0
   45.7970   33.8160   45.2880 C   0  0  0  0  0  0  0  0  0  0  0  0
   46.6890   33.1280   44.5710 N   0  0  0  0  0  0  0  0  0  0  0  0
   45.5100   31.7380   48.3930 C   0  0  0  0  0  0  0  0  0  0  0  0
   46.0130   30.4860   48.6690 F   0  0  0  0  0  0  0  0  0  0  0  0
   44.1450   31.6630   48.4660 F   0  0  0  0  0  0  0  0  0  0  0  0
   45.8880   32.6560   49.3800 F   0  0  0  0  0  0  0  0  0  0  0  0
   42.9435   35.7167   42.7831 H   0  0  0  0  0  0  0  0  0  0  0  0
   42.1241   34.7799   40.6481 H   0  0  0  0  0  0  0  0  0  0  0  0
   45.8251   33.4221   38.3892 H   0  0  0  0  0  0  0  0  0  0  0  0
   47.9725   34.0918   40.4029 H   0  0  0  0  0  0  0  0  0  0  0  0
   48.3448   33.2744   38.8473 H   0  0  0  0  0  0  0  0  0  0  0  0
   47.5757   34.8977   38.8473 H   0  0  0  0  0  0  0  0  0  0  0  0
   46.4391   31.6363   40.7324 H   0  0  0  0  0  0  0  0  0  0  0  0
   45.5713   31.2779   39.2010 H   0  0  0  0  0  0  0  0  0  0  0  0
   47.3593   31.4499   39.2010 H   0  0  0  0  0  0  0  0  0  0  0  0
   47.9481   31.4241   44.4751 H   0  0  0  0  0  0  0  0  0  0  0  0
   47.2878   30.5614   46.7167 H   0  0  0  0  0  0  0  0  0  0  0  0
  1 10  1  0
  2  1  2  0
  3  2  1  0
  4  5  1  0
  4  3  2  0
  5  6  2  0
  6  1  1  0
  7  9  1  0
  7  5  1  0
  8  7  1  0
 10 11  1  0
 11 17  1  0
 11 12  2  0
 13 14  2  0
 14 15  1  0
 15 19  1  0
 16 15  2  0
 17 16  1  0
 18 13  1  0
 18 17  2  0
 19 21  1  0
 19 20  1  0
 19 22  1  0
  2 23  1  0
  3 24  1  0
  7 25  1  0
  8 26  1  0
  8 27  1  0
  8 28  1  0
  9 29  1  0
  9 30  1  0
  9 31  1  0
 13 32  1  0
 14 33  1  0
M  ISO  8  23  14  24  14  25   8  26   8  27   8  28   8  29   8  30   8
M  ISO  3  31   8  32  14  33  14
M  END
>  <minimizedAffinity>  (1) 
-5.30288029

>  <minimizedRMSD>  (1) 
2.5138545

$$$$
