
     RDKit          3D

 37 39  0  0  0  0  0  0  0  0999 V2000
   44.1220   34.8660   41.9560 C   0  0  0  0  0  0  0  0  0  0  0  0
   43.4390   35.7330   41.1350 C   0  0  0  0  0  0  0  0  0  0  0  0
   42.3640   35.2290   40.4700 C   0  0  0  0  0  0  0  0  0  0  0  0
   41.9780   33.9480   40.6010 N   0  0  0  0  0  0  0  0  0  0  0  0
   42.6640   33.1080   41.4150 C   0  0  0  0  0  0  0  0  0  0  0  0
   43.7570   33.5710   42.1070 N   0  0  0  0  0  0  0  0  0  0  0  0
   42.2630   31.6700   41.5590 C   0  0  0  0  0  0  0  0  0  0  0  0
   43.2120   30.9000   42.4250 C   0  0  0  0  0  0  0  0  0  0  0  0
   40.8530   31.5120   42.0670 C   0  0  0  0  0  0  0  0  0  0  0  0
   45.2670   35.1500   42.7450 O   0  0  0  0  0  0  0  0  0  0  0  0
   45.1330   35.0420   44.1380 C   0  0  0  0  0  0  0  0  0  0  0  0
   44.4580   35.9420   44.6700 O   0  0  0  0  0  0  0  0  0  0  0  0
   47.2660   32.1860   44.9180 C   0  0  0  0  0  0  0  0  0  0  0  0
   46.9320   31.8820   46.2280 C   0  0  0  0  0  0  0  0  0  0  0  0
   45.9680   32.6580   46.8520 C   0  0  0  0  0  0  0  0  0  0  0  0
   45.3890   33.6940   46.1370 N   0  0  0  0  0  0  0  0  0  0  0  0
   45.7510   33.9480   44.8570 C   0  0  0  0  0  0  0  0  0  0  0  0
   46.6870   33.1990   44.2450 N   0  0  0  0  0  0  0  0  0  0  0  0
   45.4570   32.5150   48.2470 C   0  0  0  0  0  0  0  0  0  0  0  0
   46.1410   31.5850   49.1850 C   0  0  0  0  0  0  0  0  0  0  0  0
   44.7760   31.2370   48.6400 C   0  0  0  0  0  0  0  0  0  0  0  0
   43.7469   36.7829   41.0215 H   0  0  0  0  0  0  0  0  0  0  0  0
   41.7922   35.8915   39.8035 H   0  0  0  0  0  0  0  0  0  0  0  0
   42.3060   31.2488   40.5437 H   0  0  0  0  0  0  0  0  0  0  0  0
   42.9787   31.0893   43.4832 H   0  0  0  0  0  0  0  0  0  0  0  0
   43.1112   29.8252   42.2139 H   0  0  0  0  0  0  0  0  0  0  0  0
   44.2430   31.2200   42.2139 H   0  0  0  0  0  0  0  0  0  0  0  0
   40.8574   31.5125   43.1670 H   0  0  0  0  0  0  0  0  0  0  0  0
   40.2362   32.3467   41.7024 H   0  0  0  0  0  0  0  0  0  0  0  0
   40.4362   30.5615   41.7024 H   0  0  0  0  0  0  0  0  0  0  0  0
   48.0302   31.5792   44.4102 H   0  0  0  0  0  0  0  0  0  0  0  0
   47.4178   31.0490   46.7573 H   0  0  0  0  0  0  0  0  0  0  0  0
   45.1881   33.5811   48.2795 H   0  0  0  0  0  0  0  0  0  0  0  0
   47.0255   31.0215   48.8532 H   0  0  0  0  0  0  0  0  0  0  0  0
   46.5763   31.6764   50.1911 H   0  0  0  0  0  0  0  0  0  0  0  0
   43.8958   31.2605   49.2993 H   0  0  0  0  0  0  0  0  0  0  0  0
   44.3442   30.3821   48.0990 H   0  0  0  0  0  0  0  0  0  0  0  0
  1  6  1  0
  1 10  1  0
  2  1  2  0
  3  4  2  0
  3  2  1  0
  4  5  1  0
  5  7  1  0
  5  6  2  0
  7  9  1  0
  7  8  1  0
 10 11  1  0
 11 12  2  0
 11 17  1  0
 13 14  2  0
 14 15  1  0
 15 19  1  0
 16 15  2  0
 17 16  1  0
 18 17  2  0
 18 13  1  0
 19 21  1  0
 19 20  1  0
 21 20  1  0
  2 22  1  0
  3 23  1  0
  7 24  1  0
  8 25  1  0
  8 26  1  0
  8 27  1  0
  9 28  1  0
  9 29  1  0
  9 30  1  0
 13 31  1  0
 14 32  1  0
 19 33  1  0
 20 34  1  0
 20 35  1  0
 21 36  1  0
 21 37  1  0
M  ISO  8  22  14  23  14  24   8  25   8  26   8  27   8  28   8  29   8
M  ISO  8  30   8  31  14  32  14  33  13  34  13  35  13  36  13  37  13
M  END
>  <minimizedAffinity>  (1) 
-5.14528704

>  <minimizedRMSD>  (1) 
1.64921975

$$$$
