
     RDKit          3D

 37 39  0  0  0  0  0  0  0  0999 V2000
   44.3300   35.2570   41.9890 C   0  0  0  0  0  0  0  0  0  0  0  0
   42.9600   35.3870   41.9320 C   0  0  0  0  0  0  0  0  0  0  0  0
   42.3300   34.7360   40.9210 C   0  0  0  0  0  0  0  0  0  0  0  0
   42.9780   34.0010   40.0150 N   0  0  0  0  0  0  0  0  0  0  0  0
   44.3420   33.8800   40.0830 C   0  0  0  0  0  0  0  0  0  0  0  0
   45.0260   34.5220   41.0910 N   0  0  0  0  0  0  0  0  0  0  0  0
   45.1010   33.0750   39.0750 C   0  0  0  0  0  0  0  0  0  0  0  0
   46.5840   33.2470   39.2140 C   0  0  0  0  0  0  0  0  0  0  0  0
   44.7640   31.6060   39.1710 C   0  0  0  0  0  0  0  0  0  0  0  0
   45.2160   35.8320   42.9360 O   0  0  0  0  0  0  0  0  0  0  0  0
   45.1670   35.3190   44.2430 C   0  0  0  0  0  0  0  0  0  0  0  0
   44.4700   35.9810   45.0530 O   0  0  0  0  0  0  0  0  0  0  0  0
   47.5410   32.5460   44.0910 C   0  0  0  0  0  0  0  0  0  0  0  0
   47.2540   31.8090   45.2250 C   0  0  0  0  0  0  0  0  0  0  0  0
   46.2360   32.2690   46.0470 C   0  0  0  0  0  0  0  0  0  0  0  0
   45.5570   33.4280   45.7090 N   0  0  0  0  0  0  0  0  0  0  0  0
   45.8930   34.1010   44.5810 C   0  0  0  0  0  0  0  0  0  0  0  0
   46.8650   33.6700   43.7860 N   0  0  0  0  0  0  0  0  0  0  0  0
   45.7930   31.6300   47.2780 C   0  0  0  0  0  0  0  0  0  0  0  0
   45.7410   32.3520   48.4640 C   0  0  0  0  0  0  0  0  0  0  0  0
   45.2920   31.5040   49.4500 C   0  0  0  0  0  0  0  0  0  0  0  0
   45.0920   30.2930   48.8010 C   0  0  0  0  0  0  0  0  0  0  0  0
   45.3990   30.4220   47.5380 O   0  0  0  0  0  0  0  0  0  0  0  0
   42.4049   35.9874   42.6678 H   0  0  0  0  0  0  0  0  0  0  0  0
   41.2357   34.8180   40.8451 H   0  0  0  0  0  0  0  0  0  0  0  0
   44.7936   33.4552   38.0896 H   0  0  0  0  0  0  0  0  0  0  0  0
   46.8512   33.2780   40.2806 H   0  0  0  0  0  0  0  0  0  0  0  0
   47.0979   32.4024   38.7317 H   0  0  0  0  0  0  0  0  0  0  0  0
   46.8909   34.1868   38.7317 H   0  0  0  0  0  0  0  0  0  0  0  0
   44.6969   31.3136   40.2293 H   0  0  0  0  0  0  0  0  0  0  0  0
   43.7994   31.4180   38.6768 H   0  0  0  0  0  0  0  0  0  0  0  0
   45.5502   31.0164   38.6768 H   0  0  0  0  0  0  0  0  0  0  0  0
   48.3431   32.2051   43.4199 H   0  0  0  0  0  0  0  0  0  0  0  0
   47.8121   30.8923   45.4662 H   0  0  0  0  0  0  0  0  0  0  0  0
   46.0103   33.4109   48.5916 H   0  0  0  0  0  0  0  0  0  0  0  0
   45.1283   31.7337   50.5132 H   0  0  0  0  0  0  0  0  0  0  0  0
   44.7312   29.3690   49.2764 H   0  0  0  0  0  0  0  0  0  0  0  0
  1 10  1  0
  2  1  2  0
  3  2  1  0
  4  5  1  0
  4  3  2  0
  5  6  2  0
  6  1  1  0
  7  9  1  0
  7  8  1  0
  7  5  1  0
 10 11  1  0
 11 17  1  0
 11 12  2  0
 13 14  2  0
 14 15  1  0
 15 19  1  0
 16 15  2  0
 17 16  1  0
 18 13  1  0
 18 17  2  0
 19 23  1  0
 19 20  2  0
 20 21  1  0
 22 21  2  0
 23 22  1  0
  2 24  1  0
  3 25  1  0
  7 26  1  0
  8 27  1  0
  8 28  1  0
  8 29  1  0
  9 30  1  0
  9 31  1  0
  9 32  1  0
 13 33  1  0
 14 34  1  0
 20 35  1  0
 21 36  1  0
 22 37  1  0
M  ISO  8  24  14  25  14  26   8  27   8  28   8  29   8  30   8  31   8
M  ISO  6  32   8  33  14  34  14  35  14  36  14  37  14
M  END
>  <minimizedAffinity>  (1) 
-5.46683884

>  <minimizedRMSD>  (1) 
2.79093599

$$$$
