
     RDKit          3D

 37 39  0  0  0  0  0  0  0  0999 V2000
   44.9180   34.6970   42.8710 C   0  0  0  0  0  0  0  0  0  0  0  0
   44.3980   35.8050   42.2220 C   0  0  0  0  0  0  0  0  0  0  0  0
   43.3670   35.5890   41.3660 C   0  0  0  0  0  0  0  0  0  0  0  0
   42.8640   34.3590   41.1510 N   0  0  0  0  0  0  0  0  0  0  0  0
   43.3820   33.2830   41.7950 C   0  0  0  0  0  0  0  0  0  0  0  0
   44.4270   33.4590   42.6700 N   0  0  0  0  0  0  0  0  0  0  0  0
   42.8490   31.9060   41.5530 C   0  0  0  0  0  0  0  0  0  0  0  0
   43.4600   30.8930   42.4710 C   0  0  0  0  0  0  0  0  0  0  0  0
   41.3480   31.8440   41.6410 C   0  0  0  0  0  0  0  0  0  0  0  0
   45.9830   34.6740   43.7990 O   0  0  0  0  0  0  0  0  0  0  0  0
   45.8650   33.8080   44.8980 C   0  0  0  0  0  0  0  0  0  0  0  0
   45.2230   34.2710   45.8580 O   0  0  0  0  0  0  0  0  0  0  0  0
   48.0600   31.0270   44.0010 C   0  0  0  0  0  0  0  0  0  0  0  0
   47.6080   29.9840   44.8180 C   0  0  0  0  0  0  0  0  0  0  0  0
   46.5450   30.2510   45.6750 C   0  0  0  0  0  0  0  0  0  0  0  0
   45.9880   31.5190   45.6790 N   0  0  0  0  0  0  0  0  0  0  0  0
   46.4600   32.4940   44.8700 C   0  0  0  0  0  0  0  0  0  0  0  0
   47.4800   32.2470   44.0440 N   0  0  0  0  0  0  0  0  0  0  0  0
   46.0390   29.2350   46.5330 N   0  0  0  0  0  0  0  0  0  0  0  0
   46.8260   28.1420   46.7400 C   0  0  0  0  0  0  0  0  0  0  0  0
   46.1020   27.3270   47.5990 C   0  0  0  0  0  0  0  0  0  0  0  0
   44.9240   27.9050   47.8970 N   0  0  0  0  0  0  0  0  0  0  0  0
   44.9060   29.0720   47.2340 C   0  0  0  0  0  0  0  0  0  0  0  0
   44.8022   36.8137   42.3926 H   0  0  0  0  0  0  0  0  0  0  0  0
   42.9292   36.4451   40.8317 H   0  0  0  0  0  0  0  0  0  0  0  0
   43.1376   31.6552   40.5216 H   0  0  0  0  0  0  0  0  0  0  0  0
   43.2812   31.1894   43.5151 H   0  0  0  0  0  0  0  0  0  0  0  0
   43.0047   29.9089   42.2861 H   0  0  0  0  0  0  0  0  0  0  0  0
   44.5429   30.8366   42.2861 H   0  0  0  0  0  0  0  0  0  0  0  0
   41.0429   31.8314   42.6978 H   0  0  0  0  0  0  0  0  0  0  0  0
   40.9149   32.7250   41.1448 H   0  0  0  0  0  0  0  0  0  0  0  0
   40.9890   30.9303   41.1448 H   0  0  0  0  0  0  0  0  0  0  0  0
   48.9003   30.8509   43.3133 H   0  0  0  0  0  0  0  0  0  0  0  0
   48.0763   28.9893   44.7837 H   0  0  0  0  0  0  0  0  0  0  0  0
   47.8224   27.9472   46.3167 H   0  0  0  0  0  0  0  0  0  0  0  0
   46.4411   26.3524   47.9800 H   0  0  0  0  0  0  0  0  0  0  0  0
   44.0773   29.7948   47.2614 H   0  0  0  0  0  0  0  0  0  0  0  0
  1 10  1  0
  2  1  2  0
  3  2  1  0
  4  3  2  0
  4  5  1  0
  5  6  2  0
  6  1  1  0
  7  9  1  0
  7  5  1  0
  7  8  1  0
 10 11  1  0
 11 12  2  0
 13 18  2  0
 13 14  1  0
 14 15  2  0
 15 16  1  0
 15 19  1  0
 17 11  1  0
 17 16  2  0
 18 17  1  0
 19 20  1  0
 19 23  1  0
 20 21  2  0
 21 22  1  0
 23 22  2  0
  2 24  1  0
  3 25  1  0
  7 26  1  0
  8 27  1  0
  8 28  1  0
  8 29  1  0
  9 30  1  0
  9 31  1  0
  9 32  1  0
 13 33  1  0
 14 34  1  0
 20 35  1  0
 21 36  1  0
 23 37  1  0
M  ISO  8  24  14  25  14  26   8  27   8  28   8  29   8  30   8  31   8
M  ISO  6  32   8  33  14  34  14  35  14  36  14  37  14
M  END
>  <minimizedAffinity>  (1) 
-4.41991472

>  <minimizedRMSD>  (1) 
2.83009338

$$$$
