
     RDKit          3D

 26 27  0  0  0  0  0  0  0  0999 V2000
   45.3300   34.6420   41.6820 C   0  0  0  0  0  0  0  0  0  0  0  0
   44.0260   34.6840   41.0020 C   0  0  0  0  0  0  0  0  0  0  0  0
   43.0510   35.3990   41.7510 C   0  0  0  0  0  0  0  0  0  0  0  0
   41.7620   35.5180   41.2180 C   0  0  0  0  0  0  0  0  0  0  0  0
   41.5030   34.9480   40.0190 N   0  0  0  0  0  0  0  0  0  0  0  0
   42.4610   34.2700   39.3300 C   0  0  0  0  0  0  0  0  0  0  0  0
   43.7010   34.1530   39.8350 N   0  0  0  0  0  0  0  0  0  0  0  0
   46.4350   34.2030   40.7420 C   0  0  0  0  0  0  0  0  0  0  0  0
   47.7770   34.2210   41.3260 C   0  0  0  0  0  0  0  0  0  0  0  0
   48.4860   33.0480   41.5330 C   0  0  0  0  0  0  0  0  0  0  0  0
   49.7430   32.9560   42.0700 C   0  0  0  0  0  0  0  0  0  0  0  0
   50.3430   34.1260   42.4310 C   0  0  0  0  0  0  0  0  0  0  0  0
   49.7210   35.3600   42.2670 C   0  0  0  0  0  0  0  0  0  0  0  0
   48.4400   35.3810   41.7130 C   0  0  0  0  0  0  0  0  0  0  0  0
   45.5652   35.6458   42.0655 H   0  0  0  0  0  0  0  0  0  0  0  0
   45.2667   33.9129   42.5032 H   0  0  0  0  0  0  0  0  0  0  0  0
   43.3032   35.8467   42.7236 H   0  0  0  0  0  0  0  0  0  0  0  0
   40.9769   36.0632   41.7624 H   0  0  0  0  0  0  0  0  0  0  0  0
   42.2198   33.8166   38.3573 H   0  0  0  0  0  0  0  0  0  0  0  0
   46.4312   34.8749   39.8710 H   0  0  0  0  0  0  0  0  0  0  0  0
   46.2234   33.1556   40.4811 H   0  0  0  0  0  0  0  0  0  0  0  0
   47.9959   32.1077   41.2402 H   0  0  0  0  0  0  0  0  0  0  0  0
   50.2437   31.9857   42.2034 H   0  0  0  0  0  0  0  0  0  0  0  0
   51.3526   34.0933   42.8665 H   0  0  0  0  0  0  0  0  0  0  0  0
   50.2241   36.2916   42.5652 H   0  0  0  0  0  0  0  0  0  0  0  0
   47.9367   36.3497   41.5776 H   0  0  0  0  0  0  0  0  0  0  0  0
  2  1  1  0
  2  3  2  0
  4  3  1  0
  5  4  2  0
  6  7  2  0
  6  5  1  0
  7  2  1  0
  8  9  1  0
  8  1  1  0
  9 10  2  0
  9 14  1  0
 10 11  1  0
 11 12  2  0
 13 12  1  0
 14 13  2  0
  1 15  1  0
  1 16  1  0
  3 17  1  0
  4 18  1  0
  6 19  1  0
  8 20  1  0
  8 21  1  0
 10 22  1  0
 11 23  1  0
 12 24  1  0
 13 25  1  0
 14 26  1  0
M  ISO  8  15   8  16   8  17  14  18  14  19  14  20   8  21   8  22  14
M  ISO  4  23  14  24  14  25  14  26  14
M  END
>  <minimizedAffinity>  (1) 
-4.36313963

>  <minimizedRMSD>  (1) 
4.68725014

$$$$
