
     RDKit          3D

 44 47  0  0  0  0  0  0  0  0999 V2000
   47.9370   32.1640   43.7910 C   0  0  0  0  0  0  0  0  0  0  0  0
   47.5060   31.0920   44.5590 C   0  0  0  0  0  0  0  0  0  0  0  0
   46.3220   31.2230   45.2720 C   0  0  0  0  0  0  0  0  0  0  0  0
   45.6360   32.4360   45.1640 N   0  0  0  0  0  0  0  0  0  0  0  0
   46.0880   33.4520   44.4050 C   0  0  0  0  0  0  0  0  0  0  0  0
   47.2330   33.3170   43.7230 N   0  0  0  0  0  0  0  0  0  0  0  0
   45.8210   30.1760   46.0760 N   0  0  0  0  0  0  0  0  0  0  0  0
   44.7780   29.4230   45.7200 N   0  0  0  0  0  0  0  0  0  0  0  0
   44.5190   28.5150   46.6940 C   0  0  0  0  0  0  0  0  0  0  0  0
   45.4550   28.7530   47.6590 C   0  0  0  0  0  0  0  0  0  0  0  0
   46.2760   29.8140   47.2510 C   0  0  0  0  0  0  0  0  0  0  0  0
   47.3160   30.3190   48.1650 C   0  0  0  0  0  0  0  0  0  0  0  0
   48.6480   29.9730   48.0290 C   0  0  0  0  0  0  0  0  0  0  0  0
   49.4890   30.5180   48.9510 C   0  0  0  0  0  0  0  0  0  0  0  0
   48.6640   31.2350   49.7000 N   0  0  0  0  0  0  0  0  0  0  0  0
   47.4860   31.0880   49.2220 N   0  0  0  0  0  0  0  0  0  0  0  0
   45.3380   34.6830   44.3080 C   0  0  0  0  0  0  0  0  0  0  0  0
   44.7440   35.2240   45.2560 O   0  0  0  0  0  0  0  0  0  0  0  0
   45.2260   35.3730   43.0910 O   0  0  0  0  0  0  0  0  0  0  0  0
   44.1980   34.9590   42.2060 C   0  0  0  0  0  0  0  0  0  0  0  0
   43.5050   35.7630   41.3340 C   0  0  0  0  0  0  0  0  0  0  0  0
   42.5500   35.1650   40.5650 C   0  0  0  0  0  0  0  0  0  0  0  0
   42.2950   33.8490   40.6510 N   0  0  0  0  0  0  0  0  0  0  0  0
   42.9900   33.0700   41.5160 C   0  0  0  0  0  0  0  0  0  0  0  0
   43.9590   33.6340   42.3090 N   0  0  0  0  0  0  0  0  0  0  0  0
   42.7450   31.5980   41.6140 C   0  0  0  0  0  0  0  0  0  0  0  0
   43.7240   30.9160   42.5120 C   0  0  0  0  0  0  0  0  0  0  0  0
   41.3250   31.2930   42.0610 C   0  0  0  0  0  0  0  0  0  0  0  0
   48.8748   32.0741   43.2231 H   0  0  0  0  0  0  0  0  0  0  0  0
   48.0888   30.1600   44.6020 H   0  0  0  0  0  0  0  0  0  0  0  0
   43.7265   27.7522   46.7041 H   0  0  0  0  0  0  0  0  0  0  0  0
   45.5499   28.2006   48.6055 H   0  0  0  0  0  0  0  0  0  0  0  0
   49.0035   29.3040   47.2314 H   0  0  0  0  0  0  0  0  0  0  0  0
   50.5776   30.3943   49.0491 H   0  0  0  0  0  0  0  0  0  0  0  0
   48.9233   31.8060   50.5171 H   0  0  0  0  0  0  0  0  0  0  0  0
   43.7110   36.8410   41.2592 H   0  0  0  0  0  0  0  0  0  0  0  0
   41.9734   35.7768   39.8556 H   0  0  0  0  0  0  0  0  0  0  0  0
   42.8857   31.1982   40.5989 H   0  0  0  0  0  0  0  0  0  0  0  0
   43.4527   31.1050   43.5611 H   0  0  0  0  0  0  0  0  0  0  0  0
   43.7069   29.8333   42.3182 H   0  0  0  0  0  0  0  0  0  0  0  0
   44.7336   31.3073   42.3182 H   0  0  0  0  0  0  0  0  0  0  0  0
   41.2806   31.2835   43.1601 H   0  0  0  0  0  0  0  0  0  0  0  0
   40.6446   32.0655   41.6733 H   0  0  0  0  0  0  0  0  0  0  0  0
   41.0218   30.3093   41.6733 H   0  0  0  0  0  0  0  0  0  0  0  0
  1  2  2  0
  2  3  1  0
  3  7  1  0
  4  3  2  0
  5  4  1  0
  6  1  1  0
  6  5  2  0
  7 11  1  0
  8  7  1  0
  8  9  2  0
  9 10  1  0
 11 10  2  0
 11 12  1  0
 12 16  2  0
 13 12  1  0
 13 14  2  0
 14 15  1  0
 16 15  1  0
 17  5  1  0
 17 18  2  0
 19 17  1  0
 20 25  1  0
 20 19  1  0
 21 20  2  0
 22 23  2  0
 22 21  1  0
 23 24  1  0
 24 26  1  0
 24 25  2  0
 26 28  1  0
 26 27  1  0
  1 29  1  0
  2 30  1  0
  9 31  1  0
 10 32  1  0
 13 33  1  0
 14 34  1  0
 15 35  1  0
 21 36  1  0
 22 37  1  0
 26 38  1  0
 27 39  1  0
 27 40  1  0
 27 41  1  0
 28 42  1  0
 28 43  1  0
 28 44  1  0
M  ISO  8  29  14  30  14  31  14  32  14  33  14  34  14  35   9  36  14
M  ISO  8  37  14  38   8  39   8  40   8  41   8  42   8  43   8  44   8
M  END
>  <minimizedAffinity>  (1) 
-5.43478584

>  <minimizedRMSD>  (1) 
2.19451642

$$$$
