
     RDKit          3D

 44 47  0  0  0  0  0  0  0  0999 V2000
   45.3650   34.6880   44.1170 C   0  0  0  0  0  0  0  0  0  0  0  0
   44.7670   35.3070   45.0150 O   0  0  0  0  0  0  0  0  0  0  0  0
   47.9920   32.1470   43.9260 C   0  0  0  0  0  0  0  0  0  0  0  0
   47.4710   31.1030   44.6630 C   0  0  0  0  0  0  0  0  0  0  0  0
   46.2110   31.2470   45.2460 C   0  0  0  0  0  0  0  0  0  0  0  0
   45.5480   32.4560   45.0400 N   0  0  0  0  0  0  0  0  0  0  0  0
   46.1080   33.4470   44.3040 C   0  0  0  0  0  0  0  0  0  0  0  0
   47.3130   33.2930   43.7560 N   0  0  0  0  0  0  0  0  0  0  0  0
   45.6140   30.2280   46.0180 N   0  0  0  0  0  0  0  0  0  0  0  0
   44.8650   29.2590   45.5130 N   0  0  0  0  0  0  0  0  0  0  0  0
   44.4580   28.4330   46.5040 C   0  0  0  0  0  0  0  0  0  0  0  0
   45.0100   28.9630   47.6570 C   0  0  0  0  0  0  0  0  0  0  0  0
   45.7390   30.0990   47.3390 C   0  0  0  0  0  0  0  0  0  0  0  0
   46.3820   30.8630   48.4070 C   0  0  0  0  0  0  0  0  0  0  0  0
   46.2180   32.2880   48.6710 C   0  0  0  0  0  0  0  0  0  0  0  0
   45.3220   31.4100   49.4380 C   0  0  0  0  0  0  0  0  0  0  0  0
   45.2760   35.2830   42.8590 O   0  0  0  0  0  0  0  0  0  0  0  0
   44.1680   34.9240   42.0400 C   0  0  0  0  0  0  0  0  0  0  0  0
   43.4590   35.7540   41.2080 C   0  0  0  0  0  0  0  0  0  0  0  0
   42.4360   35.2090   40.5130 C   0  0  0  0  0  0  0  0  0  0  0  0
   42.1270   33.9140   40.6300 N   0  0  0  0  0  0  0  0  0  0  0  0
   42.8260   33.0940   41.4520 C   0  0  0  0  0  0  0  0  0  0  0  0
   43.8750   33.6120   42.1770 N   0  0  0  0  0  0  0  0  0  0  0  0
   42.5100   31.6320   41.5880 C   0  0  0  0  0  0  0  0  0  0  0  0
   43.4700   30.9290   42.4820 C   0  0  0  0  0  0  0  0  0  0  0  0
   41.0830   31.4200   42.0770 C   0  0  0  0  0  0  0  0  0  0  0  0
   48.9859   32.0379   43.4675 H   0  0  0  0  0  0  0  0  0  0  0  0
   48.0407   30.1705   44.7892 H   0  0  0  0  0  0  0  0  0  0  0  0
   43.8268   27.5367   46.4132 H   0  0  0  0  0  0  0  0  0  0  0  0
   44.8893   28.5478   48.6684 H   0  0  0  0  0  0  0  0  0  0  0  0
   47.3001   30.2621   48.3287 H   0  0  0  0  0  0  0  0  0  0  0  0
   47.0167   32.8300   49.1985 H   0  0  0  0  0  0  0  0  0  0  0  0
   46.0348   33.1522   48.0156 H   0  0  0  0  0  0  0  0  0  0  0  0
   44.2472   31.3707   49.2071 H   0  0  0  0  0  0  0  0  0  0  0  0
   45.0884   31.2456   50.5003 H   0  0  0  0  0  0  0  0  0  0  0  0
   43.7132   36.8198   41.1108 H   0  0  0  0  0  0  0  0  0  0  0  0
   41.8453   35.8446   39.8369 H   0  0  0  0  0  0  0  0  0  0  0  0
   42.6083   31.1946   40.5835 H   0  0  0  0  0  0  0  0  0  0  0  0
   43.2039   31.1239   43.5314 H   0  0  0  0  0  0  0  0  0  0  0  0
   43.4272   29.8471   42.2877 H   0  0  0  0  0  0  0  0  0  0  0  0
   44.4885   31.2964   42.2877 H   0  0  0  0  0  0  0  0  0  0  0  0
   41.0688   31.4179   43.1769 H   0  0  0  0  0  0  0  0  0  0  0  0
   40.4429   32.2329   41.7036 H   0  0  0  0  0  0  0  0  0  0  0  0
   40.7068   30.4561   41.7036 H   0  0  0  0  0  0  0  0  0  0  0  0
  1  7  1  0
  1  2  2  0
  3  4  2  0
  4  5  1  0
  5  9  1  0
  6  5  2  0
  7  6  1  0
  8  3  1  0
  8  7  2  0
  9 13  1  0
 10  9  1  0
 10 11  2  0
 11 12  1  0
 13 12  2  0
 13 14  1  0
 14 15  1  0
 14 16  1  0
 15 16  1  0
 17  1  1  0
 18 23  1  0
 18 17  1  0
 19 18  2  0
 20 21  2  0
 20 19  1  0
 21 22  1  0
 22 24  1  0
 22 23  2  0
 24 26  1  0
 24 25  1  0
  3 27  1  0
  4 28  1  0
 11 29  1  0
 12 30  1  0
 14 31  1  0
 15 32  1  0
 15 33  1  0
 16 34  1  0
 16 35  1  0
 19 36  1  0
 20 37  1  0
 24 38  1  0
 25 39  1  0
 25 40  1  0
 25 41  1  0
 26 42  1  0
 26 43  1  0
 26 44  1  0
M  ISO  8  27  14  28  14  29  14  30  14  31  13  32  13  33  13  34  13
M  ISO  8  35  13  36  14  37  14  38   8  39   8  40   8  41   8  42   8
M  ISO  2  43   8  44   8
M  END
>  <minimizedAffinity>  (1) 
-5.22182322

>  <minimizedRMSD>  (1) 
2.20435262

$$$$
