
     RDKit          3D

 44 47  0  0  0  0  0  0  0  0999 V2000
   45.3510   34.7410   44.2580 C   0  0  0  0  0  0  0  0  0  0  0  0
   44.7640   35.2760   45.2130 O   0  0  0  0  0  0  0  0  0  0  0  0
   47.9670   32.2500   43.6840 C   0  0  0  0  0  0  0  0  0  0  0  0
   47.5870   31.1910   44.4940 C   0  0  0  0  0  0  0  0  0  0  0  0
   46.4320   31.3200   45.2560 C   0  0  0  0  0  0  0  0  0  0  0  0
   45.7250   32.5180   45.1490 N   0  0  0  0  0  0  0  0  0  0  0  0
   46.1250   33.5230   44.3490 C   0  0  0  0  0  0  0  0  0  0  0  0
   47.2430   33.3880   43.6190 N   0  0  0  0  0  0  0  0  0  0  0  0
   45.9830   30.2890   46.1090 N   0  0  0  0  0  0  0  0  0  0  0  0
   44.9040   29.5480   45.8500 N   0  0  0  0  0  0  0  0  0  0  0  0
   44.7200   28.6510   46.8500 C   0  0  0  0  0  0  0  0  0  0  0  0
   45.7420   28.8820   47.7310 C   0  0  0  0  0  0  0  0  0  0  0  0
   46.5340   29.9280   47.2430 C   0  0  0  0  0  0  0  0  0  0  0  0
   47.6650   30.4110   48.0590 C   0  0  0  0  0  0  0  0  0  0  0  0
   48.9150   29.8180   48.0430 C   0  0  0  0  0  0  0  0  0  0  0  0
   49.8260   30.4000   48.8550 C   0  0  0  0  0  0  0  0  0  0  0  0
   49.1000   31.4120   49.4040 C   0  0  0  0  0  0  0  0  0  0  0  0
   47.9430   31.3380   48.9140 O   0  0  0  0  0  0  0  0  0  0  0  0
   45.2020   35.4230   43.0480 O   0  0  0  0  0  0  0  0  0  0  0  0
   44.1850   34.9860   42.1700 C   0  0  0  0  0  0  0  0  0  0  0  0
   43.4730   35.7580   41.2770 C   0  0  0  0  0  0  0  0  0  0  0  0
   42.5320   35.1350   40.5200 C   0  0  0  0  0  0  0  0  0  0  0  0
   42.2930   33.8120   40.6300 N   0  0  0  0  0  0  0  0  0  0  0  0
   42.9980   33.0640   41.5110 C   0  0  0  0  0  0  0  0  0  0  0  0
   43.9640   33.6650   42.2970 N   0  0  0  0  0  0  0  0  0  0  0  0
   42.7720   31.5880   41.6350 C   0  0  0  0  0  0  0  0  0  0  0  0
   43.7520   30.9380   42.5560 C   0  0  0  0  0  0  0  0  0  0  0  0
   41.3490   31.2820   42.0740 C   0  0  0  0  0  0  0  0  0  0  0  0
   48.8814   32.1610   43.0790 H   0  0  0  0  0  0  0  0  0  0  0  0
   48.1862   30.2694   44.5327 H   0  0  0  0  0  0  0  0  0  0  0  0
   43.9213   27.8994   46.9351 H   0  0  0  0  0  0  0  0  0  0  0  0
   45.9130   28.3347   48.6697 H   0  0  0  0  0  0  0  0  0  0  0  0
   49.1490   28.9427   47.4193 H   0  0  0  0  0  0  0  0  0  0  0  0
   50.8777   30.1273   49.0268 H   0  0  0  0  0  0  0  0  0  0  0  0
   49.4561   32.1524   50.1355 H   0  0  0  0  0  0  0  0  0  0  0  0
   43.6596   36.8378   41.1808 H   0  0  0  0  0  0  0  0  0  0  0  0
   41.9493   35.7257   39.7978 H   0  0  0  0  0  0  0  0  0  0  0  0
   42.9293   31.1631   40.6326 H   0  0  0  0  0  0  0  0  0  0  0  0
   43.4597   31.1319   43.5986 H   0  0  0  0  0  0  0  0  0  0  0  0
   43.7626   29.8532   42.3738 H   0  0  0  0  0  0  0  0  0  0  0  0
   44.7555   31.3502   42.3738 H   0  0  0  0  0  0  0  0  0  0  0  0
   41.2986   31.2712   43.1728 H   0  0  0  0  0  0  0  0  0  0  0  0
   40.6706   32.0548   41.6834 H   0  0  0  0  0  0  0  0  0  0  0  0
   41.0482   30.2986   41.6834 H   0  0  0  0  0  0  0  0  0  0  0  0
  1  7  1  0
  1  2  2  0
  3  4  2  0
  4  5  1  0
  5  9  1  0
  6  5  2  0
  7  6  1  0
  8  3  1  0
  8  7  2  0
  9 13  1  0
 10  9  1  0
 10 11  2  0
 11 12  1  0
 13 12  2  0
 13 14  1  0
 14 18  1  0
 15 14  2  0
 15 16  1  0
 16 17  2  0
 18 17  1  0
 19  1  1  0
 20 25  1  0
 20 19  1  0
 21 20  2  0
 22 23  2  0
 22 21  1  0
 23 24  1  0
 24 26  1  0
 24 25  2  0
 26 28  1  0
 26 27  1  0
  3 29  1  0
  4 30  1  0
 11 31  1  0
 12 32  1  0
 15 33  1  0
 16 34  1  0
 17 35  1  0
 21 36  1  0
 22 37  1  0
 26 38  1  0
 27 39  1  0
 27 40  1  0
 27 41  1  0
 28 42  1  0
 28 43  1  0
 28 44  1  0
M  ISO  8  29  14  30  14  31  14  32  14  33  14  34  14  35  14  36  14
M  ISO  8  37  14  38   8  39   8  40   8  41   8  42   8  43   8  44   8
M  END
>  <minimizedAffinity>  (1) 
-5.26205158

>  <minimizedRMSD>  (1) 
2.1425879

$$$$
