
     RDKit          3D

 30 31  0  0  0  0  0  0  0  0999 V2000
   46.2940   33.1330   46.3150 C   0  0  0  0  0  0  0  0  0  0  0  0
   45.8630   32.0080   47.1560 C   0  0  0  0  0  0  0  0  0  0  0  0
   45.7260   32.3850   48.5210 C   0  0  0  0  0  0  0  0  0  0  0  0
   45.3140   31.3990   49.4140 C   0  0  0  0  0  0  0  0  0  0  0  0
   45.0630   30.1490   48.9700 N   0  0  0  0  0  0  0  0  0  0  0  0
   45.2070   29.8230   47.6460 C   0  0  0  0  0  0  0  0  0  0  0  0
   45.6060   30.7690   46.7700 N   0  0  0  0  0  0  0  0  0  0  0  0
   46.9520   32.6830   45.0530 C   0  0  0  0  0  0  0  0  0  0  0  0
   46.5140   33.3240   43.8490 N   0  0  0  0  0  0  0  0  0  0  0  0
   45.5590   34.3590   44.2860 C   0  0  0  0  0  0  0  0  0  0  0  0
   44.7740   34.7190   43.0470 C   0  0  0  0  0  0  0  0  0  0  0  0
   45.6420   34.8370   41.9120 N   0  0  0  0  0  0  0  0  0  0  0  0
   47.0260   35.0810   42.2410 C   0  0  0  0  0  0  0  0  0  0  0  0
   47.5910   34.1040   43.2270 C   0  0  0  0  0  0  0  0  0  0  0  0
   45.4127   33.7386   46.0570 H   0  0  0  0  0  0  0  0  0  0  0  0
   47.0310   33.7155   46.8873 H   0  0  0  0  0  0  0  0  0  0  0  0
   45.9365   33.4112   48.8566 H   0  0  0  0  0  0  0  0  0  0  0  0
   45.1931   31.6386   50.4808 H   0  0  0  0  0  0  0  0  0  0  0  0
   44.9992   28.7995   47.3008 H   0  0  0  0  0  0  0  0  0  0  0  0
   48.0324   32.8626   45.1551 H   0  0  0  0  0  0  0  0  0  0  0  0
   46.6783   31.6237   44.9394 H   0  0  0  0  0  0  0  0  0  0  0  0
   44.8907   33.9635   45.0651 H   0  0  0  0  0  0  0  0  0  0  0  0
   46.0680   35.2325   44.7195 H   0  0  0  0  0  0  0  0  0  0  0  0
   44.0287   33.9340   42.8512 H   0  0  0  0  0  0  0  0  0  0  0  0
   44.2763   35.6859   43.2129 H   0  0  0  0  0  0  0  0  0  0  0  0
   45.3069   35.6182   41.3303 H   0  0  0  0  0  0  0  0  0  0  0  0
   47.6185   35.0231   41.3160 H   0  0  0  0  0  0  0  0  0  0  0  0
   47.0752   36.0754   42.7087 H   0  0  0  0  0  0  0  0  0  0  0  0
   48.2792   33.4213   42.7071 H   0  0  0  0  0  0  0  0  0  0  0  0
   48.1285   34.6582   44.0105 H   0  0  0  0  0  0  0  0  0  0  0  0
  1  2  1  0
  2  3  2  0
  3  4  1  0
  5  4  2  0
  6  5  1  0
  7  2  1  0
  7  6  2  0
  8  1  1  0
  9 10  1  0
  9  8  1  0
 11 10  1  0
 12 13  1  0
 12 11  1  0
 13 14  1  0
 14  9  1  0
  1 15  1  0
  1 16  1  0
  3 17  1  0
  4 18  1  0
  6 19  1  0
  8 20  1  0
  8 21  1  0
 10 22  1  0
 10 23  1  0
 11 24  1  0
 11 25  1  0
 12 26  1  0
 13 27  1  0
 13 28  1  0
 14 29  1  0
 14 30  1  0
M  ISO  8  15   8  16   8  17  14  18  14  19  14  20   8  21   8  22  13
M  ISO  8  23  13  24  13  25  13  26   5  27  13  28  13  29  13  30  13
M  END
>  <minimizedAffinity>  (1) 
-4.08154726

>  <minimizedRMSD>  (1) 
5.37813759

$$$$
