
     RDKit          3D

 50 53  0  0  0  0  0  0  0  0999 V2000
   45.7060   34.2430   42.9920 C   0  0  0  0  0  0  0  0  0  0  0  0
   45.5620   35.2240   43.7260 O   0  0  0  0  0  0  0  0  0  0  0  0
   48.1400   31.5790   43.5870 C   0  0  0  0  0  0  0  0  0  0  0  0
   47.3760   30.5820   44.1680 C   0  0  0  0  0  0  0  0  0  0  0  0
   46.0110   30.8040   44.3710 C   0  0  0  0  0  0  0  0  0  0  0  0
   45.5220   32.0260   43.9670 N   0  0  0  0  0  0  0  0  0  0  0  0
   46.2920   32.9750   43.4040 C   0  0  0  0  0  0  0  0  0  0  0  0
   47.5920   32.7530   43.2150 N   0  0  0  0  0  0  0  0  0  0  0  0
   45.1710   29.8300   44.9570 N   0  0  0  0  0  0  0  0  0  0  0  0
   44.4020   29.0200   44.2610 N   0  0  0  0  0  0  0  0  0  0  0  0
   43.7190   28.2020   45.1120 C   0  0  0  0  0  0  0  0  0  0  0  0
   44.1350   28.5820   46.3690 C   0  0  0  0  0  0  0  0  0  0  0  0
   45.0620   29.6210   46.2840 C   0  0  0  0  0  0  0  0  0  0  0  0
   45.6410   30.1920   47.4460 N   0  0  0  0  0  0  0  0  0  0  0  0
   47.0170   30.0720   47.9570 C   0  0  0  0  0  0  0  0  0  0  0  0
   47.6360   31.4470   47.8310 C   0  0  0  0  0  0  0  0  0  0  0  0
   46.9590   32.2570   48.7410 O   0  0  0  0  0  0  0  0  0  0  0  0
   45.6440   32.4150   48.3080 C   0  0  0  0  0  0  0  0  0  0  0  0
   44.8800   31.0790   48.3480 C   0  0  0  0  0  0  0  0  0  0  0  0
   45.2520   34.4330   41.6790 O   0  0  0  0  0  0  0  0  0  0  0  0
   43.8510   34.5300   41.4780 C   0  0  0  0  0  0  0  0  0  0  0  0
   43.1360   35.6750   41.2420 C   0  0  0  0  0  0  0  0  0  0  0  0
   41.7910   35.5380   41.0710 C   0  0  0  0  0  0  0  0  0  0  0  0
   41.1940   34.3470   41.1300 N   0  0  0  0  0  0  0  0  0  0  0  0
   41.9090   33.2190   41.3650 C   0  0  0  0  0  0  0  0  0  0  0  0
   43.2800   33.3130   41.5440 N   0  0  0  0  0  0  0  0  0  0  0  0
   41.2630   31.8700   41.4230 C   0  0  0  0  0  0  0  0  0  0  0  0
   41.9610   30.9380   42.3630 C   0  0  0  0  0  0  0  0  0  0  0  0
   39.7890   31.9840   41.7870 C   0  0  0  0  0  0  0  0  0  0  0  0
   49.2149   31.4102   43.4257 H   0  0  0  0  0  0  0  0  0  0  0  0
   47.8364   29.6284   44.4658 H   0  0  0  0  0  0  0  0  0  0  0  0
   42.9966   27.4141   44.8524 H   0  0  0  0  0  0  0  0  0  0  0  0
   43.7851   28.1294   47.3085 H   0  0  0  0  0  0  0  0  0  0  0  0
   47.0063   29.7538   49.0099 H   0  0  0  0  0  0  0  0  0  0  0  0
   47.5899   29.3214   47.3927 H   0  0  0  0  0  0  0  0  0  0  0  0
   48.7074   31.4080   48.0771 H   0  0  0  0  0  0  0  0  0  0  0  0
   47.5514   31.8349   46.8051 H   0  0  0  0  0  0  0  0  0  0  0  0
   45.6494   32.7944   47.2755 H   0  0  0  0  0  0  0  0  0  0  0  0
   45.1392   33.1250   48.9796 H   0  0  0  0  0  0  0  0  0  0  0  0
   43.8492   31.2094   47.9868 H   0  0  0  0  0  0  0  0  0  0  0  0
   44.8012   30.6721   49.3669 H   0  0  0  0  0  0  0  0  0  0  0  0
   43.6251   36.6591   41.1929 H   0  0  0  0  0  0  0  0  0  0  0  0
   41.1816   36.4335   40.8792 H   0  0  0  0  0  0  0  0  0  0  0  0
   41.3484   31.4398   40.4142 H   0  0  0  0  0  0  0  0  0  0  0  0
   41.7415   31.2311   43.4003 H   0  0  0  0  0  0  0  0  0  0  0  0
   41.6084   29.9105   42.1898 H   0  0  0  0  0  0  0  0  0  0  0  0
   43.0462   30.9873   42.1898 H   0  0  0  0  0  0  0  0  0  0  0  0
   39.6812   31.9923   42.8817 H   0  0  0  0  0  0  0  0  0  0  0  0
   39.3797   32.9165   41.3712 H   0  0  0  0  0  0  0  0  0  0  0  0
   39.2412   31.1255   41.3712 H   0  0  0  0  0  0  0  0  0  0  0  0
  1  7  1  0
  1  2  2  0
  3  4  2  0
  4  5  1  0
  5  9  1  0
  6  5  2  0
  7  6  1  0
  8  7  2  0
  8  3  1  0
  9 13  1  0
 10  9  1  0
 10 11  2  0
 11 12  1  0
 13 12  2  0
 13 14  1  0
 14 15  1  0
 14 19  1  0
 16 15  1  0
 16 17  1  0
 18 19  1  0
 18 17  1  0
 20  1  1  0
 21 26  1  0
 21 20  1  0
 22 21  2  0
 23 24  2  0
 23 22  1  0
 24 25  1  0
 25 27  1  0
 25 26  2  0
 27 29  1  0
 27 28  1  0
  3 30  1  0
  4 31  1  0
 11 32  1  0
 12 33  1  0
 15 34  1  0
 15 35  1  0
 16 36  1  0
 16 37  1  0
 18 38  1  0
 18 39  1  0
 19 40  1  0
 19 41  1  0
 22 42  1  0
 23 43  1  0
 27 44  1  0
 28 45  1  0
 28 46  1  0
 28 47  1  0
 29 48  1  0
 29 49  1  0
 29 50  1  0
M  ISO  8  30  14  31  14  32  14  33  14  34  13  35  13  36  13  37  13
M  ISO  8  38  13  39  13  40  13  41  13  42  14  43  14  44   8  45   8
M  ISO  5  46   8  47   8  48   8  49   8  50   8
M  END
>  <minimizedAffinity>  (1) 
-5.17151213

>  <minimizedRMSD>  (1) 
3.16881013

$$$$
