
     RDKit          3D

 38 40  0  0  0  0  0  0  0  0999 V2000
   45.9230   34.7540   43.8570 O   0  0  0  0  0  0  0  0  0  0  0  0
   44.8780   34.7410   42.8900 C   0  0  0  0  0  0  0  0  0  0  0  0
   44.3750   35.8240   42.2070 C   0  0  0  0  0  0  0  0  0  0  0  0
   43.3800   35.5890   41.3290 C   0  0  0  0  0  0  0  0  0  0  0  0
   42.8890   34.3480   41.1210 N   0  0  0  0  0  0  0  0  0  0  0  0
   43.3910   33.2900   41.7990 C   0  0  0  0  0  0  0  0  0  0  0  0
   44.4090   33.4820   42.7060 N   0  0  0  0  0  0  0  0  0  0  0  0
   42.8840   31.8950   41.5800 C   0  0  0  0  0  0  0  0  0  0  0  0
   43.5010   30.9110   42.5050 C   0  0  0  0  0  0  0  0  0  0  0  0
   41.3660   31.8330   41.6690 C   0  0  0  0  0  0  0  0  0  0  0  0
   45.8620   33.8260   44.8940 C   0  0  0  0  0  0  0  0  0  0  0  0
   45.2500   34.2430   45.8870 O   0  0  0  0  0  0  0  0  0  0  0  0
   48.0800   31.1220   43.8560 C   0  0  0  0  0  0  0  0  0  0  0  0
   47.6080   30.0360   44.5650 C   0  0  0  0  0  0  0  0  0  0  0  0
   46.5170   30.2060   45.4150 C   0  0  0  0  0  0  0  0  0  0  0  0
   45.9800   31.4800   45.4850 N   0  0  0  0  0  0  0  0  0  0  0  0
   46.4640   32.5170   44.7800 C   0  0  0  0  0  0  0  0  0  0  0  0
   47.5130   32.3350   43.9680 N   0  0  0  0  0  0  0  0  0  0  0  0
   45.9790   29.1460   46.1770 N   0  0  0  0  0  0  0  0  0  0  0  0
   44.7160   28.7510   46.1030 N   0  0  0  0  0  0  0  0  0  0  0  0
   44.5100   27.7180   46.9520 C   0  0  0  0  0  0  0  0  0  0  0  0
   45.7360   27.5060   47.5530 C   0  0  0  0  0  0  0  0  0  0  0  0
   46.6590   28.4130   47.0580 C   0  0  0  0  0  0  0  0  0  0  0  0
   48.3280   28.4200   47.6270 S   0  0  0  0  0  0  0  0  0  0  0  0
   44.7681   36.8383   42.3705 H   0  0  0  0  0  0  0  0  0  0  0  0
   42.9552   36.4326   40.7652 H   0  0  0  0  0  0  0  0  0  0  0  0
   43.1849   31.6159   40.5595 H   0  0  0  0  0  0  0  0  0  0  0  0
   43.3101   31.2154   43.5447 H   0  0  0  0  0  0  0  0  0  0  0  0
   43.0641   29.9172   42.3278 H   0  0  0  0  0  0  0  0  0  0  0  0
   44.5859   30.8714   42.3278 H   0  0  0  0  0  0  0  0  0  0  0  0
   41.0609   31.8205   42.7258 H   0  0  0  0  0  0  0  0  0  0  0  0
   40.9333   32.7142   41.1728 H   0  0  0  0  0  0  0  0  0  0  0  0
   41.0066   30.9194   41.1728 H   0  0  0  0  0  0  0  0  0  0  0  0
   48.9406   30.9914   43.1834 H   0  0  0  0  0  0  0  0  0  0  0  0
   48.0860   29.0508   44.4606 H   0  0  0  0  0  0  0  0  0  0  0  0
   43.5732   27.1682   47.1255 H   0  0  0  0  0  0  0  0  0  0  0  0
   45.9469   26.7351   48.3088 H   0  0  0  0  0  0  0  0  0  0  0  0
   48.3434   28.4201   48.9969 H   0  0  0  0  0  0  0  0  0  0  0  0
  1 11  1  0
  2  1  1  0
  3  2  2  0
  4  3  1  0
  5  4  2  0
  5  6  1  0
  6  7  2  0
  7  2  1  0
  8 10  1  0
  8  6  1  0
  8  9  1  0
 11 12  2  0
 13 18  2  0
 13 14  1  0
 14 15  2  0
 15 16  1  0
 15 19  1  0
 17 11  1  0
 17 16  2  0
 18 17  1  0
 19 23  1  0
 20 19  1  0
 20 21  2  0
 21 22  1  0
 23 22  2  0
 23 24  1  0
  3 25  1  0
  4 26  1  0
  8 27  1  0
  9 28  1  0
  9 29  1  0
  9 30  1  0
 10 31  1  0
 10 32  1  0
 10 33  1  0
 13 34  1  0
 14 35  1  0
 21 36  1  0
 22 37  1  0
 24 38  1  0
M  ISO  8  25  14  26  14  27   8  28   8  29   8  30   8  31   8  32   8
M  ISO  6  33   8  34  14  35  14  36  14  37  14  38  11
M  END
>  <minimizedAffinity>  (1) 
-4.25537348

>  <minimizedRMSD>  (1) 
0.416791111

$$$$
