
     RDKit          3D

 17 18  0  0  0  0  0  0  0  0999 V2000
   44.5810   35.8910   44.3540 C   0  0  0  0  0  0  0  0  0  0  0  0
   45.3780   35.9180   43.1840 C   0  0  0  0  0  0  0  0  0  0  0  0
   46.3650   34.9410   43.0570 C   0  0  0  0  0  0  0  0  0  0  0  0
   46.5190   34.0210   44.0420 N   0  0  0  0  0  0  0  0  0  0  0  0
   45.7330   34.0260   45.1550 C   0  0  0  0  0  0  0  0  0  0  0  0
   44.7730   34.9550   45.3070 N   0  0  0  0  0  0  0  0  0  0  0  0
   47.2110   34.9160   41.8840 C   0  0  0  0  0  0  0  0  0  0  0  0
   46.9600   34.2170   40.7270 C   0  0  0  0  0  0  0  0  0  0  0  0
   48.0100   34.4610   39.8590 C   0  0  0  0  0  0  0  0  0  0  0  0
   48.8390   35.2980   40.5460 N   0  0  0  0  0  0  0  0  0  0  0  0
   48.3730   35.5730   41.7490 N   0  0  0  0  0  0  0  0  0  0  0  0
   43.7921   36.6457   44.4884 H   0  0  0  0  0  0  0  0  0  0  0  0
   45.2246   36.6799   42.4056 H   0  0  0  0  0  0  0  0  0  0  0  0
   45.8849   33.2648   45.9345 H   0  0  0  0  0  0  0  0  0  0  0  0
   46.0852   33.5806   40.5278 H   0  0  0  0  0  0  0  0  0  0  0  0
   48.1457   34.0672   38.8409 H   0  0  0  0  0  0  0  0  0  0  0  0
   49.7228   35.6707   40.1706 H   0  0  0  0  0  0  0  0  0  0  0  0
  1  6  2  0
  2  1  1  0
  3  2  2  0
  3  4  1  0
  4  5  2  0
  5  6  1  0
  7  3  1  0
  8  7  1  0
  9 10  1  0
  9  8  2  0
 10 11  1  0
 11  7  2  0
  1 12  1  0
  2 13  1  0
  5 14  1  0
  8 15  1  0
  9 16  1  0
 10 17  1  0
M  ISO  6  12  14  13  14  14  14  15  14  16  14  17   9
M  END
>  <minimizedAffinity>  (1) 
-4.47223282

>  <minimizedRMSD>  (1) 
0.810245752

$$$$
