
     RDKit          3D

 31 33  0  0  0  0  0  0  0  0999 V2000
   44.3270   35.9930   44.8490 C   0  0  0  0  0  0  0  0  0  0  0  0
   44.6890   35.7430   43.4950 C   0  0  0  0  0  0  0  0  0  0  0  0
   45.4160   34.6040   43.2580 C   0  0  0  0  0  0  0  0  0  0  0  0
   45.7450   33.7910   44.3120 N   0  0  0  0  0  0  0  0  0  0  0  0
   45.3780   34.0680   45.5880 C   0  0  0  0  0  0  0  0  0  0  0  0
   44.6740   35.1610   45.8490 N   0  0  0  0  0  0  0  0  0  0  0  0
   45.8380   33.0680   46.5200 N   0  0  0  0  0  0  0  0  0  0  0  0
   45.3540   32.9990   47.7720 C   0  0  0  0  0  0  0  0  0  0  0  0
   45.8790   31.9970   48.5620 C   0  0  0  0  0  0  0  0  0  0  0  0
   46.8410   31.0920   48.1500 C   0  0  0  0  0  0  0  0  0  0  0  0
   47.3740   30.0730   48.9560 N   0  0  0  0  0  0  0  0  0  0  0  0
   47.3050   31.1980   46.8720 N   0  0  0  0  0  0  0  0  0  0  0  0
   46.7740   32.1960   46.1050 C   0  0  0  0  0  0  0  0  0  0  0  0
   47.2320   32.2660   44.9130 O   0  0  0  0  0  0  0  0  0  0  0  0
   45.8400   34.2480   41.9220 C   0  0  0  0  0  0  0  0  0  0  0  0
   45.1410   33.4790   41.0310 C   0  0  0  0  0  0  0  0  0  0  0  0
   45.9180   33.3940   39.8750 C   0  0  0  0  0  0  0  0  0  0  0  0
   47.0270   34.1100   40.1370 N   0  0  0  0  0  0  0  0  0  0  0  0
   46.9940   34.6250   41.3530 N   0  0  0  0  0  0  0  0  0  0  0  0
   48.1420   34.3090   39.2080 C   0  0  0  0  0  0  0  0  0  0  0  0
   48.7950   35.4720   39.5460 F   0  0  0  0  0  0  0  0  0  0  0  0
   47.7230   34.3840   37.9080 F   0  0  0  0  0  0  0  0  0  0  0  0
   49.0300   33.2360   39.2930 F   0  0  0  0  0  0  0  0  0  0  0  0
   43.7446   36.8956   45.0859 H   0  0  0  0  0  0  0  0  0  0  0  0
   44.4012   36.4264   42.6825 H   0  0  0  0  0  0  0  0  0  0  0  0
   44.5886   33.6965   48.1430 H   0  0  0  0  0  0  0  0  0  0  0  0
   45.5060   31.9116   49.5933 H   0  0  0  0  0  0  0  0  0  0  0  0
   48.0894   29.4369   48.5760 H   0  0  0  0  0  0  0  0  0  0  0  0
   47.0495   29.9618   49.9272 H   0  0  0  0  0  0  0  0  0  0  0  0
   44.1563   33.0170   41.1948 H   0  0  0  0  0  0  0  0  0  0  0  0
   45.6755   32.8560   38.9467 H   0  0  0  0  0  0  0  0  0  0  0  0
  1  6  2  0
  2  1  1  0
  3  2  2  0
  3  4  1  0
  4  5  2  0
  5  6  1  0
  5  7  1  0
  7  8  1  0
  8  9  2  0
 10  9  1  0
 10 11  1  0
 12 10  2  0
 13  7  1  0
 13 12  1  0
 14 13  2  0
 15  3  1  0
 16 15  1  0
 17 18  1  0
 17 16  2  0
 18 19  1  0
 19 15  2  0
 20 23  1  0
 20 21  1  0
 20 18  1  0
 22 20  1  0
  1 24  1  0
  2 25  1  0
  8 26  1  0
  9 27  1  0
 11 28  1  0
 11 29  1  0
 16 30  1  0
 17 31  1  0
M  ISO  6  24  14  25  14  26  14  27  14  30  14  31  14
M  END
>  <minimizedAffinity>  (1) 
-6.74319124

>  <minimizedRMSD>  (1) 
0.161281332

$$$$
