
     RDKit          3D

 34 37  0  0  0  0  0  0  0  0999 V2000
   45.0410   33.4900   47.2410 C   0  0  0  0  0  0  0  0  0  0  0  0
   45.2540   34.1010   45.9720 C   0  0  0  0  0  0  0  0  0  0  0  0
   46.2350   33.5400   45.1700 C   0  0  0  0  0  0  0  0  0  0  0  0
   46.9300   32.4650   45.6160 N   0  0  0  0  0  0  0  0  0  0  0  0
   46.6940   31.9090   46.8400 C   0  0  0  0  0  0  0  0  0  0  0  0
   45.7640   32.4150   47.6370 N   0  0  0  0  0  0  0  0  0  0  0  0
   47.4700   30.7520   47.2700 C   0  0  0  0  0  0  0  0  0  0  0  0
   47.3950   29.4750   46.7560 C   0  0  0  0  0  0  0  0  0  0  0  0
   48.2740   28.6910   47.4220 N   0  0  0  0  0  0  0  0  0  0  0  0
   48.9440   29.3960   48.3710 C   0  0  0  0  0  0  0  0  0  0  0  0
   49.9150   29.0660   49.2890 C   0  0  0  0  0  0  0  0  0  0  0  0
   50.4190   30.0000   50.1420 C   0  0  0  0  0  0  0  0  0  0  0  0
   49.9220   31.2920   50.0540 C   0  0  0  0  0  0  0  0  0  0  0  0
   48.9420   31.6170   49.1250 C   0  0  0  0  0  0  0  0  0  0  0  0
   48.4290   30.6710   48.2590 C   0  0  0  0  0  0  0  0  0  0  0  0
   46.5200   34.0870   43.8770 C   0  0  0  0  0  0  0  0  0  0  0  0
   45.5900   34.4460   42.9130 C   0  0  0  0  0  0  0  0  0  0  0  0
   46.2810   34.9270   41.8210 C   0  0  0  0  0  0  0  0  0  0  0  0
   47.5800   34.8420   42.1600 N   0  0  0  0  0  0  0  0  0  0  0  0
   47.7280   34.3470   43.3700 N   0  0  0  0  0  0  0  0  0  0  0  0
   48.7210   35.2370   41.3220 C   0  0  0  0  0  0  0  0  0  0  0  0
   49.1470   36.4800   41.6960 F   0  0  0  0  0  0  0  0  0  0  0  0
   48.3830   35.2360   39.9900 F   0  0  0  0  0  0  0  0  0  0  0  0
   49.7530   34.3070   41.4780 F   0  0  0  0  0  0  0  0  0  0  0  0
   44.2731   33.8998   47.9137 H   0  0  0  0  0  0  0  0  0  0  0  0
   44.6695   34.9737   45.6453 H   0  0  0  0  0  0  0  0  0  0  0  0
   46.7320   29.1483   45.9413 H   0  0  0  0  0  0  0  0  0  0  0  0
   48.4169   27.6885   47.2338 H   0  0  0  0  0  0  0  0  0  0  0  0
   50.2893   28.0326   49.3342 H   0  0  0  0  0  0  0  0  0  0  0  0
   51.1948   29.7386   50.8767 H   0  0  0  0  0  0  0  0  0  0  0  0
   50.3092   32.0695   50.7289 H   0  0  0  0  0  0  0  0  0  0  0  0
   48.5663   32.6498   49.0779 H   0  0  0  0  0  0  0  0  0  0  0  0
   44.4969   34.3621   43.0033 H   0  0  0  0  0  0  0  0  0  0  0  0
   45.8603   35.3001   40.8756 H   0  0  0  0  0  0  0  0  0  0  0  0
  1  6  2  0
  2  1  1  0
  3  4  1  0
  3  2  2  0
  4  5  2  0
  5  7  1  0
  5  6  1  0
  7 15  1  0
  8  7  2  0
  8  9  1  0
  9 10  1  0
 10 11  2  0
 11 12  1  0
 13 12  2  0
 14 13  1  0
 15 10  1  0
 15 14  2  0
 16  3  1  0
 17 16  1  0
 18 19  1  0
 18 17  2  0
 19 20  1  0
 20 16  2  0
 21 24  1  0
 21 22  1  0
 21 19  1  0
 23 21  1  0
  1 25  1  0
  2 26  1  0
  8 27  1  0
  9 28  1  0
 11 29  1  0
 12 30  1  0
 13 31  1  0
 14 32  1  0
 17 33  1  0
 18 34  1  0
M  ISO  8  25  14  26  14  27  14  28   9  29  14  30  14  31  14  32  14
M  ISO  2  33  14  34  14
M  END
>  <minimizedAffinity>  (1) 
-6.48768473

>  <minimizedRMSD>  (1) 
2.81911612

$$$$
