
     RDKit          3D

 34 37  0  0  0  0  0  0  0  0999 V2000
   45.4680   31.7250   49.1500 C   0  0  0  0  0  0  0  0  0  0  0  0
   45.2920   32.5450   48.0040 C   0  0  0  0  0  0  0  0  0  0  0  0
   46.2660   32.4440   47.0350 C   0  0  0  0  0  0  0  0  0  0  0  0
   47.3230   31.5910   47.2090 N   0  0  0  0  0  0  0  0  0  0  0  0
   47.4430   30.8290   48.3250 C   0  0  0  0  0  0  0  0  0  0  0  0
   46.5250   30.8940   49.2880 N   0  0  0  0  0  0  0  0  0  0  0  0
   48.5780   29.9750   48.4110 N   0  0  0  0  0  0  0  0  0  0  0  0
   48.8820   28.8070   47.8320 C   0  0  0  0  0  0  0  0  0  0  0  0
   50.0810   28.4100   48.2480 N   0  0  0  0  0  0  0  0  0  0  0  0
   50.5640   29.3200   49.1010 C   0  0  0  0  0  0  0  0  0  0  0  0
   51.7330   29.4330   49.8260 C   0  0  0  0  0  0  0  0  0  0  0  0
   52.6290   28.5520   49.7630 O   0  0  0  0  0  0  0  0  0  0  0  0
   51.9740   30.4760   50.6300 N   0  0  0  0  0  0  0  0  0  0  0  0
   51.0370   31.4410   50.7250 C   0  0  0  0  0  0  0  0  0  0  0  0
   51.0700   32.6300   51.5060 N   0  0  0  0  0  0  0  0  0  0  0  0
   49.8930   31.3440   50.0240 N   0  0  0  0  0  0  0  0  0  0  0  0
   49.6260   30.3030   49.2070 C   0  0  0  0  0  0  0  0  0  0  0  0
   46.1870   33.2330   45.8290 C   0  0  0  0  0  0  0  0  0  0  0  0
   46.8990   33.0440   44.6780 C   0  0  0  0  0  0  0  0  0  0  0  0
   46.5160   34.0230   43.7740 C   0  0  0  0  0  0  0  0  0  0  0  0
   45.5840   34.7580   44.4320 N   0  0  0  0  0  0  0  0  0  0  0  0
   45.3820   34.3000   45.6470 N   0  0  0  0  0  0  0  0  0  0  0  0
   44.8850   35.9110   43.8810 C   0  0  0  0  0  0  0  0  0  0  0  0
   44.7250   36.8570   44.8730 F   0  0  0  0  0  0  0  0  0  0  0  0
   43.6630   35.5740   43.3500 F   0  0  0  0  0  0  0  0  0  0  0  0
   45.6430   36.4690   42.8300 F   0  0  0  0  0  0  0  0  0  0  0  0
   44.7179   31.7676   49.9534 H   0  0  0  0  0  0  0  0  0  0  0  0
   44.4301   33.2200   47.8965 H   0  0  0  0  0  0  0  0  0  0  0  0
   48.2410   28.2616   47.1237 H   0  0  0  0  0  0  0  0  0  0  0  0
   52.8532   30.5397   51.1627 H   0  0  0  0  0  0  0  0  0  0  0  0
   50.2751   33.2846   51.4814 H   0  0  0  0  0  0  0  0  0  0  0  0
   51.8888   32.8361   52.0960 H   0  0  0  0  0  0  0  0  0  0  0  0
   47.6442   32.2547   44.5002 H   0  0  0  0  0  0  0  0  0  0  0  0
   46.8862   34.1714   42.7488 H   0  0  0  0  0  0  0  0  0  0  0  0
  1  6  2  0
  2  1  1  0
  3  4  1  0
  3  2  2  0
  4  5  2  0
  5  7  1  0
  5  6  1  0
  7 17  1  0
  8  9  2  0
  8  7  1  0
  9 10  1  0
 10 17  2  0
 10 11  1  0
 11 13  1  0
 12 11  2  0
 13 14  1  0
 14 15  1  0
 16 14  2  0
 17 16  1  0
 18  3  1  0
 19 18  1  0
 20 21  1  0
 20 19  2  0
 21 22  1  0
 22 18  2  0
 23 21  1  0
 23 24  1  0
 25 23  1  0
 26 23  1  0
  1 27  1  0
  2 28  1  0
  8 29  1  0
 13 30  1  0
 15 31  1  0
 15 32  1  0
 19 33  1  0
 20 34  1  0
M  ISO  6  27  14  28  14  29  14  30   9  33  14  34  14
M  END
>  <minimizedAffinity>  (1) 
-7.0361867

>  <minimizedRMSD>  (1) 
5.01562595

$$$$
