
     RDKit          3D

 38 41  0  0  1  0  0  0  0  0999 V2000
   45.0680   33.4280   47.2940 C   0  0  0  0  0  0  0  0  0  0  0  0
   45.3630   34.0880   46.0800 C   0  0  0  0  0  0  0  0  0  0  0  0
   46.0690   33.4210   45.1220 C   0  0  0  0  0  0  0  0  0  0  0  0
   46.4340   32.1560   45.4250 N   0  0  0  0  0  0  0  0  0  0  0  0
   46.1500   31.5220   46.5890 C   0  0  0  0  0  0  0  0  0  0  0  0
   45.4710   32.1780   47.4990 N   0  0  0  0  0  0  0  0  0  0  0  0
   46.8010   30.2890   46.4710 C   0  0  0  0  0  0  0  0  0  0  0  0
   47.3790   29.1900   46.3660 N   0  0  0  0  0  0  0  0  0  0  0  0
   47.7830   28.0910   46.1060 C   0  0  0  0  0  0  0  0  0  0  0  0
   48.7500   28.2430   47.0200 N   0  0  0  0  0  0  0  0  0  0  0  0
   48.8170   29.4140   47.7220 C   0  0  0  0  0  0  0  0  0  0  0  0
   49.8740   29.4650   48.6880 C   0  0  0  0  0  0  0  0  0  0  0  0
   49.9670   30.6060   49.4290 C   0  0  0  0  0  0  0  0  0  0  0  0
   49.1490   31.7010   49.3380 C   0  0  0  0  0  0  0  0  0  0  0  0
   48.1790   31.5120   48.3680 C   0  0  0  0  0  0  0  0  0  0  0  0
   47.8580   30.4440   47.4630 C   0  0  0  0  0  0  0  0  0  0  0  0
   46.3970   34.0190   43.8540 C   0  0  0  0  0  0  0  0  0  0  0  0
   45.4900   34.4150   42.8860 C   0  0  0  0  0  0  0  0  0  0  0  0
   46.2290   34.9190   41.8290 C   0  0  0  0  0  0  0  0  0  0  0  0
   47.5250   34.8000   42.2120 N   0  0  0  0  0  0  0  0  0  0  0  0
   47.6300   34.2660   43.4180 N   0  0  0  0  0  0  0  0  0  0  0  0
   48.6910   35.1950   41.4200 C   0  0  0  0  0  0  0  0  0  0  0  0
   49.0950   36.4520   41.8130 F   0  0  0  0  0  0  0  0  0  0  0  0
   48.4220   35.1680   40.0770 F   0  0  0  0  0  0  0  0  0  0  0  0
   49.7470   34.2850   41.6440 F   0  0  0  0  0  0  0  0  0  0  0  0
   44.5000   33.9531   48.0761 H   0  0  0  0  0  0  0  0  0  0  0  0
   45.0290   35.1222   45.9102 H   0  0  0  0  0  0  0  0  0  0  0  0
   47.4623   30.7119   45.7003 H   0  0  0  0  0  0  0  0  0  0  0  0
   48.2990   29.6259   46.2093 H   0  0  0  0  0  0  0  0  0  0  0  0
   47.0712   27.2835   46.3325 H   0  0  0  0  0  0  0  0  0  0  0  0
   48.0285   27.8139   45.0702 H   0  0  0  0  0  0  0  0  0  0  0  0
   49.4318   27.4902   47.1911 H   0  0  0  0  0  0  0  0  0  0  0  0
   50.5739   28.6275   48.8247 H   0  0  0  0  0  0  0  0  0  0  0  0
   50.7772   30.6515   50.1716 H   0  0  0  0  0  0  0  0  0  0  0  0
   49.2491   32.6079   49.9524 H   0  0  0  0  0  0  0  0  0  0  0  0
   47.5022   32.3734   48.2682 H   0  0  0  0  0  0  0  0  0  0  0  0
   44.3939   34.3432   42.9451 H   0  0  0  0  0  0  0  0  0  0  0  0
   45.8472   35.3281   40.8820 H   0  0  0  0  0  0  0  0  0  0  0  0
  1  6  2  0
  2  1  1  0
  3  4  1  0
  3  2  2  0
  4  5  2  0
  5  6  1  0
  7  5  1  0
  7 16  1  0
  8  7  1  0
  9  8  1  0
  9 10  1  0
 10 11  1  0
 11 12  2  0
 12 13  1  0
 14 13  2  0
 15 14  1  0
 16 11  1  0
 16 15  2  0
 17  3  1  0
 18 17  1  0
 19 20  1  0
 19 18  2  0
 20 21  1  0
 21 17  2  0
 22 25  1  0
 22 23  1  0
 22 20  1  0
 24 22  1  0
  1 26  1  0
  2 27  1  0
  7 28  1  0
  8 29  1  0
  9 30  1  0
  9 31  1  0
 10 32  1  0
 12 33  1  0
 13 34  1  0
 14 35  1  0
 15 36  1  0
 18 37  1  0
 19 38  1  0
M  ISO  8  26  14  27  14  28  13  29   5  30  13  31  13  33  14  34  14
M  ISO  4  35  14  36  14  37  14  38  14
M  END
>  <minimizedAffinity>  (1) 
-6.2593112

>  <minimizedRMSD>  (1) 
3.08055997

$$$$
