
     RDKit          3D

 35 37  0  0  0  0  0  0  0  0999 V2000
   44.3870   35.5510   45.6910 C   0  0  0  0  0  0  0  0  0  0  0  0
   44.7330   35.5140   44.3070 C   0  0  0  0  0  0  0  0  0  0  0  0
   45.4710   34.4290   43.8960 C   0  0  0  0  0  0  0  0  0  0  0  0
   45.8300   33.4660   44.8030 N   0  0  0  0  0  0  0  0  0  0  0  0
   45.4760   33.5490   46.1050 C   0  0  0  0  0  0  0  0  0  0  0  0
   44.7650   34.5740   46.5470 N   0  0  0  0  0  0  0  0  0  0  0  0
   45.8890   32.5050   46.9820 N   0  0  0  0  0  0  0  0  0  0  0  0
   47.2450   31.9920   46.9450 C   0  0  0  0  0  0  0  0  0  0  0  0
   47.8570   31.8390   48.3200 C   0  0  0  0  0  0  0  0  0  0  0  0
   46.9060   31.0600   49.1970 C   0  0  0  0  0  0  0  0  0  0  0  0
   45.6360   31.8950   49.2840 C   0  0  0  0  0  0  0  0  0  0  0  0
   44.9640   31.9270   47.9380 C   0  0  0  0  0  0  0  0  0  0  0  0
   45.8720   34.2940   42.5180 C   0  0  0  0  0  0  0  0  0  0  0  0
   45.0720   33.8460   41.4800 C   0  0  0  0  0  0  0  0  0  0  0  0
   45.8310   33.8650   40.3260 C   0  0  0  0  0  0  0  0  0  0  0  0
   47.0510   34.3240   40.7220 N   0  0  0  0  0  0  0  0  0  0  0  0
   47.0780   34.5780   42.0190 N   0  0  0  0  0  0  0  0  0  0  0  0
   48.2050   34.5210   39.8470 C   0  0  0  0  0  0  0  0  0  0  0  0
   48.7920   35.7250   40.1570 F   0  0  0  0  0  0  0  0  0  0  0  0
   47.8550   34.4970   38.5230 F   0  0  0  0  0  0  0  0  0  0  0  0
   49.1270   33.4750   40.0390 F   0  0  0  0  0  0  0  0  0  0  0  0
   43.7967   36.3973   46.0723 H   0  0  0  0  0  0  0  0  0  0  0  0
   44.4270   36.3075   43.6094 H   0  0  0  0  0  0  0  0  0  0  0  0
   47.2340   31.0074   46.4547 H   0  0  0  0  0  0  0  0  0  0  0  0
   47.8570   32.7195   46.3916 H   0  0  0  0  0  0  0  0  0  0  0  0
   48.8120   31.2989   48.2407 H   0  0  0  0  0  0  0  0  0  0  0  0
   48.0390   32.8313   48.7585 H   0  0  0  0  0  0  0  0  0  0  0  0
   46.6887   30.0794   48.7485 H   0  0  0  0  0  0  0  0  0  0  0  0
   47.3357   30.8752   50.1926 H   0  0  0  0  0  0  0  0  0  0  0  0
   44.9544   31.4498   50.0237 H   0  0  0  0  0  0  0  0  0  0  0  0
   45.8912   32.9200   49.5910 H   0  0  0  0  0  0  0  0  0  0  0  0
   44.0525   32.5405   47.9916 H   0  0  0  0  0  0  0  0  0  0  0  0
   44.6855   30.9088   47.6286 H   0  0  0  0  0  0  0  0  0  0  0  0
   44.0210   33.5315   41.5601 H   0  0  0  0  0  0  0  0  0  0  0  0
   45.5194   33.5740   39.3120 H   0  0  0  0  0  0  0  0  0  0  0  0
  1  6  2  0
  2  1  1  0
  3  2  2  0
  3  4  1  0
  4  5  2  0
  5  6  1  0
  5  7  1  0
  7 12  1  0
  8  7  1  0
  8  9  1  0
  9 10  1  0
 10 11  1  0
 12 11  1  0
 13  3  1  0
 14 13  1  0
 15 16  1  0
 15 14  2  0
 16 17  1  0
 17 13  2  0
 18 21  1  0
 18 19  1  0
 18 16  1  0
 20 18  1  0
  1 22  1  0
  2 23  1  0
  8 24  1  0
  8 25  1  0
  9 26  1  0
  9 27  1  0
 10 28  1  0
 10 29  1  0
 11 30  1  0
 11 31  1  0
 12 32  1  0
 12 33  1  0
 14 34  1  0
 15 35  1  0
M  ISO  8  22  14  23  14  24  13  25  13  26  13  27  13  28  13  29  13
M  ISO  6  30  13  31  13  32  13  33  13  34  14  35  14
M  END
>  <minimizedAffinity>  (1) 
-6.30539894

>  <minimizedRMSD>  (1) 
0.726421475

$$$$
