
     RDKit          3D

 32 34  0  0  0  0  0  0  0  0999 V2000
   44.3790   35.9070   45.1100 C   0  0  0  0  0  0  0  0  0  0  0  0
   44.7280   35.6870   43.7490 C   0  0  0  0  0  0  0  0  0  0  0  0
   45.4270   34.5440   43.4420 C   0  0  0  0  0  0  0  0  0  0  0  0
   45.7430   33.6930   44.4600 N   0  0  0  0  0  0  0  0  0  0  0  0
   45.3990   33.9240   45.7520 C   0  0  0  0  0  0  0  0  0  0  0  0
   44.7240   35.0200   46.0680 N   0  0  0  0  0  0  0  0  0  0  0  0
   45.7790   32.9690   46.7360 N   0  0  0  0  0  0  0  0  0  0  0  0
   44.9430   32.4460   47.8000 C   0  0  0  0  0  0  0  0  0  0  0  0
   45.9950   32.2900   48.9050 C   0  0  0  0  0  0  0  0  0  0  0  0
   47.0610   31.5630   48.1110 C   0  0  0  0  0  0  0  0  0  0  0  0
   47.0920   32.3570   46.8300 C   0  0  0  0  0  0  0  0  0  0  0  0
   45.8190   34.2460   42.0970 C   0  0  0  0  0  0  0  0  0  0  0  0
   45.0710   33.5690   41.1600 C   0  0  0  0  0  0  0  0  0  0  0  0
   45.8200   33.5010   40.0020 C   0  0  0  0  0  0  0  0  0  0  0  0
   46.9800   34.1380   40.2930 N   0  0  0  0  0  0  0  0  0  0  0  0
   46.9900   34.5820   41.5300 N   0  0  0  0  0  0  0  0  0  0  0  0
   48.1060   34.3270   39.3710 C   0  0  0  0  0  0  0  0  0  0  0  0
   48.7380   35.5020   39.6840 F   0  0  0  0  0  0  0  0  0  0  0  0
   47.6790   34.3750   38.0580 F   0  0  0  0  0  0  0  0  0  0  0  0
   48.9980   33.2620   39.4810 F   0  0  0  0  0  0  0  0  0  0  0  0
   43.8198   36.8130   45.3864 H   0  0  0  0  0  0  0  0  0  0  0  0
   44.4476   36.4083   42.9672 H   0  0  0  0  0  0  0  0  0  0  0  0
   44.1521   33.1554   48.0852 H   0  0  0  0  0  0  0  0  0  0  0  0
   44.3911   31.5280   47.5498 H   0  0  0  0  0  0  0  0  0  0  0  0
   46.3491   33.2622   49.2785 H   0  0  0  0  0  0  0  0  0  0  0  0
   45.6526   31.7801   49.8176 H   0  0  0  0  0  0  0  0  0  0  0  0
   48.0333   31.5944   48.6246 H   0  0  0  0  0  0  0  0  0  0  0  0
   46.8534   30.4927   47.9650 H   0  0  0  0  0  0  0  0  0  0  0  0
   47.2730   31.6960   45.9696 H   0  0  0  0  0  0  0  0  0  0  0  0
   47.8981   33.1054   46.8270 H   0  0  0  0  0  0  0  0  0  0  0  0
   44.0615   33.1576   41.3070 H   0  0  0  0  0  0  0  0  0  0  0  0
   45.5362   33.0310   39.0488 H   0  0  0  0  0  0  0  0  0  0  0  0
  1  6  2  0
  2  1  1  0
  3  2  2  0
  3  4  1  0
  4  5  2  0
  5  6  1  0
  5  7  1  0
  7 11  1  0
  7  8  1  0
  8  9  1  0
 10  9  1  0
 11 10  1  0
 12  3  1  0
 13 12  1  0
 14 15  1  0
 14 13  2  0
 15 16  1  0
 16 12  2  0
 17 20  1  0
 17 18  1  0
 17 15  1  0
 19 17  1  0
  1 21  1  0
  2 22  1  0
  8 23  1  0
  8 24  1  0
  9 25  1  0
  9 26  1  0
 10 27  1  0
 10 28  1  0
 11 29  1  0
 11 30  1  0
 13 31  1  0
 14 32  1  0
M  ISO  8  21  14  22  14  23  13  24  13  25  13  26  13  27  13  28  13
M  ISO  4  29  13  30  13  31  14  32  14
M  END
>  <minimizedAffinity>  (1) 
-5.99630308

>  <minimizedRMSD>  (1) 
0.199936271

$$$$
