
     RDKit          3D

 27 29  0  0  0  0  0  0  0  0999 V2000
   44.3870   35.9380   44.8640 C   0  0  0  0  0  0  0  0  0  0  0  0
   44.7540   35.6760   43.5260 C   0  0  0  0  0  0  0  0  0  0  0  0
   45.4780   34.5360   43.2530 C   0  0  0  0  0  0  0  0  0  0  0  0
   45.8080   33.7120   44.2840 N   0  0  0  0  0  0  0  0  0  0  0  0
   45.4420   33.9870   45.5660 C   0  0  0  0  0  0  0  0  0  0  0  0
   44.7450   35.0780   45.8540 N   0  0  0  0  0  0  0  0  0  0  0  0
   45.7810   33.1340   46.6540 N   0  0  0  0  0  0  0  0  0  0  0  0
   46.9820   32.5050   46.6670 C   0  0  0  0  0  0  0  0  0  0  0  0
   47.0810   31.7390   47.8120 C   0  0  0  0  0  0  0  0  0  0  0  0
   45.9360   31.9150   48.4810 N   0  0  0  0  0  0  0  0  0  0  0  0
   45.1530   32.7540   47.7860 C   0  0  0  0  0  0  0  0  0  0  0  0
   45.8780   34.2170   41.9160 C   0  0  0  0  0  0  0  0  0  0  0  0
   45.1380   33.4820   41.0040 C   0  0  0  0  0  0  0  0  0  0  0  0
   45.8760   33.4010   39.8370 C   0  0  0  0  0  0  0  0  0  0  0  0
   47.0080   34.0830   40.0980 N   0  0  0  0  0  0  0  0  0  0  0  0
   47.0200   34.5700   41.3270 N   0  0  0  0  0  0  0  0  0  0  0  0
   48.1320   34.2920   39.1650 C   0  0  0  0  0  0  0  0  0  0  0  0
   48.7780   35.4520   39.4900 F   0  0  0  0  0  0  0  0  0  0  0  0
   47.6850   34.3640   37.8600 F   0  0  0  0  0  0  0  0  0  0  0  0
   49.0070   33.2100   39.2440 F   0  0  0  0  0  0  0  0  0  0  0  0
   43.8089   36.8419   45.1063 H   0  0  0  0  0  0  0  0  0  0  0  0
   44.4681   36.3669   42.7192 H   0  0  0  0  0  0  0  0  0  0  0  0
   47.7549   32.5911   45.8891 H   0  0  0  0  0  0  0  0  0  0  0  0
   47.9315   31.1099   48.1136 H   0  0  0  0  0  0  0  0  0  0  0  0
   44.1492   33.0828   48.0932 H   0  0  0  0  0  0  0  0  0  0  0  0
   44.1444   33.0428   41.1766 H   0  0  0  0  0  0  0  0  0  0  0  0
   45.5995   32.8919   38.9019 H   0  0  0  0  0  0  0  0  0  0  0  0
  1  6  2  0
  2  1  1  0
  3  2  2  0
  3  4  1  0
  4  5  2  0
  5  6  1  0
  5  7  1  0
  7  8  1  0
  7 11  1  0
  8  9  2  0
  9 10  1  0
 11 10  2  0
 12  3  1  0
 13 12  1  0
 14 15  1  0
 14 13  2  0
 15 16  1  0
 16 12  2  0
 17 20  1  0
 17 18  1  0
 17 15  1  0
 19 17  1  0
  1 21  1  0
  2 22  1  0
  8 23  1  0
  9 24  1  0
 11 25  1  0
 13 26  1  0
 14 27  1  0
M  ISO  7  21  14  22  14  23  14  24  14  25  14  26  14  27  14
M  END
>  <minimizedAffinity>  (1) 
-5.93506289

>  <minimizedRMSD>  (1) 
0.0948438197

$$$$
