
     RDKit          3D

 22 23  0  0  0  0  0  0  0  0999 V2000
   45.8300   34.2810   41.9220 C   0  0  0  0  0  0  0  0  0  0  0  0
   45.1350   33.4890   41.0420 C   0  0  0  0  0  0  0  0  0  0  0  0
   45.8950   33.3810   39.8920 C   0  0  0  0  0  0  0  0  0  0  0  0
   47.0100   34.1140   40.1430 N   0  0  0  0  0  0  0  0  0  0  0  0
   46.9830   34.6480   41.3320 N   0  0  0  0  0  0  0  0  0  0  0  0
   44.4080   36.1780   44.8060 C   0  0  0  0  0  0  0  0  0  0  0  0
   44.7900   35.8800   43.4740 C   0  0  0  0  0  0  0  0  0  0  0  0
   45.4110   34.6600   43.2470 C   0  0  0  0  0  0  0  0  0  0  0  0
   45.6190   33.8250   44.2930 N   0  0  0  0  0  0  0  0  0  0  0  0
   45.2400   34.1410   45.5670 C   0  0  0  0  0  0  0  0  0  0  0  0
   44.6370   35.3150   45.8090 N   0  0  0  0  0  0  0  0  0  0  0  0
   45.4660   33.2500   46.6590 N   0  0  0  0  0  0  0  0  0  0  0  0
   48.1190   34.3000   39.2110 C   0  0  0  0  0  0  0  0  0  0  0  0
   48.7910   35.4560   39.5300 F   0  0  0  0  0  0  0  0  0  0  0  0
   47.6930   34.3460   37.8990 F   0  0  0  0  0  0  0  0  0  0  0  0
   49.0150   33.2160   39.3090 F   0  0  0  0  0  0  0  0  0  0  0  0
   44.1534   33.0253   41.2193 H   0  0  0  0  0  0  0  0  0  0  0  0
   45.6502   32.8239   38.9756 H   0  0  0  0  0  0  0  0  0  0  0  0
   43.9135   37.1364   45.0227 H   0  0  0  0  0  0  0  0  0  0  0  0
   44.6017   36.5875   42.6530 H   0  0  0  0  0  0  0  0  0  0  0  0
   45.1696   33.5145   47.6093 H   0  0  0  0  0  0  0  0  0  0  0  0
   45.9254   32.3426   46.4967 H   0  0  0  0  0  0  0  0  0  0  0  0
  1  8  1  0
  2  1  1  0
  3  4  1  0
  3  2  2  0
  4  5  1  0
  5  1  2  0
  6 11  2  0
  7  6  1  0
  8  7  2  0
  8  9  1  0
  9 10  2  0
 10 11  1  0
 10 12  1  0
 13 16  1  0
 13 14  1  0
 13  4  1  0
 15 13  1  0
  2 17  1  0
  3 18  1  0
  6 19  1  0
  7 20  1  0
 12 21  1  0
 12 22  1  0
M  ISO  4  17  14  18  14  19  14  20  14
M  END
>  <minimizedAffinity>  (1) 
-5.00083303

>  <minimizedRMSD>  (1) 
0.144821316

$$$$
