
     RDKit          3D

 25 27  0  0  0  0  0  0  0  0999 V2000
   44.3540   35.9490   44.8210 C   0  0  0  0  0  0  0  0  0  0  0  0
   44.7090   35.7020   43.4690 C   0  0  0  0  0  0  0  0  0  0  0  0
   45.4630   34.5560   43.2330 C   0  0  0  0  0  0  0  0  0  0  0  0
   45.8220   33.7410   44.2780 N   0  0  0  0  0  0  0  0  0  0  0  0
   45.4480   34.0380   45.5520 C   0  0  0  0  0  0  0  0  0  0  0  0
   44.7300   35.1190   45.8250 N   0  0  0  0  0  0  0  0  0  0  0  0
   45.8720   34.2160   41.8980 C   0  0  0  0  0  0  0  0  0  0  0  0
   45.1450   33.4460   41.0030 C   0  0  0  0  0  0  0  0  0  0  0  0
   45.9010   33.3640   39.8360 C   0  0  0  0  0  0  0  0  0  0  0  0
   47.0180   34.0760   40.0910 N   0  0  0  0  0  0  0  0  0  0  0  0
   47.0040   34.5760   41.2980 N   0  0  0  0  0  0  0  0  0  0  0  0
   48.1190   34.2770   39.1510 C   0  0  0  0  0  0  0  0  0  0  0  0
   48.7770   35.4390   39.4790 F   0  0  0  0  0  0  0  0  0  0  0  0
   47.6800   34.3470   37.8490 F   0  0  0  0  0  0  0  0  0  0  0  0
   49.0190   33.2020   39.2260 F   0  0  0  0  0  0  0  0  0  0  0  0
   45.8640   33.1280   46.6160 C   0  0  0  0  0  0  0  0  0  0  0  0
   47.0270   32.4530   46.6810 N   0  0  0  0  0  0  0  0  0  0  0  0
   47.0380   31.7440   47.7760 O   0  0  0  0  0  0  0  0  0  0  0  0
   45.9220   31.9130   48.4590 C   0  0  0  0  0  0  0  0  0  0  0  0
   45.1780   32.7910   47.7240 N   0  0  0  0  0  0  0  0  0  0  0  0
   43.7560   36.8404   45.0613 H   0  0  0  0  0  0  0  0  0  0  0  0
   44.4059   36.3770   42.6551 H   0  0  0  0  0  0  0  0  0  0  0  0
   44.1607   32.9881   41.1804 H   0  0  0  0  0  0  0  0  0  0  0  0
   45.6430   32.8335   38.9075 H   0  0  0  0  0  0  0  0  0  0  0  0
   45.6489   31.4460   49.4168 H   0  0  0  0  0  0  0  0  0  0  0  0
  1  6  2  0
  2  1  1  0
  3  2  2  0
  3  4  1  0
  4  5  2  0
  5  6  1  0
  5 16  1  0
  7  3  1  0
  8  7  1  0
  9 10  1  0
  9  8  2  0
 10 11  1  0
 11  7  2  0
 12 15  1  0
 12 13  1  0
 12 10  1  0
 14 12  1  0
 16 17  2  0
 16 20  1  0
 17 18  1  0
 18 19  1  0
 20 19  2  0
  1 21  1  0
  2 22  1  0
  8 23  1  0
  9 24  1  0
 19 25  1  0
M  ISO  5  21  14  22  14  23  14  24  14  25  14
M  END
>  <minimizedAffinity>  (1) 
-5.67097616

>  <minimizedRMSD>  (1) 
0.527496457

$$$$
