
     RDKit          3D

 33 35  0  0  0  0  0  0  0  0999 V2000
   44.7200   35.1980   44.7690 C   0  0  0  0  0  0  0  0  0  0  0  0
   44.9330   35.0970   43.3710 C   0  0  0  0  0  0  0  0  0  0  0  0
   45.7790   34.0990   42.9340 C   0  0  0  0  0  0  0  0  0  0  0  0
   46.3690   33.2630   43.8400 N   0  0  0  0  0  0  0  0  0  0  0  0
   46.1350   33.3980   45.1800 C   0  0  0  0  0  0  0  0  0  0  0  0
   45.3170   34.3600   45.6340 N   0  0  0  0  0  0  0  0  0  0  0  0
   46.0490   33.9260   41.5310 C   0  0  0  0  0  0  0  0  0  0  0  0
   45.1820   33.3660   40.6050 C   0  0  0  0  0  0  0  0  0  0  0  0
   45.8220   33.3880   39.3750 C   0  0  0  0  0  0  0  0  0  0  0  0
   47.0240   33.9510   39.6180 N   0  0  0  0  0  0  0  0  0  0  0  0
   47.1680   34.2730   40.8900 N   0  0  0  0  0  0  0  0  0  0  0  0
   48.0750   34.1960   38.6200 C   0  0  0  0  0  0  0  0  0  0  0  0
   48.7690   35.3320   38.9720 F   0  0  0  0  0  0  0  0  0  0  0  0
   47.5500   34.3510   37.3600 F   0  0  0  0  0  0  0  0  0  0  0  0
   48.9480   33.0980   38.5750 F   0  0  0  0  0  0  0  0  0  0  0  0
   48.0280   30.7850   47.7850 C   0  0  0  0  0  0  0  0  0  0  0  0
   47.8490   30.3750   46.4800 C   0  0  0  0  0  0  0  0  0  0  0  0
   47.2120   31.2450   45.5900 C   0  0  0  0  0  0  0  0  0  0  0  0
   46.8090   32.4590   46.0940 C   0  0  0  0  0  0  0  0  0  0  0  0
   46.9850   32.8750   47.3970 C   0  0  0  0  0  0  0  0  0  0  0  0
   47.6200   32.0020   48.2770 C   0  0  0  0  0  0  0  0  0  0  0  0
   48.8300   29.6720   48.8800 S   0  0  0  0  0  0  0  0  0  0  0  0
   49.1830   30.3500   50.1750 O   0  0  0  0  0  0  0  0  0  0  0  0
   50.1040   29.1540   48.2880 O   0  0  0  0  0  0  0  0  0  0  0  0
   44.0503   35.9807   45.1550 H   0  0  0  0  0  0  0  0  0  0  0  0
   44.4446   35.7849   42.6651 H   0  0  0  0  0  0  0  0  0  0  0  0
   44.1736   32.9765   40.8084 H   0  0  0  0  0  0  0  0  0  0  0  0
   45.4344   33.0256   38.4115 H   0  0  0  0  0  0  0  0  0  0  0  0
   48.1993   29.3867   46.1474 H   0  0  0  0  0  0  0  0  0  0  0  0
   47.0416   30.9716   44.5382 H   0  0  0  0  0  0  0  0  0  0  0  0
   46.6355   33.8634   47.7302 H   0  0  0  0  0  0  0  0  0  0  0  0
   47.7891   32.2767   49.3286 H   0  0  0  0  0  0  0  0  0  0  0  0
   47.9538   28.6421   49.1003 H   0  0  0  0  0  0  0  0  0  0  0  0
  1  6  2  0
  2  1  1  0
  3  2  2  0
  3  4  1  0
  4  5  2  0
  5  6  1  0
  5 19  1  0
  7  3  1  0
  8  7  1  0
  9 10  1  0
  9  8  2  0
 10 11  1  0
 11  7  2  0
 12 13  1  0
 12 10  1  0
 14 12  1  0
 15 12  1  0
 16 21  2  0
 16 22  1  0
 17 16  1  0
 18 19  1  0
 18 17  2  0
 19 20  2  0
 20 21  1  0
 22 23  2  0
 24 22  2  0
  1 25  1  0
  2 26  1  0
  8 27  1  0
  9 28  1  0
 17 29  1  0
 18 30  1  0
 20 31  1  0
 21 32  1  0
 22 33  1  0
M  ISO  8  25  14  26  14  27  14  28  14  29  14  30  14  31  14  32  14
M  ISO  1  33  11
M  END
>  <minimizedAffinity>  (1) 
-5.458498

>  <minimizedRMSD>  (1) 
1.29478228

$$$$
