
     RDKit          3D

 21 22  0  0  0  0  0  0  0  0999 V2000
   45.8960   34.1970   41.8000 C   0  0  0  0  0  0  0  0  0  0  0  0
   45.1530   33.4470   40.9040 C   0  0  0  0  0  0  0  0  0  0  0  0
   45.8890   33.3690   39.7300 C   0  0  0  0  0  0  0  0  0  0  0  0
   47.0230   34.0710   39.9850 N   0  0  0  0  0  0  0  0  0  0  0  0
   47.0330   34.5650   41.2110 N   0  0  0  0  0  0  0  0  0  0  0  0
   44.4590   35.9160   44.7760 C   0  0  0  0  0  0  0  0  0  0  0  0
   44.8040   35.6820   43.4150 C   0  0  0  0  0  0  0  0  0  0  0  0
   45.5020   34.5230   43.1420 C   0  0  0  0  0  0  0  0  0  0  0  0
   45.8110   33.6930   44.1710 N   0  0  0  0  0  0  0  0  0  0  0  0
   45.4670   33.9420   45.4570 C   0  0  0  0  0  0  0  0  0  0  0  0
   44.7960   35.0490   45.7570 N   0  0  0  0  0  0  0  0  0  0  0  0
   45.9320   32.7670   46.7380 S   0  0  0  0  0  0  0  0  0  0  0  0
   48.1240   34.2770   39.0410 C   0  0  0  0  0  0  0  0  0  0  0  0
   48.7950   35.4320   39.3740 F   0  0  0  0  0  0  0  0  0  0  0  0
   47.6770   34.3580   37.7430 F   0  0  0  0  0  0  0  0  0  0  0  0
   49.0030   33.1800   39.1050 F   0  0  0  0  0  0  0  0  0  0  0  0
   44.1659   32.9979   41.0880 H   0  0  0  0  0  0  0  0  0  0  0  0
   45.6143   32.8525   38.7985 H   0  0  0  0  0  0  0  0  0  0  0  0
   43.9024   36.8282   45.0370 H   0  0  0  0  0  0  0  0  0  0  0  0
   44.5279   36.3901   42.6198 H   0  0  0  0  0  0  0  0  0  0  0  0
   45.7116   33.3238   47.9702 H   0  0  0  0  0  0  0  0  0  0  0  0
  1  8  1  0
  2  1  1  0
  3  4  1  0
  3  2  2  0
  4  5  1  0
  5  1  2  0
  6 11  2  0
  7  6  1  0
  8  7  2  0
  8  9  1  0
  9 10  2  0
 10 11  1  0
 10 12  1  0
 13 16  1  0
 13 14  1  0
 13  4  1  0
 15 13  1  0
  2 17  1  0
  3 18  1  0
  6 19  1  0
  7 20  1  0
 12 21  1  0
M  ISO  5  17  14  18  14  19  14  20  14  21  11
M  END
>  <minimizedAffinity>  (1) 
-4.80152655

>  <minimizedRMSD>  (1) 
0.132455498

$$$$
