
     RDKit          3D

 34 37  0  0  0  0  0  0  0  0999 V2000
   45.2730   36.3490   43.0420 C   0  0  0  0  0  0  0  0  0  0  0  0
   44.0080   36.3290   42.4100 C   0  0  0  0  0  0  0  0  0  0  0  0
   43.6610   35.2390   41.6510 C   0  0  0  0  0  0  0  0  0  0  0  0
   44.5490   34.2300   41.5420 N   0  0  0  0  0  0  0  0  0  0  0  0
   45.7660   34.2630   42.1590 C   0  0  0  0  0  0  0  0  0  0  0  0
   46.1290   35.3020   42.8970 N   0  0  0  0  0  0  0  0  0  0  0  0
   46.6570   33.1300   41.9850 C   0  0  0  0  0  0  0  0  0  0  0  0
   47.3920   32.7930   40.8580 C   0  0  0  0  0  0  0  0  0  0  0  0
   48.0940   31.6850   41.0730 N   0  0  0  0  0  0  0  0  0  0  0  0
   47.8280   31.2840   42.3400 C   0  0  0  0  0  0  0  0  0  0  0  0
   46.9680   32.1680   42.8540 N   0  0  0  0  0  0  0  0  0  0  0  0
   46.4760   32.0450   44.1840 C   0  0  0  0  0  0  0  0  0  0  0  0
   46.6890   33.0350   45.1220 C   0  0  0  0  0  0  0  0  0  0  0  0
   46.0860   32.5980   46.2830 C   0  0  0  0  0  0  0  0  0  0  0  0
   45.5320   31.3950   46.0590 N   0  0  0  0  0  0  0  0  0  0  0  0
   45.7620   31.0520   44.7880 N   0  0  0  0  0  0  0  0  0  0  0  0
   42.3920   35.1660   40.9880 C   0  0  0  0  0  0  0  0  0  0  0  0
   41.1590   35.3470   41.5570 C   0  0  0  0  0  0  0  0  0  0  0  0
   40.2050   35.1910   40.5600 C   0  0  0  0  0  0  0  0  0  0  0  0
   40.9050   34.9270   39.4540 N   0  0  0  0  0  0  0  0  0  0  0  0
   42.2030   34.9080   39.6820 N   0  0  0  0  0  0  0  0  0  0  0  0
   40.3400   34.6810   38.1160 C   0  0  0  0  0  0  0  0  0  0  0  0
   40.7200   33.4460   37.6770 F   0  0  0  0  0  0  0  0  0  0  0  0
   40.7080   35.6600   37.2230 F   0  0  0  0  0  0  0  0  0  0  0  0
   38.9290   34.7110   38.1890 F   0  0  0  0  0  0  0  0  0  0  0  0
   45.5659   37.2151   43.6535 H   0  0  0  0  0  0  0  0  0  0  0  0
   43.3129   37.1738   42.5248 H   0  0  0  0  0  0  0  0  0  0  0  0
   47.3937   33.3633   39.9174 H   0  0  0  0  0  0  0  0  0  0  0  0
   48.2410   30.4000   42.8479 H   0  0  0  0  0  0  0  0  0  0  0  0
   47.2302   33.9811   44.9736 H   0  0  0  0  0  0  0  0  0  0  0  0
   46.0626   33.1454   47.2368 H   0  0  0  0  0  0  0  0  0  0  0  0
   45.0167   30.8317   46.7504 H   0  0  0  0  0  0  0  0  0  0  0  0
   40.9602   35.5751   42.6146 H   0  0  0  0  0  0  0  0  0  0  0  0
   39.1122   35.2680   40.6596 H   0  0  0  0  0  0  0  0  0  0  0  0
  2  1  2  0
  3  2  1  0
  4  3  2  0
  4  5  1  0
  5  6  2  0
  6  1  1  0
  7  5  1  0
  7 11  1  0
  8  9  1  0
  8  7  2  0
  9 10  2  0
 10 11  1  0
 11 12  1  0
 12 16  2  0
 12 13  1  0
 13 14  2  0
 15 14  1  0
 16 15  1  0
 17 18  1  0
 17  3  1  0
 19 18  2  0
 20 21  1  0
 20 19  1  0
 21 17  2  0
 22 25  1  0
 22 20  1  0
 23 22  1  0
 24 22  1  0
  1 26  1  0
  2 27  1  0
  8 28  1  0
 10 29  1  0
 13 30  1  0
 14 31  1  0
 15 32  1  0
 18 33  1  0
 19 34  1  0
M  ISO  8  26  14  27  14  28  14  29  14  30  14  31  14  32   9  33  14
M  ISO  1  34  14
M  END
>  <minimizedAffinity>  (1) 
-6.05125904

>  <minimizedRMSD>  (1) 
5.58278418

$$$$
