
     RDKit          3D

 36 38  0  0  0  0  0  0  0  0999 V2000
   45.2660   35.9760   43.1820 C   0  0  0  0  0  0  0  0  0  0  0  0
   43.9730   36.0000   42.6160 C   0  0  0  0  0  0  0  0  0  0  0  0
   43.7550   35.2750   41.4560 C   0  0  0  0  0  0  0  0  0  0  0  0
   44.7830   34.5770   40.9160 N   0  0  0  0  0  0  0  0  0  0  0  0
   46.0130   34.5730   41.4830 C   0  0  0  0  0  0  0  0  0  0  0  0
   46.2670   35.2580   42.6010 N   0  0  0  0  0  0  0  0  0  0  0  0
   42.4650   35.2630   40.8360 C   0  0  0  0  0  0  0  0  0  0  0  0
   41.2790   35.6030   41.4330 C   0  0  0  0  0  0  0  0  0  0  0  0
   40.2870   35.4470   40.4670 C   0  0  0  0  0  0  0  0  0  0  0  0
   40.9220   35.0290   39.3640 N   0  0  0  0  0  0  0  0  0  0  0  0
   42.2080   34.9140   39.5590 N   0  0  0  0  0  0  0  0  0  0  0  0
   40.2660   34.7340   38.0850 C   0  0  0  0  0  0  0  0  0  0  0  0
   40.6700   33.4960   37.6600 F   0  0  0  0  0  0  0  0  0  0  0  0
   40.5320   35.6870   37.1350 F   0  0  0  0  0  0  0  0  0  0  0  0
   38.8620   34.7200   38.2660 F   0  0  0  0  0  0  0  0  0  0  0  0
   47.0700   33.8080   40.8550 C   0  0  0  0  0  0  0  0  0  0  0  0
   47.7750   34.1420   39.7150 C   0  0  0  0  0  0  0  0  0  0  0  0
   48.6810   33.1950   39.4340 N   0  0  0  0  0  0  0  0  0  0  0  0
   48.5670   32.2470   40.3860 C   0  0  0  0  0  0  0  0  0  0  0  0
   47.6010   32.6410   41.2180 N   0  0  0  0  0  0  0  0  0  0  0  0
   47.2190   31.8400   42.3650 C   0  0  0  0  0  0  0  0  0  0  0  0
   45.7370   31.6400   42.5010 C   0  0  0  0  0  0  0  0  0  0  0  0
   47.7230   32.4850   43.6620 C   0  0  0  0  0  0  0  0  0  0  0  0
   45.4673   36.5435   44.1025 H   0  0  0  0  0  0  0  0  0  0  0  0
   43.1618   36.5779   43.0828 H   0  0  0  0  0  0  0  0  0  0  0  0
   41.1378   35.9345   42.4723 H   0  0  0  0  0  0  0  0  0  0  0  0
   39.2086   35.6289   40.5853 H   0  0  0  0  0  0  0  0  0  0  0  0
   47.6156   35.0549   39.1224 H   0  0  0  0  0  0  0  0  0  0  0  0
   49.1588   31.3229   40.4624 H   0  0  0  0  0  0  0  0  0  0  0  0
   47.6815   30.8566   42.1948 H   0  0  0  0  0  0  0  0  0  0  0  0
   45.4682   31.6037   43.5670 H   0  0  0  0  0  0  0  0  0  0  0  0
   45.2085   32.4750   42.0178 H   0  0  0  0  0  0  0  0  0  0  0  0
   45.4487   30.6948   42.0178 H   0  0  0  0  0  0  0  0  0  0  0  0
   47.3035   31.9481   44.5256 H   0  0  0  0  0  0  0  0  0  0  0  0
   48.8212   32.4317   43.6953 H   0  0  0  0  0  0  0  0  0  0  0  0
   47.4058   33.5377   43.6953 H   0  0  0  0  0  0  0  0  0  0  0  0
  2  1  2  0
  3  2  1  0
  4  3  2  0
  4  5  1  0
  5  6  2  0
  6  1  1  0
  7  8  1  0
  7  3  1  0
  9  8  2  0
 10 11  1  0
 10  9  1  0
 11  7  2  0
 12 15  1  0
 12 10  1  0
 13 12  1  0
 14 12  1  0
 16 20  1  0
 16  5  1  0
 17 16  2  0
 18 17  1  0
 18 19  2  0
 19 20  1  0
 20 21  1  0
 21 22  1  0
 21 23  1  0
  1 24  1  0
  2 25  1  0
  8 26  1  0
  9 27  1  0
 17 28  1  0
 19 29  1  0
 21 30  1  0
 22 31  1  0
 22 32  1  0
 22 33  1  0
 23 34  1  0
 23 35  1  0
 23 36  1  0
M  ISO  8  24  14  25  14  26  14  27  14  28  14  29  14  30   8  31   8
M  ISO  5  32   8  33   8  34   8  35   8  36   8
M  END
>  <minimizedAffinity>  (1) 
-5.69276762

>  <minimizedRMSD>  (1) 
6.26172829

$$$$
