
     RDKit          3D

 35 38  0  0  0  0  0  0  0  0999 V2000
   47.2820   35.0160   42.2940 C   0  0  0  0  0  0  0  0  0  0  0  0
   45.8690   34.9600   42.2710 C   0  0  0  0  0  0  0  0  0  0  0  0
   45.2490   34.4870   41.1520 C   0  0  0  0  0  0  0  0  0  0  0  0
   46.0170   34.0870   40.1000 N   0  0  0  0  0  0  0  0  0  0  0  0
   47.3710   34.1490   40.1430 C   0  0  0  0  0  0  0  0  0  0  0  0
   48.0140   34.6060   41.2200 N   0  0  0  0  0  0  0  0  0  0  0  0
   43.8200   34.4040   41.0630 C   0  0  0  0  0  0  0  0  0  0  0  0
   43.0470   33.3360   41.4340 C   0  0  0  0  0  0  0  0  0  0  0  0
   41.7250   33.6880   41.1750 C   0  0  0  0  0  0  0  0  0  0  0  0
   41.7760   34.9340   40.6690 N   0  0  0  0  0  0  0  0  0  0  0  0
   43.0070   35.3670   40.5970 N   0  0  0  0  0  0  0  0  0  0  0  0
   40.6110   35.7250   40.2430 C   0  0  0  0  0  0  0  0  0  0  0  0
   40.4480   36.7680   41.1200 F   0  0  0  0  0  0  0  0  0  0  0  0
   39.4650   34.9500   40.2040 F   0  0  0  0  0  0  0  0  0  0  0  0
   40.8130   36.2180   38.9540 F   0  0  0  0  0  0  0  0  0  0  0  0
   48.1260   33.7090   38.9850 C   0  0  0  0  0  0  0  0  0  0  0  0
   48.1470   34.2710   37.7270 C   0  0  0  0  0  0  0  0  0  0  0  0
   48.9610   33.5950   36.9160 N   0  0  0  0  0  0  0  0  0  0  0  0
   49.4830   32.5770   37.6440 C   0  0  0  0  0  0  0  0  0  0  0  0
   48.9630   32.6780   38.8680 N   0  0  0  0  0  0  0  0  0  0  0  0
   49.3100   31.7460   39.8950 C   0  0  0  0  0  0  0  0  0  0  0  0
   50.4540   31.8780   40.6630 C   0  0  0  0  0  0  0  0  0  0  0  0
   50.8150   30.9990   41.6570 C   0  0  0  0  0  0  0  0  0  0  0  0
   49.9980   29.9410   41.8940 N   0  0  0  0  0  0  0  0  0  0  0  0
   48.8810   29.8240   41.1330 C   0  0  0  0  0  0  0  0  0  0  0  0
   48.5290   30.6830   40.1630 N   0  0  0  0  0  0  0  0  0  0  0  0
   47.7963   35.3950   43.1894 H   0  0  0  0  0  0  0  0  0  0  0  0
   45.2810   35.2917   43.1394 H   0  0  0  0  0  0  0  0  0  0  0  0
   43.4020   32.3839   41.8553 H   0  0  0  0  0  0  0  0  0  0  0  0
   40.8274   33.0761   41.3477 H   0  0  0  0  0  0  0  0  0  0  0  0
   47.5691   35.1591   37.4313 H   0  0  0  0  0  0  0  0  0  0  0  0
   50.1961   31.8164   37.2935 H   0  0  0  0  0  0  0  0  0  0  0  0
   51.1131   32.7365   40.4667 H   0  0  0  0  0  0  0  0  0  0  0  0
   51.7353   31.1482   42.2408 H   0  0  0  0  0  0  0  0  0  0  0  0
   48.2185   28.9669   41.3237 H   0  0  0  0  0  0  0  0  0  0  0  0
  2  1  2  0
  3  2  1  0
  4  5  1  0
  4  3  2  0
  5  6  2  0
  6  1  1  0
  7  3  1  0
  7  8  1  0
  9  8  2  0
 10  9  1  0
 11 10  1  0
 11  7  2  0
 12 10  1  0
 12 13  1  0
 14 12  1  0
 15 12  1  0
 16  5  1  0
 17 16  2  0
 18 19  2  0
 18 17  1  0
 19 20  1  0
 20 16  1  0
 20 21  1  0
 21 26  1  0
 21 22  2  0
 22 23  1  0
 23 24  2  0
 25 24  1  0
 26 25  2  0
  1 27  1  0
  2 28  1  0
  8 29  1  0
  9 30  1  0
 17 31  1  0
 19 32  1  0
 22 33  1  0
 23 34  1  0
 25 35  1  0
M  ISO  8  27  14  28  14  29  14  30  14  31  14  32  14  33  14  34  14
M  ISO  1  35  14
M  END
>  <minimizedAffinity>  (1) 
-5.85612965

>  <minimizedRMSD>  (1) 
8.12695885

$$$$
