
     RDKit          3D

 22 23  0  0  0  0  0  0  0  0999 V2000
   46.6860   34.1970   40.7200 C   0  0  0  0  0  0  0  0  0  0  0  0
   45.8000   34.7060   41.7720 C   0  0  0  0  0  0  0  0  0  0  0  0
   44.4790   34.8140   41.3070 C   0  0  0  0  0  0  0  0  0  0  0  0
   43.5040   35.2940   42.2100 C   0  0  0  0  0  0  0  0  0  0  0  0
   43.8890   35.6250   43.4790 N   0  0  0  0  0  0  0  0  0  0  0  0
   45.1750   35.5020   43.8770 C   0  0  0  0  0  0  0  0  0  0  0  0
   46.0790   35.0500   43.0160 N   0  0  0  0  0  0  0  0  0  0  0  0
   48.0480   34.8270   40.7660 C   0  0  0  0  0  0  0  0  0  0  0  0
   49.1180   33.9220   41.2540 C   0  0  0  0  0  0  0  0  0  0  0  0
   49.0960   32.6990   40.6810 C   0  0  0  0  0  0  0  0  0  0  0  0
   50.5150   31.8380   41.4830 S   0  0  0  0  0  0  0  0  0  0  0  0
   50.8990   33.3800   42.5040 C   0  0  0  0  0  0  0  0  0  0  0  0
   50.0820   34.0350   42.1140 N   0  0  0  0  0  0  0  0  0  0  0  0
   46.2311   34.4095   39.7413 H   0  0  0  0  0  0  0  0  0  0  0  0
   46.8105   33.1158   40.8797 H   0  0  0  0  0  0  0  0  0  0  0  0
   44.2131   34.5349   40.2768 H   0  0  0  0  0  0  0  0  0  0  0  0
   42.4546   35.3993   41.8975 H   0  0  0  0  0  0  0  0  0  0  0  0
   45.4689   35.7731   44.9017 H   0  0  0  0  0  0  0  0  0  0  0  0
   48.3108   35.1562   39.7499 H   0  0  0  0  0  0  0  0  0  0  0  0
   47.9877   35.6611   41.4806 H   0  0  0  0  0  0  0  0  0  0  0  0
   48.4011   32.3115   39.9214 H   0  0  0  0  0  0  0  0  0  0  0  0
   51.6833   33.5732   43.2507 H   0  0  0  0  0  0  0  0  0  0  0  0
  1  8  1  0
  1  2  1  0
  2  7  1  0
  3  2  2  0
  3  4  1  0
  4  5  2  0
  5  6  1  0
  7  6  2  0
  8  9  1  0
  9 13  1  0
 10  9  2  0
 10 11  1  0
 11 12  1  0
 13 12  2  0
  1 14  1  0
  1 15  1  0
  3 16  1  0
  4 17  1  0
  6 18  1  0
  8 19  1  0
  8 20  1  0
 10 21  1  0
 12 22  1  0
M  ISO  8  14   8  15   8  16  14  17  14  18  14  19   8  20   8  21  14
M  ISO  1  22  14
M  END
>  <minimizedAffinity>  (1) 
-3.53387189

>  <minimizedRMSD>  (1) 
3.79112768

$$$$
