
     RDKit          3D

 37 39  0  0  0  0  0  0  0  0999 V2000
   44.7030   34.0140   47.0510 C   0  0  0  0  0  0  0  0  0  0  0  0
   45.0080   34.4250   45.7280 C   0  0  0  0  0  0  0  0  0  0  0  0
   46.0670   33.8580   45.0810 C   0  0  0  0  0  0  0  0  0  0  0  0
   46.7820   32.9150   45.7480 N   0  0  0  0  0  0  0  0  0  0  0  0
   46.4860   32.5330   46.9990 C   0  0  0  0  0  0  0  0  0  0  0  0
   45.4610   33.0640   47.6610 N   0  0  0  0  0  0  0  0  0  0  0  0
   47.2920   31.5190   47.6580 C   0  0  0  0  0  0  0  0  0  0  0  0
   48.2890   31.7570   48.5980 C   0  0  0  0  0  0  0  0  0  0  0  0
   48.8320   30.6140   49.0040 N   0  0  0  0  0  0  0  0  0  0  0  0
   48.1930   29.6270   48.3320 C   0  0  0  0  0  0  0  0  0  0  0  0
   47.2840   30.1910   47.5410 N   0  0  0  0  0  0  0  0  0  0  0  0
   48.5610   28.2760   48.5630 N   0  0  0  0  0  0  0  0  0  0  0  0
   49.9100   27.8740   48.6220 C   0  0  0  0  0  0  0  0  0  0  0  0
   50.8590   28.7030   48.2620 N   0  0  0  0  0  0  0  0  0  0  0  0
   50.3540   26.5820   49.0620 N   0  0  0  0  0  0  0  0  0  0  0  0
   51.8660   28.4590   48.2850 H   0  0  0  0  0  0  0  0  0  0  0  0
   46.3860   29.4550   46.6510 C   0  0  0  0  0  0  0  0  0  0  0  0
   46.6560   29.7590   45.3270 F   0  0  0  0  0  0  0  0  0  0  0  0
   46.5230   28.1000   46.7820 F   0  0  0  0  0  0  0  0  0  0  0  0
   45.0580   29.8810   46.8280 F   0  0  0  0  0  0  0  0  0  0  0  0
   46.4120   34.2390   43.7530 C   0  0  0  0  0  0  0  0  0  0  0  0
   45.5570   34.3760   42.6900 C   0  0  0  0  0  0  0  0  0  0  0  0
   46.3060   34.7600   41.5880 C   0  0  0  0  0  0  0  0  0  0  0  0
   47.5680   34.8310   42.0460 N   0  0  0  0  0  0  0  0  0  0  0  0
   47.6470   34.5280   43.3160 N   0  0  0  0  0  0  0  0  0  0  0  0
   48.7450   35.2040   41.2390 C   0  0  0  0  0  0  0  0  0  0  0  0
   49.1760   36.4370   41.6350 F   0  0  0  0  0  0  0  0  0  0  0  0
   48.4370   35.2250   39.8870 F   0  0  0  0  0  0  0  0  0  0  0  0
   49.7560   34.2510   41.3980 F   0  0  0  0  0  0  0  0  0  0  0  0
   43.8525   34.4642   47.5840 H   0  0  0  0  0  0  0  0  0  0  0  0
   44.3976   35.1922   45.2293 H   0  0  0  0  0  0  0  0  0  0  0  0
   48.5869   32.7536   48.9559 H   0  0  0  0  0  0  0  0  0  0  0  0
   47.8218   27.5702   48.6910 H   0  0  0  0  0  0  0  0  0  0  0  0
   51.3599   26.3608   49.0775 H   0  0  0  0  0  0  0  0  0  0  0  0
   49.6668   25.8760   49.3623 H   0  0  0  0  0  0  0  0  0  0  0  0
   44.4697   34.2106   42.7081 H   0  0  0  0  0  0  0  0  0  0  0  0
   45.9478   34.9614   40.5676 H   0  0  0  0  0  0  0  0  0  0  0  0
  1  6  2  0
  2  1  1  0
  3  2  2  0
  3  4  1  0
  4  5  2  0
  5  7  1  0
  5  6  1  0
  7  8  2  0
  8  9  1  0
 10 12  1  0
 10  9  2  0
 11  7  1  0
 11 10  1  0
 12 13  1  0
 13 15  1  0
 14 16  1  0
 14 13  2  0
 17 19  1  0
 17 20  1  0
 17 11  1  0
 18 17  1  0
 21  3  1  0
 22 21  1  0
 23 24  1  0
 23 22  2  0
 24 25  1  0
 25 21  2  0
 26 29  1  0
 26 27  1  0
 26 24  1  0
 28 26  1  0
  1 30  1  0
  2 31  1  0
  8 32  1  0
 12 33  1  0
 15 34  1  0
 15 35  1  0
 22 36  1  0
 23 37  1  0
M  ISO  5  30  14  31  14  32  14  36  14  37  14
M  END
>  <minimizedAffinity>  (1) 
-6.17832756

>  <minimizedRMSD>  (1) 
2.26148772

$$$$
