
     RDKit          3D

 43 46  0  0  0  0  0  0  0  0999 V2000
   44.6150   35.8230   45.0450 C   0  0  0  0  0  0  0  0  0  0  0  0
   44.0780   35.7620   43.7410 C   0  0  0  0  0  0  0  0  0  0  0  0
   44.2970   34.6550   42.9780 C   0  0  0  0  0  0  0  0  0  0  0  0
   45.0380   33.6340   43.5180 N   0  0  0  0  0  0  0  0  0  0  0  0
   45.5410   33.7110   44.7610 C   0  0  0  0  0  0  0  0  0  0  0  0
   45.3410   34.7880   45.5330 N   0  0  0  0  0  0  0  0  0  0  0  0
   46.3210   32.5980   45.2850 C   0  0  0  0  0  0  0  0  0  0  0  0
   47.2570   31.8570   44.5900 C   0  0  0  0  0  0  0  0  0  0  0  0
   47.7830   30.9170   45.3710 N   0  0  0  0  0  0  0  0  0  0  0  0
   47.1880   31.0420   46.5800 C   0  0  0  0  0  0  0  0  0  0  0  0
   46.3150   32.0570   46.5020 N   0  0  0  0  0  0  0  0  0  0  0  0
   47.5200   30.1820   47.6650 N   0  0  0  0  0  0  0  0  0  0  0  0
   47.4060   30.7120   49.0150 C   0  0  0  0  0  0  0  0  0  0  0  0
   48.8350   30.7290   49.5580 C   0  0  0  0  0  0  0  0  0  0  0  0
   49.3860   29.4740   49.5050 O   0  0  0  0  0  0  0  0  0  0  0  0
   49.3830   28.8750   48.2660 C   0  0  0  0  0  0  0  0  0  0  0  0
   47.9780   28.7860   47.6560 C   0  0  0  0  0  0  0  0  0  0  0  0
   45.4750   32.5030   47.6160 C   0  0  0  0  0  0  0  0  0  0  0  0
   44.6980   33.5770   47.2180 F   0  0  0  0  0  0  0  0  0  0  0  0
   44.6130   31.5090   48.0270 F   0  0  0  0  0  0  0  0  0  0  0  0
   46.2540   33.0000   48.6530 F   0  0  0  0  0  0  0  0  0  0  0  0
   43.7770   34.5350   41.6480 C   0  0  0  0  0  0  0  0  0  0  0  0
   42.8660   35.3670   41.0540 C   0  0  0  0  0  0  0  0  0  0  0  0
   42.6300   34.9080   39.7710 C   0  0  0  0  0  0  0  0  0  0  0  0
   43.4120   33.8210   39.6580 N   0  0  0  0  0  0  0  0  0  0  0  0
   44.0930   33.5910   40.7570 N   0  0  0  0  0  0  0  0  0  0  0  0
   43.5160   32.9710   38.4640 C   0  0  0  0  0  0  0  0  0  0  0  0
   44.0480   31.7590   38.8230 F   0  0  0  0  0  0  0  0  0  0  0  0
   44.3270   33.5560   37.5060 F   0  0  0  0  0  0  0  0  0  0  0  0
   42.2570   32.7980   37.8860 F   0  0  0  0  0  0  0  0  0  0  0  0
   44.4436   36.7138   45.6672 H   0  0  0  0  0  0  0  0  0  0  0  0
   43.4877   36.6012   43.3444 H   0  0  0  0  0  0  0  0  0  0  0  0
   47.5296   32.0213   43.5371 H   0  0  0  0  0  0  0  0  0  0  0  0
   46.9878   31.7292   48.9965 H   0  0  0  0  0  0  0  0  0  0  0  0
   46.7345   30.1056   49.6406 H   0  0  0  0  0  0  0  0  0  0  0  0
   49.4436   31.4170   48.9528 H   0  0  0  0  0  0  0  0  0  0  0  0
   48.8125   31.0627   50.6059 H   0  0  0  0  0  0  0  0  0  0  0  0
   50.0238   29.4605   47.5903 H   0  0  0  0  0  0  0  0  0  0  0  0
   49.7567   27.8481   48.3920 H   0  0  0  0  0  0  0  0  0  0  0  0
   47.3212   28.1513   48.2689 H   0  0  0  0  0  0  0  0  0  0  0  0
   47.9708   28.3357   46.6524 H   0  0  0  0  0  0  0  0  0  0  0  0
   42.4014   36.2495   41.5180 H   0  0  0  0  0  0  0  0  0  0  0  0
   41.9553   35.3356   39.0147 H   0  0  0  0  0  0  0  0  0  0  0  0
  1  6  2  0
  2  1  1  0
  3  4  1  0
  3  2  2  0
  4  5  2  0
  5  7  1  0
  5  6  1  0
  7 11  1  0
  8  7  2  0
  8  9  1  0
  9 10  2  0
 10 12  1  0
 11 10  1  0
 11 18  1  0
 12 13  1  0
 13 14  1  0
 15 14  1  0
 16 15  1  0
 17 12  1  0
 17 16  1  0
 18 20  1  0
 18 21  1  0
 19 18  1  0
 22  3  1  0
 23 22  1  0
 24 23  2  0
 25 24  1  0
 25 26  1  0
 26 22  2  0
 27 28  1  0
 27 25  1  0
 29 27  1  0
 30 27  1  0
  1 31  1  0
  2 32  1  0
  8 33  1  0
 13 34  1  0
 13 35  1  0
 14 36  1  0
 14 37  1  0
 16 38  1  0
 16 39  1  0
 17 40  1  0
 17 41  1  0
 23 42  1  0
 24 43  1  0
M  ISO  8  31  14  32  14  33  14  34  13  35  13  36  13  37  13  38  13
M  ISO  5  39  13  40  13  41  13  42  14  43  14
M  END
>  <minimizedAffinity>  (1) 
-6.38560009

>  <minimizedRMSD>  (1) 
2.90291357

$$$$
