
     RDKit          3D

 44 47  0  0  0  0  0  0  0  0999 V2000
   44.5760   35.8650   44.9730 C   0  0  0  0  0  0  0  0  0  0  0  0
   44.0520   35.7720   43.6670 C   0  0  0  0  0  0  0  0  0  0  0  0
   44.2850   34.6470   42.9290 C   0  0  0  0  0  0  0  0  0  0  0  0
   45.0280   33.6520   43.5070 N   0  0  0  0  0  0  0  0  0  0  0  0
   45.5200   33.7630   44.7600 C   0  0  0  0  0  0  0  0  0  0  0  0
   45.3060   34.8480   45.4940 N   0  0  0  0  0  0  0  0  0  0  0  0
   46.2980   32.6620   45.2980 C   0  0  0  0  0  0  0  0  0  0  0  0
   47.2560   31.9030   44.6420 C   0  0  0  0  0  0  0  0  0  0  0  0
   47.7680   30.9740   45.4440 N   0  0  0  0  0  0  0  0  0  0  0  0
   47.1400   31.1240   46.6360 C   0  0  0  0  0  0  0  0  0  0  0  0
   46.2720   32.1310   46.5250 N   0  0  0  0  0  0  0  0  0  0  0  0
   47.4720   30.2650   47.7190 N   0  0  0  0  0  0  0  0  0  0  0  0
   47.7410   30.5890   49.1110 C   0  0  0  0  0  0  0  0  0  0  0  0
   49.1380   30.1040   49.4400 C   0  0  0  0  0  0  0  0  0  0  0  0
   49.8250   29.5450   48.2930 N   0  0  0  0  0  0  0  0  0  0  0  0
   49.0770   28.4750   47.6620 C   0  0  0  0  0  0  0  0  0  0  0  0
   47.6010   28.8080   47.5790 C   0  0  0  0  0  0  0  0  0  0  0  0
   45.4100   32.5870   47.6150 C   0  0  0  0  0  0  0  0  0  0  0  0
   44.6340   33.6540   47.1940 F   0  0  0  0  0  0  0  0  0  0  0  0
   44.5400   31.6130   48.0400 F   0  0  0  0  0  0  0  0  0  0  0  0
   46.1760   33.1120   48.6640 F   0  0  0  0  0  0  0  0  0  0  0  0
   43.7870   34.4890   41.6060 C   0  0  0  0  0  0  0  0  0  0  0  0
   42.8170   35.2830   41.0070 C   0  0  0  0  0  0  0  0  0  0  0  0
   42.6130   34.8070   39.7250 C   0  0  0  0  0  0  0  0  0  0  0  0
   43.4580   33.7610   39.6130 N   0  0  0  0  0  0  0  0  0  0  0  0
   44.1540   33.5670   40.7180 N   0  0  0  0  0  0  0  0  0  0  0  0
   43.6030   32.9270   38.4200 C   0  0  0  0  0  0  0  0  0  0  0  0
   44.1530   31.7160   38.7960 F   0  0  0  0  0  0  0  0  0  0  0  0
   44.3820   33.5240   37.4640 F   0  0  0  0  0  0  0  0  0  0  0  0
   42.3570   32.6990   37.8390 F   0  0  0  0  0  0  0  0  0  0  0  0
   44.3913   36.7684   45.5729 H   0  0  0  0  0  0  0  0  0  0  0  0
   43.4606   36.5987   43.2464 H   0  0  0  0  0  0  0  0  0  0  0  0
   47.5538   32.0506   43.5934 H   0  0  0  0  0  0  0  0  0  0  0  0
   47.6782   31.6770   49.2604 H   0  0  0  0  0  0  0  0  0  0  0  0
   47.0027   30.1046   49.7669 H   0  0  0  0  0  0  0  0  0  0  0  0
   49.7240   30.9535   49.8206 H   0  0  0  0  0  0  0  0  0  0  0  0
   49.0422   29.3046   50.1896 H   0  0  0  0  0  0  0  0  0  0  0  0
   49.9764   30.2937   47.6020 H   0  0  0  0  0  0  0  0  0  0  0  0
   49.4662   28.3172   46.6453 H   0  0  0  0  0  0  0  0  0  0  0  0
   49.1936   27.5654   48.2695 H   0  0  0  0  0  0  0  0  0  0  0  0
   47.1967   28.4861   46.6079 H   0  0  0  0  0  0  0  0  0  0  0  0
   47.0403   28.2900   48.3710 H   0  0  0  0  0  0  0  0  0  0  0  0
   42.3029   36.1381   41.4702 H   0  0  0  0  0  0  0  0  0  0  0  0
   41.9174   35.1944   38.9661 H   0  0  0  0  0  0  0  0  0  0  0  0
  1  6  2  0
  2  1  1  0
  3  4  1  0
  3  2  2  0
  4  5  2  0
  5  7  1  0
  5  6  1  0
  7 11  1  0
  8  7  2  0
  8  9  1  0
  9 10  2  0
 10 12  1  0
 11 10  1  0
 11 18  1  0
 12 13  1  0
 13 14  1  0
 15 14  1  0
 16 15  1  0
 17 16  1  0
 17 12  1  0
 18 20  1  0
 18 21  1  0
 19 18  1  0
 22  3  1  0
 23 22  1  0
 24 23  2  0
 25 24  1  0
 25 26  1  0
 26 22  2  0
 27 28  1  0
 27 25  1  0
 29 27  1  0
 30 27  1  0
  1 31  1  0
  2 32  1  0
  8 33  1  0
 13 34  1  0
 13 35  1  0
 14 36  1  0
 14 37  1  0
 15 38  1  0
 16 39  1  0
 16 40  1  0
 17 41  1  0
 17 42  1  0
 23 43  1  0
 24 44  1  0
M  ISO  8  31  14  32  14  33  14  34  13  35  13  36  13  37  13  38   5
M  ISO  6  39  13  40  13  41  13  42  13  43  14  44  14
M  END
>  <minimizedAffinity>  (1) 
-6.12702608

>  <minimizedRMSD>  (1) 
2.89533067

$$$$
