
     RDKit          3D

 31 33  0  0  0  0  0  0  0  0999 V2000
   44.7370   34.9700   45.5610 C   0  0  0  0  0  0  0  0  0  0  0  0
   44.9350   34.9960   44.1550 C   0  0  0  0  0  0  0  0  0  0  0  0
   45.7380   34.0310   43.5870 C   0  0  0  0  0  0  0  0  0  0  0  0
   46.3060   33.0970   44.3990 N   0  0  0  0  0  0  0  0  0  0  0  0
   46.1070   33.0900   45.7250 C   0  0  0  0  0  0  0  0  0  0  0  0
   45.3310   34.0140   46.3110 N   0  0  0  0  0  0  0  0  0  0  0  0
   45.9770   34.0030   42.1770 C   0  0  0  0  0  0  0  0  0  0  0  0
   45.0400   33.7540   41.2010 C   0  0  0  0  0  0  0  0  0  0  0  0
   45.6860   33.8200   39.9700 C   0  0  0  0  0  0  0  0  0  0  0  0
   46.9570   34.1020   40.2780 N   0  0  0  0  0  0  0  0  0  0  0  0
   47.1390   34.2110   41.5680 N   0  0  0  0  0  0  0  0  0  0  0  0
   48.0380   34.2730   39.2880 C   0  0  0  0  0  0  0  0  0  0  0  0
   48.6910   35.4600   39.5660 F   0  0  0  0  0  0  0  0  0  0  0  0
   47.5620   34.3020   38.0020 F   0  0  0  0  0  0  0  0  0  0  0  0
   48.9300   33.2110   39.3640 F   0  0  0  0  0  0  0  0  0  0  0  0
   46.7370   32.0710   46.5440 C   0  0  0  0  0  0  0  0  0  0  0  0
   47.7920   31.2500   46.1630 C   0  0  0  0  0  0  0  0  0  0  0  0
   48.1190   30.4320   47.1580 N   0  0  0  0  0  0  0  0  0  0  0  0
   47.2940   30.7060   48.1830 C   0  0  0  0  0  0  0  0  0  0  0  0
   46.4750   31.6920   47.7900 N   0  0  0  0  0  0  0  0  0  0  0  0
   45.4190   32.2800   48.6310 C   0  0  0  0  0  0  0  0  0  0  0  0
   44.1800   32.0720   48.0450 F   0  0  0  0  0  0  0  0  0  0  0  0
   45.3870   31.6800   49.8740 F   0  0  0  0  0  0  0  0  0  0  0  0
   45.5720   33.6560   48.7150 F   0  0  0  0  0  0  0  0  0  0  0  0
   47.2510   30.1050   49.4540 O   0  0  0  0  0  0  0  0  0  0  0  0
   44.1001   35.7279   46.0404 H   0  0  0  0  0  0  0  0  0  0  0  0
   44.4584   35.7686   43.5338 H   0  0  0  0  0  0  0  0  0  0  0  0
   43.9732   33.5412   41.3640 H   0  0  0  0  0  0  0  0  0  0  0  0
   45.2504   33.6735   38.9706 H   0  0  0  0  0  0  0  0  0  0  0  0
   48.2850   31.2739   45.1799 H   0  0  0  0  0  0  0  0  0  0  0  0
   46.5853   30.4065   50.1219 H   0  0  0  0  0  0  0  0  0  0  0  0
  1  6  2  0
  2  1  1  0
  3  2  2  0
  3  4  1  0
  4  5  2  0
  5  6  1  0
  5 16  1  0
  7  3  1  0
  8  7  1  0
  9 10  1  0
  9  8  2  0
 10 11  1  0
 11  7  2  0
 12 15  1  0
 12 13  1  0
 12 10  1  0
 14 12  1  0
 16 20  1  0
 17 16  2  0
 17 18  1  0
 18 19  2  0
 19 25  1  0
 20 19  1  0
 20 21  1  0
 21 24  1  0
 21 23  1  0
 22 21  1  0
  1 26  1  0
  2 27  1  0
  8 28  1  0
  9 29  1  0
 17 30  1  0
 25 31  1  0
M  ISO  6  26  14  27  14  28  14  29  14  30  14  31   3
M  END
>  <minimizedAffinity>  (1) 
-5.59780312

>  <minimizedRMSD>  (1) 
0.596980035

$$$$
