
     RDKit          3D

 45 48  0  0  0  0  0  0  0  0999 V2000
   45.0630   34.8480   45.4000 C   0  0  0  0  0  0  0  0  0  0  0  0
   44.6920   34.8690   44.0330 C   0  0  0  0  0  0  0  0  0  0  0  0
   45.0630   33.8440   43.2190 C   0  0  0  0  0  0  0  0  0  0  0  0
   45.7860   32.8230   43.7670 N   0  0  0  0  0  0  0  0  0  0  0  0
   46.1320   32.8120   45.0660 C   0  0  0  0  0  0  0  0  0  0  0  0
   45.7860   33.7970   45.8770 N   0  0  0  0  0  0  0  0  0  0  0  0
   46.9190   31.7040   45.5880 C   0  0  0  0  0  0  0  0  0  0  0  0
   47.5370   30.7070   44.8520 C   0  0  0  0  0  0  0  0  0  0  0  0
   48.1870   29.8600   45.6490 N   0  0  0  0  0  0  0  0  0  0  0  0
   47.9900   30.3070   46.9140 C   0  0  0  0  0  0  0  0  0  0  0  0
   47.2360   31.4010   46.8530 N   0  0  0  0  0  0  0  0  0  0  0  0
   48.6050   29.5710   47.9540 N   0  0  0  0  0  0  0  0  0  0  0  0
   49.0750   28.1950   48.0650 C   0  0  0  0  0  0  0  0  0  0  0  0
   50.5800   28.2430   48.1360 C   0  0  0  0  0  0  0  0  0  0  0  0
   51.1580   29.2990   49.0010 C   0  0  0  0  0  0  0  0  0  0  0  0
   50.3730   30.5520   49.1660 C   0  0  0  0  0  0  0  0  0  0  0  0
   48.8610   30.2770   49.2030 C   0  0  0  0  0  0  0  0  0  0  0  0
   46.8120   32.1670   48.0220 C   0  0  0  0  0  0  0  0  0  0  0  0
   45.5920   32.7810   47.7790 F   0  0  0  0  0  0  0  0  0  0  0  0
   46.6330   31.3710   49.1310 F   0  0  0  0  0  0  0  0  0  0  0  0
   47.6980   33.2330   48.2610 F   0  0  0  0  0  0  0  0  0  0  0  0
   44.7230   33.8110   41.8300 C   0  0  0  0  0  0  0  0  0  0  0  0
   43.5550   34.3070   41.2810 C   0  0  0  0  0  0  0  0  0  0  0  0
   43.6200   34.0750   39.9150 C   0  0  0  0  0  0  0  0  0  0  0  0
   44.7990   33.4630   39.7120 N   0  0  0  0  0  0  0  0  0  0  0  0
   45.4540   33.3040   40.8390 N   0  0  0  0  0  0  0  0  0  0  0  0
   45.3150   33.0180   38.4090 C   0  0  0  0  0  0  0  0  0  0  0  0
   46.5950   33.4740   38.2620 F   0  0  0  0  0  0  0  0  0  0  0  0
   44.5250   33.4670   37.3730 F   0  0  0  0  0  0  0  0  0  0  0  0
   45.2830   31.6120   38.3450 F   0  0  0  0  0  0  0  0  0  0  0  0
   44.7705   35.6711   46.0685 H   0  0  0  0  0  0  0  0  0  0  0  0
   44.1070   35.7097   43.6318 H   0  0  0  0  0  0  0  0  0  0  0  0
   47.4966   30.6253   43.7558 H   0  0  0  0  0  0  0  0  0  0  0  0
   48.6693   27.7304   48.9758 H   0  0  0  0  0  0  0  0  0  0  0  0
   48.7434   27.5981   47.2026 H   0  0  0  0  0  0  0  0  0  0  0  0
   50.9300   27.2707   48.5130 H   0  0  0  0  0  0  0  0  0  0  0  0
   50.9169   28.4790   47.1158 H   0  0  0  0  0  0  0  0  0  0  0  0
   51.3012   28.8648   50.0015 H   0  0  0  0  0  0  0  0  0  0  0  0
   52.0807   29.6095   48.4890 H   0  0  0  0  0  0  0  0  0  0  0  0
   50.6700   31.0369   50.1076 H   0  0  0  0  0  0  0  0  0  0  0  0
   50.5815   31.2024   48.3038 H   0  0  0  0  0  0  0  0  0  0  0  0
   48.2926   31.2178   49.2449 H   0  0  0  0  0  0  0  0  0  0  0  0
   48.5553   29.6998   50.0881 H   0  0  0  0  0  0  0  0  0  0  0  0
   42.7311   34.7930   41.8241 H   0  0  0  0  0  0  0  0  0  0  0  0
   42.8660   34.3366   39.1580 H   0  0  0  0  0  0  0  0  0  0  0  0
  1  6  2  0
  2  1  1  0
  3  4  1  0
  3  2  2  0
  4  5  2  0
  5  7  1  0
  5  6  1  0
  7 11  1  0
  8  7  2  0
  8  9  1  0
  9 10  2  0
 10 12  1  0
 11 10  1  0
 11 18  1  0
 12 13  1  0
 12 17  1  0
 13 14  1  0
 14 15  1  0
 15 16  1  0
 16 17  1  0
 18 21  1  0
 18 20  1  0
 19 18  1  0
 22  3  1  0
 23 22  1  0
 24 23  2  0
 25 24  1  0
 25 26  1  0
 26 22  2  0
 27 25  1  0
 28 27  1  0
 29 27  1  0
 30 27  1  0
  1 31  1  0
  2 32  1  0
  8 33  1  0
 13 34  1  0
 13 35  1  0
 14 36  1  0
 14 37  1  0
 15 38  1  0
 15 39  1  0
 16 40  1  0
 16 41  1  0
 17 42  1  0
 17 43  1  0
 23 44  1  0
 24 45  1  0
M  ISO  8  31  14  32  14  33  14  34  13  35  13  36  13  37  13  38  13
M  ISO  7  39  13  40  13  41  13  42  13  43  13  44  14  45  14
M  END
>  <minimizedAffinity>  (1) 
-5.63807678

>  <minimizedRMSD>  (1) 
2.18207169

$$$$
