
     RDKit          3D

 17 17  0  0  0  0  0  0  0  0999 V2000
   46.2820   34.7590   43.0890 C   0  0  0  0  0  0  0  0  0  0  0  0
   45.4060   35.8720   43.1430 C   0  0  0  0  0  0  0  0  0  0  0  0
   44.6190   36.0750   44.2730 C   0  0  0  0  0  0  0  0  0  0  0  0
   44.7320   35.1840   45.2820 N   0  0  0  0  0  0  0  0  0  0  0  0
   45.5880   34.1170   45.2010 C   0  0  0  0  0  0  0  0  0  0  0  0
   46.3360   33.9290   44.1180 N   0  0  0  0  0  0  0  0  0  0  0  0
   47.0340   34.6970   41.8250 C   0  0  0  0  0  0  0  0  0  0  0  0
   48.3180   35.5000   41.9130 C   0  0  0  0  0  0  0  0  0  0  0  0
   49.6730   34.4560   42.4760 S   0  0  0  0  0  0  0  0  0  0  0  0
   45.3484   36.5718   42.2962 H   0  0  0  0  0  0  0  0  0  0  0  0
   43.9301   36.9298   44.3418 H   0  0  0  0  0  0  0  0  0  0  0  0
   45.6570   33.4091   46.0402 H   0  0  0  0  0  0  0  0  0  0  0  0
   46.4103   35.1044   41.0157 H   0  0  0  0  0  0  0  0  0  0  0  0
   47.2920   33.6469   41.6233 H   0  0  0  0  0  0  0  0  0  0  0  0
   48.5611   35.9052   40.9196 H   0  0  0  0  0  0  0  0  0  0  0  0
   48.1773   36.3209   42.6316 H   0  0  0  0  0  0  0  0  0  0  0  0
   49.6967   34.4377   43.8457 H   0  0  0  0  0  0  0  0  0  0  0  0
  1  2  2  0
  1  6  1  0
  2  3  1  0
  3  4  2  0
  5  4  1  0
  6  5  2  0
  7  8  1  0
  7  1  1  0
  8  9  1  0
  2 10  1  0
  3 11  1  0
  5 12  1  0
  7 13  1  0
  7 14  1  0
  8 15  1  0
  8 16  1  0
  9 17  1  0
M  ISO  8  10  14  11  14  12  14  13   8  14   8  15   8  16   8  17  11
M  END
>  <minimizedAffinity>  (1) 
-3.39241052

>  <minimizedRMSD>  (1) 
0.976251066

$$$$
