
     RDKit          3D

 23 24  0  0  0  0  0  0  0  0999 V2000
   44.4440   35.9880   44.8420 C   0  0  0  0  0  0  0  0  0  0  0  0
   45.0890   35.9790   43.5840 C   0  0  0  0  0  0  0  0  0  0  0  0
   45.9970   34.9270   43.3470 C   0  0  0  0  0  0  0  0  0  0  0  0
   46.1910   34.0010   44.3300 N   0  0  0  0  0  0  0  0  0  0  0  0
   45.5450   34.0570   45.5170 C   0  0  0  0  0  0  0  0  0  0  0  0
   44.6810   35.0460   45.7620 N   0  0  0  0  0  0  0  0  0  0  0  0
   46.7050   34.8130   42.1200 N   0  0  0  0  0  0  0  0  0  0  0  0
   47.9530   35.2570   41.9000 C   0  0  0  0  0  0  0  0  0  0  0  0
   48.5780   35.1140   40.6880 C   0  0  0  0  0  0  0  0  0  0  0  0
   47.9240   34.4980   39.6460 C   0  0  0  0  0  0  0  0  0  0  0  0
   48.4660   34.3560   38.5370 O   0  0  0  0  0  0  0  0  0  0  0  0
   46.6840   34.0720   39.9080 N   0  0  0  0  0  0  0  0  0  0  0  0
   46.0410   34.2010   41.1010 C   0  0  0  0  0  0  0  0  0  0  0  0
   44.8540   33.7470   41.2150 O   0  0  0  0  0  0  0  0  0  0  0  0
   45.9010   32.9560   46.4370 C   0  0  0  0  0  0  0  0  0  0  0  0
   47.1590   33.0420   46.9520 F   0  0  0  0  0  0  0  0  0  0  0  0
   45.6990   31.7560   45.7530 F   0  0  0  0  0  0  0  0  0  0  0  0
   45.0070   32.9670   47.4880 F   0  0  0  0  0  0  0  0  0  0  0  0
   43.7280   36.7912   45.0706 H   0  0  0  0  0  0  0  0  0  0  0  0
   44.8923   36.7537   42.8283 H   0  0  0  0  0  0  0  0  0  0  0  0
   48.4926   35.7526   42.7205 H   0  0  0  0  0  0  0  0  0  0  0  0
   49.6018   35.4916   40.5488 H   0  0  0  0  0  0  0  0  0  0  0  0
   46.1728   33.6077   39.1438 H   0  0  0  0  0  0  0  0  0  0  0  0
  1  6  2  0
  2  1  1  0
  3  2  2  0
  3  4  1  0
  4  5  2  0
  5  6  1  0
  5 15  1  0
  7  3  1  0
  8  7  1  0
  9  8  2  0
 10 12  1  0
 10  9  1  0
 11 10  2  0
 12 13  1  0
 13 14  2  0
 13  7  1  0
 15 16  1  0
 15 18  1  0
 17 15  1  0
  1 19  1  0
  2 20  1  0
  8 21  1  0
  9 22  1  0
 12 23  1  0
M  ISO  5  19  14  20  14  21  14  22  14  23   9
M  END
>  <minimizedAffinity>  (1) 
-6.08184862

>  <minimizedRMSD>  (1) 
1.0405339

$$$$
