
     RDKit          3D

 21 22  0  0  0  0  0  0  0  0999 V2000
   44.4860   35.9360   44.7300 C   0  0  0  0  0  0  0  0  0  0  0  0
   45.1570   35.8670   43.4860 C   0  0  0  0  0  0  0  0  0  0  0  0
   46.0510   34.8110   43.3330 C   0  0  0  0  0  0  0  0  0  0  0  0
   46.2310   33.9310   44.3470 N   0  0  0  0  0  0  0  0  0  0  0  0
   45.5670   34.0390   45.5160 C   0  0  0  0  0  0  0  0  0  0  0  0
   44.6940   35.0390   45.7140 N   0  0  0  0  0  0  0  0  0  0  0  0
   46.7690   34.6880   42.0780 C   0  0  0  0  0  0  0  0  0  0  0  0
   47.9990   35.3230   41.9330 C   0  0  0  0  0  0  0  0  0  0  0  0
   48.6000   35.1350   40.6860 C   0  0  0  0  0  0  0  0  0  0  0  0
   48.0300   34.4100   39.7320 N   0  0  0  0  0  0  0  0  0  0  0  0
   46.8200   33.8030   39.9170 C   0  0  0  0  0  0  0  0  0  0  0  0
   46.2110   33.9590   41.0990 N   0  0  0  0  0  0  0  0  0  0  0  0
   45.9080   32.9810   46.4840 C   0  0  0  0  0  0  0  0  0  0  0  0
   47.1550   33.0580   47.0100 F   0  0  0  0  0  0  0  0  0  0  0  0
   45.6660   31.7500   45.8700 F   0  0  0  0  0  0  0  0  0  0  0  0
   45.0010   33.0440   47.5320 F   0  0  0  0  0  0  0  0  0  0  0  0
   43.7681   36.7519   44.9001 H   0  0  0  0  0  0  0  0  0  0  0  0
   44.9826   36.6036   42.6879 H   0  0  0  0  0  0  0  0  0  0  0  0
   48.4590   35.9222   42.7326 H   0  0  0  0  0  0  0  0  0  0  0  0
   49.5760   35.6025   40.4889 H   0  0  0  0  0  0  0  0  0  0  0  0
   46.3595   33.2035   39.1179 H   0  0  0  0  0  0  0  0  0  0  0  0
  1  6  2  0
  2  1  1  0
  3  2  2  0
  3  4  1  0
  4  5  2  0
  5  6  1  0
  5 13  1  0
  7  3  1  0
  8  7  2  0
  9  8  1  0
 10 11  1  0
 10  9  2  0
 11 12  2  0
 12  7  1  0
 13 14  1  0
 13 16  1  0
 15 13  1  0
  1 17  1  0
  2 18  1  0
  8 19  1  0
  9 20  1  0
 11 21  1  0
M  ISO  5  17  14  18  14  19  14  20  14  21  14
M  END
>  <minimizedAffinity>  (1) 
-5.45054293

>  <minimizedRMSD>  (1) 
0.617854834

$$$$
