
     RDKit          3D

 20 21  0  0  0  0  0  0  0  0999 V2000
   44.5000   35.9570   44.5890 C   0  0  0  0  0  0  0  0  0  0  0  0
   45.2320   35.9150   43.3910 C   0  0  0  0  0  0  0  0  0  0  0  0
   46.1570   34.8810   43.2840 C   0  0  0  0  0  0  0  0  0  0  0  0
   46.3090   33.9970   44.2970 N   0  0  0  0  0  0  0  0  0  0  0  0
   45.5800   34.0770   45.4360 C   0  0  0  0  0  0  0  0  0  0  0  0
   44.6820   35.0600   45.5660 N   0  0  0  0  0  0  0  0  0  0  0  0
   46.9430   34.7920   42.0600 C   0  0  0  0  0  0  0  0  0  0  0  0
   48.1520   35.3300   41.7390 C   0  0  0  0  0  0  0  0  0  0  0  0
   48.4960   34.9630   40.4460 C   0  0  0  0  0  0  0  0  0  0  0  0
   47.4380   34.1980   40.0500 C   0  0  0  0  0  0  0  0  0  0  0  0
   46.5470   34.1150   41.0080 O   0  0  0  0  0  0  0  0  0  0  0  0
   45.8930   33.0230   46.4130 C   0  0  0  0  0  0  0  0  0  0  0  0
   47.1470   33.1170   46.9470 F   0  0  0  0  0  0  0  0  0  0  0  0
   45.6580   31.7970   45.8290 F   0  0  0  0  0  0  0  0  0  0  0  0
   44.9800   33.1330   47.4610 F   0  0  0  0  0  0  0  0  0  0  0  0
   43.7532   36.7524   44.7290 H   0  0  0  0  0  0  0  0  0  0  0  0
   45.0835   36.6525   42.5885 H   0  0  0  0  0  0  0  0  0  0  0  0
   48.7625   35.9593   42.4032 H   0  0  0  0  0  0  0  0  0  0  0  0
   49.4011   35.2250   39.8785 H   0  0  0  0  0  0  0  0  0  0  0  0
   47.3455   33.7180   39.0646 H   0  0  0  0  0  0  0  0  0  0  0  0
  1  6  2  0
  2  1  1  0
  3  2  2  0
  3  4  1  0
  4  5  2  0
  5  6  1  0
  5 12  1  0
  7  3  1  0
  8  7  2  0
  9  8  1  0
 10  9  2  0
 10 11  1  0
 11  7  1  0
 12 13  1  0
 12 15  1  0
 14 12  1  0
  1 16  1  0
  2 17  1  0
  8 18  1  0
  9 19  1  0
 10 20  1  0
M  ISO  5  16  14  17  14  18  14  19  14  20  14
M  END
>  <minimizedAffinity>  (1) 
-5.4421792

>  <minimizedRMSD>  (1) 
0.663970113

$$$$
