
     RDKit          3D

 20 21  0  0  0  0  0  0  0  0999 V2000
   44.5940   36.0220   44.3520 C   0  0  0  0  0  0  0  0  0  0  0  0
   45.3550   35.9280   43.1500 C   0  0  0  0  0  0  0  0  0  0  0  0
   46.2580   34.8720   43.0780 C   0  0  0  0  0  0  0  0  0  0  0  0
   46.3640   34.0130   44.1220 N   0  0  0  0  0  0  0  0  0  0  0  0
   45.6220   34.1460   45.2400 C   0  0  0  0  0  0  0  0  0  0  0  0
   44.7430   35.1430   45.3540 N   0  0  0  0  0  0  0  0  0  0  0  0
   45.9030   33.0940   46.2540 C   0  0  0  0  0  0  0  0  0  0  0  0
   47.1320   33.1720   46.8220 F   0  0  0  0  0  0  0  0  0  0  0  0
   45.6560   31.8590   45.6570 F   0  0  0  0  0  0  0  0  0  0  0  0
   44.9650   33.2270   47.2690 F   0  0  0  0  0  0  0  0  0  0  0  0
   47.0870   34.7140   41.8450 C   0  0  0  0  0  0  0  0  0  0  0  0
   48.3860   33.9810   41.9240 C   0  0  0  0  0  0  0  0  0  0  0  0
   48.3600   35.4690   41.7300 C   0  0  0  0  0  0  0  0  0  0  0  0
   43.8644   36.8381   44.4606 H   0  0  0  0  0  0  0  0  0  0  0  0
   45.2352   36.6484   42.3274 H   0  0  0  0  0  0  0  0  0  0  0  0
   46.1820   34.6186   41.2270 H   0  0  0  0  0  0  0  0  0  0  0  0
   48.7218   33.5553   42.8811 H   0  0  0  0  0  0  0  0  0  0  0  0
   48.8372   33.1315   41.3904 H   0  0  0  0  0  0  0  0  0  0  0  0
   48.6567   35.9028   40.7637 H   0  0  0  0  0  0  0  0  0  0  0  0
   48.8038   36.3292   42.2526 H   0  0  0  0  0  0  0  0  0  0  0  0
  1  6  2  0
  2  1  1  0
  3  2  2  0
  3  4  1  0
  4  5  2  0
  5  6  1  0
  5  7  1  0
  7  8  1  0
  7 10  1  0
  9  7  1  0
 11 12  1  0
 11  3  1  0
 13 11  1  0
 13 12  1  0
  1 14  1  0
  2 15  1  0
 11 16  1  0
 12 17  1  0
 12 18  1  0
 13 19  1  0
 13 20  1  0
M  ISO  7  14  14  15  14  16  13  17  13  18  13  19  13  20  13
M  END
>  <minimizedAffinity>  (1) 
-4.77145863

>  <minimizedRMSD>  (1) 
0.377011955

$$$$
