
     RDKit          3D

 19 20  0  0  0  0  0  0  0  0999 V2000
   44.4520   35.9570   44.7400 C   0  0  0  0  0  0  0  0  0  0  0  0
   45.1490   35.9730   43.5210 C   0  0  0  0  0  0  0  0  0  0  0  0
   46.0850   34.9680   43.3390 C   0  0  0  0  0  0  0  0  0  0  0  0
   46.2580   34.0630   44.3210 N   0  0  0  0  0  0  0  0  0  0  0  0
   45.5760   34.0780   45.4700 C   0  0  0  0  0  0  0  0  0  0  0  0
   44.6610   35.0260   45.6990 N   0  0  0  0  0  0  0  0  0  0  0  0
   46.8980   34.8230   42.1460 C   0  0  0  0  0  0  0  0  0  0  0  0
   46.3910   33.8700   41.0240 C   0  0  0  0  0  0  0  0  0  0  0  0
   47.6770   34.0100   39.7960 S   0  0  0  0  0  0  0  0  0  0  0  0
   48.6780   35.2360   40.8370 C   0  0  0  0  0  0  0  0  0  0  0  0
   48.0300   35.3750   41.8310 N   0  0  0  0  0  0  0  0  0  0  0  0
   45.9340   32.9850   46.3980 C   0  0  0  0  0  0  0  0  0  0  0  0
   47.1810   33.0620   46.9280 F   0  0  0  0  0  0  0  0  0  0  0  0
   45.7250   31.7710   45.7370 F   0  0  0  0  0  0  0  0  0  0  0  0
   45.0250   32.9860   47.4420 F   0  0  0  0  0  0  0  0  0  0  0  0
   43.7003   36.7387   44.9238 H   0  0  0  0  0  0  0  0  0  0  0  0
   44.9625   36.7396   42.7545 H   0  0  0  0  0  0  0  0  0  0  0  0
   45.4732   33.2644   40.9958 H   0  0  0  0  0  0  0  0  0  0  0  0
   49.6371   35.7115   40.5840 H   0  0  0  0  0  0  0  0  0  0  0  0
  1  6  2  0
  2  1  1  0
  3  2  2  0
  3  4  1  0
  4  5  2  0
  5  6  1  0
  5 12  1  0
  7  3  1  0
  8  7  2  0
  9 10  1  0
  9  8  1  0
 10 11  2  0
 11  7  1  0
 12 13  1  0
 12 15  1  0
 14 12  1  0
  1 16  1  0
  2 17  1  0
  8 18  1  0
 10 19  1  0
M  ISO  4  16  14  17  14  18  14  19  14
M  END
>  <minimizedAffinity>  (1) 
-5.0395751

>  <minimizedRMSD>  (1) 
0.388067096

$$$$
