
     RDKit          3D

 25 25  0  0  0  0  0  0  0  0999 V2000
   44.6630   35.8630   44.3370 C   0  0  0  0  0  0  0  0  0  0  0  0
   45.4530   35.7250   43.1810 C   0  0  0  0  0  0  0  0  0  0  0  0
   46.3760   34.6590   43.1920 C   0  0  0  0  0  0  0  0  0  0  0  0
   46.4570   33.8490   44.2670 N   0  0  0  0  0  0  0  0  0  0  0  0
   45.6700   34.0260   45.3590 C   0  0  0  0  0  0  0  0  0  0  0  0
   44.7810   35.0340   45.3780 N   0  0  0  0  0  0  0  0  0  0  0  0
   45.8950   33.0530   46.4340 C   0  0  0  0  0  0  0  0  0  0  0  0
   47.1340   33.1220   47.0130 F   0  0  0  0  0  0  0  0  0  0  0  0
   45.6520   31.7790   45.9130 F   0  0  0  0  0  0  0  0  0  0  0  0
   44.9550   33.2530   47.4200 F   0  0  0  0  0  0  0  0  0  0  0  0
   47.2880   34.3900   42.0210 C   0  0  0  0  0  0  0  0  0  0  0  0
   48.2950   35.4640   41.8470 C   0  0  0  0  0  0  0  0  0  0  0  0
   46.3850   34.1940   40.8410 C   0  0  0  0  0  0  0  0  0  0  0  0
   47.9340   33.0550   42.3300 C   0  0  0  0  0  0  0  0  0  0  0  0
   43.9259   36.6781   44.3851 H   0  0  0  0  0  0  0  0  0  0  0  0
   45.3567   36.4059   42.3225 H   0  0  0  0  0  0  0  0  0  0  0  0
   48.6273   35.8184   42.8339 H   0  0  0  0  0  0  0  0  0  0  0  0
   49.1576   35.0709   41.2890 H   0  0  0  0  0  0  0  0  0  0  0  0
   47.8472   36.2996   41.2890 H   0  0  0  0  0  0  0  0  0  0  0  0
   45.3661   33.9729   41.1917 H   0  0  0  0  0  0  0  0  0  0  0  0
   46.3725   35.1104   40.2326 H   0  0  0  0  0  0  0  0  0  0  0  0
   46.7536   33.3549   40.2326 H   0  0  0  0  0  0  0  0  0  0  0  0
   47.9982   32.9223   43.4201 H   0  0  0  0  0  0  0  0  0  0  0  0
   47.3280   32.2455   41.8971 H   0  0  0  0  0  0  0  0  0  0  0  0
   48.9449   33.0279   41.8971 H   0  0  0  0  0  0  0  0  0  0  0  0
  1  6  2  0
  2  3  2  0
  2  1  1  0
  3  4  1  0
  4  5  2  0
  5  6  1  0
  5  7  1  0
  7  8  1  0
  7 10  1  0
  9  7  1  0
 11 14  1  0
 11  3  1  0
 12 11  1  0
 13 11  1  0
  1 15  1  0
  2 16  1  0
 12 17  1  0
 12 18  1  0
 12 19  1  0
 13 20  1  0
 13 21  1  0
 13 22  1  0
 14 23  1  0
 14 24  1  0
 14 25  1  0
M  ISO  8  15  14  16  14  17   8  18   8  19   8  20   8  21   8  22   8
M  ISO  3  23   8  24   8  25   8
M  END
>  <minimizedAffinity>  (1) 
-4.92700148

>  <minimizedRMSD>  (1) 
0.36379987

$$$$
