
     RDKit          3D

 16 16  0  0  0  0  0  0  0  0999 V2000
   44.5200   35.9810   44.5620 C   0  0  0  0  0  0  0  0  0  0  0  0
   45.2340   35.9040   43.3560 C   0  0  0  0  0  0  0  0  0  0  0  0
   46.1440   34.8520   43.2360 C   0  0  0  0  0  0  0  0  0  0  0  0
   46.2960   33.9690   44.2640 N   0  0  0  0  0  0  0  0  0  0  0  0
   45.5780   34.0950   45.4050 C   0  0  0  0  0  0  0  0  0  0  0  0
   44.6950   35.0970   45.5470 N   0  0  0  0  0  0  0  0  0  0  0  0
   45.8810   33.0470   46.3980 C   0  0  0  0  0  0  0  0  0  0  0  0
   47.1390   33.1310   46.9520 F   0  0  0  0  0  0  0  0  0  0  0  0
   45.6480   31.8170   45.8170 F   0  0  0  0  0  0  0  0  0  0  0  0
   44.9660   33.1620   47.4460 F   0  0  0  0  0  0  0  0  0  0  0  0
   46.9410   34.7140   41.9700 C   0  0  0  0  0  0  0  0  0  0  0  0
   43.7934   36.7953   44.6999 H   0  0  0  0  0  0  0  0  0  0  0  0
   45.0843   36.6346   42.5474 H   0  0  0  0  0  0  0  0  0  0  0  0
   47.9966   34.5312   42.2194 H   0  0  0  0  0  0  0  0  0  0  0  0
   46.5517   33.8699   41.3818 H   0  0  0  0  0  0  0  0  0  0  0  0
   46.8582   35.6398   41.3818 H   0  0  0  0  0  0  0  0  0  0  0  0
  1  6  2  0
  2  1  1  0
  3  2  2  0
  3  4  1  0
  4  5  2  0
  5  6  1  0
  5  7  1  0
  7  8  1  0
  7 10  1  0
  9  7  1  0
 11  3  1  0
  1 12  1  0
  2 13  1  0
 11 14  1  0
 11 15  1  0
 11 16  1  0
M  ISO  5  12  14  13  14  14   8  15   8  16   8
M  END
>  <minimizedAffinity>  (1) 
-4.24519539

>  <minimizedRMSD>  (1) 
0.0535742044

$$$$
