
     RDKit          3D

 14 14  0  0  0  0  0  0  0  0999 V2000
   44.5190   35.9820   44.5690 C   0  0  0  0  0  0  0  0  0  0  0  0
   45.2290   35.8860   43.3530 C   0  0  0  0  0  0  0  0  0  0  0  0
   46.1290   34.8300   43.2280 C   0  0  0  0  0  0  0  0  0  0  0  0
   46.2650   33.9710   44.2710 N   0  0  0  0  0  0  0  0  0  0  0  0
   45.5690   34.0960   45.4150 C   0  0  0  0  0  0  0  0  0  0  0  0
   44.7060   35.0990   45.5520 N   0  0  0  0  0  0  0  0  0  0  0  0
   45.8850   33.0430   46.4080 C   0  0  0  0  0  0  0  0  0  0  0  0
   47.1260   33.1340   46.9530 F   0  0  0  0  0  0  0  0  0  0  0  0
   45.6450   31.8050   45.8170 F   0  0  0  0  0  0  0  0  0  0  0  0
   44.9650   33.1640   47.4480 F   0  0  0  0  0  0  0  0  0  0  0  0
   46.8740   34.6590   42.0560 O   0  0  0  0  0  0  0  0  0  0  0  0
   43.7976   36.8005   44.7092 H   0  0  0  0  0  0  0  0  0  0  0  0
   45.0785   36.6122   42.5406 H   0  0  0  0  0  0  0  0  0  0  0  0
   47.5103   33.9045   41.9796 H   0  0  0  0  0  0  0  0  0  0  0  0
  1  6  2  0
  2  1  1  0
  3  2  2  0
  3  4  1  0
  4  5  2  0
  5  6  1  0
  5  7  1  0
  7  8  1  0
  7 10  1  0
  9  7  1  0
 11  3  1  0
  1 12  1  0
  2 13  1  0
 11 14  1  0
M  ISO  3  12  14  13  14  14   3
M  END
>  <minimizedAffinity>  (1) 
-4.10094309

>  <minimizedRMSD>  (1) 
0.0360318534

$$$$
