
     RDKit          3D

 34 37  0  0  0  0  0  0  0  0999 V2000
   46.1840   34.3520   41.9970 N   0  0  0  0  0  0  0  0  0  0  0  0
   47.3710   34.7960   41.6140 C   0  0  0  0  0  0  0  0  0  0  0  0
   47.5360   34.3380   40.3520 C   0  0  0  0  0  0  0  0  0  0  0  0
   46.4550   33.6460   40.0290 N   0  0  0  0  0  0  0  0  0  0  0  0
   45.5690   33.6270   41.0450 C   0  0  0  0  0  0  0  0  0  0  0  0
   44.2350   33.0520   41.2950 C   0  0  0  0  0  0  0  0  0  0  0  0
   44.0620   31.9020   41.9710 N   0  0  0  0  0  0  0  0  0  0  0  0
   42.8640   31.3670   42.2070 C   0  0  0  0  0  0  0  0  0  0  0  0
   41.7110   31.9480   41.7790 N   0  0  0  0  0  0  0  0  0  0  0  0
   41.8100   33.1210   41.0840 C   0  0  0  0  0  0  0  0  0  0  0  0
   40.6600   33.7310   40.6390 C   0  0  0  0  0  0  0  0  0  0  0  0
   40.7140   34.9170   39.9350 C   0  0  0  0  0  0  0  0  0  0  0  0
   41.9820   35.4600   39.6980 C   0  0  0  0  0  0  0  0  0  0  0  0
   43.0830   34.7930   40.1740 C   0  0  0  0  0  0  0  0  0  0  0  0
   43.0830   33.6270   40.8710 C   0  0  0  0  0  0  0  0  0  0  0  0
   44.4300   35.9740   44.8810 C   0  0  0  0  0  0  0  0  0  0  0  0
   44.8950   35.7870   43.5560 C   0  0  0  0  0  0  0  0  0  0  0  0
   45.6630   34.6490   43.3140 C   0  0  0  0  0  0  0  0  0  0  0  0
   45.9080   33.8140   44.3400 N   0  0  0  0  0  0  0  0  0  0  0  0
   45.4550   34.0150   45.5810 C   0  0  0  0  0  0  0  0  0  0  0  0
   44.7130   35.0990   45.8540 N   0  0  0  0  0  0  0  0  0  0  0  0
   45.8490   32.9610   46.5570 C   0  0  0  0  0  0  0  0  0  0  0  0
   47.1080   33.1030   47.0340 F   0  0  0  0  0  0  0  0  0  0  0  0
   45.6480   31.7270   45.9500 F   0  0  0  0  0  0  0  0  0  0  0  0
   44.9750   33.0150   47.6180 F   0  0  0  0  0  0  0  0  0  0  0  0
   48.0741   35.4078   42.1983 H   0  0  0  0  0  0  0  0  0  0  0  0
   48.4119   34.5099   39.7092 H   0  0  0  0  0  0  0  0  0  0  0  0
   42.8059   30.4224   42.7676 H   0  0  0  0  0  0  0  0  0  0  0  0
   39.6844   33.2674   40.8470 H   0  0  0  0  0  0  0  0  0  0  0  0
   39.8005   35.4136   39.5760 H   0  0  0  0  0  0  0  0  0  0  0  0
   42.0939   36.4022   39.1415 H   0  0  0  0  0  0  0  0  0  0  0  0
   44.0636   35.2481   39.9708 H   0  0  0  0  0  0  0  0  0  0  0  0
   43.8216   36.8597   45.1162 H   0  0  0  0  0  0  0  0  0  0  0  0
   44.6613   36.5053   42.7564 H   0  0  0  0  0  0  0  0  0  0  0  0
  1 18  1  0
  2  1  1  0
  3  2  2  0
  4  3  1  0
  4  5  2  0
  5  6  1  0
  5  1  1  0
  6  7  2  0
  7  8  1  0
  9  8  2  0
 10  9  1  0
 11 10  2  0
 12 11  1  0
 13 12  2  0
 13 14  1  0
 14 15  2  0
 15 10  1  0
 15  6  1  0
 16 21  2  0
 17 16  1  0
 18 17  2  0
 18 19  1  0
 19 20  2  0
 20 21  1  0
 20 22  1  0
 22 23  1  0
 22 25  1  0
 24 22  1  0
  2 26  1  0
  3 27  1  0
  8 28  1  0
 11 29  1  0
 12 30  1  0
 13 31  1  0
 14 32  1  0
 16 33  1  0
 17 34  1  0
M  ISO  8  26  14  27  14  28  14  29  14  30  14  31  14  32  14  33  14
M  ISO  1  34  14
M  END
>  <minimizedAffinity>  (1) 
-6.60957289

>  <minimizedRMSD>  (1) 
0.96130842

$$$$
