
     RDKit          3D

 31 34  0  0  0  0  0  0  0  0999 V2000
   46.7470   34.7530   42.0840 N   0  0  0  0  0  0  0  0  0  0  0  0
   47.9480   35.3080   41.8940 C   0  0  0  0  0  0  0  0  0  0  0  0
   48.3010   34.9440   40.6280 C   0  0  0  0  0  0  0  0  0  0  0  0
   47.3170   34.1930   40.1010 N   0  0  0  0  0  0  0  0  0  0  0  0
   46.3300   34.0640   41.0100 C   0  0  0  0  0  0  0  0  0  0  0  0
   45.1160   33.3430   40.8300 N   0  0  0  0  0  0  0  0  0  0  0  0
   44.8830   32.0490   40.5440 C   0  0  0  0  0  0  0  0  0  0  0  0
   43.5620   31.8220   40.4690 N   0  0  0  0  0  0  0  0  0  0  0  0
   42.9140   32.9920   40.7110 C   0  0  0  0  0  0  0  0  0  0  0  0
   41.5540   33.2210   40.7340 C   0  0  0  0  0  0  0  0  0  0  0  0
   41.1890   34.4900   41.0020 N   0  0  0  0  0  0  0  0  0  0  0  0
   42.1190   35.4420   41.2270 C   0  0  0  0  0  0  0  0  0  0  0  0
   43.4510   35.1700   41.1940 N   0  0  0  0  0  0  0  0  0  0  0  0
   43.8980   33.9200   40.9310 C   0  0  0  0  0  0  0  0  0  0  0  0
   44.5130   36.0330   44.7940 C   0  0  0  0  0  0  0  0  0  0  0  0
   45.1720   35.9830   43.5320 C   0  0  0  0  0  0  0  0  0  0  0  0
   46.0290   34.9080   43.3150 C   0  0  0  0  0  0  0  0  0  0  0  0
   46.1700   33.9990   44.3080 N   0  0  0  0  0  0  0  0  0  0  0  0
   45.5470   34.0610   45.4800 C   0  0  0  0  0  0  0  0  0  0  0  0
   44.7080   35.0910   45.7240 N   0  0  0  0  0  0  0  0  0  0  0  0
   45.8550   32.9550   46.4130 C   0  0  0  0  0  0  0  0  0  0  0  0
   47.1090   33.0450   46.9570 F   0  0  0  0  0  0  0  0  0  0  0  0
   45.6500   31.7620   45.7400 F   0  0  0  0  0  0  0  0  0  0  0  0
   44.9400   32.9870   47.4430 F   0  0  0  0  0  0  0  0  0  0  0  0
   48.5240   35.9222   42.6018 H   0  0  0  0  0  0  0  0  0  0  0  0
   49.2373   35.2194   40.1206 H   0  0  0  0  0  0  0  0  0  0  0  0
   45.6622   31.2873   40.3934 H   0  0  0  0  0  0  0  0  0  0  0  0
   40.8194   32.4240   40.5468 H   0  0  0  0  0  0  0  0  0  0  0  0
   41.7895   36.4689   41.4436 H   0  0  0  0  0  0  0  0  0  0  0  0
   43.8275   36.8659   45.0090 H   0  0  0  0  0  0  0  0  0  0  0  0
   45.0114   36.7563   42.7664 H   0  0  0  0  0  0  0  0  0  0  0  0
  1 17  1  0
  2  1  1  0
  3  2  2  0
  4  3  1  0
  4  5  2  0
  5  1  1  0
  6 14  1  0
  6  5  1  0
  7  6  1  0
  8  7  2  0
  8  9  1  0
  9 10  2  0
  9 14  1  0
 10 11  1  0
 11 12  2  0
 13 12  1  0
 14 13  2  0
 15 20  2  0
 16 15  1  0
 17 16  2  0
 17 18  1  0
 18 19  2  0
 19 20  1  0
 19 21  1  0
 21 22  1  0
 21 24  1  0
 23 21  1  0
  2 25  1  0
  3 26  1  0
  7 27  1  0
 10 28  1  0
 12 29  1  0
 15 30  1  0
 16 31  1  0
M  ISO  7  25  14  26  14  27  14  28  14  29  14  30  14  31  14
M  END
>  <minimizedAffinity>  (1) 
-6.70947742

>  <minimizedRMSD>  (1) 
0.277781159

$$$$
