
     RDKit          3D

 34 36  0  0  0  0  0  0  0  0999 V2000
   46.7850   34.8000   42.0810 N   0  0  0  0  0  0  0  0  0  0  0  0
   48.0520   35.2010   41.9660 C   0  0  0  0  0  0  0  0  0  0  0  0
   48.4170   34.9000   40.6840 C   0  0  0  0  0  0  0  0  0  0  0  0
   47.3590   34.3260   40.0660 N   0  0  0  0  0  0  0  0  0  0  0  0
   46.3360   34.2590   40.9310 C   0  0  0  0  0  0  0  0  0  0  0  0
   45.0160   33.7290   40.7180 N   0  0  0  0  0  0  0  0  0  0  0  0
   44.7000   33.1870   39.4190 C   0  0  0  0  0  0  0  0  0  0  0  0
   43.2420   33.0240   39.1750 C   0  0  0  0  0  0  0  0  0  0  0  0
   42.4280   32.9610   40.3710 N   0  0  0  0  0  0  0  0  0  0  0  0
   42.7180   34.0100   41.2990 C   0  0  0  0  0  0  0  0  0  0  0  0
   44.1250   33.7920   41.8340 C   0  0  0  0  0  0  0  0  0  0  0  0
   44.4810   36.0300   44.7370 C   0  0  0  0  0  0  0  0  0  0  0  0
   45.1630   35.9960   43.4840 C   0  0  0  0  0  0  0  0  0  0  0  0
   46.0390   34.9470   43.2960 C   0  0  0  0  0  0  0  0  0  0  0  0
   46.1990   34.0320   44.2830 N   0  0  0  0  0  0  0  0  0  0  0  0
   45.5430   34.0880   45.4540 C   0  0  0  0  0  0  0  0  0  0  0  0
   44.6810   35.0900   45.6800 N   0  0  0  0  0  0  0  0  0  0  0  0
   45.8610   32.9940   46.3910 C   0  0  0  0  0  0  0  0  0  0  0  0
   47.1220   33.0780   46.9260 F   0  0  0  0  0  0  0  0  0  0  0  0
   45.6630   31.7880   45.7300 F   0  0  0  0  0  0  0  0  0  0  0  0
   44.9630   33.0340   47.4300 F   0  0  0  0  0  0  0  0  0  0  0  0
   48.6728   35.6747   42.7407 H   0  0  0  0  0  0  0  0  0  0  0  0
   49.4015   35.0914   40.2322 H   0  0  0  0  0  0  0  0  0  0  0  0
   45.1063   33.8636   38.6527 H   0  0  0  0  0  0  0  0  0  0  0  0
   45.1466   32.1828   39.3736 H   0  0  0  0  0  0  0  0  0  0  0  0
   42.8987   33.8777   38.5723 H   0  0  0  0  0  0  0  0  0  0  0  0
   43.1201   32.0560   38.6669 H   0  0  0  0  0  0  0  0  0  0  0  0
   41.4372   33.0288   40.0979 H   0  0  0  0  0  0  0  0  0  0  0  0
   42.6590   34.9840   40.7911 H   0  0  0  0  0  0  0  0  0  0  0  0
   41.9908   34.0006   42.1243 H   0  0  0  0  0  0  0  0  0  0  0  0
   44.1676   32.8495   42.3996 H   0  0  0  0  0  0  0  0  0  0  0  0
   44.4107   34.6150   42.5057 H   0  0  0  0  0  0  0  0  0  0  0  0
   43.7722   36.8468   44.9380 H   0  0  0  0  0  0  0  0  0  0  0  0
   44.9996   36.7625   42.7121 H   0  0  0  0  0  0  0  0  0  0  0  0
  1 14  1  0
  2  1  1  0
  3  2  2  0
  4  3  1  0
  4  5  2  0
  5  1  1  0
  6  5  1  0
  6 11  1  0
  7  6  1  0
  8  7  1  0
  8  9  1  0
  9 10  1  0
 10 11  1  0
 12 17  2  0
 13 12  1  0
 14 13  2  0
 14 15  1  0
 15 16  2  0
 16 17  1  0
 16 18  1  0
 18 19  1  0
 18 21  1  0
 20 18  1  0
  2 22  1  0
  3 23  1  0
  7 24  1  0
  7 25  1  0
  8 26  1  0
  8 27  1  0
  9 28  1  0
 10 29  1  0
 10 30  1  0
 11 31  1  0
 11 32  1  0
 12 33  1  0
 13 34  1  0
M  ISO  8  22  14  23  14  24  13  25  13  26  13  27  13  28   5  29  13
M  ISO  5  30  13  31  13  32  13  33  14  34  14
M  END
>  <minimizedAffinity>  (1) 
-6.17207623

>  <minimizedRMSD>  (1) 
0.137541354

$$$$
