
     RDKit          3D

 27 28  0  0  0  0  0  0  0  0999 V2000
   46.6500   34.6600   42.1990 N   0  0  0  0  0  0  0  0  0  0  0  0
   47.9530   34.8740   42.0700 C   0  0  0  0  0  0  0  0  0  0  0  0
   48.2450   34.6160   40.7680 C   0  0  0  0  0  0  0  0  0  0  0  0
   47.1040   34.2530   40.1520 N   0  0  0  0  0  0  0  0  0  0  0  0
   46.1040   34.2780   41.0380 C   0  0  0  0  0  0  0  0  0  0  0  0
   44.7270   33.9530   40.7650 N   0  0  0  0  0  0  0  0  0  0  0  0
   43.7850   33.6990   41.8240 C   0  0  0  0  0  0  0  0  0  0  0  0
   44.2850   33.0620   42.8500 N   0  0  0  0  0  0  0  0  0  0  0  0
   42.4440   34.1790   41.5970 N   0  0  0  0  0  0  0  0  0  0  0  0
   43.6060   32.8720   43.6300 H   0  0  0  0  0  0  0  0  0  0  0  0
   44.4430   35.9640   44.9110 C   0  0  0  0  0  0  0  0  0  0  0  0
   45.0780   35.8970   43.6450 C   0  0  0  0  0  0  0  0  0  0  0  0
   45.9520   34.8280   43.4420 C   0  0  0  0  0  0  0  0  0  0  0  0
   46.1360   33.9440   44.4400 N   0  0  0  0  0  0  0  0  0  0  0  0
   45.5240   34.0320   45.6240 C   0  0  0  0  0  0  0  0  0  0  0  0
   44.6720   35.0480   45.8620 N   0  0  0  0  0  0  0  0  0  0  0  0
   45.8680   32.9550   46.5800 C   0  0  0  0  0  0  0  0  0  0  0  0
   47.1320   33.0620   47.0850 F   0  0  0  0  0  0  0  0  0  0  0  0
   45.6630   31.7420   45.9380 F   0  0  0  0  0  0  0  0  0  0  0  0
   44.9840   33.0040   47.6220 F   0  0  0  0  0  0  0  0  0  0  0  0
   48.6532   35.1944   42.8555 H   0  0  0  0  0  0  0  0  0  0  0  0
   49.2378   34.6905   40.3002 H   0  0  0  0  0  0  0  0  0  0  0  0
   44.4083   33.9010   39.7869 H   0  0  0  0  0  0  0  0  0  0  0  0
   41.7168   34.0328   42.3116 H   0  0  0  0  0  0  0  0  0  0  0  0
   42.2135   34.6680   40.7202 H   0  0  0  0  0  0  0  0  0  0  0  0
   43.7449   36.7886   45.1177 H   0  0  0  0  0  0  0  0  0  0  0  0
   44.8915   36.6484   42.8636 H   0  0  0  0  0  0  0  0  0  0  0  0
  1 13  1  0
  2  1  1  0
  3  2  2  0
  4  3  1  0
  4  5  2  0
  5  1  1  0
  6  5  1  0
  6  7  1  0
  7  8  2  0
  8 10  1  0
  9  7  1  0
 11 16  2  0
 12 11  1  0
 13 12  2  0
 13 14  1  0
 14 15  2  0
 15 16  1  0
 15 17  1  0
 17 18  1  0
 17 20  1  0
 19 17  1  0
  2 21  1  0
  3 22  1  0
  6 23  1  0
  9 24  1  0
  9 25  1  0
 11 26  1  0
 12 27  1  0
M  ISO  4  21  14  22  14  26  14  27  14
M  END
>  <minimizedAffinity>  (1) 
-6.16084671

>  <minimizedRMSD>  (1) 
0.381937087

$$$$
