
     RDKit          3D

 27 29  0  0  0  0  0  0  0  0999 V2000
   46.7120   34.6770   42.2050 N   0  0  0  0  0  0  0  0  0  0  0  0
   48.0490   34.8550   42.1400 C   0  0  0  0  0  0  0  0  0  0  0  0
   48.3740   34.6210   40.8430 C   0  0  0  0  0  0  0  0  0  0  0  0
   47.2610   34.3170   40.1740 N   0  0  0  0  0  0  0  0  0  0  0  0
   46.2100   34.3490   41.0220 C   0  0  0  0  0  0  0  0  0  0  0  0
   44.4580   35.9590   44.8910 C   0  0  0  0  0  0  0  0  0  0  0  0
   45.1140   35.9050   43.6260 C   0  0  0  0  0  0  0  0  0  0  0  0
   45.9940   34.8370   43.4260 C   0  0  0  0  0  0  0  0  0  0  0  0
   46.1600   33.9410   44.4320 N   0  0  0  0  0  0  0  0  0  0  0  0
   45.5320   34.0200   45.6060 C   0  0  0  0  0  0  0  0  0  0  0  0
   44.6730   35.0420   45.8320 N   0  0  0  0  0  0  0  0  0  0  0  0
   45.8660   32.9320   46.5600 C   0  0  0  0  0  0  0  0  0  0  0  0
   47.1350   33.0460   47.0750 F   0  0  0  0  0  0  0  0  0  0  0  0
   45.6660   31.7330   45.9240 F   0  0  0  0  0  0  0  0  0  0  0  0
   44.9830   33.0000   47.6090 F   0  0  0  0  0  0  0  0  0  0  0  0
   44.8350   34.0650   40.6340 C   0  0  0  0  0  0  0  0  0  0  0  0
   44.2040   32.8300   40.7030 C   0  0  0  0  0  0  0  0  0  0  0  0
   42.9510   32.8850   40.2750 N   0  0  0  0  0  0  0  0  0  0  0  0
   42.7350   34.1710   39.9150 C   0  0  0  0  0  0  0  0  0  0  0  0
   43.8690   34.8550   40.1360 N   0  0  0  0  0  0  0  0  0  0  0  0
   48.7279   35.1301   42.9606 H   0  0  0  0  0  0  0  0  0  0  0  0
   49.3861   34.6734   40.4153 H   0  0  0  0  0  0  0  0  0  0  0  0
   43.7554   36.7804   45.0948 H   0  0  0  0  0  0  0  0  0  0  0  0
   44.9371   36.6632   42.8489 H   0  0  0  0  0  0  0  0  0  0  0  0
   44.6878   31.9129   41.0701 H   0  0  0  0  0  0  0  0  0  0  0  0
   41.7976   34.5828   39.5130 H   0  0  0  0  0  0  0  0  0  0  0  0
   43.9842   35.8610   39.9471 H   0  0  0  0  0  0  0  0  0  0  0  0
  1  8  1  0
  2  1  1  0
  3  2  2  0
  4  3  1  0
  4  5  2  0
  5  1  1  0
  6 11  2  0
  7  6  1  0
  8  7  2  0
  8  9  1  0
  9 10  2  0
 10 11  1  0
 10 12  1  0
 12 13  1  0
 12 15  1  0
 14 12  1  0
 16 17  2  0
 16  5  1  0
 18 17  1  0
 19 20  1  0
 19 18  2  0
 20 16  1  0
  2 21  1  0
  3 22  1  0
  6 23  1  0
  7 24  1  0
 17 25  1  0
 19 26  1  0
 20 27  1  0
M  ISO  7  21  14  22  14  23  14  24  14  25  14  26  14  27   9
M  END
>  <minimizedAffinity>  (1) 
-5.88361168

>  <minimizedRMSD>  (1) 
0.726206839

$$$$
