
     RDKit          3D

 27 29  0  0  0  0  0  0  0  0999 V2000
   46.7410   34.7700   42.1000 N   0  0  0  0  0  0  0  0  0  0  0  0
   48.0300   35.1440   41.9910 C   0  0  0  0  0  0  0  0  0  0  0  0
   48.3840   34.8560   40.7120 C   0  0  0  0  0  0  0  0  0  0  0  0
   47.3130   34.3210   40.0790 N   0  0  0  0  0  0  0  0  0  0  0  0
   46.3010   34.2720   40.9470 C   0  0  0  0  0  0  0  0  0  0  0  0
   45.0030   33.7700   40.6530 N   0  0  0  0  0  0  0  0  0  0  0  0
   44.5150   33.3650   39.4740 N   0  0  0  0  0  0  0  0  0  0  0  0
   43.2530   32.9560   39.5810 C   0  0  0  0  0  0  0  0  0  0  0  0
   42.9070   33.1080   40.9110 C   0  0  0  0  0  0  0  0  0  0  0  0
   44.0150   33.6210   41.5770 C   0  0  0  0  0  0  0  0  0  0  0  0
   44.4710   36.0230   44.7760 C   0  0  0  0  0  0  0  0  0  0  0  0
   45.1400   35.9760   43.5200 C   0  0  0  0  0  0  0  0  0  0  0  0
   46.0150   34.9210   43.3190 C   0  0  0  0  0  0  0  0  0  0  0  0
   46.1820   34.0090   44.3160 N   0  0  0  0  0  0  0  0  0  0  0  0
   45.5390   34.0800   45.4850 C   0  0  0  0  0  0  0  0  0  0  0  0
   44.6790   35.0930   45.7150 N   0  0  0  0  0  0  0  0  0  0  0  0
   45.8750   32.9760   46.4260 C   0  0  0  0  0  0  0  0  0  0  0  0
   47.1350   33.0700   46.9490 F   0  0  0  0  0  0  0  0  0  0  0  0
   45.6510   31.7810   45.7750 F   0  0  0  0  0  0  0  0  0  0  0  0
   44.9750   33.0390   47.4740 F   0  0  0  0  0  0  0  0  0  0  0  0
   48.6628   35.5890   42.7731 H   0  0  0  0  0  0  0  0  0  0  0  0
   49.3743   35.0283   40.2652 H   0  0  0  0  0  0  0  0  0  0  0  0
   42.6128   32.5733   38.7725 H   0  0  0  0  0  0  0  0  0  0  0  0
   41.9325   32.8670   41.3607 H   0  0  0  0  0  0  0  0  0  0  0  0
   44.0804   33.8610   42.6485 H   0  0  0  0  0  0  0  0  0  0  0  0
   43.7666   36.8432   44.9790 H   0  0  0  0  0  0  0  0  0  0  0  0
   44.9703   36.7401   42.7471 H   0  0  0  0  0  0  0  0  0  0  0  0
  1 13  1  0
  2  1  1  0
  3  2  2  0
  4  3  1  0
  4  5  2  0
  5  1  1  0
  6  5  1  0
  6 10  1  0
  7  8  2  0
  7  6  1  0
  8  9  1  0
  9 10  2  0
 11 16  2  0
 12 11  1  0
 13 12  2  0
 13 14  1  0
 14 15  2  0
 15 16  1  0
 15 17  1  0
 17 18  1  0
 17 20  1  0
 19 17  1  0
  2 21  1  0
  3 22  1  0
  8 23  1  0
  9 24  1  0
 10 25  1  0
 11 26  1  0
 12 27  1  0
M  ISO  7  21  14  22  14  23  14  24  14  25  14  26  14  27  14
M  END
>  <minimizedAffinity>  (1) 
-5.92809725

>  <minimizedRMSD>  (1) 
0.205079854

$$$$
