
     RDKit          3D

 27 29  0  0  0  0  0  0  0  0999 V2000
   44.4850   36.0620   44.7380 C   0  0  0  0  0  0  0  0  0  0  0  0
   45.1630   36.0260   43.4770 C   0  0  0  0  0  0  0  0  0  0  0  0
   46.0370   34.9490   43.2900 C   0  0  0  0  0  0  0  0  0  0  0  0
   46.1840   34.0400   44.2740 N   0  0  0  0  0  0  0  0  0  0  0  0
   45.5280   34.1130   45.4400 C   0  0  0  0  0  0  0  0  0  0  0  0
   44.6780   35.1270   45.6680 N   0  0  0  0  0  0  0  0  0  0  0  0
   46.7760   34.8010   42.0710 N   0  0  0  0  0  0  0  0  0  0  0  0
   48.0310   35.2220   41.9460 C   0  0  0  0  0  0  0  0  0  0  0  0
   48.3870   34.9100   40.6650 C   0  0  0  0  0  0  0  0  0  0  0  0
   47.3350   34.3110   40.0620 N   0  0  0  0  0  0  0  0  0  0  0  0
   46.3310   34.2420   40.9340 C   0  0  0  0  0  0  0  0  0  0  0  0
   45.0380   33.6750   40.6820 N   0  0  0  0  0  0  0  0  0  0  0  0
   44.0420   34.5710   40.9430 C   0  0  0  0  0  0  0  0  0  0  0  0
   42.8260   33.9380   40.6730 C   0  0  0  0  0  0  0  0  0  0  0  0
   43.1420   32.6860   40.2610 N   0  0  0  0  0  0  0  0  0  0  0  0
   44.4740   32.5430   40.2710 C   0  0  0  0  0  0  0  0  0  0  0  0
   45.8390   33.0030   46.3870 C   0  0  0  0  0  0  0  0  0  0  0  0
   47.0980   33.1090   46.9280 F   0  0  0  0  0  0  0  0  0  0  0  0
   45.6380   31.8130   45.7350 F   0  0  0  0  0  0  0  0  0  0  0  0
   44.9250   33.0650   47.4240 F   0  0  0  0  0  0  0  0  0  0  0  0
   43.7849   36.8849   44.9449 H   0  0  0  0  0  0  0  0  0  0  0  0
   45.0070   36.7947   42.7058 H   0  0  0  0  0  0  0  0  0  0  0  0
   48.6495   35.7155   42.7101 H   0  0  0  0  0  0  0  0  0  0  0  0
   49.3642   35.1118   40.2019 H   0  0  0  0  0  0  0  0  0  0  0  0
   44.1728   35.6030   41.3006 H   0  0  0  0  0  0  0  0  0  0  0  0
   41.8185   34.3678   40.7741 H   0  0  0  0  0  0  0  0  0  0  0  0
   45.0171   31.6305   39.9837 H   0  0  0  0  0  0  0  0  0  0  0  0
  1  6  2  0
  2  1  1  0
  3  2  2  0
  3  4  1  0
  4  5  2  0
  5  6  1  0
  5 17  1  0
  7  3  1  0
  8  7  1  0
  9  8  2  0
 10  9  1  0
 10 11  2  0
 11  7  1  0
 12 11  1  0
 12 13  1  0
 14 13  2  0
 15 16  2  0
 15 14  1  0
 16 12  1  0
 17 18  1  0
 17 20  1  0
 19 17  1  0
  1 21  1  0
  2 22  1  0
  8 23  1  0
  9 24  1  0
 13 25  1  0
 14 26  1  0
 16 27  1  0
M  ISO  7  21  14  22  14  23  14  24  14  25  14  26  14  27  14
M  END
>  <minimizedAffinity>  (1) 
-5.97635412

>  <minimizedRMSD>  (1) 
0.121517546

$$$$
