
     RDKit          3D

 28 30  0  0  0  0  0  0  0  0999 V2000
   46.6750   34.7050   42.1720 N   0  0  0  0  0  0  0  0  0  0  0  0
   47.9740   34.9540   42.0550 C   0  0  0  0  0  0  0  0  0  0  0  0
   48.2690   34.6840   40.7490 C   0  0  0  0  0  0  0  0  0  0  0  0
   47.1530   34.2840   40.1260 N   0  0  0  0  0  0  0  0  0  0  0  0
   46.1420   34.2920   41.0060 C   0  0  0  0  0  0  0  0  0  0  0  0
   44.4600   35.9830   44.8860 C   0  0  0  0  0  0  0  0  0  0  0  0
   45.1020   35.9320   43.6190 C   0  0  0  0  0  0  0  0  0  0  0  0
   45.9630   34.8690   43.4160 C   0  0  0  0  0  0  0  0  0  0  0  0
   46.1490   33.9540   44.4050 N   0  0  0  0  0  0  0  0  0  0  0  0
   45.5240   34.0390   45.5880 C   0  0  0  0  0  0  0  0  0  0  0  0
   44.6760   35.0600   45.8240 N   0  0  0  0  0  0  0  0  0  0  0  0
   45.8640   32.9380   46.5310 C   0  0  0  0  0  0  0  0  0  0  0  0
   47.1190   33.0440   47.0460 F   0  0  0  0  0  0  0  0  0  0  0  0
   45.6490   31.7500   45.8830 F   0  0  0  0  0  0  0  0  0  0  0  0
   44.9530   32.9970   47.5680 F   0  0  0  0  0  0  0  0  0  0  0  0
   44.7240   33.9500   40.8670 C   0  0  0  0  0  0  0  0  0  0  0  0
   44.2610   32.6730   41.1000 C   0  0  0  0  0  0  0  0  0  0  0  0
   42.9320   32.3200   40.9780 C   0  0  0  0  0  0  0  0  0  0  0  0
   42.0260   33.2610   40.6120 N   0  0  0  0  0  0  0  0  0  0  0  0
   42.5110   34.5060   40.3910 C   0  0  0  0  0  0  0  0  0  0  0  0
   43.7860   34.8420   40.5090 N   0  0  0  0  0  0  0  0  0  0  0  0
   48.6626   35.3019   42.8391 H   0  0  0  0  0  0  0  0  0  0  0  0
   49.2616   34.7795   40.2846 H   0  0  0  0  0  0  0  0  0  0  0  0
   43.7645   36.8081   45.0992 H   0  0  0  0  0  0  0  0  0  0  0  0
   44.9244   36.6934   42.8452 H   0  0  0  0  0  0  0  0  0  0  0  0
   44.9841   31.8991   41.3970 H   0  0  0  0  0  0  0  0  0  0  0  0
   42.6110   31.2866   41.1755 H   0  0  0  0  0  0  0  0  0  0  0  0
   41.7985   35.2897   40.0939 H   0  0  0  0  0  0  0  0  0  0  0  0
  1  8  1  0
  2  1  1  0
  3  2  2  0
  4  3  1  0
  4  5  2  0
  5  1  1  0
  6 11  2  0
  7  6  1  0
  8  7  2  0
  8  9  1  0
  9 10  2  0
 10 11  1  0
 10 12  1  0
 12 13  1  0
 12 15  1  0
 14 12  1  0
 16  5  1  0
 16 17  2  0
 18 17  1  0
 19 18  2  0
 20 21  2  0
 20 19  1  0
 21 16  1  0
  2 22  1  0
  3 23  1  0
  6 24  1  0
  7 25  1  0
 17 26  1  0
 18 27  1  0
 20 28  1  0
M  ISO  7  22  14  23  14  24  14  25  14  26  14  27  14  28  14
M  END
>  <minimizedAffinity>  (1) 
-5.83940983

>  <minimizedRMSD>  (1) 
0.603159249

$$$$
