
     RDKit          3D

 29 31  0  0  0  0  0  0  0  0999 V2000
   46.6100   34.6990   42.1480 N   0  0  0  0  0  0  0  0  0  0  0  0
   47.9030   35.0130   42.0110 C   0  0  0  0  0  0  0  0  0  0  0  0
   48.1730   34.7130   40.6950 C   0  0  0  0  0  0  0  0  0  0  0  0
   47.0550   34.2420   40.1130 N   0  0  0  0  0  0  0  0  0  0  0  0
   46.0570   34.2250   41.0130 C   0  0  0  0  0  0  0  0  0  0  0  0
   44.4570   35.9990   44.9080 C   0  0  0  0  0  0  0  0  0  0  0  0
   45.0760   35.9380   43.6310 C   0  0  0  0  0  0  0  0  0  0  0  0
   45.9250   34.8690   43.4040 C   0  0  0  0  0  0  0  0  0  0  0  0
   46.1130   33.9610   44.3970 N   0  0  0  0  0  0  0  0  0  0  0  0
   45.5140   34.0490   45.5880 C   0  0  0  0  0  0  0  0  0  0  0  0
   44.6820   35.0730   45.8470 N   0  0  0  0  0  0  0  0  0  0  0  0
   45.8630   32.9470   46.5240 C   0  0  0  0  0  0  0  0  0  0  0  0
   47.1260   33.0460   47.0300 F   0  0  0  0  0  0  0  0  0  0  0  0
   45.6540   31.7470   45.8720 F   0  0  0  0  0  0  0  0  0  0  0  0
   44.9750   32.9790   47.5740 F   0  0  0  0  0  0  0  0  0  0  0  0
   44.6540   33.8080   40.8940 C   0  0  0  0  0  0  0  0  0  0  0  0
   43.7830   34.7900   40.4120 C   0  0  0  0  0  0  0  0  0  0  0  0
   42.4660   34.3860   40.3040 C   0  0  0  0  0  0  0  0  0  0  0  0
   42.0240   33.1240   40.6390 C   0  0  0  0  0  0  0  0  0  0  0  0
   42.9730   32.2230   41.1080 C   0  0  0  0  0  0  0  0  0  0  0  0
   44.2640   32.5650   41.2310 N   0  0  0  0  0  0  0  0  0  0  0  0
   48.5888   35.4159   42.7708 H   0  0  0  0  0  0  0  0  0  0  0  0
   49.1467   34.8382   40.1987 H   0  0  0  0  0  0  0  0  0  0  0  0
   43.7732   36.8312   45.1312 H   0  0  0  0  0  0  0  0  0  0  0  0
   44.8900   36.7017   42.8615 H   0  0  0  0  0  0  0  0  0  0  0  0
   44.1189   35.8018   40.1409 H   0  0  0  0  0  0  0  0  0  0  0  0
   41.7291   35.1120   39.9298 H   0  0  0  0  0  0  0  0  0  0  0  0
   40.9654   32.8419   40.5394 H   0  0  0  0  0  0  0  0  0  0  0  0
   42.6578   31.2061   41.3846 H   0  0  0  0  0  0  0  0  0  0  0  0
  1  8  1  0
  2  1  1  0
  3  2  2  0
  4  3  1  0
  4  5  2  0
  5  1  1  0
  6 11  2  0
  7  6  1  0
  8  7  2  0
  8  9  1  0
  9 10  2  0
 10 11  1  0
 10 12  1  0
 12 13  1  0
 12 15  1  0
 14 12  1  0
 16  5  1  0
 16 21  1  0
 17 16  2  0
 18 17  1  0
 18 19  2  0
 19 20  1  0
 20 21  2  0
  2 22  1  0
  3 23  1  0
  6 24  1  0
  7 25  1  0
 17 26  1  0
 18 27  1  0
 19 28  1  0
 20 29  1  0
M  ISO  8  22  14  23  14  24  14  25  14  26  14  27  14  28  14  29  14
M  END
>  <minimizedAffinity>  (1) 
-5.83829594

>  <minimizedRMSD>  (1) 
0.562134862

$$$$
