
     RDKit          3D

 23 24  0  0  0  0  0  0  0  0999 V2000
   44.4720   35.9910   44.7590 C   0  0  0  0  0  0  0  0  0  0  0  0
   45.1590   35.9480   43.5200 C   0  0  0  0  0  0  0  0  0  0  0  0
   46.0500   34.9060   43.3350 C   0  0  0  0  0  0  0  0  0  0  0  0
   46.2190   33.9940   44.3320 N   0  0  0  0  0  0  0  0  0  0  0  0
   45.5550   34.0590   45.4940 C   0  0  0  0  0  0  0  0  0  0  0  0
   44.6790   35.0640   45.7030 N   0  0  0  0  0  0  0  0  0  0  0  0
   46.8050   34.7570   42.1190 N   0  0  0  0  0  0  0  0  0  0  0  0
   48.0970   35.0720   42.0500 C   0  0  0  0  0  0  0  0  0  0  0  0
   48.4510   34.7970   40.7560 C   0  0  0  0  0  0  0  0  0  0  0  0
   47.3660   34.3300   40.1030 N   0  0  0  0  0  0  0  0  0  0  0  0
   46.3370   34.3030   40.9440 C   0  0  0  0  0  0  0  0  0  0  0  0
   44.9960   33.8630   40.6160 C   0  0  0  0  0  0  0  0  0  0  0  0
   44.6180   32.6720   40.8460 O   0  0  0  0  0  0  0  0  0  0  0  0
   44.0510   34.6990   40.0390 O   0  0  0  0  0  0  0  0  0  0  0  0
   45.8810   32.9720   46.4450 C   0  0  0  0  0  0  0  0  0  0  0  0
   47.1530   33.0730   46.9560 F   0  0  0  0  0  0  0  0  0  0  0  0
   45.6760   31.7690   45.8130 F   0  0  0  0  0  0  0  0  0  0  0  0
   44.9940   33.0490   47.4980 F   0  0  0  0  0  0  0  0  0  0  0  0
   43.7541   36.8025   44.9490 H   0  0  0  0  0  0  0  0  0  0  0  0
   44.9916   36.7075   42.7421 H   0  0  0  0  0  0  0  0  0  0  0  0
   48.7372   35.4654   42.8533 H   0  0  0  0  0  0  0  0  0  0  0  0
   49.4522   34.9338   40.3214 H   0  0  0  0  0  0  0  0  0  0  0  0
   44.2816   35.6397   39.8340 H   0  0  0  0  0  0  0  0  0  0  0  0
  1  6  2  0
  2  1  1  0
  3  2  2  0
  3  4  1  0
  4  5  2  0
  5  6  1  0
  5 15  1  0
  7  3  1  0
  8  7  1  0
  9  8  2  0
 10  9  1  0
 10 11  2  0
 11  7  1  0
 12 13  2  0
 12 11  1  0
 14 12  1  0
 15 16  1  0
 15 18  1  0
 17 15  1  0
  1 19  1  0
  2 20  1  0
  8 21  1  0
  9 22  1  0
 14 23  1  0
M  ISO  5  19  14  20  14  21  14  22  14  23   3
M  END
>  <minimizedAffinity>  (1) 
-5.53733635

>  <minimizedRMSD>  (1) 
0.48576054

$$$$
