
     RDKit          3D

 22 23  0  0  0  0  0  0  0  0999 V2000
   44.4680   35.9990   44.7740 C   0  0  0  0  0  0  0  0  0  0  0  0
   45.1350   35.9570   43.5280 C   0  0  0  0  0  0  0  0  0  0  0  0
   46.0230   34.9050   43.3320 C   0  0  0  0  0  0  0  0  0  0  0  0
   46.1970   34.0010   44.3170 N   0  0  0  0  0  0  0  0  0  0  0  0
   45.5490   34.0670   45.4880 C   0  0  0  0  0  0  0  0  0  0  0  0
   44.6760   35.0770   45.7190 N   0  0  0  0  0  0  0  0  0  0  0  0
   46.7560   34.7640   42.1000 N   0  0  0  0  0  0  0  0  0  0  0  0
   48.0130   35.1790   41.9730 C   0  0  0  0  0  0  0  0  0  0  0  0
   48.3650   34.8830   40.6940 C   0  0  0  0  0  0  0  0  0  0  0  0
   47.3140   34.3000   40.0840 N   0  0  0  0  0  0  0  0  0  0  0  0
   46.3040   34.2220   40.9590 C   0  0  0  0  0  0  0  0  0  0  0  0
   44.9700   33.6570   40.7190 C   0  0  0  0  0  0  0  0  0  0  0  0
   44.0880   34.5100   40.4330 O   0  0  0  0  0  0  0  0  0  0  0  0
   45.8870   32.9700   46.4360 C   0  0  0  0  0  0  0  0  0  0  0  0
   47.1460   33.0790   46.9470 F   0  0  0  0  0  0  0  0  0  0  0  0
   45.6790   31.7740   45.7840 F   0  0  0  0  0  0  0  0  0  0  0  0
   44.9960   33.0370   47.4880 F   0  0  0  0  0  0  0  0  0  0  0  0
   43.7568   36.8146   44.9715 H   0  0  0  0  0  0  0  0  0  0  0  0
   44.9603   36.7179   42.7530 H   0  0  0  0  0  0  0  0  0  0  0  0
   48.6363   35.6603   42.7410 H   0  0  0  0  0  0  0  0  0  0  0  0
   49.3435   35.0853   40.2339 H   0  0  0  0  0  0  0  0  0  0  0  0
   44.7585   32.5794   40.7835 H   0  0  0  0  0  0  0  0  0  0  0  0
  1  6  2  0
  2  1  1  0
  3  2  2  0
  3  4  1  0
  4  5  2  0
  5  6  1  0
  5 14  1  0
  7  3  1  0
  8  7  1  0
  9  8  2  0
 10  9  1  0
 10 11  2  0
 11  7  1  0
 12 11  1  0
 13 12  2  0
 14 15  1  0
 14 17  1  0
 16 14  1  0
  1 18  1  0
  2 19  1  0
  8 20  1  0
  9 21  1  0
 12 22  1  0
M  ISO  5  18  14  19  14  20  14  21  14  22   6
M  END
>  <minimizedAffinity>  (1) 
-5.24763775

>  <minimizedRMSD>  (1) 
0.219507724

$$$$
