
     RDKit          3D

 21 22  0  0  0  0  0  0  0  0999 V2000
   44.4710   35.9850   44.7270 C   0  0  0  0  0  0  0  0  0  0  0  0
   45.1570   35.9570   43.4780 C   0  0  0  0  0  0  0  0  0  0  0  0
   46.0540   34.9190   43.2960 C   0  0  0  0  0  0  0  0  0  0  0  0
   46.2290   34.0070   44.2900 N   0  0  0  0  0  0  0  0  0  0  0  0
   45.5740   34.0590   45.4460 C   0  0  0  0  0  0  0  0  0  0  0  0
   44.6830   35.0610   45.6710 N   0  0  0  0  0  0  0  0  0  0  0  0
   46.8050   34.7830   42.0790 N   0  0  0  0  0  0  0  0  0  0  0  0
   48.0570   35.2570   41.9560 C   0  0  0  0  0  0  0  0  0  0  0  0
   48.4350   34.9490   40.6890 C   0  0  0  0  0  0  0  0  0  0  0  0
   47.4210   34.3100   40.0930 N   0  0  0  0  0  0  0  0  0  0  0  0
   46.4020   34.2020   40.9510 C   0  0  0  0  0  0  0  0  0  0  0  0
   44.8160   33.4230   40.6220 S   0  0  0  0  0  0  0  0  0  0  0  0
   45.9090   32.9720   46.3940 C   0  0  0  0  0  0  0  0  0  0  0  0
   47.1720   33.0980   46.9190 F   0  0  0  0  0  0  0  0  0  0  0  0
   45.7140   31.7720   45.7470 F   0  0  0  0  0  0  0  0  0  0  0  0
   45.0130   33.0340   47.4390 F   0  0  0  0  0  0  0  0  0  0  0  0
   43.7463   36.7896   44.9204 H   0  0  0  0  0  0  0  0  0  0  0  0
   44.9833   36.7175   42.7025 H   0  0  0  0  0  0  0  0  0  0  0  0
   48.6492   35.7826   42.7196 H   0  0  0  0  0  0  0  0  0  0  0  0
   49.4071   35.1841   40.2311 H   0  0  0  0  0  0  0  0  0  0  0  0
   44.2008   33.1208   41.8082 H   0  0  0  0  0  0  0  0  0  0  0  0
  1  6  2  0
  2  1  1  0
  3  2  2  0
  3  4  1  0
  4  5  2  0
  5  6  1  0
  5 13  1  0
  7  3  1  0
  8  7  1  0
  9  8  2  0
 10  9  1  0
 10 11  2  0
 11  7  1  0
 12 11  1  0
 13 14  1  0
 13 16  1  0
 15 13  1  0
  1 17  1  0
  2 18  1  0
  8 19  1  0
  9 20  1  0
 12 21  1  0
M  ISO  5  17  14  18  14  19  14  20  14  21  11
M  END
>  <minimizedAffinity>  (1) 
-5.2574625

>  <minimizedRMSD>  (1) 
0.0249119233

$$$$
