
     RDKit          3D

 26 27  0  0  0  0  0  0  0  0999 V2000
   44.4630   35.9800   44.8000 C   0  0  0  0  0  0  0  0  0  0  0  0
   45.1260   35.9270   43.5360 C   0  0  0  0  0  0  0  0  0  0  0  0
   46.0190   34.8670   43.3340 C   0  0  0  0  0  0  0  0  0  0  0  0
   46.1860   33.9830   44.3350 N   0  0  0  0  0  0  0  0  0  0  0  0
   45.5600   34.0420   45.5130 C   0  0  0  0  0  0  0  0  0  0  0  0
   44.6880   35.0580   45.7410 N   0  0  0  0  0  0  0  0  0  0  0  0
   46.7350   34.7210   42.1070 N   0  0  0  0  0  0  0  0  0  0  0  0
   47.9520   35.2280   41.9300 C   0  0  0  0  0  0  0  0  0  0  0  0
   48.3090   34.8950   40.6610 C   0  0  0  0  0  0  0  0  0  0  0  0
   47.2970   34.1980   40.1110 N   0  0  0  0  0  0  0  0  0  0  0  0
   46.3170   34.0890   41.0130 C   0  0  0  0  0  0  0  0  0  0  0  0
   45.0260   33.3850   40.7800 C   0  0  0  0  0  0  0  0  0  0  0  0
   43.9240   34.3350   40.3340 C   0  0  0  0  0  0  0  0  0  0  0  0
   45.9060   32.9540   46.4600 C   0  0  0  0  0  0  0  0  0  0  0  0
   47.1600   33.0610   46.9660 F   0  0  0  0  0  0  0  0  0  0  0  0
   45.6810   31.7520   45.8080 F   0  0  0  0  0  0  0  0  0  0  0  0
   44.9980   33.0170   47.5060 F   0  0  0  0  0  0  0  0  0  0  0  0
   43.7533   36.7956   45.0029 H   0  0  0  0  0  0  0  0  0  0  0  0
   44.9439   36.6829   42.7579 H   0  0  0  0  0  0  0  0  0  0  0  0
   48.5463   35.7984   42.6591 H   0  0  0  0  0  0  0  0  0  0  0  0
   49.2592   35.1506   40.1693 H   0  0  0  0  0  0  0  0  0  0  0  0
   45.1738   32.6233   40.0002 H   0  0  0  0  0  0  0  0  0  0  0  0
   44.7139   32.9296   41.7314 H   0  0  0  0  0  0  0  0  0  0  0  0
   43.4283   34.7624   41.2181 H   0  0  0  0  0  0  0  0  0  0  0  0
   44.3600   35.1449   39.7308 H   0  0  0  0  0  0  0  0  0  0  0  0
   43.1871   33.7844   39.7308 H   0  0  0  0  0  0  0  0  0  0  0  0
  1  6  2  0
  2  1  1  0
  3  2  2  0
  3  4  1  0
  4  5  2  0
  5  6  1  0
  5 14  1  0
  7  3  1  0
  8  7  1  0
  9  8  2  0
 10  9  1  0
 10 11  2  0
 11  7  1  0
 12 11  1  0
 13 12  1  0
 14 15  1  0
 14 17  1  0
 16 14  1  0
  1 18  1  0
  2 19  1  0
  8 20  1  0
  9 21  1  0
 12 22  1  0
 12 23  1  0
 13 24  1  0
 13 25  1  0
 13 26  1  0
M  ISO  8  18  14  19  14  20  14  21  14  22   8  23   8  24   8  25   8
M  ISO  1  26   8
M  END
>  <minimizedAffinity>  (1) 
-5.24339581

>  <minimizedRMSD>  (1) 
0.292274743

$$$$
