
     RDKit          3D

 23 24  0  0  0  0  0  0  0  0999 V2000
   44.4830   36.0150   44.7280 C   0  0  0  0  0  0  0  0  0  0  0  0
   45.1750   35.9760   43.4860 C   0  0  0  0  0  0  0  0  0  0  0  0
   46.0600   34.9300   43.3100 C   0  0  0  0  0  0  0  0  0  0  0  0
   46.2220   34.0160   44.3000 N   0  0  0  0  0  0  0  0  0  0  0  0
   45.5560   34.0750   45.4590 C   0  0  0  0  0  0  0  0  0  0  0  0
   44.6780   35.0860   45.6720 N   0  0  0  0  0  0  0  0  0  0  0  0
   46.8210   34.7860   42.0920 N   0  0  0  0  0  0  0  0  0  0  0  0
   48.1180   35.1390   42.0150 C   0  0  0  0  0  0  0  0  0  0  0  0
   48.4810   34.8590   40.7280 C   0  0  0  0  0  0  0  0  0  0  0  0
   47.4200   34.3620   40.0890 N   0  0  0  0  0  0  0  0  0  0  0  0
   46.3860   34.3130   40.9290 C   0  0  0  0  0  0  0  0  0  0  0  0
   45.0100   33.8300   40.6460 C   0  0  0  0  0  0  0  0  0  0  0  0
   44.1150   34.8890   40.6140 F   0  0  0  0  0  0  0  0  0  0  0  0
   44.9410   33.2410   39.3870 F   0  0  0  0  0  0  0  0  0  0  0  0
   44.6290   32.8940   41.5810 F   0  0  0  0  0  0  0  0  0  0  0  0
   45.8790   32.9780   46.4050 C   0  0  0  0  0  0  0  0  0  0  0  0
   47.1370   33.0740   46.9310 F   0  0  0  0  0  0  0  0  0  0  0  0
   45.6740   31.7850   45.7600 F   0  0  0  0  0  0  0  0  0  0  0  0
   44.9800   33.0580   47.4500 F   0  0  0  0  0  0  0  0  0  0  0  0
   43.7689   36.8298   44.9179 H   0  0  0  0  0  0  0  0  0  0  0  0
   45.0143   36.7371   42.7082 H   0  0  0  0  0  0  0  0  0  0  0  0
   48.7471   35.5603   42.8130 H   0  0  0  0  0  0  0  0  0  0  0  0
   49.4787   35.0165   40.2923 H   0  0  0  0  0  0  0  0  0  0  0  0
  1  6  2  0
  2  1  1  0
  3  2  2  0
  3  4  1  0
  4  5  2  0
  5  6  1  0
  5 16  1  0
  7  3  1  0
  8  7  1  0
  9  8  2  0
 10  9  1  0
 10 11  2  0
 11  7  1  0
 12 11  1  0
 12 15  1  0
 13 12  1  0
 14 12  1  0
 16 17  1  0
 16 19  1  0
 18 16  1  0
  1 20  1  0
  2 21  1  0
  8 22  1  0
  9 23  1  0
M  ISO  4  20  14  21  14  22  14  23  14
M  END
>  <minimizedAffinity>  (1) 
-5.56362581

>  <minimizedRMSD>  (1) 
0.318434477

$$$$
