
     RDKit          3D

 34 36  0  0  0  0  0  0  0  0999 V2000
   46.6830   34.7750   42.2260 N   0  0  0  0  0  0  0  0  0  0  0  0
   47.9360   35.2370   42.0730 C   0  0  0  0  0  0  0  0  0  0  0  0
   48.2660   34.9460   40.7840 C   0  0  0  0  0  0  0  0  0  0  0  0
   47.2350   34.3340   40.2060 N   0  0  0  0  0  0  0  0  0  0  0  0
   46.2260   34.2150   41.0930 C   0  0  0  0  0  0  0  0  0  0  0  0
   44.9400   33.6290   40.8760 N   0  0  0  0  0  0  0  0  0  0  0  0
   44.5160   33.1160   39.5550 C   0  0  0  0  0  0  0  0  0  0  0  0
   43.2420   33.8240   39.2010 C   0  0  0  0  0  0  0  0  0  0  0  0
   42.9520   34.8370   40.0920 O   0  0  0  0  0  0  0  0  0  0  0  0
   42.7970   34.4290   41.3960 C   0  0  0  0  0  0  0  0  0  0  0  0
   43.9150   33.4730   41.8580 C   0  0  0  0  0  0  0  0  0  0  0  0
   44.4610   35.9110   44.9650 C   0  0  0  0  0  0  0  0  0  0  0  0
   45.0960   35.9290   43.7070 C   0  0  0  0  0  0  0  0  0  0  0  0
   45.9770   34.8930   43.4730 C   0  0  0  0  0  0  0  0  0  0  0  0
   46.1960   33.9250   44.4290 N   0  0  0  0  0  0  0  0  0  0  0  0
   45.5680   33.9590   45.6010 C   0  0  0  0  0  0  0  0  0  0  0  0
   44.6890   34.9600   45.8800 N   0  0  0  0  0  0  0  0  0  0  0  0
   45.9100   32.8480   46.5140 C   0  0  0  0  0  0  0  0  0  0  0  0
   47.1690   32.9380   47.0220 F   0  0  0  0  0  0  0  0  0  0  0  0
   45.7290   31.6560   45.8170 F   0  0  0  0  0  0  0  0  0  0  0  0
   45.0280   32.8460   47.5630 F   0  0  0  0  0  0  0  0  0  0  0  0
   44.9310   36.8490   42.7130 O   0  0  0  0  0  0  0  0  0  0  0  0
   48.5598   35.7410   42.8259 H   0  0  0  0  0  0  0  0  0  0  0  0
   49.2263   35.1784   40.3004 H   0  0  0  0  0  0  0  0  0  0  0  0
   45.2886   33.3279   38.8012 H   0  0  0  0  0  0  0  0  0  0  0  0
   44.3657   32.0267   39.5854 H   0  0  0  0  0  0  0  0  0  0  0  0
   43.3423   34.2542   38.1936 H   0  0  0  0  0  0  0  0  0  0  0  0
   42.4226   33.0912   39.2393 H   0  0  0  0  0  0  0  0  0  0  0  0
   42.8027   35.3168   42.0454 H   0  0  0  0  0  0  0  0  0  0  0  0
   41.8447   33.8825   41.4618 H   0  0  0  0  0  0  0  0  0  0  0  0
   43.5540   32.4342   41.8830 H   0  0  0  0  0  0  0  0  0  0  0  0
   44.2686   33.6997   42.8746 H   0  0  0  0  0  0  0  0  0  0  0  0
   43.7473   36.7127   45.2058 H   0  0  0  0  0  0  0  0  0  0  0  0
   45.4347   36.7579   41.8656 H   0  0  0  0  0  0  0  0  0  0  0  0
  1 14  1  0
  2  1  1  0
  3  2  2  0
  4  3  1  0
  4  5  2  0
  5  1  1  0
  6  5  1  0
  6 11  1  0
  7  6  1  0
  8  7  1  0
  8  9  1  0
  9 10  1  0
 10 11  1  0
 12 17  2  0
 13 12  1  0
 14 13  2  0
 14 15  1  0
 15 16  2  0
 16 17  1  0
 16 18  1  0
 18 19  1  0
 18 21  1  0
 20 18  1  0
 22 13  1  0
  2 23  1  0
  3 24  1  0
  7 25  1  0
  7 26  1  0
  8 27  1  0
  8 28  1  0
 10 29  1  0
 10 30  1  0
 11 31  1  0
 11 32  1  0
 12 33  1  0
 22 34  1  0
M  ISO  8  23  14  24  14  25  13  26  13  27  13  28  13  29  13  30  13
M  ISO  4  31  13  32  13  33  14  34   3
M  END
>  <minimizedAffinity>  (1) 
-6.46887589

>  <minimizedRMSD>  (1) 
0.184437931

$$$$
