
     RDKit          3D

 36 38  0  0  0  0  0  0  0  0999 V2000
   46.9470   34.4630   42.4290 N   0  0  0  0  0  0  0  0  0  0  0  0
   47.9330   35.3370   42.1580 C   0  0  0  0  0  0  0  0  0  0  0  0
   48.2970   35.0820   40.8680 C   0  0  0  0  0  0  0  0  0  0  0  0
   47.5410   34.0870   40.4060 N   0  0  0  0  0  0  0  0  0  0  0  0
   46.6870   33.6830   41.3650 C   0  0  0  0  0  0  0  0  0  0  0  0
   45.7090   32.6550   41.2770 N   0  0  0  0  0  0  0  0  0  0  0  0
   45.4460   31.9070   40.0250 C   0  0  0  0  0  0  0  0  0  0  0  0
   43.9870   32.0450   39.7230 C   0  0  0  0  0  0  0  0  0  0  0  0
   43.3840   32.9770   40.5590 O   0  0  0  0  0  0  0  0  0  0  0  0
   43.4490   32.6300   41.9020 C   0  0  0  0  0  0  0  0  0  0  0  0
   44.8490   32.2120   42.3400 C   0  0  0  0  0  0  0  0  0  0  0  0
   44.7160   35.1040   45.3140 C   0  0  0  0  0  0  0  0  0  0  0  0
   45.2700   35.2740   44.0300 C   0  0  0  0  0  0  0  0  0  0  0  0
   46.3010   34.4220   43.7140 C   0  0  0  0  0  0  0  0  0  0  0  0
   46.7360   33.4800   44.6220 N   0  0  0  0  0  0  0  0  0  0  0  0
   46.1830   33.3600   45.8210 C   0  0  0  0  0  0  0  0  0  0  0  0
   45.1570   34.1810   46.1790 N   0  0  0  0  0  0  0  0  0  0  0  0
   46.7660   32.3010   46.6730 C   0  0  0  0  0  0  0  0  0  0  0  0
   47.5570   32.7950   47.6710 F   0  0  0  0  0  0  0  0  0  0  0  0
   47.4690   31.4380   45.8520 F   0  0  0  0  0  0  0  0  0  0  0  0
   45.7570   31.5860   47.2570 F   0  0  0  0  0  0  0  0  0  0  0  0
   44.8290   36.2850   43.0800 C   0  0  0  0  0  0  0  0  0  0  0  0
   44.1600   35.8540   42.1070 O   0  0  0  0  0  0  0  0  0  0  0  0
   45.1350   37.6290   43.2540 O   0  0  0  0  0  0  0  0  0  0  0  0
   48.3559   36.0958   42.8328 H   0  0  0  0  0  0  0  0  0  0  0  0
   49.0816   35.6086   40.3049 H   0  0  0  0  0  0  0  0  0  0  0  0
   46.0423   32.3284   39.2023 H   0  0  0  0  0  0  0  0  0  0  0  0
   45.7220   30.8482   40.1383 H   0  0  0  0  0  0  0  0  0  0  0  0
   43.8664   32.3694   38.6789 H   0  0  0  0  0  0  0  0  0  0  0  0
   43.5051   31.0697   39.8858 H   0  0  0  0  0  0  0  0  0  0  0  0
   43.1370   33.4963   42.5038 H   0  0  0  0  0  0  0  0  0  0  0  0
   42.7845   31.7664   42.0523 H   0  0  0  0  0  0  0  0  0  0  0  0
   44.9090   31.1200   42.4585 H   0  0  0  0  0  0  0  0  0  0  0  0
   45.1291   32.6458   43.3113 H   0  0  0  0  0  0  0  0  0  0  0  0
   43.8855   35.7573   45.6195 H   0  0  0  0  0  0  0  0  0  0  0  0
   44.8232   38.2972   42.5934 H   0  0  0  0  0  0  0  0  0  0  0  0
  1 14  1  0
  2  1  1  0
  3  2  2  0
  4  3  1  0
  4  5  2  0
  5  1  1  0
  6  5  1  0
  6 11  1  0
  7  6  1  0
  8  7  1  0
  8  9  1  0
  9 10  1  0
 10 11  1  0
 12 17  2  0
 13 12  1  0
 14 13  2  0
 14 15  1  0
 15 16  2  0
 16 17  1  0
 16 18  1  0
 18 21  1  0
 18 19  1  0
 20 18  1  0
 22 24  1  0
 22 13  1  0
 23 22  2  0
  2 25  1  0
  3 26  1  0
  7 27  1  0
  7 28  1  0
  8 29  1  0
  8 30  1  0
 10 31  1  0
 10 32  1  0
 11 33  1  0
 11 34  1  0
 12 35  1  0
 24 36  1  0
M  ISO  8  25  14  26  14  27  13  28  13  29  13  30  13  31  13  32  13
M  ISO  4  33  13  34  13  35  14  36   3
M  END
>  <minimizedAffinity>  (1) 
-6.01547146

>  <minimizedRMSD>  (1) 
1.26852989

$$$$
