
     RDKit          3D

 35 37  0  0  0  0  0  0  0  0999 V2000
   46.6960   34.7580   42.2480 N   0  0  0  0  0  0  0  0  0  0  0  0
   47.9460   35.2220   42.0850 C   0  0  0  0  0  0  0  0  0  0  0  0
   48.2730   34.9540   40.7940 C   0  0  0  0  0  0  0  0  0  0  0  0
   47.2320   34.3430   40.2100 N   0  0  0  0  0  0  0  0  0  0  0  0
   46.2450   34.2140   41.1020 C   0  0  0  0  0  0  0  0  0  0  0  0
   44.9590   33.6190   40.8880 N   0  0  0  0  0  0  0  0  0  0  0  0
   44.5310   33.1180   39.5620 C   0  0  0  0  0  0  0  0  0  0  0  0
   43.2440   33.8060   39.2280 C   0  0  0  0  0  0  0  0  0  0  0  0
   42.9590   34.8170   40.1260 O   0  0  0  0  0  0  0  0  0  0  0  0
   42.8120   34.3830   41.4360 C   0  0  0  0  0  0  0  0  0  0  0  0
   43.9360   33.4410   41.8770 C   0  0  0  0  0  0  0  0  0  0  0  0
   44.4840   35.8410   45.0150 C   0  0  0  0  0  0  0  0  0  0  0  0
   45.1150   35.8850   43.7530 C   0  0  0  0  0  0  0  0  0  0  0  0
   46.0000   34.8560   43.4920 C   0  0  0  0  0  0  0  0  0  0  0  0
   46.2230   33.8740   44.4340 N   0  0  0  0  0  0  0  0  0  0  0  0
   45.5970   33.8850   45.6100 C   0  0  0  0  0  0  0  0  0  0  0  0
   44.7170   34.8760   45.9100 N   0  0  0  0  0  0  0  0  0  0  0  0
   45.9480   32.7570   46.5010 C   0  0  0  0  0  0  0  0  0  0  0  0
   47.2360   32.8260   46.9760 F   0  0  0  0  0  0  0  0  0  0  0  0
   45.7370   31.5800   45.7950 F   0  0  0  0  0  0  0  0  0  0  0  0
   45.1060   32.7480   47.5760 F   0  0  0  0  0  0  0  0  0  0  0  0
   44.9060   36.8980   42.7820 N   0  0  0  0  0  0  0  0  0  0  0  0
   48.5745   35.7165   42.8403 H   0  0  0  0  0  0  0  0  0  0  0  0
   49.2302   35.1972   40.3095 H   0  0  0  0  0  0  0  0  0  0  0  0
   45.2932   33.3545   38.8049 H   0  0  0  0  0  0  0  0  0  0  0  0
   44.3992   32.0261   39.5791 H   0  0  0  0  0  0  0  0  0  0  0  0
   43.3209   34.2364   38.2186 H   0  0  0  0  0  0  0  0  0  0  0  0
   42.4341   33.0633   39.2780 H   0  0  0  0  0  0  0  0  0  0  0  0
   42.8082   35.2607   42.0990 H   0  0  0  0  0  0  0  0  0  0  0  0
   41.8670   33.8232   41.4961 H   0  0  0  0  0  0  0  0  0  0  0  0
   43.5864   32.3981   41.8921 H   0  0  0  0  0  0  0  0  0  0  0  0
   44.2930   33.6613   42.8939 H   0  0  0  0  0  0  0  0  0  0  0  0
   43.7690   36.6360   45.2732 H   0  0  0  0  0  0  0  0  0  0  0  0
   45.4055   36.8596   41.8820 H   0  0  0  0  0  0  0  0  0  0  0  0
   44.2548   37.6718   42.9770 H   0  0  0  0  0  0  0  0  0  0  0  0
  1 14  1  0
  2  1  1  0
  3  2  2  0
  4  3  1  0
  4  5  2  0
  5  1  1  0
  6  5  1  0
  6 11  1  0
  7  6  1  0
  8  7  1  0
  8  9  1  0
  9 10  1  0
 10 11  1  0
 12 17  2  0
 13 12  1  0
 14 13  2  0
 14 15  1  0
 15 16  2  0
 16 17  1  0
 16 18  1  0
 18 19  1  0
 18 21  1  0
 20 18  1  0
 22 13  1  0
  2 23  1  0
  3 24  1  0
  7 25  1  0
  7 26  1  0
  8 27  1  0
  8 28  1  0
 10 29  1  0
 10 30  1  0
 11 31  1  0
 11 32  1  0
 12 33  1  0
 22 34  1  0
 22 35  1  0
M  ISO  8  23  14  24  14  25  13  26  13  27  13  28  13  29  13  30  13
M  ISO  3  31  13  32  13  33  14
M  END
>  <minimizedAffinity>  (1) 
-6.42475796

>  <minimizedRMSD>  (1) 
0.237093031

$$$$
