
     RDKit          3D

 47 51  0  0  0  0  0  0  0  0999 V2000
   48.3980   33.8380   41.9730 N   0  0  0  0  0  0  0  0  0  0  0  0
   49.0360   34.9370   42.3650 C   0  0  0  0  0  0  0  0  0  0  0  0
   49.0770   35.7660   41.2980 C   0  0  0  0  0  0  0  0  0  0  0  0
   48.4650   35.1600   40.2760 N   0  0  0  0  0  0  0  0  0  0  0  0
   48.0300   33.9550   40.6690 C   0  0  0  0  0  0  0  0  0  0  0  0
   47.3100   32.9470   39.9060 N   0  0  0  0  0  0  0  0  0  0  0  0
   46.9070   33.3470   38.5060 C   0  0  0  0  0  0  0  0  0  0  0  0
   45.4290   33.0630   38.4380 C   0  0  0  0  0  0  0  0  0  0  0  0
   44.8820   32.8640   39.6910 O   0  0  0  0  0  0  0  0  0  0  0  0
   45.3830   31.7710   40.3580 C   0  0  0  0  0  0  0  0  0  0  0  0
   46.9290   31.6700   40.2650 C   0  0  0  0  0  0  0  0  0  0  0  0
   46.8710   31.4200   44.3000 C   0  0  0  0  0  0  0  0  0  0  0  0
   46.9590   32.5720   43.5210 C   0  0  0  0  0  0  0  0  0  0  0  0
   48.1550   32.7190   42.8260 C   0  0  0  0  0  0  0  0  0  0  0  0
   49.1830   31.7730   42.9180 N   0  0  0  0  0  0  0  0  0  0  0  0
   49.0000   30.7100   43.6870 C   0  0  0  0  0  0  0  0  0  0  0  0
   47.8660   30.5130   44.3790 N   0  0  0  0  0  0  0  0  0  0  0  0
   50.1600   29.7890   43.6870 C   0  0  0  0  0  0  0  0  0  0  0  0
   50.3110   29.0840   44.8310 F   0  0  0  0  0  0  0  0  0  0  0  0
   51.2990   30.5470   43.3670 F   0  0  0  0  0  0  0  0  0  0  0  0
   50.0360   28.8960   42.6360 F   0  0  0  0  0  0  0  0  0  0  0  0
   45.9640   33.5450   43.4060 N   0  0  0  0  0  0  0  0  0  0  0  0
   45.7030   31.2250   45.0090 O   0  0  0  0  0  0  0  0  0  0  0  0
   45.0610   28.9150   48.9580 N   0  0  0  0  0  0  0  0  0  0  0  0
   44.8510   28.1610   47.8590 C   0  0  0  0  0  0  0  0  0  0  0  0
   45.0480   28.8690   46.7160 N   0  0  0  0  0  0  0  0  0  0  0  0
   45.3970   30.1210   47.0780 C   0  0  0  0  0  0  0  0  0  0  0  0
   45.7180   31.2770   46.3910 C   0  0  0  0  0  0  0  0  0  0  0  0
   46.0230   32.3670   47.1220 N   0  0  0  0  0  0  0  0  0  0  0  0
   46.0150   32.3370   48.4630 C   0  0  0  0  0  0  0  0  0  0  0  0
   45.7070   31.2270   49.1900 N   0  0  0  0  0  0  0  0  0  0  0  0
   45.3970   30.1200   48.4570 C   0  0  0  0  0  0  0  0  0  0  0  0
   49.4505   35.1336   43.3648 H   0  0  0  0  0  0  0  0  0  0  0  0
   49.5347   36.7660   41.2749 H   0  0  0  0  0  0  0  0  0  0  0  0
   47.1050   34.4155   38.3356 H   0  0  0  0  0  0  0  0  0  0  0  0
   47.4720   32.7991   37.7375 H   0  0  0  0  0  0  0  0  0  0  0  0
   44.9248   33.9169   37.9619 H   0  0  0  0  0  0  0  0  0  0  0  0
   45.2866   32.1412   37.8548 H   0  0  0  0  0  0  0  0  0  0  0  0
   45.0982   31.8445   41.4179 H   0  0  0  0  0  0  0  0  0  0  0  0
   44.9620   30.8714   39.8853 H   0  0  0  0  0  0  0  0  0  0  0  0
   47.2308   30.9392   39.5003 H   0  0  0  0  0  0  0  0  0  0  0  0
   47.3950   31.3292   41.2013 H   0  0  0  0  0  0  0  0  0  0  0  0
   46.1151   34.3676   42.8049 H   0  0  0  0  0  0  0  0  0  0  0  0
   45.0789   33.4401   43.9223 H   0  0  0  0  0  0  0  0  0  0  0  0
   44.9829   28.6356   49.9463 H   0  0  0  0  0  0  0  0  0  0  0  0
   44.5561   27.1016   47.8851 H   0  0  0  0  0  0  0  0  0  0  0  0
   46.2712   33.2591   49.0052 H   0  0  0  0  0  0  0  0  0  0  0  0
  1  2  1  0
  1 14  1  0
  3  2  2  0
  4  5  2  0
  4  3  1  0
  5  1  1  0
  6 11  1  0
  6  5  1  0
  7  6  1  0
  8  7  1  0
  8  9  1  0
  9 10  1  0
 11 10  1  0
 12 17  1  0
 12 23  1  0
 13 12  2  0
 14 15  2  0
 14 13  1  0
 15 16  1  0
 16 18  1  0
 16 17  2  0
 18 19  1  0
 20 18  1  0
 21 18  1  0
 22 13  1  0
 23 28  1  0
 25 24  1  0
 26 27  1  0
 26 25  2  0
 27 32  2  0
 28 27  1  0
 28 29  2  0
 29 30  1  0
 30 31  2  0
 32 24  1  0
 32 31  1  0
  2 33  1  0
  3 34  1  0
  7 35  1  0
  7 36  1  0
  8 37  1  0
  8 38  1  0
 10 39  1  0
 10 40  1  0
 11 41  1  0
 11 42  1  0
 22 43  1  0
 22 44  1  0
 24 45  1  0
 25 46  1  0
 30 47  1  0
M  ISO  8  33  14  34  14  35  13  36  13  37  13  38  13  39  13  40  13
M  ISO  5  41  13  42  13  45   9  46  14  47  14
M  END
>  <minimizedAffinity>  (1) 
-5.77537584

>  <minimizedRMSD>  (1) 
3.79983211

$$$$
