
     RDKit          3D

 29 31  0  0  0  0  0  0  0  0999 V2000
   45.1490   34.4170   45.3180 C   0  0  0  0  0  0  0  0  0  0  0  0
   45.5800   34.6370   43.9910 C   0  0  0  0  0  0  0  0  0  0  0  0
   46.6670   33.8960   43.5210 C   0  0  0  0  0  0  0  0  0  0  0  0
   47.2790   32.9850   44.3460 N   0  0  0  0  0  0  0  0  0  0  0  0
   46.8090   32.8280   45.6110 C   0  0  0  0  0  0  0  0  0  0  0  0
   45.7710   33.5190   46.0950 N   0  0  0  0  0  0  0  0  0  0  0  0
   47.1590   34.0580   42.2020 N   0  0  0  0  0  0  0  0  0  0  0  0
   48.0350   35.0860   42.0410 C   0  0  0  0  0  0  0  0  0  0  0  0
   48.6020   35.3660   40.7960 C   0  0  0  0  0  0  0  0  0  0  0  0
   48.2240   34.5470   39.7500 C   0  0  0  0  0  0  0  0  0  0  0  0
   48.7670   34.7850   38.4650 N   0  0  0  0  0  0  0  0  0  0  0  0
   47.3550   33.5370   39.9310 N   0  0  0  0  0  0  0  0  0  0  0  0
   46.8260   33.2930   41.1460 C   0  0  0  0  0  0  0  0  0  0  0  0
   46.0050   32.3480   41.3500 O   0  0  0  0  0  0  0  0  0  0  0  0
   44.7720   35.8300   42.9190 S   0  0  0  0  0  0  0  0  0  0  0  0
   42.2430   33.5560   41.0430 N   0  0  0  0  0  0  0  0  0  0  0  0
   43.2040   33.7310   41.9180 N   0  0  0  0  0  0  0  0  0  0  0  0
   43.5380   35.0600   41.9240 C   0  0  0  0  0  0  0  0  0  0  0  0
   42.7290   35.6500   41.0150 C   0  0  0  0  0  0  0  0  0  0  0  0
   41.8830   34.7260   40.4260 C   0  0  0  0  0  0  0  0  0  0  0  0
   44.2967   34.9867   45.7168 H   0  0  0  0  0  0  0  0  0  0  0  0
   47.3053   32.0985   46.2679 H   0  0  0  0  0  0  0  0  0  0  0  0
   48.3018   35.7085   42.9078 H   0  0  0  0  0  0  0  0  0  0  0  0
   49.3118   36.1946   40.6558 H   0  0  0  0  0  0  0  0  0  0  0  0
   49.4330   35.5577   38.3224 H   0  0  0  0  0  0  0  0  0  0  0  0
   48.4963   34.1855   37.6724 H   0  0  0  0  0  0  0  0  0  0  0  0
   41.8085   32.6440   40.8423 H   0  0  0  0  0  0  0  0  0  0  0  0
   42.7415   36.7234   40.7751 H   0  0  0  0  0  0  0  0  0  0  0  0
   41.1146   34.8896   39.6560 H   0  0  0  0  0  0  0  0  0  0  0  0
  1  6  2  0
  2  1  1  0
  3  2  2  0
  3  4  1  0
  4  5  2  0
  5  6  1  0
  7  3  1  0
  8  7  1  0
  9  8  2  0
 10 12  2  0
 10  9  1  0
 11 10  1  0
 12 13  1  0
 13 14  2  0
 13  7  1  0
 15  2  1  0
 16 17  1  0
 17 18  2  0
 18 15  1  0
 19 18  1  0
 20 19  2  0
 20 16  1  0
  1 21  1  0
  5 22  1  0
  8 23  1  0
  9 24  1  0
 11 25  1  0
 11 26  1  0
 16 27  1  0
 19 28  1  0
 20 29  1  0
M  ISO  7  21  14  22  14  23  14  24  14  27   9  28  14  29  14
M  END
>  <minimizedAffinity>  (1) 
-5.33823442

>  <minimizedRMSD>  (1) 
2.52904797

$$$$
