
     RDKit          3D

 34 37  0  0  0  0  0  0  0  0999 V2000
   45.2080   34.1660   45.2940 C   0  0  0  0  0  0  0  0  0  0  0  0
   45.6950   34.5900   44.0320 C   0  0  0  0  0  0  0  0  0  0  0  0
   46.8490   33.9960   43.5410 C   0  0  0  0  0  0  0  0  0  0  0  0
   47.4610   33.0280   44.3010 N   0  0  0  0  0  0  0  0  0  0  0  0
   46.9560   32.6600   45.4970 C   0  0  0  0  0  0  0  0  0  0  0  0
   45.8490   33.2180   45.9880 N   0  0  0  0  0  0  0  0  0  0  0  0
   47.4280   34.3670   42.2450 C   0  0  0  0  0  0  0  0  0  0  0  0
   48.3770   35.3700   42.1830 C   0  0  0  0  0  0  0  0  0  0  0  0
   48.9660   35.7610   41.0110 C   0  0  0  0  0  0  0  0  0  0  0  0
   48.6080   35.1340   39.8110 C   0  0  0  0  0  0  0  0  0  0  0  0
   47.6660   34.1430   39.8830 C   0  0  0  0  0  0  0  0  0  0  0  0
   47.3010   33.5180   38.7140 C   0  0  0  0  0  0  0  0  0  0  0  0
   46.3530   32.5020   38.6770 C   0  0  0  0  0  0  0  0  0  0  0  0
   45.7950   32.1490   39.8780 C   0  0  0  0  0  0  0  0  0  0  0  0
   46.1280   32.7420   41.0720 C   0  0  0  0  0  0  0  0  0  0  0  0
   47.0640   33.7390   41.0640 C   0  0  0  0  0  0  0  0  0  0  0  0
   44.8640   35.8520   43.0790 S   0  0  0  0  0  0  0  0  0  0  0  0
   42.2950   33.8400   40.9710 N   0  0  0  0  0  0  0  0  0  0  0  0
   43.0000   34.0380   42.0610 N   0  0  0  0  0  0  0  0  0  0  0  0
   43.7510   35.1620   41.9070 C   0  0  0  0  0  0  0  0  0  0  0  0
   43.4630   35.6350   40.6650 C   0  0  0  0  0  0  0  0  0  0  0  0
   42.5420   34.8200   40.0430 C   0  0  0  0  0  0  0  0  0  0  0  0
   44.2951   34.6202   45.7066 H   0  0  0  0  0  0  0  0  0  0  0  0
   47.4695   31.8816   46.0804 H   0  0  0  0  0  0  0  0  0  0  0  0
   48.6713   35.8752   43.1147 H   0  0  0  0  0  0  0  0  0  0  0  0
   49.7174   36.5644   41.0116 H   0  0  0  0  0  0  0  0  0  0  0  0
   49.0635   35.4249   38.8529 H   0  0  0  0  0  0  0  0  0  0  0  0
   47.7766   33.8335   37.7736 H   0  0  0  0  0  0  0  0  0  0  0  0
   46.0667   32.0089   37.7363 H   0  0  0  0  0  0  0  0  0  0  0  0
   45.0406   31.3485   39.8866 H   0  0  0  0  0  0  0  0  0  0  0  0
   45.6532   32.4225   42.0114 H   0  0  0  0  0  0  0  0  0  0  0  0
   41.6438   33.0543   40.8314 H   0  0  0  0  0  0  0  0  0  0  0  0
   43.9027   36.5397   40.2199 H   0  0  0  0  0  0  0  0  0  0  0  0
   42.1071   34.9295   39.0386 H   0  0  0  0  0  0  0  0  0  0  0  0
  1  6  2  0
  2  1  1  0
  3  2  2  0
  3  4  1  0
  4  5  2  0
  5  6  1  0
  7  3  1  0
  8  7  2  0
  9  8  1  0
 10 11  1  0
 10  9  2  0
 11 16  2  0
 12 11  1  0
 13 12  2  0
 13 14  1  0
 14 15  2  0
 16 15  1  0
 16  7  1  0
 17  2  1  0
 18 19  1  0
 20 19  2  0
 20 17  1  0
 21 20  1  0
 22 21  2  0
 22 18  1  0
  1 23  1  0
  5 24  1  0
  8 25  1  0
  9 26  1  0
 10 27  1  0
 12 28  1  0
 13 29  1  0
 14 30  1  0
 15 31  1  0
 18 32  1  0
 21 33  1  0
 22 34  1  0
M  ISO  8  23  14  24  14  25  14  26  14  27  14  28  14  29  14  30  14
M  ISO  4  31  14  32   9  33  14  34  14
M  END
>  <minimizedAffinity>  (1) 
-5.50834465

>  <minimizedRMSD>  (1) 
3.19312739

$$$$
