
     RDKit          3D

 32 35  0  0  0  0  0  0  0  0999 V2000
   45.0810   34.4970   44.7690 C   0  0  0  0  0  0  0  0  0  0  0  0
   45.5690   34.7750   43.4710 C   0  0  0  0  0  0  0  0  0  0  0  0
   46.7700   34.1910   43.0930 C   0  0  0  0  0  0  0  0  0  0  0  0
   47.4580   33.3800   43.9350 N   0  0  0  0  0  0  0  0  0  0  0  0
   46.9400   33.1420   45.1840 C   0  0  0  0  0  0  0  0  0  0  0  0
   45.7890   33.6850   45.5830 N   0  0  0  0  0  0  0  0  0  0  0  0
   47.3520   34.4350   41.7820 C   0  0  0  0  0  0  0  0  0  0  0  0
   48.4070   35.3540   41.7800 C   0  0  0  0  0  0  0  0  0  0  0  0
   48.8990   35.4860   40.5100 N   0  0  0  0  0  0  0  0  0  0  0  0
   48.1790   34.6660   39.6910 C   0  0  0  0  0  0  0  0  0  0  0  0
   48.1820   34.3500   38.3300 C   0  0  0  0  0  0  0  0  0  0  0  0
   47.2310   33.4210   37.8830 C   0  0  0  0  0  0  0  0  0  0  0  0
   46.3090   32.8140   38.7020 C   0  0  0  0  0  0  0  0  0  0  0  0
   46.2820   33.1060   40.0610 C   0  0  0  0  0  0  0  0  0  0  0  0
   47.2380   34.0270   40.4580 C   0  0  0  0  0  0  0  0  0  0  0  0
   44.6540   35.8300   42.3360 S   0  0  0  0  0  0  0  0  0  0  0  0
   41.8500   33.4470   41.0470 N   0  0  0  0  0  0  0  0  0  0  0  0
   43.0410   33.6690   41.5540 N   0  0  0  0  0  0  0  0  0  0  0  0
   43.2270   35.0030   41.7010 C   0  0  0  0  0  0  0  0  0  0  0  0
   42.0890   35.5670   41.2590 C   0  0  0  0  0  0  0  0  0  0  0  0
   41.1680   34.6220   40.8250 C   0  0  0  0  0  0  0  0  0  0  0  0
   44.1336   34.9381   45.1122 H   0  0  0  0  0  0  0  0  0  0  0  0
   47.4894   32.4854   45.8747 H   0  0  0  0  0  0  0  0  0  0  0  0
   48.7835   35.8888   42.6644 H   0  0  0  0  0  0  0  0  0  0  0  0
   49.6766   36.0973   40.2227 H   0  0  0  0  0  0  0  0  0  0  0  0
   48.9011   34.8112   37.6371 H   0  0  0  0  0  0  0  0  0  0  0  0
   47.2225   33.1629   36.8137 H   0  0  0  0  0  0  0  0  0  0  0  0
   45.5905   32.0952   38.2810 H   0  0  0  0  0  0  0  0  0  0  0  0
   45.5659   32.6470   40.7585 H   0  0  0  0  0  0  0  0  0  0  0  0
   41.4733   32.5107   40.8412 H   0  0  0  0  0  0  0  0  0  0  0  0
   41.9083   36.6519   41.2430 H   0  0  0  0  0  0  0  0  0  0  0  0
   40.1595   34.7728   40.4126 H   0  0  0  0  0  0  0  0  0  0  0  0
  1  6  2  0
  2  1  1  0
  3  2  2  0
  3  4  1  0
  4  5  2  0
  5  6  1  0
  7  3  1  0
  8  7  2  0
  9  8  1  0
 10 15  2  0
 10  9  1  0
 11 10  1  0
 12 11  2  0
 12 13  1  0
 13 14  2  0
 14 15  1  0
 15  7  1  0
 16  2  1  0
 17 18  1  0
 18 19  2  0
 19 16  1  0
 20 19  1  0
 21 17  1  0
 21 20  2  0
  1 22  1  0
  5 23  1  0
  8 24  1  0
  9 25  1  0
 11 26  1  0
 12 27  1  0
 13 28  1  0
 14 29  1  0
 17 30  1  0
 20 31  1  0
 21 32  1  0
M  ISO  8  22  14  23  14  24  14  25   9  26  14  27  14  28  14  29  14
M  ISO  3  30   9  31  14  32  14
M  END
>  <minimizedAffinity>  (1) 
-5.70620728

>  <minimizedRMSD>  (1) 
2.99093819

$$$$
