
     RDKit          3D

 31 33  0  0  0  0  0  0  0  0999 V2000
   44.9030   34.7430   45.1840 C   0  0  0  0  0  0  0  0  0  0  0  0
   45.3040   34.8450   43.8390 C   0  0  0  0  0  0  0  0  0  0  0  0
   46.3900   34.0820   43.4270 C   0  0  0  0  0  0  0  0  0  0  0  0
   47.0390   33.2620   44.3140 N   0  0  0  0  0  0  0  0  0  0  0  0
   46.5960   33.2150   45.5990 C   0  0  0  0  0  0  0  0  0  0  0  0
   45.5570   33.9340   46.0280 N   0  0  0  0  0  0  0  0  0  0  0  0
   47.9390   34.1680   39.4450 C   0  0  0  0  0  0  0  0  0  0  0  0
   48.4350   35.0290   40.4030 C   0  0  0  0  0  0  0  0  0  0  0  0
   47.9030   34.9640   41.6740 C   0  0  0  0  0  0  0  0  0  0  0  0
   46.8980   34.0950   42.0830 C   0  0  0  0  0  0  0  0  0  0  0  0
   46.4520   33.2670   41.0770 C   0  0  0  0  0  0  0  0  0  0  0  0
   46.9340   33.2710   39.7750 C   0  0  0  0  0  0  0  0  0  0  0  0
   48.5270   34.1530   37.8090 S   0  0  0  0  0  0  0  0  0  0  0  0
   49.4740   33.0350   37.5410 O   0  0  0  0  0  0  0  0  0  0  0  0
   47.3860   34.1150   36.8190 O   0  0  0  0  0  0  0  0  0  0  0  0
   44.4790   35.9040   42.6560 S   0  0  0  0  0  0  0  0  0  0  0  0
   41.9530   33.4690   40.9860 N   0  0  0  0  0  0  0  0  0  0  0  0
   43.0640   33.7100   41.6410 N   0  0  0  0  0  0  0  0  0  0  0  0
   43.1760   35.0640   41.8350 C   0  0  0  0  0  0  0  0  0  0  0  0
   42.0700   35.5980   41.2590 C   0  0  0  0  0  0  0  0  0  0  0  0
   41.2610   34.6210   40.7050 C   0  0  0  0  0  0  0  0  0  0  0  0
   44.0466   35.3316   45.5448 H   0  0  0  0  0  0  0  0  0  0  0  0
   47.1147   32.5583   46.3129 H   0  0  0  0  0  0  0  0  0  0  0  0
   49.2322   35.7469   40.1597 H   0  0  0  0  0  0  0  0  0  0  0  0
   48.3075   35.6572   42.4262 H   0  0  0  0  0  0  0  0  0  0  0  0
   45.6552   32.5497   41.3231 H   0  0  0  0  0  0  0  0  0  0  0  0
   46.5282   32.5788   39.0226 H   0  0  0  0  0  0  0  0  0  0  0  0
   49.2239   35.3214   37.6476 H   0  0  0  0  0  0  0  0  0  0  0  0
   41.6373   32.5269   40.7147 H   0  0  0  0  0  0  0  0  0  0  0  0
   41.8440   36.6743   41.2351 H   0  0  0  0  0  0  0  0  0  0  0  0
   40.3050   34.7380   40.1737 H   0  0  0  0  0  0  0  0  0  0  0  0
  1  6  2  0
  2  1  1  0
  3  2  2  0
  3  4  1  0
  4  5  2  0
  5  6  1  0
  7 12  2  0
  7  8  1  0
  8  9  2  0
  9 10  1  0
 10  3  1  0
 11 10  2  0
 12 11  1  0
 13  7  1  0
 14 13  2  0
 15 13  2  0
 16  2  1  0
 17 18  1  0
 18 19  2  0
 19 16  1  0
 20 19  1  0
 21 17  1  0
 21 20  2  0
  1 22  1  0
  5 23  1  0
  8 24  1  0
  9 25  1  0
 11 26  1  0
 12 27  1  0
 13 28  1  0
 17 29  1  0
 20 30  1  0
 21 31  1  0
M  ISO  8  22  14  23  14  24  14  25  14  26  14  27  14  28  11  29   9
M  ISO  2  30  14  31  14
M  END
>  <minimizedAffinity>  (1) 
-5.23774385

>  <minimizedRMSD>  (1) 
2.65783453

$$$$
