
     RDKit          3D

 28 30  0  0  0  0  0  0  0  0999 V2000
   45.0080   34.5130   44.4580 C   0  0  0  0  0  0  0  0  0  0  0  0
   45.4630   34.6780   43.1370 C   0  0  0  0  0  0  0  0  0  0  0  0
   46.6790   34.0840   42.7560 C   0  0  0  0  0  0  0  0  0  0  0  0
   47.3800   33.3640   43.6920 N   0  0  0  0  0  0  0  0  0  0  0  0
   46.8870   33.2470   44.9420 C   0  0  0  0  0  0  0  0  0  0  0  0
   45.7330   33.8000   45.3320 N   0  0  0  0  0  0  0  0  0  0  0  0
   47.1970   34.2040   41.4550 N   0  0  0  0  0  0  0  0  0  0  0  0
   46.6560   33.3680   40.5490 C   0  0  0  0  0  0  0  0  0  0  0  0
   47.0730   33.3740   39.2130 C   0  0  0  0  0  0  0  0  0  0  0  0
   48.0670   34.2740   38.8470 C   0  0  0  0  0  0  0  0  0  0  0  0
   48.4300   34.2690   37.6510 O   0  0  0  0  0  0  0  0  0  0  0  0
   48.5950   35.1070   39.7890 N   0  0  0  0  0  0  0  0  0  0  0  0
   48.1610   35.0630   41.0620 C   0  0  0  0  0  0  0  0  0  0  0  0
   48.6410   35.8360   41.9580 O   0  0  0  0  0  0  0  0  0  0  0  0
   44.5300   35.6250   41.9210 S   0  0  0  0  0  0  0  0  0  0  0  0
   41.4360   33.4110   41.1240 N   0  0  0  0  0  0  0  0  0  0  0  0
   42.7260   33.5510   41.3050 N   0  0  0  0  0  0  0  0  0  0  0  0
   42.9720   34.8730   41.5890 C   0  0  0  0  0  0  0  0  0  0  0  0
   41.7670   35.4750   41.5620 C   0  0  0  0  0  0  0  0  0  0  0  0
   40.7490   34.5900   41.2700 C   0  0  0  0  0  0  0  0  0  0  0  0
   44.0579   34.9687   44.7737 H   0  0  0  0  0  0  0  0  0  0  0  0
   47.4632   32.6674   45.6782 H   0  0  0  0  0  0  0  0  0  0  0  0
   45.8703   32.6660   40.8651 H   0  0  0  0  0  0  0  0  0  0  0  0
   46.6285   32.6886   38.4764 H   0  0  0  0  0  0  0  0  0  0  0  0
   49.3323   35.7755   39.5238 H   0  0  0  0  0  0  0  0  0  0  0  0
   40.9860   32.5129   40.8966 H   0  0  0  0  0  0  0  0  0  0  0  0
   41.6124   36.5476   41.7508 H   0  0  0  0  0  0  0  0  0  0  0  0
   39.6694   34.7800   41.1783 H   0  0  0  0  0  0  0  0  0  0  0  0
  1  6  2  0
  2  1  1  0
  3  2  2  0
  3  4  1  0
  4  5  2  0
  5  6  1  0
  7  3  1  0
  8  7  1  0
  9  8  2  0
 10  9  1  0
 10 12  1  0
 11 10  2  0
 12 13  1  0
 13  7  1  0
 13 14  2  0
 15  2  1  0
 16 20  1  0
 16 17  1  0
 17 18  2  0
 18 15  1  0
 19 18  1  0
 20 19  2  0
  1 21  1  0
  5 22  1  0
  8 23  1  0
  9 24  1  0
 12 25  1  0
 16 26  1  0
 19 27  1  0
 20 28  1  0
M  ISO  8  21  14  22  14  23  14  24  14  25   9  26   9  27  14  28  14
M  END
>  <minimizedAffinity>  (1) 
-5.17513943

>  <minimizedRMSD>  (1) 
2.60649943

$$$$
