
     RDKit          3D

 25 27  0  0  0  0  0  0  0  0999 V2000
   45.1170   34.4520   45.0650 C   0  0  0  0  0  0  0  0  0  0  0  0
   45.6760   34.7990   43.8260 C   0  0  0  0  0  0  0  0  0  0  0  0
   46.8430   34.1410   43.4600 C   0  0  0  0  0  0  0  0  0  0  0  0
   47.4090   33.2090   44.2670 N   0  0  0  0  0  0  0  0  0  0  0  0
   46.8160   32.9140   45.4630 C   0  0  0  0  0  0  0  0  0  0  0  0
   45.6830   33.5350   45.8490 N   0  0  0  0  0  0  0  0  0  0  0  0
   47.4660   34.4660   42.1780 C   0  0  0  0  0  0  0  0  0  0  0  0
   48.3950   35.4640   41.9640 C   0  0  0  0  0  0  0  0  0  0  0  0
   48.6950   35.3980   40.6140 C   0  0  0  0  0  0  0  0  0  0  0  0
   47.9290   34.3600   40.0750 C   0  0  0  0  0  0  0  0  0  0  0  0
   47.2200   33.8450   41.0520 O   0  0  0  0  0  0  0  0  0  0  0  0
   44.9180   36.0280   42.7790 S   0  0  0  0  0  0  0  0  0  0  0  0
   42.9250   34.2050   39.9790 N   0  0  0  0  0  0  0  0  0  0  0  0
   44.0580   34.5620   40.5490 N   0  0  0  0  0  0  0  0  0  0  0  0
   43.7740   35.3080   41.6640 C   0  0  0  0  0  0  0  0  0  0  0  0
   42.4190   35.3670   41.7130 C   0  0  0  0  0  0  0  0  0  0  0  0
   41.8490   34.6810   40.6630 C   0  0  0  0  0  0  0  0  0  0  0  0
   44.1923   34.9471   45.3963 H   0  0  0  0  0  0  0  0  0  0  0  0
   47.2702   32.1583   46.1207 H   0  0  0  0  0  0  0  0  0  0  0  0
   48.8084   36.1621   42.7068 H   0  0  0  0  0  0  0  0  0  0  0  0
   49.4021   36.0405   40.0688 H   0  0  0  0  0  0  0  0  0  0  0  0
   47.9219   34.0345   39.0243 H   0  0  0  0  0  0  0  0  0  0  0  0
   42.8615   33.6365   39.1225 H   0  0  0  0  0  0  0  0  0  0  0  0
   41.8488   35.8950   42.4915 H   0  0  0  0  0  0  0  0  0  0  0  0
   40.7814   34.5496   40.4329 H   0  0  0  0  0  0  0  0  0  0  0  0
  1  6  2  0
  2  1  1  0
  3  2  2  0
  3  4  1  0
  4  5  2  0
  5  6  1  0
  7  3  1  0
  8  7  2  0
  9  8  1  0
 10  9  2  0
 10 11  1  0
 11  7  1  0
 12  2  1  0
 13 14  1  0
 13 17  1  0
 14 15  2  0
 15 16  1  0
 15 12  1  0
 17 16  2  0
  1 18  1  0
  5 19  1  0
  8 20  1  0
  9 21  1  0
 10 22  1  0
 13 23  1  0
 16 24  1  0
 17 25  1  0
M  ISO  8  18  14  19  14  20  14  21  14  22  14  23   9  24  14  25  14
M  END
>  <minimizedAffinity>  (1) 
-4.86985493

>  <minimizedRMSD>  (1) 
2.56872225

$$$$
