
     RDKit          3D

 26 27  0  0  0  0  0  0  0  0999 V2000
   46.8940   32.1090   46.2030 C   0  0  0  0  0  0  0  0  0  0  0  0
   46.0720   30.9420   46.3680 N   0  0  0  0  0  0  0  0  0  0  0  0
   45.5080   30.0990   45.5290 N   0  0  0  0  0  0  0  0  0  0  0  0
   44.8120   29.1410   46.1290 C   0  0  0  0  0  0  0  0  0  0  0  0
   44.9360   29.3830   47.4730 C   0  0  0  0  0  0  0  0  0  0  0  0
   45.7180   30.4990   47.6000 C   0  0  0  0  0  0  0  0  0  0  0  0
   45.9970   30.9600   48.9640 C   0  0  0  0  0  0  0  0  0  0  0  0
   45.2580   31.5340   49.7770 O   0  0  0  0  0  0  0  0  0  0  0  0
   47.2130   30.8200   49.6150 O   0  0  0  0  0  0  0  0  0  0  0  0
   46.9150   32.6620   44.8000 C   0  0  0  0  0  0  0  0  0  0  0  0
   46.0970   33.8500   44.6550 C   0  0  0  0  0  0  0  0  0  0  0  0
   46.2060   34.4940   43.4280 C   0  0  0  0  0  0  0  0  0  0  0  0
   45.4770   35.6480   43.1350 C   0  0  0  0  0  0  0  0  0  0  0  0
   44.6510   36.1080   44.1210 N   0  0  0  0  0  0  0  0  0  0  0  0
   44.5580   35.4710   45.3040 C   0  0  0  0  0  0  0  0  0  0  0  0
   45.2750   34.3710   45.5400 N   0  0  0  0  0  0  0  0  0  0  0  0
   46.5176   32.8931   46.8764 H   0  0  0  0  0  0  0  0  0  0  0  0
   47.9246   31.8029   46.4356 H   0  0  0  0  0  0  0  0  0  0  0  0
   44.2530   28.3243   45.6488 H   0  0  0  0  0  0  0  0  0  0  0  0
   44.4931   28.7946   48.2901 H   0  0  0  0  0  0  0  0  0  0  0  0
   47.3218   31.1589   50.5388 H   0  0  0  0  0  0  0  0  0  0  0  0
   47.9527   32.9149   44.5368 H   0  0  0  0  0  0  0  0  0  0  0  0
   46.5026   31.8910   44.1326 H   0  0  0  0  0  0  0  0  0  0  0  0
   46.8855   34.0830   42.6668 H   0  0  0  0  0  0  0  0  0  0  0  0
   45.5629   36.1584   42.1644 H   0  0  0  0  0  0  0  0  0  0  0  0
   43.8853   35.8610   46.0821 H   0  0  0  0  0  0  0  0  0  0  0  0
  1  2  1  0
  2  6  1  0
  3  4  2  0
  3  2  1  0
  4  5  1  0
  5  6  2  0
  6  7  1  0
  7  9  1  0
  7  8  2  0
 10  1  1  0
 11 10  1  0
 11 16  1  0
 12 11  2  0
 13 12  1  0
 13 14  2  0
 14 15  1  0
 15 16  2  0
  1 17  1  0
  1 18  1  0
  4 19  1  0
  5 20  1  0
  9 21  1  0
 10 22  1  0
 10 23  1  0
 12 24  1  0
 13 25  1  0
 15 26  1  0
M  ISO  8  17   8  18   8  19  14  20  14  21   3  22   8  23   8  24  14
M  ISO  2  25  14  26  14
M  END
>  <minimizedAffinity>  (1) 
-4.87191391

>  <minimizedRMSD>  (1) 
1.88017356

$$$$
