
     RDKit          3D

 29 32  0  0  0  0  0  0  0  0999 V2000
   45.2360   34.1340   45.0590 C   0  0  0  0  0  0  0  0  0  0  0  0
   45.7800   34.5990   43.8380 C   0  0  0  0  0  0  0  0  0  0  0  0
   46.9900   34.0570   43.4010 C   0  0  0  0  0  0  0  0  0  0  0  0
   47.5910   33.1080   44.1640 N   0  0  0  0  0  0  0  0  0  0  0  0
   47.0330   32.6970   45.3230 C   0  0  0  0  0  0  0  0  0  0  0  0
   45.8690   33.2000   45.7710 N   0  0  0  0  0  0  0  0  0  0  0  0
   47.5870   34.4840   42.1810 N   0  0  0  0  0  0  0  0  0  0  0  0
   48.4550   35.4630   41.8600 C   0  0  0  0  0  0  0  0  0  0  0  0
   48.6940   35.4260   40.5300 N   0  0  0  0  0  0  0  0  0  0  0  0
   47.9770   34.4140   39.9740 C   0  0  0  0  0  0  0  0  0  0  0  0
   47.8880   33.9810   38.6660 C   0  0  0  0  0  0  0  0  0  0  0  0
   47.0700   32.9210   38.4100 N   0  0  0  0  0  0  0  0  0  0  0  0
   46.3910   32.3460   39.4310 C   0  0  0  0  0  0  0  0  0  0  0  0
   46.5000   32.7920   40.6970 N   0  0  0  0  0  0  0  0  0  0  0  0
   47.2990   33.8460   41.0220 C   0  0  0  0  0  0  0  0  0  0  0  0
   44.9420   35.8590   42.8660 S   0  0  0  0  0  0  0  0  0  0  0  0
   42.4640   33.6800   40.7810 N   0  0  0  0  0  0  0  0  0  0  0  0
   43.3360   33.8430   41.7580 N   0  0  0  0  0  0  0  0  0  0  0  0
   43.7720   35.1360   41.7590 C   0  0  0  0  0  0  0  0  0  0  0  0
   43.1190   35.7370   40.7360 C   0  0  0  0  0  0  0  0  0  0  0  0
   42.2820   34.8530   40.0910 C   0  0  0  0  0  0  0  0  0  0  0  0
   44.2836   34.5460   45.4239 H   0  0  0  0  0  0  0  0  0  0  0  0
   47.5460   31.9276   45.9186 H   0  0  0  0  0  0  0  0  0  0  0  0
   48.8987   36.1787   42.5677 H   0  0  0  0  0  0  0  0  0  0  0  0
   48.4552   34.4723   37.8617 H   0  0  0  0  0  0  0  0  0  0  0  0
   45.7321   31.4908   39.2203 H   0  0  0  0  0  0  0  0  0  0  0  0
   41.9853   32.7938   40.5655 H   0  0  0  0  0  0  0  0  0  0  0  0
   43.2411   36.7938   40.4564 H   0  0  0  0  0  0  0  0  0  0  0  0
   41.6250   35.0418   39.2292 H   0  0  0  0  0  0  0  0  0  0  0  0
  1  6  2  0
  2  1  1  0
  3  2  2  0
  3  4  1  0
  4  5  2  0
  5  6  1  0
  7  3  1  0
  8  7  1  0
  9  8  2  0
 10  9  1  0
 10 15  2  0
 11 10  1  0
 12 11  2  0
 12 13  1  0
 13 14  2  0
 14 15  1  0
 15  7  1  0
 16  2  1  0
 17 18  1  0
 18 19  2  0
 19 16  1  0
 20 19  1  0
 21 20  2  0
 21 17  1  0
  1 22  1  0
  5 23  1  0
  8 24  1  0
 11 25  1  0
 13 26  1  0
 17 27  1  0
 20 28  1  0
 21 29  1  0
M  ISO  8  22  14  23  14  24  14  25  14  26  14  27   9  28  14  29  14
M  END
>  <minimizedAffinity>  (1) 
-5.0028553

>  <minimizedRMSD>  (1) 
3.21783304

$$$$
