
     RDKit          3D

 30 32  0  0  0  0  0  0  0  0999 V2000
   45.0490   34.5390   45.2210 C   0  0  0  0  0  0  0  0  0  0  0  0
   45.7320   34.7340   44.0080 C   0  0  0  0  0  0  0  0  0  0  0  0
   46.8540   33.9490   43.7490 C   0  0  0  0  0  0  0  0  0  0  0  0
   47.2580   33.0250   44.6680 N   0  0  0  0  0  0  0  0  0  0  0  0
   46.5550   32.8850   45.8210 C   0  0  0  0  0  0  0  0  0  0  0  0
   45.4760   33.6150   46.1050 N   0  0  0  0  0  0  0  0  0  0  0  0
   47.5860   34.1000   42.5390 N   0  0  0  0  0  0  0  0  0  0  0  0
   47.3020   33.4520   41.2730 C   0  0  0  0  0  0  0  0  0  0  0  0
   48.1790   34.1030   40.2640 C   0  0  0  0  0  0  0  0  0  0  0  0
   48.6040   35.3900   40.9090 C   0  0  0  0  0  0  0  0  0  0  0  0
   48.7670   34.9460   42.3560 C   0  0  0  0  0  0  0  0  0  0  0  0
   45.1730   35.9630   42.8170 S   0  0  0  0  0  0  0  0  0  0  0  0
   42.9960   34.2470   40.0950 N   0  0  0  0  0  0  0  0  0  0  0  0
   44.1670   34.5550   40.5960 N   0  0  0  0  0  0  0  0  0  0  0  0
   43.9570   35.2890   41.7400 C   0  0  0  0  0  0  0  0  0  0  0  0
   42.6030   35.3850   41.8680 C   0  0  0  0  0  0  0  0  0  0  0  0
   41.9500   34.7350   40.8420 C   0  0  0  0  0  0  0  0  0  0  0  0
   44.1599   35.1446   45.4506 H   0  0  0  0  0  0  0  0  0  0  0  0
   46.8905   32.1360   46.5534 H   0  0  0  0  0  0  0  0  0  0  0  0
   47.5273   32.3772   41.3364 H   0  0  0  0  0  0  0  0  0  0  0  0
   46.2403   33.5511   41.0028 H   0  0  0  0  0  0  0  0  0  0  0  0
   47.6237   34.2987   39.3348 H   0  0  0  0  0  0  0  0  0  0  0  0
   49.0359   33.4720   39.9857 H   0  0  0  0  0  0  0  0  0  0  0  0
   49.5518   35.7588   40.4899 H   0  0  0  0  0  0  0  0  0  0  0  0
   47.9013   36.2241   40.7657 H   0  0  0  0  0  0  0  0  0  0  0  0
   49.6961   34.3746   42.4983 H   0  0  0  0  0  0  0  0  0  0  0  0
   48.8381   35.7766   43.0737 H   0  0  0  0  0  0  0  0  0  0  0  0
   42.8723   33.6974   39.2327 H   0  0  0  0  0  0  0  0  0  0  0  0
   42.0950   35.9148   42.6873 H   0  0  0  0  0  0  0  0  0  0  0  0
   40.8689   34.6330   40.6662 H   0  0  0  0  0  0  0  0  0  0  0  0
  1  6  2  0
  2  1  1  0
  3  2  2  0
  3  4  1  0
  4  5  2  0
  5  6  1  0
  7  3  1  0
  8  7  1  0
  9 10  1  0
  9  8  1  0
 10 11  1  0
 11  7  1  0
 12  2  1  0
 13 14  1  0
 13 17  1  0
 14 15  2  0
 15 16  1  0
 15 12  1  0
 17 16  2  0
  1 18  1  0
  5 19  1  0
  8 20  1  0
  8 21  1  0
  9 22  1  0
  9 23  1  0
 10 24  1  0
 10 25  1  0
 11 26  1  0
 11 27  1  0
 13 28  1  0
 16 29  1  0
 17 30  1  0
M  ISO  8  18  14  19  14  20  13  21  13  22  13  23  13  24  13  25  13
M  ISO  5  26  13  27  13  28   9  29  14  30  14
M  END
>  <minimizedAffinity>  (1) 
-4.72987938

>  <minimizedRMSD>  (1) 
2.47806716

$$$$
