
     RDKit          3D

 21 22  0  0  0  0  0  0  0  0999 V2000
   44.3040   35.7380   44.4350 C   0  0  0  0  0  0  0  0  0  0  0  0
   44.4630   34.9970   43.2360 C   0  0  0  0  0  0  0  0  0  0  0  0
   45.0980   33.7680   43.3450 C   0  0  0  0  0  0  0  0  0  0  0  0
   45.5410   33.3100   44.5430 N   0  0  0  0  0  0  0  0  0  0  0  0
   45.3550   34.0770   45.6600 C   0  0  0  0  0  0  0  0  0  0  0  0
   44.7490   35.2680   45.6090 N   0  0  0  0  0  0  0  0  0  0  0  0
   45.2960   32.9520   42.1530 C   0  0  0  0  0  0  0  0  0  0  0  0
   46.3530   33.0360   41.4940 O   0  0  0  0  0  0  0  0  0  0  0  0
   44.3210   32.0750   41.7320 O   0  0  0  0  0  0  0  0  0  0  0  0
   43.8730   35.6170   41.6700 S   0  0  0  0  0  0  0  0  0  0  0  0
   40.5220   33.7380   40.9910 N   0  0  0  0  0  0  0  0  0  0  0  0
   41.8090   33.7530   41.2620 N   0  0  0  0  0  0  0  0  0  0  0  0
   42.2420   35.0370   41.3350 C   0  0  0  0  0  0  0  0  0  0  0  0
   41.1420   35.7950   41.0910 C   0  0  0  0  0  0  0  0  0  0  0  0
   40.0250   35.0080   40.8670 C   0  0  0  0  0  0  0  0  0  0  0  0
   43.8055   36.7180   44.4008 H   0  0  0  0  0  0  0  0  0  0  0  0
   45.7148   33.7028   46.6298 H   0  0  0  0  0  0  0  0  0  0  0  0
   44.4659   31.5257   40.9212 H   0  0  0  0  0  0  0  0  0  0  0  0
   39.9602   32.8812   40.8856 H   0  0  0  0  0  0  0  0  0  0  0  0
   41.1388   36.8949   41.0735 H   0  0  0  0  0  0  0  0  0  0  0  0
   38.9951   35.3241   40.6448 H   0  0  0  0  0  0  0  0  0  0  0  0
  1  6  2  0
  2  3  2  0
  2  1  1  0
  3  4  1  0
  4  5  2  0
  6  5  1  0
  7  3  1  0
  8  7  2  0
  9  7  1  0
 10  2  1  0
 11 12  1  0
 12 13  2  0
 13 10  1  0
 14 13  1  0
 15 11  1  0
 15 14  2  0
  1 16  1  0
  5 17  1  0
  9 18  1  0
 11 19  1  0
 14 20  1  0
 15 21  1  0
M  ISO  6  16  14  17  14  18   3  19   9  20  14  21  14
M  END
>  <minimizedAffinity>  (1) 
-3.89307976

>  <minimizedRMSD>  (1) 
0.0991912112

$$$$
