
     RDKit          3D

 21 22  0  0  0  0  0  0  0  0999 V2000
   44.3040   35.7370   44.4220 C   0  0  0  0  0  0  0  0  0  0  0  0
   44.4710   34.9640   43.2470 C   0  0  0  0  0  0  0  0  0  0  0  0
   45.1010   33.7240   43.3590 C   0  0  0  0  0  0  0  0  0  0  0  0
   45.5280   33.3050   44.5780 N   0  0  0  0  0  0  0  0  0  0  0  0
   45.3410   34.0840   45.6670 C   0  0  0  0  0  0  0  0  0  0  0  0
   44.7450   35.2750   45.6010 N   0  0  0  0  0  0  0  0  0  0  0  0
   45.2950   32.8810   42.1490 C   0  0  0  0  0  0  0  0  0  0  0  0
   43.8810   35.5790   41.6570 S   0  0  0  0  0  0  0  0  0  0  0  0
   40.5140   33.7510   41.0080 N   0  0  0  0  0  0  0  0  0  0  0  0
   41.7980   33.7130   41.2690 N   0  0  0  0  0  0  0  0  0  0  0  0
   42.2530   35.0080   41.3370 C   0  0  0  0  0  0  0  0  0  0  0  0
   41.1570   35.7910   41.0990 C   0  0  0  0  0  0  0  0  0  0  0  0
   40.0270   35.0260   40.8840 C   0  0  0  0  0  0  0  0  0  0  0  0
   43.8112   36.7189   44.3672 H   0  0  0  0  0  0  0  0  0  0  0  0
   45.6937   33.7218   46.6440 H   0  0  0  0  0  0  0  0  0  0  0  0
   45.5320   31.8510   42.4539 H   0  0  0  0  0  0  0  0  0  0  0  0
   44.3730   32.8829   41.5491 H   0  0  0  0  0  0  0  0  0  0  0  0
   46.1235   33.2857   41.5491 H   0  0  0  0  0  0  0  0  0  0  0  0
   39.9305   32.9083   40.9064 H   0  0  0  0  0  0  0  0  0  0  0  0
   41.1733   36.8907   41.0811 H   0  0  0  0  0  0  0  0  0  0  0  0
   38.9999   35.3556   40.6686 H   0  0  0  0  0  0  0  0  0  0  0  0
  1  6  2  0
  2  3  2  0
  2  1  1  0
  3  4  1  0
  4  5  2  0
  6  5  1  0
  7  3  1  0
  8  2  1  0
  9 10  1  0
 10 11  2  0
 11  8  1  0
 12 11  1  0
 13  9  1  0
 13 12  2  0
  1 14  1  0
  5 15  1  0
  7 16  1  0
  7 17  1  0
  7 18  1  0
  9 19  1  0
 12 20  1  0
 13 21  1  0
M  ISO  8  14  14  15  14  16   8  17   8  18   8  19   9  20  14  21  14
M  END
>  <minimizedAffinity>  (1) 
-3.86214566

>  <minimizedRMSD>  (1) 
0.0150673371

$$$$
