
     RDKit          3D

 20 21  0  0  0  0  0  0  0  0999 V2000
   44.2970   35.7510   44.4370 C   0  0  0  0  0  0  0  0  0  0  0  0
   44.4600   34.9920   43.2620 C   0  0  0  0  0  0  0  0  0  0  0  0
   45.0950   33.7390   43.3490 C   0  0  0  0  0  0  0  0  0  0  0  0
   45.5360   33.2990   44.5750 N   0  0  0  0  0  0  0  0  0  0  0  0
   45.3490   34.0760   45.6640 C   0  0  0  0  0  0  0  0  0  0  0  0
   44.7480   35.2710   45.6070 N   0  0  0  0  0  0  0  0  0  0  0  0
   45.2970   32.9120   42.2060 N   0  0  0  0  0  0  0  0  0  0  0  0
   43.8830   35.5680   41.6600 S   0  0  0  0  0  0  0  0  0  0  0  0
   40.5160   33.7460   41.0080 N   0  0  0  0  0  0  0  0  0  0  0  0
   41.8000   33.7390   41.2700 N   0  0  0  0  0  0  0  0  0  0  0  0
   42.2470   35.0260   41.3370 C   0  0  0  0  0  0  0  0  0  0  0  0
   41.1530   35.7930   41.1000 C   0  0  0  0  0  0  0  0  0  0  0  0
   40.0280   35.0220   40.8840 C   0  0  0  0  0  0  0  0  0  0  0  0
   43.8024   36.7327   44.3964 H   0  0  0  0  0  0  0  0  0  0  0  0
   45.7055   33.7116   46.6387 H   0  0  0  0  0  0  0  0  0  0  0  0
   45.7657   32.0003   42.3063 H   0  0  0  0  0  0  0  0  0  0  0  0
   44.9743   33.2260   41.2796 H   0  0  0  0  0  0  0  0  0  0  0  0
   39.9426   32.8963   40.9074 H   0  0  0  0  0  0  0  0  0  0  0  0
   41.1613   36.8928   41.0822 H   0  0  0  0  0  0  0  0  0  0  0  0
   39.0002   35.3485   40.6673 H   0  0  0  0  0  0  0  0  0  0  0  0
  1  6  2  0
  2  3  2  0
  2  1  1  0
  3  4  1  0
  4  5  2  0
  6  5  1  0
  7  3  1  0
  8  2  1  0
  9 10  1  0
 10 11  2  0
 11  8  1  0
 12 11  1  0
 13  9  1  0
 13 12  2  0
  1 14  1  0
  5 15  1  0
  7 16  1  0
  7 17  1  0
  9 18  1  0
 12 19  1  0
 13 20  1  0
M  ISO  5  14  14  15  14  18   9  19  14  20  14
M  END
>  <minimizedAffinity>  (1) 
-3.86384702

>  <minimizedRMSD>  (1) 
0.0190171432

$$$$
