
     RDKit          3D

 33 35  0  0  0  0  0  0  0  0999 V2000
   46.4350   31.0910   46.6570 N   0  0  0  0  0  0  0  0  0  0  0  0
   45.2660   30.5710   46.4050 N   0  0  0  0  0  0  0  0  0  0  0  0
   45.0290   29.4250   47.0480 C   0  0  0  0  0  0  0  0  0  0  0  0
   46.1630   29.1930   47.7830 C   0  0  0  0  0  0  0  0  0  0  0  0
   47.0190   30.2310   47.5300 C   0  0  0  0  0  0  0  0  0  0  0  0
   48.2980   30.2210   48.1910 N   0  0  0  0  0  0  0  0  0  0  0  0
   48.4410   30.7740   49.4280 C   0  0  0  0  0  0  0  0  0  0  0  0
   49.6690   30.7750   50.0870 C   0  0  0  0  0  0  0  0  0  0  0  0
   50.7370   30.1920   49.4330 C   0  0  0  0  0  0  0  0  0  0  0  0
   51.8830   30.1670   49.9940 O   0  0  0  0  0  0  0  0  0  0  0  0
   50.5300   29.6680   48.2220 N   0  0  0  0  0  0  0  0  0  0  0  0
   49.3610   29.6610   47.5840 C   0  0  0  0  0  0  0  0  0  0  0  0
   49.2470   29.1390   46.4260 O   0  0  0  0  0  0  0  0  0  0  0  0
   47.1070   32.2700   46.2150 C   0  0  0  0  0  0  0  0  0  0  0  0
   46.8400   32.6260   44.7660 C   0  0  0  0  0  0  0  0  0  0  0  0
   46.0500   33.8360   44.6230 C   0  0  0  0  0  0  0  0  0  0  0  0
   46.1660   34.4890   43.4020 C   0  0  0  0  0  0  0  0  0  0  0  0
   45.4640   35.6640   43.1260 C   0  0  0  0  0  0  0  0  0  0  0  0
   44.6670   36.1250   44.1200 N   0  0  0  0  0  0  0  0  0  0  0  0
   44.5600   35.4870   45.3020 C   0  0  0  0  0  0  0  0  0  0  0  0
   45.2520   34.3620   45.5250 N   0  0  0  0  0  0  0  0  0  0  0  0
   44.1228   28.8034   46.9988 H   0  0  0  0  0  0  0  0  0  0  0  0
   46.3492   28.3370   48.4483 H   0  0  0  0  0  0  0  0  0  0  0  0
   47.5677   31.2298   49.9175 H   0  0  0  0  0  0  0  0  0  0  0  0
   49.7830   31.2213   51.0859 H   0  0  0  0  0  0  0  0  0  0  0  0
   51.3351   29.2369   47.7457 H   0  0  0  0  0  0  0  0  0  0  0  0
   46.7794   33.1110   46.8437 H   0  0  0  0  0  0  0  0  0  0  0  0
   48.1857   32.0721   46.3003 H   0  0  0  0  0  0  0  0  0  0  0  0
   47.8037   32.7725   44.2562 H   0  0  0  0  0  0  0  0  0  0  0  0
   46.2661   31.7998   44.3210 H   0  0  0  0  0  0  0  0  0  0  0  0
   46.8292   34.0687   42.6316 H   0  0  0  0  0  0  0  0  0  0  0  0
   45.5526   36.1837   42.1605 H   0  0  0  0  0  0  0  0  0  0  0  0
   43.9026   35.8911   46.0859 H   0  0  0  0  0  0  0  0  0  0  0  0
  1  5  1  0
  2  1  1  0
  2  3  2  0
  3  4  1  0
  5  4  2  0
  5  6  1  0
  6  7  1  0
  7  8  2  0
  9 10  2  0
  9  8  1  0
 11  9  1  0
 12  6  1  0
 12 11  1  0
 13 12  2  0
 14  1  1  0
 15 14  1  0
 16 15  1  0
 16 21  1  0
 17 16  2  0
 18 17  1  0
 18 19  2  0
 19 20  1  0
 20 21  2  0
  3 22  1  0
  4 23  1  0
  7 24  1  0
  8 25  1  0
 11 26  1  0
 14 27  1  0
 14 28  1  0
 15 29  1  0
 15 30  1  0
 17 31  1  0
 18 32  1  0
 20 33  1  0
M  ISO  8  22  14  23  14  24  14  25  14  26   9  27   8  28   8  29   8
M  ISO  4  30   8  31  14  32  14  33  14
M  END
>  <minimizedAffinity>  (1) 
-4.71083498

>  <minimizedRMSD>  (1) 
4.21040106

$$$$
