
     RDKit          3D

 21 22  0  0  0  0  0  0  0  0999 V2000
   44.2340   35.5750   44.4360 C   0  0  0  0  0  0  0  0  0  0  0  0
   44.6350   35.0940   43.1600 C   0  0  0  0  0  0  0  0  0  0  0  0
   45.6250   34.1070   43.0620 C   0  0  0  0  0  0  0  0  0  0  0  0
   46.1560   33.6550   44.2520 N   0  0  0  0  0  0  0  0  0  0  0  0
   45.7470   34.1390   45.4360 C   0  0  0  0  0  0  0  0  0  0  0  0
   44.7960   35.0900   45.5370 N   0  0  0  0  0  0  0  0  0  0  0  0
   46.1450   33.5430   41.8110 C   0  0  0  0  0  0  0  0  0  0  0  0
   45.1060   33.0900   40.9900 F   0  0  0  0  0  0  0  0  0  0  0  0
   47.1250   32.6320   42.0040 F   0  0  0  0  0  0  0  0  0  0  0  0
   46.6880   34.6200   41.0730 F   0  0  0  0  0  0  0  0  0  0  0  0
   43.9070   35.7180   41.6290 S   0  0  0  0  0  0  0  0  0  0  0  0
   40.6570   33.6570   41.0670 N   0  0  0  0  0  0  0  0  0  0  0  0
   41.9410   33.7700   41.2770 N   0  0  0  0  0  0  0  0  0  0  0  0
   42.3040   35.0730   41.3610 C   0  0  0  0  0  0  0  0  0  0  0  0
   41.1570   35.7570   41.1900 C   0  0  0  0  0  0  0  0  0  0  0  0
   40.0860   34.9000   41.0000 C   0  0  0  0  0  0  0  0  0  0  0  0
   43.4571   36.3500   44.5115 H   0  0  0  0  0  0  0  0  0  0  0  0
   46.2039   33.7458   46.3562 H   0  0  0  0  0  0  0  0  0  0  0  0
   40.1496   32.7662   40.9668 H   0  0  0  0  0  0  0  0  0  0  0  0
   41.0806   36.8543   41.1999 H   0  0  0  0  0  0  0  0  0  0  0  0
   39.0291   35.1564   40.8347 H   0  0  0  0  0  0  0  0  0  0  0  0
  1  6  2  0
  2  1  1  0
  3  2  2  0
  3  4  1  0
  4  5  2  0
  5  6  1  0
  7  9  1  0
  7  3  1  0
  8  7  1  0
 10  7  1  0
 11  2  1  0
 12 13  1  0
 13 14  2  0
 14 11  1  0
 15 14  1  0
 16 12  1  0
 16 15  2  0
  1 17  1  0
  5 18  1  0
 12 19  1  0
 15 20  1  0
 16 21  1  0
M  ISO  5  17  14  18  14  19   9  20  14  21  14
M  END
>  <minimizedAffinity>  (1) 
-3.99441767

>  <minimizedRMSD>  (1) 
0.795017719

$$$$
