
     RDKit          3D

 19 20  0  0  0  0  0  0  0  0999 V2000
   44.3030   35.7190   44.4100 C   0  0  0  0  0  0  0  0  0  0  0  0
   44.4660   34.9440   43.2340 C   0  0  0  0  0  0  0  0  0  0  0  0
   45.1030   33.7060   43.3550 C   0  0  0  0  0  0  0  0  0  0  0  0
   45.5350   33.3000   44.5790 N   0  0  0  0  0  0  0  0  0  0  0  0
   45.3520   34.0800   45.6670 C   0  0  0  0  0  0  0  0  0  0  0  0
   44.7490   35.2660   45.5840 N   0  0  0  0  0  0  0  0  0  0  0  0
   45.3440   32.6760   41.9160 S   0  0  0  0  0  0  0  0  0  0  0  0
   43.8800   35.5230   41.6470 S   0  0  0  0  0  0  0  0  0  0  0  0
   40.4850   33.7400   41.0160 N   0  0  0  0  0  0  0  0  0  0  0  0
   41.7710   33.7190   41.2710 N   0  0  0  0  0  0  0  0  0  0  0  0
   42.2400   34.9920   41.3350 C   0  0  0  0  0  0  0  0  0  0  0  0
   41.1580   35.7850   41.1010 C   0  0  0  0  0  0  0  0  0  0  0  0
   40.0190   35.0240   40.8930 C   0  0  0  0  0  0  0  0  0  0  0  0
   43.8063   36.6989   44.3548 H   0  0  0  0  0  0  0  0  0  0  0  0
   45.7095   33.7275   46.6457 H   0  0  0  0  0  0  0  0  0  0  0  0
   45.6427   31.3993   42.3131 H   0  0  0  0  0  0  0  0  0  0  0  0
   39.8988   32.8985   40.9202 H   0  0  0  0  0  0  0  0  0  0  0  0
   41.1847   36.8845   41.0799 H   0  0  0  0  0  0  0  0  0  0  0  0
   38.9948   35.3651   40.6816 H   0  0  0  0  0  0  0  0  0  0  0  0
  1  6  2  0
  2  3  2  0
  2  1  1  0
  3  4  1  0
  4  5  2  0
  6  5  1  0
  7  3  1  0
  8  2  1  0
  9 10  1  0
 10 11  2  0
 11  8  1  0
 12 11  1  0
 13  9  1  0
 13 12  2  0
  1 14  1  0
  5 15  1  0
  7 16  1  0
  9 17  1  0
 12 18  1  0
 13 19  1  0
M  ISO  6  14  14  15  14  16  11  17   9  18  14  19  14
M  END
>  <minimizedAffinity>  (1) 
-3.86401272

>  <minimizedRMSD>  (1) 
0.0195724182

$$$$
