
     RDKit          3D

 20 21  0  0  0  0  0  0  0  0999 V2000
   44.2910   35.7220   44.4210 C   0  0  0  0  0  0  0  0  0  0  0  0
   44.4880   34.9910   43.2380 C   0  0  0  0  0  0  0  0  0  0  0  0
   45.1600   33.7680   43.3410 C   0  0  0  0  0  0  0  0  0  0  0  0
   45.5840   33.3520   44.5600 N   0  0  0  0  0  0  0  0  0  0  0  0
   45.3690   34.0940   45.6660 C   0  0  0  0  0  0  0  0  0  0  0  0
   44.7310   35.2670   45.6110 N   0  0  0  0  0  0  0  0  0  0  0  0
   45.3780   32.9840   42.1240 C   0  0  0  0  0  0  0  0  0  0  0  0
   46.4770   32.9530   41.5120 O   0  0  0  0  0  0  0  0  0  0  0  0
   43.9000   35.6020   41.6630 S   0  0  0  0  0  0  0  0  0  0  0  0
   40.5290   33.7540   41.0010 N   0  0  0  0  0  0  0  0  0  0  0  0
   41.8140   33.7360   41.2650 N   0  0  0  0  0  0  0  0  0  0  0  0
   42.2600   35.0310   41.3360 C   0  0  0  0  0  0  0  0  0  0  0  0
   41.1720   35.8050   41.1020 C   0  0  0  0  0  0  0  0  0  0  0  0
   40.0440   35.0330   40.8820 C   0  0  0  0  0  0  0  0  0  0  0  0
   43.7659   36.6875   44.3753 H   0  0  0  0  0  0  0  0  0  0  0  0
   45.7280   33.7241   46.6378 H   0  0  0  0  0  0  0  0  0  0  0  0
   44.5402   32.3932   41.7251 H   0  0  0  0  0  0  0  0  0  0  0  0
   39.9515   32.9077   40.8954 H   0  0  0  0  0  0  0  0  0  0  0  0
   41.1838   36.9049   41.0886 H   0  0  0  0  0  0  0  0  0  0  0  0
   39.0168   35.3618   40.6660 H   0  0  0  0  0  0  0  0  0  0  0  0
  1  6  2  0
  2  3  2  0
  2  1  1  0
  3  4  1  0
  4  5  2  0
  6  5  1  0
  7  3  1  0
  8  7  2  0
  9  2  1  0
 10 11  1  0
 11 12  2  0
 12  9  1  0
 13 12  1  0
 14 10  1  0
 14 13  2  0
  1 15  1  0
  5 16  1  0
  7 17  1  0
 10 18  1  0
 13 19  1  0
 14 20  1  0
M  ISO  6  15  14  16  14  17   6  18   9  19  14  20  14
M  END
>  <minimizedAffinity>  (1) 
-3.7952826

>  <minimizedRMSD>  (1) 
0.130976081

$$$$
