
     RDKit          3D

 28 30  0  0  0  0  0  0  0  0999 V2000
   44.9740   34.5760   45.3120 C   0  0  0  0  0  0  0  0  0  0  0  0
   45.4900   34.7720   44.0080 C   0  0  0  0  0  0  0  0  0  0  0  0
   46.6290   34.0540   43.6230 C   0  0  0  0  0  0  0  0  0  0  0  0
   47.1970   33.1960   44.5190 N   0  0  0  0  0  0  0  0  0  0  0  0
   46.6750   33.0380   45.7550 C   0  0  0  0  0  0  0  0  0  0  0  0
   45.5900   33.7110   46.1450 N   0  0  0  0  0  0  0  0  0  0  0  0
   47.1690   34.2480   42.2820 C   0  0  0  0  0  0  0  0  0  0  0  0
   48.1760   35.1910   42.2070 C   0  0  0  0  0  0  0  0  0  0  0  0
   48.8060   35.5070   41.0260 C   0  0  0  0  0  0  0  0  0  0  0  0
   48.4300   34.8690   39.8460 C   0  0  0  0  0  0  0  0  0  0  0  0
   47.4270   33.9350   39.9370 C   0  0  0  0  0  0  0  0  0  0  0  0
   46.7970   33.6160   41.1140 C   0  0  0  0  0  0  0  0  0  0  0  0
   44.6790   35.9200   42.8970 S   0  0  0  0  0  0  0  0  0  0  0  0
   42.2860   33.5660   40.9410 N   0  0  0  0  0  0  0  0  0  0  0  0
   43.2900   33.7500   41.7650 N   0  0  0  0  0  0  0  0  0  0  0  0
   43.4720   35.1050   41.9100 C   0  0  0  0  0  0  0  0  0  0  0  0
   42.5240   35.6840   41.1300 C   0  0  0  0  0  0  0  0  0  0  0  0
   41.7450   34.7340   40.4940 C   0  0  0  0  0  0  0  0  0  0  0  0
   44.0793   35.1237   45.6430 H   0  0  0  0  0  0  0  0  0  0  0  0
   47.1548   32.3390   46.4559 H   0  0  0  0  0  0  0  0  0  0  0  0
   48.4856   35.7087   43.1268 H   0  0  0  0  0  0  0  0  0  0  0  0
   49.6056   36.2623   41.0132 H   0  0  0  0  0  0  0  0  0  0  0  0
   48.9138   35.1024   38.8861 H   0  0  0  0  0  0  0  0  0  0  0  0
   47.1125   33.4160   39.0195 H   0  0  0  0  0  0  0  0  0  0  0  0
   45.9987   32.8594   41.1256 H   0  0  0  0  0  0  0  0  0  0  0  0
   41.9426   32.6361   40.6612 H   0  0  0  0  0  0  0  0  0  0  0  0
   42.3920   36.7703   41.0179 H   0  0  0  0  0  0  0  0  0  0  0  0
   40.9025   34.8836   39.8027 H   0  0  0  0  0  0  0  0  0  0  0  0
  1  6  2  0
  2  1  1  0
  3  2  2  0
  3  4  1  0
  4  5  2  0
  5  6  1  0
  7  3  1  0
  8  7  2  0
  9  8  1  0
 10 11  1  0
 10  9  2  0
 11 12  2  0
 12  7  1  0
 13  2  1  0
 14 15  1  0
 15 16  2  0
 16 13  1  0
 17 16  1  0
 18 14  1  0
 18 17  2  0
  1 19  1  0
  5 20  1  0
  8 21  1  0
  9 22  1  0
 10 23  1  0
 11 24  1  0
 12 25  1  0
 14 26  1  0
 17 27  1  0
 18 28  1  0
M  ISO  8  19  14  20  14  21  14  22  14  23  14  24  14  25  14  26   9
M  ISO  2  27  14  28  14
M  END
>  <minimizedAffinity>  (1) 
-5.27501059

>  <minimizedRMSD>  (1) 
2.41688895

$$$$
