
     RDKit          3D

 42 45  0  0  0  0  0  0  0  0999 V2000
   45.0870   34.4300   45.3210 C   0  0  0  0  0  0  0  0  0  0  0  0
   45.5850   34.6720   44.0170 C   0  0  0  0  0  0  0  0  0  0  0  0
   46.7300   33.9930   43.5950 C   0  0  0  0  0  0  0  0  0  0  0  0
   47.3300   33.1160   44.4640 N   0  0  0  0  0  0  0  0  0  0  0  0
   46.8230   32.9110   45.7040 C   0  0  0  0  0  0  0  0  0  0  0  0
   45.7280   33.5540   46.1220 N   0  0  0  0  0  0  0  0  0  0  0  0
   47.2570   34.2310   42.2530 C   0  0  0  0  0  0  0  0  0  0  0  0
   48.2230   35.2020   42.1890 C   0  0  0  0  0  0  0  0  0  0  0  0
   48.8300   35.5580   41.0100 C   0  0  0  0  0  0  0  0  0  0  0  0
   48.4650   34.9170   39.8170 C   0  0  0  0  0  0  0  0  0  0  0  0
   47.5020   33.9530   39.9080 C   0  0  0  0  0  0  0  0  0  0  0  0
   46.8910   33.5940   41.0880 C   0  0  0  0  0  0  0  0  0  0  0  0
   44.7480   35.8350   42.9370 S   0  0  0  0  0  0  0  0  0  0  0  0
   42.3920   33.4850   40.9250 N   0  0  0  0  0  0  0  0  0  0  0  0
   43.4060   33.6740   41.7450 N   0  0  0  0  0  0  0  0  0  0  0  0
   43.5470   35.0280   41.9340 C   0  0  0  0  0  0  0  0  0  0  0  0
   42.5680   35.6030   41.1860 C   0  0  0  0  0  0  0  0  0  0  0  0
   41.8230   34.6480   40.5380 C   0  0  0  0  0  0  0  0  0  0  0  0
   40.7150   34.7480   39.6610 N   0  0  0  0  0  0  0  0  0  0  0  0
   40.9250   34.5030   38.2540 C   0  0  0  0  0  0  0  0  0  0  0  0
   39.5220   34.4870   37.6320 C   0  0  0  0  0  0  0  0  0  0  0  0
   38.7030   33.5720   38.3830 N   0  0  0  0  0  0  0  0  0  0  0  0
   38.4440   34.0270   39.7140 C   0  0  0  0  0  0  0  0  0  0  0  0
   39.3960   35.0890   40.1630 C   0  0  0  0  0  0  0  0  0  0  0  0
   44.1862   34.9514   45.6770 H   0  0  0  0  0  0  0  0  0  0  0  0
   47.3224   32.2014   46.3800 H   0  0  0  0  0  0  0  0  0  0  0  0
   48.5224   35.7141   43.1154 H   0  0  0  0  0  0  0  0  0  0  0  0
   49.6001   36.3434   41.0011 H   0  0  0  0  0  0  0  0  0  0  0  0
   48.9314   35.1779   38.8556 H   0  0  0  0  0  0  0  0  0  0  0  0
   47.1976   33.4345   38.9869 H   0  0  0  0  0  0  0  0  0  0  0  0
   46.1207   32.8088   41.1004 H   0  0  0  0  0  0  0  0  0  0  0  0
   42.0700   32.5572   40.6146 H   0  0  0  0  0  0  0  0  0  0  0  0
   42.3958   36.6868   41.1100 H   0  0  0  0  0  0  0  0  0  0  0  0
   41.5342   35.3042   37.8101 H   0  0  0  0  0  0  0  0  0  0  0  0
   41.4626   33.5596   38.0777 H   0  0  0  0  0  0  0  0  0  0  0  0
   39.0857   35.4959   37.6732 H   0  0  0  0  0  0  0  0  0  0  0  0
   39.5781   34.1687   36.5806 H   0  0  0  0  0  0  0  0  0  0  0  0
   37.8041   33.4567   37.8935 H   0  0  0  0  0  0  0  0  0  0  0  0
   37.4222   34.4325   39.7534 H   0  0  0  0  0  0  0  0  0  0  0  0
   38.5698   33.1659   40.3869 H   0  0  0  0  0  0  0  0  0  0  0  0
   39.4145   35.1338   41.2619 H   0  0  0  0  0  0  0  0  0  0  0  0
   39.0825   36.0712   39.7796 H   0  0  0  0  0  0  0  0  0  0  0  0
  1  6  2  0
  2  1  1  0
  3  2  2  0
  3  4  1  0
  4  5  2  0
  5  6  1  0
  7  3  1  0
  8  7  2  0
  9  8  1  0
 10 11  1  0
 10  9  2  0
 11 12  2  0
 12  7  1  0
 13  2  1  0
 14 15  1  0
 15 16  2  0
 16 13  1  0
 17 16  1  0
 18 14  1  0
 18 17  2  0
 19 24  1  0
 19 18  1  0
 20 19  1  0
 21 20  1  0
 21 22  1  0
 22 23  1  0
 23 24  1  0
  1 25  1  0
  5 26  1  0
  8 27  1  0
  9 28  1  0
 10 29  1  0
 11 30  1  0
 12 31  1  0
 14 32  1  0
 17 33  1  0
 20 34  1  0
 20 35  1  0
 21 36  1  0
 21 37  1  0
 22 38  1  0
 23 39  1  0
 23 40  1  0
 24 41  1  0
 24 42  1  0
M  ISO  8  25  14  26  14  27  14  28  14  29  14  30  14  31  14  32   9
M  ISO  8  33  14  34  13  35  13  36  13  37  13  38   5  39  13  40  13
M  ISO  2  41  13  42  13
M  END
>  <minimizedAffinity>  (1) 
-6.68415976

>  <minimizedRMSD>  (1) 
0.861063302

$$$$
