
     RDKit          3D

 39 43  0  0  0  0  0  0  0  0999 V2000
   45.1300   34.3680   45.4190 C   0  0  0  0  0  0  0  0  0  0  0  0
   45.6210   34.6280   44.1110 C   0  0  0  0  0  0  0  0  0  0  0  0
   46.7830   33.9630   43.6990 C   0  0  0  0  0  0  0  0  0  0  0  0
   47.3870   33.1030   44.5660 N   0  0  0  0  0  0  0  0  0  0  0  0
   46.8820   32.8830   45.8090 C   0  0  0  0  0  0  0  0  0  0  0  0
   45.7770   33.5050   46.2260 N   0  0  0  0  0  0  0  0  0  0  0  0
   47.3040   34.2150   42.3610 C   0  0  0  0  0  0  0  0  0  0  0  0
   48.2600   35.2190   42.3080 C   0  0  0  0  0  0  0  0  0  0  0  0
   48.8640   35.5950   41.1320 C   0  0  0  0  0  0  0  0  0  0  0  0
   48.5140   34.9550   39.9370 C   0  0  0  0  0  0  0  0  0  0  0  0
   47.5710   33.9720   40.0130 C   0  0  0  0  0  0  0  0  0  0  0  0
   46.9650   33.5900   41.1840 C   0  0  0  0  0  0  0  0  0  0  0  0
   44.7660   35.7720   43.0390 S   0  0  0  0  0  0  0  0  0  0  0  0
   42.6020   33.3470   40.8980 N   0  0  0  0  0  0  0  0  0  0  0  0
   43.4650   33.5800   41.8580 N   0  0  0  0  0  0  0  0  0  0  0  0
   43.6970   34.9260   41.9300 C   0  0  0  0  0  0  0  0  0  0  0  0
   42.9220   35.4610   40.9590 C   0  0  0  0  0  0  0  0  0  0  0  0
   42.2040   34.4810   40.2750 C   0  0  0  0  0  0  0  0  0  0  0  0
   41.2870   34.6320   39.1970 N   0  0  0  0  0  0  0  0  0  0  0  0
   41.3770   35.5910   38.2600 C   0  0  0  0  0  0  0  0  0  0  0  0
   40.3380   35.4240   37.4020 N   0  0  0  0  0  0  0  0  0  0  0  0
   39.5960   34.3700   37.7910 C   0  0  0  0  0  0  0  0  0  0  0  0
   38.4480   33.8250   37.2300 C   0  0  0  0  0  0  0  0  0  0  0  0
   37.9420   32.7480   37.8800 N   0  0  0  0  0  0  0  0  0  0  0  0
   38.5300   32.2560   38.9940 C   0  0  0  0  0  0  0  0  0  0  0  0
   39.6570   32.8110   39.5240 N   0  0  0  0  0  0  0  0  0  0  0  0
   40.2240   33.8820   38.9410 C   0  0  0  0  0  0  0  0  0  0  0  0
   44.2192   34.8728   45.7734 H   0  0  0  0  0  0  0  0  0  0  0  0
   47.3931   32.1799   46.4831 H   0  0  0  0  0  0  0  0  0  0  0  0
   48.5443   35.7316   43.2388 H   0  0  0  0  0  0  0  0  0  0  0  0
   49.6189   36.3951   41.1297 H   0  0  0  0  0  0  0  0  0  0  0  0
   48.9787   35.2324   38.9793 H   0  0  0  0  0  0  0  0  0  0  0  0
   47.2804   33.4574   39.0852 H   0  0  0  0  0  0  0  0  0  0  0  0
   46.2121   32.7881   41.1808 H   0  0  0  0  0  0  0  0  0  0  0  0
   42.2650   32.4068   40.6465 H   0  0  0  0  0  0  0  0  0  0  0  0
   42.8652   36.5368   40.7365 H   0  0  0  0  0  0  0  0  0  0  0  0
   42.1515   36.3697   38.1992 H   0  0  0  0  0  0  0  0  0  0  0  0
   37.9825   34.2378   36.3229 H   0  0  0  0  0  0  0  0  0  0  0  0
   38.0848   31.3800   39.4884 H   0  0  0  0  0  0  0  0  0  0  0  0
  1  6  2  0
  2  1  1  0
  3  2  2  0
  3  4  1  0
  4  5  2  0
  5  6  1  0
  7  3  1  0
  8  7  2  0
  9  8  1  0
 10 11  1  0
 10  9  2  0
 11 12  2  0
 12  7  1  0
 13  2  1  0
 14 15  1  0
 15 16  2  0
 16 13  1  0
 17 16  1  0
 18 14  1  0
 18 17  2  0
 19 18  1  0
 20 19  1  0
 21 22  1  0
 21 20  2  0
 22 27  2  0
 23 22  1  0
 23 24  2  0
 24 25  1  0
 25 26  2  0
 27 19  1  0
 27 26  1  0
  1 28  1  0
  5 29  1  0
  8 30  1  0
  9 31  1  0
 10 32  1  0
 11 33  1  0
 12 34  1  0
 14 35  1  0
 17 36  1  0
 20 37  1  0
 23 38  1  0
 25 39  1  0
M  ISO  8  28  14  29  14  30  14  31  14  32  14  33  14  34  14  35   9
M  ISO  4  36  14  37  14  38  14  39  14
M  END
>  <minimizedAffinity>  (1) 
-6.91167641

>  <minimizedRMSD>  (1) 
1.24770641

$$$$
