
     RDKit          3D

 24 25  0  0  0  0  0  0  0  0999 V2000
   46.5910   32.6990   45.1850 C   0  0  0  0  0  0  0  0  0  0  0  0
   45.9590   33.9100   44.7070 C   0  0  0  0  0  0  0  0  0  0  0  0
   46.3440   34.3390   43.4400 C   0  0  0  0  0  0  0  0  0  0  0  0
   45.8030   35.4940   42.8730 C   0  0  0  0  0  0  0  0  0  0  0  0
   44.8840   36.1720   43.6210 N   0  0  0  0  0  0  0  0  0  0  0  0
   44.5260   35.7380   44.8460 C   0  0  0  0  0  0  0  0  0  0  0  0
   45.0660   34.6290   45.3540 N   0  0  0  0  0  0  0  0  0  0  0  0
   46.8020   32.6840   46.6880 C   0  0  0  0  0  0  0  0  0  0  0  0
   46.1040   31.6440   47.3560 N   0  0  0  0  0  0  0  0  0  0  0  0
   45.7250   30.4470   47.0120 N   0  0  0  0  0  0  0  0  0  0  0  0
   45.0780   29.7810   47.9650 C   0  0  0  0  0  0  0  0  0  0  0  0
   45.0310   30.6320   49.0390 C   0  0  0  0  0  0  0  0  0  0  0  0
   45.6710   31.7710   48.6300 C   0  0  0  0  0  0  0  0  0  0  0  0
   45.8300   32.8920   49.4700 O   0  0  0  0  0  0  0  0  0  0  0  0
   47.5703   32.5992   44.6941 H   0  0  0  0  0  0  0  0  0  0  0  0
   45.9182   31.8632   44.9424 H   0  0  0  0  0  0  0  0  0  0  0  0
   47.0878   33.7575   42.8756 H   0  0  0  0  0  0  0  0  0  0  0  0
   46.1023   35.8408   41.8729 H   0  0  0  0  0  0  0  0  0  0  0  0
   43.7840   36.3018   45.4304 H   0  0  0  0  0  0  0  0  0  0  0  0
   47.8772   32.5622   46.8857 H   0  0  0  0  0  0  0  0  0  0  0  0
   46.4066   33.6345   47.0757 H   0  0  0  0  0  0  0  0  0  0  0  0
   44.6674   28.7623   47.9041 H   0  0  0  0  0  0  0  0  0  0  0  0
   44.5753   30.4401   50.0216 H   0  0  0  0  0  0  0  0  0  0  0  0
   45.4698   32.8747   50.3920 H   0  0  0  0  0  0  0  0  0  0  0  0
  1  8  1  0
  2  1  1  0
  2  7  1  0
  3  2  2  0
  4  3  1  0
  4  5  2  0
  5  6  1  0
  6  7  2  0
  8  9  1  0
  9 13  1  0
 10  9  1  0
 10 11  2  0
 11 12  1  0
 13 12  2  0
 13 14  1  0
  1 15  1  0
  1 16  1  0
  3 17  1  0
  4 18  1  0
  6 19  1  0
  8 20  1  0
  8 21  1  0
 11 22  1  0
 12 23  1  0
 14 24  1  0
M  ISO  8  15   8  16   8  17  14  18  14  19  14  20   8  21   8  22  14
M  ISO  2  23  14  24   3
M  END
>  <minimizedAffinity>  (1) 
-4.65014267

>  <minimizedRMSD>  (1) 
0.451450586

$$$$
