
     RDKit          3D

 36 39  0  0  0  0  0  0  0  0999 V2000
   45.0950   34.3910   45.4200 C   0  0  0  0  0  0  0  0  0  0  0  0
   45.5530   34.6020   44.0920 C   0  0  0  0  0  0  0  0  0  0  0  0
   46.7080   33.9350   43.6840 C   0  0  0  0  0  0  0  0  0  0  0  0
   47.3480   33.1130   44.5640 N   0  0  0  0  0  0  0  0  0  0  0  0
   46.8730   32.9430   45.8230 C   0  0  0  0  0  0  0  0  0  0  0  0
   45.7730   33.5680   46.2360 N   0  0  0  0  0  0  0  0  0  0  0  0
   47.1950   34.1380   42.3280 C   0  0  0  0  0  0  0  0  0  0  0  0
   48.1700   35.1180   42.2180 C   0  0  0  0  0  0  0  0  0  0  0  0
   48.7460   35.4450   41.0140 C   0  0  0  0  0  0  0  0  0  0  0  0
   48.3490   34.7780   39.8450 C   0  0  0  0  0  0  0  0  0  0  0  0
   47.3850   33.8160   39.9800 C   0  0  0  0  0  0  0  0  0  0  0  0
   46.8110   33.4870   41.1720 C   0  0  0  0  0  0  0  0  0  0  0  0
   44.6560   35.6960   43.0010 S   0  0  0  0  0  0  0  0  0  0  0  0
   42.3920   33.1810   41.0780 N   0  0  0  0  0  0  0  0  0  0  0  0
   43.3440   33.4390   41.9450 N   0  0  0  0  0  0  0  0  0  0  0  0
   43.5160   34.8000   42.0060 C   0  0  0  0  0  0  0  0  0  0  0  0
   42.6110   35.2960   41.1280 C   0  0  0  0  0  0  0  0  0  0  0  0
   41.8810   34.3020   40.5210 C   0  0  0  0  0  0  0  0  0  0  0  0
   40.8160   34.3430   39.5270 C   0  0  0  0  0  0  0  0  0  0  0  0
   41.0510   34.9280   38.3000 C   0  0  0  0  0  0  0  0  0  0  0  0
   39.9390   34.8870   37.4660 C   0  0  0  0  0  0  0  0  0  0  0  0
   38.7480   34.3480   37.7820 N   0  0  0  0  0  0  0  0  0  0  0  0
   38.6080   33.8020   38.9980 C   0  0  0  0  0  0  0  0  0  0  0  0
   39.6360   33.7970   39.8700 N   0  0  0  0  0  0  0  0  0  0  0  0
   44.1882   34.9000   45.7786 H   0  0  0  0  0  0  0  0  0  0  0  0
   47.4070   32.2760   46.5158 H   0  0  0  0  0  0  0  0  0  0  0  0
   48.4929   35.6511   43.1244 H   0  0  0  0  0  0  0  0  0  0  0  0
   49.5169   36.2282   40.9667 H   0  0  0  0  0  0  0  0  0  0  0  0
   48.7915   35.0170   38.8667 H   0  0  0  0  0  0  0  0  0  0  0  0
   47.0556   33.2793   39.0781 H   0  0  0  0  0  0  0  0  0  0  0  0
   46.0413   32.7023   41.2131 H   0  0  0  0  0  0  0  0  0  0  0  0
   42.0702   32.2300   40.8478 H   0  0  0  0  0  0  0  0  0  0  0  0
   42.4763   36.3686   40.9248 H   0  0  0  0  0  0  0  0  0  0  0  0
   42.0129   35.3777   38.0127 H   0  0  0  0  0  0  0  0  0  0  0  0
   40.0420   35.3321   36.4654 H   0  0  0  0  0  0  0  0  0  0  0  0
   37.6458   33.3540   39.2870 H   0  0  0  0  0  0  0  0  0  0  0  0
  1  6  2  0
  2  1  1  0
  3  2  2  0
  3  4  1  0
  4  5  2  0
  5  6  1  0
  7  3  1  0
  8  7  2  0
  9  8  1  0
 10 11  1  0
 10  9  2  0
 11 12  2  0
 12  7  1  0
 13  2  1  0
 14 15  1  0
 15 16  2  0
 16 13  1  0
 17 16  1  0
 18 14  1  0
 18 17  2  0
 19 24  1  0
 19 18  1  0
 20 19  2  0
 21 22  2  0
 21 20  1  0
 22 23  1  0
 23 24  2  0
  1 25  1  0
  5 26  1  0
  8 27  1  0
  9 28  1  0
 10 29  1  0
 11 30  1  0
 12 31  1  0
 14 32  1  0
 17 33  1  0
 20 34  1  0
 21 35  1  0
 23 36  1  0
M  ISO  8  25  14  26  14  27  14  28  14  29  14  30  14  31  14  32   9
M  ISO  4  33  14  34  14  35  14  36  14
M  END
>  <minimizedAffinity>  (1) 
-6.42339563

>  <minimizedRMSD>  (1) 
0.4156093

$$$$
