
     RDKit          3D

 35 38  0  0  0  0  0  0  0  0999 V2000
   45.0130   34.5190   45.2670 C   0  0  0  0  0  0  0  0  0  0  0  0
   45.4870   34.6910   43.9500 C   0  0  0  0  0  0  0  0  0  0  0  0
   46.6470   34.0100   43.5640 C   0  0  0  0  0  0  0  0  0  0  0  0
   47.2780   33.2030   44.4800 N   0  0  0  0  0  0  0  0  0  0  0  0
   46.7910   33.0690   45.7240 C   0  0  0  0  0  0  0  0  0  0  0  0
   45.6850   33.7110   46.1140 N   0  0  0  0  0  0  0  0  0  0  0  0
   47.1550   34.1750   42.1980 C   0  0  0  0  0  0  0  0  0  0  0  0
   48.1140   35.1450   42.0690 C   0  0  0  0  0  0  0  0  0  0  0  0
   48.7040   35.4360   40.8550 C   0  0  0  0  0  0  0  0  0  0  0  0
   48.3270   34.7320   39.7090 C   0  0  0  0  0  0  0  0  0  0  0  0
   47.3650   33.7660   39.8670 C   0  0  0  0  0  0  0  0  0  0  0  0
   46.7760   33.4730   41.0700 C   0  0  0  0  0  0  0  0  0  0  0  0
   44.6060   35.7630   42.8160 S   0  0  0  0  0  0  0  0  0  0  0  0
   42.3070   33.2110   40.9800 N   0  0  0  0  0  0  0  0  0  0  0  0
   43.2740   33.4830   41.8310 N   0  0  0  0  0  0  0  0  0  0  0  0
   43.4500   34.8490   41.8560 C   0  0  0  0  0  0  0  0  0  0  0  0
   42.5290   35.3380   40.9720 C   0  0  0  0  0  0  0  0  0  0  0  0
   41.7890   34.3320   40.4000 C   0  0  0  0  0  0  0  0  0  0  0  0
   40.7180   34.3710   39.4230 C   0  0  0  0  0  0  0  0  0  0  0  0
   39.3880   34.1140   39.7670 C   0  0  0  0  0  0  0  0  0  0  0  0
   38.7190   34.2570   38.5460 C   0  0  0  0  0  0  0  0  0  0  0  0
   39.6400   34.5800   37.5720 C   0  0  0  0  0  0  0  0  0  0  0  0
   40.8170   34.6380   38.1320 O   0  0  0  0  0  0  0  0  0  0  0  0
   44.1031   35.0390   45.6012 H   0  0  0  0  0  0  0  0  0  0  0  0
   47.3138   32.4162   46.4385 H   0  0  0  0  0  0  0  0  0  0  0  0
   48.4237   35.7098   42.9607 H   0  0  0  0  0  0  0  0  0  0  0  0
   49.4708   36.2221   40.7904 H   0  0  0  0  0  0  0  0  0  0  0  0
   48.7789   34.9415   38.7282 H   0  0  0  0  0  0  0  0  0  0  0  0
   47.0495   33.1960   38.9807 H   0  0  0  0  0  0  0  0  0  0  0  0
   46.0094   32.6869   41.1364 H   0  0  0  0  0  0  0  0  0  0  0  0
   41.9778   32.2569   40.7747 H   0  0  0  0  0  0  0  0  0  0  0  0
   42.3967   36.4064   40.7463 H   0  0  0  0  0  0  0  0  0  0  0  0
   38.9705   33.8618   40.7530 H   0  0  0  0  0  0  0  0  0  0  0  0
   37.6374   34.1323   38.3893 H   0  0  0  0  0  0  0  0  0  0  0  0
   39.4208   34.7577   36.5088 H   0  0  0  0  0  0  0  0  0  0  0  0
  1  6  2  0
  2  1  1  0
  3  2  2  0
  3  4  1  0
  4  5  2  0
  5  6  1  0
  7  3  1  0
  8  7  2  0
  9  8  1  0
 10 11  1  0
 10  9  2  0
 11 12  2  0
 12  7  1  0
 13  2  1  0
 14 15  1  0
 15 16  2  0
 16 13  1  0
 17 16  1  0
 18 17  2  0
 18 14  1  0
 19 20  2  0
 19 18  1  0
 21 20  1  0
 22 23  1  0
 22 21  2  0
 23 19  1  0
  1 24  1  0
  5 25  1  0
  8 26  1  0
  9 27  1  0
 10 28  1  0
 11 29  1  0
 12 30  1  0
 14 31  1  0
 17 32  1  0
 20 33  1  0
 21 34  1  0
 22 35  1  0
M  ISO  8  24  14  25  14  26  14  27  14  28  14  29  14  30  14  31   9
M  ISO  4  32  14  33  14  34  14  35  14
M  END
>  <minimizedAffinity>  (1) 
-6.46043873

>  <minimizedRMSD>  (1) 
0.402251571

$$$$
