
     RDKit          3D

 34 36  0  0  0  0  0  0  0  0999 V2000
   45.1290   34.3650   45.3850 C   0  0  0  0  0  0  0  0  0  0  0  0
   45.6300   34.6550   44.0930 C   0  0  0  0  0  0  0  0  0  0  0  0
   46.7620   33.9660   43.6290 C   0  0  0  0  0  0  0  0  0  0  0  0
   47.3360   33.0320   44.4560 N   0  0  0  0  0  0  0  0  0  0  0  0
   46.8190   32.7890   45.6870 C   0  0  0  0  0  0  0  0  0  0  0  0
   45.7460   33.4380   46.1350 N   0  0  0  0  0  0  0  0  0  0  0  0
   47.2850   34.2530   42.3070 C   0  0  0  0  0  0  0  0  0  0  0  0
   48.2930   35.2040   42.2900 C   0  0  0  0  0  0  0  0  0  0  0  0
   48.9080   35.6020   41.1250 C   0  0  0  0  0  0  0  0  0  0  0  0
   48.5270   35.0510   39.9160 C   0  0  0  0  0  0  0  0  0  0  0  0
   47.5240   34.1070   39.9500 C   0  0  0  0  0  0  0  0  0  0  0  0
   46.9040   33.7020   41.1090 C   0  0  0  0  0  0  0  0  0  0  0  0
   44.8120   35.8900   43.0870 S   0  0  0  0  0  0  0  0  0  0  0  0
   42.4360   33.6870   40.9290 N   0  0  0  0  0  0  0  0  0  0  0  0
   43.3640   33.8220   41.8510 N   0  0  0  0  0  0  0  0  0  0  0  0
   43.6470   35.1530   41.9920 C   0  0  0  0  0  0  0  0  0  0  0  0
   42.8380   35.7860   41.1070 C   0  0  0  0  0  0  0  0  0  0  0  0
   42.0490   34.8750   40.4110 C   0  0  0  0  0  0  0  0  0  0  0  0
   41.0580   35.2130   39.3750 C   0  0  0  0  0  0  0  0  0  0  0  0
   39.6670   35.1540   39.9660 C   0  0  0  0  0  0  0  0  0  0  0  0
   44.2442   34.8932   45.7700 H   0  0  0  0  0  0  0  0  0  0  0  0
   47.2984   32.0370   46.3309 H   0  0  0  0  0  0  0  0  0  0  0  0
   48.6125   35.6563   43.2405 H   0  0  0  0  0  0  0  0  0  0  0  0
   49.7044   36.3602   41.1560 H   0  0  0  0  0  0  0  0  0  0  0  0
   49.0024   35.3521   38.9708 H   0  0  0  0  0  0  0  0  0  0  0  0
   47.2023   33.6536   39.0008 H   0  0  0  0  0  0  0  0  0  0  0  0
   46.1090   32.9424   41.0761 H   0  0  0  0  0  0  0  0  0  0  0  0
   42.0479   32.7794   40.6347 H   0  0  0  0  0  0  0  0  0  0  0  0
   42.8091   36.8756   40.9587 H   0  0  0  0  0  0  0  0  0  0  0  0
   41.1346   34.4937   38.5463 H   0  0  0  0  0  0  0  0  0  0  0  0
   41.2531   36.2285   38.9999 H   0  0  0  0  0  0  0  0  0  0  0  0
   39.7347   35.1569   41.0639 H   0  0  0  0  0  0  0  0  0  0  0  0
   39.0893   36.0284   39.6320 H   0  0  0  0  0  0  0  0  0  0  0  0
   39.1654   34.2338   39.6320 H   0  0  0  0  0  0  0  0  0  0  0  0
  1  6  2  0
  2  1  1  0
  3  2  2  0
  3  4  1  0
  4  5  2  0
  5  6  1  0
  7  3  1  0
  8  7  2  0
  9  8  1  0
 10 11  1  0
 10  9  2  0
 11 12  2  0
 12  7  1  0
 13  2  1  0
 14 15  1  0
 15 16  2  0
 16 13  1  0
 17 16  1  0
 18 14  1  0
 18 17  2  0
 19 20  1  0
 19 18  1  0
  1 21  1  0
  5 22  1  0
  8 23  1  0
  9 24  1  0
 10 25  1  0
 11 26  1  0
 12 27  1  0
 14 28  1  0
 17 29  1  0
 19 30  1  0
 19 31  1  0
 20 32  1  0
 20 33  1  0
 20 34  1  0
M  ISO  8  21  14  22  14  23  14  24  14  25  14  26  14  27  14  28   9
M  ISO  6  29  14  30   8  31   8  32   8  33   8  34   8
M  END
>  <minimizedAffinity>  (1) 
-5.80881548

>  <minimizedRMSD>  (1) 
0.42199567

$$$$
