
     RDKit          3D

 31 33  0  0  0  0  0  0  0  0999 V2000
   44.9660   34.5850   45.2960 C   0  0  0  0  0  0  0  0  0  0  0  0
   45.4820   34.7830   43.9920 C   0  0  0  0  0  0  0  0  0  0  0  0
   46.6110   34.0670   43.6030 C   0  0  0  0  0  0  0  0  0  0  0  0
   47.1760   33.1990   44.5050 N   0  0  0  0  0  0  0  0  0  0  0  0
   46.6470   33.0430   45.7410 C   0  0  0  0  0  0  0  0  0  0  0  0
   45.5730   33.7160   46.1300 N   0  0  0  0  0  0  0  0  0  0  0  0
   47.1530   34.2570   42.2710 C   0  0  0  0  0  0  0  0  0  0  0  0
   48.1710   35.1920   42.1990 C   0  0  0  0  0  0  0  0  0  0  0  0
   48.8030   35.5010   41.0180 C   0  0  0  0  0  0  0  0  0  0  0  0
   48.4200   34.8640   39.8410 C   0  0  0  0  0  0  0  0  0  0  0  0
   47.4130   33.9420   39.9220 C   0  0  0  0  0  0  0  0  0  0  0  0
   46.7780   33.6290   41.1040 C   0  0  0  0  0  0  0  0  0  0  0  0
   44.6820   35.9350   42.8800 S   0  0  0  0  0  0  0  0  0  0  0  0
   42.2480   33.6090   40.9380 N   0  0  0  0  0  0  0  0  0  0  0  0
   43.2640   33.7800   41.7480 N   0  0  0  0  0  0  0  0  0  0  0  0
   43.4540   35.1210   41.9000 C   0  0  0  0  0  0  0  0  0  0  0  0
   42.5020   35.7180   41.1430 C   0  0  0  0  0  0  0  0  0  0  0  0
   41.7160   34.7780   40.5160 C   0  0  0  0  0  0  0  0  0  0  0  0
   40.5620   34.9450   39.5970 C   0  0  0  0  0  0  0  0  0  0  0  0
   44.0743   35.1374   45.6271 H   0  0  0  0  0  0  0  0  0  0  0  0
   47.1207   32.3392   46.4413 H   0  0  0  0  0  0  0  0  0  0  0  0
   48.4854   35.7060   43.1193 H   0  0  0  0  0  0  0  0  0  0  0  0
   49.6090   36.2494   41.0031 H   0  0  0  0  0  0  0  0  0  0  0  0
   48.9085   35.0934   38.8825 H   0  0  0  0  0  0  0  0  0  0  0  0
   47.0961   33.4276   39.0028 H   0  0  0  0  0  0  0  0  0  0  0  0
   45.9733   32.8792   41.1156 H   0  0  0  0  0  0  0  0  0  0  0  0
   41.8934   32.6846   40.6539 H   0  0  0  0  0  0  0  0  0  0  0  0
   42.3746   36.8060   41.0431 H   0  0  0  0  0  0  0  0  0  0  0  0
   39.6417   35.0782   40.1846 H   0  0  0  0  0  0  0  0  0  0  0  0
   40.7233   35.8292   38.9628 H   0  0  0  0  0  0  0  0  0  0  0  0
   40.4660   34.0514   38.9628 H   0  0  0  0  0  0  0  0  0  0  0  0
  1  6  2  0
  2  1  1  0
  3  2  2  0
  3  4  1  0
  4  5  2  0
  5  6  1  0
  7  3  1  0
  8  7  2  0
  9  8  1  0
 10 11  1  0
 10  9  2  0
 11 12  2  0
 12  7  1  0
 13  2  1  0
 14 15  1  0
 15 16  2  0
 16 13  1  0
 17 16  1  0
 18 14  1  0
 18 17  2  0
 19 18  1  0
  1 20  1  0
  5 21  1  0
  8 22  1  0
  9 23  1  0
 10 24  1  0
 11 25  1  0
 12 26  1  0
 14 27  1  0
 17 28  1  0
 19 29  1  0
 19 30  1  0
 19 31  1  0
M  ISO  8  20  14  21  14  22  14  23  14  24  14  25  14  26  14  27   9
M  ISO  4  28  14  29   8  30   8  31   8
M  END
>  <minimizedAffinity>  (1) 
-5.63665056

>  <minimizedRMSD>  (1) 
0.0333166197

$$$$
