
     RDKit          3D

 34 37  0  0  0  0  0  0  0  0999 V2000
   45.0520   34.4570   45.3260 C   0  0  0  0  0  0  0  0  0  0  0  0
   45.5100   34.6380   44.0060 C   0  0  0  0  0  0  0  0  0  0  0  0
   46.6790   33.9660   43.6090 C   0  0  0  0  0  0  0  0  0  0  0  0
   47.3200   33.1690   44.5140 N   0  0  0  0  0  0  0  0  0  0  0  0
   46.8470   33.0260   45.7660 C   0  0  0  0  0  0  0  0  0  0  0  0
   45.7390   33.6540   46.1670 N   0  0  0  0  0  0  0  0  0  0  0  0
   47.1710   34.1400   42.2420 C   0  0  0  0  0  0  0  0  0  0  0  0
   48.1340   35.1250   42.1050 C   0  0  0  0  0  0  0  0  0  0  0  0
   48.7070   35.4270   40.9030 C   0  0  0  0  0  0  0  0  0  0  0  0
   48.3250   34.7310   39.7560 C   0  0  0  0  0  0  0  0  0  0  0  0
   47.3680   33.7550   39.9070 C   0  0  0  0  0  0  0  0  0  0  0  0
   46.7900   33.4480   41.1100 C   0  0  0  0  0  0  0  0  0  0  0  0
   44.6140   35.7040   42.8700 S   0  0  0  0  0  0  0  0  0  0  0  0
   42.3730   33.1400   41.0210 N   0  0  0  0  0  0  0  0  0  0  0  0
   43.2770   33.4280   41.9140 N   0  0  0  0  0  0  0  0  0  0  0  0
   43.5010   34.7730   41.8820 C   0  0  0  0  0  0  0  0  0  0  0  0
   42.6740   35.2300   40.9230 C   0  0  0  0  0  0  0  0  0  0  0  0
   41.9380   34.2260   40.3470 C   0  0  0  0  0  0  0  0  0  0  0  0
   40.9540   34.3660   39.2850 C   0  0  0  0  0  0  0  0  0  0  0  0
   39.7380   33.5310   39.2600 C   0  0  0  0  0  0  0  0  0  0  0  0
   38.8710   34.1020   37.7550 S   0  0  0  0  0  0  0  0  0  0  0  0
   40.2430   35.3450   37.4000 C   0  0  0  0  0  0  0  0  0  0  0  0
   40.9740   35.1830   38.2630 N   0  0  0  0  0  0  0  0  0  0  0  0
   44.1399   34.9669   45.6697 H   0  0  0  0  0  0  0  0  0  0  0  0
   47.3847   32.3780   46.4739 H   0  0  0  0  0  0  0  0  0  0  0  0
   48.4493   35.6852   42.9976 H   0  0  0  0  0  0  0  0  0  0  0  0
   49.4688   36.2180   40.8392 H   0  0  0  0  0  0  0  0  0  0  0  0
   48.7694   34.9529   38.7746 H   0  0  0  0  0  0  0  0  0  0  0  0
   47.0507   33.1925   39.0165 H   0  0  0  0  0  0  0  0  0  0  0  0
   46.0286   32.6567   41.1737 H   0  0  0  0  0  0  0  0  0  0  0  0
   42.0270   32.1854   40.8477 H   0  0  0  0  0  0  0  0  0  0  0  0
   42.5972   36.2886   40.6341 H   0  0  0  0  0  0  0  0  0  0  0  0
   39.4281   32.7535   39.9737 H   0  0  0  0  0  0  0  0  0  0  0  0
   40.3210   36.0551   36.5636 H   0  0  0  0  0  0  0  0  0  0  0  0
  1  6  2  0
  2  1  1  0
  3  2  2  0
  3  4  1  0
  4  5  2  0
  5  6  1  0
  7  3  1  0
  8  7  2  0
  9  8  1  0
 10 11  1  0
 10  9  2  0
 11 12  2  0
 12  7  1  0
 13  2  1  0
 14 15  1  0
 16 15  2  0
 16 13  1  0
 17 16  1  0
 18 17  2  0
 18 14  1  0
 19 18  1  0
 20 19  2  0
 21 20  1  0
 22 21  1  0
 22 23  2  0
 23 19  1  0
  1 24  1  0
  5 25  1  0
  8 26  1  0
  9 27  1  0
 10 28  1  0
 11 29  1  0
 12 30  1  0
 14 31  1  0
 17 32  1  0
 20 33  1  0
 22 34  1  0
M  ISO  8  24  14  25  14  26  14  27  14  28  14  29  14  30  14  31   9
M  ISO  3  32  14  33  14  34  14
M  END
>  <minimizedAffinity>  (1) 
-6.02338219

>  <minimizedRMSD>  (1) 
0.735307157

$$$$
