
     RDKit          3D

 30 33  0  0  0  0  0  0  0  0999 V2000
   45.9270   34.8300   43.2430 C   0  0  0  0  0  0  0  0  0  0  0  0
   45.8960   33.9240   44.2920 C   0  0  0  0  0  0  0  0  0  0  0  0
   45.1980   34.2300   45.5080 C   0  0  0  0  0  0  0  0  0  0  0  0
   44.5630   35.4300   45.5970 N   0  0  0  0  0  0  0  0  0  0  0  0
   44.5990   36.3000   44.5470 C   0  0  0  0  0  0  0  0  0  0  0  0
   45.2570   35.9800   43.4470 N   0  0  0  0  0  0  0  0  0  0  0  0
   46.6660   34.7200   42.0050 C   0  0  0  0  0  0  0  0  0  0  0  0
   47.8870   35.1800   41.7610 N   0  0  0  0  0  0  0  0  0  0  0  0
   48.6210   35.0900   40.6760 C   0  0  0  0  0  0  0  0  0  0  0  0
   48.1150   34.4420   39.6170 N   0  0  0  0  0  0  0  0  0  0  0  0
   46.8850   33.9250   39.7340 C   0  0  0  0  0  0  0  0  0  0  0  0
   46.4380   33.2560   38.6160 C   0  0  0  0  0  0  0  0  0  0  0  0
   45.2030   32.6660   38.6290 C   0  0  0  0  0  0  0  0  0  0  0  0
   44.4360   32.7690   39.7930 C   0  0  0  0  0  0  0  0  0  0  0  0
   44.9700   33.4580   40.8550 C   0  0  0  0  0  0  0  0  0  0  0  0
   46.1790   34.0650   40.9090 C   0  0  0  0  0  0  0  0  0  0  0  0
   46.4620   32.6220   44.1030 N   0  0  0  0  0  0  0  0  0  0  0  0
   45.7950   31.4330   43.8470 C   0  0  0  0  0  0  0  0  0  0  0  0
   46.7090   30.4400   43.7620 N   0  0  0  0  0  0  0  0  0  0  0  0
   47.9440   31.0300   43.9720 C   0  0  0  0  0  0  0  0  0  0  0  0
   47.7850   32.3920   44.1850 N   0  0  0  0  0  0  0  0  0  0  0  0
   45.1770   33.5152   46.3438 H   0  0  0  0  0  0  0  0  0  0  0  0
   44.0804   37.2676   44.6161 H   0  0  0  0  0  0  0  0  0  0  0  0
   49.6261   35.5352   40.6369 H   0  0  0  0  0  0  0  0  0  0  0  0
   47.0700   33.1962   37.7177 H   0  0  0  0  0  0  0  0  0  0  0  0
   44.8248   32.1261   37.7484 H   0  0  0  0  0  0  0  0  0  0  0  0
   43.4370   32.3131   39.8567 H   0  0  0  0  0  0  0  0  0  0  0  0
   44.3477   33.5236   41.7596 H   0  0  0  0  0  0  0  0  0  0  0  0
   44.7071   31.3175   43.7325 H   0  0  0  0  0  0  0  0  0  0  0  0
   48.9071   30.4985   43.9702 H   0  0  0  0  0  0  0  0  0  0  0  0
  1  6  2  0
  1  2  1  0
  2  3  2  0
  3  4  1  0
  5  4  2  0
  6  5  1  0
  7  1  1  0
  8  7  2  0
  9  8  1  0
 10 11  1  0
 10  9  2  0
 11 16  2  0
 12 13  2  0
 12 11  1  0
 13 14  1  0
 14 15  2  0
 15 16  1  0
 16  7  1  0
 17 21  1  0
 17  2  1  0
 18 17  1  0
 19 18  2  0
 19 20  1  0
 20 21  2  0
  3 22  1  0
  5 23  1  0
  9 24  1  0
 12 25  1  0
 13 26  1  0
 14 27  1  0
 15 28  1  0
 18 29  1  0
 20 30  1  0
M  ISO  8  22  14  23  14  24  14  25  14  26  14  27  14  28  14  29  14
M  ISO  1  30  14
M  END
>  <minimizedAffinity>  (1) 
-5.07697678

>  <minimizedRMSD>  (1) 
5.83450222

$$$$
