
     RDKit          3D

 24 26  0  0  0  0  0  0  0  0999 V2000
   46.2150   34.0070   44.1730 C   0  0  0  0  0  0  0  0  0  0  0  0
   46.0650   34.9270   43.1490 C   0  0  0  0  0  0  0  0  0  0  0  0
   45.1800   36.0460   43.2810 C   0  0  0  0  0  0  0  0  0  0  0  0
   44.5020   36.1720   44.4530 N   0  0  0  0  0  0  0  0  0  0  0  0
   44.6770   35.2580   45.4460 C   0  0  0  0  0  0  0  0  0  0  0  0
   45.5050   34.2240   45.2930 N   0  0  0  0  0  0  0  0  0  0  0  0
   46.8890   34.8050   41.9830 N   0  0  0  0  0  0  0  0  0  0  0  0
   48.1450   35.3470   41.7730 C   0  0  0  0  0  0  0  0  0  0  0  0
   48.5470   35.0180   40.5330 N   0  0  0  0  0  0  0  0  0  0  0  0
   47.5330   34.2710   39.9690 C   0  0  0  0  0  0  0  0  0  0  0  0
   46.4940   34.1360   40.8770 N   0  0  0  0  0  0  0  0  0  0  0  0
   46.9490   32.7620   44.1830 C   0  0  0  0  0  0  0  0  0  0  0  0
   46.7920   31.8660   45.2050 C   0  0  0  0  0  0  0  0  0  0  0  0
   47.4330   30.6600   45.3400 C   0  0  0  0  0  0  0  0  0  0  0  0
   48.3030   30.3110   44.3860 N   0  0  0  0  0  0  0  0  0  0  0  0
   48.4990   31.1470   43.3580 C   0  0  0  0  0  0  0  0  0  0  0  0
   47.8280   32.2740   43.3350 N   0  0  0  0  0  0  0  0  0  0  0  0
   45.0540   36.7744   42.4664 H   0  0  0  0  0  0  0  0  0  0  0  0
   44.1260   35.3742   46.3910 H   0  0  0  0  0  0  0  0  0  0  0  0
   48.7171   35.9452   42.4975 H   0  0  0  0  0  0  0  0  0  0  0  0
   47.5469   33.8473   38.9540 H   0  0  0  0  0  0  0  0  0  0  0  0
   46.0806   32.1397   45.9981 H   0  0  0  0  0  0  0  0  0  0  0  0
   47.2383   30.0043   46.2015 H   0  0  0  0  0  0  0  0  0  0  0  0
   49.2050   30.8948   42.5531 H   0  0  0  0  0  0  0  0  0  0  0  0
  1 12  1  0
  1  6  2  0
  2  3  2  0
  2  1  1  0
  3  4  1  0
  4  5  2  0
  6  5  1  0
  7  2  1  0
  8  7  1  0
  9  8  2  0
 10  9  1  0
 10 11  2  0
 11  7  1  0
 12 13  2  0
 13 14  1  0
 15 14  2  0
 16 15  1  0
 17 16  2  0
 17 12  1  0
  3 18  1  0
  5 19  1  0
  8 20  1  0
 10 21  1  0
 13 22  1  0
 14 23  1  0
 16 24  1  0
M  ISO  7  18  14  19  14  20  14  21  14  22  14  23  14  24  14
M  END
>  <minimizedAffinity>  (1) 
-4.71454239

>  <minimizedRMSD>  (1) 
5.32825899

$$$$
