
     RDKit          3D

 29 32  0  0  0  0  0  0  0  0999 V2000
   46.0530   33.9260   44.5110 C   0  0  0  0  0  0  0  0  0  0  0  0
   46.1320   34.7500   43.3780 C   0  0  0  0  0  0  0  0  0  0  0  0
   45.3690   35.9370   43.3470 C   0  0  0  0  0  0  0  0  0  0  0  0
   44.5910   36.2210   44.4330 N   0  0  0  0  0  0  0  0  0  0  0  0
   44.5420   35.3950   45.5170 C   0  0  0  0  0  0  0  0  0  0  0  0
   45.2780   34.2520   45.5440 N   0  0  0  0  0  0  0  0  0  0  0  0
   46.6890   32.6880   44.7720 N   0  0  0  0  0  0  0  0  0  0  0  0
   47.2170   31.8550   43.8420 C   0  0  0  0  0  0  0  0  0  0  0  0
   47.7520   30.7800   44.4910 N   0  0  0  0  0  0  0  0  0  0  0  0
   47.5360   30.9840   45.8160 C   0  0  0  0  0  0  0  0  0  0  0  0
   47.8510   30.2440   46.9500 C   0  0  0  0  0  0  0  0  0  0  0  0
   47.5180   30.6750   48.2030 N   0  0  0  0  0  0  0  0  0  0  0  0
   46.8640   31.8520   48.3580 C   0  0  0  0  0  0  0  0  0  0  0  0
   46.5410   32.6010   47.2640 N   0  0  0  0  0  0  0  0  0  0  0  0
   46.8640   32.1850   46.0340 C   0  0  0  0  0  0  0  0  0  0  0  0
   46.9810   34.3510   42.3240 N   0  0  0  0  0  0  0  0  0  0  0  0
   48.3150   34.5350   42.1660 C   0  0  0  0  0  0  0  0  0  0  0  0
   48.7110   33.9880   40.9920 N   0  0  0  0  0  0  0  0  0  0  0  0
   47.5900   33.4530   40.4150 C   0  0  0  0  0  0  0  0  0  0  0  0
   46.5310   33.6860   41.2480 N   0  0  0  0  0  0  0  0  0  0  0  0
   48.5370   29.0040   46.8340 N   0  0  0  0  0  0  0  0  0  0  0  0
   45.3999   36.6104   42.4778 H   0  0  0  0  0  0  0  0  0  0  0  0
   43.9036   35.6548   46.3742 H   0  0  0  0  0  0  0  0  0  0  0  0
   47.2147   32.0171   42.7540 H   0  0  0  0  0  0  0  0  0  0  0  0
   46.5938   32.2032   49.3648 H   0  0  0  0  0  0  0  0  0  0  0  0
   48.9740   35.0492   42.8810 H   0  0  0  0  0  0  0  0  0  0  0  0
   47.5488   32.9274   39.4496 H   0  0  0  0  0  0  0  0  0  0  0  0
   48.7668   28.4616   47.6789 H   0  0  0  0  0  0  0  0  0  0  0  0
   48.8041   28.6482   45.9051 H   0  0  0  0  0  0  0  0  0  0  0  0
  1  7  1  0
  1  6  2  0
  2  1  1  0
  3  2  2  0
  3  4  1  0
  4  5  2  0
  5  6  1  0
  7 15  1  0
  8  9  2  0
  8  7  1  0
  9 10  1  0
 10 15  2  0
 10 11  1  0
 11 12  2  0
 12 13  1  0
 14 13  2  0
 15 14  1  0
 16  2  1  0
 17 16  1  0
 18 17  2  0
 19 18  1  0
 19 20  2  0
 20 16  1  0
 21 11  1  0
  3 22  1  0
  5 23  1  0
  8 24  1  0
 13 25  1  0
 17 26  1  0
 19 27  1  0
 21 28  1  0
 21 29  1  0
M  ISO  6  22  14  23  14  24  14  25  14  26  14  27  14
M  END
>  <minimizedAffinity>  (1) 
-5.41458559

>  <minimizedRMSD>  (1) 
6.48719025

$$$$
