
     RDKit          3D

 21 22  0  0  0  0  0  0  0  0999 V2000
   46.0000   33.4930   45.4290 C   0  0  0  0  0  0  0  0  0  0  0  0
   46.4590   32.2720   45.9050 C   0  0  0  0  0  0  0  0  0  0  0  0
   47.3250   31.5610   45.0700 C   0  0  0  0  0  0  0  0  0  0  0  0
   47.6420   32.1260   43.8700 N   0  0  0  0  0  0  0  0  0  0  0  0
   47.1830   33.3010   43.4470 C   0  0  0  0  0  0  0  0  0  0  0  0
   46.3560   33.9700   44.2510 N   0  0  0  0  0  0  0  0  0  0  0  0
   46.0620   31.8220   47.1810 N   0  0  0  0  0  0  0  0  0  0  0  0
   46.4840   32.2730   48.4070 C   0  0  0  0  0  0  0  0  0  0  0  0
   45.8570   31.5580   49.3700 N   0  0  0  0  0  0  0  0  0  0  0  0
   45.0450   30.6620   48.7230 C   0  0  0  0  0  0  0  0  0  0  0  0
   45.1780   30.8320   47.3650 N   0  0  0  0  0  0  0  0  0  0  0  0
   45.0620   34.3550   46.0990 C   0  0  0  0  0  0  0  0  0  0  0  0
   44.5510   35.4160   45.5930 O   0  0  0  0  0  0  0  0  0  0  0  0
   44.1910   35.0830   46.8280 O   0  0  0  0  0  0  0  0  0  0  0  0
   47.7346   30.5848   45.3687 H   0  0  0  0  0  0  0  0  0  0  0  0
   47.4758   33.7067   42.4674 H   0  0  0  0  0  0  0  0  0  0  0  0
   47.2107   33.0809   48.5782 H   0  0  0  0  0  0  0  0  0  0  0  0
   44.3915   29.9248   49.2124 H   0  0  0  0  0  0  0  0  0  0  0  0
   44.2077   33.7131   46.3602 H   0  0  0  0  0  0  0  0  0  0  0  0
   45.7109   34.7945   46.8709 H   0  0  0  0  0  0  0  0  0  0  0  0
   44.7384   35.5894   47.4792 H   0  0  0  0  0  0  0  0  0  0  0  0
  1  2  2  0
  1 12  1  0
  2  7  1  0
  3  2  1  0
  4  3  2  0
  5  4  1  0
  5  6  2  0
  6  1  1  0
  7 11  1  0
  7  8  1  0
  8  9  2  0
 10  9  1  0
 11 10  2  0
 13 12  1  0
 13 14  1  0
  3 15  1  0
  5 16  1  0
  8 17  1  0
 10 18  1  0
 12 19  1  0
 12 20  1  0
 14 21  1  0
M  ISO  7  15  14  16  14  17  14  18  14  19   8  20   8  21   3
M  END
>  <minimizedAffinity>  (1) 
-4.63496923

>  <minimizedRMSD>  (1) 
5.67907476

$$$$
