
     RDKit          3D

 24 26  0  0  0  0  0  0  0  0999 V2000
   47.1450   32.8660   43.7440 C   0  0  0  0  0  0  0  0  0  0  0  0
   48.2870   32.8790   42.9620 C   0  0  0  0  0  0  0  0  0  0  0  0
   49.1170   31.7170   42.8710 C   0  0  0  0  0  0  0  0  0  0  0  0
   48.7390   30.6120   43.5710 N   0  0  0  0  0  0  0  0  0  0  0  0
   47.6080   30.6210   44.3280 C   0  0  0  0  0  0  0  0  0  0  0  0
   46.8520   31.7170   44.3990 N   0  0  0  0  0  0  0  0  0  0  0  0
   48.5610   34.0450   42.1850 N   0  0  0  0  0  0  0  0  0  0  0  0
   48.1880   34.3220   40.8810 C   0  0  0  0  0  0  0  0  0  0  0  0
   48.6770   35.5340   40.5400 N   0  0  0  0  0  0  0  0  0  0  0  0
   49.3590   35.9990   41.6500 C   0  0  0  0  0  0  0  0  0  0  0  0
   49.2920   35.0730   42.6830 N   0  0  0  0  0  0  0  0  0  0  0  0
   46.2440   33.9440   44.0830 C   0  0  0  0  0  0  0  0  0  0  0  0
   45.6190   33.9940   45.3070 C   0  0  0  0  0  0  0  0  0  0  0  0
   44.7390   34.9540   45.7360 C   0  0  0  0  0  0  0  0  0  0  0  0
   44.4520   35.9520   44.8820 N   0  0  0  0  0  0  0  0  0  0  0  0
   45.0240   35.9710   43.6680 C   0  0  0  0  0  0  0  0  0  0  0  0
   45.8460   34.9850   43.3920 N   0  0  0  0  0  0  0  0  0  0  0  0
   50.0293   31.7164   42.2565 H   0  0  0  0  0  0  0  0  0  0  0  0
   47.3158   29.7184   44.8847 H   0  0  0  0  0  0  0  0  0  0  0  0
   47.5924   33.6644   40.2307 H   0  0  0  0  0  0  0  0  0  0  0  0
   49.8808   36.9657   41.7066 H   0  0  0  0  0  0  0  0  0  0  0  0
   45.8481   33.1821   46.0129 H   0  0  0  0  0  0  0  0  0  0  0  0
   44.2865   34.9095   46.7376 H   0  0  0  0  0  0  0  0  0  0  0  0
   44.8151   36.7708   42.9422 H   0  0  0  0  0  0  0  0  0  0  0  0
  1 12  1  0
  1  6  2  0
  2  1  1  0
  3  2  2  0
  3  4  1  0
  4  5  2  0
  5  6  1  0
  7 11  1  0
  7  2  1  0
  8  7  1  0
  9  8  2  0
  9 10  1  0
 10 11  2  0
 12 13  2  0
 13 14  1  0
 15 14  2  0
 16 15  1  0
 17 16  2  0
 17 12  1  0
  3 18  1  0
  5 19  1  0
  8 20  1  0
 10 21  1  0
 13 22  1  0
 14 23  1  0
 16 24  1  0
M  ISO  7  18  14  19  14  20  14  21  14  22  14  23  14  24  14
M  END
>  <minimizedAffinity>  (1) 
-4.61451244

>  <minimizedRMSD>  (1) 
4.4257102

$$$$
