
     RDKit          3D

 23 25  0  0  0  0  0  0  0  0999 V2000
   45.8800   34.0570   44.7890 C   0  0  0  0  0  0  0  0  0  0  0  0
   46.3490   34.3450   43.4920 C   0  0  0  0  0  0  0  0  0  0  0  0
   45.8230   35.4720   42.8240 C   0  0  0  0  0  0  0  0  0  0  0  0
   44.8860   36.2270   43.4700 N   0  0  0  0  0  0  0  0  0  0  0  0
   44.4620   35.9090   44.7270 C   0  0  0  0  0  0  0  0  0  0  0  0
   44.9650   34.8250   45.3750 N   0  0  0  0  0  0  0  0  0  0  0  0
   46.2170   32.9880   45.6560 N   0  0  0  0  0  0  0  0  0  0  0  0
   45.8280   32.7450   46.9450 C   0  0  0  0  0  0  0  0  0  0  0  0
   46.4560   31.5440   47.2690 C   0  0  0  0  0  0  0  0  0  0  0  0
   47.1850   31.0930   46.2230 N   0  0  0  0  0  0  0  0  0  0  0  0
   47.0390   31.9850   45.2210 C   0  0  0  0  0  0  0  0  0  0  0  0
   47.3260   33.4910   42.9430 N   0  0  0  0  0  0  0  0  0  0  0  0
   48.6830   33.5510   43.0140 C   0  0  0  0  0  0  0  0  0  0  0  0
   49.2120   32.5120   42.3260 N   0  0  0  0  0  0  0  0  0  0  0  0
   48.1570   31.7990   41.8220 C   0  0  0  0  0  0  0  0  0  0  0  0
   46.9980   32.4150   42.2110 N   0  0  0  0  0  0  0  0  0  0  0  0
   46.1589   35.7351   41.8101 H   0  0  0  0  0  0  0  0  0  0  0  0
   43.7054   36.5361   45.2213 H   0  0  0  0  0  0  0  0  0  0  0  0
   45.1705   33.3571   47.5798 H   0  0  0  0  0  0  0  0  0  0  0  0
   46.3707   31.0340   48.2399 H   0  0  0  0  0  0  0  0  0  0  0  0
   47.5016   31.9172   44.2253 H   0  0  0  0  0  0  0  0  0  0  0  0
   49.2595   34.3219   43.5463 H   0  0  0  0  0  0  0  0  0  0  0  0
   48.2286   30.8879   41.2098 H   0  0  0  0  0  0  0  0  0  0  0  0
  1  6  1  0
  1  7  1  0
  2  1  2  0
  3  4  2  0
  3  2  1  0
  4  5  1  0
  5  6  2  0
  7  8  1  0
  8  9  2  0
 10  9  1  0
 11  7  1  0
 11 10  2  0
 12 13  1  0
 12  2  1  0
 14 13  2  0
 15 16  2  0
 15 14  1  0
 16 12  1  0
  3 17  1  0
  5 18  1  0
  8 19  1  0
  9 20  1  0
 11 21  1  0
 13 22  1  0
 15 23  1  0
M  ISO  7  17  14  18  14  19  14  20  14  21  14  22  14  23  14
M  END
>  <minimizedAffinity>  (1) 
-4.4553647

>  <minimizedRMSD>  (1) 
5.14814138

$$$$
