
     RDKit          3D

 28 29  0  0  0  0  0  0  0  0999 V2000
   46.3620   34.4780   43.3640 C   0  0  0  0  0  0  0  0  0  0  0  0
   45.7370   34.1270   44.5860 C   0  0  0  0  0  0  0  0  0  0  0  0
   44.7790   34.9830   45.1810 C   0  0  0  0  0  0  0  0  0  0  0  0
   44.4980   36.1430   44.5210 N   0  0  0  0  0  0  0  0  0  0  0  0
   45.1070   36.4490   43.3660 C   0  0  0  0  0  0  0  0  0  0  0  0
   46.0080   35.6350   42.8140 N   0  0  0  0  0  0  0  0  0  0  0  0
   46.1300   32.9210   45.1980 N   0  0  0  0  0  0  0  0  0  0  0  0
   45.7700   31.6860   44.9070 C   0  0  0  0  0  0  0  0  0  0  0  0
   46.3660   30.8040   45.7360 N   0  0  0  0  0  0  0  0  0  0  0  0
   47.1420   31.5530   46.5940 C   0  0  0  0  0  0  0  0  0  0  0  0
   46.9790   32.8460   46.2430 N   0  0  0  0  0  0  0  0  0  0  0  0
   47.2920   33.7440   42.4810 C   0  0  0  0  0  0  0  0  0  0  0  0
   47.7540   34.6500   41.2900 C   0  0  0  0  0  0  0  0  0  0  0  0
   46.4910   32.6930   41.6490 C   0  0  0  0  0  0  0  0  0  0  0  0
   48.5370   33.2130   43.0590 C   0  0  0  0  0  0  0  0  0  0  0  0
   44.2853   34.7250   46.1295 H   0  0  0  0  0  0  0  0  0  0  0  0
   44.8574   37.3942   42.8617 H   0  0  0  0  0  0  0  0  0  0  0  0
   45.0773   31.4120   44.0976 H   0  0  0  0  0  0  0  0  0  0  0  0
   47.7736   31.1701   47.4092 H   0  0  0  0  0  0  0  0  0  0  0  0
   48.2204   35.5647   41.6846 H   0  0  0  0  0  0  0  0  0  0  0  0
   48.4831   34.1028   40.6744 H   0  0  0  0  0  0  0  0  0  0  0  0
   46.8829   34.9188   40.6744 H   0  0  0  0  0  0  0  0  0  0  0  0
   45.9680   32.0067   42.3313 H   0  0  0  0  0  0  0  0  0  0  0  0
   45.7561   33.2104   41.0148 H   0  0  0  0  0  0  0  0  0  0  0  0
   47.1847   32.1215   41.0148 H   0  0  0  0  0  0  0  0  0  0  0  0
   48.4725   33.2405   44.1568 H   0  0  0  0  0  0  0  0  0  0  0  0
   48.6821   32.1747   42.7261 H   0  0  0  0  0  0  0  0  0  0  0  0
   49.3869   33.8270   42.7261 H   0  0  0  0  0  0  0  0  0  0  0  0
  1  2  2  0
  2  3  1  0
  2  7  1  0
  4  3  2  0
  5  4  1  0
  6  1  1  0
  6  5  2  0
  7 11  1  0
  8  7  1  0
  8  9  2  0
  9 10  1  0
 11 10  2  0
 12 15  1  0
 12  1  1  0
 13 12  1  0
 14 12  1  0
  3 16  1  0
  5 17  1  0
  8 18  1  0
 10 19  1  0
 13 20  1  0
 13 21  1  0
 13 22  1  0
 14 23  1  0
 14 24  1  0
 14 25  1  0
 15 26  1  0
 15 27  1  0
 15 28  1  0
M  ISO  8  16  14  17  14  18  14  19  14  20   8  21   8  22   8  23   8
M  ISO  5  24   8  25   8  26   8  27   8  28   8
M  END
>  <minimizedAffinity>  (1) 
-4.12966585

>  <minimizedRMSD>  (1) 
5.05423355

$$$$
