
     RDKit          3D

 17 18  0  0  0  0  0  0  0  0999 V2000
   44.8960   34.3180   43.1560 C   0  0  0  0  0  0  0  0  0  0  0  0
   44.0610   33.5450   42.3130 C   0  0  0  0  0  0  0  0  0  0  0  0
   44.0920   32.1380   42.4480 C   0  0  0  0  0  0  0  0  0  0  0  0
   44.9130   31.5940   43.3720 N   0  0  0  0  0  0  0  0  0  0  0  0
   45.6990   32.3770   44.1650 C   0  0  0  0  0  0  0  0  0  0  0  0
   45.6780   33.7290   44.0440 N   0  0  0  0  0  0  0  0  0  0  0  0
   43.2420   34.2280   41.3910 N   0  0  0  0  0  0  0  0  0  0  0  0
   42.0200   34.8130   41.5680 C   0  0  0  0  0  0  0  0  0  0  0  0
   41.6110   35.3440   40.3970 N   0  0  0  0  0  0  0  0  0  0  0  0
   42.5990   35.0790   39.4850 C   0  0  0  0  0  0  0  0  0  0  0  0
   43.6020   34.3890   40.1080 N   0  0  0  0  0  0  0  0  0  0  0  0
   45.0630   36.0900   43.1670 S   0  0  0  0  0  0  0  0  0  0  0  0
   43.4602   31.4993   41.8133 H   0  0  0  0  0  0  0  0  0  0  0  0
   46.3573   31.9079   44.9110 H   0  0  0  0  0  0  0  0  0  0  0  0
   41.4593   34.8458   42.5138 H   0  0  0  0  0  0  0  0  0  0  0  0
   42.5872   35.3732   38.4251 H   0  0  0  0  0  0  0  0  0  0  0  0
   45.1051   36.5367   44.4614 H   0  0  0  0  0  0  0  0  0  0  0  0
  1 12  1  0
  1  6  2  0
  2  3  2  0
  2  1  1  0
  3  4  1  0
  4  5  2  0
  6  5  1  0
  7  8  1  0
  7  2  1  0
  9  8  2  0
 10 11  2  0
 10  9  1  0
 11  7  1  0
  3 13  1  0
  5 14  1  0
  8 15  1  0
 10 16  1  0
 12 17  1  0
M  ISO  5  13  14  14  14  15  14  16  14  17  11
M  END
>  <minimizedAffinity>  (1) 
-2.91210985

>  <minimizedRMSD>  (1) 
1.59665465

$$$$
