
     RDKit          3D

 17 18  0  0  0  0  0  0  0  0999 V2000
   44.6440   35.4810   42.8580 C   0  0  0  0  0  0  0  0  0  0  0  0
   43.9210   34.4510   42.2080 C   0  0  0  0  0  0  0  0  0  0  0  0
   44.2640   33.1170   42.4960 C   0  0  0  0  0  0  0  0  0  0  0  0
   45.2630   32.8810   43.3790 N   0  0  0  0  0  0  0  0  0  0  0  0
   45.9350   33.8980   43.9850 C   0  0  0  0  0  0  0  0  0  0  0  0
   45.6120   35.1860   43.7120 N   0  0  0  0  0  0  0  0  0  0  0  0
   42.9020   34.8430   41.3120 N   0  0  0  0  0  0  0  0  0  0  0  0
   41.6370   35.2590   41.5410 C   0  0  0  0  0  0  0  0  0  0  0  0
   41.0230   35.5260   40.3670 N   0  0  0  0  0  0  0  0  0  0  0  0
   41.9370   35.2660   39.3870 C   0  0  0  0  0  0  0  0  0  0  0  0
   43.0900   34.8460   39.9880 N   0  0  0  0  0  0  0  0  0  0  0  0
   44.4510   36.8360   42.7010 O   0  0  0  0  0  0  0  0  0  0  0  0
   43.7318   32.2836   42.0140 H   0  0  0  0  0  0  0  0  0  0  0  0
   46.7422   33.6741   44.6980 H   0  0  0  0  0  0  0  0  0  0  0  0
   41.1760   35.3645   42.5341 H   0  0  0  0  0  0  0  0  0  0  0  0
   41.7741   35.3753   38.3046 H   0  0  0  0  0  0  0  0  0  0  0  0
   43.7510   37.1682   42.0847 H   0  0  0  0  0  0  0  0  0  0  0  0
  1  6  2  0
  2  3  2  0
  2  1  1  0
  3  4  1  0
  4  5  2  0
  6  5  1  0
  7  8  1  0
  7  2  1  0
  9  8  2  0
 10 11  2  0
 10  9  1  0
 11  7  1  0
 12  1  1  0
  3 13  1  0
  5 14  1  0
  8 15  1  0
 10 16  1  0
 12 17  1  0
M  ISO  5  13  14  14  14  15  14  16  14  17   3
M  END
>  <minimizedAffinity>  (1) 
-3.47380829

>  <minimizedRMSD>  (1) 
1.60463727

$$$$
