
     RDKit          3D

 19 20  0  0  0  0  0  0  0  0999 V2000
   45.0720   34.8660   43.2710 C   0  0  0  0  0  0  0  0  0  0  0  0
   44.3210   33.9630   42.5210 C   0  0  0  0  0  0  0  0  0  0  0  0
   44.4570   32.5760   42.7710 C   0  0  0  0  0  0  0  0  0  0  0  0
   45.3240   32.1820   43.7450 N   0  0  0  0  0  0  0  0  0  0  0  0
   46.0440   33.0900   44.4620 C   0  0  0  0  0  0  0  0  0  0  0  0
   45.9080   34.4070   44.2170 N   0  0  0  0  0  0  0  0  0  0  0  0
   43.4360   34.4830   41.5430 N   0  0  0  0  0  0  0  0  0  0  0  0
   42.1990   35.0500   41.7090 C   0  0  0  0  0  0  0  0  0  0  0  0
   41.7130   35.4050   40.5050 N   0  0  0  0  0  0  0  0  0  0  0  0
   42.6670   35.0500   39.5860 C   0  0  0  0  0  0  0  0  0  0  0  0
   43.7350   34.4780   40.2320 N   0  0  0  0  0  0  0  0  0  0  0  0
   45.1000   36.3420   43.1470 C   0  0  0  0  0  0  0  0  0  0  0  0
   43.8792   31.8379   42.1953 H   0  0  0  0  0  0  0  0  0  0  0  0
   46.7381   32.7461   45.2430 H   0  0  0  0  0  0  0  0  0  0  0  0
   41.6859   35.1921   42.6716 H   0  0  0  0  0  0  0  0  0  0  0  0
   42.5887   35.2003   38.4991 H   0  0  0  0  0  0  0  0  0  0  0  0
   45.1086   36.7941   44.1498 H   0  0  0  0  0  0  0  0  0  0  0  0
   46.0041   36.6469   42.5996 H   0  0  0  0  0  0  0  0  0  0  0  0
   44.2081   36.6810   42.5996 H   0  0  0  0  0  0  0  0  0  0  0  0
  1  6  2  0
  2  3  2  0
  2  1  1  0
  3  4  1  0
  4  5  2  0
  6  5  1  0
  7  8  1  0
  7  2  1  0
  9  8  2  0
 10 11  2  0
 10  9  1  0
 11  7  1  0
 12  1  1  0
  3 13  1  0
  5 14  1  0
  8 15  1  0
 10 16  1  0
 12 17  1  0
 12 18  1  0
 12 19  1  0
M  ISO  7  13  14  14  14  15  14  16  14  17   8  18   8  19   8
M  END
>  <minimizedAffinity>  (1) 
-3.20860744

>  <minimizedRMSD>  (1) 
1.21289814

$$$$
