
     RDKit          3D

 30 32  0  0  0  0  0  0  0  0999 V2000
   46.9580   32.1710   46.3720 C   0  0  0  0  0  0  0  0  0  0  0  0
   46.3220   30.9070   46.6380 N   0  0  0  0  0  0  0  0  0  0  0  0
   45.2300   30.3360   46.1540 N   0  0  0  0  0  0  0  0  0  0  0  0
   45.0140   29.1470   46.7000 C   0  0  0  0  0  0  0  0  0  0  0  0
   46.0290   28.9290   47.5960 C   0  0  0  0  0  0  0  0  0  0  0  0
   46.8420   30.0280   47.5530 C   0  0  0  0  0  0  0  0  0  0  0  0
   48.0200   30.2060   48.3360 N   0  0  0  0  0  0  0  0  0  0  0  0
   48.2110   30.8710   49.4650 N   0  0  0  0  0  0  0  0  0  0  0  0
   49.4690   30.8010   49.8880 C   0  0  0  0  0  0  0  0  0  0  0  0
   50.1850   30.0250   48.9720 C   0  0  0  0  0  0  0  0  0  0  0  0
   49.2170   29.6950   48.0400 C   0  0  0  0  0  0  0  0  0  0  0  0
   46.8880   32.6070   44.9280 C   0  0  0  0  0  0  0  0  0  0  0  0
   46.0810   33.8000   44.7490 C   0  0  0  0  0  0  0  0  0  0  0  0
   46.2020   34.4120   43.5060 C   0  0  0  0  0  0  0  0  0  0  0  0
   45.4950   35.5670   43.1620 C   0  0  0  0  0  0  0  0  0  0  0  0
   44.6770   36.0560   44.1240 N   0  0  0  0  0  0  0  0  0  0  0  0
   44.5650   35.4540   45.3310 C   0  0  0  0  0  0  0  0  0  0  0  0
   45.2600   34.3530   45.6140 N   0  0  0  0  0  0  0  0  0  0  0  0
   46.4692   32.9397   46.9886 H   0  0  0  0  0  0  0  0  0  0  0  0
   48.0239   32.0457   46.6132 H   0  0  0  0  0  0  0  0  0  0  0  0
   44.1798   28.4656   46.4768 H   0  0  0  0  0  0  0  0  0  0  0  0
   46.1637   28.0395   48.2289 H   0  0  0  0  0  0  0  0  0  0  0  0
   49.8744   31.2700   50.7967 H   0  0  0  0  0  0  0  0  0  0  0  0
   51.2492   29.7469   48.9880 H   0  0  0  0  0  0  0  0  0  0  0  0
   49.4129   29.0779   47.1507 H   0  0  0  0  0  0  0  0  0  0  0  0
   47.9079   32.8136   44.5715 H   0  0  0  0  0  0  0  0  0  0  0  0
   46.4176   31.7946   44.3547 H   0  0  0  0  0  0  0  0  0  0  0  0
   46.8819   33.9687   42.7635 H   0  0  0  0  0  0  0  0  0  0  0  0
   45.5960   36.0463   42.1771 H   0  0  0  0  0  0  0  0  0  0  0  0
   43.8908   35.8796   46.0889 H   0  0  0  0  0  0  0  0  0  0  0  0
  1  2  1  0
  2  6  1  0
  3  2  1  0
  3  4  2  0
  4  5  1  0
  6  5  2  0
  6  7  1  0
  7  8  1  0
  8  9  2  0
 10  9  1  0
 11  7  1  0
 11 10  2  0
 12  1  1  0
 13 12  1  0
 13 18  1  0
 14 13  2  0
 15 14  1  0
 15 16  2  0
 16 17  1  0
 17 18  2  0
  1 19  1  0
  1 20  1  0
  4 21  1  0
  5 22  1  0
  9 23  1  0
 10 24  1  0
 11 25  1  0
 12 26  1  0
 12 27  1  0
 14 28  1  0
 15 29  1  0
 17 30  1  0
M  ISO  8  19   8  20   8  21  14  22  14  23  14  24  14  25  14  26   8
M  ISO  4  27   8  28  14  29  14  30  14
M  END
>  <minimizedAffinity>  (1) 
-4.47509003

>  <minimizedRMSD>  (1) 
3.11086917

$$$$
