
     RDKit          3D

 36 39  0  0  0  0  0  0  0  0999 V2000
   48.8580   35.2740   41.3400 C   0  0  0  0  0  0  0  0  0  0  0  0
   47.4710   34.7950   41.1230 C   0  0  0  0  0  0  0  0  0  0  0  0
   46.9790   34.0170   40.0660 C   0  0  0  0  0  0  0  0  0  0  0  0
   45.6150   33.6650   40.0420 C   0  0  0  0  0  0  0  0  0  0  0  0
   44.8290   34.0990   41.0520 N   0  0  0  0  0  0  0  0  0  0  0  0
   45.3200   34.8430   42.0540 C   0  0  0  0  0  0  0  0  0  0  0  0
   46.6090   35.1660   42.0600 N   0  0  0  0  0  0  0  0  0  0  0  0
   47.8640   33.6040   39.0490 N   0  0  0  0  0  0  0  0  0  0  0  0
   48.2140   34.2460   37.9240 C   0  0  0  0  0  0  0  0  0  0  0  0
   49.0870   33.5110   37.2130 N   0  0  0  0  0  0  0  0  0  0  0  0
   49.2940   32.3650   37.9140 C   0  0  0  0  0  0  0  0  0  0  0  0
   48.5290   32.4490   39.0390 N   0  0  0  0  0  0  0  0  0  0  0  0
   49.3980   34.7490   42.6650 C   0  0  0  0  0  0  0  0  0  0  0  0
   49.1700   33.3070   42.8240 C   0  0  0  0  0  0  0  0  0  0  0  0
   48.1010   32.8720   43.5590 N   0  0  0  0  0  0  0  0  0  0  0  0
   47.8180   31.5690   43.7330 C   0  0  0  0  0  0  0  0  0  0  0  0
   48.5630   30.5950   43.2010 N   0  0  0  0  0  0  0  0  0  0  0  0
   49.6260   30.9500   42.4720 C   0  0  0  0  0  0  0  0  0  0  0  0
   50.3950   29.9530   41.9280 C   0  0  0  0  0  0  0  0  0  0  0  0
   51.5010   30.3220   41.1770 C   0  0  0  0  0  0  0  0  0  0  0  0
   51.8030   31.6490   40.9890 C   0  0  0  0  0  0  0  0  0  0  0  0
   51.0180   32.6420   41.5430 C   0  0  0  0  0  0  0  0  0  0  0  0
   49.9210   32.2830   42.2880 C   0  0  0  0  0  0  0  0  0  0  0  0
   48.8637   36.3739   41.3562 H   0  0  0  0  0  0  0  0  0  0  0  0
   49.4956   34.9057   40.5228 H   0  0  0  0  0  0  0  0  0  0  0  0
   45.2020   33.0549   39.2252 H   0  0  0  0  0  0  0  0  0  0  0  0
   44.6601   35.1836   42.8655 H   0  0  0  0  0  0  0  0  0  0  0  0
   47.8389   35.2359   37.6250 H   0  0  0  0  0  0  0  0  0  0  0  0
   49.9518   31.5309   37.6285 H   0  0  0  0  0  0  0  0  0  0  0  0
   50.4797   34.9437   42.7089 H   0  0  0  0  0  0  0  0  0  0  0  0
   48.8651   35.2669   43.4761 H   0  0  0  0  0  0  0  0  0  0  0  0
   46.9400   31.2942   44.3361 H   0  0  0  0  0  0  0  0  0  0  0  0
   50.1423   28.8936   42.0826 H   0  0  0  0  0  0  0  0  0  0  0  0
   52.1405   29.5472   40.7290 H   0  0  0  0  0  0  0  0  0  0  0  0
   52.6825   31.9250   40.3887 H   0  0  0  0  0  0  0  0  0  0  0  0
   51.2673   33.7024   41.3901 H   0  0  0  0  0  0  0  0  0  0  0  0
  1 13  1  0
  2  1  1  0
  2  7  2  0
  3  2  1  0
  4  3  2  0
  4  5  1  0
  5  6  2  0
  6  7  1  0
  8  3  1  0
  9  8  1  0
 10 11  1  0
 10  9  2  0
 11 12  2  0
 12  8  1  0
 13 14  1  0
 14 15  2  0
 15 16  1  0
 17 16  2  0
 18 17  1  0
 19 18  2  0
 20 19  1  0
 21 20  2  0
 21 22  1  0
 22 23  2  0
 23 18  1  0
 23 14  1  0
  1 24  1  0
  1 25  1  0
  4 26  1  0
  6 27  1  0
  9 28  1  0
 11 29  1  0
 13 30  1  0
 13 31  1  0
 16 32  1  0
 19 33  1  0
 20 34  1  0
 21 35  1  0
 22 36  1  0
M  ISO  8  24   8  25   8  26  14  27  14  28  14  29  14  30   8  31   8
M  ISO  5  32  14  33  14  34  14  35  14  36  14
M  END
>  <minimizedAffinity>  (1) 
-4.75815201

>  <minimizedRMSD>  (1) 
1.02790058

$$$$
