
     RDKit          3D

 23 24  0  0  0  0  0  0  0  0999 V2000
   47.6970   34.8940   41.1630 C   0  0  0  0  0  0  0  0  0  0  0  0
   47.1780   34.0760   40.1560 C   0  0  0  0  0  0  0  0  0  0  0  0
   45.8290   33.6250   40.2400 C   0  0  0  0  0  0  0  0  0  0  0  0
   45.1050   34.0210   41.3150 N   0  0  0  0  0  0  0  0  0  0  0  0
   45.6360   34.8130   42.2750 C   0  0  0  0  0  0  0  0  0  0  0  0
   46.8970   35.2190   42.1680 N   0  0  0  0  0  0  0  0  0  0  0  0
   47.9950   33.7100   39.0720 N   0  0  0  0  0  0  0  0  0  0  0  0
   48.2040   34.3690   37.9180 C   0  0  0  0  0  0  0  0  0  0  0  0
   49.0580   33.6920   37.1290 N   0  0  0  0  0  0  0  0  0  0  0  0
   49.3950   32.5570   37.8290 C   0  0  0  0  0  0  0  0  0  0  0  0
   48.7280   32.5960   39.0180 N   0  0  0  0  0  0  0  0  0  0  0  0
   49.0490   35.4610   41.2650 C   0  0  0  0  0  0  0  0  0  0  0  0
   49.7360   35.0030   42.5630 C   0  0  0  0  0  0  0  0  0  0  0  0
   50.4730   33.3630   42.2670 S   0  0  0  0  0  0  0  0  0  0  0  0
   45.3923   32.9806   39.4627 H   0  0  0  0  0  0  0  0  0  0  0  0
   45.0276   35.1190   43.1389 H   0  0  0  0  0  0  0  0  0  0  0  0
   47.7397   35.3309   37.6551 H   0  0  0  0  0  0  0  0  0  0  0  0
   50.0776   31.7631   37.4916 H   0  0  0  0  0  0  0  0  0  0  0  0
   49.6461   35.1272   40.4036 H   0  0  0  0  0  0  0  0  0  0  0  0
   48.9718   36.5582   41.2747 H   0  0  0  0  0  0  0  0  0  0  0  0
   50.5223   35.7201   42.8415 H   0  0  0  0  0  0  0  0  0  0  0  0
   49.0041   34.9490   43.3824 H   0  0  0  0  0  0  0  0  0  0  0  0
   50.7437   32.7606   43.4673 H   0  0  0  0  0  0  0  0  0  0  0  0
  1 12  1  0
  1  6  2  0
  2  3  2  0
  2  1  1  0
  3  4  1  0
  4  5  2  0
  6  5  1  0
  7  2  1  0
  8  7  1  0
  9 10  1  0
  9  8  2  0
 10 11  2  0
 11  7  1  0
 12 13  1  0
 14 13  1  0
  3 15  1  0
  5 16  1  0
  8 17  1  0
 10 18  1  0
 12 19  1  0
 12 20  1  0
 13 21  1  0
 13 22  1  0
 14 23  1  0
M  ISO  8  15  14  16  14  17  14  18  14  19   8  20   8  21   8  22   8
M  ISO  1  23  11
M  END
>  <minimizedAffinity>  (1) 
-3.84529948

>  <minimizedRMSD>  (1) 
0.165350422

$$$$
