
     RDKit          3D

 27 29  0  0  0  0  0  0  0  0999 V2000
   46.6050   33.8910   40.0620 C   0  0  0  0  0  0  0  0  0  0  0  0
   45.8280   34.3290   41.1220 C   0  0  0  0  0  0  0  0  0  0  0  0
   46.4400   34.9970   42.2030 C   0  0  0  0  0  0  0  0  0  0  0  0
   47.7790   35.1890   42.1690 N   0  0  0  0  0  0  0  0  0  0  0  0
   48.5140   34.7570   41.1330 C   0  0  0  0  0  0  0  0  0  0  0  0
   47.9140   34.1200   40.1070 N   0  0  0  0  0  0  0  0  0  0  0  0
   44.4410   34.0950   41.0910 N   0  0  0  0  0  0  0  0  0  0  0  0
   43.4700   34.9190   40.6610 C   0  0  0  0  0  0  0  0  0  0  0  0
   42.2660   34.3120   40.8010 N   0  0  0  0  0  0  0  0  0  0  0  0
   42.4930   33.0800   41.3330 C   0  0  0  0  0  0  0  0  0  0  0  0
   43.8350   32.9770   41.4990 N   0  0  0  0  0  0  0  0  0  0  0  0
   46.2080   33.1790   38.8330 C   0  0  0  0  0  0  0  0  0  0  0  0
   47.1190   31.9670   38.5670 C   0  0  0  0  0  0  0  0  0  0  0  0
   47.5960   32.0760   37.1630 C   0  0  0  0  0  0  0  0  0  0  0  0
   47.3910   31.2050   36.1550 N   0  0  0  0  0  0  0  0  0  0  0  0
   47.9610   31.6400   35.0700 O   0  0  0  0  0  0  0  0  0  0  0  0
   48.5610   32.7990   35.3010 C   0  0  0  0  0  0  0  0  0  0  0  0
   48.3360   33.0730   36.5970 N   0  0  0  0  0  0  0  0  0  0  0  0
   45.8422   35.3539   43.0546 H   0  0  0  0  0  0  0  0  0  0  0  0
   49.6015   34.9218   41.1206 H   0  0  0  0  0  0  0  0  0  0  0  0
   43.6280   35.9301   40.2576 H   0  0  0  0  0  0  0  0  0  0  0  0
   41.7379   32.3190   41.5794 H   0  0  0  0  0  0  0  0  0  0  0  0
   45.1704   32.8300   38.9409 H   0  0  0  0  0  0  0  0  0  0  0  0
   46.2999   33.8739   37.9853 H   0  0  0  0  0  0  0  0  0  0  0  0
   47.9748   31.9798   39.2580 H   0  0  0  0  0  0  0  0  0  0  0  0
   46.5717   31.0254   38.7217 H   0  0  0  0  0  0  0  0  0  0  0  0
   49.1258   33.4097   34.5813 H   0  0  0  0  0  0  0  0  0  0  0  0
  1  6  2  0
  1  2  1  0
  2  3  2  0
  4  3  1  0
  5  4  2  0
  6  5  1  0
  7  2  1  0
  7 11  1  0
  8  9  2  0
  8  7  1  0
  9 10  1  0
 10 11  2  0
 12  1  1  0
 13 12  1  0
 14 13  1  0
 15 14  2  0
 16 17  1  0
 16 15  1  0
 17 18  2  0
 18 14  1  0
  3 19  1  0
  5 20  1  0
  8 21  1  0
 10 22  1  0
 12 23  1  0
 12 24  1  0
 13 25  1  0
 13 26  1  0
 17 27  1  0
M  ISO  8  19  14  20  14  21  14  22  14  23   8  24   8  25   8  26   8
M  ISO  1  27  14
M  END
>  <minimizedAffinity>  (1) 
-3.59095168

>  <minimizedRMSD>  (1) 
6.10898829

$$$$
