
     RDKit          3D

 35 37  0  0  1  0  0  0  0  0999 V2000
   47.6770   34.8290   41.0860 C   0  0  0  0  0  0  0  0  0  0  0  0
   47.0890   34.0510   40.0720 C   0  0  0  0  0  0  0  0  0  0  0  0
   45.7360   33.6650   40.2020 C   0  0  0  0  0  0  0  0  0  0  0  0
   45.0590   34.0610   41.2970 N   0  0  0  0  0  0  0  0  0  0  0  0
   45.6470   34.8070   42.2570 C   0  0  0  0  0  0  0  0  0  0  0  0
   46.9220   35.1650   42.1230 N   0  0  0  0  0  0  0  0  0  0  0  0
   47.8530   33.6760   38.9600 N   0  0  0  0  0  0  0  0  0  0  0  0
   48.2420   34.4150   37.9110 C   0  0  0  0  0  0  0  0  0  0  0  0
   48.9680   33.7030   37.0390 N   0  0  0  0  0  0  0  0  0  0  0  0
   49.0390   32.4310   37.5830 C   0  0  0  0  0  0  0  0  0  0  0  0
   48.3490   32.4510   38.7530 N   0  0  0  0  0  0  0  0  0  0  0  0
   49.0580   35.3350   41.1550 C   0  0  0  0  0  0  0  0  0  0  0  0
   49.7270   34.8880   42.4790 C   0  0  0  0  0  0  0  0  0  0  0  0
   49.5070   33.0950   42.6500 S   0  0  0  0  0  0  0  0  0  0  0  0
   51.8280   32.5030   41.3910 N   0  0  0  0  0  0  0  0  0  0  0  0
   52.3070   31.6610   40.3130 C   0  0  0  0  0  0  0  0  0  0  0  0
   51.4380   30.4270   40.4190 C   0  0  0  0  0  0  0  0  0  0  0  0
   50.3000   30.7960   41.3470 C   0  0  0  0  0  0  0  0  0  0  0  0
   50.3960   32.3010   41.2980 C   0  0  1  0  0  0  0  0  0  0  0  0
   45.2473   33.0557   39.4275 H   0  0  0  0  0  0  0  0  0  0  0  0
   45.0757   35.1169   43.1444 H   0  0  0  0  0  0  0  0  0  0  0  0
   47.9945   35.4790   37.7819 H   0  0  0  0  0  0  0  0  0  0  0  0
   49.5584   31.5645   37.1478 H   0  0  0  0  0  0  0  0  0  0  0  0
   49.6331   34.9381   40.3054 H   0  0  0  0  0  0  0  0  0  0  0  0
   49.0395   36.4341   41.1158 H   0  0  0  0  0  0  0  0  0  0  0  0
   50.7996   35.1307   42.4544 H   0  0  0  0  0  0  0  0  0  0  0  0
   49.2674   35.4097   43.3314 H   0  0  0  0  0  0  0  0  0  0  0  0
   52.1937   32.1924   42.3024 H   0  0  0  0  0  0  0  0  0  0  0  0
   53.3684   31.4082   40.4530 H   0  0  0  0  0  0  0  0  0  0  0  0
   52.2442   32.1471   39.3282 H   0  0  0  0  0  0  0  0  0  0  0  0
   51.0485   30.1477   39.4289 H   0  0  0  0  0  0  0  0  0  0  0  0
   52.0061   29.5659   40.8009 H   0  0  0  0  0  0  0  0  0  0  0  0
   49.3319   30.4366   40.9681 H   0  0  0  0  0  0  0  0  0  0  0  0
   50.3661   30.3611   42.3552 H   0  0  0  0  0  0  0  0  0  0  0  0
   49.9389   32.7435   40.4006 H   0  0  0  0  0  0  0  0  0  0  0  0
  1 12  1  0
  1  6  2  0
  2  3  2  0
  2  1  1  0
  3  4  1  0
  4  5  2  0
  6  5  1  0
  7  2  1  0
  8  7  1  0
  9 10  1  0
  9  8  2  0
 10 11  2  0
 11  7  1  0
 12 13  1  0
 13 14  1  0
 16 17  1  0
 16 15  1  0
 17 18  1  0
 19 18  1  0
 19 15  1  0
 19 14  1  0
  3 20  1  0
  5 21  1  0
  8 22  1  0
 10 23  1  0
 12 24  1  0
 12 25  1  0
 13 26  1  0
 13 27  1  0
 15 28  1  0
 16 29  1  0
 16 30  1  0
 17 31  1  0
 17 32  1  0
 18 33  1  0
 18 34  1  0
 19 35  1  6
M  ISO  8  20  14  21  14  22  14  23  14  24   8  25   8  26   8  27   8
M  ISO  8  28   5  29  13  30  13  31  13  32  13  33  13  34  13  35  13
M  END
>  <minimizedAffinity>  (1) 
-4.27591324

>  <minimizedRMSD>  (1) 
1.24532747

$$$$
