
     RDKit          3D

 30 32  0  0  0  0  0  0  0  0999 V2000
   46.8430   32.7190   46.4520 C   0  0  0  0  0  0  0  0  0  0  0  0
   46.2170   32.0730   47.5640 N   0  0  0  0  0  0  0  0  0  0  0  0
   45.5670   32.4990   48.6350 N   0  0  0  0  0  0  0  0  0  0  0  0
   45.1690   31.4920   49.4010 C   0  0  0  0  0  0  0  0  0  0  0  0
   45.5760   30.3260   48.8060 C   0  0  0  0  0  0  0  0  0  0  0  0
   46.2230   30.7190   47.6680 C   0  0  0  0  0  0  0  0  0  0  0  0
   46.8230   29.7040   46.7290 C   0  0  0  0  0  0  0  0  0  0  0  0
   48.3250   29.6070   46.6710 C   0  0  0  0  0  0  0  0  0  0  0  0
   47.5890   28.5400   47.3950 C   0  0  0  0  0  0  0  0  0  0  0  0
   46.0170   32.6570   45.1790 C   0  0  0  0  0  0  0  0  0  0  0  0
   45.6160   33.9710   44.7080 C   0  0  0  0  0  0  0  0  0  0  0  0
   46.0860   34.3140   43.4470 C   0  0  0  0  0  0  0  0  0  0  0  0
   45.7670   35.5520   42.8830 C   0  0  0  0  0  0  0  0  0  0  0  0
   44.9820   36.3920   43.6230 N   0  0  0  0  0  0  0  0  0  0  0  0
   44.5400   36.0290   44.8460 C   0  0  0  0  0  0  0  0  0  0  0  0
   44.8650   34.8380   45.3560 N   0  0  0  0  0  0  0  0  0  0  0  0
   47.0086   33.7755   46.7098 H   0  0  0  0  0  0  0  0  0  0  0  0
   47.7860   32.1880   46.2550 H   0  0  0  0  0  0  0  0  0  0  0  0
   44.6116   31.5773   50.3455 H   0  0  0  0  0  0  0  0  0  0  0  0
   45.4167   29.2988   49.1657 H   0  0  0  0  0  0  0  0  0  0  0  0
   46.0203   29.8101   45.9845 H   0  0  0  0  0  0  0  0  0  0  0  0
   48.8186   29.3751   45.7157 H   0  0  0  0  0  0  0  0  0  0  0  0
   49.1463   30.2874   46.9403 H   0  0  0  0  0  0  0  0  0  0  0  0
   47.6491   28.4757   48.4915 H   0  0  0  0  0  0  0  0  0  0  0  0
   47.5468   27.4425   47.3345 H   0  0  0  0  0  0  0  0  0  0  0  0
   46.6146   32.1691   44.3949 H   0  0  0  0  0  0  0  0  0  0  0  0
   45.1014   32.0902   45.4036 H   0  0  0  0  0  0  0  0  0  0  0  0
   46.7145   33.6054   42.8877 H   0  0  0  0  0  0  0  0  0  0  0  0
   46.1320   35.8387   41.8857 H   0  0  0  0  0  0  0  0  0  0  0  0
   43.9085   36.7182   45.4259 H   0  0  0  0  0  0  0  0  0  0  0  0
  1  2  1  0
  2  6  1  0
  2  3  1  0
  3  4  2  0
  5  4  1  0
  6  5  2  0
  7  9  1  0
  7  6  1  0
  8  7  1  0
  8  9  1  0
 10  1  1  0
 11 10  1  0
 11 16  1  0
 12 11  2  0
 13 12  1  0
 13 14  2  0
 14 15  1  0
 15 16  2  0
  1 17  1  0
  1 18  1  0
  4 19  1  0
  5 20  1  0
  7 21  1  0
  8 22  1  0
  8 23  1  0
  9 24  1  0
  9 25  1  0
 10 26  1  0
 10 27  1  0
 12 28  1  0
 13 29  1  0
 15 30  1  0
M  ISO  8  17   8  18   8  19  14  20  14  21  13  22  13  23  13  24  13
M  ISO  6  25  13  26   8  27   8  28  14  29  14  30  14
M  END
>  <minimizedAffinity>  (1) 
-4.38780451

>  <minimizedRMSD>  (1) 
2.79752707

$$$$
