
     RDKit          3D

 39 42  0  0  0  0  0  0  0  0999 V2000
   48.8790   35.2580   41.2310 C   0  0  0  0  0  0  0  0  0  0  0  0
   47.5270   34.7230   41.0350 C   0  0  0  0  0  0  0  0  0  0  0  0
   47.0450   33.9700   39.9590 C   0  0  0  0  0  0  0  0  0  0  0  0
   45.6930   33.5400   39.9500 C   0  0  0  0  0  0  0  0  0  0  0  0
   44.9220   33.8930   41.0120 N   0  0  0  0  0  0  0  0  0  0  0  0
   45.4200   34.6230   42.0400 C   0  0  0  0  0  0  0  0  0  0  0  0
   46.6980   35.0110   42.0150 N   0  0  0  0  0  0  0  0  0  0  0  0
   47.9080   33.6470   38.8970 N   0  0  0  0  0  0  0  0  0  0  0  0
   48.2020   34.3620   37.7980 C   0  0  0  0  0  0  0  0  0  0  0  0
   49.0770   33.7130   37.0140 N   0  0  0  0  0  0  0  0  0  0  0  0
   49.3410   32.5330   37.6560 C   0  0  0  0  0  0  0  0  0  0  0  0
   48.6140   32.5090   38.8130 N   0  0  0  0  0  0  0  0  0  0  0  0
   49.4050   34.9470   42.6310 C   0  0  0  0  0  0  0  0  0  0  0  0
   50.7850   33.7490   42.4770 S   0  0  0  0  0  0  0  0  0  0  0  0
   49.9930   32.1670   42.1560 C   0  0  0  0  0  0  0  0  0  0  0  0
   48.8070   31.7370   42.7400 C   0  0  0  0  0  0  0  0  0  0  0  0
   48.3090   30.4960   42.4020 C   0  0  0  0  0  0  0  0  0  0  0  0
   49.0070   29.7130   41.4920 C   0  0  0  0  0  0  0  0  0  0  0  0
   50.1840   30.1220   40.9030 C   0  0  0  0  0  0  0  0  0  0  0  0
   50.8150   29.2820   40.0070 C   0  0  0  0  0  0  0  0  0  0  0  0
   51.9970   29.6840   39.4120 C   0  0  0  0  0  0  0  0  0  0  0  0
   52.5160   30.9320   39.7390 C   0  0  0  0  0  0  0  0  0  0  0  0
   51.8610   31.7490   40.6380 C   0  0  0  0  0  0  0  0  0  0  0  0
   50.6680   31.3680   41.2520 C   0  0  0  0  0  0  0  0  0  0  0  0
   48.8557   36.3489   41.0918 H   0  0  0  0  0  0  0  0  0  0  0  0
   49.5479   34.7846   40.4972 H   0  0  0  0  0  0  0  0  0  0  0  0
   45.2860   32.9459   39.1185 H   0  0  0  0  0  0  0  0  0  0  0  0
   44.7758   34.8941   42.8894 H   0  0  0  0  0  0  0  0  0  0  0  0
   47.7799   35.3519   37.5701 H   0  0  0  0  0  0  0  0  0  0  0  0
   50.0195   31.7426   37.3025 H   0  0  0  0  0  0  0  0  0  0  0  0
   49.7663   35.8710   43.1060 H   0  0  0  0  0  0  0  0  0  0  0  0
   48.6021   34.5215   43.2509 H   0  0  0  0  0  0  0  0  0  0  0  0
   48.2745   32.3760   43.4598 H   0  0  0  0  0  0  0  0  0  0  0  0
   47.3716   30.1314   42.8473 H   0  0  0  0  0  0  0  0  0  0  0  0
   48.6032   28.7239   41.2300 H   0  0  0  0  0  0  0  0  0  0  0  0
   50.3806   28.3000   39.7681 H   0  0  0  0  0  0  0  0  0  0  0  0
   52.5156   29.0303   38.6952 H   0  0  0  0  0  0  0  0  0  0  0  0
   53.4555   31.2705   39.2777 H   0  0  0  0  0  0  0  0  0  0  0  0
   52.2934   32.7316   40.8779 H   0  0  0  0  0  0  0  0  0  0  0  0
  1 13  1  0
  2  1  1  0
  2  7  2  0
  3  2  1  0
  4  3  2  0
  4  5  1  0
  5  6  2  0
  7  6  1  0
  8  3  1  0
  9  8  1  0
 10 11  1  0
 10  9  2  0
 11 12  2  0
 12  8  1  0
 14 13  1  0
 15 14  1  0
 15 16  2  0
 17 16  1  0
 18 17  2  0
 19 24  2  0
 19 18  1  0
 20 19  1  0
 21 22  1  0
 21 20  2  0
 22 23  2  0
 23 24  1  0
 24 15  1  0
  1 25  1  0
  1 26  1  0
  4 27  1  0
  6 28  1  0
  9 29  1  0
 11 30  1  0
 13 31  1  0
 13 32  1  0
 16 33  1  0
 17 34  1  0
 18 35  1  0
 20 36  1  0
 21 37  1  0
 22 38  1  0
 23 39  1  0
M  ISO  8  25   8  26   8  27  14  28  14  29  14  30  14  31   8  32   8
M  ISO  7  33  14  34  14  35  14  36  14  37  14  38  14  39  14
M  END
>  <minimizedAffinity>  (1) 
-4.39370728

>  <minimizedRMSD>  (1) 
3.34793711

$$$$
