
     RDKit          3D

 31 33  0  0  0  0  0  0  0  0999 V2000
   47.6680   34.8630   41.1820 C   0  0  0  0  0  0  0  0  0  0  0  0
   47.1590   34.0830   40.1360 C   0  0  0  0  0  0  0  0  0  0  0  0
   45.7830   33.6820   40.1930 C   0  0  0  0  0  0  0  0  0  0  0  0
   45.0480   34.0770   41.2550 N   0  0  0  0  0  0  0  0  0  0  0  0
   45.5860   34.8300   42.2420 C   0  0  0  0  0  0  0  0  0  0  0  0
   46.8550   35.1920   42.1750 N   0  0  0  0  0  0  0  0  0  0  0  0
   47.9790   33.7110   39.0660 N   0  0  0  0  0  0  0  0  0  0  0  0
   48.2260   34.3630   37.9260 C   0  0  0  0  0  0  0  0  0  0  0  0
   49.0750   33.6700   37.1480 N   0  0  0  0  0  0  0  0  0  0  0  0
   49.3720   32.5230   37.8460 C   0  0  0  0  0  0  0  0  0  0  0  0
   48.6860   32.5730   39.0210 N   0  0  0  0  0  0  0  0  0  0  0  0
   49.0340   35.3780   41.3220 C   0  0  0  0  0  0  0  0  0  0  0  0
   49.6830   34.8820   42.6220 C   0  0  0  0  0  0  0  0  0  0  0  0
   50.6040   33.3510   42.2540 S   0  0  0  0  0  0  0  0  0  0  0  0
   49.4820   31.9810   42.4860 C   0  0  0  0  0  0  0  0  0  0  0  0
   48.3240   32.0870   43.2350 C   0  0  0  0  0  0  0  0  0  0  0  0
   47.5500   30.9500   43.3310 C   0  0  0  0  0  0  0  0  0  0  0  0
   47.8890   29.7890   42.7340 N   0  0  0  0  0  0  0  0  0  0  0  0
   49.0260   29.7190   42.0100 C   0  0  0  0  0  0  0  0  0  0  0  0
   49.8050   30.8140   41.8960 N   0  0  0  0  0  0  0  0  0  0  0  0
   45.3389   33.0699   39.3942 H   0  0  0  0  0  0  0  0  0  0  0  0
   44.9686   35.1400   43.0980 H   0  0  0  0  0  0  0  0  0  0  0  0
   47.7919   35.3380   37.6596 H   0  0  0  0  0  0  0  0  0  0  0  0
   50.0405   31.7142   37.5159 H   0  0  0  0  0  0  0  0  0  0  0  0
   49.6359   35.0361   40.4671 H   0  0  0  0  0  0  0  0  0  0  0  0
   48.9911   36.4768   41.3509 H   0  0  0  0  0  0  0  0  0  0  0  0
   50.3723   35.6469   43.0091 H   0  0  0  0  0  0  0  0  0  0  0  0
   48.9109   34.6869   43.3808 H   0  0  0  0  0  0  0  0  0  0  0  0
   48.0361   33.0276   43.7274 H   0  0  0  0  0  0  0  0  0  0  0  0
   46.6201   30.9913   43.9171 H   0  0  0  0  0  0  0  0  0  0  0  0
   49.3143   28.7784   41.5179 H   0  0  0  0  0  0  0  0  0  0  0  0
  1 12  1  0
  1  6  2  0
  2  3  2  0
  2  1  1  0
  3  4  1  0
  4  5  2  0
  6  5  1  0
  7  2  1  0
  8  7  1  0
  9 10  1  0
  9  8  2  0
 10 11  2  0
 11  7  1  0
 12 13  1  0
 14 15  1  0
 14 13  1  0
 15 16  2  0
 16 17  1  0
 18 17  2  0
 19 18  1  0
 20 19  2  0
 20 15  1  0
  3 21  1  0
  5 22  1  0
  8 23  1  0
 10 24  1  0
 12 25  1  0
 12 26  1  0
 13 27  1  0
 13 28  1  0
 16 29  1  0
 17 30  1  0
 19 31  1  0
M  ISO  8  21  14  22  14  23  14  24  14  25   8  26   8  27   8  28   8
M  ISO  3  29  14  30  14  31  14
M  END
>  <minimizedAffinity>  (1) 
-4.04237318

>  <minimizedRMSD>  (1) 
2.62528253

$$$$
