
     RDKit          3D

 29 31  0  0  0  0  0  0  0  0999 V2000
   47.6870   34.9170   41.1530 C   0  0  0  0  0  0  0  0  0  0  0  0
   47.1670   34.0820   40.1500 C   0  0  0  0  0  0  0  0  0  0  0  0
   45.8240   33.6280   40.2420 C   0  0  0  0  0  0  0  0  0  0  0  0
   45.1110   34.0380   41.3170 N   0  0  0  0  0  0  0  0  0  0  0  0
   45.6250   34.8370   42.2690 C   0  0  0  0  0  0  0  0  0  0  0  0
   46.8790   35.2400   42.1480 N   0  0  0  0  0  0  0  0  0  0  0  0
   47.9880   33.7120   39.0720 N   0  0  0  0  0  0  0  0  0  0  0  0
   48.2060   34.3710   37.9180 C   0  0  0  0  0  0  0  0  0  0  0  0
   49.0680   33.6780   37.1360 N   0  0  0  0  0  0  0  0  0  0  0  0
   49.3940   32.5470   37.8380 C   0  0  0  0  0  0  0  0  0  0  0  0
   48.7170   32.6030   39.0130 N   0  0  0  0  0  0  0  0  0  0  0  0
   49.0420   35.4940   41.2490 C   0  0  0  0  0  0  0  0  0  0  0  0
   49.7230   35.0150   42.5550 C   0  0  0  0  0  0  0  0  0  0  0  0
   50.4740   33.3940   42.2570 S   0  0  0  0  0  0  0  0  0  0  0  0
   49.2960   32.0620   42.5820 C   0  0  0  0  0  0  0  0  0  0  0  0
   49.4810   30.7370   42.0820 C   0  0  0  0  0  0  0  0  0  0  0  0
   48.0100   29.8820   42.7240 S   0  0  0  0  0  0  0  0  0  0  0  0
   47.3850   31.4860   43.5720 C   0  0  0  0  0  0  0  0  0  0  0  0
   48.2080   32.2780   43.3040 N   0  0  0  0  0  0  0  0  0  0  0  0
   45.3839   32.9736   39.4751 H   0  0  0  0  0  0  0  0  0  0  0  0
   45.0155   35.1487   43.1300 H   0  0  0  0  0  0  0  0  0  0  0  0
   47.7492   35.3347   37.6488 H   0  0  0  0  0  0  0  0  0  0  0  0
   50.0744   31.7467   37.5115 H   0  0  0  0  0  0  0  0  0  0  0  0
   49.6397   35.1690   40.3847 H   0  0  0  0  0  0  0  0  0  0  0  0
   48.9704   36.5916   41.2574 H   0  0  0  0  0  0  0  0  0  0  0  0
   50.5004   35.7341   42.8524 H   0  0  0  0  0  0  0  0  0  0  0  0
   48.9780   34.9406   43.3609 H   0  0  0  0  0  0  0  0  0  0  0  0
   50.3011   30.3371   41.4675 H   0  0  0  0  0  0  0  0  0  0  0  0
   46.4716   31.6290   44.1681 H   0  0  0  0  0  0  0  0  0  0  0  0
  1 12  1  0
  1  6  2  0
  2  3  2  0
  2  1  1  0
  3  4  1  0
  4  5  2  0
  6  5  1  0
  7  2  1  0
  8  7  1  0
  9 10  1  0
  9  8  2  0
 10 11  2  0
 11  7  1  0
 12 13  1  0
 14 13  1  0
 14 15  1  0
 15 19  1  0
 16 15  2  0
 16 17  1  0
 17 18  1  0
 19 18  2  0
  3 20  1  0
  5 21  1  0
  8 22  1  0
 10 23  1  0
 12 24  1  0
 12 25  1  0
 13 26  1  0
 13 27  1  0
 16 28  1  0
 18 29  1  0
M  ISO  8  20  14  21  14  22  14  23  14  24   8  25   8  26   8  27   8
M  ISO  2  28  14  29  14
M  END
>  <minimizedAffinity>  (1) 
-4.03103447

>  <minimizedRMSD>  (1) 
2.1897521

$$$$
