
     RDKit          3D

 26 27  0  0  0  0  0  0  0  0999 V2000
   47.6880   34.9020   41.1700 C   0  0  0  0  0  0  0  0  0  0  0  0
   47.1650   34.0840   40.1580 C   0  0  0  0  0  0  0  0  0  0  0  0
   45.8170   33.6280   40.2280 C   0  0  0  0  0  0  0  0  0  0  0  0
   45.1060   34.0330   41.3120 N   0  0  0  0  0  0  0  0  0  0  0  0
   45.6230   34.8170   42.2720 C   0  0  0  0  0  0  0  0  0  0  0  0
   46.8910   35.2210   42.1670 N   0  0  0  0  0  0  0  0  0  0  0  0
   47.9860   33.7190   39.0710 N   0  0  0  0  0  0  0  0  0  0  0  0
   48.2100   34.3740   37.9190 C   0  0  0  0  0  0  0  0  0  0  0  0
   49.0570   33.7070   37.1270 N   0  0  0  0  0  0  0  0  0  0  0  0
   49.3820   32.5610   37.8300 C   0  0  0  0  0  0  0  0  0  0  0  0
   48.7090   32.6050   39.0110 N   0  0  0  0  0  0  0  0  0  0  0  0
   49.0450   35.4610   41.2640 C   0  0  0  0  0  0  0  0  0  0  0  0
   49.7180   34.9780   42.5680 C   0  0  0  0  0  0  0  0  0  0  0  0
   50.4720   33.3580   42.2520 S   0  0  0  0  0  0  0  0  0  0  0  0
   49.3340   32.0080   42.5750 C   0  0  0  0  0  0  0  0  0  0  0  0
   45.3781   32.9859   39.4501 H   0  0  0  0  0  0  0  0  0  0  0  0
   45.0101   35.1221   43.1330 H   0  0  0  0  0  0  0  0  0  0  0  0
   47.7529   35.3402   37.6592 H   0  0  0  0  0  0  0  0  0  0  0  0
   50.0597   31.7616   37.4956 H   0  0  0  0  0  0  0  0  0  0  0  0
   49.6388   35.1266   40.4005 H   0  0  0  0  0  0  0  0  0  0  0  0
   48.9869   36.5595   41.2693 H   0  0  0  0  0  0  0  0  0  0  0  0
   50.4930   35.6958   42.8748 H   0  0  0  0  0  0  0  0  0  0  0  0
   48.9726   34.8991   43.3731 H   0  0  0  0  0  0  0  0  0  0  0  0
   49.2218   31.8749   43.6611 H   0  0  0  0  0  0  0  0  0  0  0  0
   48.3547   32.2398   42.1309 H   0  0  0  0  0  0  0  0  0  0  0  0
   49.7281   31.0820   42.1309 H   0  0  0  0  0  0  0  0  0  0  0  0
  1 12  1  0
  1  6  2  0
  2  3  2  0
  2  1  1  0
  3  4  1  0
  4  5  2  0
  6  5  1  0
  7  2  1  0
  8  7  1  0
  9 10  1  0
  9  8  2  0
 10 11  2  0
 11  7  1  0
 12 13  1  0
 14 13  1  0
 14 15  1  0
  3 16  1  0
  5 17  1  0
  8 18  1  0
 10 19  1  0
 12 20  1  0
 12 21  1  0
 13 22  1  0
 13 23  1  0
 15 24  1  0
 15 25  1  0
 15 26  1  0
M  ISO  8  16  14  17  14  18  14  19  14  20   8  21   8  22   8  23   8
M  ISO  3  24   8  25   8  26   8
M  END
>  <minimizedAffinity>  (1) 
-3.80139756

>  <minimizedRMSD>  (1) 
0.612199008

$$$$
