
     RDKit          3D

 19 20  0  0  0  0  0  0  0  0999 V2000
   44.5640   35.8380   44.6470 C   0  0  0  0  0  0  0  0  0  0  0  0
   45.2950   35.6480   43.4470 C   0  0  0  0  0  0  0  0  0  0  0  0
   46.1720   34.5600   43.4100 C   0  0  0  0  0  0  0  0  0  0  0  0
   46.2590   33.7750   44.5060 N   0  0  0  0  0  0  0  0  0  0  0  0
   45.5490   33.9830   45.6330 C   0  0  0  0  0  0  0  0  0  0  0  0
   44.7050   35.0110   45.7040 N   0  0  0  0  0  0  0  0  0  0  0  0
   45.7210   33.0780   46.7540 C   0  0  0  0  0  0  0  0  0  0  0  0
   44.9000   33.0000   47.6980 O   0  0  0  0  0  0  0  0  0  0  0  0
   46.9020   32.1790   46.8410 C   0  0  0  0  0  0  0  0  0  0  0  0
   46.9280   31.0510   47.7940 C   0  0  0  0  0  0  0  0  0  0  0  0
   47.7200   32.2580   48.1450 C   0  0  0  0  0  0  0  0  0  0  0  0
   43.8628   36.6826   44.7183 H   0  0  0  0  0  0  0  0  0  0  0  0
   45.1777   36.3238   42.5870 H   0  0  0  0  0  0  0  0  0  0  0  0
   46.7741   34.3491   42.5139 H   0  0  0  0  0  0  0  0  0  0  0  0
   47.0877   32.2604   45.7598 H   0  0  0  0  0  0  0  0  0  0  0  0
   46.0241   30.8084   48.3720 H   0  0  0  0  0  0  0  0  0  0  0  0
   47.1695   29.9818   47.7021 H   0  0  0  0  0  0  0  0  0  0  0  0
   48.8191   32.2287   48.1127 H   0  0  0  0  0  0  0  0  0  0  0  0
   47.7698   32.9449   49.0027 H   0  0  0  0  0  0  0  0  0  0  0  0
  1  6  2  0
  2  1  1  0
  3  2  2  0
  3  4  1  0
  4  5  2  0
  5  6  1  0
  5  7  1  0
  7  9  1  0
  7  8  2  0
  9 10  1  0
  9 11  1  0
 10 11  1  0
  1 12  1  0
  2 13  1  0
  3 14  1  0
  9 15  1  0
 10 16  1  0
 10 17  1  0
 11 18  1  0
 11 19  1  0
M  ISO  8  12  14  13  14  14  14  15  13  16  13  17  13  18  13  19  13
M  END
>  <minimizedAffinity>  (1) 
-3.92747927

>  <minimizedRMSD>  (1) 
1.13049948

$$$$
