
     RDKit          3D

 27 29  0  0  1  0  0  0  0  0999 V2000
   46.9270   32.3200   46.5750 C   0  0  2  0  0  0  0  0  0  0  0  0
   46.7500   30.8880   46.3240 C   0  0  0  0  0  0  0  0  0  0  0  0
   46.9050   31.3060   47.7520 C   0  0  1  0  0  0  0  0  0  0  0  0
   48.2180   30.9390   48.3420 C   0  0  0  0  0  0  0  0  0  0  0  0
   48.7880   29.7140   48.0810 C   0  0  0  0  0  0  0  0  0  0  0  0
   50.0170   29.4200   48.6570 C   0  0  0  0  0  0  0  0  0  0  0  0
   50.6650   30.2750   49.4520 N   0  0  0  0  0  0  0  0  0  0  0  0
   50.0850   31.4670   49.6920 C   0  0  0  0  0  0  0  0  0  0  0  0
   48.8770   31.7740   49.1350 N   0  0  0  0  0  0  0  0  0  0  0  0
   45.7470   33.2430   46.5460 C   0  0  0  0  0  0  0  0  0  0  0  0
   44.9540   33.1880   47.5270 O   0  0  0  0  0  0  0  0  0  0  0  0
   44.5150   36.0040   44.4820 C   0  0  0  0  0  0  0  0  0  0  0  0
   45.2240   35.8370   43.2720 C   0  0  0  0  0  0  0  0  0  0  0  0
   46.1110   34.7670   43.2100 C   0  0  0  0  0  0  0  0  0  0  0  0
   46.2350   33.9680   44.2930 N   0  0  0  0  0  0  0  0  0  0  0  0
   45.5480   34.1520   45.4270 C   0  0  0  0  0  0  0  0  0  0  0  0
   44.6980   35.1610   45.5140 N   0  0  0  0  0  0  0  0  0  0  0  0
   47.6110   33.0721   46.1548 H   0  0  0  0  0  0  0  0  0  0  0  0
   45.7761   30.5172   45.9719 H   0  0  0  0  0  0  0  0  0  0  0  0
   47.2729   30.1600   45.6864 H   0  0  0  0  0  0  0  0  0  0  0  0
   46.3381   31.2160   48.6904 H   0  0  0  0  0  0  0  0  0  0  0  0
   48.2820   28.9847   47.4313 H   0  0  0  0  0  0  0  0  0  0  0  0
   50.4758   28.4420   48.4497 H   0  0  0  0  0  0  0  0  0  0  0  0
   50.5884   32.1983   50.3415 H   0  0  0  0  0  0  0  0  0  0  0  0
   43.8024   36.8360   44.5819 H   0  0  0  0  0  0  0  0  0  0  0  0
   45.0819   36.5191   42.4208 H   0  0  0  0  0  0  0  0  0  0  0  0
   46.6983   34.5755   42.2998 H   0  0  0  0  0  0  0  0  0  0  0  0
  1  3  1  0
  2  1  1  0
  2  3  1  0
  3  4  1  0
  4  9  1  0
  5  4  2  0
  5  6  1  0
  6  7  2  0
  7  8  1  0
  9  8  2  0
 10  1  1  0
 10 11  2  0
 12 17  2  0
 13 12  1  0
 14 13  2  0
 14 15  1  0
 15 16  2  0
 16 17  1  0
 16 10  1  0
  1 18  1  6
  2 19  1  0
  2 20  1  0
  3 21  1  1
  5 22  1  0
  6 23  1  0
  8 24  1  0
 12 25  1  0
 13 26  1  0
 14 27  1  0
M  ISO  8  18  13  19  13  20  13  21  13  22  14  23  14  24  14  25  14
M  ISO  2  26  14  27  14
M  END
>  <minimizedAffinity>  (1) 
-4.92009878

>  <minimizedRMSD>  (1) 
1.32527864

$$$$
