
     RDKit          3D

 28 30  0  0  1  0  0  0  0  0999 V2000
   46.8990   32.2570   46.5140 C   0  0  2  0  0  0  0  0  0  0  0  0
   46.6810   30.8290   46.2730 C   0  0  0  0  0  0  0  0  0  0  0  0
   46.9090   31.2460   47.6920 C   0  0  1  0  0  0  0  0  0  0  0  0
   48.2210   30.8930   48.2880 C   0  0  0  0  0  0  0  0  0  0  0  0
   48.8500   29.6840   48.0590 C   0  0  0  0  0  0  0  0  0  0  0  0
   50.0850   29.4120   48.6510 C   0  0  0  0  0  0  0  0  0  0  0  0
   50.6240   30.3830   49.4480 C   0  0  0  0  0  0  0  0  0  0  0  0
   50.0040   31.6070   49.6890 C   0  0  0  0  0  0  0  0  0  0  0  0
   48.8160   31.8020   49.0880 N   0  0  0  0  0  0  0  0  0  0  0  0
   45.7560   33.2150   46.5220 C   0  0  0  0  0  0  0  0  0  0  0  0
   45.0000   33.1690   47.5320 O   0  0  0  0  0  0  0  0  0  0  0  0
   44.5210   35.9990   44.5120 C   0  0  0  0  0  0  0  0  0  0  0  0
   45.2170   35.8560   43.2960 C   0  0  0  0  0  0  0  0  0  0  0  0
   46.1000   34.7860   43.2080 C   0  0  0  0  0  0  0  0  0  0  0  0
   46.2310   33.9690   44.2780 N   0  0  0  0  0  0  0  0  0  0  0  0
   45.5540   34.1340   45.4190 C   0  0  0  0  0  0  0  0  0  0  0  0
   44.6980   35.1520   45.5350 N   0  0  0  0  0  0  0  0  0  0  0  0
   47.5802   32.9945   46.0645 H   0  0  0  0  0  0  0  0  0  0  0  0
   45.6847   30.4783   45.9658 H   0  0  0  0  0  0  0  0  0  0  0  0
   47.1591   30.0896   45.6137 H   0  0  0  0  0  0  0  0  0  0  0  0
   46.3768   31.1472   48.6496 H   0  0  0  0  0  0  0  0  0  0  0  0
   48.3764   28.9339   47.4086 H   0  0  0  0  0  0  0  0  0  0  0  0
   50.6027   28.4561   48.4830 H   0  0  0  0  0  0  0  0  0  0  0  0
   51.5967   30.1880   49.9232 H   0  0  0  0  0  0  0  0  0  0  0  0
   50.4603   32.3717   50.3348 H   0  0  0  0  0  0  0  0  0  0  0  0
   43.8106   36.8312   44.6253 H   0  0  0  0  0  0  0  0  0  0  0  0
   45.0695   36.5547   42.4593 H   0  0  0  0  0  0  0  0  0  0  0  0
   46.6787   34.6079   42.2896 H   0  0  0  0  0  0  0  0  0  0  0  0
  1 10  1  0
  1  3  1  0
  2  1  1  0
  2  3  1  0
  3  4  1  0
  4  9  1  0
  5  4  2  0
  5  6  1  0
  6  7  2  0
  7  8  1  0
  9  8  2  0
 10 11  2  0
 12 17  2  0
 13 12  1  0
 14 13  2  0
 14 15  1  0
 15 16  2  0
 16 17  1  0
 16 10  1  0
  1 18  1  6
  2 19  1  0
  2 20  1  0
  3 21  1  1
  5 22  1  0
  6 23  1  0
  7 24  1  0
  8 25  1  0
 12 26  1  0
 13 27  1  0
 14 28  1  0
M  ISO  8  18  13  19  13  20  13  21  13  22  14  23  14  24  14  25  14
M  ISO  3  26  14  27  14  28  14
M  END
>  <minimizedAffinity>  (1) 
-5.00486231

>  <minimizedRMSD>  (1) 
1.38075244

$$$$
