
     RDKit          3D

 25 27  0  0  1  0  0  0  0  0999 V2000
   46.9480   32.2570   46.4890 C   0  0  2  0  0  0  0  0  0  0  0  0
   46.7420   30.8360   46.2030 C   0  0  0  0  0  0  0  0  0  0  0  0
   46.9330   31.2030   47.6270 C   0  0  1  0  0  0  0  0  0  0  0  0
   48.1510   30.9190   48.3180 N   0  0  0  0  0  0  0  0  0  0  0  0
   48.8750   29.7840   48.2970 C   0  0  0  0  0  0  0  0  0  0  0  0
   49.9590   29.9320   49.0920 N   0  0  0  0  0  0  0  0  0  0  0  0
   49.8900   31.1730   49.6020 C   0  0  0  0  0  0  0  0  0  0  0  0
   48.7930   31.7460   49.1210 N   0  0  0  0  0  0  0  0  0  0  0  0
   45.7810   33.1960   46.5200 C   0  0  0  0  0  0  0  0  0  0  0  0
   45.0190   33.1360   47.5240 O   0  0  0  0  0  0  0  0  0  0  0  0
   44.5140   35.9880   44.5240 C   0  0  0  0  0  0  0  0  0  0  0  0
   45.2020   35.8550   43.3020 C   0  0  0  0  0  0  0  0  0  0  0  0
   46.0880   34.7900   43.2130 C   0  0  0  0  0  0  0  0  0  0  0  0
   46.2360   33.9650   44.2780 N   0  0  0  0  0  0  0  0  0  0  0  0
   45.5620   34.1270   45.4230 C   0  0  0  0  0  0  0  0  0  0  0  0
   44.7040   35.1370   45.5430 N   0  0  0  0  0  0  0  0  0  0  0  0
   47.6336   33.0119   46.0766 H   0  0  0  0  0  0  0  0  0  0  0  0
   45.7546   30.4914   45.8619 H   0  0  0  0  0  0  0  0  0  0  0  0
   47.2396   30.1192   45.5332 H   0  0  0  0  0  0  0  0  0  0  0  0
   46.3706   31.0241   48.5553 H   0  0  0  0  0  0  0  0  0  0  0  0
   48.6244   28.8792   47.7238 H   0  0  0  0  0  0  0  0  0  0  0  0
   50.6121   31.6317   50.2934 H   0  0  0  0  0  0  0  0  0  0  0  0
   43.7991   36.8151   44.6462 H   0  0  0  0  0  0  0  0  0  0  0  0
   45.0463   36.5541   42.4671 H   0  0  0  0  0  0  0  0  0  0  0  0
   46.6621   34.6181   42.2906 H   0  0  0  0  0  0  0  0  0  0  0  0
  1  9  1  0
  1  3  1  0
  2  1  1  0
  2  3  1  0
  3  4  1  0
  4  8  1  0
  5  4  1  0
  5  6  2  0
  6  7  1  0
  8  7  2  0
  9 10  2  0
 11 16  2  0
 12 11  1  0
 13 12  2  0
 13 14  1  0
 14 15  2  0
 15 16  1  0
 15  9  1  0
  1 17  1  6
  2 18  1  0
  2 19  1  0
  3 20  1  1
  5 21  1  0
  7 22  1  0
 11 23  1  0
 12 24  1  0
 13 25  1  0
M  ISO  8  17  13  18  13  19  13  20  13  21  14  22  14  23  14  24  14
M  ISO  1  25  14
M  END
>  <minimizedAffinity>  (1) 
-4.67407227

>  <minimizedRMSD>  (1) 
1.36694527

$$$$
