
     RDKit          3D

 33 35  0  0  1  0  0  0  0  0999 V2000
   46.5180   31.8270   46.3530 C   0  0  2  0  0  0  0  0  0  0  0  0
   46.1590   30.5210   46.9040 C   0  0  0  0  0  0  0  0  0  0  0  0
   47.1730   31.2810   47.6520 C   0  0  1  0  0  0  0  0  0  0  0  0
   48.5780   31.0480   47.5950 N   0  0  0  0  0  0  0  0  0  0  0  0
   48.9110   29.6760   47.2610 C   0  0  0  0  0  0  0  0  0  0  0  0
   48.8750   28.7220   48.4000 C   0  0  0  0  0  0  0  0  0  0  0  0
   49.5600   29.2210   49.5830 N   0  0  0  0  0  0  0  0  0  0  0  0
   48.8750   30.4470   49.9430 C   0  0  0  0  0  0  0  0  0  0  0  0
   49.1930   31.4560   48.8410 C   0  0  0  0  0  0  0  0  0  0  0  0
   45.6380   33.0190   46.5730 C   0  0  0  0  0  0  0  0  0  0  0  0
   45.0600   33.1010   47.6940 O   0  0  0  0  0  0  0  0  0  0  0  0
   44.5440   35.9740   44.7280 C   0  0  0  0  0  0  0  0  0  0  0  0
   45.2340   35.8810   43.5040 C   0  0  0  0  0  0  0  0  0  0  0  0
   46.0630   34.7770   43.3630 C   0  0  0  0  0  0  0  0  0  0  0  0
   46.1530   33.8890   44.3780 N   0  0  0  0  0  0  0  0  0  0  0  0
   45.4800   34.0130   45.5270 C   0  0  0  0  0  0  0  0  0  0  0  0
   44.6720   35.0600   45.7030 N   0  0  0  0  0  0  0  0  0  0  0  0
   46.8218   32.1583   45.3491 H   0  0  0  0  0  0  0  0  0  0  0  0
   45.1607   30.3776   47.3432 H   0  0  0  0  0  0  0  0  0  0  0  0
   46.1375   29.5052   46.4825 H   0  0  0  0  0  0  0  0  0  0  0  0
   47.2692   31.5341   48.7182 H   0  0  0  0  0  0  0  0  0  0  0  0
   48.1955   29.3271   46.5018 H   0  0  0  0  0  0  0  0  0  0  0  0
   49.9527   29.6915   46.9079 H   0  0  0  0  0  0  0  0  0  0  0  0
   47.8242   28.5264   48.6600 H   0  0  0  0  0  0  0  0  0  0  0  0
   49.3964   27.8080   48.0795 H   0  0  0  0  0  0  0  0  0  0  0  0
   49.4980   28.5362   50.3499 H   0  0  0  0  0  0  0  0  0  0  0  0
   47.7901   30.2744   49.9998 H   0  0  0  0  0  0  0  0  0  0  0  0
   49.2026   30.8136   50.9270 H   0  0  0  0  0  0  0  0  0  0  0  0
   50.2831   31.5146   48.7058 H   0  0  0  0  0  0  0  0  0  0  0  0
   48.7965   32.4402   49.1310 H   0  0  0  0  0  0  0  0  0  0  0  0
   43.8730   36.8301   44.8919 H   0  0  0  0  0  0  0  0  0  0  0  0
   45.1231   36.6349   42.7107 H   0  0  0  0  0  0  0  0  0  0  0  0
   46.6389   34.6267   42.4379 H   0  0  0  0  0  0  0  0  0  0  0  0
  1 10  1  0
  1  2  1  0
  1  3  1  0
  2  3  1  0
  4  3  1  0
  4  9  1  0
  5  4  1  0
  5  6  1  0
  6  7  1  0
  7  8  1  0
  9  8  1  0
 10 11  2  0
 12 17  2  0
 13 12  1  0
 14 13  2  0
 14 15  1  0
 15 16  2  0
 16 17  1  0
 16 10  1  0
  1 18  1  6
  2 19  1  0
  2 20  1  0
  3 21  1  1
  5 22  1  0
  5 23  1  0
  6 24  1  0
  6 25  1  0
  7 26  1  0
  8 27  1  0
  8 28  1  0
  9 29  1  0
  9 30  1  0
 12 31  1  0
 13 32  1  0
 14 33  1  0
M  ISO  8  18  13  19  13  20  13  21  13  22  13  23  13  24  13  25  13
M  ISO  8  26   5  27  13  28  13  29  13  30  13  31  14  32  14  33  14
M  END
>  <minimizedAffinity>  (1) 
-4.24654865

>  <minimizedRMSD>  (1) 
1.10221016

$$$$
