
     RDKit          3D

 20 21  0  0  1  0  0  0  0  0999 V2000
   45.7560   32.9720   46.8320 C   0  0  0  0  0  0  0  0  0  0  0  0
   44.8800   33.1580   47.7230 O   0  0  0  0  0  0  0  0  0  0  0  0
   44.9730   35.4280   44.2320 C   0  0  0  0  0  0  0  0  0  0  0  0
   45.9260   35.1450   43.2320 C   0  0  0  0  0  0  0  0  0  0  0  0
   46.8140   34.1040   43.4940 C   0  0  0  0  0  0  0  0  0  0  0  0
   46.7070   33.4460   44.6660 N   0  0  0  0  0  0  0  0  0  0  0  0
   45.7910   33.7360   45.5990 C   0  0  0  0  0  0  0  0  0  0  0  0
   44.9360   34.7190   45.3770 N   0  0  0  0  0  0  0  0  0  0  0  0
   46.7800   31.9130   47.1030 C   0  0  2  0  0  0  0  0  0  0  0  0
   46.4170   30.7110   47.8600 C   0  0  0  0  0  0  0  0  0  0  0  0
   47.1630   31.7740   48.5980 C   0  0  1  0  0  0  0  0  0  0  0  0
   48.8470   31.3950   49.0460 S   0  0  0  0  0  0  0  0  0  0  0  0
   44.2483   36.2405   44.0748 H   0  0  0  0  0  0  0  0  0  0  0  0
   45.9662   35.7168   42.2932 H   0  0  0  0  0  0  0  0  0  0  0  0
   47.5853   33.8251   42.7610 H   0  0  0  0  0  0  0  0  0  0  0  0
   47.2874   32.0632   46.1386 H   0  0  0  0  0  0  0  0  0  0  0  0
   45.3608   30.5230   48.1031 H   0  0  0  0  0  0  0  0  0  0  0  0
   46.5855   29.6354   47.7028 H   0  0  0  0  0  0  0  0  0  0  0  0
   47.0162   32.3937   49.4949 H   0  0  0  0  0  0  0  0  0  0  0  0
   48.9617   31.3692   50.4109 H   0  0  0  0  0  0  0  0  0  0  0  0
  1  9  1  0
  1  2  2  0
  3  8  2  0
  4  5  2  0
  4  3  1  0
  5  6  1  0
  6  7  2  0
  7  1  1  0
  8  7  1  0
  9 10  1  0
  9 11  1  0
 10 11  1  0
 11 12  1  0
  3 13  1  0
  4 14  1  0
  5 15  1  0
  9 16  1  6
 10 17  1  0
 10 18  1  0
 11 19  1  1
 12 20  1  0
M  ISO  8  13  14  14  14  15  14  16  13  17  13  18  13  19  13  20  11
M  END
>  <minimizedAffinity>  (1) 
-3.92074299

>  <minimizedRMSD>  (1) 
0.675808907

$$$$
