
     RDKit          3D

 34 36  0  0  0  0  0  0  0  0999 V2000
   46.7700   30.2420   44.6730 N   0  0  0  0  0  0  0  0  0  0  0  0
   45.7440   29.6970   44.0450 N   0  0  0  0  0  0  0  0  0  0  0  0
   44.7970   29.3060   44.8880 C   0  0  0  0  0  0  0  0  0  0  0  0
   45.2230   29.6110   46.1560 C   0  0  0  0  0  0  0  0  0  0  0  0
   46.4520   30.1930   46.0050 C   0  0  0  0  0  0  0  0  0  0  0  0
   47.2250   30.6540   47.1140 N   0  0  0  0  0  0  0  0  0  0  0  0
   47.2660   31.8850   47.6500 C   0  0  0  0  0  0  0  0  0  0  0  0
   48.1020   32.0910   48.7310 C   0  0  0  0  0  0  0  0  0  0  0  0
   48.8820   31.0860   49.2660 C   0  0  0  0  0  0  0  0  0  0  0  0
   49.7280   31.3190   50.3700 N   0  0  0  0  0  0  0  0  0  0  0  0
   48.8120   29.8620   48.6980 N   0  0  0  0  0  0  0  0  0  0  0  0
   47.9990   29.6670   47.6470 C   0  0  0  0  0  0  0  0  0  0  0  0
   48.0340   28.4710   47.2150 O   0  0  0  0  0  0  0  0  0  0  0  0
   48.0060   30.8070   44.2310 C   0  0  0  0  0  0  0  0  0  0  0  0
   48.0020   31.2150   42.7760 C   0  0  0  0  0  0  0  0  0  0  0  0
   47.8500   32.6450   42.5940 C   0  0  0  0  0  0  0  0  0  0  0  0
   48.9060   33.2810   41.9560 C   0  0  0  0  0  0  0  0  0  0  0  0
   48.9010   34.6590   41.7080 C   0  0  0  0  0  0  0  0  0  0  0  0
   47.7970   35.3370   42.1290 N   0  0  0  0  0  0  0  0  0  0  0  0
   46.7800   34.7030   42.7470 C   0  0  0  0  0  0  0  0  0  0  0  0
   46.8300   33.3890   42.9610 N   0  0  0  0  0  0  0  0  0  0  0  0
   43.8447   28.8253   44.6195 H   0  0  0  0  0  0  0  0  0  0  0  0
   44.6874   29.4259   47.0988 H   0  0  0  0  0  0  0  0  0  0  0  0
   46.6539   32.7027   47.2417 H   0  0  0  0  0  0  0  0  0  0  0  0
   48.1474   33.0934   49.1818 H   0  0  0  0  0  0  0  0  0  0  0  0
   50.3004   30.5522   50.7510 H   0  0  0  0  0  0  0  0  0  0  0  0
   49.7735   32.2560   50.7953 H   0  0  0  0  0  0  0  0  0  0  0  0
   48.2184   31.6976   44.8407 H   0  0  0  0  0  0  0  0  0  0  0  0
   48.7741   30.0277   44.3440 H   0  0  0  0  0  0  0  0  0  0  0  0
   48.9531   30.9019   42.3206 H   0  0  0  0  0  0  0  0  0  0  0  0
   47.1402   30.7268   42.2975 H   0  0  0  0  0  0  0  0  0  0  0  0
   49.7729   32.6845   41.6356 H   0  0  0  0  0  0  0  0  0  0  0  0
   49.7381   35.1637   41.2036 H   0  0  0  0  0  0  0  0  0  0  0  0
   45.9011   35.2759   43.0775 H   0  0  0  0  0  0  0  0  0  0  0  0
  1  5  1  0
  2  1  1  0
  2  3  2  0
  3  4  1  0
  5  4  2  0
  5  6  1  0
  6 12  1  0
  6  7  1  0
  7  8  2  0
  8  9  1  0
  9 10  1  0
 11  9  2  0
 12 11  1  0
 13 12  2  0
 14  1  1  0
 15 14  1  0
 16 15  1  0
 16 21  1  0
 17 16  2  0
 18 17  1  0
 18 19  2  0
 19 20  1  0
 20 21  2  0
  3 22  1  0
  4 23  1  0
  7 24  1  0
  8 25  1  0
 10 26  1  0
 10 27  1  0
 14 28  1  0
 14 29  1  0
 15 30  1  0
 15 31  1  0
 17 32  1  0
 18 33  1  0
 20 34  1  0
M  ISO  8  22  14  23  14  24  14  25  14  28   8  29   8  30   8  31   8
M  ISO  3  32  14  33  14  34  14
M  END
>  <minimizedAffinity>  (1) 
-3.98556781

>  <minimizedRMSD>  (1) 
4.31618929

$$$$
