
     RDKit          3D

 26 28  0  0  1  0  0  0  0  0999 V2000
   47.0240   31.8930   42.9080 C   0  0  2  0  0  0  0  0  0  0  0  0
   48.4240   31.5220   43.1340 C   0  0  0  0  0  0  0  0  0  0  0  0
   48.1130   32.2560   41.8690 C   0  0  2  0  0  0  0  0  0  0  0  0
   48.6060   33.6090   41.8320 N   0  0  0  0  0  0  0  0  0  0  0  0
   49.4480   34.3180   42.6290 C   0  0  0  0  0  0  0  0  0  0  0  0
   49.5970   35.6030   42.1510 C   0  0  0  0  0  0  0  0  0  0  0  0
   48.8420   35.6790   41.0520 N   0  0  0  0  0  0  0  0  0  0  0  0
   48.2500   34.4990   40.8580 C   0  0  0  0  0  0  0  0  0  0  0  0
   46.4330   33.0700   43.6180 C   0  0  0  0  0  0  0  0  0  0  0  0
   46.8680   33.3210   44.7760 O   0  0  0  0  0  0  0  0  0  0  0  0
   44.4710   35.9390   42.4680 C   0  0  0  0  0  0  0  0  0  0  0  0
   43.4210   35.3430   41.7460 C   0  0  0  0  0  0  0  0  0  0  0  0
   43.4230   33.9470   41.6790 C   0  0  0  0  0  0  0  0  0  0  0  0
   44.4160   33.2770   42.3020 N   0  0  0  0  0  0  0  0  0  0  0  0
   45.4010   33.8760   42.9810 C   0  0  0  0  0  0  0  0  0  0  0  0
   45.4220   35.1980   43.0590 N   0  0  0  0  0  0  0  0  0  0  0  0
   46.0844   31.3219   42.9395 H   0  0  0  0  0  0  0  0  0  0  0  0
   48.9968   32.0267   43.9260 H   0  0  0  0  0  0  0  0  0  0  0  0
   48.9316   30.5716   43.3554 H   0  0  0  0  0  0  0  0  0  0  0  0
   48.2242   32.1006   40.7857 H   0  0  0  0  0  0  0  0  0  0  0  0
   49.9414   33.9225   43.5290 H   0  0  0  0  0  0  0  0  0  0  0  0
   50.2130   36.4034   42.5868 H   0  0  0  0  0  0  0  0  0  0  0  0
   47.5671   34.2730   40.0258 H   0  0  0  0  0  0  0  0  0  0  0  0
   44.5138   37.0351   42.5501 H   0  0  0  0  0  0  0  0  0  0  0  0
   42.6390   35.9445   41.2594 H   0  0  0  0  0  0  0  0  0  0  0  0
   42.6354   33.4076   41.1324 H   0  0  0  0  0  0  0  0  0  0  0  0
  1  2  1  0
  1  9  1  0
  3  1  1  0
  3  2  1  0
  4  3  1  0
  4  5  1  0
  6  5  2  0
  7  6  1  0
  8  7  2  0
  8  4  1  0
  9 10  2  0
 11 16  2  0
 12 11  1  0
 13 12  2  0
 13 14  1  0
 14 15  2  0
 15 16  1  0
 15  9  1  0
  1 17  1  6
  2 18  1  0
  2 19  1  0
  3 20  1  6
  5 21  1  0
  6 22  1  0
  8 23  1  0
 11 24  1  0
 12 25  1  0
 13 26  1  0
M  ISO  8  17  13  18  13  19  13  20  13  21  14  22  14  23  14  24  14
M  ISO  2  25  14  26  14
M  END
>  <minimizedAffinity>  (1) 
-3.79722381

>  <minimizedRMSD>  (1) 
5.79085732

$$$$
