
     RDKit          3D

 42 45  0  0  1  0  0  0  0  0999 V2000
   48.4480   30.6900   47.9160 C   0  0  2  0  0  0  0  0  0  0  0  0
   47.0020   31.9700   46.2790 C   0  0  2  0  0  0  0  0  0  0  0  0
   46.6340   30.5540   46.0260 C   0  0  0  0  0  0  0  0  0  0  0  0
   47.1000   30.9160   47.3880 C   0  0  1  0  0  0  0  0  0  0  0  0
   45.9070   32.9880   46.4800 C   0  0  0  0  0  0  0  0  0  0  0  0
   45.2600   32.9000   47.5690 O   0  0  0  0  0  0  0  0  0  0  0  0
   44.5220   35.8610   44.7290 C   0  0  0  0  0  0  0  0  0  0  0  0
   45.1670   35.8230   43.4670 C   0  0  0  0  0  0  0  0  0  0  0  0
   46.0690   34.8000   43.2740 C   0  0  0  0  0  0  0  0  0  0  0  0
   46.2630   33.9270   44.2860 N   0  0  0  0  0  0  0  0  0  0  0  0
   45.6400   33.9880   45.4660 C   0  0  0  0  0  0  0  0  0  0  0  0
   44.7480   34.9740   45.6990 N   0  0  0  0  0  0  0  0  0  0  0  0
   49.0130   29.3350   47.5470 C   0  0  0  0  0  0  0  0  0  0  0  0
   48.4670   30.8260   49.4170 C   0  0  0  0  0  0  0  0  0  0  0  0
   49.7320   31.3220   49.9660 C   0  0  0  0  0  0  0  0  0  0  0  0
   50.4030   32.5060   49.7370 C   0  0  0  0  0  0  0  0  0  0  0  0
   51.5390   32.5400   50.4630 N   0  0  0  0  0  0  0  0  0  0  0  0
   51.5880   31.3840   51.1500 C   0  0  0  0  0  0  0  0  0  0  0  0
   52.5070   30.8490   52.0550 C   0  0  0  0  0  0  0  0  0  0  0  0
   52.3580   29.6160   52.6550 C   0  0  0  0  0  0  0  0  0  0  0  0
   51.2460   28.8470   52.3610 C   0  0  0  0  0  0  0  0  0  0  0  0
   50.3010   29.3460   51.4580 C   0  0  0  0  0  0  0  0  0  0  0  0
   50.5030   30.5960   50.8820 C   0  0  0  0  0  0  0  0  0  0  0  0
   49.0808   31.4609   47.4519 H   0  0  0  0  0  0  0  0  0  0  0  0
   47.6718   32.6814   45.7738 H   0  0  0  0  0  0  0  0  0  0  0  0
   45.5792   30.2866   45.8653 H   0  0  0  0  0  0  0  0  0  0  0  0
   46.9464   29.8033   45.2852 H   0  0  0  0  0  0  0  0  0  0  0  0
   46.6802   30.6919   48.3797 H   0  0  0  0  0  0  0  0  0  0  0  0
   43.7960   36.6654   44.9183 H   0  0  0  0  0  0  0  0  0  0  0  0
   44.9588   36.5688   42.6857 H   0  0  0  0  0  0  0  0  0  0  0  0
   46.6147   34.6972   42.3245 H   0  0  0  0  0  0  0  0  0  0  0  0
   49.2472   28.7735   48.4634 H   0  0  0  0  0  0  0  0  0  0  0  0
   48.2722   28.7778   46.9547 H   0  0  0  0  0  0  0  0  0  0  0  0
   49.9302   29.4691   46.9547 H   0  0  0  0  0  0  0  0  0  0  0  0
   47.6685   31.5240   49.7089 H   0  0  0  0  0  0  0  0  0  0  0  0
   48.3241   29.8144   49.8248 H   0  0  0  0  0  0  0  0  0  0  0  0
   50.0615   33.3044   49.0618 H   0  0  0  0  0  0  0  0  0  0  0  0
   52.2326   33.3011   50.4869 H   0  0  0  0  0  0  0  0  0  0  0  0
   53.3987   31.4435   52.3030 H   0  0  0  0  0  0  0  0  0  0  0  0
   53.1166   29.2473   53.3611 H   0  0  0  0  0  0  0  0  0  0  0  0
   51.1074   27.8611   52.8288 H   0  0  0  0  0  0  0  0  0  0  0  0
   49.4075   28.7560   51.2061 H   0  0  0  0  0  0  0  0  0  0  0  0
  1 14  1  0
  2  5  1  0
  2  4  1  0
  3  2  1  0
  3  4  1  0
  4  1  1  0
  5  6  2  0
  7 12  2  0
  8  7  1  0
  9  8  2  0
  9 10  1  0
 10 11  2  0
 11 12  1  0
 11  5  1  0
 13  1  1  0
 14 15  1  0
 15 23  1  0
 16 15  2  0
 16 17  1  0
 17 18  1  0
 18 19  2  0
 19 20  1  0
 21 20  2  0
 22 21  1  0
 23 18  1  0
 23 22  2  0
  1 24  1  6
  2 25  1  6
  3 26  1  0
  3 27  1  0
  4 28  1  1
  7 29  1  0
  8 30  1  0
  9 31  1  0
 13 32  1  0
 13 33  1  0
 13 34  1  0
 14 35  1  0
 14 36  1  0
 16 37  1  0
 17 38  1  0
 19 39  1  0
 20 40  1  0
 21 41  1  0
 22 42  1  0
M  ISO  8  24   8  25  13  26  13  27  13  28  13  29  14  30  14  31  14
M  ISO  8  32   8  33   8  34   8  35   8  36   8  37  14  38   9  39  14
M  ISO  3  40  14  41  14  42  14
M  END
>  <minimizedAffinity>  (1) 
-5.86633062

>  <minimizedRMSD>  (1) 
3.08094192

$$$$
