
     RDKit          3D

 39 42  0  0  1  0  0  0  0  0999 V2000
   48.2870   30.5340   47.8200 C   0  0  2  0  0  0  0  0  0  0  0  0
   47.0090   32.0200   46.2090 C   0  0  2  0  0  0  0  0  0  0  0  0
   46.6770   30.6520   45.7510 C   0  0  0  0  0  0  0  0  0  0  0  0
   47.0050   30.8380   47.1840 C   0  0  1  0  0  0  0  0  0  0  0  0
   45.9030   33.0200   46.4290 C   0  0  0  0  0  0  0  0  0  0  0  0
   45.2670   32.9080   47.5200 O   0  0  0  0  0  0  0  0  0  0  0  0
   44.4940   35.9070   44.7280 C   0  0  0  0  0  0  0  0  0  0  0  0
   45.1070   35.8950   43.4670 C   0  0  0  0  0  0  0  0  0  0  0  0
   46.0150   34.8670   43.2400 C   0  0  0  0  0  0  0  0  0  0  0  0
   46.2220   33.9840   44.2390 N   0  0  0  0  0  0  0  0  0  0  0  0
   45.6180   34.0250   45.4290 C   0  0  0  0  0  0  0  0  0  0  0  0
   44.7320   35.0100   45.6830 N   0  0  0  0  0  0  0  0  0  0  0  0
   48.7790   29.1240   47.5440 C   0  0  0  0  0  0  0  0  0  0  0  0
   48.2580   30.7580   49.2820 C   0  0  0  0  0  0  0  0  0  0  0  0
   49.4820   31.0620   49.9320 N   0  0  0  0  0  0  0  0  0  0  0  0
   50.0990   32.2490   49.6320 C   0  0  0  0  0  0  0  0  0  0  0  0
   51.2520   32.4080   50.3370 N   0  0  0  0  0  0  0  0  0  0  0  0
   51.4020   31.3340   51.1010 C   0  0  0  0  0  0  0  0  0  0  0  0
   52.3020   30.8150   52.0400 C   0  0  0  0  0  0  0  0  0  0  0  0
   52.1140   29.6170   52.6400 N   0  0  0  0  0  0  0  0  0  0  0  0
   51.0250   28.8670   52.3440 C   0  0  0  0  0  0  0  0  0  0  0  0
   50.1620   29.3580   51.4470 N   0  0  0  0  0  0  0  0  0  0  0  0
   50.3280   30.5450   50.8380 C   0  0  0  0  0  0  0  0  0  0  0  0
   48.9951   31.2388   47.3596 H   0  0  0  0  0  0  0  0  0  0  0  0
   47.7196   32.7834   45.8592 H   0  0  0  0  0  0  0  0  0  0  0  0
   45.6445   30.4131   45.4563 H   0  0  0  0  0  0  0  0  0  0  0  0
   47.0650   29.9968   44.9572 H   0  0  0  0  0  0  0  0  0  0  0  0
   46.4923   30.4964   48.0953 H   0  0  0  0  0  0  0  0  0  0  0  0
   43.7709   36.7079   44.9419 H   0  0  0  0  0  0  0  0  0  0  0  0
   44.8828   36.6538   42.7028 H   0  0  0  0  0  0  0  0  0  0  0  0
   46.5455   34.7767   42.2806 H   0  0  0  0  0  0  0  0  0  0  0  0
   48.9599   28.6056   48.4972 H   0  0  0  0  0  0  0  0  0  0  0  0
   48.0187   28.5766   46.9675 H   0  0  0  0  0  0  0  0  0  0  0  0
   49.7147   29.1684   46.9675 H   0  0  0  0  0  0  0  0  0  0  0  0
   47.5699   31.5950   49.4714 H   0  0  0  0  0  0  0  0  0  0  0  0
   47.9557   29.7880   49.7035 H   0  0  0  0  0  0  0  0  0  0  0  0
   49.7100   32.9824   48.9104 H   0  0  0  0  0  0  0  0  0  0  0  0
   53.1947   31.4030   52.2993 H   0  0  0  0  0  0  0  0  0  0  0  0
   50.8567   27.8912   52.8231 H   0  0  0  0  0  0  0  0  0  0  0  0
  1 14  1  0
  2  5  1  0
  2  4  1  0
  3  2  1  0
  3  4  1  0
  4  1  1  0
  5  6  2  0
  7 12  2  0
  8  7  1  0
  9  8  2  0
  9 10  1  0
 10 11  2  0
 11 12  1  0
 11  5  1  0
 13  1  1  0
 14 15  1  0
 15 23  1  0
 16 15  1  0
 16 17  2  0
 17 18  1  0
 18 19  2  0
 19 20  1  0
 21 20  2  0
 22 21  1  0
 23 18  1  0
 23 22  2  0
  1 24  1  6
  2 25  1  6
  3 26  1  0
  3 27  1  0
  4 28  1  1
  7 29  1  0
  8 30  1  0
  9 31  1  0
 13 32  1  0
 13 33  1  0
 13 34  1  0
 14 35  1  0
 14 36  1  0
 16 37  1  0
 19 38  1  0
 21 39  1  0
M  ISO  8  24   8  25  13  26  13  27  13  28  13  29  14  30  14  31  14
M  ISO  8  32   8  33   8  34   8  35   8  36   8  37  14  38  14  39  14
M  END
>  <minimizedAffinity>  (1) 
-5.78348303

>  <minimizedRMSD>  (1) 
3.05349755

$$$$
