
     RDKit          3D

 39 41  0  0  1  0  0  0  0  0999 V2000
   48.5030   30.7770   48.1070 C   0  0  2  0  0  0  0  0  0  0  0  0
   47.0540   31.9760   46.4100 C   0  0  2  0  0  0  0  0  0  0  0  0
   46.7650   30.5440   46.1580 C   0  0  0  0  0  0  0  0  0  0  0  0
   47.1720   30.9380   47.5320 C   0  0  1  0  0  0  0  0  0  0  0  0
   45.9170   32.9530   46.5820 C   0  0  0  0  0  0  0  0  0  0  0  0
   45.2560   32.8360   47.6570 O   0  0  0  0  0  0  0  0  0  0  0  0
   44.5160   35.8030   44.8270 C   0  0  0  0  0  0  0  0  0  0  0  0
   45.1360   35.7700   43.5690 C   0  0  0  0  0  0  0  0  0  0  0  0
   46.0450   34.7390   43.3600 C   0  0  0  0  0  0  0  0  0  0  0  0
   46.2460   33.8730   44.3750 N   0  0  0  0  0  0  0  0  0  0  0  0
   45.6370   33.9350   45.5610 C   0  0  0  0  0  0  0  0  0  0  0  0
   44.7480   34.9260   45.7960 N   0  0  0  0  0  0  0  0  0  0  0  0
   49.2160   29.5150   47.6340 C   0  0  0  0  0  0  0  0  0  0  0  0
   48.5090   30.8150   49.5840 C   0  0  0  0  0  0  0  0  0  0  0  0
   49.7540   30.8780   50.2630 N   0  0  0  0  0  0  0  0  0  0  0  0
   50.0110   29.7190   50.9500 C   0  0  0  0  0  0  0  0  0  0  0  0
   51.1580   29.4830   51.6800 C   0  0  0  0  0  0  0  0  0  0  0  0
   52.1270   30.4500   51.7440 C   0  0  0  0  0  0  0  0  0  0  0  0
   53.3570   30.3890   52.4360 N   0  0  0  0  0  0  0  0  0  0  0  0
   51.8780   31.5850   51.0730 N   0  0  0  0  0  0  0  0  0  0  0  0
   50.7500   31.7690   50.3790 C   0  0  0  0  0  0  0  0  0  0  0  0
   50.5460   32.8400   49.7680 O   0  0  0  0  0  0  0  0  0  0  0  0
   49.0592   31.6498   47.7344 H   0  0  0  0  0  0  0  0  0  0  0  0
   47.6992   32.7131   45.9096 H   0  0  0  0  0  0  0  0  0  0  0  0
   45.7300   30.2232   45.9683 H   0  0  0  0  0  0  0  0  0  0  0  0
   47.1363   29.8050   45.4327 H   0  0  0  0  0  0  0  0  0  0  0  0
   46.7352   30.7034   48.5139 H   0  0  0  0  0  0  0  0  0  0  0  0
   43.7913   36.6070   45.0229 H   0  0  0  0  0  0  0  0  0  0  0  0
   44.9155   36.5171   42.7924 H   0  0  0  0  0  0  0  0  0  0  0  0
   46.5795   34.6334   42.4044 H   0  0  0  0  0  0  0  0  0  0  0  0
   49.5457   28.9314   48.5062 H   0  0  0  0  0  0  0  0  0  0  0  0
   48.5264   28.9098   47.0273 H   0  0  0  0  0  0  0  0  0  0  0  0
   50.0903   29.7934   47.0273 H   0  0  0  0  0  0  0  0  0  0  0  0
   47.9309   31.7006   49.8866 H   0  0  0  0  0  0  0  0  0  0  0  0
   48.0968   29.8379   49.8761 H   0  0  0  0  0  0  0  0  0  0  0  0
   49.2515   28.9240   50.9168 H   0  0  0  0  0  0  0  0  0  0  0  0
   51.2934   28.5266   52.2062 H   0  0  0  0  0  0  0  0  0  0  0  0
   54.0050   31.1891   52.4061 H   0  0  0  0  0  0  0  0  0  0  0  0
   53.6059   29.5444   52.9705 H   0  0  0  0  0  0  0  0  0  0  0  0
  1 14  1  0
  2  5  1  0
  2  4  1  0
  3  2  1  0
  3  4  1  0
  4  1  1  0
  5  6  2  0
  7 12  2  0
  8  7  1  0
  9  8  2  0
  9 10  1  0
 10 11  2  0
 11 12  1  0
 11  5  1  0
 13  1  1  0
 14 15  1  0
 15 21  1  0
 15 16  1  0
 16 17  2  0
 17 18  1  0
 18 19  1  0
 20 18  2  0
 21 20  1  0
 22 21  2  0
  1 23  1  6
  2 24  1  6
  3 25  1  0
  3 26  1  0
  4 27  1  1
  7 28  1  0
  8 29  1  0
  9 30  1  0
 13 31  1  0
 13 32  1  0
 13 33  1  0
 14 34  1  0
 14 35  1  0
 16 36  1  0
 17 37  1  0
 19 38  1  0
 19 39  1  0
M  ISO  8  23   8  24  13  25  13  26  13  27  13  28  14  29  14  30  14
M  ISO  7  31   8  32   8  33   8  34   8  35   8  36  14  37  14
M  END
>  <minimizedAffinity>  (1) 
-5.41077328

>  <minimizedRMSD>  (1) 
3.12950683

$$$$
