
     RDKit          3D

 41 43  0  0  1  0  0  0  0  0999 V2000
   46.6610   30.6730   48.2880 C   0  0  2  0  0  0  0  0  0  0  0  0
   47.1530   32.0480   48.5190 C   0  0  0  0  0  0  0  0  0  0  0  0
   48.0790   31.0860   47.8640 C   0  0  1  0  0  0  0  0  0  0  0  0
   45.7240   30.4060   47.1390 C   0  0  0  0  0  0  0  0  0  0  0  0
   45.5840   31.3490   46.3010 O   0  0  0  0  0  0  0  0  0  0  0  0
   43.5900   27.7100   45.9580 C   0  0  0  0  0  0  0  0  0  0  0  0
   43.7580   26.6960   46.9050 C   0  0  0  0  0  0  0  0  0  0  0  0
   44.6240   26.9790   47.9450 C   0  0  0  0  0  0  0  0  0  0  0  0
   45.2280   28.1890   47.9660 N   0  0  0  0  0  0  0  0  0  0  0  0
   45.0370   29.1360   47.0350 C   0  0  0  0  0  0  0  0  0  0  0  0
   44.1970   28.8900   46.0060 N   0  0  0  0  0  0  0  0  0  0  0  0
   49.1650   30.3690   48.5330 C   0  0  2  0  0  0  0  0  0  0  0  0
   49.1470   28.8740   48.2850 C   0  0  0  0  0  0  0  0  0  0  0  0
   49.1400   30.6320   50.0190 C   0  0  0  0  0  0  0  0  0  0  0  0
   50.4400   31.0550   50.3690 N   0  0  0  0  0  0  0  0  0  0  0  0
   51.0440   30.4770   51.4920 C   0  0  0  0  0  0  0  0  0  0  0  0
   51.6390   31.4770   52.4670 C   0  0  0  0  0  0  0  0  0  0  0  0
   52.2800   32.4910   51.7630 O   0  0  0  0  0  0  0  0  0  0  0  0
   51.4310   33.1970   50.9270 C   0  0  0  0  0  0  0  0  0  0  0  0
   50.9590   32.2430   49.8460 C   0  0  0  0  0  0  0  0  0  0  0  0
   46.1936   29.9195   48.9389 H   0  0  0  0  0  0  0  0  0  0  0  0
   46.7327   32.8805   47.9356 H   0  0  0  0  0  0  0  0  0  0  0  0
   47.2256   32.6938   49.4065 H   0  0  0  0  0  0  0  0  0  0  0  0
   48.6984   31.1723   46.9591 H   0  0  0  0  0  0  0  0  0  0  0  0
   42.9089   27.5176   45.1160 H   0  0  0  0  0  0  0  0  0  0  0  0
   43.2336   25.7322   46.8277 H   0  0  0  0  0  0  0  0  0  0  0  0
   44.8169   26.2387   48.7354 H   0  0  0  0  0  0  0  0  0  0  0  0
   50.0955   30.7580   48.0938 H   0  0  0  0  0  0  0  0  0  0  0  0
   49.1406   28.3426   49.2481 H   0  0  0  0  0  0  0  0  0  0  0  0
   48.2456   28.6080   47.7134 H   0  0  0  0  0  0  0  0  0  0  0  0
   50.0417   28.5863   47.7134 H   0  0  0  0  0  0  0  0  0  0  0  0
   48.4075   31.4182   50.2542 H   0  0  0  0  0  0  0  0  0  0  0  0
   48.8486   29.7314   50.5793 H   0  0  0  0  0  0  0  0  0  0  0  0
   50.2848   29.8861   52.0253 H   0  0  0  0  0  0  0  0  0  0  0  0
   51.8792   29.8654   51.1200 H   0  0  0  0  0  0  0  0  0  0  0  0
   50.8367   31.9096   53.0828 H   0  0  0  0  0  0  0  0  0  0  0  0
   52.3664   30.9664   53.1153 H   0  0  0  0  0  0  0  0  0  0  0  0
   50.5695   33.5738   51.4978 H   0  0  0  0  0  0  0  0  0  0  0  0
   51.9518   34.0584   50.4834 H   0  0  0  0  0  0  0  0  0  0  0  0
   51.8110   31.9989   49.1945 H   0  0  0  0  0  0  0  0  0  0  0  0
   50.1531   32.7425   49.2883 H   0  0  0  0  0  0  0  0  0  0  0  0
  1  2  1  0
  3  1  1  0
  3  2  1  0
  3 12  1  0
  4  1  1  0
  5  4  2  0
  6 11  2  0
  6  7  1  0
  7  8  2  0
  8  9  1  0
 10  4  1  0
 10  9  2  0
 11 10  1  0
 12 14  1  0
 13 12  1  0
 14 15  1  0
 15 16  1  0
 16 17  1  0
 18 17  1  0
 19 18  1  0
 20 15  1  0
 20 19  1  0
  1 21  1  1
  2 22  1  0
  2 23  1  0
  3 24  1  6
  6 25  1  0
  7 26  1  0
  8 27  1  0
 12 28  1  6
 13 29  1  0
 13 30  1  0
 13 31  1  0
 14 32  1  0
 14 33  1  0
 16 34  1  0
 16 35  1  0
 17 36  1  0
 17 37  1  0
 19 38  1  0
 19 39  1  0
 20 40  1  0
 20 41  1  0
M  ISO  8  21  13  22  13  23  13  24  13  25  14  26  14  27  14  28   8
M  ISO  8  29   8  30   8  31   8  32   8  33   8  34  13  35  13  36  13
M  ISO  5  37  13  38  13  39  13  40  13  41  13
M  END
>  <minimizedAffinity>  (1) 
-3.99304581

>  <minimizedRMSD>  (1) 
5.18997002

$$$$
