
     RDKit          3D

 35 37  0  0  1  0  0  0  0  0999 V2000
   46.1160   31.6020   47.5130 C   0  0  2  0  0  0  0  0  0  0  0  0
   45.8060   31.1600   48.8920 C   0  0  0  0  0  0  0  0  0  0  0  0
   47.1430   31.7580   48.6370 C   0  0  1  0  0  0  0  0  0  0  0  0
   45.5350   32.8940   47.0010 C   0  0  0  0  0  0  0  0  0  0  0  0
   44.7060   33.4680   47.7720 O   0  0  0  0  0  0  0  0  0  0  0  0
   45.6050   34.8400   43.9300 C   0  0  0  0  0  0  0  0  0  0  0  0
   46.7090   34.3340   43.2310 C   0  0  0  0  0  0  0  0  0  0  0  0
   47.4160   33.3150   43.8590 C   0  0  0  0  0  0  0  0  0  0  0  0
   46.9840   32.9070   45.0710 N   0  0  0  0  0  0  0  0  0  0  0  0
   45.9090   33.4250   45.7110 C   0  0  0  0  0  0  0  0  0  0  0  0
   45.2140   34.4040   45.1290 N   0  0  0  0  0  0  0  0  0  0  0  0
   48.3860   31.0080   48.4480 C   0  0  2  0  0  0  0  0  0  0  0  0
   48.1540   29.5940   47.9300 C   0  0  0  0  0  0  0  0  0  0  0  0
   49.1470   30.9090   49.7420 C   0  0  0  0  0  0  0  0  0  0  0  0
   50.4820   31.5090   49.6850 C   0  0  0  0  0  0  0  0  0  0  0  0
   50.9590   32.6850   50.2260 C   0  0  0  0  0  0  0  0  0  0  0  0
   52.2660   32.8220   49.9080 N   0  0  0  0  0  0  0  0  0  0  0  0
   52.5840   31.7210   49.1680 C   0  0  0  0  0  0  0  0  0  0  0  0
   51.5060   30.9230   49.0300 N   0  0  0  0  0  0  0  0  0  0  0  0
   46.0597   31.1117   46.5299 H   0  0  0  0  0  0  0  0  0  0  0  0
   45.0664   31.7149   49.4879 H   0  0  0  0  0  0  0  0  0  0  0  0
   45.4629   30.2125   49.3330 H   0  0  0  0  0  0  0  0  0  0  0  0
   47.6996   32.5423   49.1709 H   0  0  0  0  0  0  0  0  0  0  0  0
   45.0240   35.6476   43.4607 H   0  0  0  0  0  0  0  0  0  0  0  0
   46.9993   34.7206   42.2429 H   0  0  0  0  0  0  0  0  0  0  0  0
   48.2967   32.8572   43.3848 H   0  0  0  0  0  0  0  0  0  0  0  0
   48.9609   31.5667   47.6947 H   0  0  0  0  0  0  0  0  0  0  0  0
   48.0411   28.9058   48.7807 H   0  0  0  0  0  0  0  0  0  0  0  0
   47.2404   29.5731   47.3177 H   0  0  0  0  0  0  0  0  0  0  0  0
   49.0130   29.2823   47.3177 H   0  0  0  0  0  0  0  0  0  0  0  0
   48.5689   31.4210   50.5254 H   0  0  0  0  0  0  0  0  0  0  0  0
   49.2835   29.8384   49.9546 H   0  0  0  0  0  0  0  0  0  0  0  0
   50.3697   33.3979   50.8214 H   0  0  0  0  0  0  0  0  0  0  0  0
   53.5778   31.5139   48.7444 H   0  0  0  0  0  0  0  0  0  0  0  0
   51.4706   30.0298   48.5184 H   0  0  0  0  0  0  0  0  0  0  0  0
  1  3  1  0
  1  2  1  0
  3  2  1  0
  4  1  1  0
  4  5  2  0
  6 11  2  0
  7  8  2  0
  7  6  1  0
  8  9  1  0
  9 10  2  0
 10  4  1  0
 11 10  1  0
 12  3  1  0
 12 14  1  0
 13 12  1  0
 15 14  1  0
 15 16  2  0
 17 16  1  0
 18 17  2  0
 19 18  1  0
 19 15  1  0
  1 20  1  6
  2 21  1  0
  2 22  1  0
  3 23  1  1
  6 24  1  0
  7 25  1  0
  8 26  1  0
 12 27  1  6
 13 28  1  0
 13 29  1  0
 13 30  1  0
 14 31  1  0
 14 32  1  0
 16 33  1  0
 18 34  1  0
 19 35  1  0
M  ISO  8  20  13  21  13  22  13  23  13  24  14  25  14  26  14  27   8
M  ISO  8  28   8  29   8  30   8  31   8  32   8  33  14  34  14  35   9
M  END
>  <minimizedAffinity>  (1) 
-4.75220728

>  <minimizedRMSD>  (1) 
2.3668654

$$$$
