
     RDKit          3D

 33 35  0  0  1  0  0  0  0  0999 V2000
   46.8000   31.9340   45.8850 C   0  0  2  0  0  0  0  0  0  0  0  0
   46.2310   30.6480   45.4180 C   0  0  0  0  0  0  0  0  0  0  0  0
   46.6820   30.7340   46.8310 C   0  0  1  0  0  0  0  0  0  0  0  0
   45.8760   33.0830   46.2080 C   0  0  0  0  0  0  0  0  0  0  0  0
   45.3620   33.0670   47.3690 O   0  0  0  0  0  0  0  0  0  0  0  0
   44.5220   36.0250   44.5510 C   0  0  0  0  0  0  0  0  0  0  0  0
   45.1460   36.0260   43.3000 C   0  0  0  0  0  0  0  0  0  0  0  0
   46.0390   34.9920   43.0630 C   0  0  0  0  0  0  0  0  0  0  0  0
   46.2320   34.0810   44.0410 N   0  0  0  0  0  0  0  0  0  0  0  0
   45.6180   34.1080   45.2280 C   0  0  0  0  0  0  0  0  0  0  0  0
   44.7390   35.1040   45.4970 N   0  0  0  0  0  0  0  0  0  0  0  0
   47.9520   30.2230   47.3530 C   0  0  2  0  0  0  0  0  0  0  0  0
   48.0780   28.7130   47.2180 C   0  0  0  0  0  0  0  0  0  0  0  0
   48.1230   30.5910   48.8020 C   0  0  0  0  0  0  0  0  0  0  0  0
   49.4830   31.0290   49.1270 C   0  0  0  0  0  0  0  0  0  0  0  0
   49.8380   32.2440   49.6040 N   0  0  0  0  0  0  0  0  0  0  0  0
   51.1300   32.2840   49.7800 O   0  0  0  0  0  0  0  0  0  0  0  0
   51.6580   31.1150   49.4310 C   0  0  0  0  0  0  0  0  0  0  0  0
   50.6460   30.3270   49.0240 N   0  0  0  0  0  0  0  0  0  0  0  0
   47.5942   32.5924   45.5031 H   0  0  0  0  0  0  0  0  0  0  0  0
   45.1564   30.5784   45.1934 H   0  0  0  0  0  0  0  0  0  0  0  0
   46.4586   29.9696   44.5826 H   0  0  0  0  0  0  0  0  0  0  0  0
   46.1865   30.4428   47.7689 H   0  0  0  0  0  0  0  0  0  0  0  0
   43.8078   36.8320   44.7714 H   0  0  0  0  0  0  0  0  0  0  0  0
   44.9406   36.8017   42.5476 H   0  0  0  0  0  0  0  0  0  0  0  0
   46.5750   34.9160   42.1055 H   0  0  0  0  0  0  0  0  0  0  0  0
   48.7394   30.6920   46.7447 H   0  0  0  0  0  0  0  0  0  0  0  0
   48.1160   28.2573   48.2185 H   0  0  0  0  0  0  0  0  0  0  0  0
   47.2095   28.3202   46.6690 H   0  0  0  0  0  0  0  0  0  0  0  0
   48.9996   28.4696   46.6690 H   0  0  0  0  0  0  0  0  0  0  0  0
   47.4258   31.4077   49.0405 H   0  0  0  0  0  0  0  0  0  0  0  0
   47.9183   29.6882   49.3961 H   0  0  0  0  0  0  0  0  0  0  0  0
   52.7231   30.8427   49.4680 H   0  0  0  0  0  0  0  0  0  0  0  0
  1  4  1  0
  1  3  1  0
  2  1  1  0
  2  3  1  0
  3 12  1  0
  4  5  2  0
  6 11  2  0
  7  6  1  0
  8  7  2  0
  8  9  1  0
  9 10  2  0
 10 11  1  0
 10  4  1  0
 12 14  1  0
 13 12  1  0
 14 15  1  0
 15 16  2  0
 16 17  1  0
 18 17  1  0
 19 15  1  0
 19 18  2  0
  1 20  1  6
  2 21  1  0
  2 22  1  0
  3 23  1  1
  6 24  1  0
  7 25  1  0
  8 26  1  0
 12 27  1  6
 13 28  1  0
 13 29  1  0
 13 30  1  0
 14 31  1  0
 14 32  1  0
 18 33  1  0
M  ISO  8  20  13  21  13  22  13  23  13  24  14  25  14  26  14  27   8
M  ISO  6  28   8  29   8  30   8  31   8  32   8  33  14
M  END
>  <minimizedAffinity>  (1) 
-4.68500233

>  <minimizedRMSD>  (1) 
1.91272855

$$$$
