
     RDKit          3D

 35 37  0  0  1  0  0  0  0  0999 V2000
   46.6450   31.9400   46.2630 C   0  0  2  0  0  0  0  0  0  0  0  0
   46.1180   30.5580   46.3070 C   0  0  0  0  0  0  0  0  0  0  0  0
   46.8350   31.0590   47.5060 C   0  0  1  0  0  0  0  0  0  0  0  0
   45.7050   33.1000   46.4510 C   0  0  0  0  0  0  0  0  0  0  0  0
   45.0970   33.1450   47.5630 O   0  0  0  0  0  0  0  0  0  0  0  0
   44.5660   36.0000   44.5650 C   0  0  0  0  0  0  0  0  0  0  0  0
   45.2490   35.8880   43.3510 C   0  0  0  0  0  0  0  0  0  0  0  0
   46.0940   34.8100   43.2070 C   0  0  0  0  0  0  0  0  0  0  0  0
   46.1950   33.9530   44.2470 N   0  0  0  0  0  0  0  0  0  0  0  0
   45.5330   34.0790   45.4000 C   0  0  0  0  0  0  0  0  0  0  0  0
   44.6930   35.1280   45.5740 N   0  0  0  0  0  0  0  0  0  0  0  0
   48.2280   30.7590   47.8500 C   0  0  2  0  0  0  0  0  0  0  0  0
   48.5250   29.2720   47.8650 C   0  0  0  0  0  0  0  0  0  0  0  0
   48.5850   31.3460   49.1920 C   0  0  0  0  0  0  0  0  0  0  0  0
   50.0730   31.2740   49.4520 C   0  0  0  0  0  0  0  0  0  0  0  0
   50.4930   31.2690   50.8740 C   0  0  0  0  0  0  0  0  0  0  0  0
   50.7960   32.4430   50.0060 C   0  0  0  0  0  0  0  0  0  0  0  0
   47.2795   32.4856   45.5491 H   0  0  0  0  0  0  0  0  0  0  0  0
   45.0316   30.3921   46.3536 H   0  0  0  0  0  0  0  0  0  0  0  0
   46.2349   29.6755   45.6609 H   0  0  0  0  0  0  0  0  0  0  0  0
   46.5699   31.0346   48.5733 H   0  0  0  0  0  0  0  0  0  0  0  0
   43.8849   36.8532   44.6998 H   0  0  0  0  0  0  0  0  0  0  0  0
   45.1177   36.6272   42.5470 H   0  0  0  0  0  0  0  0  0  0  0  0
   46.6652   34.6525   42.2802 H   0  0  0  0  0  0  0  0  0  0  0  0
   48.8420   31.2175   47.0608 H   0  0  0  0  0  0  0  0  0  0  0  0
   48.5948   28.9225   48.9057 H   0  0  0  0  0  0  0  0  0  0  0  0
   47.7171   28.7315   47.3501 H   0  0  0  0  0  0  0  0  0  0  0  0
   49.4786   29.0833   47.3501 H   0  0  0  0  0  0  0  0  0  0  0  0
   48.2687   32.3992   49.2167 H   0  0  0  0  0  0  0  0  0  0  0  0
   48.0707   30.7635   49.9706 H   0  0  0  0  0  0  0  0  0  0  0  0
   50.2351   30.6397   48.5680 H   0  0  0  0  0  0  0  0  0  0  0  0
   49.7395   31.3534   51.6710 H   0  0  0  0  0  0  0  0  0  0  0  0
   51.0874   30.5951   51.5085 H   0  0  0  0  0  0  0  0  0  0  0  0
   51.8320   32.6465   49.6972 H   0  0  0  0  0  0  0  0  0  0  0  0
   50.6012   33.5241   50.0623 H   0  0  0  0  0  0  0  0  0  0  0  0
  1  2  1  0
  1  4  1  0
  1  3  1  0
  2  3  1  0
  3 12  1  0
  4  5  2  0
  6 11  2  0
  7  6  1  0
  8  7  2  0
  8  9  1  0
  9 10  2  0
 10 11  1  0
 10  4  1  0
 12 13  1  0
 12 14  1  0
 14 15  1  0
 15 17  1  0
 15 16  1  0
 17 16  1  0
  1 18  1  6
  2 19  1  0
  2 20  1  0
  3 21  1  1
  6 22  1  0
  7 23  1  0
  8 24  1  0
 12 25  1  6
 13 26  1  0
 13 27  1  0
 13 28  1  0
 14 29  1  0
 14 30  1  0
 15 31  1  0
 16 32  1  0
 16 33  1  0
 17 34  1  0
 17 35  1  0
M  ISO  8  18  13  19  13  20  13  21  13  22  14  23  14  24  14  25   8
M  ISO  8  26   8  27   8  28   8  29   8  30   8  31  13  32  13  33  13
M  ISO  2  34  13  35  13
M  END
>  <minimizedAffinity>  (1) 
-4.83532143

>  <minimizedRMSD>  (1) 
0.218657777

$$$$
