
     RDKit          3D

 40 42  0  0  1  0  0  0  0  0999 V2000
   47.2280   30.4440   45.8990 C   0  0  2  0  0  0  0  0  0  0  0  0
   47.1940   29.1460   46.6120 C   0  0  0  0  0  0  0  0  0  0  0  0
   46.6640   30.3300   47.3220 C   0  0  1  0  0  0  0  0  0  0  0  0
   46.1990   30.7280   44.8450 C   0  0  0  0  0  0  0  0  0  0  0  0
   45.4140   29.7780   44.5470 O   0  0  0  0  0  0  0  0  0  0  0  0
   45.0100   33.6380   43.0080 C   0  0  0  0  0  0  0  0  0  0  0  0
   46.1250   34.4920   42.9730 C   0  0  0  0  0  0  0  0  0  0  0  0
   47.2840   34.0370   43.6130 C   0  0  0  0  0  0  0  0  0  0  0  0
   47.2160   32.8220   44.1980 N   0  0  0  0  0  0  0  0  0  0  0  0
   46.1280   32.0320   44.2080 C   0  0  0  0  0  0  0  0  0  0  0  0
   45.0160   32.4540   43.6040 N   0  0  0  0  0  0  0  0  0  0  0  0
   47.3810   31.1120   48.3370 C   0  0  2  0  0  0  0  0  0  0  0  0
   47.4400   32.5890   48.0130 C   0  0  0  0  0  0  0  0  0  0  0  0
   48.7800   30.6030   48.5190 C   0  0  0  0  0  0  0  0  0  0  0  0
   49.2050   30.5130   49.8930 N   0  0  0  0  0  0  0  0  0  0  0  0
   50.1440   31.5360   50.2550 C   0  0  0  0  0  0  0  0  0  0  0  0
   51.0030   30.9680   51.3650 C   0  0  0  0  0  0  0  0  0  0  0  0
   50.5700   29.5080   51.4270 C   0  0  0  0  0  0  0  0  0  0  0  0
   50.0230   29.2980   50.0330 C   0  0  0  0  0  0  0  0  0  0  0  0
   48.0198   31.0039   45.3798 H   0  0  0  0  0  0  0  0  0  0  0  0
   46.5021   28.3597   46.2758 H   0  0  0  0  0  0  0  0  0  0  0  0
   47.9537   28.3881   46.8538 H   0  0  0  0  0  0  0  0  0  0  0  0
   45.7253   30.4798   47.8755 H   0  0  0  0  0  0  0  0  0  0  0  0
   44.0839   33.9691   42.5152 H   0  0  0  0  0  0  0  0  0  0  0  0
   46.0892   35.4687   42.4683 H   0  0  0  0  0  0  0  0  0  0  0  0
   48.2041   34.6393   43.6380 H   0  0  0  0  0  0  0  0  0  0  0  0
   46.8073   30.9885   49.2674 H   0  0  0  0  0  0  0  0  0  0  0  0
   47.4632   33.1687   48.9475 H   0  0  0  0  0  0  0  0  0  0  0  0
   48.3473   32.8001   47.4280 H   0  0  0  0  0  0  0  0  0  0  0  0
   46.5524   32.8718   47.4280 H   0  0  0  0  0  0  0  0  0  0  0  0
   48.8421   29.5994   48.0729 H   0  0  0  0  0  0  0  0  0  0  0  0
   49.4454   31.3302   48.0308 H   0  0  0  0  0  0  0  0  0  0  0  0
   50.7694   31.7996   49.3893 H   0  0  0  0  0  0  0  0  0  0  0  0
   49.6260   32.4488   50.5844 H   0  0  0  0  0  0  0  0  0  0  0  0
   52.0719   31.0525   51.1193 H   0  0  0  0  0  0  0  0  0  0  0  0
   50.8774   31.4965   52.3215 H   0  0  0  0  0  0  0  0  0  0  0  0
   51.4233   28.8437   51.6284 H   0  0  0  0  0  0  0  0  0  0  0  0
   49.8512   29.2864   52.2296 H   0  0  0  0  0  0  0  0  0  0  0  0
   49.4126   28.3853   49.9673 H   0  0  0  0  0  0  0  0  0  0  0  0
   50.7856   29.1607   49.2522 H   0  0  0  0  0  0  0  0  0  0  0  0
  1  2  1  0
  1  3  1  0
  2  3  1  0
  3 12  1  0
  4  1  1  0
  5  4  2  0
  6 11  2  0
  7  6  1  0
  7  8  2  0
  8  9  1  0
  9 10  2  0
 10  4  1  0
 11 10  1  0
 12 14  1  0
 13 12  1  0
 14 15  1  0
 15 19  1  0
 15 16  1  0
 16 17  1  0
 17 18  1  0
 19 18  1  0
  1 20  1  1
  2 21  1  0
  2 22  1  0
  3 23  1  6
  6 24  1  0
  7 25  1  0
  8 26  1  0
 12 27  1  1
 13 28  1  0
 13 29  1  0
 13 30  1  0
 14 31  1  0
 14 32  1  0
 16 33  1  0
 16 34  1  0
 17 35  1  0
 17 36  1  0
 18 37  1  0
 18 38  1  0
 19 39  1  0
 19 40  1  0
M  ISO  8  20  13  21  13  22  13  23  13  24  14  25  14  26  14  27   8
M  ISO  8  28   8  29   8  30   8  31   8  32   8  33  13  34  13  35  13
M  ISO  5  36  13  37  13  38  13  39  13  40  13
M  END
>  <minimizedAffinity>  (1) 
-3.95513892

>  <minimizedRMSD>  (1) 
3.07936668

$$$$
