
     RDKit          3D

 29 30  0  0  1  0  0  0  0  0999 V2000
   46.4620   31.9300   46.2750 C   0  0  2  0  0  0  0  0  0  0  0  0
   45.8610   30.5880   46.4420 C   0  0  0  0  0  0  0  0  0  0  0  0
   46.6960   31.1150   47.5540 C   0  0  1  0  0  0  0  0  0  0  0  0
   45.6000   33.1540   46.4520 C   0  0  0  0  0  0  0  0  0  0  0  0
   45.0210   33.2570   47.5780 O   0  0  0  0  0  0  0  0  0  0  0  0
   44.5770   36.0490   44.5240 C   0  0  0  0  0  0  0  0  0  0  0  0
   45.2700   35.9190   43.3130 C   0  0  0  0  0  0  0  0  0  0  0  0
   46.0850   34.8110   43.2000 C   0  0  0  0  0  0  0  0  0  0  0  0
   46.1460   33.9600   44.2470 N   0  0  0  0  0  0  0  0  0  0  0  0
   45.4660   34.1200   45.3940 C   0  0  0  0  0  0  0  0  0  0  0  0
   44.6600   35.1920   45.5330 N   0  0  0  0  0  0  0  0  0  0  0  0
   48.0890   30.7490   47.8140 C   0  0  2  0  0  0  0  0  0  0  0  0
   48.3140   29.2440   47.8130 C   0  0  0  0  0  0  0  0  0  0  0  0
   48.5690   31.3210   49.1190 C   0  0  0  0  0  0  0  0  0  0  0  0
   48.7080   30.4300   50.1440 O   0  0  0  0  0  0  0  0  0  0  0  0
   47.0735   32.3937   45.4870 H   0  0  0  0  0  0  0  0  0  0  0  0
   44.7735   30.4924   46.5770 H   0  0  0  0  0  0  0  0  0  0  0  0
   45.8775   29.6638   45.8457 H   0  0  0  0  0  0  0  0  0  0  0  0
   46.5125   31.1716   48.6371 H   0  0  0  0  0  0  0  0  0  0  0  0
   43.9189   36.9219   44.6463 H   0  0  0  0  0  0  0  0  0  0  0  0
   45.1705   36.6553   42.5018 H   0  0  0  0  0  0  0  0  0  0  0  0
   46.6672   34.6266   42.2851 H   0  0  0  0  0  0  0  0  0  0  0  0
   48.6710   31.1795   46.9858 H   0  0  0  0  0  0  0  0  0  0  0  0
   48.3683   28.8807   48.8499 H   0  0  0  0  0  0  0  0  0  0  0  0
   47.4799   28.7489   47.2942 H   0  0  0  0  0  0  0  0  0  0  0  0
   49.2564   29.0145   47.2942 H   0  0  0  0  0  0  0  0  0  0  0  0
   49.5493   31.7877   48.9425 H   0  0  0  0  0  0  0  0  0  0  0  0
   47.7885   32.0263   49.4406 H   0  0  0  0  0  0  0  0  0  0  0  0
   48.6336   30.9070   51.0083 H   0  0  0  0  0  0  0  0  0  0  0  0
  1  2  1  0
  1  4  1  0
  1  3  1  0
  2  3  1  0
  3 12  1  0
  4  5  2  0
  6 11  2  0
  7  6  1  0
  8  7  2  0
  8  9  1  0
  9 10  2  0
 10 11  1  0
 10  4  1  0
 12 14  1  0
 13 12  1  0
 14 15  1  0
  1 16  1  6
  2 17  1  0
  2 18  1  0
  3 19  1  1
  6 20  1  0
  7 21  1  0
  8 22  1  0
 12 23  1  6
 13 24  1  0
 13 25  1  0
 13 26  1  0
 14 27  1  0
 14 28  1  0
 15 29  1  0
M  ISO  8  16  13  17  13  18  13  19  13  20  14  21  14  22  14  23   8
M  ISO  6  24   8  25   8  26   8  27   8  28   8  29   3
M  END
>  <minimizedAffinity>  (1) 
-4.62336063

>  <minimizedRMSD>  (1) 
0.247065634

$$$$
