
     RDKit          3D

 47 50  0  0  1  0  0  0  0  0999 V2000
   48.4080   30.8270   47.9640 C   0  0  2  0  0  0  0  0  0  0  0  0
   47.0190   32.1190   46.3030 C   0  0  2  0  0  0  0  0  0  0  0  0
   46.6450   30.6820   46.0140 C   0  0  0  0  0  0  0  0  0  0  0  0
   47.1020   31.0500   47.3600 C   0  0  1  0  0  0  0  0  0  0  0  0
   45.8760   33.1090   46.4580 C   0  0  0  0  0  0  0  0  0  0  0  0
   45.2000   32.9840   47.5410 O   0  0  0  0  0  0  0  0  0  0  0  0
   44.4780   35.9370   44.6670 C   0  0  0  0  0  0  0  0  0  0  0  0
   45.1100   35.8880   43.4130 C   0  0  0  0  0  0  0  0  0  0  0  0
   46.0330   34.8540   43.2250 C   0  0  0  0  0  0  0  0  0  0  0  0
   46.2320   34.0060   44.2520 N   0  0  0  0  0  0  0  0  0  0  0  0
   45.6050   34.0860   45.4430 C   0  0  0  0  0  0  0  0  0  0  0  0
   44.7010   35.0730   45.6730 N   0  0  0  0  0  0  0  0  0  0  0  0
   49.0800   29.5590   47.4650 C   0  0  0  0  0  0  0  0  0  0  0  0
   48.3160   30.7440   49.4640 C   0  0  0  0  0  0  0  0  0  0  0  0
   49.6040   30.7450   50.1640 C   0  0  0  0  0  0  0  0  0  0  0  0
   50.2710   29.7190   50.8020 C   0  0  0  0  0  0  0  0  0  0  0  0
   51.4840   29.9290   51.3970 C   0  0  0  0  0  0  0  0  0  0  0  0
   52.0190   31.1580   51.3510 N   0  0  0  0  0  0  0  0  0  0  0  0
   51.3960   32.1900   50.7360 C   0  0  0  0  0  0  0  0  0  0  0  0
   50.2040   31.9650   50.1550 N   0  0  0  0  0  0  0  0  0  0  0  0
   52.0220   33.4670   50.7260 N   0  0  0  0  0  0  0  0  0  0  0  0
   51.0860   34.4350   50.5090 C   0  0  0  0  0  0  0  0  0  0  0  0
   51.4550   35.7820   50.4540 C   0  0  0  0  0  0  0  0  0  0  0  0
   52.8090   36.0770   50.6310 C   0  0  0  0  0  0  0  0  0  0  0  0
   53.2380   37.4310   50.5860 N   0  0  0  0  0  0  0  0  0  0  0  0
   53.6760   35.0760   50.8410 N   0  0  0  0  0  0  0  0  0  0  0  0
   53.3000   33.7880   50.8890 C   0  0  0  0  0  0  0  0  0  0  0  0
   54.0470   32.7990   51.0800 O   0  0  0  0  0  0  0  0  0  0  0  0
   49.0153   31.6943   47.6657 H   0  0  0  0  0  0  0  0  0  0  0  0
   47.7061   32.8531   45.8569 H   0  0  0  0  0  0  0  0  0  0  0  0
   45.5916   30.4126   45.8473 H   0  0  0  0  0  0  0  0  0  0  0  0
   46.9565   29.9362   45.2678 H   0  0  0  0  0  0  0  0  0  0  0  0
   46.6699   30.8006   48.3404 H   0  0  0  0  0  0  0  0  0  0  0  0
   43.7472   36.7411   44.8383 H   0  0  0  0  0  0  0  0  0  0  0  0
   44.8911   36.6218   42.6233 H   0  0  0  0  0  0  0  0  0  0  0  0
   46.5753   34.7380   42.2750 H   0  0  0  0  0  0  0  0  0  0  0  0
   49.4017   28.9520   48.3241 H   0  0  0  0  0  0  0  0  0  0  0  0
   48.3688   28.9829   46.8548 H   0  0  0  0  0  0  0  0  0  0  0  0
   49.9560   29.8240   46.8548 H   0  0  0  0  0  0  0  0  0  0  0  0
   47.7341   31.6075   49.8186 H   0  0  0  0  0  0  0  0  0  0  0  0
   47.8435   29.7768   49.6903 H   0  0  0  0  0  0  0  0  0  0  0  0
   49.8196   28.7163   50.8323 H   0  0  0  0  0  0  0  0  0  0  0  0
   52.0105   29.1065   51.9032 H   0  0  0  0  0  0  0  0  0  0  0  0
   50.0311   34.1530   50.3761 H   0  0  0  0  0  0  0  0  0  0  0  0
   50.7124   36.5745   50.2791 H   0  0  0  0  0  0  0  0  0  0  0  0
   54.2338   37.6603   50.7152 H   0  0  0  0  0  0  0  0  0  0  0  0
   52.5531   38.1831   50.4242 H   0  0  0  0  0  0  0  0  0  0  0  0
  1 14  1  0
  2  5  1  0
  2  4  1  0
  3  2  1  0
  3  4  1  0
  4  1  1  0
  5  6  2  0
  7 12  2  0
  8  7  1  0
  9  8  2  0
  9 10  1  0
 10 11  2  0
 11 12  1  0
 11  5  1  0
 13  1  1  0
 14 15  1  0
 15 16  2  0
 16 17  1  0
 18 17  2  0
 19 18  1  0
 20 15  1  0
 20 19  2  0
 21 19  1  0
 21 27  1  0
 22 21  1  0
 23 22  2  0
 23 24  1  0
 24 26  2  0
 25 24  1  0
 26 27  1  0
 27 28  2  0
  1 29  1  1
  2 30  1  6
  3 31  1  0
  3 32  1  0
  4 33  1  1
  7 34  1  0
  8 35  1  0
  9 36  1  0
 13 37  1  0
 13 38  1  0
 13 39  1  0
 14 40  1  0
 14 41  1  0
 16 42  1  0
 17 43  1  0
 22 44  1  0
 23 45  1  0
 25 46  1  0
 25 47  1  0
M  ISO  8  29   8  30  13  31  13  32  13  33  13  34  14  35  14  36  14
M  ISO  8  37   8  38   8  39   8  40   8  41   8  42  14  43  14  44  14
M  ISO  1  45  14
M  END
>  <minimizedAffinity>  (1) 
-6.58690214

>  <minimizedRMSD>  (1) 
0.837940753

$$$$
