
     RDKit          3D

 46 49  0  0  1  0  0  0  0  0999 V2000
   48.3630   30.8280   47.9290 C   0  0  2  0  0  0  0  0  0  0  0  0
   47.0250   32.1440   46.2460 C   0  0  2  0  0  0  0  0  0  0  0  0
   46.6380   30.7130   45.9410 C   0  0  0  0  0  0  0  0  0  0  0  0
   47.0690   31.0620   47.2990 C   0  0  1  0  0  0  0  0  0  0  0  0
   45.8780   33.1400   46.3940 C   0  0  0  0  0  0  0  0  0  0  0  0
   45.1930   33.0260   47.4740 O   0  0  0  0  0  0  0  0  0  0  0  0
   44.4980   35.9630   44.5750 C   0  0  0  0  0  0  0  0  0  0  0  0
   45.1400   35.9010   43.3260 C   0  0  0  0  0  0  0  0  0  0  0  0
   46.0570   34.8660   43.1520 C   0  0  0  0  0  0  0  0  0  0  0  0
   46.2500   34.0220   44.1860 N   0  0  0  0  0  0  0  0  0  0  0  0
   45.6130   34.1140   45.3720 C   0  0  0  0  0  0  0  0  0  0  0  0
   44.7160   35.1000   45.5860 N   0  0  0  0  0  0  0  0  0  0  0  0
   49.0340   29.5510   47.4520 C   0  0  0  0  0  0  0  0  0  0  0  0
   48.2400   30.7650   49.4270 C   0  0  0  0  0  0  0  0  0  0  0  0
   49.5090   30.7410   50.1540 C   0  0  0  0  0  0  0  0  0  0  0  0
   50.1180   29.7200   50.8590 C   0  0  0  0  0  0  0  0  0  0  0  0
   51.3150   29.8990   51.4660 C   0  0  0  0  0  0  0  0  0  0  0  0
   51.9190   31.1100   51.3720 N   0  0  0  0  0  0  0  0  0  0  0  0
   51.3530   32.1290   50.6900 C   0  0  0  0  0  0  0  0  0  0  0  0
   50.1640   31.9290   50.0970 N   0  0  0  0  0  0  0  0  0  0  0  0
   52.0450   33.3730   50.6350 N   0  0  0  0  0  0  0  0  0  0  0  0
   51.3490   34.5120   50.9230 C   0  0  0  0  0  0  0  0  0  0  0  0
   52.0200   35.7340   50.8690 C   0  0  0  0  0  0  0  0  0  0  0  0
   53.3620   35.7770   50.5300 C   0  0  0  0  0  0  0  0  0  0  0  0
   53.9960   36.8810   50.4750 O   0  0  0  0  0  0  0  0  0  0  0  0
   53.9680   34.6050   50.2620 N   0  0  0  0  0  0  0  0  0  0  0  0
   53.3490   33.4090   50.3040 C   0  0  0  0  0  0  0  0  0  0  0  0
   54.0100   32.3730   50.0350 O   0  0  0  0  0  0  0  0  0  0  0  0
   48.9881   31.6834   47.6331 H   0  0  0  0  0  0  0  0  0  0  0  0
   47.7304   32.8719   45.8186 H   0  0  0  0  0  0  0  0  0  0  0  0
   45.5850   30.4596   45.7489 H   0  0  0  0  0  0  0  0  0  0  0  0
   46.9566   29.9683   45.1967 H   0  0  0  0  0  0  0  0  0  0  0  0
   46.6110   30.8040   48.2653 H   0  0  0  0  0  0  0  0  0  0  0  0
   43.7688   36.7703   44.7377 H   0  0  0  0  0  0  0  0  0  0  0  0
   44.9300   36.6298   42.5293 H   0  0  0  0  0  0  0  0  0  0  0  0
   46.6036   34.7420   42.2055 H   0  0  0  0  0  0  0  0  0  0  0  0
   49.3474   28.9546   48.3215 H   0  0  0  0  0  0  0  0  0  0  0  0
   48.3251   28.9692   46.8446 H   0  0  0  0  0  0  0  0  0  0  0  0
   49.9153   29.8047   46.8446 H   0  0  0  0  0  0  0  0  0  0  0  0
   47.6735   31.6473   49.7597 H   0  0  0  0  0  0  0  0  0  0  0  0
   47.7397   29.8118   49.6531 H   0  0  0  0  0  0  0  0  0  0  0  0
   49.6199   28.7417   50.9284 H   0  0  0  0  0  0  0  0  0  0  0  0
   51.7886   29.0782   52.0246 H   0  0  0  0  0  0  0  0  0  0  0  0
   50.2832   34.4670   51.1915 H   0  0  0  0  0  0  0  0  0  0  0  0
   51.4816   36.6659   51.0963 H   0  0  0  0  0  0  0  0  0  0  0  0
   54.9663   34.6238   50.0093 H   0  0  0  0  0  0  0  0  0  0  0  0
  1 14  1  0
  2  5  1  0
  2  4  1  0
  3  2  1  0
  3  4  1  0
  4  1  1  0
  5  6  2  0
  7 12  2  0
  8  7  1  0
  9  8  2  0
  9 10  1  0
 10 11  2  0
 11 12  1  0
 11  5  1  0
 13  1  1  0
 14 15  1  0
 15 16  2  0
 16 17  1  0
 18 17  2  0
 19 18  1  0
 20 15  1  0
 20 19  2  0
 21 19  1  0
 21 22  1  0
 23 22  2  0
 24 23  1  0
 25 24  2  0
 26 27  1  0
 26 24  1  0
 27 21  1  0
 28 27  2  0
  1 29  1  1
  2 30  1  6
  3 31  1  0
  3 32  1  0
  4 33  1  1
  7 34  1  0
  8 35  1  0
  9 36  1  0
 13 37  1  0
 13 38  1  0
 13 39  1  0
 14 40  1  0
 14 41  1  0
 16 42  1  0
 17 43  1  0
 22 44  1  0
 23 45  1  0
 26 46  1  0
M  ISO  8  29   8  30  13  31  13  32  13  33  13  34  14  35  14  36  14
M  ISO  8  37   8  38   8  39   8  40   8  41   8  42  14  43  14  44  14
M  ISO  2  45  14  46   9
M  END
>  <minimizedAffinity>  (1) 
-6.55120468

>  <minimizedRMSD>  (1) 
0.749466777

$$$$
