
     RDKit          3D

 49 53  0  0  1  0  0  0  0  0999 V2000
   48.4770   30.7850   47.9750 C   0  0  2  0  0  0  0  0  0  0  0  0
   47.1240   32.1210   46.3200 C   0  0  2  0  0  0  0  0  0  0  0  0
   46.8170   30.6910   45.9350 C   0  0  0  0  0  0  0  0  0  0  0  0
   47.1960   31.0000   47.3200 C   0  0  1  0  0  0  0  0  0  0  0  0
   45.9450   33.0660   46.4720 C   0  0  0  0  0  0  0  0  0  0  0  0
   45.2640   32.9040   47.5470 O   0  0  0  0  0  0  0  0  0  0  0  0
   44.4790   35.8830   44.7140 C   0  0  0  0  0  0  0  0  0  0  0  0
   45.0900   35.8400   43.4470 C   0  0  0  0  0  0  0  0  0  0  0  0
   46.0200   34.8210   43.2430 C   0  0  0  0  0  0  0  0  0  0  0  0
   46.2540   33.9710   44.2640 N   0  0  0  0  0  0  0  0  0  0  0  0
   45.6460   34.0440   45.4660 C   0  0  0  0  0  0  0  0  0  0  0  0
   44.7330   35.0180   45.7150 N   0  0  0  0  0  0  0  0  0  0  0  0
   49.0800   29.4270   47.6570 C   0  0  0  0  0  0  0  0  0  0  0  0
   48.3650   30.9070   49.4720 C   0  0  0  0  0  0  0  0  0  0  0  0
   49.6150   30.6990   50.2060 C   0  0  0  0  0  0  0  0  0  0  0  0
   50.0330   29.6160   50.9560 C   0  0  0  0  0  0  0  0  0  0  0  0
   51.2620   29.6200   51.5660 C   0  0  0  0  0  0  0  0  0  0  0  0
   52.0650   30.7090   51.4220 N   0  0  0  0  0  0  0  0  0  0  0  0
   51.6680   31.7600   50.6990 C   0  0  0  0  0  0  0  0  0  0  0  0
   50.4750   31.7620   50.1050 N   0  0  0  0  0  0  0  0  0  0  0  0
   52.5850   32.8450   50.6140 N   0  0  0  0  0  0  0  0  0  0  0  0
   53.9090   32.6440   50.3830 C   0  0  0  0  0  0  0  0  0  0  0  0
   54.5700   33.8220   50.3470 N   0  0  0  0  0  0  0  0  0  0  0  0
   53.6700   34.8010   50.5540 C   0  0  0  0  0  0  0  0  0  0  0  0
   53.6610   36.1960   50.6400 C   0  0  0  0  0  0  0  0  0  0  0  0
   52.5250   36.8770   50.8690 N   0  0  0  0  0  0  0  0  0  0  0  0
   51.3420   36.2180   51.0230 C   0  0  0  0  0  0  0  0  0  0  0  0
   51.3260   34.8650   50.9440 N   0  0  0  0  0  0  0  0  0  0  0  0
   52.4620   34.1680   50.7140 C   0  0  0  0  0  0  0  0  0  0  0  0
   54.9160   36.8590   50.4740 N   0  0  0  0  0  0  0  0  0  0  0  0
   49.1369   31.5712   47.5796 H   0  0  0  0  0  0  0  0  0  0  0  0
   47.8040   32.9012   45.9473 H   0  0  0  0  0  0  0  0  0  0  0  0
   45.7833   30.3956   45.7022 H   0  0  0  0  0  0  0  0  0  0  0  0
   47.1904   29.9988   45.1660 H   0  0  0  0  0  0  0  0  0  0  0  0
   46.7275   30.6843   48.2638 H   0  0  0  0  0  0  0  0  0  0  0  0
   43.7425   36.6786   44.9000 H   0  0  0  0  0  0  0  0  0  0  0  0
   44.8474   36.5700   42.6608 H   0  0  0  0  0  0  0  0  0  0  0  0
   46.5449   34.7140   42.2822 H   0  0  0  0  0  0  0  0  0  0  0  0
   49.3136   28.9009   48.5944 H   0  0  0  0  0  0  0  0  0  0  0  0
   48.3606   28.8340   47.0732 H   0  0  0  0  0  0  0  0  0  0  0  0
   50.0023   29.5630   47.0732 H   0  0  0  0  0  0  0  0  0  0  0  0
   47.9965   31.9168   49.7053 H   0  0  0  0  0  0  0  0  0  0  0  0
   47.6825   30.1071   49.7950 H   0  0  0  0  0  0  0  0  0  0  0  0
   49.3738   28.7421   51.0650 H   0  0  0  0  0  0  0  0  0  0  0  0
   51.5929   28.7566   52.1619 H   0  0  0  0  0  0  0  0  0  0  0  0
   54.3778   31.6586   50.2445 H   0  0  0  0  0  0  0  0  0  0  0  0
   50.4128   36.7766   51.2089 H   0  0  0  0  0  0  0  0  0  0  0  0
   54.9668   37.8863   50.5279 H   0  0  0  0  0  0  0  0  0  0  0  0
   55.7697   36.3095   50.3005 H   0  0  0  0  0  0  0  0  0  0  0  0
  1 14  1  0
  2  5  1  0
  2  4  1  0
  3  2  1  0
  3  4  1  0
  4  1  1  0
  5  6  2  0
  7 12  2  0
  8  7  1  0
  9  8  2  0
  9 10  1  0
 10 11  2  0
 11 12  1  0
 11  5  1  0
 13  1  1  0
 14 15  1  0
 15 16  2  0
 16 17  1  0
 18 17  2  0
 19 18  1  0
 20 15  1  0
 20 19  2  0
 21 19  1  0
 21 29  1  0
 22 21  1  0
 23 22  2  0
 23 24  1  0
 24 25  2  0
 24 29  1  0
 25 26  1  0
 26 27  2  0
 28 27  1  0
 29 28  2  0
 30 25  1  0
  1 31  1  6
  2 32  1  6
  3 33  1  0
  3 34  1  0
  4 35  1  1
  7 36  1  0
  8 37  1  0
  9 38  1  0
 13 39  1  0
 13 40  1  0
 13 41  1  0
 14 42  1  0
 14 43  1  0
 16 44  1  0
 17 45  1  0
 22 46  1  0
 27 47  1  0
 30 48  1  0
 30 49  1  0
M  ISO  8  31   8  32  13  33  13  34  13  35  13  36  14  37  14  38  14
M  ISO  8  39   8  40   8  41   8  42   8  43   8  44  14  45  14  46  14
M  ISO  1  47  14
M  END
>  <minimizedAffinity>  (1) 
-6.56775713

>  <minimizedRMSD>  (1) 
1.25723493

$$$$
