
     RDKit          3D

 47 51  0  0  1  0  0  0  0  0999 V2000
   48.4510   30.8300   48.0400 C   0  0  2  0  0  0  0  0  0  0  0  0
   47.0590   32.0880   46.3600 C   0  0  2  0  0  0  0  0  0  0  0  0
   46.6900   30.6450   46.0950 C   0  0  0  0  0  0  0  0  0  0  0  0
   47.1440   31.0330   47.4340 C   0  0  1  0  0  0  0  0  0  0  0  0
   45.9020   33.0690   46.5090 C   0  0  0  0  0  0  0  0  0  0  0  0
   45.2190   32.9450   47.5880 O   0  0  0  0  0  0  0  0  0  0  0  0
   44.4920   35.8780   44.6960 C   0  0  0  0  0  0  0  0  0  0  0  0
   45.1250   35.8190   43.4410 C   0  0  0  0  0  0  0  0  0  0  0  0
   46.0480   34.7940   43.2650 C   0  0  0  0  0  0  0  0  0  0  0  0
   46.2530   33.9540   44.2980 N   0  0  0  0  0  0  0  0  0  0  0  0
   45.6270   34.0410   45.4880 C   0  0  0  0  0  0  0  0  0  0  0  0
   44.7210   35.0230   45.7100 N   0  0  0  0  0  0  0  0  0  0  0  0
   49.0620   29.4830   47.6870 C   0  0  0  0  0  0  0  0  0  0  0  0
   48.3850   30.9200   49.5400 C   0  0  0  0  0  0  0  0  0  0  0  0
   49.6500   30.6420   50.2320 C   0  0  0  0  0  0  0  0  0  0  0  0
   50.0790   29.5000   50.8830 C   0  0  0  0  0  0  0  0  0  0  0  0
   51.3040   29.4410   51.4610 C   0  0  0  0  0  0  0  0  0  0  0  0
   52.1090   30.5260   51.3920 N   0  0  0  0  0  0  0  0  0  0  0  0
   51.7250   31.6570   50.7660 C   0  0  0  0  0  0  0  0  0  0  0  0
   50.5010   31.6900   50.1970 N   0  0  0  0  0  0  0  0  0  0  0  0
   52.6350   32.7530   50.7400 N   0  0  0  0  0  0  0  0  0  0  0  0
   53.9790   32.5400   50.6970 C   0  0  0  0  0  0  0  0  0  0  0  0
   54.6460   33.7140   50.6800 N   0  0  0  0  0  0  0  0  0  0  0  0
   53.7140   34.7090   50.7130 C   0  0  0  0  0  0  0  0  0  0  0  0
   53.6880   36.0880   50.7180 C   0  0  0  0  0  0  0  0  0  0  0  0
   52.5260   36.7670   50.7580 N   0  0  0  0  0  0  0  0  0  0  0  0
   51.3430   36.1100   50.7940 C   0  0  0  0  0  0  0  0  0  0  0  0
   51.3020   34.7520   50.7900 N   0  0  0  0  0  0  0  0  0  0  0  0
   52.4720   34.0980   50.7510 C   0  0  0  0  0  0  0  0  0  0  0  0
   49.0830   31.6328   47.6324 H   0  0  0  0  0  0  0  0  0  0  0  0
   47.7428   32.8175   45.9014 H   0  0  0  0  0  0  0  0  0  0  0  0
   45.6376   30.3698   45.9318 H   0  0  0  0  0  0  0  0  0  0  0  0
   47.0049   29.8888   45.3608 H   0  0  0  0  0  0  0  0  0  0  0  0
   46.7114   30.7929   48.4165 H   0  0  0  0  0  0  0  0  0  0  0  0
   43.7575   36.6802   44.8603 H   0  0  0  0  0  0  0  0  0  0  0  0
   44.9022   36.5432   42.6436 H   0  0  0  0  0  0  0  0  0  0  0  0
   46.5913   34.6734   42.3162 H   0  0  0  0  0  0  0  0  0  0  0  0
   49.3088   28.9390   48.6106 H   0  0  0  0  0  0  0  0  0  0  0  0
   48.3417   28.8968   47.0975 H   0  0  0  0  0  0  0  0  0  0  0  0
   49.9775   29.6388   47.0975 H   0  0  0  0  0  0  0  0  0  0  0  0
   48.0656   31.9380   49.8076 H   0  0  0  0  0  0  0  0  0  0  0  0
   47.6780   30.1425   49.8650 H   0  0  0  0  0  0  0  0  0  0  0  0
   49.4150   28.6244   50.9328 H   0  0  0  0  0  0  0  0  0  0  0  0
   51.6370   28.5280   51.9764 H   0  0  0  0  0  0  0  0  0  0  0  0
   54.4556   31.5488   50.6786 H   0  0  0  0  0  0  0  0  0  0  0  0
   54.6363   36.6446   50.6887 H   0  0  0  0  0  0  0  0  0  0  0  0
   50.4041   36.6822   50.8269 H   0  0  0  0  0  0  0  0  0  0  0  0
  1 14  1  0
  2  5  1  0
  2  4  1  0
  3  2  1  0
  3  4  1  0
  4  1  1  0
  5  6  2  0
  7 12  2  0
  8  7  1  0
  9  8  2  0
  9 10  1  0
 10 11  2  0
 11 12  1  0
 11  5  1  0
 13  1  1  0
 14 15  1  0
 15 16  2  0
 16 17  1  0
 18 17  2  0
 19 18  1  0
 20 15  1  0
 20 19  2  0
 21 29  1  0
 21 19  1  0
 22 21  1  0
 23 22  2  0
 23 24  1  0
 24 25  2  0
 24 29  1  0
 25 26  1  0
 26 27  2  0
 28 27  1  0
 29 28  2  0
  1 30  1  6
  2 31  1  6
  3 32  1  0
  3 33  1  0
  4 34  1  1
  7 35  1  0
  8 36  1  0
  9 37  1  0
 13 38  1  0
 13 39  1  0
 13 40  1  0
 14 41  1  0
 14 42  1  0
 16 43  1  0
 17 44  1  0
 22 45  1  0
 25 46  1  0
 27 47  1  0
M  ISO  8  30   8  31  13  32  13  33  13  34  13  35  14  36  14  37  14
M  ISO  8  38   8  39   8  40   8  41   8  42   8  43  14  44  14  45  14
M  ISO  2  46  14  47  14
M  END
>  <minimizedAffinity>  (1) 
-6.52268505

>  <minimizedRMSD>  (1) 
1.34058774

$$$$
