
     RDKit          3D

 51 54  0  0  1  0  0  0  0  0999 V2000
   48.2810   30.6600   47.7540 C   0  0  2  0  0  0  0  0  0  0  0  0
   47.0710   32.1730   46.1410 C   0  0  2  0  0  0  0  0  0  0  0  0
   46.7160   30.7900   45.6410 C   0  0  0  0  0  0  0  0  0  0  0  0
   47.0410   30.9760   47.0600 C   0  0  1  0  0  0  0  0  0  0  0  0
   45.9140   33.1510   46.3170 C   0  0  0  0  0  0  0  0  0  0  0  0
   45.2400   33.0060   47.4000 O   0  0  0  0  0  0  0  0  0  0  0  0
   44.4850   35.9960   44.5720 C   0  0  0  0  0  0  0  0  0  0  0  0
   45.1080   35.9590   43.3110 C   0  0  0  0  0  0  0  0  0  0  0  0
   46.0310   34.9340   43.1050 C   0  0  0  0  0  0  0  0  0  0  0  0
   46.2450   34.0750   44.1220 N   0  0  0  0  0  0  0  0  0  0  0  0
   45.6270   34.1420   45.3180 C   0  0  0  0  0  0  0  0  0  0  0  0
   44.7270   35.1160   45.5650 N   0  0  0  0  0  0  0  0  0  0  0  0
   48.7950   29.2630   47.4380 C   0  0  0  0  0  0  0  0  0  0  0  0
   48.1210   30.7700   49.2460 C   0  0  0  0  0  0  0  0  0  0  0  0
   49.3800   30.7810   49.9980 C   0  0  0  0  0  0  0  0  0  0  0  0
   50.0020   29.7910   50.7300 C   0  0  0  0  0  0  0  0  0  0  0  0
   51.1840   30.0000   51.3580 C   0  0  0  0  0  0  0  0  0  0  0  0
   51.7560   31.2080   51.2580 N   0  0  0  0  0  0  0  0  0  0  0  0
   51.1920   32.2190   50.5530 C   0  0  0  0  0  0  0  0  0  0  0  0
   50.0170   31.9840   49.9380 N   0  0  0  0  0  0  0  0  0  0  0  0
   51.8420   33.4850   50.4790 N   0  0  0  0  0  0  0  0  0  0  0  0
   53.2680   33.5660   50.5440 C   0  0  0  0  0  0  0  0  0  0  0  0
   53.6830   34.4880   51.6760 C   0  0  0  0  0  0  0  0  0  0  0  0
   52.6930   35.5750   51.9570 C   0  0  0  0  0  0  0  0  0  0  0  0
   51.8540   35.9000   50.7370 C   0  0  0  0  0  0  0  0  0  0  0  0
   51.0590   34.6870   50.3360 C   0  0  0  0  0  0  0  0  0  0  0  0
   49.0112   31.3990   47.3924 H   0  0  0  0  0  0  0  0  0  0  0  0
   47.8030   32.9432   45.8565 H   0  0  0  0  0  0  0  0  0  0  0  0
   45.6820   30.5648   45.3409 H   0  0  0  0  0  0  0  0  0  0  0  0
   47.0940   30.1368   44.8407 H   0  0  0  0  0  0  0  0  0  0  0  0
   46.5126   30.6110   47.9531 H   0  0  0  0  0  0  0  0  0  0  0  0
   43.7527   36.7949   44.7603 H   0  0  0  0  0  0  0  0  0  0  0  0
   44.8794   36.6987   42.5296 H   0  0  0  0  0  0  0  0  0  0  0  0
   46.5645   34.8302   42.1486 H   0  0  0  0  0  0  0  0  0  0  0  0
   48.9932   28.7243   48.3763 H   0  0  0  0  0  0  0  0  0  0  0  0
   48.0388   28.7173   46.8546 H   0  0  0  0  0  0  0  0  0  0  0  0
   49.7246   29.3376   46.8546 H   0  0  0  0  0  0  0  0  0  0  0  0
   47.5829   31.7041   49.4650 H   0  0  0  0  0  0  0  0  0  0  0  0
   47.5751   29.8707   49.5671 H   0  0  0  0  0  0  0  0  0  0  0  0
   49.5243   28.8031   50.8060 H   0  0  0  0  0  0  0  0  0  0  0  0
   51.6634   29.1967   51.9367 H   0  0  0  0  0  0  0  0  0  0  0  0
   53.6825   32.5625   50.7206 H   0  0  0  0  0  0  0  0  0  0  0  0
   53.6513   33.9652   49.5934 H   0  0  0  0  0  0  0  0  0  0  0  0
   53.8060   33.8854   52.5880 H   0  0  0  0  0  0  0  0  0  0  0  0
   54.6193   34.9762   51.3677 H   0  0  0  0  0  0  0  0  0  0  0  0
   52.0278   35.2495   52.7704 H   0  0  0  0  0  0  0  0  0  0  0  0
   53.2498   36.4803   52.2407 H   0  0  0  0  0  0  0  0  0  0  0  0
   51.1675   36.7262   50.9738 H   0  0  0  0  0  0  0  0  0  0  0  0
   52.5131   36.1965   49.9077 H   0  0  0  0  0  0  0  0  0  0  0  0
   50.7489   34.7913   49.2858 H   0  0  0  0  0  0  0  0  0  0  0  0
   50.1794   34.6121   50.9923 H   0  0  0  0  0  0  0  0  0  0  0  0
  1 14  1  0
  2  5  1  0
  2  4  1  0
  3  2  1  0
  3  4  1  0
  4  1  1  0
  5  6  2  0
  7 12  2  0
  8  7  1  0
  9  8  2  0
  9 10  1  0
 10 11  2  0
 11 12  1  0
 11  5  1  0
 13  1  1  0
 14 15  1  0
 15 16  2  0
 16 17  1  0
 18 17  2  0
 19 18  1  0
 20 15  1  0
 20 19  2  0
 21 22  1  0
 21 19  1  0
 22 23  1  0
 23 24  1  0
 25 24  1  0
 26 21  1  0
 26 25  1  0
  1 27  1  6
  2 28  1  6
  3 29  1  0
  3 30  1  0
  4 31  1  1
  7 32  1  0
  8 33  1  0
  9 34  1  0
 13 35  1  0
 13 36  1  0
 13 37  1  0
 14 38  1  0
 14 39  1  0
 16 40  1  0
 17 41  1  0
 22 42  1  0
 22 43  1  0
 23 44  1  0
 23 45  1  0
 24 46  1  0
 24 47  1  0
 25 48  1  0
 25 49  1  0
 26 50  1  0
 26 51  1  0
M  ISO  8  27   8  28  13  29  13  30  13  31  13  32  14  33  14  34  14
M  ISO  8  35   8  36   8  37   8  38   8  39   8  40  14  41  14  42  13
M  ISO  8  43  13  44  13  45  13  46  13  47  13  48  13  49  13  50  13
M  ISO  1  51  13
M  END
>  <minimizedAffinity>  (1) 
-6.21453905

>  <minimizedRMSD>  (1) 
0.543569803

$$$$
