
     RDKit          3D

 43 46  0  0  1  0  0  0  0  0999 V2000
   48.3760   30.6730   47.8200 C   0  0  2  0  0  0  0  0  0  0  0  0
   47.0730   32.1270   46.2230 C   0  0  2  0  0  0  0  0  0  0  0  0
   46.7330   30.7280   45.7630 C   0  0  0  0  0  0  0  0  0  0  0  0
   47.1060   30.9530   47.1650 C   0  0  1  0  0  0  0  0  0  0  0  0
   45.9130   33.0890   46.4120 C   0  0  0  0  0  0  0  0  0  0  0  0
   45.2460   32.9220   47.4940 O   0  0  0  0  0  0  0  0  0  0  0  0
   44.4600   35.9450   44.7090 C   0  0  0  0  0  0  0  0  0  0  0  0
   45.0650   35.9260   43.4420 C   0  0  0  0  0  0  0  0  0  0  0  0
   45.9880   34.9050   43.2170 C   0  0  0  0  0  0  0  0  0  0  0  0
   46.2160   34.0390   44.2210 N   0  0  0  0  0  0  0  0  0  0  0  0
   45.6150   34.0890   45.4260 C   0  0  0  0  0  0  0  0  0  0  0  0
   44.7080   35.0640   45.6940 N   0  0  0  0  0  0  0  0  0  0  0  0
   49.1150   29.4970   47.2010 C   0  0  0  0  0  0  0  0  0  0  0  0
   48.1870   30.3940   49.2880 C   0  0  0  0  0  0  0  0  0  0  0  0
   49.4220   30.4440   50.0840 C   0  0  0  0  0  0  0  0  0  0  0  0
   50.1500   29.4270   50.6660 C   0  0  0  0  0  0  0  0  0  0  0  0
   51.2830   29.6780   51.3660 C   0  0  0  0  0  0  0  0  0  0  0  0
   51.6910   30.9500   51.4860 N   0  0  0  0  0  0  0  0  0  0  0  0
   51.0120   31.9850   50.9340 C   0  0  0  0  0  0  0  0  0  0  0  0
   49.8880   31.7060   50.2430 N   0  0  0  0  0  0  0  0  0  0  0  0
   51.4930   33.3160   51.0960 N   0  0  0  0  0  0  0  0  0  0  0  0
   51.3080   34.3770   50.3090 N   0  0  0  0  0  0  0  0  0  0  0  0
   51.9450   35.4520   50.8400 C   0  0  0  0  0  0  0  0  0  0  0  0
   52.5550   35.0200   52.0210 C   0  0  0  0  0  0  0  0  0  0  0  0
   52.2520   33.6650   52.1580 C   0  0  0  0  0  0  0  0  0  0  0  0
   48.9819   31.5804   47.6806 H   0  0  0  0  0  0  0  0  0  0  0  0
   47.7769   32.9075   45.8984 H   0  0  0  0  0  0  0  0  0  0  0  0
   45.6943   30.4727   45.5064 H   0  0  0  0  0  0  0  0  0  0  0  0
   47.0962   30.0671   44.9622 H   0  0  0  0  0  0  0  0  0  0  0  0
   46.6203   30.5992   48.0863 H   0  0  0  0  0  0  0  0  0  0  0  0
   43.7279   36.7407   44.9110 H   0  0  0  0  0  0  0  0  0  0  0  0
   44.8248   36.6733   42.6714 H   0  0  0  0  0  0  0  0  0  0  0  0
   46.5106   34.8112   42.2536 H   0  0  0  0  0  0  0  0  0  0  0  0
   49.5178   28.8560   47.9990 H   0  0  0  0  0  0  0  0  0  0  0  0
   48.4204   28.9143   46.5781 H   0  0  0  0  0  0  0  0  0  0  0  0
   49.9413   29.8700   46.5781 H   0  0  0  0  0  0  0  0  0  0  0  0
   47.4878   31.1409   49.6920 H   0  0  0  0  0  0  0  0  0  0  0  0
   47.8087   29.3639   49.3636 H   0  0  0  0  0  0  0  0  0  0  0  0
   49.8030   28.3886   50.5595 H   0  0  0  0  0  0  0  0  0  0  0  0
   51.8545   28.8578   51.8249 H   0  0  0  0  0  0  0  0  0  0  0  0
   51.9752   36.4686   50.4209 H   0  0  0  0  0  0  0  0  0  0  0  0
   53.1577   35.6305   52.7096 H   0  0  0  0  0  0  0  0  0  0  0  0
   52.5713   33.0043   52.9774 H   0  0  0  0  0  0  0  0  0  0  0  0
  1 14  1  0
  2  5  1  0
  2  4  1  0
  3  2  1  0
  3  4  1  0
  4  1  1  0
  5  6  2  0
  7 12  2  0
  8  7  1  0
  9  8  2  0
  9 10  1  0
 10 11  2  0
 11 12  1  0
 11  5  1  0
 13  1  1  0
 14 15  1  0
 15 20  1  0
 15 16  2  0
 16 17  1  0
 17 18  2  0
 19 21  1  0
 19 18  1  0
 20 19  2  0
 21 25  1  0
 22 23  2  0
 22 21  1  0
 23 24  1  0
 24 25  2  0
  1 26  1  1
  2 27  1  6
  3 28  1  0
  3 29  1  0
  4 30  1  1
  7 31  1  0
  8 32  1  0
  9 33  1  0
 13 34  1  0
 13 35  1  0
 13 36  1  0
 14 37  1  0
 14 38  1  0
 16 39  1  0
 17 40  1  0
 23 41  1  0
 24 42  1  0
 25 43  1  0
M  ISO  8  26   8  27  13  28  13  29  13  30  13  31  14  32  14  33  14
M  ISO  8  34   8  35   8  36   8  37   8  38   8  39  14  40  14  41  14
M  ISO  2  42  14  43  14
M  END
>  <minimizedAffinity>  (1) 
-6.08427

>  <minimizedRMSD>  (1) 
0.912978172

$$$$
