
     RDKit          3D

 41 44  0  0  1  0  0  0  0  0999 V2000
   48.3000   30.7480   47.7670 C   0  0  2  0  0  0  0  0  0  0  0  0
   47.0240   32.1880   46.1380 C   0  0  2  0  0  0  0  0  0  0  0  0
   46.6550   30.7860   45.7100 C   0  0  0  0  0  0  0  0  0  0  0  0
   47.0350   31.0340   47.1050 C   0  0  1  0  0  0  0  0  0  0  0  0
   45.8850   33.1760   46.3040 C   0  0  0  0  0  0  0  0  0  0  0  0
   45.2070   33.0430   47.3870 O   0  0  0  0  0  0  0  0  0  0  0  0
   44.4830   36.0170   44.5420 C   0  0  0  0  0  0  0  0  0  0  0  0
   45.1100   35.9770   43.2810 C   0  0  0  0  0  0  0  0  0  0  0  0
   46.0310   34.9470   43.0850 C   0  0  0  0  0  0  0  0  0  0  0  0
   46.2370   34.0920   44.1060 N   0  0  0  0  0  0  0  0  0  0  0  0
   45.6130   34.1670   45.2980 C   0  0  0  0  0  0  0  0  0  0  0  0
   44.7090   35.1500   45.5390 N   0  0  0  0  0  0  0  0  0  0  0  0
   48.9070   29.4270   47.3310 C   0  0  0  0  0  0  0  0  0  0  0  0
   48.1440   30.7120   49.2640 C   0  0  0  0  0  0  0  0  0  0  0  0
   49.3980   30.7490   50.0190 C   0  0  0  0  0  0  0  0  0  0  0  0
   50.0500   29.7470   50.7100 C   0  0  0  0  0  0  0  0  0  0  0  0
   51.2360   29.9960   51.3530 C   0  0  0  0  0  0  0  0  0  0  0  0
   51.7520   31.2310   51.2990 N   0  0  0  0  0  0  0  0  0  0  0  0
   51.1410   32.2320   50.6330 C   0  0  0  0  0  0  0  0  0  0  0  0
   49.9810   31.9750   50.0070 N   0  0  0  0  0  0  0  0  0  0  0  0
   51.7890   33.5380   50.6370 C   0  0  0  0  0  0  0  0  0  0  0  0
   53.1120   33.6950   50.6350 N   0  0  0  0  0  0  0  0  0  0  0  0
   53.3970   34.9640   50.6410 O   0  0  0  0  0  0  0  0  0  0  0  0
   52.3010   35.6690   50.6460 C   0  0  0  0  0  0  0  0  0  0  0  0
   51.2960   34.7850   50.6440 N   0  0  0  0  0  0  0  0  0  0  0  0
   48.9718   31.5671   47.4707 H   0  0  0  0  0  0  0  0  0  0  0  0
   47.7432   32.9472   45.7968 H   0  0  0  0  0  0  0  0  0  0  0  0
   45.6108   30.5460   45.4608 H   0  0  0  0  0  0  0  0  0  0  0  0
   47.0032   30.1003   44.9235 H   0  0  0  0  0  0  0  0  0  0  0  0
   46.5438   30.7071   48.0334 H   0  0  0  0  0  0  0  0  0  0  0  0
   43.7531   36.8201   44.7219 H   0  0  0  0  0  0  0  0  0  0  0  0
   44.8865   36.7149   42.4964 H   0  0  0  0  0  0  0  0  0  0  0  0
   46.5691   34.8371   42.1319 H   0  0  0  0  0  0  0  0  0  0  0  0
   49.1780   28.8372   48.2190 H   0  0  0  0  0  0  0  0  0  0  0  0
   48.1753   28.8682   46.7290 H   0  0  0  0  0  0  0  0  0  0  0  0
   49.8076   29.6182   46.7290 H   0  0  0  0  0  0  0  0  0  0  0  0
   47.5391   31.5801   49.5648 H   0  0  0  0  0  0  0  0  0  0  0  0
   47.6719   29.7470   49.5002 H   0  0  0  0  0  0  0  0  0  0  0  0
   49.6136   28.7379   50.7453 H   0  0  0  0  0  0  0  0  0  0  0  0
   51.7537   29.1962   51.9028 H   0  0  0  0  0  0  0  0  0  0  0  0
   52.2187   36.7659   50.6509 H   0  0  0  0  0  0  0  0  0  0  0  0
  1 14  1  0
  2  5  1  0
  2  4  1  0
  3  2  1  0
  3  4  1  0
  4  1  1  0
  5  6  2  0
  7 12  2  0
  8  7  1  0
  9  8  2  0
  9 10  1  0
 10 11  2  0
 11 12  1  0
 11  5  1  0
 13  1  1  0
 14 15  1  0
 15 16  2  0
 16 17  1  0
 18 17  2  0
 19 21  1  0
 19 18  1  0
 20 15  1  0
 20 19  2  0
 21 25  1  0
 22 21  2  0
 22 23  1  0
 23 24  1  0
 25 24  2  0
  1 26  1  1
  2 27  1  6
  3 28  1  0
  3 29  1  0
  4 30  1  1
  7 31  1  0
  8 32  1  0
  9 33  1  0
 13 34  1  0
 13 35  1  0
 13 36  1  0
 14 37  1  0
 14 38  1  0
 16 39  1  0
 17 40  1  0
 24 41  1  0
M  ISO  8  26   8  27  13  28  13  29  13  30  13  31  14  32  14  33  14
M  ISO  8  34   8  35   8  36   8  37   8  38   8  39  14  40  14  41  14
M  END
>  <minimizedAffinity>  (1) 
-5.80415583

>  <minimizedRMSD>  (1) 
0.561311007

$$$$
