
     RDKit          3D

 43 46  0  0  1  0  0  0  0  0999 V2000
   48.3060   30.7190   47.8250 C   0  0  2  0  0  0  0  0  0  0  0  0
   46.9670   32.0920   46.1890 C   0  0  2  0  0  0  0  0  0  0  0  0
   46.5300   30.6780   45.8810 C   0  0  0  0  0  0  0  0  0  0  0  0
   47.0070   31.0040   47.2320 C   0  0  1  0  0  0  0  0  0  0  0  0
   45.8680   33.1290   46.3660 C   0  0  0  0  0  0  0  0  0  0  0  0
   45.2130   33.0370   47.4670 O   0  0  0  0  0  0  0  0  0  0  0  0
   44.5010   35.9750   44.5720 C   0  0  0  0  0  0  0  0  0  0  0  0
   45.1450   35.9180   43.3210 C   0  0  0  0  0  0  0  0  0  0  0  0
   46.0580   34.8830   43.1410 C   0  0  0  0  0  0  0  0  0  0  0  0
   46.2480   34.0280   44.1680 N   0  0  0  0  0  0  0  0  0  0  0  0
   45.6120   34.1130   45.3540 C   0  0  0  0  0  0  0  0  0  0  0  0
   44.7150   35.1030   45.5790 N   0  0  0  0  0  0  0  0  0  0  0  0
   49.0120   29.5490   47.1630 C   0  0  0  0  0  0  0  0  0  0  0  0
   48.1880   30.4200   49.2950 C   0  0  0  0  0  0  0  0  0  0  0  0
   49.4430   30.4540   50.0420 C   0  0  0  0  0  0  0  0  0  0  0  0
   50.2100   29.4170   50.5390 C   0  0  0  0  0  0  0  0  0  0  0  0
   51.3690   29.6660   51.2140 C   0  0  0  0  0  0  0  0  0  0  0  0
   51.7600   30.9540   51.3920 N   0  0  0  0  0  0  0  0  0  0  0  0
   51.0290   31.9790   50.9170 C   0  0  0  0  0  0  0  0  0  0  0  0
   49.8920   31.7210   50.2560 N   0  0  0  0  0  0  0  0  0  0  0  0
   51.5380   33.3230   51.1610 C   0  0  0  0  0  0  0  0  0  0  0  0
   52.3200   33.8780   52.1590 C   0  0  0  0  0  0  0  0  0  0  0  0
   52.4470   35.2150   51.8080 C   0  0  0  0  0  0  0  0  0  0  0  0
   51.7390   35.3940   50.6260 C   0  0  0  0  0  0  0  0  0  0  0  0
   51.2010   34.2320   50.2620 O   0  0  0  0  0  0  0  0  0  0  0  0
   48.9016   31.6303   47.6675 H   0  0  0  0  0  0  0  0  0  0  0  0
   47.6835   32.8015   45.7494 H   0  0  0  0  0  0  0  0  0  0  0  0
   45.4653   30.4576   45.7142 H   0  0  0  0  0  0  0  0  0  0  0  0
   46.8065   29.9309   45.1225 H   0  0  0  0  0  0  0  0  0  0  0  0
   46.5677   30.7571   48.2098 H   0  0  0  0  0  0  0  0  0  0  0  0
   43.7751   36.7844   44.7393 H   0  0  0  0  0  0  0  0  0  0  0  0
   44.9376   36.6521   42.5285 H   0  0  0  0  0  0  0  0  0  0  0  0
   46.6059   34.7658   42.1944 H   0  0  0  0  0  0  0  0  0  0  0  0
   49.4161   28.8793   47.9365 H   0  0  0  0  0  0  0  0  0  0  0  0
   48.2967   28.9960   46.5365 H   0  0  0  0  0  0  0  0  0  0  0  0
   49.8347   29.9241   46.5365 H   0  0  0  0  0  0  0  0  0  0  0  0
   47.5080   31.1619   49.7391 H   0  0  0  0  0  0  0  0  0  0  0  0
   47.8196   29.3860   49.3663 H   0  0  0  0  0  0  0  0  0  0  0  0
   49.8817   28.3780   50.3883 H   0  0  0  0  0  0  0  0  0  0  0  0
   51.9764   28.8375   51.6073 H   0  0  0  0  0  0  0  0  0  0  0  0
   52.7469   33.3712   53.0370 H   0  0  0  0  0  0  0  0  0  0  0  0
   53.0029   35.9866   52.3609 H   0  0  0  0  0  0  0  0  0  0  0  0
   51.6391   36.3431   50.0790 H   0  0  0  0  0  0  0  0  0  0  0  0
  1 14  1  0
  2  5  1  0
  2  4  1  0
  3  2  1  0
  3  4  1  0
  4  1  1  0
  5  6  2  0
  7 12  2  0
  8  7  1  0
  9  8  2  0
  9 10  1  0
 10 11  2  0
 11 12  1  0
 11  5  1  0
 13  1  1  0
 14 15  1  0
 15 20  1  0
 15 16  2  0
 16 17  1  0
 17 18  2  0
 19 21  1  0
 19 18  1  0
 20 19  2  0
 21 22  2  0
 23 22  1  0
 24 23  2  0
 25 24  1  0
 25 21  1  0
  1 26  1  1
  2 27  1  6
  3 28  1  0
  3 29  1  0
  4 30  1  1
  7 31  1  0
  8 32  1  0
  9 33  1  0
 13 34  1  0
 13 35  1  0
 13 36  1  0
 14 37  1  0
 14 38  1  0
 16 39  1  0
 17 40  1  0
 22 41  1  0
 23 42  1  0
 24 43  1  0
M  ISO  8  26   8  27  13  28  13  29  13  30  13  31  14  32  14  33  14
M  ISO  8  34   8  35   8  36   8  37   8  38   8  39  14  40  14  41  14
M  ISO  2  42  14  43  14
M  END
>  <minimizedAffinity>  (1) 
-5.90069485

>  <minimizedRMSD>  (1) 
1.02625489

$$$$
