
     RDKit          3D

 37 39  0  0  1  0  0  0  0  0999 V2000
   48.1460   30.5130   47.6640 C   0  0  2  0  0  0  0  0  0  0  0  0
   47.0120   32.1230   46.0900 C   0  0  2  0  0  0  0  0  0  0  0  0
   46.6140   30.7730   45.5350 C   0  0  0  0  0  0  0  0  0  0  0  0
   46.9270   30.8980   46.9640 C   0  0  1  0  0  0  0  0  0  0  0  0
   45.8900   33.1360   46.2840 C   0  0  0  0  0  0  0  0  0  0  0  0
   45.2290   33.0130   47.3780 O   0  0  0  0  0  0  0  0  0  0  0  0
   44.5010   36.0020   44.5430 C   0  0  0  0  0  0  0  0  0  0  0  0
   45.1330   35.9780   43.2950 C   0  0  0  0  0  0  0  0  0  0  0  0
   46.0540   34.9480   43.0900 C   0  0  0  0  0  0  0  0  0  0  0  0
   46.2510   34.0790   44.1000 N   0  0  0  0  0  0  0  0  0  0  0  0
   45.6200   34.1360   45.2910 C   0  0  0  0  0  0  0  0  0  0  0  0
   44.7180   35.1160   45.5360 N   0  0  0  0  0  0  0  0  0  0  0  0
   48.5140   29.0560   47.4430 C   0  0  0  0  0  0  0  0  0  0  0  0
   48.0210   30.7420   49.1480 C   0  0  0  0  0  0  0  0  0  0  0  0
   49.2950   30.8990   49.8560 C   0  0  0  0  0  0  0  0  0  0  0  0
   49.9580   30.0380   50.7080 C   0  0  0  0  0  0  0  0  0  0  0  0
   51.1550   30.3720   51.2660 C   0  0  0  0  0  0  0  0  0  0  0  0
   51.6850   31.5670   50.9710 N   0  0  0  0  0  0  0  0  0  0  0  0
   51.0720   32.4450   50.1410 C   0  0  0  0  0  0  0  0  0  0  0  0
   49.8920   32.0940   49.6010 N   0  0  0  0  0  0  0  0  0  0  0  0
   51.6770   33.6680   49.8770 O   0  0  0  0  0  0  0  0  0  0  0  0
   48.9389   31.1490   47.2435 H   0  0  0  0  0  0  0  0  0  0  0  0
   47.7756   32.8755   45.8438 H   0  0  0  0  0  0  0  0  0  0  0  0
   45.5766   30.5964   45.2146 H   0  0  0  0  0  0  0  0  0  0  0  0
   46.9784   30.1353   44.7162 H   0  0  0  0  0  0  0  0  0  0  0  0
   46.3740   30.5209   47.8370 H   0  0  0  0  0  0  0  0  0  0  0  0
   43.7718   36.8045   44.7281 H   0  0  0  0  0  0  0  0  0  0  0  0
   44.9169   36.7275   42.5194 H   0  0  0  0  0  0  0  0  0  0  0  0
   46.5982   34.8502   42.1390 H   0  0  0  0  0  0  0  0  0  0  0  0
   48.6398   28.5580   48.4157 H   0  0  0  0  0  0  0  0  0  0  0  0
   47.7136   28.5575   46.8766 H   0  0  0  0  0  0  0  0  0  0  0  0
   49.4552   28.9974   46.8766 H   0  0  0  0  0  0  0  0  0  0  0  0
   47.4280   31.6551   49.3044 H   0  0  0  0  0  0  0  0  0  0  0  0
   47.5466   29.8397   49.5613 H   0  0  0  0  0  0  0  0  0  0  0  0
   49.5097   29.0609   50.9413 H   0  0  0  0  0  0  0  0  0  0  0  0
   51.6742   29.6773   51.9426 H   0  0  0  0  0  0  0  0  0  0  0  0
   51.2379   34.3171   49.2720 H   0  0  0  0  0  0  0  0  0  0  0  0
  1 14  1  0
  2  5  1  0
  2  4  1  0
  3  2  1  0
  3  4  1  0
  4  1  1  0
  5  6  2  0
  7 12  2  0
  8  7  1  0
  9  8  2  0
  9 10  1  0
 10 11  2  0
 11 12  1  0
 11  5  1  0
 13  1  1  0
 14 15  1  0
 15 16  2  0
 16 17  1  0
 18 17  2  0
 19 18  1  0
 20 15  1  0
 20 19  2  0
 21 19  1  0
  1 22  1  6
  2 23  1  6
  3 24  1  0
  3 25  1  0
  4 26  1  1
  7 27  1  0
  8 28  1  0
  9 29  1  0
 13 30  1  0
 13 31  1  0
 13 32  1  0
 14 33  1  0
 14 34  1  0
 16 35  1  0
 17 36  1  0
 21 37  1  0
M  ISO  8  22   8  23  13  24  13  25  13  26  13  27  14  28  14  29  14
M  ISO  8  30   8  31   8  32   8  33   8  34   8  35  14  36  14  37   3
M  END
>  <minimizedAffinity>  (1) 
-5.65295172

>  <minimizedRMSD>  (1) 
0.06095507

$$$$
