
     RDKit          3D

 39 41  0  0  1  0  0  0  0  0999 V2000
   48.2410   30.6000   47.6620 C   0  0  2  0  0  0  0  0  0  0  0  0
   47.0470   32.1620   46.0830 C   0  0  2  0  0  0  0  0  0  0  0  0
   46.6860   30.7940   45.5450 C   0  0  0  0  0  0  0  0  0  0  0  0
   47.0060   30.9470   46.9700 C   0  0  1  0  0  0  0  0  0  0  0  0
   45.9120   33.1530   46.2660 C   0  0  0  0  0  0  0  0  0  0  0  0
   45.2460   33.0100   47.3540 O   0  0  0  0  0  0  0  0  0  0  0  0
   44.4910   36.0120   44.5350 C   0  0  0  0  0  0  0  0  0  0  0  0
   45.1210   35.9860   43.2770 C   0  0  0  0  0  0  0  0  0  0  0  0
   46.0440   34.9650   43.0690 C   0  0  0  0  0  0  0  0  0  0  0  0
   46.2560   34.0950   44.0790 N   0  0  0  0  0  0  0  0  0  0  0  0
   45.6330   34.1510   45.2740 C   0  0  0  0  0  0  0  0  0  0  0  0
   44.7230   35.1290   45.5290 N   0  0  0  0  0  0  0  0  0  0  0  0
   48.7730   29.2350   47.2630 C   0  0  0  0  0  0  0  0  0  0  0  0
   48.0650   30.6170   49.1560 C   0  0  0  0  0  0  0  0  0  0  0  0
   49.2980   30.7090   49.9300 C   0  0  0  0  0  0  0  0  0  0  0  0
   49.9780   29.7500   50.6500 C   0  0  0  0  0  0  0  0  0  0  0  0
   51.1320   30.0440   51.3110 C   0  0  0  0  0  0  0  0  0  0  0  0
   51.6110   31.3120   51.2490 N   0  0  0  0  0  0  0  0  0  0  0  0
   50.9700   32.2700   50.5530 C   0  0  0  0  0  0  0  0  0  0  0  0
   49.8340   31.9640   49.9080 N   0  0  0  0  0  0  0  0  0  0  0  0
   51.5650   33.6370   50.5360 C   0  0  0  0  0  0  0  0  0  0  0  0
   51.5640   34.0440   51.8760 F   0  0  0  0  0  0  0  0  0  0  0  0
   50.8350   34.5260   49.7870 F   0  0  0  0  0  0  0  0  0  0  0  0
   52.8900   33.6210   50.1630 F   0  0  0  0  0  0  0  0  0  0  0  0
   48.9674   31.3687   47.3596 H   0  0  0  0  0  0  0  0  0  0  0  0
   47.7865   32.9341   45.8243 H   0  0  0  0  0  0  0  0  0  0  0  0
   45.6521   30.5821   45.2348 H   0  0  0  0  0  0  0  0  0  0  0  0
   47.0632   30.1580   44.7306 H   0  0  0  0  0  0  0  0  0  0  0  0
   46.4713   30.5683   47.8535 H   0  0  0  0  0  0  0  0  0  0  0  0
   43.7566   36.8094   44.7217 H   0  0  0  0  0  0  0  0  0  0  0  0
   44.8963   36.7318   42.5003 H   0  0  0  0  0  0  0  0  0  0  0  0
   46.5822   34.8704   42.1143 H   0  0  0  0  0  0  0  0  0  0  0  0
   49.0004   28.6514   48.1673 H   0  0  0  0  0  0  0  0  0  0  0  0
   48.0152   28.7062   46.6663 H   0  0  0  0  0  0  0  0  0  0  0  0
   49.6888   29.3585   46.6663 H   0  0  0  0  0  0  0  0  0  0  0  0
   47.4370   31.4825   49.4139 H   0  0  0  0  0  0  0  0  0  0  0  0
   47.6133   29.6491   49.4191 H   0  0  0  0  0  0  0  0  0  0  0  0
   49.5800   28.7254   50.6916 H   0  0  0  0  0  0  0  0  0  0  0  0
   51.6644   29.2699   51.8830 H   0  0  0  0  0  0  0  0  0  0  0  0
  1 14  1  0
  2  5  1  0
  2  4  1  0
  3  2  1  0
  3  4  1  0
  4  1  1  0
  5  6  2  0
  7 12  2  0
  8  7  1  0
  9  8  2  0
  9 10  1  0
 10 11  2  0
 11 12  1  0
 11  5  1  0
 13  1  1  0
 14 15  1  0
 15 16  2  0
 16 17  1  0
 18 17  2  0
 19 18  1  0
 20 15  1  0
 20 19  2  0
 21 19  1  0
 21 22  1  0
 23 21  1  0
 24 21  1  0
  1 25  1  1
  2 26  1  6
  3 27  1  0
  3 28  1  0
  4 29  1  1
  7 30  1  0
  8 31  1  0
  9 32  1  0
 13 33  1  0
 13 34  1  0
 13 35  1  0
 14 36  1  0
 14 37  1  0
 16 38  1  0
 17 39  1  0
M  ISO  8  25   8  26  13  27  13  28  13  29  13  30  14  31  14  32  14
M  ISO  7  33   8  34   8  35   8  36   8  37   8  38  14  39  14
M  END
>  <minimizedAffinity>  (1) 
-5.83861589

>  <minimizedRMSD>  (1) 
0.492493987

$$$$
