
     RDKit          3D

 12 12  0  0  0  0  0  0  0  0999 V2000
   44.5160   36.0350   44.5450 C   0  0  0  0  0  0  0  0  0  0  0  0
   45.1900   35.9740   43.3140 C   0  0  0  0  0  0  0  0  0  0  0  0
   46.0800   34.9210   43.0990 C   0  0  0  0  0  0  0  0  0  0  0  0
   46.2510   33.9940   44.1020 N   0  0  0  0  0  0  0  0  0  0  0  0
   45.5840   34.0900   45.2670 C   0  0  0  0  0  0  0  0  0  0  0  0
   44.7270   35.0960   45.4880 N   0  0  0  0  0  0  0  0  0  0  0  0
   46.7860   34.8220   41.8630 N   0  0  0  0  0  0  0  0  0  0  0  0
   43.8104   36.8559   44.7406 H   0  0  0  0  0  0  0  0  0  0  0  0
   45.0206   36.7366   42.5396 H   0  0  0  0  0  0  0  0  0  0  0  0
   45.7446   33.3324   46.0482 H   0  0  0  0  0  0  0  0  0  0  0  0
   47.4426   34.0441   41.7058 H   0  0  0  0  0  0  0  0  0  0  0  0
   46.6390   35.5284   41.1279 H   0  0  0  0  0  0  0  0  0  0  0  0
  1  6  2  0
  2  1  1  0
  3  2  2  0
  3  4  1  0
  4  5  2  0
  5  6  1  0
  7  3  1  0
  1  8  1  0
  2  9  1  0
  5 10  1  0
  7 11  1  0
  7 12  1  0
M  ISO  3   8  14   9  14  10  14
M  END
>  <minimizedAffinity>  (1) 
-2.93640161

>  <minimizedRMSD>  (1) 
0.415993989

$$$$
