
     RDKit          3D

 38 40  0  0  1  0  0  0  0  0999 V2000
   48.1770   30.5660   47.6290 C   0  0  2  0  0  0  0  0  0  0  0  0
   47.0200   32.1620   46.0570 C   0  0  2  0  0  0  0  0  0  0  0  0
   46.6390   30.8060   45.5050 C   0  0  0  0  0  0  0  0  0  0  0  0
   46.9540   30.9370   46.9330 C   0  0  1  0  0  0  0  0  0  0  0  0
   45.8920   33.1640   46.2480 C   0  0  0  0  0  0  0  0  0  0  0  0
   45.2290   33.0310   47.3390 O   0  0  0  0  0  0  0  0  0  0  0  0
   44.4910   36.0350   44.5160 C   0  0  0  0  0  0  0  0  0  0  0  0
   45.1180   36.0080   43.2660 C   0  0  0  0  0  0  0  0  0  0  0  0
   46.0390   34.9770   43.0530 C   0  0  0  0  0  0  0  0  0  0  0  0
   46.2440   34.1060   44.0610 N   0  0  0  0  0  0  0  0  0  0  0  0
   45.6180   34.1640   45.2550 C   0  0  0  0  0  0  0  0  0  0  0  0
   44.7190   35.1430   45.5080 N   0  0  0  0  0  0  0  0  0  0  0  0
   48.6670   29.1780   47.2700 C   0  0  0  0  0  0  0  0  0  0  0  0
   48.0050   30.6200   49.1230 C   0  0  0  0  0  0  0  0  0  0  0  0
   49.2540   30.7410   49.8840 C   0  0  0  0  0  0  0  0  0  0  0  0
   49.9240   29.8040   50.6450 C   0  0  0  0  0  0  0  0  0  0  0  0
   51.0820   30.1050   51.2800 C   0  0  0  0  0  0  0  0  0  0  0  0
   51.5830   31.3610   51.1600 N   0  0  0  0  0  0  0  0  0  0  0  0
   50.9530   32.3000   50.4250 C   0  0  0  0  0  0  0  0  0  0  0  0
   49.8050   31.9760   49.8030 N   0  0  0  0  0  0  0  0  0  0  0  0
   51.5150   33.6520   50.3080 C   0  0  0  0  0  0  0  0  0  0  0  0
   51.4410   34.4580   51.2680 O   0  0  0  0  0  0  0  0  0  0  0  0
   48.9230   31.3049   47.3010 H   0  0  0  0  0  0  0  0  0  0  0  0
   47.7731   32.9244   45.8088 H   0  0  0  0  0  0  0  0  0  0  0  0
   45.6033   30.6149   45.1876 H   0  0  0  0  0  0  0  0  0  0  0  0
   47.0100   30.1722   44.6861 H   0  0  0  0  0  0  0  0  0  0  0  0
   46.4087   30.5555   47.8088 H   0  0  0  0  0  0  0  0  0  0  0  0
   43.7622   36.8367   44.7059 H   0  0  0  0  0  0  0  0  0  0  0  0
   44.8985   36.7577   42.4916 H   0  0  0  0  0  0  0  0  0  0  0  0
   46.5762   34.8806   42.0980 H   0  0  0  0  0  0  0  0  0  0  0  0
   48.8674   28.6104   48.1907 H   0  0  0  0  0  0  0  0  0  0  0  0
   47.8978   28.6590   46.6793 H   0  0  0  0  0  0  0  0  0  0  0  0
   49.5916   29.2569   46.6793 H   0  0  0  0  0  0  0  0  0  0  0  0
   47.3729   31.4876   49.3632 H   0  0  0  0  0  0  0  0  0  0  0  0
   47.5559   29.6599   49.4171 H   0  0  0  0  0  0  0  0  0  0  0  0
   49.5080   28.7899   50.7378 H   0  0  0  0  0  0  0  0  0  0  0  0
   51.6059   29.3470   51.8808 H   0  0  0  0  0  0  0  0  0  0  0  0
   52.0043   33.9607   49.3725 H   0  0  0  0  0  0  0  0  0  0  0  0
  1 14  1  0
  2  5  1  0
  2  4  1  0
  3  2  1  0
  3  4  1  0
  4  1  1  0
  5  6  2  0
  7 12  2  0
  8  7  1  0
  9  8  2  0
  9 10  1  0
 10 11  2  0
 11 12  1  0
 11  5  1  0
 13  1  1  0
 14 15  1  0
 15 16  2  0
 16 17  1  0
 18 17  2  0
 19 18  1  0
 20 15  1  0
 20 19  2  0
 21 19  1  0
 21 22  2  0
  1 23  1  6
  2 24  1  6
  3 25  1  0
  3 26  1  0
  4 27  1  1
  7 28  1  0
  8 29  1  0
  9 30  1  0
 13 31  1  0
 13 32  1  0
 13 33  1  0
 14 34  1  0
 14 35  1  0
 16 36  1  0
 17 37  1  0
 21 38  1  0
M  ISO  8  23   8  24  13  25  13  26  13  27  13  28  14  29  14  30  14
M  ISO  8  31   8  32   8  33   8  34   8  35   8  36  14  37  14  38   6
M  END
>  <minimizedAffinity>  (1) 
-5.41661453

>  <minimizedRMSD>  (1) 
0.27108717

$$$$
