
     RDKit          3D

 23 25  0  0  0  0  0  0  0  0999 V2000
   44.5700   36.0660   44.6320 C   0  0  0  0  0  0  0  0  0  0  0  0
   45.1880   35.9820   43.3800 C   0  0  0  0  0  0  0  0  0  0  0  0
   46.0050   34.8870   43.1220 C   0  0  0  0  0  0  0  0  0  0  0  0
   46.1670   33.9420   44.1070 N   0  0  0  0  0  0  0  0  0  0  0  0
   45.5560   34.0620   45.2930 C   0  0  0  0  0  0  0  0  0  0  0  0
   44.7620   35.1090   45.5650 N   0  0  0  0  0  0  0  0  0  0  0  0
   45.6930   33.1110   46.3420 N   0  0  0  0  0  0  0  0  0  0  0  0
   45.0670   33.1780   47.5370 C   0  0  0  0  0  0  0  0  0  0  0  0
   45.3630   32.1610   48.3480 N   0  0  0  0  0  0  0  0  0  0  0  0
   46.2160   31.3840   47.6760 C   0  0  0  0  0  0  0  0  0  0  0  0
   46.8830   30.1990   47.9560 C   0  0  0  0  0  0  0  0  0  0  0  0
   47.7000   29.6710   47.0070 N   0  0  0  0  0  0  0  0  0  0  0  0
   47.8910   30.2520   45.8010 C   0  0  0  0  0  0  0  0  0  0  0  0
   47.2350   31.4160   45.5260 N   0  0  0  0  0  0  0  0  0  0  0  0
   46.4110   31.9770   46.4420 C   0  0  0  0  0  0  0  0  0  0  0  0
   46.6530   34.7640   41.8600 N   0  0  0  0  0  0  0  0  0  0  0  0
   43.9190   36.9230   44.8595 H   0  0  0  0  0  0  0  0  0  0  0  0
   45.0318   36.7615   42.6198 H   0  0  0  0  0  0  0  0  0  0  0  0
   44.3804   33.9914   47.8143 H   0  0  0  0  0  0  0  0  0  0  0  0
   46.7528   29.6976   48.9264 H   0  0  0  0  0  0  0  0  0  0  0  0
   48.5611   29.7957   45.0575 H   0  0  0  0  0  0  0  0  0  0  0  0
   47.2583   33.9528   41.6688 H   0  0  0  0  0  0  0  0  0  0  0  0
   46.5164   35.4862   41.1384 H   0  0  0  0  0  0  0  0  0  0  0  0
  1  6  2  0
  2  1  1  0
  3  2  2  0
  3  4  1  0
  4  5  2  0
  5  6  1  0
  5  7  1  0
  7 15  1  0
  7  8  1  0
  8  9  2  0
 10 11  2  0
 10  9  1  0
 12 11  1  0
 13 12  2  0
 14 13  1  0
 14 15  2  0
 15 10  1  0
 16  3  1  0
  1 17  1  0
  2 18  1  0
  8 19  1  0
 11 20  1  0
 13 21  1  0
 16 22  1  0
 16 23  1  0
M  ISO  5  17  14  18  14  19  14  20  14  21  14
M  END
>  <minimizedAffinity>  (1) 
-5.12641048

>  <minimizedRMSD>  (1) 
0.148024723

$$$$
