
     RDKit          3D

 21 22  0  0  0  0  0  0  0  0999 V2000
   44.5060   35.8070   44.6990 C   0  0  0  0  0  0  0  0  0  0  0  0
   45.1740   35.7750   43.4580 C   0  0  0  0  0  0  0  0  0  0  0  0
   46.1500   34.7830   43.2740 C   0  0  0  0  0  0  0  0  0  0  0  0
   46.4030   33.8990   44.3100 N   0  0  0  0  0  0  0  0  0  0  0  0
   45.7320   33.9870   45.4640 C   0  0  0  0  0  0  0  0  0  0  0  0
   44.8020   34.9200   45.6570 N   0  0  0  0  0  0  0  0  0  0  0  0
   46.0230   33.0400   46.5370 C   0  0  0  0  0  0  0  0  0  0  0  0
   45.1850   32.9220   47.6280 C   0  0  0  0  0  0  0  0  0  0  0  0
   45.4670   32.0260   48.6370 C   0  0  0  0  0  0  0  0  0  0  0  0
   46.5860   31.2200   48.5950 C   0  0  0  0  0  0  0  0  0  0  0  0
   47.4100   31.3670   47.4740 C   0  0  0  0  0  0  0  0  0  0  0  0
   47.1070   32.2440   46.5180 N   0  0  0  0  0  0  0  0  0  0  0  0
   46.8520   34.7120   42.0340 N   0  0  0  0  0  0  0  0  0  0  0  0
   43.7337   36.5686   44.8820 H   0  0  0  0  0  0  0  0  0  0  0  0
   44.9394   36.4996   42.6643 H   0  0  0  0  0  0  0  0  0  0  0  0
   44.2836   33.5491   47.6927 H   0  0  0  0  0  0  0  0  0  0  0  0
   44.7837   31.9519   49.4959 H   0  0  0  0  0  0  0  0  0  0  0  0
   46.8170   30.5031   49.3967 H   0  0  0  0  0  0  0  0  0  0  0  0
   48.3174   30.7522   47.3810 H   0  0  0  0  0  0  0  0  0  0  0  0
   47.5699   33.9877   41.8894 H   0  0  0  0  0  0  0  0  0  0  0  0
   46.6409   35.3850   41.2834 H   0  0  0  0  0  0  0  0  0  0  0  0
  1  6  2  0
  2  1  1  0
  3  2  2  0
  3  4  1  0
  4  5  2  0
  5  6  1  0
  5  7  1  0
  7  8  2  0
  8  9  1  0
 10  9  2  0
 11 10  1  0
 12  7  1  0
 12 11  2  0
 13  3  1  0
  1 14  1  0
  2 15  1  0
  8 16  1  0
  9 17  1  0
 10 18  1  0
 11 19  1  0
 13 20  1  0
 13 21  1  0
M  ISO  6  14  14  15  14  16  14  17  14  18  14  19  14
M  END
>  <minimizedAffinity>  (1) 
-4.75548792

>  <minimizedRMSD>  (1) 
0.374592334

$$$$
