
     RDKit          3D

 20 21  0  0  0  0  0  0  0  0999 V2000
   44.5100   35.8040   44.7070 C   0  0  0  0  0  0  0  0  0  0  0  0
   45.1820   35.7720   43.4640 C   0  0  0  0  0  0  0  0  0  0  0  0
   46.1450   34.7920   43.2690 C   0  0  0  0  0  0  0  0  0  0  0  0
   46.4050   33.9040   44.2770 N   0  0  0  0  0  0  0  0  0  0  0  0
   45.7460   33.9640   45.4470 C   0  0  0  0  0  0  0  0  0  0  0  0
   44.8140   34.9040   45.6500 N   0  0  0  0  0  0  0  0  0  0  0  0
   46.0280   33.0110   46.5210 C   0  0  0  0  0  0  0  0  0  0  0  0
   45.2130   32.9250   47.6340 C   0  0  0  0  0  0  0  0  0  0  0  0
   45.5130   32.0020   48.6410 C   0  0  0  0  0  0  0  0  0  0  0  0
   46.5990   31.2120   48.5030 N   0  0  0  0  0  0  0  0  0  0  0  0
   47.3980   31.2900   47.4250 C   0  0  0  0  0  0  0  0  0  0  0  0
   47.0920   32.1870   46.4600 N   0  0  0  0  0  0  0  0  0  0  0  0
   46.8480   34.7270   42.0230 N   0  0  0  0  0  0  0  0  0  0  0  0
   43.7400   36.5658   44.8987 H   0  0  0  0  0  0  0  0  0  0  0  0
   44.9487   36.5020   42.6749 H   0  0  0  0  0  0  0  0  0  0  0  0
   44.3334   33.5789   47.7272 H   0  0  0  0  0  0  0  0  0  0  0  0
   44.8735   31.9209   49.5323 H   0  0  0  0  0  0  0  0  0  0  0  0
   48.2800   30.6396   47.3298 H   0  0  0  0  0  0  0  0  0  0  0  0
   47.5638   34.0017   41.8727 H   0  0  0  0  0  0  0  0  0  0  0  0
   46.6378   35.4055   41.2771 H   0  0  0  0  0  0  0  0  0  0  0  0
  1  6  2  0
  2  1  1  0
  3  2  2  0
  3  4  1  0
  4  5  2  0
  5  6  1  0
  5  7  1  0
  7  8  2  0
  8  9  1  0
 10  9  2  0
 11 10  1  0
 12  7  1  0
 12 11  2  0
 13  3  1  0
  1 14  1  0
  2 15  1  0
  8 16  1  0
  9 17  1  0
 11 18  1  0
 13 19  1  0
 13 20  1  0
M  ISO  5  14  14  15  14  16  14  17  14  18  14
M  END
>  <minimizedAffinity>  (1) 
-4.58356094

>  <minimizedRMSD>  (1) 
0.720559597

$$$$
