
     RDKit          3D

 19 20  0  0  0  0  0  0  0  0999 V2000
   44.5370   35.8520   44.5740 C   0  0  0  0  0  0  0  0  0  0  0  0
   45.2640   35.5280   43.4150 C   0  0  0  0  0  0  0  0  0  0  0  0
   46.1110   34.4290   43.4580 C   0  0  0  0  0  0  0  0  0  0  0  0
   46.2030   33.7000   44.6330 N   0  0  0  0  0  0  0  0  0  0  0  0
   45.4920   34.0440   45.7120 C   0  0  0  0  0  0  0  0  0  0  0  0
   44.6650   35.1120   45.6830 N   0  0  0  0  0  0  0  0  0  0  0  0
   45.7140   33.1850   46.8270 N   0  0  0  0  0  0  0  0  0  0  0  0
   44.9920   32.7740   47.8560 N   0  0  0  0  0  0  0  0  0  0  0  0
   45.7220   31.9410   48.6240 C   0  0  0  0  0  0  0  0  0  0  0  0
   46.9740   31.8240   48.0450 C   0  0  0  0  0  0  0  0  0  0  0  0
   46.9430   32.6170   46.9130 C   0  0  0  0  0  0  0  0  0  0  0  0
   46.8650   34.0680   42.3070 N   0  0  0  0  0  0  0  0  0  0  0  0
   43.8591   36.7183   44.5699 H   0  0  0  0  0  0  0  0  0  0  0  0
   45.1643   36.1290   42.4991 H   0  0  0  0  0  0  0  0  0  0  0  0
   45.3838   31.4437   49.5450 H   0  0  0  0  0  0  0  0  0  0  0  0
   47.8199   31.2233   48.4106 H   0  0  0  0  0  0  0  0  0  0  0  0
   47.7717   32.7623   46.2044 H   0  0  0  0  0  0  0  0  0  0  0  0
   47.4937   33.2527   42.3380 H   0  0  0  0  0  0  0  0  0  0  0  0
   46.7822   34.6219   41.4426 H   0  0  0  0  0  0  0  0  0  0  0  0
  1  6  2  0
  2  3  2  0
  2  1  1  0
  3  4  1  0
  4  5  2  0
  5  7  1  0
  6  5  1  0
  7 11  1  0
  7  8  1  0
  8  9  2  0
 10  9  1  0
 11 10  2  0
 12  3  1  0
  1 13  1  0
  2 14  1  0
  9 15  1  0
 10 16  1  0
 11 17  1  0
 12 18  1  0
 12 19  1  0
M  ISO  5  13  14  14  14  15  14  16  14  17  14
M  END
>  <minimizedAffinity>  (1) 
-4.57212257

>  <minimizedRMSD>  (1) 
0.723124564

$$$$
