
     RDKit          3D

 22 23  0  0  0  0  0  0  0  0999 V2000
   44.5050   35.7350   44.8380 C   0  0  0  0  0  0  0  0  0  0  0  0
   45.1690   35.6760   43.6010 C   0  0  0  0  0  0  0  0  0  0  0  0
   46.1170   34.6830   43.3970 C   0  0  0  0  0  0  0  0  0  0  0  0
   46.3670   33.7950   44.4180 N   0  0  0  0  0  0  0  0  0  0  0  0
   45.7040   33.8880   45.5940 C   0  0  0  0  0  0  0  0  0  0  0  0
   44.7840   34.8470   45.8010 N   0  0  0  0  0  0  0  0  0  0  0  0
   46.0000   32.9250   46.6510 C   0  0  0  0  0  0  0  0  0  0  0  0
   45.1890   32.8270   47.7550 C   0  0  0  0  0  0  0  0  0  0  0  0
   45.4540   31.9230   48.7630 C   0  0  0  0  0  0  0  0  0  0  0  0
   46.5500   31.0810   48.6960 C   0  0  0  0  0  0  0  0  0  0  0  0
   47.3240   31.2320   47.5580 C   0  0  0  0  0  0  0  0  0  0  0  0
   47.1090   32.1070   46.5350 C   0  0  0  0  0  0  0  0  0  0  0  0
   46.8070   34.5920   42.1590 N   0  0  0  0  0  0  0  0  0  0  0  0
   43.7510   36.5158   45.0166 H   0  0  0  0  0  0  0  0  0  0  0  0
   44.9415   36.4040   42.8083 H   0  0  0  0  0  0  0  0  0  0  0  0
   44.3098   33.4829   47.8373 H   0  0  0  0  0  0  0  0  0  0  0  0
   44.7836   31.8708   49.6335 H   0  0  0  0  0  0  0  0  0  0  0  0
   46.7872   30.3505   49.4835 H   0  0  0  0  0  0  0  0  0  0  0  0
   48.2040   30.5779   47.4702 H   0  0  0  0  0  0  0  0  0  0  0  0
   47.7805   32.1595   45.6653 H   0  0  0  0  0  0  0  0  0  0  0  0
   47.5094   33.8527   42.0140 H   0  0  0  0  0  0  0  0  0  0  0  0
   46.6050   35.2653   41.4061 H   0  0  0  0  0  0  0  0  0  0  0  0
  1  6  2  0
  2  1  1  0
  3  2  2  0
  3  4  1  0
  4  5  2  0
  5  6  1  0
  5  7  1  0
  7  8  2  0
  8  9  1  0
 10  9  2  0
 11 10  1  0
 12  7  1  0
 12 11  2  0
 13  3  1  0
  1 14  1  0
  2 15  1  0
  8 16  1  0
  9 17  1  0
 10 18  1  0
 11 19  1  0
 12 20  1  0
 13 21  1  0
 13 22  1  0
M  ISO  7  14  14  15  14  16  14  17  14  18  14  19  14  20  14
M  END
>  <minimizedAffinity>  (1) 
-4.8346858

>  <minimizedRMSD>  (1) 
0.466210216

$$$$
