
     RDKit          3D

 26 27  0  0  0  0  0  0  0  0999 V2000
   44.5440   35.7030   45.0640 C   0  0  0  0  0  0  0  0  0  0  0  0
   45.0960   35.8470   43.7890 C   0  0  0  0  0  0  0  0  0  0  0  0
   45.9680   34.8560   43.3290 C   0  0  0  0  0  0  0  0  0  0  0  0
   46.2350   33.7870   44.1660 N   0  0  0  0  0  0  0  0  0  0  0  0
   45.6800   33.6950   45.3810 C   0  0  0  0  0  0  0  0  0  0  0  0
   44.8390   34.6450   45.8320 N   0  0  0  0  0  0  0  0  0  0  0  0
   45.9780   32.5810   46.2180 N   0  0  0  0  0  0  0  0  0  0  0  0
   46.2940   31.2970   45.6260 C   0  0  0  0  0  0  0  0  0  0  0  0
   45.8970   30.2210   46.5900 C   0  0  0  0  0  0  0  0  0  0  0  0
   44.7320   30.6080   47.3520 N   0  0  0  0  0  0  0  0  0  0  0  0
   44.9560   31.7300   48.2160 C   0  0  0  0  0  0  0  0  0  0  0  0
   45.9740   32.6890   47.6520 C   0  0  0  0  0  0  0  0  0  0  0  0
   46.5550   34.9540   42.0410 N   0  0  0  0  0  0  0  0  0  0  0  0
   43.8550   36.4715   45.4444 H   0  0  0  0  0  0  0  0  0  0  0  0
   44.8509   36.7177   43.1631 H   0  0  0  0  0  0  0  0  0  0  0  0
   45.7387   31.1754   44.6843 H   0  0  0  0  0  0  0  0  0  0  0  0
   47.3712   31.2343   45.4124 H   0  0  0  0  0  0  0  0  0  0  0  0
   45.6703   29.3022   46.0292 H   0  0  0  0  0  0  0  0  0  0  0  0
   46.7304   30.0529   47.2879 H   0  0  0  0  0  0  0  0  0  0  0  0
   43.9781   30.8501   46.6933 H   0  0  0  0  0  0  0  0  0  0  0  0
   44.0050   32.2648   48.3559 H   0  0  0  0  0  0  0  0  0  0  0  0
   45.3449   31.3481   49.1715 H   0  0  0  0  0  0  0  0  0  0  0  0
   46.9714   32.4395   48.0430 H   0  0  0  0  0  0  0  0  0  0  0  0
   45.7169   33.7175   47.9456 H   0  0  0  0  0  0  0  0  0  0  0  0
   47.1964   34.2192   41.7101 H   0  0  0  0  0  0  0  0  0  0  0  0
   46.3397   35.7600   41.4369 H   0  0  0  0  0  0  0  0  0  0  0  0
  1  6  2  0
  2  1  1  0
  3  2  2  0
  3  4  1  0
  4  5  2  0
  5  6  1  0
  5  7  1  0
  7 12  1  0
  8  7  1  0
  8  9  1  0
  9 10  1  0
 10 11  1  0
 12 11  1  0
 13  3  1  0
  1 14  1  0
  2 15  1  0
  8 16  1  0
  8 17  1  0
  9 18  1  0
  9 19  1  0
 10 20  1  0
 11 21  1  0
 11 22  1  0
 12 23  1  0
 12 24  1  0
 13 25  1  0
 13 26  1  0
M  ISO  8  14  14  15  14  16  13  17  13  18  13  19  13  20   5  21  13
M  ISO  3  22  13  23  13  24  13
M  END
>  <minimizedAffinity>  (1) 
-4.67804337

>  <minimizedRMSD>  (1) 
0.611984909

$$$$
