
     RDKit          3D

 22 23  0  0  0  0  0  0  0  0999 V2000
   44.5370   35.5460   44.9950 C   0  0  0  0  0  0  0  0  0  0  0  0
   45.1990   35.4540   43.7650 C   0  0  0  0  0  0  0  0  0  0  0  0
   46.1530   34.4500   43.6120 C   0  0  0  0  0  0  0  0  0  0  0  0
   46.3950   33.6020   44.6740 N   0  0  0  0  0  0  0  0  0  0  0  0
   45.7320   33.7300   45.8400 C   0  0  0  0  0  0  0  0  0  0  0  0
   44.8140   34.6910   45.9930 N   0  0  0  0  0  0  0  0  0  0  0  0
   46.0160   32.8130   46.9380 C   0  0  0  0  0  0  0  0  0  0  0  0
   47.2220   32.1510   46.9930 C   0  0  0  0  0  0  0  0  0  0  0  0
   47.4710   31.2950   48.0290 C   0  0  0  0  0  0  0  0  0  0  0  0
   46.5580   31.0490   49.0550 C   0  0  0  0  0  0  0  0  0  0  0  0
   45.3520   31.7270   48.9770 C   0  0  0  0  0  0  0  0  0  0  0  0
   45.0850   32.5960   47.9350 C   0  0  0  0  0  0  0  0  0  0  0  0
   46.8590   34.3150   42.3710 N   0  0  0  0  0  0  0  0  0  0  0  0
   43.7796   36.3293   45.1462 H   0  0  0  0  0  0  0  0  0  0  0  0
   44.9733   36.1521   42.9454 H   0  0  0  0  0  0  0  0  0  0  0  0
   47.9783   32.3096   46.2102 H   0  0  0  0  0  0  0  0  0  0  0  0
   48.4395   30.7740   48.0552 H   0  0  0  0  0  0  0  0  0  0  0  0
   46.7828   30.3560   49.8792 H   0  0  0  0  0  0  0  0  0  0  0  0
   44.5933   31.5711   49.7581 H   0  0  0  0  0  0  0  0  0  0  0  0
   44.1190   33.1210   47.8997 H   0  0  0  0  0  0  0  0  0  0  0  0
   47.5642   33.5729   42.2578 H   0  0  0  0  0  0  0  0  0  0  0  0
   46.6608   34.9602   41.5929 H   0  0  0  0  0  0  0  0  0  0  0  0
  1  6  2  0
  2  1  1  0
  3  2  2  0
  3  4  1  0
  4  5  2  0
  5  6  1  0
  5  7  1  0
  7  8  2  0
  7 12  1  0
  8  9  1  0
  9 10  2  0
 11 10  1  0
 12 11  2  0
 13  3  1  0
  1 14  1  0
  2 15  1  0
  8 16  1  0
  9 17  1  0
 10 18  1  0
 11 19  1  0
 12 20  1  0
 13 21  1  0
 13 22  1  0
M  ISO  7  14  14  15  14  16  14  17  14  18  14  19  14  20  14
M  END
>  <minimizedAffinity>  (1) 
-4.85115147

>  <minimizedRMSD>  (1) 
0.921574175

$$$$
