
     RDKit          3D

 28 29  0  0  0  0  0  0  0  0999 V2000
   44.7100   35.2250   45.1950 C   0  0  0  0  0  0  0  0  0  0  0  0
   45.2000   35.4920   43.9150 C   0  0  0  0  0  0  0  0  0  0  0  0
   46.2170   34.6820   43.3960 C   0  0  0  0  0  0  0  0  0  0  0  0
   46.6740   33.6650   44.1880 N   0  0  0  0  0  0  0  0  0  0  0  0
   46.1820   33.4320   45.4190 C   0  0  0  0  0  0  0  0  0  0  0  0
   45.2060   34.2080   45.9190 N   0  0  0  0  0  0  0  0  0  0  0  0
   46.7190   32.2990   46.2500 C   0  0  0  0  0  0  0  0  0  0  0  0
   47.0140   32.7480   47.6260 C   0  0  0  0  0  0  0  0  0  0  0  0
   46.3760   31.9960   48.7410 C   0  0  0  0  0  0  0  0  0  0  0  0
   45.0980   31.2930   48.3630 C   0  0  0  0  0  0  0  0  0  0  0  0
   45.5240   30.3120   47.2660 C   0  0  0  0  0  0  0  0  0  0  0  0
   45.8210   31.1400   46.0610 C   0  0  0  0  0  0  0  0  0  0  0  0
   46.7340   34.9270   42.1010 N   0  0  0  0  0  0  0  0  0  0  0  0
   43.9104   35.8533   45.6144 H   0  0  0  0  0  0  0  0  0  0  0  0
   44.7933   36.3257   43.3238 H   0  0  0  0  0  0  0  0  0  0  0  0
   47.7086   31.9455   45.9249 H   0  0  0  0  0  0  0  0  0  0  0  0
   48.1032   32.6871   47.7671 H   0  0  0  0  0  0  0  0  0  0  0  0
   46.5900   33.7610   47.6895 H   0  0  0  0  0  0  0  0  0  0  0  0
   47.0908   31.2414   49.1011 H   0  0  0  0  0  0  0  0  0  0  0  0
   46.1126   32.7366   49.5105 H   0  0  0  0  0  0  0  0  0  0  0  0
   44.6775   30.7558   49.2259 H   0  0  0  0  0  0  0  0  0  0  0  0
   44.3155   31.9894   48.0272 H   0  0  0  0  0  0  0  0  0  0  0  0
   46.4209   29.7569   47.5779 H   0  0  0  0  0  0  0  0  0  0  0  0
   44.7358   29.5728   47.0606 H   0  0  0  0  0  0  0  0  0  0  0  0
   44.8638   31.5208   45.6754 H   0  0  0  0  0  0  0  0  0  0  0  0
   46.3606   30.4680   45.3775 H   0  0  0  0  0  0  0  0  0  0  0  0
   47.4823   34.3283   41.7234 H   0  0  0  0  0  0  0  0  0  0  0  0
   46.3619   35.7039   41.5364 H   0  0  0  0  0  0  0  0  0  0  0  0
  1  6  2  0
  2  1  1  0
  3  2  2  0
  3  4  1  0
  4  5  2  0
  5  6  1  0
  5  7  1  0
  7  8  1  0
  8  9  1  0
 10  9  1  0
 11 10  1  0
 12  7  1  0
 12 11  1  0
 13  3  1  0
  1 14  1  0
  2 15  1  0
  7 16  1  0
  8 17  1  0
  8 18  1  0
  9 19  1  0
  9 20  1  0
 10 21  1  0
 10 22  1  0
 11 23  1  0
 11 24  1  0
 12 25  1  0
 12 26  1  0
 13 27  1  0
 13 28  1  0
M  ISO  8  14  14  15  14  16  13  17  13  18  13  19  13  20  13  21  13
M  ISO  5  22  13  23  13  24  13  25  13  26  13
M  END
>  <minimizedAffinity>  (1) 
-4.51277637

>  <minimizedRMSD>  (1) 
1.30800593

$$$$
