
     RDKit          3D

 19 20  0  0  0  0  0  0  0  0999 V2000
   44.5120   35.9030   44.4570 C   0  0  0  0  0  0  0  0  0  0  0  0
   45.2450   35.6770   43.2880 C   0  0  0  0  0  0  0  0  0  0  0  0
   46.1670   34.6400   43.2660 C   0  0  0  0  0  0  0  0  0  0  0  0
   46.3180   33.8730   44.4110 N   0  0  0  0  0  0  0  0  0  0  0  0
   45.6000   34.1160   45.5130 C   0  0  0  0  0  0  0  0  0  0  0  0
   44.7040   35.1240   45.5340 N   0  0  0  0  0  0  0  0  0  0  0  0
   45.7760   33.2950   46.7060 C   0  0  0  0  0  0  0  0  0  0  0  0
   46.8820   32.5270   47.0030 C   0  0  0  0  0  0  0  0  0  0  0  0
   46.5890   31.9400   48.2220 C   0  0  0  0  0  0  0  0  0  0  0  0
   45.3710   32.3330   48.6390 N   0  0  0  0  0  0  0  0  0  0  0  0
   44.8990   33.1470   47.7140 N   0  0  0  0  0  0  0  0  0  0  0  0
   46.9320   34.3790   42.0960 N   0  0  0  0  0  0  0  0  0  0  0  0
   43.7768   36.7203   44.4946 H   0  0  0  0  0  0  0  0  0  0  0  0
   45.0935   36.3101   42.4013 H   0  0  0  0  0  0  0  0  0  0  0  0
   47.7962   32.4071   46.4031 H   0  0  0  0  0  0  0  0  0  0  0  0
   47.2530   31.2542   48.7687 H   0  0  0  0  0  0  0  0  0  0  0  0
   44.8992   32.0528   49.5107 H   0  0  0  0  0  0  0  0  0  0  0  0
   47.6142   33.6073   42.0882 H   0  0  0  0  0  0  0  0  0  0  0  0
   46.8039   34.9616   41.2563 H   0  0  0  0  0  0  0  0  0  0  0  0
  1  6  2  0
  2  1  1  0
  3  2  2  0
  3  4  1  0
  4  5  2  0
  5  6  1  0
  5  7  1  0
  7  8  1  0
  7 11  2  0
  8  9  2  0
  9 10  1  0
 11 10  1  0
 12  3  1  0
  1 13  1  0
  2 14  1  0
  8 15  1  0
  9 16  1  0
 10 17  1  0
 12 18  1  0
 12 19  1  0
M  ISO  5  13  14  14  14  15  14  16  14  17   9
M  END
>  <minimizedAffinity>  (1) 
-4.40078163

>  <minimizedRMSD>  (1) 
0.537502289

$$$$
