
     RDKit          3D

 13 13  0  0  0  0  0  0  0  0999 V2000
   44.5050   36.0320   44.5490 C   0  0  0  0  0  0  0  0  0  0  0  0
   45.2130   35.9190   43.3440 C   0  0  0  0  0  0  0  0  0  0  0  0
   46.0690   34.8260   43.1920 C   0  0  0  0  0  0  0  0  0  0  0  0
   46.1730   33.9250   44.2210 N   0  0  0  0  0  0  0  0  0  0  0  0
   45.4720   34.0790   45.3580 C   0  0  0  0  0  0  0  0  0  0  0  0
   44.6500   35.1140   45.5210 N   0  0  0  0  0  0  0  0  0  0  0  0
   46.8060   34.6750   41.9830 N   0  0  0  0  0  0  0  0  0  0  0  0
   45.5550   33.1830   46.4180 O   0  0  0  0  0  0  0  0  0  0  0  0
   43.8229   36.8815   44.7011 H   0  0  0  0  0  0  0  0  0  0  0  0
   45.0981   36.6663   42.5450 H   0  0  0  0  0  0  0  0  0  0  0  0
   47.4395   33.8717   41.8629 H   0  0  0  0  0  0  0  0  0  0  0  0
   46.7056   35.3690   41.2286 H   0  0  0  0  0  0  0  0  0  0  0  0
   45.0208   33.3349   47.2375 H   0  0  0  0  0  0  0  0  0  0  0  0
  1  6  2  0
  2  1  1  0
  3  2  2  0
  3  4  1  0
  4  5  2  0
  5  6  1  0
  5  8  1  0
  7  3  1  0
  1  9  1  0
  2 10  1  0
  7 11  1  0
  7 12  1  0
  8 13  1  0
M  ISO  3   9  14  10  14  13   3
M  END
>  <minimizedAffinity>  (1) 
-3.33545113

>  <minimizedRMSD>  (1) 
0.14042002

$$$$
