
     RDKit          3D

 18 19  0  0  0  0  0  0  0  0999 V2000
   44.5040   35.8870   44.7200 C   0  0  0  0  0  0  0  0  0  0  0  0
   45.1400   35.8770   43.4750 C   0  0  0  0  0  0  0  0  0  0  0  0
   46.0700   34.8780   43.2000 C   0  0  0  0  0  0  0  0  0  0  0  0
   46.3170   33.9490   44.1710 N   0  0  0  0  0  0  0  0  0  0  0  0
   45.6890   33.9880   45.3560 C   0  0  0  0  0  0  0  0  0  0  0  0
   44.7890   34.9430   45.6390 N   0  0  0  0  0  0  0  0  0  0  0  0
   45.9580   32.9790   46.4070 C   0  0  0  0  0  0  0  0  0  0  0  0
   46.9620   32.0240   46.2480 C   0  0  0  0  0  0  0  0  0  0  0  0
   46.8010   31.1060   47.8290 S   0  0  0  0  0  0  0  0  0  0  0  0
   45.3700   32.2170   48.4180 C   0  0  0  0  0  0  0  0  0  0  0  0
   45.2120   33.0230   47.4920 N   0  0  0  0  0  0  0  0  0  0  0  0
   46.7250   34.8510   41.9430 N   0  0  0  0  0  0  0  0  0  0  0  0
   43.7666   36.6699   44.9510 H   0  0  0  0  0  0  0  0  0  0  0  0
   44.9091   36.6468   42.7240 H   0  0  0  0  0  0  0  0  0  0  0  0
   47.6561   31.8654   45.4095 H   0  0  0  0  0  0  0  0  0  0  0  0
   44.8121   32.1562   49.3641 H   0  0  0  0  0  0  0  0  0  0  0  0
   47.4135   34.1132   41.7368 H   0  0  0  0  0  0  0  0  0  0  0  0
   46.5124   35.5692   41.2360 H   0  0  0  0  0  0  0  0  0  0  0  0
  1  6  2  0
  2  1  1  0
  3  2  2  0
  3  4  1  0
  4  5  2  0
  5  6  1  0
  5  7  1  0
  7 11  1  0
  8  7  2  0
  8  9  1  0
  9 10  1  0
 11 10  2  0
 12  3  1  0
  1 13  1  0
  2 14  1  0
  8 15  1  0
 10 16  1  0
 12 17  1  0
 12 18  1  0
M  ISO  4  13  14  14  14  15  14  16  14
M  END
>  <minimizedAffinity>  (1) 
-4.27596855

>  <minimizedRMSD>  (1) 
0.619813561

$$$$
