
     RDKit          3D

 13 13  0  0  0  0  0  0  0  0999 V2000
   44.5360   35.8710   44.5700 C   0  0  0  0  0  0  0  0  0  0  0  0
   45.1950   35.9010   43.3330 C   0  0  0  0  0  0  0  0  0  0  0  0
   46.1660   34.9130   43.0930 C   0  0  0  0  0  0  0  0  0  0  0  0
   46.4130   33.9850   44.0680 N   0  0  0  0  0  0  0  0  0  0  0  0
   45.7520   34.0020   45.2350 C   0  0  0  0  0  0  0  0  0  0  0  0
   44.8290   34.9320   45.4780 N   0  0  0  0  0  0  0  0  0  0  0  0
   46.8610   34.9030   41.8540 N   0  0  0  0  0  0  0  0  0  0  0  0
   46.0770   32.7860   46.5120 S   0  0  0  0  0  0  0  0  0  0  0  0
   43.7700   36.6271   44.7969 H   0  0  0  0  0  0  0  0  0  0  0  0
   44.9615   36.6677   42.5796 H   0  0  0  0  0  0  0  0  0  0  0  0
   47.5740   34.1830   41.6693 H   0  0  0  0  0  0  0  0  0  0  0  0
   46.6519   35.6157   41.1404 H   0  0  0  0  0  0  0  0  0  0  0  0
   45.9222   33.3650   47.7439 H   0  0  0  0  0  0  0  0  0  0  0  0
  1  6  2  0
  2  1  1  0
  3  2  2  0
  3  4  1  0
  4  5  2  0
  5  6  1  0
  5  8  1  0
  7  3  1  0
  1  9  1  0
  2 10  1  0
  7 11  1  0
  7 12  1  0
  8 13  1  0
M  ISO  3   9  14  10  14  13  11
M  END
>  <minimizedAffinity>  (1) 
-3.28514624

>  <minimizedRMSD>  (1) 
0.173536658

$$$$
