
     RDKit          3D

 29 31  0  0  0  0  0  0  0  0999 V2000
   45.7440   33.1860   46.1620 C   0  0  0  0  0  0  0  0  0  0  0  0
   45.1710   33.1780   47.4040 C   0  0  0  0  0  0  0  0  0  0  0  0
   45.6650   32.3720   48.4150 C   0  0  0  0  0  0  0  0  0  0  0  0
   46.7670   31.5460   48.1840 C   0  0  0  0  0  0  0  0  0  0  0  0
   47.2820   31.6140   46.9120 C   0  0  0  0  0  0  0  0  0  0  0  0
   46.8330   32.3840   45.8930 C   0  0  0  0  0  0  0  0  0  0  0  0
   44.4630   36.1480   44.4330 C   0  0  0  0  0  0  0  0  0  0  0  0
   44.2780   35.6760   43.1240 C   0  0  0  0  0  0  0  0  0  0  0  0
   44.5890   34.3660   42.8530 C   0  0  0  0  0  0  0  0  0  0  0  0
   45.0670   33.5640   43.8590 N   0  0  0  0  0  0  0  0  0  0  0  0
   45.2330   34.0410   45.0990 C   0  0  0  0  0  0  0  0  0  0  0  0
   44.9280   35.3290   45.3710 N   0  0  0  0  0  0  0  0  0  0  0  0
   44.4160   33.8520   41.5400 N   0  0  0  0  0  0  0  0  0  0  0  0
   47.5430   32.2730   44.6270 C   0  0  0  0  0  0  0  0  0  0  0  0
   47.8930   31.1640   43.8460 C   0  0  0  0  0  0  0  0  0  0  0  0
   48.5480   31.5340   42.7470 N   0  0  0  0  0  0  0  0  0  0  0  0
   48.6590   32.8740   42.7520 C   0  0  0  0  0  0  0  0  0  0  0  0
   48.0470   33.3130   43.8940 N   0  0  0  0  0  0  0  0  0  0  0  0
   44.3026   33.8233   47.6028 H   0  0  0  0  0  0  0  0  0  0  0  0
   45.1870   32.3822   49.4057 H   0  0  0  0  0  0  0  0  0  0  0  0
   47.1900   30.8915   48.9603 H   0  0  0  0  0  0  0  0  0  0  0  0
   48.1516   30.9749   46.6989 H   0  0  0  0  0  0  0  0  0  0  0  0
   44.2239   37.1925   44.6818 H   0  0  0  0  0  0  0  0  0  0  0  0
   43.8935   36.3389   42.3349 H   0  0  0  0  0  0  0  0  0  0  0  0
   44.6492   32.8696   41.3367 H   0  0  0  0  0  0  0  0  0  0  0  0
   44.0574   34.4618   40.7914 H   0  0  0  0  0  0  0  0  0  0  0  0
   47.6572   30.1217   44.1069 H   0  0  0  0  0  0  0  0  0  0  0  0
   49.1468   33.4960   41.9870 H   0  0  0  0  0  0  0  0  0  0  0  0
   47.9745   34.3032   44.1681 H   0  0  0  0  0  0  0  0  0  0  0  0
  1  2  2  0
  2  3  1  0
  4  3  2  0
  5  4  1  0
  6  1  1  0
  6  5  2  0
  7 12  2  0
  8  7  1  0
  9  8  2  0
  9 10  1  0
 10 11  2  0
 11 12  1  0
 11  1  1  0
 13  9  1  0
 14  6  1  0
 15 14  2  0
 16 17  2  0
 16 15  1  0
 17 18  1  0
 18 14  1  0
  2 19  1  0
  3 20  1  0
  4 21  1  0
  5 22  1  0
  7 23  1  0
  8 24  1  0
 13 25  1  0
 13 26  1  0
 15 27  1  0
 17 28  1  0
 18 29  1  0
M  ISO  8  19  14  20  14  21  14  22  14  23  14  24  14  27  14  28  14
M  ISO  1  29   9
M  END
>  <minimizedAffinity>  (1) 
-4.88469267

>  <minimizedRMSD>  (1) 
1.12461746

$$$$
