
     RDKit          3D

 29 31  0  0  0  0  0  0  0  0999 V2000
   45.7500   32.8980   46.3140 C   0  0  0  0  0  0  0  0  0  0  0  0
   45.3640   33.0580   47.6290 C   0  0  0  0  0  0  0  0  0  0  0  0
   45.5340   32.0550   48.5570 C   0  0  0  0  0  0  0  0  0  0  0  0
   46.0970   30.8510   48.2060 C   0  0  0  0  0  0  0  0  0  0  0  0
   46.4690   30.7480   46.8610 C   0  0  0  0  0  0  0  0  0  0  0  0
   46.3210   31.7030   45.9190 C   0  0  0  0  0  0  0  0  0  0  0  0
   44.5090   35.9450   44.7130 C   0  0  0  0  0  0  0  0  0  0  0  0
   45.2420   35.9520   43.5190 C   0  0  0  0  0  0  0  0  0  0  0  0
   46.1500   34.9340   43.2570 C   0  0  0  0  0  0  0  0  0  0  0  0
   46.2770   33.9580   44.2070 N   0  0  0  0  0  0  0  0  0  0  0  0
   45.5570   33.9700   45.3550 C   0  0  0  0  0  0  0  0  0  0  0  0
   44.6850   34.9510   45.6050 N   0  0  0  0  0  0  0  0  0  0  0  0
   46.9050   34.9130   42.0660 N   0  0  0  0  0  0  0  0  0  0  0  0
   46.7530   31.4460   44.5470 C   0  0  0  0  0  0  0  0  0  0  0  0
   45.8500   30.7950   43.7260 C   0  0  0  0  0  0  0  0  0  0  0  0
   46.4590   30.6640   42.4980 C   0  0  0  0  0  0  0  0  0  0  0  0
   47.6920   31.2210   42.5840 N   0  0  0  0  0  0  0  0  0  0  0  0
   47.8680   31.6850   43.8000 N   0  0  0  0  0  0  0  0  0  0  0  0
   44.9098   34.0092   47.9434 H   0  0  0  0  0  0  0  0  0  0  0  0
   45.2140   32.2199   49.5964 H   0  0  0  0  0  0  0  0  0  0  0  0
   46.2436   30.0325   48.9262 H   0  0  0  0  0  0  0  0  0  0  0  0
   46.9250   29.7993   46.5414 H   0  0  0  0  0  0  0  0  0  0  0  0
   43.7901   36.7509   44.9220 H   0  0  0  0  0  0  0  0  0  0  0  0
   45.0986   36.7629   42.7897 H   0  0  0  0  0  0  0  0  0  0  0  0
   47.5726   34.1480   41.8929 H   0  0  0  0  0  0  0  0  0  0  0  0
   46.7888   35.6627   41.3693 H   0  0  0  0  0  0  0  0  0  0  0  0
   44.8424   30.4495   44.0004 H   0  0  0  0  0  0  0  0  0  0  0  0
   46.0226   30.1914   41.6057 H   0  0  0  0  0  0  0  0  0  0  0  0
   48.3798   31.2721   41.8190 H   0  0  0  0  0  0  0  0  0  0  0  0
  1  2  2  0
  2  3  1  0
  4  3  2  0
  5  4  1  0
  6  1  1  0
  6  5  2  0
  7 12  2  0
  8  7  1  0
  9  8  2  0
  9 10  1  0
 10 11  2  0
 11 12  1  0
 11  1  1  0
 13  9  1  0
 14  6  1  0
 15 14  1  0
 16 17  1  0
 16 15  2  0
 17 18  1  0
 18 14  2  0
  2 19  1  0
  3 20  1  0
  4 21  1  0
  5 22  1  0
  7 23  1  0
  8 24  1  0
 13 25  1  0
 13 26  1  0
 15 27  1  0
 16 28  1  0
 17 29  1  0
M  ISO  8  19  14  20  14  21  14  22  14  23  14  24  14  27  14  28  14
M  ISO  1  29   9
M  END
>  <minimizedAffinity>  (1) 
-4.87697554

>  <minimizedRMSD>  (1) 
1.25852871

$$$$
