
     RDKit          3D

 25 26  0  0  0  0  0  0  0  0999 V2000
   45.8250   32.9770   46.3580 C   0  0  0  0  0  0  0  0  0  0  0  0
   45.3150   33.0480   47.6180 C   0  0  0  0  0  0  0  0  0  0  0  0
   45.5570   32.0290   48.5180 C   0  0  0  0  0  0  0  0  0  0  0  0
   46.3020   30.9230   48.2070 C   0  0  0  0  0  0  0  0  0  0  0  0
   46.7950   30.8950   46.9310 C   0  0  0  0  0  0  0  0  0  0  0  0
   46.5710   31.8760   46.0390 C   0  0  0  0  0  0  0  0  0  0  0  0
   44.4710   35.9620   44.7530 C   0  0  0  0  0  0  0  0  0  0  0  0
   45.1310   35.9530   43.5240 C   0  0  0  0  0  0  0  0  0  0  0  0
   46.0350   34.9410   43.2370 C   0  0  0  0  0  0  0  0  0  0  0  0
   46.2430   33.9790   44.1930 N   0  0  0  0  0  0  0  0  0  0  0  0
   45.5950   34.0100   45.3690 C   0  0  0  0  0  0  0  0  0  0  0  0
   44.7080   34.9990   45.6540 N   0  0  0  0  0  0  0  0  0  0  0  0
   46.7300   34.8870   42.0080 N   0  0  0  0  0  0  0  0  0  0  0  0
   47.2110   31.6270   44.7700 C   0  0  0  0  0  0  0  0  0  0  0  0
   46.9990   30.6700   43.9780 O   0  0  0  0  0  0  0  0  0  0  0  0
   48.0820   31.8970   43.7530 O   0  0  0  0  0  0  0  0  0  0  0  0
   44.7106   33.9164   47.9191 H   0  0  0  0  0  0  0  0  0  0  0  0
   45.1325   32.1093   49.5296 H   0  0  0  0  0  0  0  0  0  0  0  0
   46.4904   30.1159   48.9303 H   0  0  0  0  0  0  0  0  0  0  0  0
   47.4017   30.0314   46.6210 H   0  0  0  0  0  0  0  0  0  0  0  0
   43.7531   36.7630   44.9833 H   0  0  0  0  0  0  0  0  0  0  0  0
   44.9354   36.7448   42.7860 H   0  0  0  0  0  0  0  0  0  0  0  0
   47.3950   34.1219   41.8256 H   0  0  0  0  0  0  0  0  0  0  0  0
   46.5716   35.6127   41.2945 H   0  0  0  0  0  0  0  0  0  0  0  0
   48.1324   31.2923   42.9708 H   0  0  0  0  0  0  0  0  0  0  0  0
  1  2  2  0
  2  3  1  0
  4  3  2  0
  5  4  1  0
  6  1  1  0
  6  5  2  0
  7 12  2  0
  8  7  1  0
  9  8  2  0
  9 10  1  0
 10 11  2  0
 11 12  1  0
 11  1  1  0
 13  9  1  0
 14  6  1  0
 15 14  2  0
 16 14  1  0
  2 17  1  0
  3 18  1  0
  4 19  1  0
  5 20  1  0
  7 21  1  0
  8 22  1  0
 13 23  1  0
 13 24  1  0
 16 25  1  0
M  ISO  7  17  14  18  14  19  14  20  14  21  14  22  14  25   3
M  END
>  <minimizedAffinity>  (1) 
-4.82708311

>  <minimizedRMSD>  (1) 
0.860370457

$$$$
