
     RDKit          3D

 30 32  0  0  0  0  0  0  0  0999 V2000
   45.7580   32.9550   46.1850 C   0  0  0  0  0  0  0  0  0  0  0  0
   45.4190   33.1640   47.4850 C   0  0  0  0  0  0  0  0  0  0  0  0
   45.5480   32.1810   48.4350 C   0  0  0  0  0  0  0  0  0  0  0  0
   46.0370   30.9170   48.0990 C   0  0  0  0  0  0  0  0  0  0  0  0
   46.3630   30.7590   46.7750 C   0  0  0  0  0  0  0  0  0  0  0  0
   46.2430   31.7160   45.8250 C   0  0  0  0  0  0  0  0  0  0  0  0
   44.5480   35.9360   44.4530 C   0  0  0  0  0  0  0  0  0  0  0  0
   45.3670   35.9670   43.3180 C   0  0  0  0  0  0  0  0  0  0  0  0
   46.3190   34.9810   43.1510 C   0  0  0  0  0  0  0  0  0  0  0  0
   46.4380   33.9920   44.1060 N   0  0  0  0  0  0  0  0  0  0  0  0
   45.6240   34.0010   45.1870 C   0  0  0  0  0  0  0  0  0  0  0  0
   44.6930   34.9640   45.3540 N   0  0  0  0  0  0  0  0  0  0  0  0
   47.1700   34.9620   42.0240 N   0  0  0  0  0  0  0  0  0  0  0  0
   46.6360   31.3430   44.4750 C   0  0  0  0  0  0  0  0  0  0  0  0
   45.5460   30.8020   43.8000 C   0  0  0  0  0  0  0  0  0  0  0  0
   45.6500   30.3650   42.4750 C   0  0  0  0  0  0  0  0  0  0  0  0
   46.8410   30.4730   41.8370 N   0  0  0  0  0  0  0  0  0  0  0  0
   47.8720   31.0030   42.5280 C   0  0  0  0  0  0  0  0  0  0  0  0
   47.8180   31.4340   43.7950 N   0  0  0  0  0  0  0  0  0  0  0  0
   45.0303   34.1486   47.7842 H   0  0  0  0  0  0  0  0  0  0  0  0
   45.2619   32.3924   49.4759 H   0  0  0  0  0  0  0  0  0  0  0  0
   46.1521   30.1104   48.8380 H   0  0  0  0  0  0  0  0  0  0  0  0
   46.7519   29.7789   46.4616 H   0  0  0  0  0  0  0  0  0  0  0  0
   43.7846   36.7139   44.6015 H   0  0  0  0  0  0  0  0  0  0  0  0
   45.2537   36.7655   42.5699 H   0  0  0  0  0  0  0  0  0  0  0  0
   47.8726   34.2158   41.9217 H   0  0  0  0  0  0  0  0  0  0  0  0
   47.0880   35.6943   41.3044 H   0  0  0  0  0  0  0  0  0  0  0  0
   44.5805   30.7160   44.3201 H   0  0  0  0  0  0  0  0  0  0  0  0
   44.7772   29.9396   41.9581 H   0  0  0  0  0  0  0  0  0  0  0  0
   48.8372   31.0881   42.0072 H   0  0  0  0  0  0  0  0  0  0  0  0
  1  2  2  0
  2  3  1  0
  4  3  2  0
  5  4  1  0
  6  1  1  0
  6  5  2  0
  7 12  2  0
  8  7  1  0
  9  8  2  0
  9 10  1  0
 10 11  2  0
 11 12  1  0
 11  1  1  0
 13  9  1  0
 14  6  1  0
 15 14  2  0
 16 15  1  0
 17 16  2  0
 17 18  1  0
 18 19  2  0
 19 14  1  0
  2 20  1  0
  3 21  1  0
  4 22  1  0
  5 23  1  0
  7 24  1  0
  8 25  1  0
 13 26  1  0
 13 27  1  0
 15 28  1  0
 16 29  1  0
 18 30  1  0
M  ISO  8  20  14  21  14  22  14  23  14  24  14  25  14  28  14  29  14
M  ISO  1  30  14
M  END
>  <minimizedAffinity>  (1) 
-4.8032732

>  <minimizedRMSD>  (1) 
1.71246362

$$$$
