
     RDKit          3D

 24 25  0  0  0  0  0  0  0  0999 V2000
   45.8310   32.9680   46.3810 C   0  0  0  0  0  0  0  0  0  0  0  0
   45.2860   33.0310   47.6290 C   0  0  0  0  0  0  0  0  0  0  0  0
   45.5370   32.0430   48.5500 C   0  0  0  0  0  0  0  0  0  0  0  0
   46.3310   30.9630   48.2760 C   0  0  0  0  0  0  0  0  0  0  0  0
   46.8440   30.9660   47.0070 C   0  0  0  0  0  0  0  0  0  0  0  0
   46.6270   31.9050   46.0750 C   0  0  0  0  0  0  0  0  0  0  0  0
   44.4940   35.9330   44.7530 C   0  0  0  0  0  0  0  0  0  0  0  0
   45.1660   35.9220   43.5110 C   0  0  0  0  0  0  0  0  0  0  0  0
   46.0600   34.9140   43.2360 C   0  0  0  0  0  0  0  0  0  0  0  0
   46.2410   33.9700   44.2050 N   0  0  0  0  0  0  0  0  0  0  0  0
   45.5950   33.9960   45.3810 C   0  0  0  0  0  0  0  0  0  0  0  0
   44.7130   34.9900   45.6540 N   0  0  0  0  0  0  0  0  0  0  0  0
   46.7350   34.8910   42.0040 N   0  0  0  0  0  0  0  0  0  0  0  0
   47.2780   31.6770   44.8380 C   0  0  0  0  0  0  0  0  0  0  0  0
   48.0120   31.1530   44.0000 O   0  0  0  0  0  0  0  0  0  0  0  0
   44.6405   33.8792   47.9006 H   0  0  0  0  0  0  0  0  0  0  0  0
   45.0813   32.1235   49.5479 H   0  0  0  0  0  0  0  0  0  0  0  0
   46.5376   30.1672   49.0067 H   0  0  0  0  0  0  0  0  0  0  0  0
   47.4922   30.1226   46.7268 H   0  0  0  0  0  0  0  0  0  0  0  0
   43.7777   36.7379   44.9743 H   0  0  0  0  0  0  0  0  0  0  0  0
   44.9760   36.7127   42.7702 H   0  0  0  0  0  0  0  0  0  0  0  0
   47.4047   34.1361   41.7977 H   0  0  0  0  0  0  0  0  0  0  0  0
   46.5601   35.6290   41.3071 H   0  0  0  0  0  0  0  0  0  0  0  0
   46.8545   32.4977   44.2405 H   0  0  0  0  0  0  0  0  0  0  0  0
  1  2  2  0
  2  3  1  0
  4  3  2  0
  5  4  1  0
  6  1  1  0
  6  5  2  0
  7 12  2  0
  8  7  1  0
  9  8  2  0
  9 10  1  0
 10 11  2  0
 11 12  1  0
 11  1  1  0
 13  9  1  0
 14  6  1  0
 15 14  2  0
  2 16  1  0
  3 17  1  0
  4 18  1  0
  5 19  1  0
  7 20  1  0
  8 21  1  0
 13 22  1  0
 13 23  1  0
 14 24  1  0
M  ISO  7  16  14  17  14  18  14  19  14  20  14  21  14  24   6
M  END
>  <minimizedAffinity>  (1) 
-4.7587409

>  <minimizedRMSD>  (1) 
0.621535301

$$$$
