
     RDKit          3D

 32 34  0  0  0  0  0  0  0  0999 V2000
   41.1710   32.3300   41.5690 C   0  0  0  0  0  0  0  0  0  0  0  0
   40.0660   31.6050   41.9760 C   0  0  0  0  0  0  0  0  0  0  0  0
   40.2220   30.3820   42.5950 C   0  0  0  0  0  0  0  0  0  0  0  0
   41.4610   29.8350   42.8330 C   0  0  0  0  0  0  0  0  0  0  0  0
   42.5080   30.6150   42.4000 C   0  0  0  0  0  0  0  0  0  0  0  0
   42.4540   31.8290   41.7830 C   0  0  0  0  0  0  0  0  0  0  0  0
   43.6300   32.5310   41.3860 N   0  0  0  0  0  0  0  0  0  0  0  0
   44.1570   33.2860   42.3820 C   0  0  0  0  0  0  0  0  0  0  0  0
   45.2950   34.0360   42.1910 C   0  0  0  0  0  0  0  0  0  0  0  0
   45.8840   33.9890   40.9340 C   0  0  0  0  0  0  0  0  0  0  0  0
   46.9290   34.6580   40.7050 O   0  0  0  0  0  0  0  0  0  0  0  0
   45.3410   33.2350   39.9730 N   0  0  0  0  0  0  0  0  0  0  0  0
   44.2290   32.5080   40.1770 C   0  0  0  0  0  0  0  0  0  0  0  0
   43.6590   31.7750   39.3240 O   0  0  0  0  0  0  0  0  0  0  0  0
   40.8580   35.9340   41.0870 C   0  0  0  0  0  0  0  0  0  0  0  0
   40.7310   36.0300   39.6850 C   0  0  0  0  0  0  0  0  0  0  0  0
   40.7540   34.8770   38.9300 C   0  0  0  0  0  0  0  0  0  0  0  0
   40.9000   33.6690   39.5730 N   0  0  0  0  0  0  0  0  0  0  0  0
   41.0180   33.6210   40.9160 C   0  0  0  0  0  0  0  0  0  0  0  0
   40.9980   34.7440   41.6660 N   0  0  0  0  0  0  0  0  0  0  0  0
   40.6300   34.9500   37.5290 N   0  0  0  0  0  0  0  0  0  0  0  0
   39.0561   32.0061   41.8051 H   0  0  0  0  0  0  0  0  0  0  0  0
   39.3260   29.8262   42.9084 H   0  0  0  0  0  0  0  0  0  0  0  0
   41.6021   28.8615   43.3253 H   0  0  0  0  0  0  0  0  0  0  0  0
   43.5151   30.2079   42.5735 H   0  0  0  0  0  0  0  0  0  0  0  0
   43.6635   33.2991   43.3650 H   0  0  0  0  0  0  0  0  0  0  0  0
   45.7205   34.6474   43.0004 H   0  0  0  0  0  0  0  0  0  0  0  0
   45.7893   33.2103   39.0460 H   0  0  0  0  0  0  0  0  0  0  0  0
   40.8412   36.8452   41.7030 H   0  0  0  0  0  0  0  0  0  0  0  0
   40.6153   37.0112   39.2013 H   0  0  0  0  0  0  0  0  0  0  0  0
   40.5217   35.8650   37.0686 H   0  0  0  0  0  0  0  0  0  0  0  0
   40.6476   34.0884   36.9648 H   0  0  0  0  0  0  0  0  0  0  0  0
  1  6  1  0
  1  2  2  0
  2  3  1  0
  3  4  2  0
  5  4  1  0
  6  5  2  0
  7  6  1  0
  7  8  1  0
  9  8  2  0
 10  9  1  0
 11 10  2  0
 12 13  1  0
 12 10  1  0
 13  7  1  0
 14 13  2  0
 15 20  2  0
 16 15  1  0
 17 18  1  0
 17 16  2  0
 18 19  2  0
 19  1  1  0
 19 20  1  0
 21 17  1  0
  2 22  1  0
  3 23  1  0
  4 24  1  0
  5 25  1  0
  8 26  1  0
  9 27  1  0
 12 28  1  0
 15 29  1  0
 16 30  1  0
 21 31  1  0
 21 32  1  0
M  ISO  8  22  14  23  14  24  14  25  14  26  14  27  14  28   9  29  14
M  ISO  1  30  14
M  END
>  <minimizedAffinity>  (1) 
-4.76141977

>  <minimizedRMSD>  (1) 
6.58930874

$$$$
