
     RDKit          3D

 37 39  0  0  0  0  0  0  0  0999 V2000
   45.7380   32.6630   46.8350 C   0  0  0  0  0  0  0  0  0  0  0  0
   45.6230   32.9930   48.1520 C   0  0  0  0  0  0  0  0  0  0  0  0
   45.7530   32.0550   49.1430 C   0  0  0  0  0  0  0  0  0  0  0  0
   46.0100   30.7350   48.8630 C   0  0  0  0  0  0  0  0  0  0  0  0
   46.1210   30.4460   47.5140 C   0  0  0  0  0  0  0  0  0  0  0  0
   45.9940   31.3570   46.5060 C   0  0  0  0  0  0  0  0  0  0  0  0
   44.5580   35.5780   44.9710 C   0  0  0  0  0  0  0  0  0  0  0  0
   45.3500   35.5300   43.8210 C   0  0  0  0  0  0  0  0  0  0  0  0
   46.2770   34.5160   43.6820 C   0  0  0  0  0  0  0  0  0  0  0  0
   46.3760   33.5940   44.6940 N   0  0  0  0  0  0  0  0  0  0  0  0
   45.6120   33.6520   45.7870 C   0  0  0  0  0  0  0  0  0  0  0  0
   44.7040   34.6490   45.9170 N   0  0  0  0  0  0  0  0  0  0  0  0
   47.1020   34.4220   42.5370 N   0  0  0  0  0  0  0  0  0  0  0  0
   46.1320   30.7790   45.2230 N   0  0  0  0  0  0  0  0  0  0  0  0
   45.3250   30.4220   44.0770 C   0  0  0  0  0  0  0  0  0  0  0  0
   45.3630   28.9110   43.8420 C   0  0  0  0  0  0  0  0  0  0  0  0
   46.8030   28.4450   43.6980 C   0  0  0  0  0  0  0  0  0  0  0  0
   47.7440   29.6330   43.7560 C   0  0  0  0  0  0  0  0  0  0  0  0
   47.5390   30.4360   44.9970 C   0  0  0  0  0  0  0  0  0  0  0  0
   45.4207   34.0387   48.4269 H   0  0  0  0  0  0  0  0  0  0  0  0
   45.6486   32.3682   50.1923 H   0  0  0  0  0  0  0  0  0  0  0  0
   46.1186   29.9705   49.6464 H   0  0  0  0  0  0  0  0  0  0  0  0
   46.3273   29.4027   47.2331 H   0  0  0  0  0  0  0  0  0  0  0  0
   43.8157   36.3801   45.0960 H   0  0  0  0  0  0  0  0  0  0  0  0
   45.2364   36.2913   43.0352 H   0  0  0  0  0  0  0  0  0  0  0  0
   47.7861   33.6562   42.4566 H   0  0  0  0  0  0  0  0  0  0  0  0
   47.0187   35.1194   41.7836 H   0  0  0  0  0  0  0  0  0  0  0  0
   44.2854   30.7341   44.2555 H   0  0  0  0  0  0  0  0  0  0  0  0
   45.7272   30.9296   43.1878 H   0  0  0  0  0  0  0  0  0  0  0  0
   44.8972   28.3974   44.6960 H   0  0  0  0  0  0  0  0  0  0  0  0
   44.8122   28.6743   42.9198 H   0  0  0  0  0  0  0  0  0  0  0  0
   46.9244   27.9316   42.7327 H   0  0  0  0  0  0  0  0  0  0  0  0
   47.0423   27.7559   44.5214 H   0  0  0  0  0  0  0  0  0  0  0  0
   48.7815   29.2680   43.7343 H   0  0  0  0  0  0  0  0  0  0  0  0
   47.5366   30.2789   42.8901 H   0  0  0  0  0  0  0  0  0  0  0  0
   47.9017   29.8537   45.8568 H   0  0  0  0  0  0  0  0  0  0  0  0
   48.0956   31.3774   44.8792 H   0  0  0  0  0  0  0  0  0  0  0  0
  1  2  2  0
  2  3  1  0
  4  3  2  0
  5  4  1  0
  6  1  1  0
  6  5  2  0
  7 12  2  0
  8  7  1  0
  9  8  2  0
  9 10  1  0
 10 11  2  0
 11 12  1  0
 11  1  1  0
 13  9  1  0
 14  6  1  0
 15 14  1  0
 16 15  1  0
 17 18  1  0
 17 16  1  0
 18 19  1  0
 19 14  1  0
  2 20  1  0
  3 21  1  0
  4 22  1  0
  5 23  1  0
  7 24  1  0
  8 25  1  0
 13 26  1  0
 13 27  1  0
 15 28  1  0
 15 29  1  0
 16 30  1  0
 16 31  1  0
 17 32  1  0
 17 33  1  0
 18 34  1  0
 18 35  1  0
 19 36  1  0
 19 37  1  0
M  ISO  8  20  14  21  14  22  14  23  14  24  14  25  14  28  13  29  13
M  ISO  8  30  13  31  13  32  13  33  13  34  13  35  13  36  13  37  13
M  END
>  <minimizedAffinity>  (1) 
-4.64192724

>  <minimizedRMSD>  (1) 
1.83570552

$$$$
