
     RDKit          3D

 42 45  0  0  0  0  0  0  0  0999 V2000
   45.8170   32.9120   46.2790 C   0  0  0  0  0  0  0  0  0  0  0  0
   45.4090   33.0180   47.5840 C   0  0  0  0  0  0  0  0  0  0  0  0
   45.6330   31.9960   48.4770 C   0  0  0  0  0  0  0  0  0  0  0  0
   46.2670   30.8370   48.1010 C   0  0  0  0  0  0  0  0  0  0  0  0
   46.6600   30.7910   46.7570 C   0  0  0  0  0  0  0  0  0  0  0  0
   46.4630   31.7700   45.8380 C   0  0  0  0  0  0  0  0  0  0  0  0
   46.9140   31.5900   44.5000 N   0  0  0  0  0  0  0  0  0  0  0  0
   46.1290   30.8770   43.6620 C   0  0  0  0  0  0  0  0  0  0  0  0
   46.7240   30.8140   42.4380 N   0  0  0  0  0  0  0  0  0  0  0  0
   47.8980   31.5090   42.5510 C   0  0  0  0  0  0  0  0  0  0  0  0
   47.9830   31.9670   43.8150 N   0  0  0  0  0  0  0  0  0  0  0  0
   48.8960   31.7410   41.5370 N   0  0  0  0  0  0  0  0  0  0  0  0
   48.9340   30.9810   40.2990 C   0  0  0  0  0  0  0  0  0  0  0  0
   49.9520   31.6540   39.4040 C   0  0  0  0  0  0  0  0  0  0  0  0
   51.2410   31.8210   40.0030 N   0  0  0  0  0  0  0  0  0  0  0  0
   51.2430   32.2190   41.3750 C   0  0  0  0  0  0  0  0  0  0  0  0
   49.9030   32.7640   41.7480 C   0  0  0  0  0  0  0  0  0  0  0  0
   44.4630   35.9510   44.7820 C   0  0  0  0  0  0  0  0  0  0  0  0
   45.1450   36.0170   43.5500 C   0  0  0  0  0  0  0  0  0  0  0  0
   46.0600   35.0220   43.2460 C   0  0  0  0  0  0  0  0  0  0  0  0
   46.2610   34.0160   44.1580 N   0  0  0  0  0  0  0  0  0  0  0  0
   45.5810   33.9950   45.3300 C   0  0  0  0  0  0  0  0  0  0  0  0
   44.6790   34.9570   45.6540 N   0  0  0  0  0  0  0  0  0  0  0  0
   46.7680   35.0380   42.0310 N   0  0  0  0  0  0  0  0  0  0  0  0
   44.8965   33.9312   47.9207 H   0  0  0  0  0  0  0  0  0  0  0  0
   45.2961   32.1097   49.5179 H   0  0  0  0  0  0  0  0  0  0  0  0
   46.4519   30.0089   48.8010 H   0  0  0  0  0  0  0  0  0  0  0  0
   47.1741   29.8802   46.4163 H   0  0  0  0  0  0  0  0  0  0  0  0
   45.1637   30.4204   43.9261 H   0  0  0  0  0  0  0  0  0  0  0  0
   49.2353   29.9426   40.5012 H   0  0  0  0  0  0  0  0  0  0  0  0
   47.9437   30.9555   39.8209 H   0  0  0  0  0  0  0  0  0  0  0  0
   49.5674   32.6476   39.1306 H   0  0  0  0  0  0  0  0  0  0  0  0
   50.0911   30.9962   38.5334 H   0  0  0  0  0  0  0  0  0  0  0  0
   51.7402   30.9227   39.9340 H   0  0  0  0  0  0  0  0  0  0  0  0
   51.4715   31.3482   42.0071 H   0  0  0  0  0  0  0  0  0  0  0  0
   52.0054   32.9976   41.5252 H   0  0  0  0  0  0  0  0  0  0  0  0
   49.6748   33.6394   41.1223 H   0  0  0  0  0  0  0  0  0  0  0  0
   49.9080   33.0648   42.8061 H   0  0  0  0  0  0  0  0  0  0  0  0
   43.7347   36.7359   45.0339 H   0  0  0  0  0  0  0  0  0  0  0  0
   44.9549   36.8402   42.8456 H   0  0  0  0  0  0  0  0  0  0  0  0
   47.4450   34.2911   41.8195 H   0  0  0  0  0  0  0  0  0  0  0  0
   46.6096   35.7967   41.3526 H   0  0  0  0  0  0  0  0  0  0  0  0
  1  2  2  0
  2  3  1  0
  4  3  2  0
  5  4  1  0
  6  1  1  0
  6  5  2  0
  7  6  1  0
  8  7  1  0
  9 10  1  0
  9  8  2  0
 10 11  2  0
 11  7  1  0
 12 17  1  0
 12 10  1  0
 13 12  1  0
 14 15  1  0
 14 13  1  0
 15 16  1  0
 16 17  1  0
 18 23  2  0
 19 18  1  0
 20 19  2  0
 20 21  1  0
 21 22  2  0
 22 23  1  0
 22  1  1  0
 24 20  1  0
  2 25  1  0
  3 26  1  0
  4 27  1  0
  5 28  1  0
  8 29  1  0
 13 30  1  0
 13 31  1  0
 14 32  1  0
 14 33  1  0
 15 34  1  0
 16 35  1  0
 16 36  1  0
 17 37  1  0
 17 38  1  0
 18 39  1  0
 19 40  1  0
 24 41  1  0
 24 42  1  0
M  ISO  8  25  14  26  14  27  14  28  14  29  14  30  13  31  13  32  13
M  ISO  8  33  13  34   5  35  13  36  13  37  13  38  13  39  14  40  14
M  END
>  <minimizedAffinity>  (1) 
-6.11822414

>  <minimizedRMSD>  (1) 
0.564645648

$$$$
