
     RDKit          3D

 41 45  0  0  0  0  0  0  0  0999 V2000
   45.8530   32.9730   46.1200 C   0  0  0  0  0  0  0  0  0  0  0  0
   45.4280   33.1210   47.4240 C   0  0  0  0  0  0  0  0  0  0  0  0
   45.6110   32.1230   48.3480 C   0  0  0  0  0  0  0  0  0  0  0  0
   46.2270   30.9350   48.0130 C   0  0  0  0  0  0  0  0  0  0  0  0
   46.6350   30.8470   46.6790 C   0  0  0  0  0  0  0  0  0  0  0  0
   46.4840   31.7900   45.7240 C   0  0  0  0  0  0  0  0  0  0  0  0
   46.9470   31.5650   44.4070 N   0  0  0  0  0  0  0  0  0  0  0  0
   46.1670   30.8710   43.5680 C   0  0  0  0  0  0  0  0  0  0  0  0
   46.7920   30.7640   42.3550 N   0  0  0  0  0  0  0  0  0  0  0  0
   47.9850   31.4160   42.4770 C   0  0  0  0  0  0  0  0  0  0  0  0
   48.0530   31.8940   43.7390 N   0  0  0  0  0  0  0  0  0  0  0  0
   49.0150   31.5920   41.4820 N   0  0  0  0  0  0  0  0  0  0  0  0
   50.3600   31.6600   41.7000 C   0  0  0  0  0  0  0  0  0  0  0  0
   51.0070   31.8270   40.5480 N   0  0  0  0  0  0  0  0  0  0  0  0
   50.0660   31.8660   39.5970 C   0  0  0  0  0  0  0  0  0  0  0  0
   50.0630   32.0120   38.2250 C   0  0  0  0  0  0  0  0  0  0  0  0
   48.9470   32.0180   37.4570 N   0  0  0  0  0  0  0  0  0  0  0  0
   47.7430   31.8700   38.0780 C   0  0  0  0  0  0  0  0  0  0  0  0
   47.6930   31.7230   39.4150 N   0  0  0  0  0  0  0  0  0  0  0  0
   48.7980   31.7210   40.1400 C   0  0  0  0  0  0  0  0  0  0  0  0
   51.2860   32.1690   37.5300 N   0  0  0  0  0  0  0  0  0  0  0  0
   44.5270   35.9430   44.4750 C   0  0  0  0  0  0  0  0  0  0  0  0
   45.3010   35.9990   43.3010 C   0  0  0  0  0  0  0  0  0  0  0  0
   46.2610   35.0320   43.0820 C   0  0  0  0  0  0  0  0  0  0  0  0
   46.4180   34.0560   44.0210 N   0  0  0  0  0  0  0  0  0  0  0  0
   45.6610   34.0280   45.1380 C   0  0  0  0  0  0  0  0  0  0  0  0
   44.7100   34.9700   45.3760 N   0  0  0  0  0  0  0  0  0  0  0  0
   47.0540   35.0540   41.9190 N   0  0  0  0  0  0  0  0  0  0  0  0
   44.9338   34.0553   47.7285 H   0  0  0  0  0  0  0  0  0  0  0  0
   45.2585   32.2737   49.3790 H   0  0  0  0  0  0  0  0  0  0  0  0
   46.3844   30.1223   48.7374 H   0  0  0  0  0  0  0  0  0  0  0  0
   47.1304   29.9129   46.3756 H   0  0  0  0  0  0  0  0  0  0  0  0
   45.1799   30.4530   43.8148 H   0  0  0  0  0  0  0  0  0  0  0  0
   50.8413   31.5873   42.6864 H   0  0  0  0  0  0  0  0  0  0  0  0
   46.8145   31.8707   37.4882 H   0  0  0  0  0  0  0  0  0  0  0  0
   51.2860   32.2781   36.5058 H   0  0  0  0  0  0  0  0  0  0  0  0
   52.1760   32.1741   38.0484 H   0  0  0  0  0  0  0  0  0  0  0  0
   43.7599   36.7105   44.6550 H   0  0  0  0  0  0  0  0  0  0  0  0
   45.1429   36.8032   42.5673 H   0  0  0  0  0  0  0  0  0  0  0  0
   47.7670   34.3261   41.7680 H   0  0  0  0  0  0  0  0  0  0  0  0
   46.9212   35.7980   41.2191 H   0  0  0  0  0  0  0  0  0  0  0  0
  1  2  2  0
  2  3  1  0
  4  3  2  0
  5  4  1  0
  6  1  1  0
  6  5  2  0
  7  6  1  0
  8  7  1  0
  9 10  1  0
  9  8  2  0
 10 11  2  0
 11  7  1  0
 12 13  1  0
 12 10  1  0
 14 13  2  0
 15 20  2  0
 15 14  1  0
 16 15  1  0
 17 18  1  0
 17 16  2  0
 18 19  2  0
 19 20  1  0
 20 12  1  0
 21 16  1  0
 22 27  2  0
 23 22  1  0
 24 23  2  0
 24 25  1  0
 25 26  2  0
 26 27  1  0
 26  1  1  0
 28 24  1  0
  2 29  1  0
  3 30  1  0
  4 31  1  0
  5 32  1  0
  8 33  1  0
 13 34  1  0
 18 35  1  0
 21 36  1  0
 21 37  1  0
 22 38  1  0
 23 39  1  0
 28 40  1  0
 28 41  1  0
M  ISO  8  29  14  30  14  31  14  32  14  33  14  34  14  35  14  38  14
M  ISO  1  39  14
M  END
>  <minimizedAffinity>  (1) 
-6.66685867

>  <minimizedRMSD>  (1) 
0.479281306

$$$$
