
     RDKit          3D

 39 43  0  0  0  0  0  0  0  0999 V2000
   45.8170   32.8780   46.2930 C   0  0  0  0  0  0  0  0  0  0  0  0
   45.4910   32.9880   47.6240 C   0  0  0  0  0  0  0  0  0  0  0  0
   45.7190   31.9660   48.4920 C   0  0  0  0  0  0  0  0  0  0  0  0
   46.2810   30.7840   48.0770 C   0  0  0  0  0  0  0  0  0  0  0  0
   46.5950   30.7220   46.7120 C   0  0  0  0  0  0  0  0  0  0  0  0
   46.3850   31.7170   45.8130 C   0  0  0  0  0  0  0  0  0  0  0  0
   46.7540   31.5200   44.4450 N   0  0  0  0  0  0  0  0  0  0  0  0
   45.8740   30.8980   43.6360 C   0  0  0  0  0  0  0  0  0  0  0  0
   46.4140   30.8120   42.3940 N   0  0  0  0  0  0  0  0  0  0  0  0
   47.6360   31.3900   42.4490 C   0  0  0  0  0  0  0  0  0  0  0  0
   47.8120   31.8100   43.7110 N   0  0  0  0  0  0  0  0  0  0  0  0
   48.5880   31.5480   41.4020 N   0  0  0  0  0  0  0  0  0  0  0  0
   48.3490   32.0730   40.1810 C   0  0  0  0  0  0  0  0  0  0  0  0
   49.4420   32.0940   39.3960 N   0  0  0  0  0  0  0  0  0  0  0  0
   50.4360   31.5640   40.1250 C   0  0  0  0  0  0  0  0  0  0  0  0
   51.7710   31.3230   39.8680 C   0  0  0  0  0  0  0  0  0  0  0  0
   52.5690   30.7610   40.8160 N   0  0  0  0  0  0  0  0  0  0  0  0
   52.0100   30.4520   42.0000 C   0  0  0  0  0  0  0  0  0  0  0  0
   50.6940   30.6770   42.2840 N   0  0  0  0  0  0  0  0  0  0  0  0
   49.8960   31.2340   41.3530 C   0  0  0  0  0  0  0  0  0  0  0  0
   44.4480   35.9490   44.8590 C   0  0  0  0  0  0  0  0  0  0  0  0
   45.1270   36.0300   43.6210 C   0  0  0  0  0  0  0  0  0  0  0  0
   46.0400   35.0370   43.2940 C   0  0  0  0  0  0  0  0  0  0  0  0
   46.2450   34.0250   44.1800 N   0  0  0  0  0  0  0  0  0  0  0  0
   45.5710   33.9780   45.3680 C   0  0  0  0  0  0  0  0  0  0  0  0
   44.6770   34.9420   45.7000 N   0  0  0  0  0  0  0  0  0  0  0  0
   46.7390   35.0780   42.0710 N   0  0  0  0  0  0  0  0  0  0  0  0
   45.0375   33.9195   47.9937 H   0  0  0  0  0  0  0  0  0  0  0  0
   45.4469   32.0892   49.5507 H   0  0  0  0  0  0  0  0  0  0  0  0
   46.4710   29.9470   48.7650 H   0  0  0  0  0  0  0  0  0  0  0  0
   47.0483   29.7916   46.3394 H   0  0  0  0  0  0  0  0  0  0  0  0
   44.8835   30.5227   43.9327 H   0  0  0  0  0  0  0  0  0  0  0  0
   47.3642   32.4445   39.8615 H   0  0  0  0  0  0  0  0  0  0  0  0
   52.1935   31.5879   38.8875 H   0  0  0  0  0  0  0  0  0  0  0  0
   52.6432   29.9966   42.7757 H   0  0  0  0  0  0  0  0  0  0  0  0
   43.7209   36.7283   45.1310 H   0  0  0  0  0  0  0  0  0  0  0  0
   44.9351   36.8643   42.9302 H   0  0  0  0  0  0  0  0  0  0  0  0
   47.4143   34.3358   41.8386 H   0  0  0  0  0  0  0  0  0  0  0  0
   46.5746   35.8502   41.4095 H   0  0  0  0  0  0  0  0  0  0  0  0
  1  2  2  0
  2  3  1  0
  4  3  2  0
  5  4  1  0
  6  1  1  0
  6  5  2  0
  7  6  1  0
  8  7  1  0
  9 10  1  0
  9  8  2  0
 10 11  2  0
 11  7  1  0
 12 10  1  0
 13 12  1  0
 14 15  1  0
 14 13  2  0
 15 20  2  0
 16 15  1  0
 16 17  2  0
 17 18  1  0
 18 19  2  0
 20 12  1  0
 20 19  1  0
 21 26  2  0
 22 21  1  0
 23 22  2  0
 23 24  1  0
 24 25  2  0
 25 26  1  0
 25  1  1  0
 27 23  1  0
  2 28  1  0
  3 29  1  0
  4 30  1  0
  5 31  1  0
  8 32  1  0
 13 33  1  0
 16 34  1  0
 18 35  1  0
 21 36  1  0
 22 37  1  0
 27 38  1  0
 27 39  1  0
M  ISO  8  28  14  29  14  30  14  31  14  32  14  33  14  34  14  35  14
M  ISO  2  36  14  37  14
M  END
>  <minimizedAffinity>  (1) 
-6.08793211

>  <minimizedRMSD>  (1) 
0.505408764

$$$$
