
     RDKit          3D

 35 37  0  0  0  0  0  0  0  0999 V2000
   45.8720   32.9780   46.1040 C   0  0  0  0  0  0  0  0  0  0  0  0
   45.4340   33.1190   47.4030 C   0  0  0  0  0  0  0  0  0  0  0  0
   45.6250   32.1170   48.3260 C   0  0  0  0  0  0  0  0  0  0  0  0
   46.2550   30.9470   47.9870 C   0  0  0  0  0  0  0  0  0  0  0  0
   46.6750   30.8600   46.6680 C   0  0  0  0  0  0  0  0  0  0  0  0
   46.5150   31.8150   45.7090 C   0  0  0  0  0  0  0  0  0  0  0  0
   46.9940   31.5930   44.3960 N   0  0  0  0  0  0  0  0  0  0  0  0
   46.2140   30.8870   43.5490 C   0  0  0  0  0  0  0  0  0  0  0  0
   46.8340   30.7790   42.3500 N   0  0  0  0  0  0  0  0  0  0  0  0
   48.0270   31.4380   42.4650 C   0  0  0  0  0  0  0  0  0  0  0  0
   48.0820   31.9150   43.7200 N   0  0  0  0  0  0  0  0  0  0  0  0
   49.0150   31.5860   41.4560 N   0  0  0  0  0  0  0  0  0  0  0  0
   50.0750   32.5470   41.5660 C   0  0  0  0  0  0  0  0  0  0  0  0
   49.8040   33.6290   42.2150 N   0  0  0  0  0  0  0  0  0  0  0  0
   51.3250   32.2420   40.9620 N   0  0  0  0  0  0  0  0  0  0  0  0
   50.5580   34.3410   42.3100 H   0  0  0  0  0  0  0  0  0  0  0  0
   44.5220   35.9450   44.4730 C   0  0  0  0  0  0  0  0  0  0  0  0
   45.3060   36.0130   43.2900 C   0  0  0  0  0  0  0  0  0  0  0  0
   46.2770   35.0460   43.0750 C   0  0  0  0  0  0  0  0  0  0  0  0
   46.4370   34.0690   44.0120 N   0  0  0  0  0  0  0  0  0  0  0  0
   45.6700   34.0370   45.1290 C   0  0  0  0  0  0  0  0  0  0  0  0
   44.7130   34.9670   45.3670 N   0  0  0  0  0  0  0  0  0  0  0  0
   47.0730   35.0790   41.9170 N   0  0  0  0  0  0  0  0  0  0  0  0
   44.9246   34.0456   47.7060 H   0  0  0  0  0  0  0  0  0  0  0  0
   45.2654   32.2570   49.3561 H   0  0  0  0  0  0  0  0  0  0  0  0
   46.4160   30.1343   48.7106 H   0  0  0  0  0  0  0  0  0  0  0  0
   47.1853   29.9329   46.3677 H   0  0  0  0  0  0  0  0  0  0  0  0
   45.2283   30.4653   43.7949 H   0  0  0  0  0  0  0  0  0  0  0  0
   48.9695   30.9857   40.6202 H   0  0  0  0  0  0  0  0  0  0  0  0
   52.1044   32.9125   41.0245 H   0  0  0  0  0  0  0  0  0  0  0  0
   51.4514   31.3505   40.4619 H   0  0  0  0  0  0  0  0  0  0  0  0
   43.7486   36.7053   44.6566 H   0  0  0  0  0  0  0  0  0  0  0  0
   45.1458   36.8181   42.5577 H   0  0  0  0  0  0  0  0  0  0  0  0
   47.7917   34.3570   41.7654 H   0  0  0  0  0  0  0  0  0  0  0  0
   46.9376   35.8252   41.2201 H   0  0  0  0  0  0  0  0  0  0  0  0
  1  2  2  0
  2  3  1  0
  4  3  2  0
  5  4  1  0
  6  1  1  0
  6  5  2  0
  7  6  1  0
  8  7  1  0
  9 10  1  0
  9  8  2  0
 10 11  2  0
 11  7  1  0
 12 13  1  0
 12 10  1  0
 13 14  2  0
 14 16  1  0
 15 13  1  0
 17 22  2  0
 18 17  1  0
 19 18  2  0
 19 20  1  0
 20 21  2  0
 21 22  1  0
 21  1  1  0
 23 19  1  0
  2 24  1  0
  3 25  1  0
  4 26  1  0
  5 27  1  0
  8 28  1  0
 12 29  1  0
 15 30  1  0
 15 31  1  0
 17 32  1  0
 18 33  1  0
 23 34  1  0
 23 35  1  0
M  ISO  7  24  14  25  14  26  14  27  14  28  14  32  14  33  14
M  END
>  <minimizedAffinity>  (1) 
-5.79894638

>  <minimizedRMSD>  (1) 
0.436218113

$$$$
