
     RDKit          3D

 41 44  0  0  0  0  0  0  0  0999 V2000
   45.8070   32.9160   46.2900 C   0  0  0  0  0  0  0  0  0  0  0  0
   45.3900   33.0270   47.5990 C   0  0  0  0  0  0  0  0  0  0  0  0
   45.6140   32.0110   48.4930 C   0  0  0  0  0  0  0  0  0  0  0  0
   46.2590   30.8510   48.1190 C   0  0  0  0  0  0  0  0  0  0  0  0
   46.6530   30.8050   46.7840 C   0  0  0  0  0  0  0  0  0  0  0  0
   46.4570   31.7760   45.8610 C   0  0  0  0  0  0  0  0  0  0  0  0
   46.9170   31.5940   44.5230 N   0  0  0  0  0  0  0  0  0  0  0  0
   46.1420   30.8700   43.6830 C   0  0  0  0  0  0  0  0  0  0  0  0
   46.7600   30.8180   42.4630 N   0  0  0  0  0  0  0  0  0  0  0  0
   47.9110   31.5160   42.5820 C   0  0  0  0  0  0  0  0  0  0  0  0
   47.9820   31.9760   43.8390 N   0  0  0  0  0  0  0  0  0  0  0  0
   48.8800   31.7310   41.5610 N   0  0  0  0  0  0  0  0  0  0  0  0
   49.1340   30.8190   40.5040 C   0  0  0  0  0  0  0  0  0  0  0  0
   50.5250   30.7550   40.0070 C   0  0  0  0  0  0  0  0  0  0  0  0
   51.5180   31.6890   40.5750 C   0  0  0  0  0  0  0  0  0  0  0  0
   51.1130   32.4460   41.7930 C   0  0  0  0  0  0  0  0  0  0  0  0
   49.6760   32.9220   41.5480 C   0  0  0  0  0  0  0  0  0  0  0  0
   44.4580   35.9610   44.7940 C   0  0  0  0  0  0  0  0  0  0  0  0
   45.1380   36.0090   43.5490 C   0  0  0  0  0  0  0  0  0  0  0  0
   46.0350   35.0050   43.2550 C   0  0  0  0  0  0  0  0  0  0  0  0
   46.2410   34.0050   44.1600 N   0  0  0  0  0  0  0  0  0  0  0  0
   45.5670   34.0000   45.3390 C   0  0  0  0  0  0  0  0  0  0  0  0
   44.6810   34.9710   45.6560 N   0  0  0  0  0  0  0  0  0  0  0  0
   46.7330   35.0150   42.0260 N   0  0  0  0  0  0  0  0  0  0  0  0
   44.8724   33.9394   47.9301 H   0  0  0  0  0  0  0  0  0  0  0  0
   45.2712   32.1242   49.5321 H   0  0  0  0  0  0  0  0  0  0  0  0
   46.4478   30.0255   48.8211 H   0  0  0  0  0  0  0  0  0  0  0  0
   47.1718   29.8950   46.4482 H   0  0  0  0  0  0  0  0  0  0  0  0
   45.1792   30.4027   43.9373 H   0  0  0  0  0  0  0  0  0  0  0  0
   48.3374   30.1922   40.0766 H   0  0  0  0  0  0  0  0  0  0  0  0
   50.8134   30.0290   39.2326 H   0  0  0  0  0  0  0  0  0  0  0  0
   52.4152   31.1056   40.8295 H   0  0  0  0  0  0  0  0  0  0  0  0
   51.6682   32.4541   39.7990 H   0  0  0  0  0  0  0  0  0  0  0  0
   51.1521   31.7931   42.6774 H   0  0  0  0  0  0  0  0  0  0  0  0
   51.7883   33.2943   41.9786 H   0  0  0  0  0  0  0  0  0  0  0  0
   49.5977   33.4280   40.5744 H   0  0  0  0  0  0  0  0  0  0  0  0
   49.3467   33.6456   42.3082 H   0  0  0  0  0  0  0  0  0  0  0  0
   43.7375   36.7518   45.0500 H   0  0  0  0  0  0  0  0  0  0  0  0
   44.9536   36.8269   42.8369 H   0  0  0  0  0  0  0  0  0  0  0  0
   47.4030   34.2637   41.8081 H   0  0  0  0  0  0  0  0  0  0  0  0
   46.5716   35.7736   41.3482 H   0  0  0  0  0  0  0  0  0  0  0  0
  1  2  2  0
  2  3  1  0
  4  3  2  0
  5  4  1  0
  6  1  1  0
  6  5  2  0
  7  6  1  0
  8  7  1  0
  9 10  1  0
  9  8  2  0
 10 11  2  0
 11  7  1  0
 12 10  1  0
 13 12  1  0
 14 13  2  0
 14 15  1  0
 15 16  1  0
 17 12  1  0
 17 16  1  0
 18 23  2  0
 19 18  1  0
 20 19  2  0
 20 21  1  0
 21 22  2  0
 22 23  1  0
 22  1  1  0
 24 20  1  0
  2 25  1  0
  3 26  1  0
  4 27  1  0
  5 28  1  0
  8 29  1  0
 13 30  1  0
 14 31  1  0
 15 32  1  0
 15 33  1  0
 16 34  1  0
 16 35  1  0
 17 36  1  0
 17 37  1  0
 18 38  1  0
 19 39  1  0
 24 40  1  0
 24 41  1  0
M  ISO  8  25  14  26  14  27  14  28  14  29  14  30  13  31  13  32  13
M  ISO  7  33  13  34  13  35  13  36  13  37  13  38  14  39  14
M  END
>  <minimizedAffinity>  (1) 
-5.99046707

>  <minimizedRMSD>  (1) 
0.604167521

$$$$
