
     RDKit          3D

 44 48  0  0  0  0  0  0  0  0999 V2000
   45.7870   32.9800   46.1760 C   0  0  0  0  0  0  0  0  0  0  0  0
   45.4070   33.2160   47.4800 C   0  0  0  0  0  0  0  0  0  0  0  0
   45.5390   32.2490   48.4440 C   0  0  0  0  0  0  0  0  0  0  0  0
   46.0600   31.0000   48.1460 C   0  0  0  0  0  0  0  0  0  0  0  0
   46.4280   30.8180   46.8150 C   0  0  0  0  0  0  0  0  0  0  0  0
   46.3140   31.7480   45.8250 C   0  0  0  0  0  0  0  0  0  0  0  0
   44.5440   35.8970   44.3770 C   0  0  0  0  0  0  0  0  0  0  0  0
   45.3860   35.9180   43.2390 C   0  0  0  0  0  0  0  0  0  0  0  0
   46.3510   34.9460   43.1070 C   0  0  0  0  0  0  0  0  0  0  0  0
   46.4600   34.0000   44.0810 N   0  0  0  0  0  0  0  0  0  0  0  0
   45.6410   34.0110   45.1550 C   0  0  0  0  0  0  0  0  0  0  0  0
   44.6850   34.9450   45.3160 N   0  0  0  0  0  0  0  0  0  0  0  0
   47.2160   34.9240   41.9860 N   0  0  0  0  0  0  0  0  0  0  0  0
   46.7280   31.4240   44.5010 N   0  0  0  0  0  0  0  0  0  0  0  0
   45.8720   30.8160   43.6820 C   0  0  0  0  0  0  0  0  0  0  0  0
   46.4980   30.6180   42.4940 N   0  0  0  0  0  0  0  0  0  0  0  0
   47.7500   31.1030   42.5710 C   0  0  0  0  0  0  0  0  0  0  0  0
   47.8330   31.5810   43.8140 N   0  0  0  0  0  0  0  0  0  0  0  0
   48.9310   31.2290   41.7190 C   0  0  0  0  0  0  0  0  0  0  0  0
   50.2410   30.9980   42.1550 C   0  0  0  0  0  0  0  0  0  0  0  0
   51.3190   31.1270   41.3280 C   0  0  0  0  0  0  0  0  0  0  0  0
   51.1810   31.4910   40.0170 C   0  0  0  0  0  0  0  0  0  0  0  0
   49.9180   31.7290   39.5380 C   0  0  0  0  0  0  0  0  0  0  0  0
   49.8210   32.0910   38.2220 C   0  0  0  0  0  0  0  0  0  0  0  0
   48.6070   32.3460   37.6670 C   0  0  0  0  0  0  0  0  0  0  0  0
   47.4820   32.2250   38.4780 C   0  0  0  0  0  0  0  0  0  0  0  0
   47.6380   31.8580   39.7970 C   0  0  0  0  0  0  0  0  0  0  0  0
   48.8270   31.5940   40.3950 C   0  0  0  0  0  0  0  0  0  0  0  0
   44.9906   34.1971   47.7523 H   0  0  0  0  0  0  0  0  0  0  0  0
   45.2248   32.4696   49.4748 H   0  0  0  0  0  0  0  0  0  0  0  0
   46.1744   30.2111   48.9040 H   0  0  0  0  0  0  0  0  0  0  0  0
   46.8469   29.8391   46.5389 H   0  0  0  0  0  0  0  0  0  0  0  0
   43.7671   36.6668   44.4941 H   0  0  0  0  0  0  0  0  0  0  0  0
   45.2706   36.6987   42.4727 H   0  0  0  0  0  0  0  0  0  0  0  0
   47.9329   34.1891   41.9030 H   0  0  0  0  0  0  0  0  0  0  0  0
   47.1283   35.6429   41.2536 H   0  0  0  0  0  0  0  0  0  0  0  0
   44.8394   30.5254   43.9254 H   0  0  0  0  0  0  0  0  0  0  0  0
   50.4075   30.7020   43.2013 H   0  0  0  0  0  0  0  0  0  0  0  0
   52.3257   30.9330   41.7266 H   0  0  0  0  0  0  0  0  0  0  0  0
   52.0602   31.5903   39.3635 H   0  0  0  0  0  0  0  0  0  0  0  0
   50.7309   32.1761   37.6098 H   0  0  0  0  0  0  0  0  0  0  0  0
   48.5162   32.6387   36.6106 H   0  0  0  0  0  0  0  0  0  0  0  0
   46.4792   32.4203   38.0702 H   0  0  0  0  0  0  0  0  0  0  0  0
   46.7298   31.7726   40.4117 H   0  0  0  0  0  0  0  0  0  0  0  0
  1  2  2  0
  2  3  1  0
  4  3  2  0
  5  4  1  0
  6  1  1  0
  6  5  2  0
  7 12  2  0
  8  7  1  0
  9  8  2  0
  9 10  1  0
 10 11  2  0
 11 12  1  0
 11  1  1  0
 13  9  1  0
 14  6  1  0
 15 14  1  0
 16 17  1  0
 16 15  2  0
 17 18  2  0
 18 14  1  0
 19 20  2  0
 19 17  1  0
 21 20  1  0
 22 21  2  0
 23 22  1  0
 23 28  2  0
 24 23  1  0
 25 24  2  0
 25 26  1  0
 26 27  2  0
 27 28  1  0
 28 19  1  0
  2 29  1  0
  3 30  1  0
  4 31  1  0
  5 32  1  0
  7 33  1  0
  8 34  1  0
 13 35  1  0
 13 36  1  0
 15 37  1  0
 20 38  1  0
 21 39  1  0
 22 40  1  0
 24 41  1  0
 25 42  1  0
 26 43  1  0
 27 44  1  0
M  ISO  8  29  14  30  14  31  14  32  14  33  14  34  14  37  14  38  14
M  ISO  6  39  14  40  14  41  14  42  14  43  14  44  14
M  END
>  <minimizedAffinity>  (1) 
-5.85347652

>  <minimizedRMSD>  (1) 
0.16543296

$$$$
