
     RDKit          3D

 36 39  0  0  0  0  0  0  0  0999 V2000
   45.7820   32.9100   46.3220 C   0  0  0  0  0  0  0  0  0  0  0  0
   45.3390   33.0580   47.6170 C   0  0  0  0  0  0  0  0  0  0  0  0
   45.5260   32.0630   48.5280 C   0  0  0  0  0  0  0  0  0  0  0  0
   46.1590   30.8750   48.2000 C   0  0  0  0  0  0  0  0  0  0  0  0
   46.5790   30.7940   46.8780 C   0  0  0  0  0  0  0  0  0  0  0  0
   46.4220   31.7530   45.9230 C   0  0  0  0  0  0  0  0  0  0  0  0
   44.4920   35.9260   44.7060 C   0  0  0  0  0  0  0  0  0  0  0  0
   45.2340   35.9580   43.4970 C   0  0  0  0  0  0  0  0  0  0  0  0
   46.1520   34.9610   43.2590 C   0  0  0  0  0  0  0  0  0  0  0  0
   46.3110   33.9820   44.1920 N   0  0  0  0  0  0  0  0  0  0  0  0
   45.5790   33.9840   45.3430 C   0  0  0  0  0  0  0  0  0  0  0  0
   44.6800   34.9450   45.5970 N   0  0  0  0  0  0  0  0  0  0  0  0
   46.9100   34.9520   42.0750 N   0  0  0  0  0  0  0  0  0  0  0  0
   46.9040   31.5320   44.6060 N   0  0  0  0  0  0  0  0  0  0  0  0
   46.0940   30.9020   43.7250 C   0  0  0  0  0  0  0  0  0  0  0  0
   46.7520   30.7970   42.5360 N   0  0  0  0  0  0  0  0  0  0  0  0
   47.9700   31.3650   42.6970 C   0  0  0  0  0  0  0  0  0  0  0  0
   48.0300   31.8010   43.9630 N   0  0  0  0  0  0  0  0  0  0  0  0
   49.0100   31.4790   41.6810 C   0  0  0  0  0  0  0  0  0  0  0  0
   50.3050   31.7420   42.0690 C   0  0  0  0  0  0  0  0  0  0  0  0
   51.2280   31.8340   41.0610 C   0  0  0  0  0  0  0  0  0  0  0  0
   50.8960   31.6760   39.7660 N   0  0  0  0  0  0  0  0  0  0  0  0
   49.6310   31.4210   39.4040 C   0  0  0  0  0  0  0  0  0  0  0  0
   48.6820   31.3220   40.3790 N   0  0  0  0  0  0  0  0  0  0  0  0
   44.8307   33.9859   47.9179 H   0  0  0  0  0  0  0  0  0  0  0  0
   45.1631   32.2071   49.5564 H   0  0  0  0  0  0  0  0  0  0  0  0
   46.3160   30.0635   48.9258 H   0  0  0  0  0  0  0  0  0  0  0  0
   47.0868   29.8670   46.5733 H   0  0  0  0  0  0  0  0  0  0  0  0
   43.7546   36.7155   44.9132 H   0  0  0  0  0  0  0  0  0  0  0  0
   45.0785   36.7638   42.7645 H   0  0  0  0  0  0  0  0  0  0  0  0
   47.5944   34.2007   41.9073 H   0  0  0  0  0  0  0  0  0  0  0  0
   46.7810   35.6967   41.3752 H   0  0  0  0  0  0  0  0  0  0  0  0
   45.0774   30.5366   43.9326 H   0  0  0  0  0  0  0  0  0  0  0  0
   50.5818   31.8706   43.1258 H   0  0  0  0  0  0  0  0  0  0  0  0
   52.2765   32.0442   41.3186 H   0  0  0  0  0  0  0  0  0  0  0  0
   49.3640   31.2944   38.3444 H   0  0  0  0  0  0  0  0  0  0  0  0
  1  2  2  0
  2  3  1  0
  4  3  2  0
  5  4  1  0
  6  1  1  0
  6  5  2  0
  7 12  2  0
  8  7  1  0
  9  8  2  0
  9 10  1  0
 10 11  2  0
 11 12  1  0
 11  1  1  0
 13  9  1  0
 14  6  1  0
 15 14  1  0
 16 17  1  0
 16 15  2  0
 17 18  2  0
 18 14  1  0
 19 20  2  0
 19 17  1  0
 21 20  1  0
 22 21  2  0
 23 22  1  0
 23 24  2  0
 24 19  1  0
  2 25  1  0
  3 26  1  0
  4 27  1  0
  5 28  1  0
  7 29  1  0
  8 30  1  0
 13 31  1  0
 13 32  1  0
 15 33  1  0
 20 34  1  0
 21 35  1  0
 23 36  1  0
M  ISO  8  25  14  26  14  27  14  28  14  29  14  30  14  33  14  34  14
M  ISO  2  35  14  36  14
M  END
>  <minimizedAffinity>  (1) 
-5.54720879

>  <minimizedRMSD>  (1) 
0.535343766

$$$$
