
     RDKit          3D

 44 47  0  0  0  0  0  0  0  0999 V2000
   45.7370   32.9040   46.3160 C   0  0  0  0  0  0  0  0  0  0  0  0
   45.3170   33.0540   47.6160 C   0  0  0  0  0  0  0  0  0  0  0  0
   45.4820   32.0560   48.5320 C   0  0  0  0  0  0  0  0  0  0  0  0
   46.0790   30.8550   48.1800 C   0  0  0  0  0  0  0  0  0  0  0  0
   46.4840   30.7630   46.8480 C   0  0  0  0  0  0  0  0  0  0  0  0
   46.3390   31.7360   45.9020 C   0  0  0  0  0  0  0  0  0  0  0  0
   44.4860   35.9520   44.7290 C   0  0  0  0  0  0  0  0  0  0  0  0
   45.2320   35.9850   43.5180 C   0  0  0  0  0  0  0  0  0  0  0  0
   46.1350   34.9730   43.2770 C   0  0  0  0  0  0  0  0  0  0  0  0
   46.2860   33.9840   44.1930 N   0  0  0  0  0  0  0  0  0  0  0  0
   45.5520   33.9870   45.3440 C   0  0  0  0  0  0  0  0  0  0  0  0
   44.6590   34.9610   45.6120 N   0  0  0  0  0  0  0  0  0  0  0  0
   46.8890   34.9700   42.0920 N   0  0  0  0  0  0  0  0  0  0  0  0
   46.7960   31.5080   44.5830 N   0  0  0  0  0  0  0  0  0  0  0  0
   45.9760   30.8560   43.7240 C   0  0  0  0  0  0  0  0  0  0  0  0
   46.6110   30.7470   42.5240 N   0  0  0  0  0  0  0  0  0  0  0  0
   47.8250   31.3360   42.6540 C   0  0  0  0  0  0  0  0  0  0  0  0
   47.9140   31.7910   43.9130 N   0  0  0  0  0  0  0  0  0  0  0  0
   48.8530   31.4480   41.5850 C   0  0  0  0  0  0  0  0  0  0  0  0
   49.8930   32.4250   42.0460 C   0  0  0  0  0  0  0  0  0  0  0  0
   51.2400   32.2500   41.3900 C   0  0  0  0  0  0  0  0  0  0  0  0
   51.1850   31.3770   40.1550 C   0  0  0  0  0  0  0  0  0  0  0  0
   50.5910   30.0360   40.4250 C   0  0  0  0  0  0  0  0  0  0  0  0
   49.4180   30.0600   41.3460 C   0  0  0  0  0  0  0  0  0  0  0  0
   44.8391   33.9958   47.9238 H   0  0  0  0  0  0  0  0  0  0  0  0
   45.1361   32.2066   49.5653 H   0  0  0  0  0  0  0  0  0  0  0  0
   46.2228   30.0346   48.8985 H   0  0  0  0  0  0  0  0  0  0  0  0
   46.9621   29.8239   46.5327 H   0  0  0  0  0  0  0  0  0  0  0  0
   43.7591   36.7496   44.9420 H   0  0  0  0  0  0  0  0  0  0  0  0
   45.0911   36.7990   42.7917 H   0  0  0  0  0  0  0  0  0  0  0  0
   47.5639   34.2128   41.9129 H   0  0  0  0  0  0  0  0  0  0  0  0
   46.7671   35.7250   41.4021 H   0  0  0  0  0  0  0  0  0  0  0  0
   44.9691   30.4789   43.9561 H   0  0  0  0  0  0  0  0  0  0  0  0
   48.4428   31.8185   40.6340 H   0  0  0  0  0  0  0  0  0  0  0  0
   49.5325   33.4411   41.8279 H   0  0  0  0  0  0  0  0  0  0  0  0
   50.0397   32.2464   43.1215 H   0  0  0  0  0  0  0  0  0  0  0  0
   51.6218   33.2408   41.1026 H   0  0  0  0  0  0  0  0  0  0  0  0
   51.8988   31.7523   42.1168 H   0  0  0  0  0  0  0  0  0  0  0  0
   52.2082   31.2389   39.7757 H   0  0  0  0  0  0  0  0  0  0  0  0
   50.5433   31.8828   39.4185 H   0  0  0  0  0  0  0  0  0  0  0  0
   50.2682   29.6026   39.4669 H   0  0  0  0  0  0  0  0  0  0  0  0
   51.3704   29.4398   40.9220 H   0  0  0  0  0  0  0  0  0  0  0  0
   48.6247   29.4328   40.9131 H   0  0  0  0  0  0  0  0  0  0  0  0
   49.7681   29.6855   42.3192 H   0  0  0  0  0  0  0  0  0  0  0  0
  1  2  2  0
  2  3  1  0
  4  3  2  0
  5  4  1  0
  6  1  1  0
  6  5  2  0
  7 12  2  0
  8  7  1  0
  9  8  2  0
  9 10  1  0
 10 11  2  0
 11 12  1  0
 11  1  1  0
 13  9  1  0
 14  6  1  0
 15 14  1  0
 16 17  1  0
 16 15  2  0
 17 18  2  0
 18 14  1  0
 19 20  1  0
 19 17  1  0
 21 20  1  0
 22 23  1  0
 22 21  1  0
 23 24  1  0
 24 19  1  0
  2 25  1  0
  3 26  1  0
  4 27  1  0
  5 28  1  0
  7 29  1  0
  8 30  1  0
 13 31  1  0
 13 32  1  0
 15 33  1  0
 19 34  1  0
 20 35  1  0
 20 36  1  0
 21 37  1  0
 21 38  1  0
 22 39  1  0
 22 40  1  0
 23 41  1  0
 23 42  1  0
 24 43  1  0
 24 44  1  0
M  ISO  8  25  14  26  14  27  14  28  14  29  14  30  14  33  14  34  13
M  ISO  8  35  13  36  13  37  13  38  13  39  13  40  13  41  13  42  13
M  ISO  2  43  13  44  13
M  END
>  <minimizedAffinity>  (1) 
-5.5405221

>  <minimizedRMSD>  (1) 
1.05269313

$$$$
