
     RDKit          3D

 37 40  0  0  0  0  0  0  0  0999 V2000
   47.3590   31.6280   43.3840 C   0  0  0  0  0  0  0  0  0  0  0  0
   48.7410   31.4530   43.0630 N   0  0  0  0  0  0  0  0  0  0  0  0
   49.5760   30.4410   43.2660 N   0  0  0  0  0  0  0  0  0  0  0  0
   50.8040   30.6880   42.8090 C   0  0  0  0  0  0  0  0  0  0  0  0
   50.7320   31.9480   42.2830 C   0  0  0  0  0  0  0  0  0  0  0  0
   49.4200   32.4270   42.4480 C   0  0  0  0  0  0  0  0  0  0  0  0
   49.1930   33.7790   41.9280 C   0  0  0  0  0  0  0  0  0  0  0  0
   48.5090   34.1900   40.8150 C   0  0  0  0  0  0  0  0  0  0  0  0
   48.5710   35.5340   40.6930 N   0  0  0  0  0  0  0  0  0  0  0  0
   49.2820   36.0230   41.7050 C   0  0  0  0  0  0  0  0  0  0  0  0
   49.6150   34.9550   42.3850 N   0  0  0  0  0  0  0  0  0  0  0  0
   47.1080   32.5030   44.6060 C   0  0  0  0  0  0  0  0  0  0  0  0
   46.0500   33.4860   44.3660 C   0  0  0  0  0  0  0  0  0  0  0  0
   45.7370   34.2530   45.4980 C   0  0  0  0  0  0  0  0  0  0  0  0
   44.7500   35.2360   45.4350 C   0  0  0  0  0  0  0  0  0  0  0  0
   44.1320   35.3880   44.2210 N   0  0  0  0  0  0  0  0  0  0  0  0
   44.4650   34.6080   43.1220 C   0  0  0  0  0  0  0  0  0  0  0  0
   45.4030   33.6870   43.2070 N   0  0  0  0  0  0  0  0  0  0  0  0
   43.5440   35.0180   42.0910 C   0  0  0  0  0  0  0  0  0  0  0  0
   43.8340   34.8700   40.7620 C   0  0  0  0  0  0  0  0  0  0  0  0
   42.7520   35.2220   40.0070 N   0  0  0  0  0  0  0  0  0  0  0  0
   41.7710   35.5940   40.8620 C   0  0  0  0  0  0  0  0  0  0  0  0
   42.2850   35.4560   42.0910 N   0  0  0  0  0  0  0  0  0  0  0  0
   46.9205   30.6371   43.5732 H   0  0  0  0  0  0  0  0  0  0  0  0
   46.8978   32.1413   42.5273 H   0  0  0  0  0  0  0  0  0  0  0  0
   51.6809   30.0249   42.8468 H   0  0  0  0  0  0  0  0  0  0  0  0
   51.5609   32.4951   41.8102 H   0  0  0  0  0  0  0  0  0  0  0  0
   47.9833   33.5202   40.1186 H   0  0  0  0  0  0  0  0  0  0  0  0
   49.5306   37.0729   41.9193 H   0  0  0  0  0  0  0  0  0  0  0  0
   50.1825   35.0227   43.2419 H   0  0  0  0  0  0  0  0  0  0  0  0
   46.8121   31.8607   45.4485 H   0  0  0  0  0  0  0  0  0  0  0  0
   48.0361   33.0492   44.8304 H   0  0  0  0  0  0  0  0  0  0  0  0
   46.2739   34.0778   46.4420 H   0  0  0  0  0  0  0  0  0  0  0  0
   44.4836   35.8520   46.3065 H   0  0  0  0  0  0  0  0  0  0  0  0
   44.7964   34.5193   40.3611 H   0  0  0  0  0  0  0  0  0  0  0  0
   40.7595   35.9388   40.6011 H   0  0  0  0  0  0  0  0  0  0  0  0
   41.7594   35.6674   42.9512 H   0  0  0  0  0  0  0  0  0  0  0  0
  1 12  1  0
  2  3  1  0
  2  1  1  0
  4  3  2  0
  5  6  2  0
  5  4  1  0
  6  2  1  0
  7 11  1  0
  7  6  1  0
  8  7  2  0
  9  8  1  0
  9 10  2  0
 10 11  1  0
 13 12  1  0
 13 14  2  0
 15 14  1  0
 16 15  2  0
 17 18  2  0
 17 16  1  0
 18 13  1  0
 19 23  1  0
 19 17  1  0
 20 19  2  0
 21 20  1  0
 21 22  2  0
 22 23  1  0
  1 24  1  0
  1 25  1  0
  4 26  1  0
  5 27  1  0
  8 28  1  0
 10 29  1  0
 11 30  1  0
 12 31  1  0
 12 32  1  0
 14 33  1  0
 15 34  1  0
 20 35  1  0
 22 36  1  0
 23 37  1  0
M  ISO  8  24   8  25   8  26  14  27  14  28  14  29  14  30   9  31   8
M  ISO  6  32   8  33  14  34  14  35  14  36  14  37   9
M  END
>  <minimizedAffinity>  (1) 
-5.13483572

>  <minimizedRMSD>  (1) 
1.37537599

$$$$
