
     RDKit          3D

 38 41  0  0  0  0  0  0  0  0999 V2000
   45.7610   32.9210   46.3270 C   0  0  0  0  0  0  0  0  0  0  0  0
   45.3080   33.0690   47.6230 C   0  0  0  0  0  0  0  0  0  0  0  0
   45.4870   32.0700   48.5480 C   0  0  0  0  0  0  0  0  0  0  0  0
   46.1180   30.8980   48.2210 C   0  0  0  0  0  0  0  0  0  0  0  0
   46.5500   30.8100   46.9010 C   0  0  0  0  0  0  0  0  0  0  0  0
   46.4030   31.7620   45.9400 C   0  0  0  0  0  0  0  0  0  0  0  0
   44.4880   35.9450   44.7100 C   0  0  0  0  0  0  0  0  0  0  0  0
   45.2360   35.9660   43.5000 C   0  0  0  0  0  0  0  0  0  0  0  0
   46.1450   34.9630   43.2670 C   0  0  0  0  0  0  0  0  0  0  0  0
   46.2980   33.9820   44.2030 N   0  0  0  0  0  0  0  0  0  0  0  0
   45.5630   33.9950   45.3500 C   0  0  0  0  0  0  0  0  0  0  0  0
   44.6670   34.9690   45.6000 N   0  0  0  0  0  0  0  0  0  0  0  0
   46.9050   34.9460   42.0850 N   0  0  0  0  0  0  0  0  0  0  0  0
   46.8950   31.5400   44.6270 N   0  0  0  0  0  0  0  0  0  0  0  0
   46.0840   30.9090   43.7460 C   0  0  0  0  0  0  0  0  0  0  0  0
   46.7340   30.7930   42.5540 N   0  0  0  0  0  0  0  0  0  0  0  0
   47.9530   31.3630   42.7260 C   0  0  0  0  0  0  0  0  0  0  0  0
   48.0220   31.8090   43.9960 N   0  0  0  0  0  0  0  0  0  0  0  0
   48.9730   31.4550   41.6880 C   0  0  0  0  0  0  0  0  0  0  0  0
   50.2640   31.7420   42.0800 C   0  0  0  0  0  0  0  0  0  0  0  0
   51.2680   31.8390   41.1380 C   0  0  0  0  0  0  0  0  0  0  0  0
   51.0330   31.6580   39.7910 C   0  0  0  0  0  0  0  0  0  0  0  0
   49.7110   31.3690   39.4430 C   0  0  0  0  0  0  0  0  0  0  0  0
   48.6870   31.2650   40.3510 C   0  0  0  0  0  0  0  0  0  0  0  0
   44.7979   33.9979   47.9178 H   0  0  0  0  0  0  0  0  0  0  0  0
   45.1160   32.2134   49.5736 H   0  0  0  0  0  0  0  0  0  0  0  0
   46.2716   30.0870   48.9481 H   0  0  0  0  0  0  0  0  0  0  0  0
   47.0596   29.8809   46.6060 H   0  0  0  0  0  0  0  0  0  0  0  0
   43.7560   36.7407   44.9127 H   0  0  0  0  0  0  0  0  0  0  0  0
   45.0891   36.7707   42.7646 H   0  0  0  0  0  0  0  0  0  0  0  0
   47.5840   34.1892   41.9201 H   0  0  0  0  0  0  0  0  0  0  0  0
   46.7831   35.6903   41.3836 H   0  0  0  0  0  0  0  0  0  0  0  0
   45.0665   30.5487   43.9577 H   0  0  0  0  0  0  0  0  0  0  0  0
   50.4937   31.8938   43.1450 H   0  0  0  0  0  0  0  0  0  0  0  0
   52.2904   32.0685   41.4728 H   0  0  0  0  0  0  0  0  0  0  0  0
   51.8333   31.7360   39.0404 H   0  0  0  0  0  0  0  0  0  0  0  0
   49.4772   31.2159   38.3791 H   0  0  0  0  0  0  0  0  0  0  0  0
   47.6630   31.0357   40.0212 H   0  0  0  0  0  0  0  0  0  0  0  0
  1  2  2  0
  2  3  1  0
  4  3  2  0
  5  4  1  0
  6  1  1  0
  6  5  2  0
  7 12  2  0
  8  7  1  0
  9  8  2  0
  9 10  1  0
 10 11  2  0
 11 12  1  0
 11  1  1  0
 13  9  1  0
 14  6  1  0
 15 14  1  0
 16 17  1  0
 16 15  2  0
 17 18  2  0
 18 14  1  0
 19 20  2  0
 19 17  1  0
 21 20  1  0
 22 21  2  0
 23 22  1  0
 23 24  2  0
 24 19  1  0
  2 25  1  0
  3 26  1  0
  4 27  1  0
  5 28  1  0
  7 29  1  0
  8 30  1  0
 13 31  1  0
 13 32  1  0
 15 33  1  0
 20 34  1  0
 21 35  1  0
 22 36  1  0
 23 37  1  0
 24 38  1  0
M  ISO  8  25  14  26  14  27  14  28  14  29  14  30  14  33  14  34  14
M  ISO  4  35  14  36  14  37  14  38  14
M  END
>  <minimizedAffinity>  (1) 
-5.55121279

>  <minimizedRMSD>  (1) 
0.632717729

$$$$
