
     RDKit          3D

 31 33  0  0  0  0  0  0  0  0999 V2000
   45.8580   32.9690   46.1090 C   0  0  0  0  0  0  0  0  0  0  0  0
   45.4390   33.1170   47.4130 C   0  0  0  0  0  0  0  0  0  0  0  0
   45.6250   32.1210   48.3350 C   0  0  0  0  0  0  0  0  0  0  0  0
   46.2390   30.9350   47.9920 C   0  0  0  0  0  0  0  0  0  0  0  0
   46.6410   30.8460   46.6580 C   0  0  0  0  0  0  0  0  0  0  0  0
   46.4850   31.7900   45.7120 C   0  0  0  0  0  0  0  0  0  0  0  0
   44.5270   35.9470   44.4800 C   0  0  0  0  0  0  0  0  0  0  0  0
   45.2990   36.0150   43.3020 C   0  0  0  0  0  0  0  0  0  0  0  0
   46.2610   35.0490   43.0760 C   0  0  0  0  0  0  0  0  0  0  0  0
   46.4250   34.0590   44.0130 N   0  0  0  0  0  0  0  0  0  0  0  0
   45.6550   34.0350   45.1360 C   0  0  0  0  0  0  0  0  0  0  0  0
   44.7150   34.9700   45.3680 N   0  0  0  0  0  0  0  0  0  0  0  0
   47.0620   35.0670   41.9140 N   0  0  0  0  0  0  0  0  0  0  0  0
   46.9420   31.5670   44.3920 N   0  0  0  0  0  0  0  0  0  0  0  0
   46.1740   30.8120   43.5750 C   0  0  0  0  0  0  0  0  0  0  0  0
   46.7860   30.7170   42.3540 N   0  0  0  0  0  0  0  0  0  0  0  0
   47.9320   31.4250   42.4480 C   0  0  0  0  0  0  0  0  0  0  0  0
   48.0160   31.9350   43.6840 N   0  0  0  0  0  0  0  0  0  0  0  0
   48.8860   31.5810   41.3610 C   0  0  0  0  0  0  0  0  0  0  0  0
   49.5540   30.5900   40.9660 O   0  0  0  0  0  0  0  0  0  0  0  0
   49.0770   32.8110   40.7430 O   0  0  0  0  0  0  0  0  0  0  0  0
   44.9463   34.0516   47.7193 H   0  0  0  0  0  0  0  0  0  0  0  0
   45.2781   32.2702   49.3681 H   0  0  0  0  0  0  0  0  0  0  0  0
   46.3998   30.1211   48.7143 H   0  0  0  0  0  0  0  0  0  0  0  0
   47.1338   29.9121   46.3500 H   0  0  0  0  0  0  0  0  0  0  0  0
   43.7585   36.7109   44.6692 H   0  0  0  0  0  0  0  0  0  0  0  0
   45.1380   36.8242   42.5745 H   0  0  0  0  0  0  0  0  0  0  0  0
   47.7728   34.3362   41.7671 H   0  0  0  0  0  0  0  0  0  0  0  0
   46.9357   35.8109   41.2129 H   0  0  0  0  0  0  0  0  0  0  0  0
   45.2138   30.3493   43.8469 H   0  0  0  0  0  0  0  0  0  0  0  0
   49.7308   32.8978   40.0047 H   0  0  0  0  0  0  0  0  0  0  0  0
  1  2  2  0
  2  3  1  0
  4  3  2  0
  5  4  1  0
  6  1  1  0
  6  5  2  0
  7 12  2  0
  8  7  1  0
  9  8  2  0
  9 10  1  0
 10 11  2  0
 11 12  1  0
 11  1  1  0
 13  9  1  0
 14  6  1  0
 15 14  1  0
 16 17  1  0
 16 15  2  0
 17 18  2  0
 18 14  1  0
 19 17  1  0
 20 19  2  0
 21 19  1  0
  2 22  1  0
  3 23  1  0
  4 24  1  0
  5 25  1  0
  7 26  1  0
  8 27  1  0
 13 28  1  0
 13 29  1  0
 15 30  1  0
 21 31  1  0
M  ISO  8  22  14  23  14  24  14  25  14  26  14  27  14  30  14  31   3
M  END
>  <minimizedAffinity>  (1) 
-4.93759489

>  <minimizedRMSD>  (1) 
0.34942019

$$$$
