
     RDKit          3D

 34 37  0  0  0  0  0  0  0  0999 V2000
   45.7380   32.8940   46.3100 C   0  0  0  0  0  0  0  0  0  0  0  0
   45.3430   33.0560   47.6230 C   0  0  0  0  0  0  0  0  0  0  0  0
   45.5010   32.0560   48.5390 C   0  0  0  0  0  0  0  0  0  0  0  0
   46.0620   30.8430   48.1880 C   0  0  0  0  0  0  0  0  0  0  0  0
   46.4410   30.7360   46.8480 C   0  0  0  0  0  0  0  0  0  0  0  0
   46.3060   31.6970   45.9000 C   0  0  0  0  0  0  0  0  0  0  0  0
   44.4940   35.9280   44.6980 C   0  0  0  0  0  0  0  0  0  0  0  0
   45.2680   35.9700   43.5090 C   0  0  0  0  0  0  0  0  0  0  0  0
   46.1940   34.9620   43.2870 C   0  0  0  0  0  0  0  0  0  0  0  0
   46.3270   33.9710   44.2180 N   0  0  0  0  0  0  0  0  0  0  0  0
   45.5620   33.9650   45.3520 C   0  0  0  0  0  0  0  0  0  0  0  0
   44.6550   34.9380   45.5850 N   0  0  0  0  0  0  0  0  0  0  0  0
   46.9740   34.9750   42.1230 N   0  0  0  0  0  0  0  0  0  0  0  0
   46.7350   31.4540   44.5730 N   0  0  0  0  0  0  0  0  0  0  0  0
   45.8810   30.8470   43.7280 C   0  0  0  0  0  0  0  0  0  0  0  0
   46.4890   30.7110   42.5150 N   0  0  0  0  0  0  0  0  0  0  0  0
   47.7260   31.2450   42.6290 C   0  0  0  0  0  0  0  0  0  0  0  0
   47.8620   31.6970   43.9000 N   0  0  0  0  0  0  0  0  0  0  0  0
   48.8150   31.3700   41.6340 C   0  0  0  0  0  0  0  0  0  0  0  0
   48.8100   30.8570   40.2770 C   0  0  0  0  0  0  0  0  0  0  0  0
   50.4860   31.4160   39.7130 S   0  0  0  0  0  0  0  0  0  0  0  0
   50.8650   32.2220   41.3930 C   0  0  0  0  0  0  0  0  0  0  0  0
   49.8710   32.0280   42.0920 N   0  0  0  0  0  0  0  0  0  0  0  0
   44.8924   34.0090   47.9371 H   0  0  0  0  0  0  0  0  0  0  0  0
   45.1753   32.2192   49.5769 H   0  0  0  0  0  0  0  0  0  0  0  0
   46.1996   30.0239   48.9092 H   0  0  0  0  0  0  0  0  0  0  0  0
   46.8911   29.7834   46.5317 H   0  0  0  0  0  0  0  0  0  0  0  0
   43.7535   36.7177   44.8930 H   0  0  0  0  0  0  0  0  0  0  0  0
   45.1363   36.7835   42.7804 H   0  0  0  0  0  0  0  0  0  0  0  0
   47.6624   34.2273   41.9560 H   0  0  0  0  0  0  0  0  0  0  0  0
   46.8589   35.7323   41.4344 H   0  0  0  0  0  0  0  0  0  0  0  0
   44.8616   30.5156   43.9750 H   0  0  0  0  0  0  0  0  0  0  0  0
   48.0333   30.2962   39.7365 H   0  0  0  0  0  0  0  0  0  0  0  0
   51.7844   32.7529   41.6810 H   0  0  0  0  0  0  0  0  0  0  0  0
  1  2  2  0
  2  3  1  0
  4  3  2  0
  5  4  1  0
  6  1  1  0
  6  5  2  0
  7 12  2  0
  8  7  1  0
  9  8  2  0
  9 10  1  0
 10 11  2  0
 11 12  1  0
 11  1  1  0
 13  9  1  0
 14  6  1  0
 15 14  1  0
 16 17  1  0
 16 15  2  0
 17 18  2  0
 18 14  1  0
 19 23  1  0
 19 17  1  0
 20 19  2  0
 21 20  1  0
 21 22  1  0
 22 23  2  0
  2 24  1  0
  3 25  1  0
  4 26  1  0
  5 27  1  0
  7 28  1  0
  8 29  1  0
 13 30  1  0
 13 31  1  0
 15 32  1  0
 20 33  1  0
 22 34  1  0
M  ISO  8  24  14  25  14  26  14  27  14  28  14  29  14  32  14  33  14
M  ISO  1  34  14
M  END
>  <minimizedAffinity>  (1) 
-5.32406807

>  <minimizedRMSD>  (1) 
0.35804233

$$$$
