
     RDKit          3D

 35 38  0  0  0  0  0  0  0  0999 V2000
   45.8140   33.0050   46.1660 C   0  0  0  0  0  0  0  0  0  0  0  0
   45.3260   33.1570   47.4490 C   0  0  0  0  0  0  0  0  0  0  0  0
   45.4940   32.1750   48.3910 C   0  0  0  0  0  0  0  0  0  0  0  0
   46.1510   31.0060   48.0950 C   0  0  0  0  0  0  0  0  0  0  0  0
   46.6170   30.9150   46.7850 C   0  0  0  0  0  0  0  0  0  0  0  0
   46.4860   31.8410   45.8130 C   0  0  0  0  0  0  0  0  0  0  0  0
   44.5370   35.9720   44.4630 C   0  0  0  0  0  0  0  0  0  0  0  0
   45.3200   36.0000   43.2860 C   0  0  0  0  0  0  0  0  0  0  0  0
   46.2620   35.0090   43.1010 C   0  0  0  0  0  0  0  0  0  0  0  0
   46.4080   34.0430   44.0490 N   0  0  0  0  0  0  0  0  0  0  0  0
   45.6310   34.0520   45.1740 C   0  0  0  0  0  0  0  0  0  0  0  0
   44.7010   35.0110   45.3790 N   0  0  0  0  0  0  0  0  0  0  0  0
   47.0750   34.9890   41.9370 N   0  0  0  0  0  0  0  0  0  0  0  0
   47.0160   31.6090   44.5170 N   0  0  0  0  0  0  0  0  0  0  0  0
   46.2450   30.9360   43.6340 C   0  0  0  0  0  0  0  0  0  0  0  0
   46.9270   30.8190   42.4630 N   0  0  0  0  0  0  0  0  0  0  0  0
   48.1220   31.4280   42.6420 C   0  0  0  0  0  0  0  0  0  0  0  0
   48.1560   31.9060   43.9090 N   0  0  0  0  0  0  0  0  0  0  0  0
   49.1730   31.5380   41.6330 C   0  0  0  0  0  0  0  0  0  0  0  0
   50.4750   31.8080   42.0150 C   0  0  0  0  0  0  0  0  0  0  0  0
   51.2420   31.8520   40.8480 C   0  0  0  0  0  0  0  0  0  0  0  0
   50.3380   31.6030   39.8170 C   0  0  0  0  0  0  0  0  0  0  0  0
   49.1310   31.4230   40.3180 O   0  0  0  0  0  0  0  0  0  0  0  0
   44.7939   34.0809   47.7196 H   0  0  0  0  0  0  0  0  0  0  0  0
   45.0944   32.3267   49.4045 H   0  0  0  0  0  0  0  0  0  0  0  0
   46.2978   30.2045   48.8339 H   0  0  0  0  0  0  0  0  0  0  0  0
   47.1479   29.9902   46.5149 H   0  0  0  0  0  0  0  0  0  0  0  0
   43.7805   36.7533   44.6282 H   0  0  0  0  0  0  0  0  0  0  0  0
   45.1815   36.7927   42.5360 H   0  0  0  0  0  0  0  0  0  0  0  0
   47.7748   34.2439   41.8103 H   0  0  0  0  0  0  0  0  0  0  0  0
   46.9650   35.7196   41.2193 H   0  0  0  0  0  0  0  0  0  0  0  0
   45.2346   30.5477   43.8298 H   0  0  0  0  0  0  0  0  0  0  0  0
   50.8375   31.9593   43.0425 H   0  0  0  0  0  0  0  0  0  0  0  0
   52.3221   32.0415   40.7619 H   0  0  0  0  0  0  0  0  0  0  0  0
   50.5924   31.5627   38.7476 H   0  0  0  0  0  0  0  0  0  0  0  0
  1  2  2  0
  2  3  1  0
  4  3  2  0
  5  4  1  0
  6  1  1  0
  6  5  2  0
  7 12  2  0
  8  7  1  0
  9  8  2  0
  9 10  1  0
 10 11  2  0
 11 12  1  0
 11  1  1  0
 13  9  1  0
 14  6  1  0
 15 14  1  0
 16 17  1  0
 16 15  2  0
 17 18  2  0
 18 14  1  0
 19 20  2  0
 19 17  1  0
 21 20  1  0
 22 23  1  0
 22 21  2  0
 23 19  1  0
  2 24  1  0
  3 25  1  0
  4 26  1  0
  5 27  1  0
  7 28  1  0
  8 29  1  0
 13 30  1  0
 13 31  1  0
 15 32  1  0
 20 33  1  0
 21 34  1  0
 22 35  1  0
M  ISO  8  24  14  25  14  26  14  27  14  28  14  29  14  32  14  33  14
M  ISO  2  34  14  35  14
M  END
>  <minimizedAffinity>  (1) 
-5.40121698

>  <minimizedRMSD>  (1) 
0.554244339

$$$$
