
     RDKit          3D

 30 32  0  0  0  0  0  0  0  0999 V2000
   45.8610   32.9620   46.1090 C   0  0  0  0  0  0  0  0  0  0  0  0
   45.4450   33.1210   47.4160 C   0  0  0  0  0  0  0  0  0  0  0  0
   45.6220   32.1330   48.3410 C   0  0  0  0  0  0  0  0  0  0  0  0
   46.2250   30.9370   48.0060 C   0  0  0  0  0  0  0  0  0  0  0  0
   46.6260   30.8300   46.6760 C   0  0  0  0  0  0  0  0  0  0  0  0
   46.4730   31.7780   45.7190 C   0  0  0  0  0  0  0  0  0  0  0  0
   44.5430   35.9340   44.4520 C   0  0  0  0  0  0  0  0  0  0  0  0
   45.3230   35.9930   43.2820 C   0  0  0  0  0  0  0  0  0  0  0  0
   46.2780   35.0270   43.0760 C   0  0  0  0  0  0  0  0  0  0  0  0
   46.4460   34.0370   44.0120 N   0  0  0  0  0  0  0  0  0  0  0  0
   45.6680   34.0220   45.1260 C   0  0  0  0  0  0  0  0  0  0  0  0
   44.7240   34.9610   45.3490 N   0  0  0  0  0  0  0  0  0  0  0  0
   47.0910   35.0410   41.9130 N   0  0  0  0  0  0  0  0  0  0  0  0
   46.9270   31.5400   44.4020 N   0  0  0  0  0  0  0  0  0  0  0  0
   46.1400   30.8060   43.5800 C   0  0  0  0  0  0  0  0  0  0  0  0
   46.7520   30.6910   42.3590 N   0  0  0  0  0  0  0  0  0  0  0  0
   47.9180   31.3660   42.4580 C   0  0  0  0  0  0  0  0  0  0  0  0
   48.0080   31.8710   43.6950 N   0  0  0  0  0  0  0  0  0  0  0  0
   48.8830   31.4950   41.3730 C   0  0  0  0  0  0  0  0  0  0  0  0
   49.0200   32.6500   40.8510 O   0  0  0  0  0  0  0  0  0  0  0  0
   44.9617   34.0620   47.7176 H   0  0  0  0  0  0  0  0  0  0  0  0
   45.2775   32.2928   49.3734 H   0  0  0  0  0  0  0  0  0  0  0  0
   46.3776   30.1280   48.7356 H   0  0  0  0  0  0  0  0  0  0  0  0
   47.1113   29.8899   46.3747 H   0  0  0  0  0  0  0  0  0  0  0  0
   43.7737   36.6998   44.6302 H   0  0  0  0  0  0  0  0  0  0  0  0
   45.1710   36.7969   42.5468 H   0  0  0  0  0  0  0  0  0  0  0  0
   47.8026   34.3096   41.7733 H   0  0  0  0  0  0  0  0  0  0  0  0
   46.9695   35.7826   41.2086 H   0  0  0  0  0  0  0  0  0  0  0  0
   45.1658   30.3717   43.8491 H   0  0  0  0  0  0  0  0  0  0  0  0
   49.4678   30.6328   41.0199 H   0  0  0  0  0  0  0  0  0  0  0  0
  1  2  2  0
  2  3  1  0
  4  3  2  0
  5  4  1  0
  6  1  1  0
  6  5  2  0
  7 12  2  0
  8  7  1  0
  9  8  2  0
  9 10  1  0
 10 11  2  0
 11 12  1  0
 11  1  1  0
 13  9  1  0
 14  6  1  0
 15 14  1  0
 16 17  1  0
 16 15  2  0
 17 18  2  0
 18 14  1  0
 19 17  1  0
 20 19  2  0
  2 21  1  0
  3 22  1  0
  4 23  1  0
  5 24  1  0
  7 25  1  0
  8 26  1  0
 13 27  1  0
 13 28  1  0
 15 29  1  0
 19 30  1  0
M  ISO  8  21  14  22  14  23  14  24  14  25  14  26  14  29  14  30   6
M  END
>  <minimizedAffinity>  (1) 
-4.83595276

>  <minimizedRMSD>  (1) 
0.298708975

$$$$
