
     RDKit          3D

 29 31  0  0  0  0  0  0  0  0999 V2000
   45.7780   32.9610   46.1640 C   0  0  0  0  0  0  0  0  0  0  0  0
   45.4200   33.1770   47.4750 C   0  0  0  0  0  0  0  0  0  0  0  0
   45.5580   32.1950   48.4190 C   0  0  0  0  0  0  0  0  0  0  0  0
   46.0610   30.9520   48.0920 C   0  0  0  0  0  0  0  0  0  0  0  0
   46.4040   30.7970   46.7520 C   0  0  0  0  0  0  0  0  0  0  0  0
   46.2910   31.7260   45.7760 C   0  0  0  0  0  0  0  0  0  0  0  0
   44.5420   35.9200   44.4360 C   0  0  0  0  0  0  0  0  0  0  0  0
   45.3670   35.9710   43.3000 C   0  0  0  0  0  0  0  0  0  0  0  0
   46.3410   34.9960   43.1280 C   0  0  0  0  0  0  0  0  0  0  0  0
   46.4480   34.0260   44.0860 N   0  0  0  0  0  0  0  0  0  0  0  0
   45.6250   34.0160   45.1720 C   0  0  0  0  0  0  0  0  0  0  0  0
   44.6750   34.9550   45.3520 N   0  0  0  0  0  0  0  0  0  0  0  0
   47.1860   35.0110   42.0080 N   0  0  0  0  0  0  0  0  0  0  0  0
   46.6790   31.4330   44.4480 N   0  0  0  0  0  0  0  0  0  0  0  0
   45.7620   30.8770   43.6290 C   0  0  0  0  0  0  0  0  0  0  0  0
   46.3320   30.6750   42.4070 N   0  0  0  0  0  0  0  0  0  0  0  0
   47.6070   31.1150   42.4920 C   0  0  0  0  0  0  0  0  0  0  0  0
   47.7850   31.5680   43.7430 N   0  0  0  0  0  0  0  0  0  0  0  0
   48.9110   31.1470   41.2570 S   0  0  0  0  0  0  0  0  0  0  0  0
   45.0156   34.1565   47.7699 H   0  0  0  0  0  0  0  0  0  0  0  0
   45.2622   32.4007   49.4583 H   0  0  0  0  0  0  0  0  0  0  0  0
   46.1813   30.1472   48.8321 H   0  0  0  0  0  0  0  0  0  0  0  0
   46.8087   29.8178   46.4565 H   0  0  0  0  0  0  0  0  0  0  0  0
   43.7697   36.6908   44.5750 H   0  0  0  0  0  0  0  0  0  0  0  0
   45.2432   36.7724   42.5567 H   0  0  0  0  0  0  0  0  0  0  0  0
   47.9036   34.2809   41.8945 H   0  0  0  0  0  0  0  0  0  0  0  0
   47.0887   35.7521   41.2993 H   0  0  0  0  0  0  0  0  0  0  0  0
   44.7260   30.6279   43.9021 H   0  0  0  0  0  0  0  0  0  0  0  0
   50.1303   31.1769   41.8810 H   0  0  0  0  0  0  0  0  0  0  0  0
  1  2  2  0
  2  3  1  0
  4  3  2  0
  5  4  1  0
  6  1  1  0
  6  5  2  0
  7 12  2  0
  8  7  1  0
  9  8  2  0
  9 10  1  0
 10 11  2  0
 11 12  1  0
 11  1  1  0
 13  9  1  0
 14  6  1  0
 15 14  1  0
 16 17  1  0
 16 15  2  0
 17 18  2  0
 18 14  1  0
 19 17  1  0
  2 20  1  0
  3 21  1  0
  4 22  1  0
  5 23  1  0
  7 24  1  0
  8 25  1  0
 13 26  1  0
 13 27  1  0
 15 28  1  0
 19 29  1  0
M  ISO  8  20  14  21  14  22  14  23  14  24  14  25  14  28  14  29  11
M  END
>  <minimizedAffinity>  (1) 
-4.79976702

>  <minimizedRMSD>  (1) 
0.0123775173

$$$$
