
     RDKit          3D

 30 32  0  0  0  0  0  0  0  0999 V2000
   45.7780   32.9570   46.1620 C   0  0  0  0  0  0  0  0  0  0  0  0
   45.4140   33.1740   47.4820 C   0  0  0  0  0  0  0  0  0  0  0  0
   45.5510   32.1870   48.4220 C   0  0  0  0  0  0  0  0  0  0  0  0
   46.0550   30.9460   48.0910 C   0  0  0  0  0  0  0  0  0  0  0  0
   46.4020   30.7930   46.7490 C   0  0  0  0  0  0  0  0  0  0  0  0
   46.2890   31.7260   45.7850 C   0  0  0  0  0  0  0  0  0  0  0  0
   46.6830   31.4350   44.4460 N   0  0  0  0  0  0  0  0  0  0  0  0
   45.7660   30.8810   43.6210 C   0  0  0  0  0  0  0  0  0  0  0  0
   46.3280   30.6800   42.3990 N   0  0  0  0  0  0  0  0  0  0  0  0
   47.6110   31.1190   42.4870 C   0  0  0  0  0  0  0  0  0  0  0  0
   47.8010   31.5750   43.7470 N   0  0  0  0  0  0  0  0  0  0  0  0
   48.5790   31.1110   41.4650 N   0  0  0  0  0  0  0  0  0  0  0  0
   44.5390   35.9220   44.4450 C   0  0  0  0  0  0  0  0  0  0  0  0
   45.3700   35.9710   43.3000 C   0  0  0  0  0  0  0  0  0  0  0  0
   46.3320   34.9950   43.1390 C   0  0  0  0  0  0  0  0  0  0  0  0
   46.4430   34.0270   44.0860 N   0  0  0  0  0  0  0  0  0  0  0  0
   45.6290   34.0150   45.1660 C   0  0  0  0  0  0  0  0  0  0  0  0
   44.6790   34.9530   45.3550 N   0  0  0  0  0  0  0  0  0  0  0  0
   47.1740   35.0170   42.0100 N   0  0  0  0  0  0  0  0  0  0  0  0
   45.0093   34.1529   47.7788 H   0  0  0  0  0  0  0  0  0  0  0  0
   45.2532   32.3879   49.4617 H   0  0  0  0  0  0  0  0  0  0  0  0
   46.1740   30.1391   48.8291 H   0  0  0  0  0  0  0  0  0  0  0  0
   46.8073   29.8154   46.4490 H   0  0  0  0  0  0  0  0  0  0  0  0
   44.7300   30.6324   43.8948 H   0  0  0  0  0  0  0  0  0  0  0  0
   49.5258   31.4722   41.6496 H   0  0  0  0  0  0  0  0  0  0  0  0
   48.3405   30.7439   40.5326 H   0  0  0  0  0  0  0  0  0  0  0  0
   43.7670   36.6924   44.5879 H   0  0  0  0  0  0  0  0  0  0  0  0
   45.2513   36.7706   42.5540 H   0  0  0  0  0  0  0  0  0  0  0  0
   47.8924   34.2888   41.8890 H   0  0  0  0  0  0  0  0  0  0  0  0
   47.0713   35.7612   41.3054 H   0  0  0  0  0  0  0  0  0  0  0  0
  1  2  2  0
  2  3  1  0
  4  3  2  0
  5  4  1  0
  6  1  1  0
  6  5  2  0
  7  6  1  0
  8  7  1  0
  9 10  1  0
  9  8  2  0
 10 11  2  0
 11  7  1  0
 12 10  1  0
 13 18  2  0
 14 13  1  0
 15 14  2  0
 15 16  1  0
 16 17  2  0
 17 18  1  0
 17  1  1  0
 19 15  1  0
  2 20  1  0
  3 21  1  0
  4 22  1  0
  5 23  1  0
  8 24  1  0
 12 25  1  0
 12 26  1  0
 13 27  1  0
 14 28  1  0
 19 29  1  0
 19 30  1  0
M  ISO  7  20  14  21  14  22  14  23  14  24  14  27  14  28  14
M  END
>  <minimizedAffinity>  (1) 
-4.80076408

>  <minimizedRMSD>  (1) 
0.0117577836

$$$$
