
     RDKit          3D

 43 46  0  0  0  0  0  0  0  0999 V2000
   47.4180   31.3580   43.5160 C   0  0  0  0  0  0  0  0  0  0  0  0
   48.7950   31.1630   43.2110 N   0  0  0  0  0  0  0  0  0  0  0  0
   49.6030   30.1230   43.3450 N   0  0  0  0  0  0  0  0  0  0  0  0
   50.8420   30.3770   42.9270 C   0  0  0  0  0  0  0  0  0  0  0  0
   50.8130   31.6790   42.4960 C   0  0  0  0  0  0  0  0  0  0  0  0
   49.5080   32.1650   42.6820 C   0  0  0  0  0  0  0  0  0  0  0  0
   49.3250   33.5590   42.2600 C   0  0  0  0  0  0  0  0  0  0  0  0
   48.6880   34.0480   41.1250 C   0  0  0  0  0  0  0  0  0  0  0  0
   48.7370   35.3780   41.0900 N   0  0  0  0  0  0  0  0  0  0  0  0
   49.3970   35.8010   42.1790 C   0  0  0  0  0  0  0  0  0  0  0  0
   49.7260   34.6940   42.8420 N   0  0  0  0  0  0  0  0  0  0  0  0
   47.1690   32.2130   44.7780 C   0  0  0  0  0  0  0  0  0  0  0  0
   46.2550   33.3170   44.4840 C   0  0  0  0  0  0  0  0  0  0  0  0
   45.7060   33.9190   45.6050 C   0  0  0  0  0  0  0  0  0  0  0  0
   44.8140   34.9860   45.4960 C   0  0  0  0  0  0  0  0  0  0  0  0
   44.5180   35.3950   44.2450 N   0  0  0  0  0  0  0  0  0  0  0  0
   45.0690   34.7890   43.1460 C   0  0  0  0  0  0  0  0  0  0  0  0
   45.9180   33.7720   43.2950 N   0  0  0  0  0  0  0  0  0  0  0  0
   44.6110   35.3890   41.8740 C   0  0  0  0  0  0  0  0  0  0  0  0
   43.1160   35.4070   41.7550 C   0  0  0  0  0  0  0  0  0  0  0  0
   42.7080   33.9970   41.4080 C   0  0  0  0  0  0  0  0  0  0  0  0
   43.8900   33.4040   40.7090 C   0  0  0  0  0  0  0  0  0  0  0  0
   44.9880   34.4300   40.7350 C   0  0  0  0  0  0  0  0  0  0  0  0
   46.9547   30.3722   43.6692 H   0  0  0  0  0  0  0  0  0  0  0  0
   46.9789   31.9055   42.6690 H   0  0  0  0  0  0  0  0  0  0  0  0
   51.7021   29.6913   42.9273 H   0  0  0  0  0  0  0  0  0  0  0  0
   51.6608   32.2423   42.0789 H   0  0  0  0  0  0  0  0  0  0  0  0
   48.2083   33.4207   40.3593 H   0  0  0  0  0  0  0  0  0  0  0  0
   49.6189   36.8402   42.4633 H   0  0  0  0  0  0  0  0  0  0  0  0
   50.2468   34.7107   43.7305 H   0  0  0  0  0  0  0  0  0  0  0  0
   46.7291   31.5793   45.5622 H   0  0  0  0  0  0  0  0  0  0  0  0
   48.1288   32.6299   45.1172 H   0  0  0  0  0  0  0  0  0  0  0  0
   45.9798   33.5471   46.6034 H   0  0  0  0  0  0  0  0  0  0  0  0
   44.3756   35.4679   46.3823 H   0  0  0  0  0  0  0  0  0  0  0  0
   45.0485   36.3975   41.8353 H   0  0  0  0  0  0  0  0  0  0  0  0
   42.6606   35.7127   42.7085 H   0  0  0  0  0  0  0  0  0  0  0  0
   42.7820   36.1224   40.9891 H   0  0  0  0  0  0  0  0  0  0  0  0
   42.4745   33.4281   42.3200 H   0  0  0  0  0  0  0  0  0  0  0  0
   41.8060   33.9745   40.7788 H   0  0  0  0  0  0  0  0  0  0  0  0
   43.6282   33.1595   39.6689 H   0  0  0  0  0  0  0  0  0  0  0  0
   44.2118   32.4776   41.2073 H   0  0  0  0  0  0  0  0  0  0  0  0
   45.9582   33.9526   40.9370 H   0  0  0  0  0  0  0  0  0  0  0  0
   45.0877   34.9521   39.7720 H   0  0  0  0  0  0  0  0  0  0  0  0
  1 12  1  0
  2  3  1  0
  2  1  1  0
  4  3  2  0
  5  6  2  0
  5  4  1  0
  6  2  1  0
  7  6  1  0
  7 11  1  0
  8  7  2  0
  9  8  1  0
  9 10  2  0
 10 11  1  0
 13 12  1  0
 13 14  2  0
 15 14  1  0
 16 15  2  0
 17 18  2  0
 17 16  1  0
 18 13  1  0
 19 17  1  0
 20 19  1  0
 21 20  1  0
 22 23  1  0
 22 21  1  0
 23 19  1  0
  1 24  1  0
  1 25  1  0
  4 26  1  0
  5 27  1  0
  8 28  1  0
 10 29  1  0
 11 30  1  0
 12 31  1  0
 12 32  1  0
 14 33  1  0
 15 34  1  0
 19 35  1  0
 20 36  1  0
 20 37  1  0
 21 38  1  0
 21 39  1  0
 22 40  1  0
 22 41  1  0
 23 42  1  0
 23 43  1  0
M  ISO  8  24   8  25   8  26  14  27  14  28  14  29  14  30   9  31   8
M  ISO  8  32   8  33  14  34  14  35  13  36  13  37  13  38  13  39  13
M  ISO  4  40  13  41  13  42  13  43  13
M  END
>  <minimizedAffinity>  (1) 
-5.10096312

>  <minimizedRMSD>  (1) 
1.38925028

$$$$
