
     RDKit          3D

 34 37  0  0  0  0  0  0  0  0999 V2000
   45.8030   32.8980   46.2870 C   0  0  0  0  0  0  0  0  0  0  0  0
   45.4190   33.0420   47.6030 C   0  0  0  0  0  0  0  0  0  0  0  0
   45.6130   32.0440   48.5120 C   0  0  0  0  0  0  0  0  0  0  0  0
   46.1960   30.8570   48.1610 C   0  0  0  0  0  0  0  0  0  0  0  0
   46.5670   30.7620   46.8150 C   0  0  0  0  0  0  0  0  0  0  0  0
   46.4000   31.7190   45.8660 C   0  0  0  0  0  0  0  0  0  0  0  0
   44.4940   35.9120   44.7170 C   0  0  0  0  0  0  0  0  0  0  0  0
   45.2130   35.9790   43.5070 C   0  0  0  0  0  0  0  0  0  0  0  0
   46.1380   34.9880   43.2490 C   0  0  0  0  0  0  0  0  0  0  0  0
   46.3070   33.9920   44.1800 N   0  0  0  0  0  0  0  0  0  0  0  0
   45.5860   33.9810   45.3250 C   0  0  0  0  0  0  0  0  0  0  0  0
   44.6840   34.9290   45.5990 N   0  0  0  0  0  0  0  0  0  0  0  0
   46.9030   34.9840   42.0550 N   0  0  0  0  0  0  0  0  0  0  0  0
   46.8200   31.4970   44.5360 N   0  0  0  0  0  0  0  0  0  0  0  0
   45.9870   30.8640   43.7030 C   0  0  0  0  0  0  0  0  0  0  0  0
   46.5670   30.7480   42.4840 N   0  0  0  0  0  0  0  0  0  0  0  0
   47.7890   31.3260   42.5710 C   0  0  0  0  0  0  0  0  0  0  0  0
   47.9090   31.7740   43.8430 N   0  0  0  0  0  0  0  0  0  0  0  0
   48.8860   31.5310   41.6370 C   0  0  0  0  0  0  0  0  0  0  0  0
   48.9850   31.4850   40.2980 N   0  0  0  0  0  0  0  0  0  0  0  0
   50.2120   31.7510   39.9280 O   0  0  0  0  0  0  0  0  0  0  0  0
   50.9520   31.9760   40.9870 C   0  0  0  0  0  0  0  0  0  0  0  0
   50.1380   31.8430   42.0550 N   0  0  0  0  0  0  0  0  0  0  0  0
   52.3060   32.2880   40.9490 O   0  0  0  0  0  0  0  0  0  0  0  0
   44.9464   33.9811   47.9266 H   0  0  0  0  0  0  0  0  0  0  0  0
   45.2928   32.1971   49.5532 H   0  0  0  0  0  0  0  0  0  0  0  0
   46.3602   30.0413   48.8805 H   0  0  0  0  0  0  0  0  0  0  0  0
   47.0394   29.8216   46.4948 H   0  0  0  0  0  0  0  0  0  0  0  0
   43.7535   36.6939   44.9413 H   0  0  0  0  0  0  0  0  0  0  0  0
   45.0422   36.7959   42.7904 H   0  0  0  0  0  0  0  0  0  0  0  0
   47.5876   34.2336   41.8845 H   0  0  0  0  0  0  0  0  0  0  0  0
   46.7741   35.7315   41.3582 H   0  0  0  0  0  0  0  0  0  0  0  0
   44.9851   30.4944   43.9669 H   0  0  0  0  0  0  0  0  0  0  0  0
   52.8015   32.4454   41.7915 H   0  0  0  0  0  0  0  0  0  0  0  0
  1  2  2  0
  2  3  1  0
  4  3  2  0
  5  4  1  0
  6  1  1  0
  6  5  2  0
  7 12  2  0
  8  7  1  0
  9  8  2  0
  9 10  1  0
 10 11  2  0
 11 12  1  0
 11  1  1  0
 13  9  1  0
 14  6  1  0
 15 14  1  0
 16 17  1  0
 16 15  2  0
 17 18  2  0
 18 14  1  0
 19 23  1  0
 19 17  1  0
 20 19  2  0
 21 20  1  0
 21 22  1  0
 22 23  2  0
 24 22  1  0
  2 25  1  0
  3 26  1  0
  4 27  1  0
  5 28  1  0
  7 29  1  0
  8 30  1  0
 13 31  1  0
 13 32  1  0
 15 33  1  0
 24 34  1  0
M  ISO  8  25  14  26  14  27  14  28  14  29  14  30  14  33  14  34   3
M  END
>  <minimizedAffinity>  (1) 
-5.98295307

>  <minimizedRMSD>  (1) 
0.193439215

$$$$
