
     RDKit          3D

 40 43  0  0  0  0  0  0  0  0999 V2000
   46.7480   32.4160   44.1150 C   0  0  0  0  0  0  0  0  0  0  0  0
   45.7400   33.3690   43.6480 C   0  0  0  0  0  0  0  0  0  0  0  0
   45.6720   34.5400   44.4140 C   0  0  0  0  0  0  0  0  0  0  0  0
   44.7670   35.5520   44.1050 C   0  0  0  0  0  0  0  0  0  0  0  0
   43.9700   35.3170   43.0200 N   0  0  0  0  0  0  0  0  0  0  0  0
   44.0530   34.1570   42.2800 C   0  0  0  0  0  0  0  0  0  0  0  0
   44.9240   33.2150   42.5990 N   0  0  0  0  0  0  0  0  0  0  0  0
   43.0470   34.2320   41.2370 C   0  0  0  0  0  0  0  0  0  0  0  0
   41.9130   33.4510   41.2100 C   0  0  0  0  0  0  0  0  0  0  0  0
   40.8820   33.4900   40.2990 C   0  0  0  0  0  0  0  0  0  0  0  0
   40.9710   34.4110   39.2860 C   0  0  0  0  0  0  0  0  0  0  0  0
   42.0780   35.2290   39.2490 C   0  0  0  0  0  0  0  0  0  0  0  0
   43.0620   35.1280   40.1940 C   0  0  0  0  0  0  0  0  0  0  0  0
   47.2050   31.4910   42.9910 C   0  0  0  0  0  0  0  0  0  0  0  0
   48.6240   31.3750   42.8670 N   0  0  0  0  0  0  0  0  0  0  0  0
   49.4620   30.3890   43.1570 N   0  0  0  0  0  0  0  0  0  0  0  0
   50.7250   30.6940   42.8870 C   0  0  0  0  0  0  0  0  0  0  0  0
   50.6860   31.9740   42.3860 C   0  0  0  0  0  0  0  0  0  0  0  0
   49.3430   32.3910   42.3810 C   0  0  0  0  0  0  0  0  0  0  0  0
   49.1380   33.7530   41.8710 C   0  0  0  0  0  0  0  0  0  0  0  0
   48.4780   34.1780   40.7500 C   0  0  0  0  0  0  0  0  0  0  0  0
   48.5470   35.5210   40.6460 N   0  0  0  0  0  0  0  0  0  0  0  0
   49.2420   35.9940   41.6810 C   0  0  0  0  0  0  0  0  0  0  0  0
   49.5620   34.9140   42.3630 N   0  0  0  0  0  0  0  0  0  0  0  0
   47.6171   32.9726   44.4957 H   0  0  0  0  0  0  0  0  0  0  0  0
   46.2997   31.8001   44.9085 H   0  0  0  0  0  0  0  0  0  0  0  0
   46.3456   34.6621   45.2750 H   0  0  0  0  0  0  0  0  0  0  0  0
   44.6982   36.4782   44.6944 H   0  0  0  0  0  0  0  0  0  0  0  0
   41.8200   32.7058   42.0138 H   0  0  0  0  0  0  0  0  0  0  0  0
   40.0212   32.8100   40.3799 H   0  0  0  0  0  0  0  0  0  0  0  0
   40.1808   34.4936   38.5253 H   0  0  0  0  0  0  0  0  0  0  0  0
   42.1727   35.9756   38.4468 H   0  0  0  0  0  0  0  0  0  0  0  0
   43.9224   35.8088   40.1142 H   0  0  0  0  0  0  0  0  0  0  0  0
   46.7923   30.4890   43.1798 H   0  0  0  0  0  0  0  0  0  0  0  0
   46.8410   31.9322   42.0514 H   0  0  0  0  0  0  0  0  0  0  0  0
   51.6118   30.0597   43.0326 H   0  0  0  0  0  0  0  0  0  0  0  0
   51.5502   32.5656   42.0495 H   0  0  0  0  0  0  0  0  0  0  0  0
   47.9643   33.5181   40.0354 H   0  0  0  0  0  0  0  0  0  0  0  0
   49.4899   37.0407   41.9111 H   0  0  0  0  0  0  0  0  0  0  0  0
   50.1121   34.9654   43.2323 H   0  0  0  0  0  0  0  0  0  0  0  0
  2  1  1  0
  2  3  2  0
  4  3  1  0
  5  4  2  0
  6  7  2  0
  6  5  1  0
  7  2  1  0
  8  6  1  0
  9  8  2  0
 10  9  1  0
 11 10  2  0
 12 11  1  0
 12 13  2  0
 13  8  1  0
 14  1  1  0
 15 14  1  0
 15 16  1  0
 17 16  2  0
 18 17  1  0
 19 18  2  0
 19 15  1  0
 20 24  1  0
 20 19  1  0
 21 20  2  0
 22 21  1  0
 22 23  2  0
 23 24  1  0
  1 25  1  0
  1 26  1  0
  3 27  1  0
  4 28  1  0
  9 29  1  0
 10 30  1  0
 11 31  1  0
 12 32  1  0
 13 33  1  0
 14 34  1  0
 14 35  1  0
 17 36  1  0
 18 37  1  0
 21 38  1  0
 23 39  1  0
 24 40  1  0
M  ISO  8  25   8  26   8  27  14  28  14  29  14  30  14  31  14  32  14
M  ISO  8  33  14  34   8  35   8  36  14  37  14  38  14  39  14  40   9
M  END
>  <minimizedAffinity>  (1) 
-5.05021715

>  <minimizedRMSD>  (1) 
2.37670636

$$$$
