
     RDKit          3D

 36 39  0  0  0  0  0  0  0  0999 V2000
   45.7300   32.9070   46.3070 C   0  0  0  0  0  0  0  0  0  0  0  0
   45.3490   33.0660   47.6280 C   0  0  0  0  0  0  0  0  0  0  0  0
   45.5230   32.0660   48.5370 C   0  0  0  0  0  0  0  0  0  0  0  0
   46.0800   30.8610   48.1820 C   0  0  0  0  0  0  0  0  0  0  0  0
   46.4480   30.7540   46.8280 C   0  0  0  0  0  0  0  0  0  0  0  0
   46.2990   31.7120   45.8880 C   0  0  0  0  0  0  0  0  0  0  0  0
   44.4870   35.9570   44.7320 C   0  0  0  0  0  0  0  0  0  0  0  0
   45.2110   36.0060   43.5290 C   0  0  0  0  0  0  0  0  0  0  0  0
   46.1190   34.9900   43.2730 C   0  0  0  0  0  0  0  0  0  0  0  0
   46.2640   33.9970   44.1980 N   0  0  0  0  0  0  0  0  0  0  0  0
   45.5340   33.9980   45.3520 C   0  0  0  0  0  0  0  0  0  0  0  0
   44.6480   34.9690   45.6250 N   0  0  0  0  0  0  0  0  0  0  0  0
   46.8780   34.9750   42.0890 N   0  0  0  0  0  0  0  0  0  0  0  0
   46.7090   31.4850   44.5570 N   0  0  0  0  0  0  0  0  0  0  0  0
   45.8530   30.8580   43.7250 C   0  0  0  0  0  0  0  0  0  0  0  0
   46.4330   30.7360   42.4970 N   0  0  0  0  0  0  0  0  0  0  0  0
   47.6670   31.3050   42.5940 C   0  0  0  0  0  0  0  0  0  0  0  0
   47.7950   31.7460   43.8550 N   0  0  0  0  0  0  0  0  0  0  0  0
   48.7570   31.4900   41.6410 C   0  0  0  0  0  0  0  0  0  0  0  0
   48.8850   32.1520   40.4710 N   0  0  0  0  0  0  0  0  0  0  0  0
   50.0840   31.9990   40.0120 O   0  0  0  0  0  0  0  0  0  0  0  0
   50.8010   31.2490   40.8280 C   0  0  0  0  0  0  0  0  0  0  0  0
   49.9840   30.9260   41.8450 N   0  0  0  0  0  0  0  0  0  0  0  0
   52.2330   30.8080   40.7070 C   0  0  0  0  0  0  0  0  0  0  0  0
   52.2480   29.8390   39.6960 F   0  0  0  0  0  0  0  0  0  0  0  0
   52.6500   30.1980   41.8600 F   0  0  0  0  0  0  0  0  0  0  0  0
   53.0350   31.8570   40.3090 F   0  0  0  0  0  0  0  0  0  0  0  0
   44.8978   34.0163   47.9497 H   0  0  0  0  0  0  0  0  0  0  0  0
   45.2103   32.2270   49.5793 H   0  0  0  0  0  0  0  0  0  0  0  0
   46.2271   30.0422   48.9016 H   0  0  0  0  0  0  0  0  0  0  0  0
   46.8981   29.8034   46.5059 H   0  0  0  0  0  0  0  0  0  0  0  0
   43.7632   36.7563   44.9491 H   0  0  0  0  0  0  0  0  0  0  0  0
   45.0619   36.8262   42.8114 H   0  0  0  0  0  0  0  0  0  0  0  0
   47.5477   34.2118   41.9162 H   0  0  0  0  0  0  0  0  0  0  0  0
   46.7641   35.7272   41.3947 H   0  0  0  0  0  0  0  0  0  0  0  0
   44.8476   30.5019   43.9939 H   0  0  0  0  0  0  0  0  0  0  0  0
  1  2  2  0
  2  3  1  0
  4  3  2  0
  5  4  1  0
  6  1  1  0
  6  5  2  0
  7 12  2  0
  8  7  1  0
  9  8  2  0
  9 10  1  0
 10 11  2  0
 11 12  1  0
 11  1  1  0
 13  9  1  0
 14  6  1  0
 15 14  1  0
 16 17  1  0
 16 15  2  0
 17 18  2  0
 18 14  1  0
 19 23  1  0
 19 17  1  0
 20 19  2  0
 21 20  1  0
 21 22  1  0
 22 23  2  0
 24 22  1  0
 24 26  1  0
 25 24  1  0
 27 24  1  0
  2 28  1  0
  3 29  1  0
  4 30  1  0
  5 31  1  0
  7 32  1  0
  8 33  1  0
 13 34  1  0
 13 35  1  0
 15 36  1  0
M  ISO  7  28  14  29  14  30  14  31  14  32  14  33  14  36  14
M  END
>  <minimizedAffinity>  (1) 
-5.59584188

>  <minimizedRMSD>  (1) 
0.76521045

$$$$
