
     RDKit          3D

 36 39  0  0  0  0  0  0  0  0999 V2000
   45.8170   32.8900   46.2820 C   0  0  0  0  0  0  0  0  0  0  0  0
   45.4700   33.0450   47.6110 C   0  0  0  0  0  0  0  0  0  0  0  0
   45.6810   32.0350   48.5170 C   0  0  0  0  0  0  0  0  0  0  0  0
   46.2430   30.8390   48.1420 C   0  0  0  0  0  0  0  0  0  0  0  0
   46.5720   30.7460   46.7840 C   0  0  0  0  0  0  0  0  0  0  0  0
   46.3860   31.7060   45.8490 C   0  0  0  0  0  0  0  0  0  0  0  0
   44.4870   35.9170   44.7450 C   0  0  0  0  0  0  0  0  0  0  0  0
   45.1840   35.9960   43.5320 C   0  0  0  0  0  0  0  0  0  0  0  0
   46.1100   34.9990   43.2580 C   0  0  0  0  0  0  0  0  0  0  0  0
   46.2880   34.0060   44.1760 N   0  0  0  0  0  0  0  0  0  0  0  0
   45.5830   33.9790   45.3390 C   0  0  0  0  0  0  0  0  0  0  0  0
   44.6780   34.9370   45.6260 N   0  0  0  0  0  0  0  0  0  0  0  0
   46.8490   35.0130   42.0580 N   0  0  0  0  0  0  0  0  0  0  0  0
   46.7630   31.4840   44.5050 N   0  0  0  0  0  0  0  0  0  0  0  0
   45.9110   30.8180   43.7060 C   0  0  0  0  0  0  0  0  0  0  0  0
   46.4560   30.7110   42.4660 N   0  0  0  0  0  0  0  0  0  0  0  0
   47.6640   31.3210   42.5080 C   0  0  0  0  0  0  0  0  0  0  0  0
   47.8220   31.7810   43.7620 N   0  0  0  0  0  0  0  0  0  0  0  0
   48.7200   31.5450   41.5250 C   0  0  0  0  0  0  0  0  0  0  0  0
   48.7300   31.9790   40.2460 N   0  0  0  0  0  0  0  0  0  0  0  0
   49.9410   32.0070   39.7940 O   0  0  0  0  0  0  0  0  0  0  0  0
   50.7730   31.6030   40.7280 C   0  0  0  0  0  0  0  0  0  0  0  0
   50.0310   31.3110   41.8150 N   0  0  0  0  0  0  0  0  0  0  0  0
   52.2410   31.5230   40.5160 C   0  0  0  0  0  0  0  0  0  0  0  0
   45.0188   33.9901   47.9473 H   0  0  0  0  0  0  0  0  0  0  0  0
   45.3932   32.1872   49.5677 H   0  0  0  0  0  0  0  0  0  0  0  0
   46.4207   30.0185   48.8528 H   0  0  0  0  0  0  0  0  0  0  0  0
   47.0248   29.8025   46.4452 H   0  0  0  0  0  0  0  0  0  0  0  0
   43.7497   36.6989   44.9797 H   0  0  0  0  0  0  0  0  0  0  0  0
   45.0040   36.8177   42.8232 H   0  0  0  0  0  0  0  0  0  0  0  0
   47.5334   34.2676   41.8659 H   0  0  0  0  0  0  0  0  0  0  0  0
   46.7047   35.7686   41.3731 H   0  0  0  0  0  0  0  0  0  0  0  0
   44.9298   30.4230   44.0079 H   0  0  0  0  0  0  0  0  0  0  0  0
   52.7512   31.4952   41.4901 H   0  0  0  0  0  0  0  0  0  0  0  0
   52.4806   30.6105   39.9504 H   0  0  0  0  0  0  0  0  0  0  0  0
   52.5784   32.4041   39.9504 H   0  0  0  0  0  0  0  0  0  0  0  0
  1  2  2  0
  2  3  1  0
  4  3  2  0
  5  4  1  0
  6  1  1  0
  6  5  2  0
  7 12  2  0
  8  7  1  0
  9  8  2  0
  9 10  1  0
 10 11  2  0
 11 12  1  0
 11  1  1  0
 13  9  1  0
 14  6  1  0
 15 14  1  0
 16 17  1  0
 16 15  2  0
 17 18  2  0
 18 14  1  0
 19 23  1  0
 19 17  1  0
 20 19  2  0
 21 20  1  0
 21 22  1  0
 22 23  2  0
 24 22  1  0
  2 25  1  0
  3 26  1  0
  4 27  1  0
  5 28  1  0
  7 29  1  0
  8 30  1  0
 13 31  1  0
 13 32  1  0
 15 33  1  0
 24 34  1  0
 24 35  1  0
 24 36  1  0
M  ISO  8  25  14  26  14  27  14  28  14  29  14  30  14  33  14  34   8
M  ISO  2  35   8  36   8
M  END
>  <minimizedAffinity>  (1) 
-5.55636263

>  <minimizedRMSD>  (1) 
0.389531076

$$$$
