
     RDKit          3D

 34 37  0  0  0  0  0  0  0  0999 V2000
   45.8150   32.9020   46.2820 C   0  0  0  0  0  0  0  0  0  0  0  0
   45.5060   33.0390   47.6170 C   0  0  0  0  0  0  0  0  0  0  0  0
   45.7270   32.0240   48.5090 C   0  0  0  0  0  0  0  0  0  0  0  0
   46.2640   30.8340   48.1060 C   0  0  0  0  0  0  0  0  0  0  0  0
   46.5630   30.7370   46.7410 C   0  0  0  0  0  0  0  0  0  0  0  0
   46.3620   31.7160   45.8190 C   0  0  0  0  0  0  0  0  0  0  0  0
   44.4580   35.9380   44.7920 C   0  0  0  0  0  0  0  0  0  0  0  0
   45.1490   36.0190   43.5650 C   0  0  0  0  0  0  0  0  0  0  0  0
   46.0690   35.0340   43.2670 C   0  0  0  0  0  0  0  0  0  0  0  0
   46.2670   34.0210   44.1800 N   0  0  0  0  0  0  0  0  0  0  0  0
   45.5730   33.9970   45.3420 C   0  0  0  0  0  0  0  0  0  0  0  0
   44.6760   34.9420   45.6510 N   0  0  0  0  0  0  0  0  0  0  0  0
   46.7930   35.0520   42.0650 N   0  0  0  0  0  0  0  0  0  0  0  0
   46.7050   31.4960   44.4690 N   0  0  0  0  0  0  0  0  0  0  0  0
   45.8480   30.8320   43.6850 C   0  0  0  0  0  0  0  0  0  0  0  0
   46.3680   30.7310   42.4300 N   0  0  0  0  0  0  0  0  0  0  0  0
   47.5630   31.3440   42.4510 C   0  0  0  0  0  0  0  0  0  0  0  0
   47.7610   31.8110   43.7080 N   0  0  0  0  0  0  0  0  0  0  0  0
   48.5990   31.5790   41.4540 C   0  0  0  0  0  0  0  0  0  0  0  0
   48.5950   32.1210   40.2130 N   0  0  0  0  0  0  0  0  0  0  0  0
   49.7950   32.1040   39.7190 O   0  0  0  0  0  0  0  0  0  0  0  0
   50.6330   31.5670   40.5780 C   0  0  0  0  0  0  0  0  0  0  0  0
   49.8980   31.2400   41.6530 N   0  0  0  0  0  0  0  0  0  0  0  0
   52.4010   31.3260   40.3480 S   0  0  0  0  0  0  0  0  0  0  0  0
   45.0722   33.9845   47.9745 H   0  0  0  0  0  0  0  0  0  0  0  0
   45.4678   32.1691   49.5681 H   0  0  0  0  0  0  0  0  0  0  0  0
   46.4493   30.0069   48.8071 H   0  0  0  0  0  0  0  0  0  0  0  0
   46.9963   29.7905   46.3855 H   0  0  0  0  0  0  0  0  0  0  0  0
   43.7219   36.7149   45.0461 H   0  0  0  0  0  0  0  0  0  0  0  0
   44.9597   36.8453   42.8640 H   0  0  0  0  0  0  0  0  0  0  0  0
   47.4746   34.3067   41.8632 H   0  0  0  0  0  0  0  0  0  0  0  0
   46.6428   35.8105   41.3846 H   0  0  0  0  0  0  0  0  0  0  0  0
   44.8750   30.4302   44.0041 H   0  0  0  0  0  0  0  0  0  0  0  0
   53.0134   31.2425   41.5707 H   0  0  0  0  0  0  0  0  0  0  0  0
  1  2  2  0
  2  3  1  0
  4  3  2  0
  5  4  1  0
  6  1  1  0
  6  5  2  0
  7 12  2  0
  8  7  1  0
  9  8  2  0
  9 10  1  0
 10 11  2  0
 11 12  1  0
 11  1  1  0
 13  9  1  0
 14  6  1  0
 15 14  1  0
 16 17  1  0
 16 15  2  0
 17 18  2  0
 18 14  1  0
 19 23  1  0
 19 17  1  0
 20 19  2  0
 21 20  1  0
 21 22  1  0
 22 23  2  0
 24 22  1  0
  2 25  1  0
  3 26  1  0
  4 27  1  0
  5 28  1  0
  7 29  1  0
  8 30  1  0
 13 31  1  0
 13 32  1  0
 15 33  1  0
 24 34  1  0
M  ISO  8  25  14  26  14  27  14  28  14  29  14  30  14  33  14  34  11
M  END
>  <minimizedAffinity>  (1) 
-5.51131821

>  <minimizedRMSD>  (1) 
0.516639888

$$$$
