
     RDKit          3D

 39 42  0  0  0  0  0  0  0  0999 V2000
   45.8210   32.8950   46.2790 C   0  0  0  0  0  0  0  0  0  0  0  0
   45.4920   33.0470   47.6080 C   0  0  0  0  0  0  0  0  0  0  0  0
   45.7050   32.0370   48.5100 C   0  0  0  0  0  0  0  0  0  0  0  0
   46.2580   30.8300   48.1200 C   0  0  0  0  0  0  0  0  0  0  0  0
   46.5720   30.7360   46.7530 C   0  0  0  0  0  0  0  0  0  0  0  0
   46.3790   31.7090   45.8230 C   0  0  0  0  0  0  0  0  0  0  0  0
   44.4710   35.9310   44.7550 C   0  0  0  0  0  0  0  0  0  0  0  0
   45.1750   35.9970   43.5470 C   0  0  0  0  0  0  0  0  0  0  0  0
   46.0970   35.0180   43.2590 C   0  0  0  0  0  0  0  0  0  0  0  0
   46.2850   34.0150   44.1750 N   0  0  0  0  0  0  0  0  0  0  0  0
   45.5830   33.9900   45.3300 C   0  0  0  0  0  0  0  0  0  0  0  0
   44.6800   34.9370   45.6270 N   0  0  0  0  0  0  0  0  0  0  0  0
   46.8380   35.0350   42.0520 N   0  0  0  0  0  0  0  0  0  0  0  0
   46.7390   31.4860   44.4780 N   0  0  0  0  0  0  0  0  0  0  0  0
   45.8950   30.8260   43.6920 C   0  0  0  0  0  0  0  0  0  0  0  0
   46.4200   30.7160   42.4430 N   0  0  0  0  0  0  0  0  0  0  0  0
   47.6190   31.3300   42.4750 C   0  0  0  0  0  0  0  0  0  0  0  0
   47.7930   31.7940   43.7280 N   0  0  0  0  0  0  0  0  0  0  0  0
   48.6800   31.5710   41.4910 C   0  0  0  0  0  0  0  0  0  0  0  0
   48.6740   32.0220   40.2160 N   0  0  0  0  0  0  0  0  0  0  0  0
   49.8920   32.0610   39.7560 O   0  0  0  0  0  0  0  0  0  0  0  0
   50.7270   31.6490   40.6780 C   0  0  0  0  0  0  0  0  0  0  0  0
   49.9890   31.3420   41.7570 N   0  0  0  0  0  0  0  0  0  0  0  0
   52.2220   31.5450   40.5380 C   0  0  0  0  0  0  0  0  0  0  0  0
   52.5510   31.3610   39.0710 C   0  0  0  0  0  0  0  0  0  0  0  0
   45.0511   33.9945   47.9511 H   0  0  0  0  0  0  0  0  0  0  0  0
   45.4310   32.1890   49.5644 H   0  0  0  0  0  0  0  0  0  0  0  0
   46.4383   30.0062   48.8263 H   0  0  0  0  0  0  0  0  0  0  0  0
   47.0134   29.7906   46.4045 H   0  0  0  0  0  0  0  0  0  0  0  0
   43.7321   36.7106   44.9923 H   0  0  0  0  0  0  0  0  0  0  0  0
   44.9936   36.8191   42.8390 H   0  0  0  0  0  0  0  0  0  0  0  0
   47.5233   34.2909   41.8579 H   0  0  0  0  0  0  0  0  0  0  0  0
   46.6916   35.7914   41.3684 H   0  0  0  0  0  0  0  0  0  0  0  0
   44.9183   30.4284   44.0050 H   0  0  0  0  0  0  0  0  0  0  0  0
   52.6955   32.4644   40.9128 H   0  0  0  0  0  0  0  0  0  0  0  0
   52.5986   30.6914   41.1207 H   0  0  0  0  0  0  0  0  0  0  0  0
   53.5073   30.8262   38.9740 H   0  0  0  0  0  0  0  0  0  0  0  0
   51.7539   30.7777   38.5868 H   0  0  0  0  0  0  0  0  0  0  0  0
   52.6307   32.3455   38.5868 H   0  0  0  0  0  0  0  0  0  0  0  0
  1  2  2  0
  2  3  1  0
  4  3  2  0
  5  4  1  0
  6  1  1  0
  6  5  2  0
  7 12  2  0
  8  7  1  0
  9  8  2  0
  9 10  1  0
 10 11  2  0
 11 12  1  0
 11  1  1  0
 13  9  1  0
 14  6  1  0
 15 14  1  0
 16 17  1  0
 16 15  2  0
 17 18  2  0
 18 14  1  0
 19 23  1  0
 19 17  1  0
 20 19  2  0
 21 20  1  0
 21 22  1  0
 22 23  2  0
 24 22  1  0
 25 24  1  0
  2 26  1  0
  3 27  1  0
  4 28  1  0
  5 29  1  0
  7 30  1  0
  8 31  1  0
 13 32  1  0
 13 33  1  0
 15 34  1  0
 24 35  1  0
 24 36  1  0
 25 37  1  0
 25 38  1  0
 25 39  1  0
M  ISO  8  26  14  27  14  28  14  29  14  30  14  31  14  34  14  35   8
M  ISO  4  36   8  37   8  38   8  39   8
M  END
>  <minimizedAffinity>  (1) 
-5.47798967

>  <minimizedRMSD>  (1) 
0.580890894

$$$$
