
     RDKit          3D

 42 45  0  0  0  0  0  0  0  0999 V2000
   46.4400   34.5650   43.4350 C   0  0  0  0  0  0  0  0  0  0  0  0
   46.0950   34.0130   44.6620 C   0  0  0  0  0  0  0  0  0  0  0  0
   45.0730   34.6110   45.3660 C   0  0  0  0  0  0  0  0  0  0  0  0
   44.4510   35.6980   44.8420 N   0  0  0  0  0  0  0  0  0  0  0  0
   44.7890   36.2220   43.6610 C   0  0  0  0  0  0  0  0  0  0  0  0
   45.7710   35.6660   42.9610 N   0  0  0  0  0  0  0  0  0  0  0  0
   47.5340   34.1050   42.5220 C   0  0  0  0  0  0  0  0  0  0  0  0
   48.3380   35.2190   41.9880 C   0  0  0  0  0  0  0  0  0  0  0  0
   48.5290   35.0630   40.5240 C   0  0  0  0  0  0  0  0  0  0  0  0
   47.4180   34.1700   40.1000 C   0  0  0  0  0  0  0  0  0  0  0  0
   46.8940   33.4290   41.2930 C   0  0  0  0  0  0  0  0  0  0  0  0
   46.8160   32.8660   45.0950 C   0  0  0  0  0  0  0  0  0  0  0  0
   46.6980   32.7200   46.6070 C   0  0  0  0  0  0  0  0  0  0  0  0
   47.2100   31.4080   46.9970 N   0  0  0  0  0  0  0  0  0  0  0  0
   46.8440   30.2530   46.3790 C   0  0  0  0  0  0  0  0  0  0  0  0
   47.4930   29.2140   46.9740 N   0  0  0  0  0  0  0  0  0  0  0  0
   48.2690   29.6920   47.9660 C   0  0  0  0  0  0  0  0  0  0  0  0
   49.1410   29.1960   48.9120 C   0  0  0  0  0  0  0  0  0  0  0  0
   49.7760   30.0010   49.7900 N   0  0  0  0  0  0  0  0  0  0  0  0
   49.5590   31.3250   49.7490 C   0  0  0  0  0  0  0  0  0  0  0  0
   48.7160   31.8430   48.8390 N   0  0  0  0  0  0  0  0  0  0  0  0
   48.0830   31.0600   47.9690 C   0  0  0  0  0  0  0  0  0  0  0  0
   49.3320   27.7830   48.9090 N   0  0  0  0  0  0  0  0  0  0  0  0
   44.7639   34.2116   46.3432 H   0  0  0  0  0  0  0  0  0  0  0  0
   44.2597   37.1045   43.2723 H   0  0  0  0  0  0  0  0  0  0  0  0
   48.1776   33.4354   43.1114 H   0  0  0  0  0  0  0  0  0  0  0  0
   47.8193   36.1684   42.1869 H   0  0  0  0  0  0  0  0  0  0  0  0
   49.3224   35.2165   42.4789 H   0  0  0  0  0  0  0  0  0  0  0  0
   48.4613   36.0366   40.0165 H   0  0  0  0  0  0  0  0  0  0  0  0
   49.5175   34.6520   40.2712 H   0  0  0  0  0  0  0  0  0  0  0  0
   46.6107   34.7725   39.6582 H   0  0  0  0  0  0  0  0  0  0  0  0
   47.7876   33.4515   39.3536 H   0  0  0  0  0  0  0  0  0  0  0  0
   45.7978   33.5064   41.3408 H   0  0  0  0  0  0  0  0  0  0  0  0
   47.1415   32.3583   41.2453 H   0  0  0  0  0  0  0  0  0  0  0  0
   46.4026   31.9702   44.6086 H   0  0  0  0  0  0  0  0  0  0  0  0
   47.8758   32.9806   44.8237 H   0  0  0  0  0  0  0  0  0  0  0  0
   47.2859   33.5076   47.1011 H   0  0  0  0  0  0  0  0  0  0  0  0
   45.6446   32.8141   46.9095 H   0  0  0  0  0  0  0  0  0  0  0  0
   46.1401   30.1715   45.5376 H   0  0  0  0  0  0  0  0  0  0  0  0
   50.0721   31.9876   50.4616 H   0  0  0  0  0  0  0  0  0  0  0  0
   49.9706   27.3482   49.5902 H   0  0  0  0  0  0  0  0  0  0  0  0
   48.8314   27.1971   48.2256 H   0  0  0  0  0  0  0  0  0  0  0  0
  1  2  1  0
  2 12  1  0
  2  3  2  0
  4  3  1  0
  5  4  2  0
  6  1  2  0
  6  5  1  0
  7  1  1  0
  8  7  1  0
  9  8  1  0
 10  9  1  0
 10 11  1  0
 11  7  1  0
 12 13  1  0
 13 14  1  0
 14 22  1  0
 15 16  2  0
 15 14  1  0
 16 17  1  0
 17 22  2  0
 17 18  1  0
 18 19  2  0
 20 19  1  0
 21 20  2  0
 22 21  1  0
 23 18  1  0
  3 24  1  0
  5 25  1  0
  7 26  1  0
  8 27  1  0
  8 28  1  0
  9 29  1  0
  9 30  1  0
 10 31  1  0
 10 32  1  0
 11 33  1  0
 11 34  1  0
 12 35  1  0
 12 36  1  0
 13 37  1  0
 13 38  1  0
 15 39  1  0
 20 40  1  0
 23 41  1  0
 23 42  1  0
M  ISO  8  24  14  25  14  26  13  27  13  28  13  29  13  30  13  31  13
M  ISO  8  32  13  33  13  34  13  35   8  36   8  37   8  38   8  39  14
M  ISO  1  40  14
M  END
>  <minimizedAffinity>  (1) 
-6.1264987

>  <minimizedRMSD>  (1) 
0.840203166

$$$$
