
     RDKit          3D

 39 41  0  0  0  0  0  0  0  0999 V2000
   46.2680   34.6250   43.4070 C   0  0  0  0  0  0  0  0  0  0  0  0
   45.8470   34.0880   44.6180 C   0  0  0  0  0  0  0  0  0  0  0  0
   44.8900   34.8020   45.3210 C   0  0  0  0  0  0  0  0  0  0  0  0
   44.4150   35.9670   44.8170 N   0  0  0  0  0  0  0  0  0  0  0  0
   44.8330   36.4690   43.6490 C   0  0  0  0  0  0  0  0  0  0  0  0
   45.7480   35.8100   42.9490 N   0  0  0  0  0  0  0  0  0  0  0  0
   47.3240   34.0630   42.4930 C   0  0  0  0  0  0  0  0  0  0  0  0
   48.2540   35.0990   42.0000 C   0  0  0  0  0  0  0  0  0  0  0  0
   48.4500   34.9230   40.5320 C   0  0  0  0  0  0  0  0  0  0  0  0
   47.2500   34.1460   40.0820 C   0  0  0  0  0  0  0  0  0  0  0  0
   46.6360   33.4610   41.2580 C   0  0  0  0  0  0  0  0  0  0  0  0
   46.4280   32.8490   45.0220 C   0  0  0  0  0  0  0  0  0  0  0  0
   46.9340   32.9790   46.4530 C   0  0  0  0  0  0  0  0  0  0  0  0
   46.2350   31.9200   47.2670 C   0  0  0  0  0  0  0  0  0  0  0  0
   45.9980   32.2530   48.5980 C   0  0  0  0  0  0  0  0  0  0  0  0
   45.3690   31.3920   49.4690 C   0  0  0  0  0  0  0  0  0  0  0  0
   44.9750   30.1580   48.9630 C   0  0  0  0  0  0  0  0  0  0  0  0
   45.2150   29.8290   47.6380 C   0  0  0  0  0  0  0  0  0  0  0  0
   45.8420   30.6940   46.7690 C   0  0  0  0  0  0  0  0  0  0  0  0
   44.5171   34.4247   46.2846 H   0  0  0  0  0  0  0  0  0  0  0  0
   44.4226   37.4178   43.2731 H   0  0  0  0  0  0  0  0  0  0  0  0
   47.8905   33.3183   43.0714 H   0  0  0  0  0  0  0  0  0  0  0  0
   47.8331   36.0958   42.1982 H   0  0  0  0  0  0  0  0  0  0  0  0
   49.2207   35.0039   42.5161 H   0  0  0  0  0  0  0  0  0  0  0  0
   48.4932   35.8988   40.0260 H   0  0  0  0  0  0  0  0  0  0  0  0
   49.3932   34.4089   40.2953 H   0  0  0  0  0  0  0  0  0  0  0  0
   46.5165   34.8309   39.6316 H   0  0  0  0  0  0  0  0  0  0  0  0
   47.5547   33.3965   39.3368 H   0  0  0  0  0  0  0  0  0  0  0  0
   45.5531   33.6513   41.2909 H   0  0  0  0  0  0  0  0  0  0  0  0
   46.7697   32.3703   41.2090 H   0  0  0  0  0  0  0  0  0  0  0  0
   45.6709   32.0527   44.9699 H   0  0  0  0  0  0  0  0  0  0  0  0
   47.2651   32.5970   44.3543 H   0  0  0  0  0  0  0  0  0  0  0  0
   48.0223   32.8222   46.4843 H   0  0  0  0  0  0  0  0  0  0  0  0
   46.7253   33.9822   46.8530 H   0  0  0  0  0  0  0  0  0  0  0  0
   46.3242   33.2370   48.9660 H   0  0  0  0  0  0  0  0  0  0  0  0
   45.1863   31.6678   50.5181 H   0  0  0  0  0  0  0  0  0  0  0  0
   44.4681   29.4362   49.6204 H   0  0  0  0  0  0  0  0  0  0  0  0
   44.8939   28.8440   47.2683 H   0  0  0  0  0  0  0  0  0  0  0  0
   46.0225   30.4188   45.7194 H   0  0  0  0  0  0  0  0  0  0  0  0
  1  2  1  0
  2 12  1  0
  2  3  2  0
  4  3  1  0
  5  4  2  0
  6  1  2  0
  6  5  1  0
  7  1  1  0
  8  7  1  0
  9  8  1  0
 10  9  1  0
 10 11  1  0
 11  7  1  0
 12 13  1  0
 13 14  1  0
 14 15  2  0
 15 16  1  0
 17 16  2  0
 18 17  1  0
 19 14  1  0
 19 18  2  0
  3 20  1  0
  5 21  1  0
  7 22  1  0
  8 23  1  0
  8 24  1  0
  9 25  1  0
  9 26  1  0
 10 27  1  0
 10 28  1  0
 11 29  1  0
 11 30  1  0
 12 31  1  0
 12 32  1  0
 13 33  1  0
 13 34  1  0
 15 35  1  0
 16 36  1  0
 17 37  1  0
 18 38  1  0
 19 39  1  0
M  ISO  8  20  14  21  14  22  13  23  13  24  13  25  13  26  13  27  13
M  ISO  8  28  13  29  13  30  13  31   8  32   8  33   8  34   8  35  14
M  ISO  4  36  14  37  14  38  14  39  14
M  END
>  <minimizedAffinity>  (1) 
-6.00214863

>  <minimizedRMSD>  (1) 
1.85658467

$$$$
