
     RDKit          3D

 36 38  0  0  0  0  0  0  0  0999 V2000
   46.3110   34.3860   43.7320 C   0  0  0  0  0  0  0  0  0  0  0  0
   46.0300   33.8450   44.9820 C   0  0  0  0  0  0  0  0  0  0  0  0
   45.0720   34.4790   45.7460 C   0  0  0  0  0  0  0  0  0  0  0  0
   44.4530   35.5800   45.2560 N   0  0  0  0  0  0  0  0  0  0  0  0
   44.7280   36.0920   44.0570 C   0  0  0  0  0  0  0  0  0  0  0  0
   45.6460   35.5060   43.2950 N   0  0  0  0  0  0  0  0  0  0  0  0
   47.3240   33.9050   42.7530 C   0  0  0  0  0  0  0  0  0  0  0  0
   48.2500   34.9670   42.3080 C   0  0  0  0  0  0  0  0  0  0  0  0
   48.4400   34.8750   40.8370 C   0  0  0  0  0  0  0  0  0  0  0  0
   47.2010   34.2070   40.3560 C   0  0  0  0  0  0  0  0  0  0  0  0
   46.6060   33.4050   41.4880 C   0  0  0  0  0  0  0  0  0  0  0  0
   46.7450   32.6750   45.3690 C   0  0  0  0  0  0  0  0  0  0  0  0
   46.8820   32.6360   46.8840 C   0  0  0  0  0  0  0  0  0  0  0  0
   46.2120   31.4050   47.4630 C   0  0  0  0  0  0  0  0  0  0  0  0
   45.0220   31.7020   48.3890 C   0  0  0  0  0  0  0  0  0  0  0  0
   46.2960   31.0820   48.8940 C   0  0  0  0  0  0  0  0  0  0  0  0
   44.8132   34.0942   46.7435 H   0  0  0  0  0  0  0  0  0  0  0  0
   44.2011   36.9898   43.7016 H   0  0  0  0  0  0  0  0  0  0  0  0
   47.8961   33.1173   43.2651 H   0  0  0  0  0  0  0  0  0  0  0  0
   47.8288   35.9508   42.5624 H   0  0  0  0  0  0  0  0  0  0  0  0
   49.2201   34.8418   42.8113 H   0  0  0  0  0  0  0  0  0  0  0  0
   48.5425   35.8760   40.3925 H   0  0  0  0  0  0  0  0  0  0  0  0
   49.3521   34.3254   40.5611 H   0  0  0  0  0  0  0  0  0  0  0  0
   46.4784   34.9660   40.0217 H   0  0  0  0  0  0  0  0  0  0  0  0
   47.4399   33.5414   39.5134 H   0  0  0  0  0  0  0  0  0  0  0  0
   45.5233   33.5851   41.5616 H   0  0  0  0  0  0  0  0  0  0  0  0
   46.7368   32.3229   41.3400 H   0  0  0  0  0  0  0  0  0  0  0  0
   46.1989   31.7831   45.0281 H   0  0  0  0  0  0  0  0  0  0  0  0
   47.7458   32.6918   44.9128 H   0  0  0  0  0  0  0  0  0  0  0  0
   47.9499   32.6209   47.1476 H   0  0  0  0  0  0  0  0  0  0  0  0
   46.3924   33.5282   47.3014 H   0  0  0  0  0  0  0  0  0  0  0  0
   46.4200   30.8117   46.5604 H   0  0  0  0  0  0  0  0  0  0  0  0
   44.7666   32.7394   48.6508 H   0  0  0  0  0  0  0  0  0  0  0  0
   43.9533   31.4422   48.4111 H   0  0  0  0  0  0  0  0  0  0  0  0
   46.2988   30.0298   49.2147 H   0  0  0  0  0  0  0  0  0  0  0  0
   47.0054   31.3374   49.6950 H   0  0  0  0  0  0  0  0  0  0  0  0
  1  2  1  0
  2 12  1  0
  2  3  2  0
  4  3  1  0
  5  4  2  0
  6  1  2  0
  6  5  1  0
  7  1  1  0
  8  7  1  0
  9  8  1  0
 10  9  1  0
 10 11  1  0
 11  7  1  0
 12 13  1  0
 13 14  1  0
 14 15  1  0
 14 16  1  0
 15 16  1  0
  3 17  1  0
  5 18  1  0
  7 19  1  0
  8 20  1  0
  8 21  1  0
  9 22  1  0
  9 23  1  0
 10 24  1  0
 10 25  1  0
 11 26  1  0
 11 27  1  0
 12 28  1  0
 12 29  1  0
 13 30  1  0
 13 31  1  0
 14 32  1  0
 15 33  1  0
 15 34  1  0
 16 35  1  0
 16 36  1  0
M  ISO  8  17  14  18  14  19  13  20  13  21  13  22  13  23  13  24  13
M  ISO  8  25  13  26  13  27  13  28   8  29   8  30   8  31   8  32  13
M  ISO  4  33  13  34  13  35  13  36  13
M  END
>  <minimizedAffinity>  (1) 
-5.12782288

>  <minimizedRMSD>  (1) 
1.39924467

$$$$
