
     RDKit          3D

 41 43  0  0  0  0  0  0  0  0999 V2000
   46.2390   34.6100   41.6900 C   0  0  0  0  0  0  0  0  0  0  0  0
   45.1940   34.1890   40.8800 C   0  0  0  0  0  0  0  0  0  0  0  0
   43.9210   34.6160   41.1930 C   0  0  0  0  0  0  0  0  0  0  0  0
   43.7480   35.4250   42.2730 N   0  0  0  0  0  0  0  0  0  0  0  0
   44.7580   35.8230   43.0440 C   0  0  0  0  0  0  0  0  0  0  0  0
   45.9970   35.4260   42.7640 N   0  0  0  0  0  0  0  0  0  0  0  0
   47.6900   34.2330   41.5460 C   0  0  0  0  0  0  0  0  0  0  0  0
   48.3460   34.0500   42.8520 C   0  0  0  0  0  0  0  0  0  0  0  0
   49.6780   34.7330   42.8240 C   0  0  0  0  0  0  0  0  0  0  0  0
   49.5190   35.8080   41.7920 C   0  0  0  0  0  0  0  0  0  0  0  0
   48.4280   35.3950   40.8540 C   0  0  0  0  0  0  0  0  0  0  0  0
   45.5320   33.3270   39.7840 C   0  0  0  0  0  0  0  0  0  0  0  0
   44.3240   33.1650   38.8800 C   0  0  0  0  0  0  0  0  0  0  0  0
   43.9220   31.8110   38.6850 N   0  0  0  0  0  0  0  0  0  0  0  0
   43.6420   31.6300   37.2770 C   0  0  0  0  0  0  0  0  0  0  0  0
   44.0780   30.2530   36.9070 C   0  0  0  0  0  0  0  0  0  0  0  0
   44.9610   29.7690   38.0150 C   0  0  0  0  0  0  0  0  0  0  0  0
   44.8870   30.8380   39.0690 C   0  0  0  0  0  0  0  0  0  0  0  0
   43.0607   34.3081   40.5805 H   0  0  0  0  0  0  0  0  0  0  0  0
   44.5692   36.4768   43.9082 H   0  0  0  0  0  0  0  0  0  0  0  0
   47.7317   33.2928   40.9766 H   0  0  0  0  0  0  0  0  0  0  0  0
   47.7218   34.4897   43.6439 H   0  0  0  0  0  0  0  0  0  0  0  0
   48.4807   32.9773   43.0550 H   0  0  0  0  0  0  0  0  0  0  0  0
   49.9142   35.1675   43.8066 H   0  0  0  0  0  0  0  0  0  0  0  0
   50.5008   34.0418   42.5888 H   0  0  0  0  0  0  0  0  0  0  0  0
   49.2516   36.7568   42.2802 H   0  0  0  0  0  0  0  0  0  0  0  0
   50.4609   35.9502   41.2418 H   0  0  0  0  0  0  0  0  0  0  0  0
   48.8535   35.0611   39.8962 H   0  0  0  0  0  0  0  0  0  0  0  0
   47.7473   36.2309   40.6348 H   0  0  0  0  0  0  0  0  0  0  0  0
   46.3618   33.7682   39.2123 H   0  0  0  0  0  0  0  0  0  0  0  0
   45.8367   32.3432   40.1704 H   0  0  0  0  0  0  0  0  0  0  0  0
   43.4821   33.7148   39.3261 H   0  0  0  0  0  0  0  0  0  0  0  0
   44.6108   33.5567   37.8929 H   0  0  0  0  0  0  0  0  0  0  0  0
   42.5641   31.7455   37.0905 H   0  0  0  0  0  0  0  0  0  0  0  0
   44.1765   32.3804   36.6760 H   0  0  0  0  0  0  0  0  0  0  0  0
   43.2037   29.5935   36.8034 H   0  0  0  0  0  0  0  0  0  0  0  0
   44.6128   30.2522   35.9458 H   0  0  0  0  0  0  0  0  0  0  0  0
   44.5942   28.8104   38.4106 H   0  0  0  0  0  0  0  0  0  0  0  0
   45.9926   29.5961   37.6747 H   0  0  0  0  0  0  0  0  0  0  0  0
   45.8709   31.3182   39.1750 H   0  0  0  0  0  0  0  0  0  0  0  0
   44.5952   30.3887   40.0297 H   0  0  0  0  0  0  0  0  0  0  0  0
  1  6  2  0
  2  3  2  0
  2  1  1  0
  3  4  1  0
  4  5  2  0
  6  5  1  0
  7  1  1  0
  7  8  1  0
  9  8  1  0
 10  9  1  0
 11  7  1  0
 11 10  1  0
 12  2  1  0
 13 12  1  0
 14 13  1  0
 14 18  1  0
 15 14  1  0
 16 15  1  0
 16 17  1  0
 17 18  1  0
  3 19  1  0
  5 20  1  0
  7 21  1  0
  8 22  1  0
  8 23  1  0
  9 24  1  0
  9 25  1  0
 10 26  1  0
 10 27  1  0
 11 28  1  0
 11 29  1  0
 12 30  1  0
 12 31  1  0
 13 32  1  0
 13 33  1  0
 15 34  1  0
 15 35  1  0
 16 36  1  0
 16 37  1  0
 17 38  1  0
 17 39  1  0
 18 40  1  0
 18 41  1  0
M  ISO  8  19  14  20  14  21  13  22  13  23  13  24  13  25  13  26  13
M  ISO  8  27  13  28  13  29  13  30   8  31   8  32   8  33   8  34  13
M  ISO  7  35  13  36  13  37  13  38  13  39  13  40  13  41  13
M  END
>  <minimizedAffinity>  (1) 
-4.24320126

>  <minimizedRMSD>  (1) 
6.71742773

$$$$
