
     RDKit          3D

 31 33  0  0  0  0  0  0  0  0999 V2000
   47.3840   31.5290   43.4360 C   0  0  0  0  0  0  0  0  0  0  0  0
   48.7600   31.3550   43.1100 N   0  0  0  0  0  0  0  0  0  0  0  0
   49.5990   30.3480   43.2970 N   0  0  0  0  0  0  0  0  0  0  0  0
   50.8210   30.6110   42.8270 C   0  0  0  0  0  0  0  0  0  0  0  0
   50.7440   31.8810   42.3060 C   0  0  0  0  0  0  0  0  0  0  0  0
   49.4300   32.3370   42.4940 C   0  0  0  0  0  0  0  0  0  0  0  0
   49.1930   33.6920   41.9820 C   0  0  0  0  0  0  0  0  0  0  0  0
   48.4660   34.0850   40.8650 C   0  0  0  0  0  0  0  0  0  0  0  0
   48.4820   35.4170   40.7230 N   0  0  0  0  0  0  0  0  0  0  0  0
   49.2200   35.9250   41.7450 C   0  0  0  0  0  0  0  0  0  0  0  0
   49.6140   34.8690   42.4550 N   0  0  0  0  0  0  0  0  0  0  0  0
   47.1530   32.2520   44.7820 C   0  0  0  0  0  0  0  0  0  0  0  0
   46.1990   33.3550   44.6120 C   0  0  0  0  0  0  0  0  0  0  0  0
   45.6850   33.8590   45.8000 C   0  0  0  0  0  0  0  0  0  0  0  0
   44.7650   34.9090   45.8150 C   0  0  0  0  0  0  0  0  0  0  0  0
   44.4060   35.4040   44.5880 N   0  0  0  0  0  0  0  0  0  0  0  0
   44.9190   34.8970   43.4460 C   0  0  0  0  0  0  0  0  0  0  0  0
   45.7970   33.8920   43.4760 N   0  0  0  0  0  0  0  0  0  0  0  0
   44.3730   35.6270   41.9160 S   0  0  0  0  0  0  0  0  0  0  0  0
   46.9111   30.5372   43.4885 H   0  0  0  0  0  0  0  0  0  0  0  0
   46.9443   32.1616   42.6508 H   0  0  0  0  0  0  0  0  0  0  0  0
   51.7014   29.9520   42.8515 H   0  0  0  0  0  0  0  0  0  0  0  0
   51.5634   32.4384   41.8286 H   0  0  0  0  0  0  0  0  0  0  0  0
   47.9456   33.3932   40.1864 H   0  0  0  0  0  0  0  0  0  0  0  0
   49.4443   36.9834   41.9437 H   0  0  0  0  0  0  0  0  0  0  0  0
   50.1963   34.9528   43.3005 H   0  0  0  0  0  0  0  0  0  0  0  0
   46.7524   31.5357   45.5144 H   0  0  0  0  0  0  0  0  0  0  0  0
   48.1108   32.6596   45.1377 H   0  0  0  0  0  0  0  0  0  0  0  0
   46.0114   33.4193   46.7540 H   0  0  0  0  0  0  0  0  0  0  0  0
   44.3543   35.3134   46.7519 H   0  0  0  0  0  0  0  0  0  0  0  0
   43.5684   36.7028   42.1848 H   0  0  0  0  0  0  0  0  0  0  0  0
  1 12  1  0
  2  3  1  0
  2  1  1  0
  4  3  2  0
  5  6  2  0
  5  4  1  0
  6  2  1  0
  7 11  1  0
  7  6  1  0
  8  7  2  0
  9  8  1  0
  9 10  2  0
 10 11  1  0
 13 12  1  0
 13 14  2  0
 14 15  1  0
 16 15  2  0
 17 18  2  0
 17 16  1  0
 18 13  1  0
 19 17  1  0
  1 20  1  0
  1 21  1  0
  4 22  1  0
  5 23  1  0
  8 24  1  0
 10 25  1  0
 11 26  1  0
 12 27  1  0
 12 28  1  0
 14 29  1  0
 15 30  1  0
 19 31  1  0
M  ISO  8  20   8  21   8  22  14  23  14  24  14  25  14  26   9  27   8
M  ISO  4  28   8  29  14  30  14  31  11
M  END
>  <minimizedAffinity>  (1) 
-4.33828497

>  <minimizedRMSD>  (1) 
0.565426826

$$$$
