
     RDKit          3D

 46 48  0  0  0  0  0  0  0  0999 V2000
   46.4220   34.6080   43.4260 C   0  0  0  0  0  0  0  0  0  0  0  0
   46.1060   34.0860   44.6660 C   0  0  0  0  0  0  0  0  0  0  0  0
   45.0960   34.6650   45.3810 C   0  0  0  0  0  0  0  0  0  0  0  0
   44.4310   35.7340   44.8470 N   0  0  0  0  0  0  0  0  0  0  0  0
   44.7400   36.2370   43.6370 C   0  0  0  0  0  0  0  0  0  0  0  0
   45.7270   35.6840   42.9270 N   0  0  0  0  0  0  0  0  0  0  0  0
   47.5400   34.1830   42.5390 C   0  0  0  0  0  0  0  0  0  0  0  0
   48.3000   35.2890   41.9630 C   0  0  0  0  0  0  0  0  0  0  0  0
   48.5260   35.0800   40.5190 C   0  0  0  0  0  0  0  0  0  0  0  0
   47.4290   34.1760   40.1070 C   0  0  0  0  0  0  0  0  0  0  0  0
   46.8870   33.4630   41.3050 C   0  0  0  0  0  0  0  0  0  0  0  0
   46.7880   32.9600   45.1260 C   0  0  0  0  0  0  0  0  0  0  0  0
   46.1800   32.3560   46.3880 C   0  0  0  0  0  0  0  0  0  0  0  0
   47.0180   31.5230   47.1240 N   0  0  0  0  0  0  0  0  0  0  0  0
   47.8440   31.6490   48.1750 C   0  0  0  0  0  0  0  0  0  0  0  0
   48.5590   30.6460   48.7460 C   0  0  0  0  0  0  0  0  0  0  0  0
   48.4780   29.3690   48.2610 C   0  0  0  0  0  0  0  0  0  0  0  0
   49.2330   28.3810   48.9630 N   0  0  0  0  0  0  0  0  0  0  0  0
   47.6740   29.1740   47.2120 N   0  0  0  0  0  0  0  0  0  0  0  0
   46.9850   30.2410   46.6900 C   0  0  0  0  0  0  0  0  0  0  0  0
   46.2950   29.8180   45.7170 O   0  0  0  0  0  0  0  0  0  0  0  0
   49.4260   30.9740   49.9100 C   0  0  0  0  0  0  0  0  0  0  0  0
   50.3760   32.1000   49.6620 C   0  0  0  0  0  0  0  0  0  0  0  0
   44.8214   34.2765   46.3728 H   0  0  0  0  0  0  0  0  0  0  0  0
   44.1837   37.0971   43.2360 H   0  0  0  0  0  0  0  0  0  0  0  0
   48.2175   33.5702   43.1517 H   0  0  0  0  0  0  0  0  0  0  0  0
   47.7397   36.2245   42.1078 H   0  0  0  0  0  0  0  0  0  0  0  0
   49.2765   35.3430   42.4664 H   0  0  0  0  0  0  0  0  0  0  0  0
   48.4713   36.0337   39.9735 H   0  0  0  0  0  0  0  0  0  0  0  0
   49.5202   34.6611   40.3044 H   0  0  0  0  0  0  0  0  0  0  0  0
   46.6269   34.7645   39.6377 H   0  0  0  0  0  0  0  0  0  0  0  0
   47.8151   33.4386   39.3878 H   0  0  0  0  0  0  0  0  0  0  0  0
   45.7910   33.5493   41.3428 H   0  0  0  0  0  0  0  0  0  0  0  0
   47.1186   32.3878   41.2848 H   0  0  0  0  0  0  0  0  0  0  0  0
   46.7756   32.1971   44.3336 H   0  0  0  0  0  0  0  0  0  0  0  0
   47.8094   33.2804   45.3793 H   0  0  0  0  0  0  0  0  0  0  0  0
   45.8674   33.1836   47.0418 H   0  0  0  0  0  0  0  0  0  0  0  0
   45.3508   31.7195   46.0457 H   0  0  0  0  0  0  0  0  0  0  0  0
   47.9508   32.6529   48.6117 H   0  0  0  0  0  0  0  0  0  0  0  0
   49.2153   27.4001   48.6491 H   0  0  0  0  0  0  0  0  0  0  0  0
   49.7953   28.6492   49.7832 H   0  0  0  0  0  0  0  0  0  0  0  0
   48.7793   31.2472   50.7568 H   0  0  0  0  0  0  0  0  0  0  0  0
   50.0363   30.0818   50.1136 H   0  0  0  0  0  0  0  0  0  0  0  0
   50.7202   32.5079   50.6238 H   0  0  0  0  0  0  0  0  0  0  0  0
   51.2401   31.7314   49.0898 H   0  0  0  0  0  0  0  0  0  0  0  0
   49.8672   32.8897   49.0898 H   0  0  0  0  0  0  0  0  0  0  0  0
  1  2  1  0
  2 12  1  0
  2  3  2  0
  4  3  1  0
  5  4  2  0
  6  1  2  0
  6  5  1  0
  7  1  1  0
  8  7  1  0
  9  8  1  0
 10  9  1  0
 10 11  1  0
 11  7  1  0
 12 13  1  0
 13 14  1  0
 14 15  1  0
 15 16  2  0
 16 22  1  0
 17 16  1  0
 17 18  1  0
 19 17  2  0
 20 14  1  0
 20 19  1  0
 21 20  2  0
 23 22  1  0
  3 24  1  0
  5 25  1  0
  7 26  1  0
  8 27  1  0
  8 28  1  0
  9 29  1  0
  9 30  1  0
 10 31  1  0
 10 32  1  0
 11 33  1  0
 11 34  1  0
 12 35  1  0
 12 36  1  0
 13 37  1  0
 13 38  1  0
 15 39  1  0
 18 40  1  0
 18 41  1  0
 22 42  1  0
 22 43  1  0
 23 44  1  0
 23 45  1  0
 23 46  1  0
M  ISO  8  24  14  25  14  26  13  27  13  28  13  29  13  30  13  31  13
M  ISO  8  32  13  33  13  34  13  35   8  36   8  37   8  38   8  39  14
M  ISO  5  42   8  43   8  44   8  45   8  46   8
M  END
>  <minimizedAffinity>  (1) 
-6.02635145

>  <minimizedRMSD>  (1) 
0.990070283

$$$$
