
     RDKit          3D

 41 43  0  0  0  0  0  0  0  0999 V2000
   46.4760   34.5740   43.3730 C   0  0  0  0  0  0  0  0  0  0  0  0
   46.1560   34.0210   44.5930 C   0  0  0  0  0  0  0  0  0  0  0  0
   45.1440   34.5790   45.3260 C   0  0  0  0  0  0  0  0  0  0  0  0
   44.4830   35.6620   44.8230 N   0  0  0  0  0  0  0  0  0  0  0  0
   44.7930   36.2000   43.6300 C   0  0  0  0  0  0  0  0  0  0  0  0
   45.7790   35.6690   42.9050 N   0  0  0  0  0  0  0  0  0  0  0  0
   47.5980   34.1820   42.4770 C   0  0  0  0  0  0  0  0  0  0  0  0
   48.3240   35.3100   41.8990 C   0  0  0  0  0  0  0  0  0  0  0  0
   48.5350   35.1110   40.4490 C   0  0  0  0  0  0  0  0  0  0  0  0
   47.4650   34.1780   40.0470 C   0  0  0  0  0  0  0  0  0  0  0  0
   46.9440   33.4510   41.2460 C   0  0  0  0  0  0  0  0  0  0  0  0
   46.8410   32.8890   45.0290 C   0  0  0  0  0  0  0  0  0  0  0  0
   46.1670   32.1900   46.2110 C   0  0  0  0  0  0  0  0  0  0  0  0
   47.0210   31.5200   47.0720 N   0  0  0  0  0  0  0  0  0  0  0  0
   47.7510   31.8070   48.1650 C   0  0  0  0  0  0  0  0  0  0  0  0
   48.5310   30.9370   48.8730 C   0  0  0  0  0  0  0  0  0  0  0  0
   48.6310   29.6270   48.4910 C   0  0  0  0  0  0  0  0  0  0  0  0
   49.4650   28.8100   49.2950 N   0  0  0  0  0  0  0  0  0  0  0  0
   47.9300   29.2650   47.4060 N   0  0  0  0  0  0  0  0  0  0  0  0
   47.1690   30.2040   46.7530 C   0  0  0  0  0  0  0  0  0  0  0  0
   46.6050   29.6300   45.7820 O   0  0  0  0  0  0  0  0  0  0  0  0
   49.1960   31.4780   49.9790 O   0  0  0  0  0  0  0  0  0  0  0  0
   44.8676   34.1612   46.3053 H   0  0  0  0  0  0  0  0  0  0  0  0
   44.2373   37.0719   43.2546 H   0  0  0  0  0  0  0  0  0  0  0  0
   48.3000   33.5856   43.0782 H   0  0  0  0  0  0  0  0  0  0  0  0
   47.7435   36.2311   42.0559 H   0  0  0  0  0  0  0  0  0  0  0  0
   49.3049   35.3873   42.3908 H   0  0  0  0  0  0  0  0  0  0  0  0
   48.4437   36.0644   39.9079 H   0  0  0  0  0  0  0  0  0  0  0  0
   49.5382   34.7218   40.2209 H   0  0  0  0  0  0  0  0  0  0  0  0
   46.6455   34.7432   39.5790 H   0  0  0  0  0  0  0  0  0  0  0  0
   47.8715   33.4489   39.3307 H   0  0  0  0  0  0  0  0  0  0  0  0
   45.8471   33.5186   41.2935 H   0  0  0  0  0  0  0  0  0  0  0  0
   47.1911   32.3794   41.2209 H   0  0  0  0  0  0  0  0  0  0  0  0
   46.9056   32.1768   44.1932 H   0  0  0  0  0  0  0  0  0  0  0  0
   47.8330   33.2204   45.3698 H   0  0  0  0  0  0  0  0  0  0  0  0
   45.6277   32.9519   46.7930 H   0  0  0  0  0  0  0  0  0  0  0  0
   45.5126   31.4210   45.7747 H   0  0  0  0  0  0  0  0  0  0  0  0
   47.7164   32.8460   48.5246 H   0  0  0  0  0  0  0  0  0  0  0  0
   49.5859   27.8133   49.0649 H   0  0  0  0  0  0  0  0  0  0  0  0
   49.9501   29.2130   50.1093 H   0  0  0  0  0  0  0  0  0  0  0  0
   49.7781   30.9031   50.5365 H   0  0  0  0  0  0  0  0  0  0  0  0
  1  2  1  0
  2 12  1  0
  2  3  2  0
  4  3  1  0
  5  4  2  0
  6  1  2  0
  6  5  1  0
  7  1  1  0
  8  7  1  0
  9  8  1  0
 10  9  1  0
 10 11  1  0
 11  7  1  0
 12 13  1  0
 13 14  1  0
 14 15  1  0
 15 16  2  0
 16 22  1  0
 17 16  1  0
 17 18  1  0
 19 17  2  0
 20 14  1  0
 20 19  1  0
 21 20  2  0
  3 23  1  0
  5 24  1  0
  7 25  1  0
  8 26  1  0
  8 27  1  0
  9 28  1  0
  9 29  1  0
 10 30  1  0
 10 31  1  0
 11 32  1  0
 11 33  1  0
 12 34  1  0
 12 35  1  0
 13 36  1  0
 13 37  1  0
 15 38  1  0
 18 39  1  0
 18 40  1  0
 22 41  1  0
M  ISO  8  23  14  24  14  25  13  26  13  27  13  28  13  29  13  30  13
M  ISO  8  31  13  32  13  33  13  34   8  35   8  36   8  37   8  38  14
M  ISO  1  41   3
M  END
>  <minimizedAffinity>  (1) 
-6.12342405

>  <minimizedRMSD>  (1) 
0.75466013

$$$$
