
     RDKit          3D

 39 42  0  0  1  0  0  0  0  0999 V2000
   47.3950   34.1310   41.6750 C   0  0  1  0  0  0  0  0  0  0  0  0
   48.2200   35.1760   40.9520 C   0  0  0  0  0  0  0  0  0  0  0  0
   49.2680   35.8030   41.8020 C   0  0  0  0  0  0  0  0  0  0  0  0
   50.1660   34.8280   42.5030 C   0  0  0  0  0  0  0  0  0  0  0  0
   49.5230   33.4680   42.5930 C   0  0  0  0  0  0  0  0  0  0  0  0
   48.0650   33.7130   42.9510 C   0  0  2  0  0  0  0  0  0  0  0  0
   43.6860   34.5930   41.2030 C   0  0  0  0  0  0  0  0  0  0  0  0
   44.9920   34.1720   40.9400 C   0  0  0  0  0  0  0  0  0  0  0  0
   45.9960   34.5550   41.8650 C   0  0  0  0  0  0  0  0  0  0  0  0
   45.6350   35.2920   42.9300 N   0  0  0  0  0  0  0  0  0  0  0  0
   44.3440   35.6920   43.1670 C   0  0  0  0  0  0  0  0  0  0  0  0
   43.3830   35.3300   42.2890 N   0  0  0  0  0  0  0  0  0  0  0  0
   47.4690   32.5230   43.5200 N   0  0  0  0  0  0  0  0  0  0  0  0
   47.4140   31.3510   42.8800 C   0  0  0  0  0  0  0  0  0  0  0  0
   46.7980   30.4180   43.6600 N   0  0  0  0  0  0  0  0  0  0  0  0
   46.4820   31.0490   44.7870 C   0  0  0  0  0  0  0  0  0  0  0  0
   45.8610   30.7110   45.9710 C   0  0  0  0  0  0  0  0  0  0  0  0
   45.6620   31.5610   46.9740 N   0  0  0  0  0  0  0  0  0  0  0  0
   46.0870   32.8370   46.8490 C   0  0  0  0  0  0  0  0  0  0  0  0
   46.7010   33.2450   45.7260 N   0  0  0  0  0  0  0  0  0  0  0  0
   46.8880   32.3640   44.7300 C   0  0  0  0  0  0  0  0  0  0  0  0
   45.3900   29.3860   46.1720 N   0  0  0  0  0  0  0  0  0  0  0  0
   47.3414   33.2387   41.0340 H   0  0  0  0  0  0  0  0  0  0  0  0
   48.7109   34.6971   40.0919 H   0  0  0  0  0  0  0  0  0  0  0  0
   47.5301   35.9772   40.6485 H   0  0  0  0  0  0  0  0  0  0  0  0
   49.8910   36.4448   41.1617 H   0  0  0  0  0  0  0  0  0  0  0  0
   48.7397   36.3625   42.5880 H   0  0  0  0  0  0  0  0  0  0  0  0
   51.1100   34.7431   41.9447 H   0  0  0  0  0  0  0  0  0  0  0  0
   50.3525   35.1951   43.5230 H   0  0  0  0  0  0  0  0  0  0  0  0
   49.5964   32.9464   41.6273 H   0  0  0  0  0  0  0  0  0  0  0  0
   50.0206   32.8374   43.3445 H   0  0  0  0  0  0  0  0  0  0  0  0
   47.9540   34.4935   43.7181 H   0  0  0  0  0  0  0  0  0  0  0  0
   42.8833   34.3150   40.5041 H   0  0  0  0  0  0  0  0  0  0  0  0
   45.2314   33.5684   40.0521 H   0  0  0  0  0  0  0  0  0  0  0  0
   44.0966   36.2948   44.0533 H   0  0  0  0  0  0  0  0  0  0  0  0
   47.8087   31.1660   41.8700 H   0  0  0  0  0  0  0  0  0  0  0  0
   45.9291   33.5478   47.6735 H   0  0  0  0  0  0  0  0  0  0  0  0
   44.9261   29.1329   47.0561 H   0  0  0  0  0  0  0  0  0  0  0  0
   45.5124   28.6784   45.4336 H   0  0  0  0  0  0  0  0  0  0  0  0
  1  9  1  0
  1  6  1  0
  2  1  1  0
  2  3  1  0
  3  4  1  0
  4  5  1  0
  5  6  1  0
  6 13  1  0
  7 12  2  0
  8  7  1  0
  8  9  2  0
  9 10  1  0
 10 11  2  0
 12 11  1  0
 13 21  1  0
 14 13  1  0
 14 15  2  0
 15 16  1  0
 16 17  2  0
 17 22  1  0
 17 18  1  0
 19 18  2  0
 20 19  1  0
 21 16  1  0
 21 20  2  0
  1 23  1  6
  2 24  1  0
  2 25  1  0
  3 26  1  0
  3 27  1  0
  4 28  1  0
  4 29  1  0
  5 30  1  0
  5 31  1  0
  6 32  1  1
  7 33  1  0
  8 34  1  0
 11 35  1  0
 14 36  1  0
 19 37  1  0
 22 38  1  0
 22 39  1  0
M  ISO  8  23  13  24  13  25  13  26  13  27  13  28  13  29  13  30  13
M  ISO  7  31  13  32  13  33  14  34  14  35  14  36  14  37  14
M  END
>  <minimizedAffinity>  (1) 
-6.00388908

>  <minimizedRMSD>  (1) 
3.01827908

$$$$
