
     RDKit          3D

 42 45  0  0  1  0  0  0  0  0999 V2000
   47.2870   33.8000   41.5950 C   0  0  1  0  0  0  0  0  0  0  0  0
   48.0170   34.8050   40.7080 C   0  0  0  0  0  0  0  0  0  0  0  0
   48.8620   35.7810   41.4470 C   0  0  0  0  0  0  0  0  0  0  0  0
   49.8480   35.1610   42.3810 C   0  0  0  0  0  0  0  0  0  0  0  0
   49.3660   33.7640   42.8170 C   0  0  0  0  0  0  0  0  0  0  0  0
   47.8770   33.8370   42.9490 C   0  0  2  0  0  0  0  0  0  0  0  0
   47.2340   33.1910   44.0810 C   0  0  0  0  0  0  0  0  0  0  0  0
   46.4270   33.8300   45.0490 C   0  0  0  0  0  0  0  0  0  0  0  0
   45.8160   33.2900   46.1290 C   0  0  0  0  0  0  0  0  0  0  0  0
   45.9960   31.9380   46.3260 C   0  0  0  0  0  0  0  0  0  0  0  0
   46.7480   31.2090   45.4700 C   0  0  0  0  0  0  0  0  0  0  0  0
   46.9030   29.8590   45.7010 C   0  0  0  0  0  0  0  0  0  0  0  0
   47.6590   29.0760   44.8560 C   0  0  0  0  0  0  0  0  0  0  0  0
   48.2630   29.6690   43.7660 C   0  0  0  0  0  0  0  0  0  0  0  0
   48.0860   31.0230   43.5660 C   0  0  0  0  0  0  0  0  0  0  0  0
   47.3380   31.8280   44.3920 C   0  0  0  0  0  0  0  0  0  0  0  0
   43.5570   33.2960   41.2960 C   0  0  0  0  0  0  0  0  0  0  0  0
   44.9240   33.0050   41.2530 C   0  0  0  0  0  0  0  0  0  0  0  0
   45.8300   34.0410   41.5800 C   0  0  0  0  0  0  0  0  0  0  0  0
   45.3060   35.2360   41.9110 N   0  0  0  0  0  0  0  0  0  0  0  0
   43.9730   35.5080   41.9500 C   0  0  0  0  0  0  0  0  0  0  0  0
   43.1220   34.5290   41.6400 N   0  0  0  0  0  0  0  0  0  0  0  0
   47.4182   32.7805   41.2034 H   0  0  0  0  0  0  0  0  0  0  0  0
   47.2650   35.3668   40.1346 H   0  0  0  0  0  0  0  0  0  0  0  0
   48.6977   34.2223   40.0700 H   0  0  0  0  0  0  0  0  0  0  0  0
   49.4162   36.3823   40.7113 H   0  0  0  0  0  0  0  0  0  0  0  0
   48.1791   36.3820   42.0655 H   0  0  0  0  0  0  0  0  0  0  0  0
   50.8195   35.0677   41.8736 H   0  0  0  0  0  0  0  0  0  0  0  0
   49.9478   35.7992   43.2714 H   0  0  0  0  0  0  0  0  0  0  0  0
   49.6420   33.0156   42.0595 H   0  0  0  0  0  0  0  0  0  0  0  0
   49.8307   33.4675   43.7689 H   0  0  0  0  0  0  0  0  0  0  0  0
   47.5894   34.8104   43.3730 H   0  0  0  0  0  0  0  0  0  0  0  0
   46.2752   34.9100   44.9056 H   0  0  0  0  0  0  0  0  0  0  0  0
   45.2074   33.8986   46.8140 H   0  0  0  0  0  0  0  0  0  0  0  0
   45.5230   31.4463   47.1888 H   0  0  0  0  0  0  0  0  0  0  0  0
   46.4156   29.3995   46.5735 H   0  0  0  0  0  0  0  0  0  0  0  0
   47.7788   27.9993   45.0465 H   0  0  0  0  0  0  0  0  0  0  0  0
   48.8734   29.0743   43.0705 H   0  0  0  0  0  0  0  0  0  0  0  0
   48.5721   31.4853   42.6942 H   0  0  0  0  0  0  0  0  0  0  0  0
   42.8266   32.5121   41.0469 H   0  0  0  0  0  0  0  0  0  0  0  0
   45.2831   32.0034   40.9741 H   0  0  0  0  0  0  0  0  0  0  0  0
   43.6078   36.5073   42.2294 H   0  0  0  0  0  0  0  0  0  0  0  0
  1  6  1  0
  2  3  1  0
  2  1  1  0
  3  4  1  0
  4  5  1  0
  5  6  1  0
  6  7  1  0
  7 16  1  0
  7  8  2  0
  8  9  1  0
  9 10  2  0
 11 12  2  0
 11 10  1  0
 13 12  1  0
 14 13  2  0
 15 14  1  0
 15 16  2  0
 16 11  1  0
 17 22  2  0
 18 17  1  0
 18 19  2  0
 19  1  1  0
 19 20  1  0
 20 21  2  0
 22 21  1  0
  1 23  1  6
  2 24  1  0
  2 25  1  0
  3 26  1  0
  3 27  1  0
  4 28  1  0
  4 29  1  0
  5 30  1  0
  5 31  1  0
  6 32  1  1
  8 33  1  0
  9 34  1  0
 10 35  1  0
 12 36  1  0
 13 37  1  0
 14 38  1  0
 15 39  1  0
 17 40  1  0
 18 41  1  0
 21 42  1  0
M  ISO  8  23  13  24  13  25  13  26  13  27  13  28  13  29  13  30  13
M  ISO  8  31  13  32  13  33  14  34  14  35  14  36  14  37  14  38  14
M  ISO  4  39  14  40  14  41  14  42  14
M  END
>  <minimizedAffinity>  (1) 
-5.92131329

>  <minimizedRMSD>  (1) 
2.37336802

$$$$
