
     RDKit          3D

 34 36  0  0  1  0  0  0  0  0999 V2000
   47.2960   34.0820   41.6280 C   0  0  1  0  0  0  0  0  0  0  0  0
   48.1120   35.0020   40.7350 C   0  0  0  0  0  0  0  0  0  0  0  0
   49.0570   35.8790   41.4830 C   0  0  0  0  0  0  0  0  0  0  0  0
   49.9690   35.1330   42.4100 C   0  0  0  0  0  0  0  0  0  0  0  0
   49.3620   33.8280   42.8550 C   0  0  0  0  0  0  0  0  0  0  0  0
   47.8760   34.0580   43.0110 C   0  0  2  0  0  0  0  0  0  0  0  0
   43.6190   34.2050   40.8010 C   0  0  0  0  0  0  0  0  0  0  0  0
   44.9670   33.7990   40.7340 C   0  0  0  0  0  0  0  0  0  0  0  0
   45.8510   34.4440   41.6010 C   0  0  0  0  0  0  0  0  0  0  0  0
   45.3810   35.4080   42.4470 N   0  0  0  0  0  0  0  0  0  0  0  0
   44.0670   35.7740   42.4830 C   0  0  0  0  0  0  0  0  0  0  0  0
   43.2010   35.1660   41.6570 N   0  0  0  0  0  0  0  0  0  0  0  0
   47.2380   33.0790   43.8900 C   0  0  0  0  0  0  0  0  0  0  0  0
   47.2390   31.7360   43.5680 C   0  0  0  0  0  0  0  0  0  0  0  0
   46.6290   30.8170   44.4110 C   0  0  0  0  0  0  0  0  0  0  0  0
   46.0420   31.2740   45.5460 N   0  0  0  0  0  0  0  0  0  0  0  0
   46.0410   32.5820   45.8600 C   0  0  0  0  0  0  0  0  0  0  0  0
   46.6430   33.4670   45.0220 N   0  0  0  0  0  0  0  0  0  0  0  0
   47.3531   33.0552   41.2377 H   0  0  0  0  0  0  0  0  0  0  0  0
   47.4186   35.6415   40.1691 H   0  0  0  0  0  0  0  0  0  0  0  0
   48.7191   34.3594   40.0804 H   0  0  0  0  0  0  0  0  0  0  0  0
   49.6741   36.4252   40.7544 H   0  0  0  0  0  0  0  0  0  0  0  0
   48.4471   36.5506   42.1050 H   0  0  0  0  0  0  0  0  0  0  0  0
   50.9160   34.9270   41.8897 H   0  0  0  0  0  0  0  0  0  0  0  0
   50.1373   35.7554   43.3012 H   0  0  0  0  0  0  0  0  0  0  0  0
   49.5459   33.0496   42.0998 H   0  0  0  0  0  0  0  0  0  0  0  0
   49.8075   33.4927   43.8032 H   0  0  0  0  0  0  0  0  0  0  0  0
   47.6857   35.0167   43.5157 H   0  0  0  0  0  0  0  0  0  0  0  0
   42.8843   33.7260   40.1371 H   0  0  0  0  0  0  0  0  0  0  0  0
   45.3039   33.0173   40.0373 H   0  0  0  0  0  0  0  0  0  0  0  0
   43.7230   36.5545   43.1776 H   0  0  0  0  0  0  0  0  0  0  0  0
   47.7240   31.3939   42.6419 H   0  0  0  0  0  0  0  0  0  0  0  0
   46.6217   29.7449   44.1650 H   0  0  0  0  0  0  0  0  0  0  0  0
   45.5584   32.9316   46.7846 H   0  0  0  0  0  0  0  0  0  0  0  0
  1  6  1  0
  2  3  1  0
  2  1  1  0
  3  4  1  0
  4  5  1  0
  5  6  1  0
  6 13  1  0
  7 12  2  0
  8  7  1  0
  8  9  2  0
  9  1  1  0
  9 10  1  0
 10 11  2  0
 12 11  1  0
 13 18  1  0
 14 13  2  0
 14 15  1  0
 15 16  2  0
 16 17  1  0
 18 17  2  0
  1 19  1  6
  2 20  1  0
  2 21  1  0
  3 22  1  0
  3 23  1  0
  4 24  1  0
  4 25  1  0
  5 26  1  0
  5 27  1  0
  6 28  1  1
  7 29  1  0
  8 30  1  0
 11 31  1  0
 14 32  1  0
 15 33  1  0
 17 34  1  0
M  ISO  8  19  13  20  13  21  13  22  13  23  13  24  13  25  13  26  13
M  ISO  8  27  13  28  13  29  14  30  14  31  14  32  14  33  14  34  14
M  END
>  <minimizedAffinity>  (1) 
-5.35920811

>  <minimizedRMSD>  (1) 
2.28707194

$$$$
