
     RDKit          3D

 39 41  0  0  1  0  0  0  0  0999 V2000
   46.1790   34.9140   41.9670 C   0  0  1  0  0  0  0  0  0  0  0  0
   47.6990   34.8990   41.9380 C   0  0  0  0  0  0  0  0  0  0  0  0
   48.2730   33.6110   41.4560 C   0  0  0  0  0  0  0  0  0  0  0  0
   47.7270   33.1450   40.1380 C   0  0  0  0  0  0  0  0  0  0  0  0
   46.3640   33.7360   39.8690 C   0  0  0  0  0  0  0  0  0  0  0  0
   45.6330   33.7490   41.1980 C   0  0  2  0  0  0  0  0  0  0  0  0
   44.2190   33.7520   41.0620 N   0  0  0  0  0  0  0  0  0  0  0  0
   43.5050   34.6150   40.3190 C   0  0  0  0  0  0  0  0  0  0  0  0
   42.1250   34.5520   40.2380 C   0  0  0  0  0  0  0  0  0  0  0  0
   41.3190   35.4960   39.4220 C   0  0  0  0  0  0  0  0  0  0  0  0
   41.4370   33.5700   40.9420 C   0  0  0  0  0  0  0  0  0  0  0  0
   40.1720   33.4490   40.9170 O   0  0  0  0  0  0  0  0  0  0  0  0
   42.1300   32.7130   41.6780 N   0  0  0  0  0  0  0  0  0  0  0  0
   43.4530   32.8290   41.7130 C   0  0  0  0  0  0  0  0  0  0  0  0
   44.0900   31.9900   42.4290 O   0  0  0  0  0  0  0  0  0  0  0  0
   44.4120   36.0310   45.1050 C   0  0  0  0  0  0  0  0  0  0  0  0
   44.8650   36.0520   43.7790 C   0  0  0  0  0  0  0  0  0  0  0  0
   45.6680   34.9880   43.3650 C   0  0  0  0  0  0  0  0  0  0  0  0
   45.9700   33.9930   44.2520 N   0  0  0  0  0  0  0  0  0  0  0  0
   45.5090   34.0060   45.5420 C   0  0  0  0  0  0  0  0  0  0  0  0
   44.7310   35.0290   45.9550 N   0  0  0  0  0  0  0  0  0  0  0  0
   45.8178   35.8242   41.4659 H   0  0  0  0  0  0  0  0  0  0  0  0
   48.0422   35.7039   41.2715 H   0  0  0  0  0  0  0  0  0  0  0  0
   48.0432   35.0385   42.9734 H   0  0  0  0  0  0  0  0  0  0  0  0
   49.3610   33.7361   41.3531 H   0  0  0  0  0  0  0  0  0  0  0  0
   47.9982   32.8470   42.1981 H   0  0  0  0  0  0  0  0  0  0  0  0
   48.4151   33.4518   39.3365 H   0  0  0  0  0  0  0  0  0  0  0  0
   47.6303   32.0497   40.1700 H   0  0  0  0  0  0  0  0  0  0  0  0
   46.4634   34.7599   39.4795 H   0  0  0  0  0  0  0  0  0  0  0  0
   45.8157   33.1483   39.1180 H   0  0  0  0  0  0  0  0  0  0  0  0
   45.8135   32.8166   41.7531 H   0  0  0  0  0  0  0  0  0  0  0  0
   44.0354   35.3975   39.7565 H   0  0  0  0  0  0  0  0  0  0  0  0
   40.7501   36.1623   40.0872 H   0  0  0  0  0  0  0  0  0  0  0  0
   41.9881   36.0956   38.7873 H   0  0  0  0  0  0  0  0  0  0  0  0
   40.6220   34.9292   38.7873 H   0  0  0  0  0  0  0  0  0  0  0  0
   41.6529   31.9725   42.2117 H   0  0  0  0  0  0  0  0  0  0  0  0
   43.7778   36.8545   45.4652 H   0  0  0  0  0  0  0  0  0  0  0  0
   44.5994   36.8711   43.0945 H   0  0  0  0  0  0  0  0  0  0  0  0
   45.7700   33.1916   46.2338 H   0  0  0  0  0  0  0  0  0  0  0  0
  1 18  1  0
  2  1  1  0
  3  2  1  0
  4  3  1  0
  5  4  1  0
  5  6  1  0
  6  1  1  0
  7  6  1  0
  7 14  1  0
  8  7  1  0
  9  8  2  0
  9 11  1  0
 10  9  1  0
 11 13  1  0
 12 11  2  0
 13 14  1  0
 14 15  2  0
 16 21  2  0
 17 16  1  0
 18 17  2  0
 18 19  1  0
 19 20  2  0
 20 21  1  0
  1 22  1  6
  2 23  1  0
  2 24  1  0
  3 25  1  0
  3 26  1  0
  4 27  1  0
  4 28  1  0
  5 29  1  0
  5 30  1  0
  6 31  1  1
  8 32  1  0
 10 33  1  0
 10 34  1  0
 10 35  1  0
 13 36  1  0
 16 37  1  0
 17 38  1  0
 20 39  1  0
M  ISO  8  22  13  23  13  24  13  25  13  26  13  27  13  28  13  29  13
M  ISO  8  30  13  31  13  32  14  33   8  34   8  35   8  36   9  37  14
M  ISO  2  38  14  39  14
M  END
>  <minimizedAffinity>  (1) 
-5.89921474

>  <minimizedRMSD>  (1) 
4.51266813

$$$$
