
     RDKit          3D

 36 38  0  0  1  0  0  0  0  0999 V2000
   47.3350   34.0580   41.6510 C   0  0  1  0  0  0  0  0  0  0  0  0
   48.1370   35.0470   40.8140 C   0  0  0  0  0  0  0  0  0  0  0  0
   49.1110   35.8420   41.6140 C   0  0  0  0  0  0  0  0  0  0  0  0
   50.0380   34.9990   42.4330 C   0  0  0  0  0  0  0  0  0  0  0  0
   49.4220   33.6650   42.7780 C   0  0  0  0  0  0  0  0  0  0  0  0
   47.9480   33.9350   43.0140 C   0  0  2  0  0  0  0  0  0  0  0  0
   43.6170   34.1290   41.0530 C   0  0  0  0  0  0  0  0  0  0  0  0
   44.9480   33.7120   40.9400 C   0  0  0  0  0  0  0  0  0  0  0  0
   45.8920   34.4280   41.6810 C   0  0  0  0  0  0  0  0  0  0  0  0
   45.4900   35.4750   42.4620 N   0  0  0  0  0  0  0  0  0  0  0  0
   44.1730   35.8490   42.5430 C   0  0  0  0  0  0  0  0  0  0  0  0
   43.2470   35.1690   41.8340 N   0  0  0  0  0  0  0  0  0  0  0  0
   47.3100   32.9470   43.8710 C   0  0  0  0  0  0  0  0  0  0  0  0
   47.3620   31.6180   43.4600 C   0  0  0  0  0  0  0  0  0  0  0  0
   46.7570   30.6650   44.2690 C   0  0  0  0  0  0  0  0  0  0  0  0
   46.1190   30.9840   45.4440 C   0  0  0  0  0  0  0  0  0  0  0  0
   46.1000   32.3260   45.8040 C   0  0  0  0  0  0  0  0  0  0  0  0
   46.6820   33.3090   45.0410 C   0  0  0  0  0  0  0  0  0  0  0  0
   47.3758   33.0615   41.1869 H   0  0  0  0  0  0  0  0  0  0  0  0
   47.4362   35.7411   40.3270 H   0  0  0  0  0  0  0  0  0  0  0  0
   48.7155   34.4621   40.0838 H   0  0  0  0  0  0  0  0  0  0  0  0
   49.7126   36.4521   40.9242 H   0  0  0  0  0  0  0  0  0  0  0  0
   48.5285   36.4579   42.3149 H   0  0  0  0  0  0  0  0  0  0  0  0
   50.9624   34.8277   41.8619 H   0  0  0  0  0  0  0  0  0  0  0  0
   50.2476   35.5328   43.3717 H   0  0  0  0  0  0  0  0  0  0  0  0
   49.5527   32.9569   41.9464 H   0  0  0  0  0  0  0  0  0  0  0  0
   49.8972   33.2182   43.6638 H   0  0  0  0  0  0  0  0  0  0  0  0
   47.7988   34.8639   43.5841 H   0  0  0  0  0  0  0  0  0  0  0  0
   42.8433   33.5910   40.4856 H   0  0  0  0  0  0  0  0  0  0  0  0
   45.2363   32.8644   40.3009 H   0  0  0  0  0  0  0  0  0  0  0  0
   43.8741   36.6949   43.1795 H   0  0  0  0  0  0  0  0  0  0  0  0
   47.8659   31.3320   42.5249 H   0  0  0  0  0  0  0  0  0  0  0  0
   46.7897   29.6109   43.9564 H   0  0  0  0  0  0  0  0  0  0  0  0
   45.6457   30.2131   46.0699 H   0  0  0  0  0  0  0  0  0  0  0  0
   45.5977   32.6134   46.7395 H   0  0  0  0  0  0  0  0  0  0  0  0
   46.6469   34.3617   45.3580 H   0  0  0  0  0  0  0  0  0  0  0  0
  1  9  1  0
  1  6  1  0
  2  3  1  0
  2  1  1  0
  3  4  1  0
  4  5  1  0
  5  6  1  0
  6 13  1  0
  7 12  2  0
  8  7  1  0
  8  9  2  0
  9 10  1  0
 10 11  2  0
 12 11  1  0
 13 18  1  0
 14 13  2  0
 14 15  1  0
 15 16  2  0
 16 17  1  0
 18 17  2  0
  1 19  1  6
  2 20  1  0
  2 21  1  0
  3 22  1  0
  3 23  1  0
  4 24  1  0
  4 25  1  0
  5 26  1  0
  5 27  1  0
  6 28  1  1
  7 29  1  0
  8 30  1  0
 11 31  1  0
 14 32  1  0
 15 33  1  0
 16 34  1  0
 17 35  1  0
 18 36  1  0
M  ISO  8  19  13  20  13  21  13  22  13  23  13  24  13  25  13  26  13
M  ISO  8  27  13  28  13  29  14  30  14  31  14  32  14  33  14  34  14
M  ISO  2  35  14  36  14
M  END
>  <minimizedAffinity>  (1) 
-5.37537527

>  <minimizedRMSD>  (1) 
2.36215234

$$$$
