
     RDKit          3D

 35 37  0  0  1  0  0  0  0  0999 V2000
   47.3190   34.0520   41.6730 C   0  0  1  0  0  0  0  0  0  0  0  0
   48.1150   35.0140   40.8020 C   0  0  0  0  0  0  0  0  0  0  0  0
   49.0820   35.8630   41.5560 C   0  0  0  0  0  0  0  0  0  0  0  0
   50.0250   35.0500   42.4090 C   0  0  0  0  0  0  0  0  0  0  0  0
   49.4080   33.7440   42.8430 C   0  0  0  0  0  0  0  0  0  0  0  0
   47.9350   34.0050   43.0400 C   0  0  2  0  0  0  0  0  0  0  0  0
   43.6010   34.1310   41.0600 C   0  0  0  0  0  0  0  0  0  0  0  0
   44.9320   33.7120   40.9560 C   0  0  0  0  0  0  0  0  0  0  0  0
   45.8750   34.4270   41.6980 C   0  0  0  0  0  0  0  0  0  0  0  0
   45.4590   35.4740   42.4700 N   0  0  0  0  0  0  0  0  0  0  0  0
   44.1520   35.8540   42.5470 C   0  0  0  0  0  0  0  0  0  0  0  0
   43.2290   35.1720   41.8340 N   0  0  0  0  0  0  0  0  0  0  0  0
   47.2910   33.0680   43.9520 C   0  0  0  0  0  0  0  0  0  0  0  0
   47.2990   31.7040   43.7160 C   0  0  0  0  0  0  0  0  0  0  0  0
   46.7060   30.7760   44.5470 C   0  0  0  0  0  0  0  0  0  0  0  0
   46.0900   31.3220   45.6530 C   0  0  0  0  0  0  0  0  0  0  0  0
   46.0480   32.6710   45.9420 C   0  0  0  0  0  0  0  0  0  0  0  0
   46.6510   33.4880   45.0780 N   0  0  0  0  0  0  0  0  0  0  0  0
   47.3598   33.0377   41.2493 H   0  0  0  0  0  0  0  0  0  0  0  0
   47.4065   35.6760   40.2825 H   0  0  0  0  0  0  0  0  0  0  0  0
   48.7077   34.3977   40.1100 H   0  0  0  0  0  0  0  0  0  0  0  0
   49.6734   36.4478   40.8361 H   0  0  0  0  0  0  0  0  0  0  0  0
   48.5019   36.5133   42.2272 H   0  0  0  0  0  0  0  0  0  0  0  0
   50.9354   34.8377   41.8292 H   0  0  0  0  0  0  0  0  0  0  0  0
   50.2566   35.6339   43.3120 H   0  0  0  0  0  0  0  0  0  0  0  0
   49.5570   32.9781   42.0676 H   0  0  0  0  0  0  0  0  0  0  0  0
   49.8721   33.3757   43.7698 H   0  0  0  0  0  0  0  0  0  0  0  0
   47.7832   34.9675   43.5505 H   0  0  0  0  0  0  0  0  0  0  0  0
   42.8297   33.5922   40.4901 H   0  0  0  0  0  0  0  0  0  0  0  0
   45.2214   32.8615   40.3212 H   0  0  0  0  0  0  0  0  0  0  0  0
   43.8535   36.7028   43.1799 H   0  0  0  0  0  0  0  0  0  0  0  0
   47.8084   31.3383   42.8122 H   0  0  0  0  0  0  0  0  0  0  0  0
   46.7232   29.6949   44.3448 H   0  0  0  0  0  0  0  0  0  0  0  0
   45.5969   30.6335   46.3551 H   0  0  0  0  0  0  0  0  0  0  0  0
   45.5420   33.0532   46.8408 H   0  0  0  0  0  0  0  0  0  0  0  0
  1  9  1  0
  1  6  1  0
  2  3  1  0
  2  1  1  0
  3  4  1  0
  4  5  1  0
  5  6  1  0
  6 13  1  0
  7 12  2  0
  8  7  1  0
  8  9  2  0
  9 10  1  0
 10 11  2  0
 12 11  1  0
 13 18  1  0
 14 13  2  0
 14 15  1  0
 15 16  2  0
 16 17  1  0
 18 17  2  0
  1 19  1  6
  2 20  1  0
  2 21  1  0
  3 22  1  0
  3 23  1  0
  4 24  1  0
  4 25  1  0
  5 26  1  0
  5 27  1  0
  6 28  1  1
  7 29  1  0
  8 30  1  0
 11 31  1  0
 14 32  1  0
 15 33  1  0
 16 34  1  0
 17 35  1  0
M  ISO  8  19  13  20  13  21  13  22  13  23  13  24  13  25  13  26  13
M  ISO  8  27  13  28  13  29  14  30  14  31  14  32  14  33  14  34  14
M  ISO  1  35  14
M  END
>  <minimizedAffinity>  (1) 
-5.32877254

>  <minimizedRMSD>  (1) 
2.20466638

$$$$
