
     RDKit          3D

 33 35  0  0  1  0  0  0  0  0999 V2000
   47.3240   34.1070   41.6480 C   0  0  1  0  0  0  0  0  0  0  0  0
   48.1220   35.0410   40.7500 C   0  0  0  0  0  0  0  0  0  0  0  0
   49.0870   35.8910   41.4950 C   0  0  0  0  0  0  0  0  0  0  0  0
   50.0010   35.1460   42.4160 C   0  0  0  0  0  0  0  0  0  0  0  0
   49.4090   33.8200   42.8300 C   0  0  0  0  0  0  0  0  0  0  0  0
   47.9200   34.0490   43.0250 C   0  0  2  0  0  0  0  0  0  0  0  0
   43.6350   34.2120   40.8880 C   0  0  0  0  0  0  0  0  0  0  0  0
   44.9750   33.8180   40.8020 C   0  0  0  0  0  0  0  0  0  0  0  0
   45.8780   34.4650   41.6470 C   0  0  0  0  0  0  0  0  0  0  0  0
   45.4200   35.4310   42.4990 N   0  0  0  0  0  0  0  0  0  0  0  0
   44.1070   35.7900   42.5570 C   0  0  0  0  0  0  0  0  0  0  0  0
   43.2210   35.1740   41.7480 N   0  0  0  0  0  0  0  0  0  0  0  0
   47.2610   33.0840   43.8280 C   0  0  0  0  0  0  0  0  0  0  0  0
   46.6470   33.1180   45.0400 C   0  0  0  0  0  0  0  0  0  0  0  0
   46.0760   32.0170   45.6070 C   0  0  0  0  0  0  0  0  0  0  0  0
   46.1840   30.7650   44.7750 C   0  0  0  0  0  0  0  0  0  0  0  0
   47.0900   31.2800   43.2670 S   0  0  0  0  0  0  0  0  0  0  0  0
   47.3857   33.0873   41.2401 H   0  0  0  0  0  0  0  0  0  0  0  0
   47.4189   35.6970   40.2159 H   0  0  0  0  0  0  0  0  0  0  0  0
   48.7058   34.4116   40.0623 H   0  0  0  0  0  0  0  0  0  0  0  0
   49.7052   36.4296   40.7617 H   0  0  0  0  0  0  0  0  0  0  0  0
   48.4852   36.5579   42.1299 H   0  0  0  0  0  0  0  0  0  0  0  0
   50.9569   34.9659   41.9023 H   0  0  0  0  0  0  0  0  0  0  0  0
   50.1508   35.7544   43.3201 H   0  0  0  0  0  0  0  0  0  0  0  0
   49.5774   33.0680   42.0451 H   0  0  0  0  0  0  0  0  0  0  0  0
   49.8767   33.4489   43.7538 H   0  0  0  0  0  0  0  0  0  0  0  0
   47.7804   34.9828   43.5893 H   0  0  0  0  0  0  0  0  0  0  0  0
   42.8941   33.7253   40.2367 H   0  0  0  0  0  0  0  0  0  0  0  0
   45.3013   33.0352   40.1014 H   0  0  0  0  0  0  0  0  0  0  0  0
   43.7738   36.5723   43.2548 H   0  0  0  0  0  0  0  0  0  0  0  0
   46.6091   34.0723   45.5857 H   0  0  0  0  0  0  0  0  0  0  0  0
   45.5790   32.0407   46.5880 H   0  0  0  0  0  0  0  0  0  0  0  0
   45.8029   29.7624   45.0191 H   0  0  0  0  0  0  0  0  0  0  0  0
  1  6  1  0
  2  3  1  0
  2  1  1  0
  3  4  1  0
  4  5  1  0
  5  6  1  0
  6 13  1  0
  7 12  2  0
  8  7  1  0
  8  9  2  0
  9  1  1  0
  9 10  1  0
 10 11  2  0
 12 11  1  0
 13 14  2  0
 14 15  1  0
 16 15  2  0
 17 13  1  0
 17 16  1  0
  1 18  1  6
  2 19  1  0
  2 20  1  0
  3 21  1  0
  3 22  1  0
  4 23  1  0
  4 24  1  0
  5 25  1  0
  5 26  1  0
  6 27  1  1
  7 28  1  0
  8 29  1  0
 11 30  1  0
 14 31  1  0
 15 32  1  0
 16 33  1  0
M  ISO  8  18  13  19  13  20  13  21  13  22  13  23  13  24  13  25  13
M  ISO  8  26  13  27  13  28  14  29  14  30  14  31  14  32  14  33  14
M  END
>  <minimizedAffinity>  (1) 
-5.16165257

>  <minimizedRMSD>  (1) 
2.23598027

$$$$
