
     RDKit          3D

 37 40  0  0  1  0  0  0  0  0999 V2000
   47.4770   34.0250   42.4670 C   0  0  1  0  0  0  0  0  0  0  0  0
   48.4180   35.1150   41.9860 C   0  0  0  0  0  0  0  0  0  0  0  0
   49.8020   35.0010   42.5250 C   0  0  0  0  0  0  0  0  0  0  0  0
   50.4360   33.6470   42.3590 C   0  0  0  0  0  0  0  0  0  0  0  0
   49.3900   32.5850   42.1340 C   0  0  0  0  0  0  0  0  0  0  0  0
   48.2480   32.8970   43.0820 C   0  0  2  0  0  0  0  0  0  0  0  0
   47.4380   31.6870   43.1310 N   0  0  0  0  0  0  0  0  0  0  0  0
   46.7490   31.1670   42.0730 C   0  0  0  0  0  0  0  0  0  0  0  0
   46.1060   30.0580   42.4280 N   0  0  0  0  0  0  0  0  0  0  0  0
   46.3800   29.8570   43.7320 C   0  0  0  0  0  0  0  0  0  0  0  0
   45.9730   28.8600   44.5940 C   0  0  0  0  0  0  0  0  0  0  0  0
   46.4010   28.9020   45.8580 N   0  0  0  0  0  0  0  0  0  0  0  0
   47.2130   29.9080   46.2640 C   0  0  0  0  0  0  0  0  0  0  0  0
   47.6220   30.8870   45.4410 N   0  0  0  0  0  0  0  0  0  0  0  0
   47.2200   30.8890   44.1650 C   0  0  0  0  0  0  0  0  0  0  0  0
   44.6560   36.1020   43.8650 C   0  0  0  0  0  0  0  0  0  0  0  0
   45.6290   35.6540   42.9660 C   0  0  0  0  0  0  0  0  0  0  0  0
   46.4270   34.5610   43.3830 C   0  0  0  0  0  0  0  0  0  0  0  0
   46.2130   34.0050   44.6170 N   0  0  0  0  0  0  0  0  0  0  0  0
   45.2530   34.4810   45.4470 C   0  0  0  0  0  0  0  0  0  0  0  0
   44.4780   35.5230   45.0760 N   0  0  0  0  0  0  0  0  0  0  0  0
   46.9439   33.6241   41.5923 H   0  0  0  0  0  0  0  0  0  0  0  0
   48.4693   35.0683   40.8882 H   0  0  0  0  0  0  0  0  0  0  0  0
   48.0119   36.0701   42.3504 H   0  0  0  0  0  0  0  0  0  0  0  0
   50.4322   35.7393   42.0076 H   0  0  0  0  0  0  0  0  0  0  0  0
   49.7269   35.1761   43.6084 H   0  0  0  0  0  0  0  0  0  0  0  0
   51.1156   33.6715   41.4944 H   0  0  0  0  0  0  0  0  0  0  0  0
   50.9901   33.4043   43.2777 H   0  0  0  0  0  0  0  0  0  0  0  0
   49.0376   32.6134   41.0924 H   0  0  0  0  0  0  0  0  0  0  0  0
   49.7973   31.5801   42.3193 H   0  0  0  0  0  0  0  0  0  0  0  0
   48.5689   33.1834   44.0944 H   0  0  0  0  0  0  0  0  0  0  0  0
   46.7285   31.6055   41.0644 H   0  0  0  0  0  0  0  0  0  0  0  0
   45.3126   28.0509   44.2488 H   0  0  0  0  0  0  0  0  0  0  0  0
   47.5510   29.9233   47.3107 H   0  0  0  0  0  0  0  0  0  0  0  0
   44.0161   36.9501   43.5798 H   0  0  0  0  0  0  0  0  0  0  0  0
   45.7677   36.1275   41.9829 H   0  0  0  0  0  0  0  0  0  0  0  0
   45.1037   34.0143   46.4319 H   0  0  0  0  0  0  0  0  0  0  0  0
  1  6  1  0
  1 18  1  0
  2  1  1  0
  2  3  1  0
  4  3  1  0
  5  4  1  0
  5  6  1  0
  6  7  1  0
  7 15  1  0
  8  9  2  0
  8  7  1  0
  9 10  1  0
 10 15  2  0
 10 11  1  0
 11 12  2  0
 12 13  1  0
 14 13  2  0
 15 14  1  0
 16 21  2  0
 17 18  2  0
 17 16  1  0
 18 19  1  0
 19 20  2  0
 21 20  1  0
  1 22  1  6
  2 23  1  0
  2 24  1  0
  3 25  1  0
  3 26  1  0
  4 27  1  0
  4 28  1  0
  5 29  1  0
  5 30  1  0
  6 31  1  1
  8 32  1  0
 11 33  1  0
 13 34  1  0
 16 35  1  0
 17 36  1  0
 20 37  1  0
M  ISO  8  22  13  23  13  24  13  25  13  26  13  27  13  28  13  29  13
M  ISO  8  30  13  31  13  32  14  33  14  34  14  35  14  36  14  37  14
M  END
>  <minimizedAffinity>  (1) 
-5.25907707

>  <minimizedRMSD>  (1) 
0.550052702

$$$$
