
     RDKit          3D

 32 34  0  0  1  0  0  0  0  0999 V2000
   47.3110   34.0700   41.6090 C   0  0  1  0  0  0  0  0  0  0  0  0
   48.1450   35.0190   40.7620 C   0  0  0  0  0  0  0  0  0  0  0  0
   49.0910   35.8620   41.5470 C   0  0  0  0  0  0  0  0  0  0  0  0
   49.9910   35.0730   42.4530 C   0  0  0  0  0  0  0  0  0  0  0  0
   49.3780   33.7430   42.8220 C   0  0  0  0  0  0  0  0  0  0  0  0
   47.8920   33.9860   42.9900 C   0  0  2  0  0  0  0  0  0  0  0  0
   43.6370   34.3260   40.7870 C   0  0  0  0  0  0  0  0  0  0  0  0
   44.9650   33.8970   40.7080 C   0  0  0  0  0  0  0  0  0  0  0  0
   45.8730   34.4670   41.6020 C   0  0  0  0  0  0  0  0  0  0  0  0
   45.4270   35.3980   42.4960 N   0  0  0  0  0  0  0  0  0  0  0  0
   44.1240   35.7960   42.5500 C   0  0  0  0  0  0  0  0  0  0  0  0
   43.2350   35.2520   41.6890 N   0  0  0  0  0  0  0  0  0  0  0  0
   47.2590   33.0050   43.8120 N   0  0  0  0  0  0  0  0  0  0  0  0
   47.1380   31.6740   43.5560 C   0  0  0  0  0  0  0  0  0  0  0  0
   46.4740   31.1200   44.5920 N   0  0  0  0  0  0  0  0  0  0  0  0
   46.1940   32.1110   45.4720 C   0  0  0  0  0  0  0  0  0  0  0  0
   46.6920   33.2770   44.9660 N   0  0  0  0  0  0  0  0  0  0  0  0
   47.3454   33.0600   41.1746 H   0  0  0  0  0  0  0  0  0  0  0  0
   47.4617   35.6847   40.2143 H   0  0  0  0  0  0  0  0  0  0  0  0
   48.7557   34.3946   40.0933 H   0  0  0  0  0  0  0  0  0  0  0  0
   49.7175   36.4292   40.8428 H   0  0  0  0  0  0  0  0  0  0  0  0
   48.4828   36.5170   42.1881 H   0  0  0  0  0  0  0  0  0  0  0  0
   50.9477   34.8954   41.9400 H   0  0  0  0  0  0  0  0  0  0  0  0
   50.1428   35.6508   43.3766 H   0  0  0  0  0  0  0  0  0  0  0  0
   49.5549   33.0082   42.0228 H   0  0  0  0  0  0  0  0  0  0  0  0
   49.8224   33.3426   43.7451 H   0  0  0  0  0  0  0  0  0  0  0  0
   47.7134   34.9267   43.5314 H   0  0  0  0  0  0  0  0  0  0  0  0
   42.8962   33.8983   40.0954 H   0  0  0  0  0  0  0  0  0  0  0  0
   45.2811   33.1424   39.9727 H   0  0  0  0  0  0  0  0  0  0  0  0
   43.8007   36.5491   43.2838 H   0  0  0  0  0  0  0  0  0  0  0  0
   47.5130   31.1460   42.6668 H   0  0  0  0  0  0  0  0  0  0  0  0
   45.6594   31.9964   46.4265 H   0  0  0  0  0  0  0  0  0  0  0  0
  1  6  1  0
  2  3  1  0
  2  1  1  0
  3  4  1  0
  4  5  1  0
  5  6  1  0
  6 13  1  0
  7 12  2  0
  8  7  1  0
  8  9  2  0
  9  1  1  0
  9 10  1  0
 10 11  2  0
 12 11  1  0
 13 17  1  0
 14 13  1  0
 14 15  2  0
 15 16  1  0
 17 16  2  0
  1 18  1  6
  2 19  1  0
  2 20  1  0
  3 21  1  0
  3 22  1  0
  4 23  1  0
  4 24  1  0
  5 25  1  0
  5 26  1  0
  6 27  1  1
  7 28  1  0
  8 29  1  0
 11 30  1  0
 14 31  1  0
 16 32  1  0
M  ISO  8  18  13  19  13  20  13  21  13  22  13  23  13  24  13  25  13
M  ISO  7  26  13  27  13  28  14  29  14  30  14  31  14  32  14
M  END
>  <minimizedAffinity>  (1) 
-5.05337381

>  <minimizedRMSD>  (1) 
2.22180963

$$$$
