
     RDKit          3D

 34 36  0  0  1  0  0  0  0  0999 V2000
   47.3310   34.0590   41.6130 C   0  0  1  0  0  0  0  0  0  0  0  0
   48.1540   35.0390   40.7860 C   0  0  0  0  0  0  0  0  0  0  0  0
   49.1160   35.8510   41.5870 C   0  0  0  0  0  0  0  0  0  0  0  0
   50.0280   35.0220   42.4460 C   0  0  0  0  0  0  0  0  0  0  0  0
   49.3970   33.6870   42.8040 C   0  0  0  0  0  0  0  0  0  0  0  0
   47.9230   33.9690   42.9870 C   0  0  2  0  0  0  0  0  0  0  0  0
   43.6300   34.2160   40.9070 C   0  0  0  0  0  0  0  0  0  0  0  0
   44.9610   33.7940   40.8090 C   0  0  0  0  0  0  0  0  0  0  0  0
   45.8910   34.4490   41.6370 C   0  0  0  0  0  0  0  0  0  0  0  0
   45.4590   35.4380   42.4760 N   0  0  0  0  0  0  0  0  0  0  0  0
   44.1540   35.8140   42.5380 C   0  0  0  0  0  0  0  0  0  0  0  0
   43.2430   35.2000   41.7510 N   0  0  0  0  0  0  0  0  0  0  0  0
   47.2540   33.0030   43.8610 C   0  0  0  0  0  0  0  0  0  0  0  0
   47.1830   31.6530   43.5280 C   0  0  0  0  0  0  0  0  0  0  0  0
   46.5460   30.7770   44.3780 C   0  0  0  0  0  0  0  0  0  0  0  0
   45.9930   31.2070   45.5210 N   0  0  0  0  0  0  0  0  0  0  0  0
   46.0740   32.5250   45.8270 C   0  0  0  0  0  0  0  0  0  0  0  0
   46.6930   33.4310   45.0200 N   0  0  0  0  0  0  0  0  0  0  0  0
   47.3664   33.0609   41.1520 H   0  0  0  0  0  0  0  0  0  0  0  0
   47.4631   35.7259   40.2752 H   0  0  0  0  0  0  0  0  0  0  0  0
   48.7515   34.4392   40.0837 H   0  0  0  0  0  0  0  0  0  0  0  0
   49.7325   36.4435   40.8950 H   0  0  0  0  0  0  0  0  0  0  0  0
   48.5219   36.4844   42.2622 H   0  0  0  0  0  0  0  0  0  0  0  0
   50.9649   34.8391   41.8994 H   0  0  0  0  0  0  0  0  0  0  0  0
   50.2190   35.5738   43.3782 H   0  0  0  0  0  0  0  0  0  0  0  0
   49.5509   32.9600   41.9930 H   0  0  0  0  0  0  0  0  0  0  0  0
   49.8444   33.2562   43.7119 H   0  0  0  0  0  0  0  0  0  0  0  0
   47.7741   34.9195   43.5202 H   0  0  0  0  0  0  0  0  0  0  0  0
   42.8717   33.7303   40.2753 H   0  0  0  0  0  0  0  0  0  0  0  0
   45.2642   32.9917   40.1202 H   0  0  0  0  0  0  0  0  0  0  0  0
   43.8412   36.6139   43.2252 H   0  0  0  0  0  0  0  0  0  0  0  0
   47.6326   31.2889   42.5925 H   0  0  0  0  0  0  0  0  0  0  0  0
   46.4901   29.7102   44.1158 H   0  0  0  0  0  0  0  0  0  0  0  0
   45.6213   32.8774   46.7655 H   0  0  0  0  0  0  0  0  0  0  0  0
  1  9  1  0
  1  6  1  0
  2  3  1  0
  2  1  1  0
  3  4  1  0
  4  5  1  0
  5  6  1  0
  6 13  1  0
  7 12  2  0
  8  7  1  0
  8  9  2  0
  9 10  1  0
 10 11  2  0
 12 11  1  0
 13 18  1  0
 14 13  2  0
 14 15  1  0
 15 16  2  0
 16 17  1  0
 18 17  2  0
  1 19  1  6
  2 20  1  0
  2 21  1  0
  3 22  1  0
  3 23  1  0
  4 24  1  0
  4 25  1  0
  5 26  1  0
  5 27  1  0
  6 28  1  1
  7 29  1  0
  8 30  1  0
 11 31  1  0
 14 32  1  0
 15 33  1  0
 17 34  1  0
M  ISO  8  19  13  20  13  21  13  22  13  23  13  24  13  25  13  26  13
M  ISO  8  27  13  28  13  29  14  30  14  31  14  32  14  33  14  34  14
M  END
>  <minimizedAffinity>  (1) 
-5.30534792

>  <minimizedRMSD>  (1) 
2.18575716

$$$$
