
     RDKit          3D

 33 35  0  0  1  0  0  0  0  0999 V2000
   47.4940   33.9840   42.5440 C   0  0  1  0  0  0  0  0  0  0  0  0
   48.3640   35.1060   41.9950 C   0  0  0  0  0  0  0  0  0  0  0  0
   49.7650   35.0770   42.5060 C   0  0  0  0  0  0  0  0  0  0  0  0
   50.4480   33.7640   42.2720 C   0  0  0  0  0  0  0  0  0  0  0  0
   49.4760   32.6280   42.2180 C   0  0  0  0  0  0  0  0  0  0  0  0
   48.3390   32.9180   43.1670 C   0  0  2  0  0  0  0  0  0  0  0  0
   44.6790   36.0310   44.0070 C   0  0  0  0  0  0  0  0  0  0  0  0
   45.6600   35.6060   43.0760 C   0  0  0  0  0  0  0  0  0  0  0  0
   46.4490   34.5000   43.4790 C   0  0  0  0  0  0  0  0  0  0  0  0
   46.2370   33.9190   44.6970 N   0  0  0  0  0  0  0  0  0  0  0  0
   45.2820   34.3730   45.5450 C   0  0  0  0  0  0  0  0  0  0  0  0
   44.5240   35.4120   45.1920 N   0  0  0  0  0  0  0  0  0  0  0  0
   47.4980   31.6670   43.1190 C   0  0  0  0  0  0  0  0  0  0  0  0
   47.5630   30.7130   44.1230 C   0  0  0  0  0  0  0  0  0  0  0  0
   46.6550   29.7380   43.7130 C   0  0  0  0  0  0  0  0  0  0  0  0
   46.1240   30.1400   42.5480 N   0  0  0  0  0  0  0  0  0  0  0  0
   46.6310   31.3160   42.1770 N   0  0  0  0  0  0  0  0  0  0  0  0
   46.9540   33.5268   41.7017 H   0  0  0  0  0  0  0  0  0  0  0  0
   47.9105   36.0678   42.2766 H   0  0  0  0  0  0  0  0  0  0  0  0
   48.4146   34.9720   40.9044 H   0  0  0  0  0  0  0  0  0  0  0  0
   50.3394   35.8660   41.9984 H   0  0  0  0  0  0  0  0  0  0  0  0
   49.7212   35.2351   43.5937 H   0  0  0  0  0  0  0  0  0  0  0  0
   50.9917   33.8118   41.3169 H   0  0  0  0  0  0  0  0  0  0  0  0
   51.1346   33.5838   43.1123 H   0  0  0  0  0  0  0  0  0  0  0  0
   49.0863   32.5227   41.1948 H   0  0  0  0  0  0  0  0  0  0  0  0
   49.9767   31.6925   42.5080 H   0  0  0  0  0  0  0  0  0  0  0  0
   48.6830   33.2063   44.1713 H   0  0  0  0  0  0  0  0  0  0  0  0
   44.0314   36.8839   43.7558 H   0  0  0  0  0  0  0  0  0  0  0  0
   45.7996   36.1023   42.1043 H   0  0  0  0  0  0  0  0  0  0  0  0
   45.1328   33.8865   46.5202 H   0  0  0  0  0  0  0  0  0  0  0  0
   48.1851   30.7231   45.0302 H   0  0  0  0  0  0  0  0  0  0  0  0
   46.4167   28.8069   44.2480 H   0  0  0  0  0  0  0  0  0  0  0  0
   45.4201   29.6117   42.0129 H   0  0  0  0  0  0  0  0  0  0  0  0
  1  6  1  0
  1  9  1  0
  2  3  1  0
  2  1  1  0
  4  3  1  0
  5  4  1  0
  5  6  1  0
  7 12  2  0
  8  9  2  0
  8  7  1  0
  9 10  1  0
 10 11  2  0
 12 11  1  0
 13  6  1  0
 13 14  1  0
 15 14  2  0
 16 15  1  0
 17 16  1  0
 17 13  2  0
  1 18  1  6
  2 19  1  0
  2 20  1  0
  3 21  1  0
  3 22  1  0
  4 23  1  0
  4 24  1  0
  5 25  1  0
  5 26  1  0
  6 27  1  1
  7 28  1  0
  8 29  1  0
 11 30  1  0
 14 31  1  0
 15 32  1  0
 16 33  1  0
M  ISO  8  18  13  19  13  20  13  21  13  22  13  23  13  24  13  25  13
M  ISO  8  26  13  27  13  28  14  29  14  30  14  31  14  32  14  33   9
M  END
>  <minimizedAffinity>  (1) 
-4.91583061

>  <minimizedRMSD>  (1) 
0.447660804

$$$$
