
     RDKit          3D

 29 30  0  0  1  0  0  0  0  0999 V2000
   47.5170   34.0230   42.5140 C   0  0  1  0  0  0  0  0  0  0  0  0
   48.4280   35.1510   42.0470 C   0  0  0  0  0  0  0  0  0  0  0  0
   49.8290   35.0130   42.5270 C   0  0  0  0  0  0  0  0  0  0  0  0
   50.4640   33.6790   42.2600 C   0  0  0  0  0  0  0  0  0  0  0  0
   49.4180   32.6060   42.0660 C   0  0  0  0  0  0  0  0  0  0  0  0
   48.3230   32.8900   43.0750 C   0  0  2  0  0  0  0  0  0  0  0  0
   44.6610   35.9780   44.0020 C   0  0  0  0  0  0  0  0  0  0  0  0
   45.6470   35.5860   43.0610 C   0  0  0  0  0  0  0  0  0  0  0  0
   46.4680   34.5140   43.4520 C   0  0  0  0  0  0  0  0  0  0  0  0
   46.2930   33.9170   44.6700 N   0  0  0  0  0  0  0  0  0  0  0  0
   45.3300   34.3340   45.5350 C   0  0  0  0  0  0  0  0  0  0  0  0
   44.5220   35.3590   45.1950 N   0  0  0  0  0  0  0  0  0  0  0  0
   47.3900   31.7190   43.2420 C   0  0  0  0  0  0  0  0  0  0  0  0
   46.9761   33.6293   41.6409 H   0  0  0  0  0  0  0  0  0  0  0  0
   48.4352   35.1612   40.9471 H   0  0  0  0  0  0  0  0  0  0  0  0
   48.0302   36.0863   42.4677 H   0  0  0  0  0  0  0  0  0  0  0  0
   50.4366   35.7850   42.0322 H   0  0  0  0  0  0  0  0  0  0  0  0
   49.7906   35.1211   43.6210 H   0  0  0  0  0  0  0  0  0  0  0  0
   51.0788   33.7496   41.3506 H   0  0  0  0  0  0  0  0  0  0  0  0
   51.0845   33.4084   43.1270 H   0  0  0  0  0  0  0  0  0  0  0  0
   49.0140   32.6486   41.0438 H   0  0  0  0  0  0  0  0  0  0  0  0
   49.8440   31.6023   42.2110 H   0  0  0  0  0  0  0  0  0  0  0  0
   48.7797   33.1096   44.0513 H   0  0  0  0  0  0  0  0  0  0  0  0
   43.9884   36.8120   43.7529 H   0  0  0  0  0  0  0  0  0  0  0  0
   45.7618   36.0879   42.0889 H   0  0  0  0  0  0  0  0  0  0  0  0
   45.2104   33.8369   46.5089 H   0  0  0  0  0  0  0  0  0  0  0  0
   47.2346   31.5239   44.3133 H   0  0  0  0  0  0  0  0  0  0  0  0
   46.4247   31.9487   42.7673 H   0  0  0  0  0  0  0  0  0  0  0  0
   47.8295   30.8294   42.7673 H   0  0  0  0  0  0  0  0  0  0  0  0
  1  6  1  0
  1  9  1  0
  2  1  1  0
  2  3  1  0
  4  3  1  0
  5  4  1  0
  5  6  1  0
  6 13  1  0
  7 12  2  0
  8  9  2  0
  8  7  1  0
  9 10  1  0
 10 11  2  0
 12 11  1  0
  1 14  1  6
  2 15  1  0
  2 16  1  0
  3 17  1  0
  3 18  1  0
  4 19  1  0
  4 20  1  0
  5 21  1  0
  5 22  1  0
  6 23  1  1
  7 24  1  0
  8 25  1  0
 11 26  1  0
 13 27  1  0
 13 28  1  0
 13 29  1  0
M  ISO  8  14  13  15  13  16  13  17  13  18  13  19  13  20  13  21  13
M  ISO  8  22  13  23  13  24  14  25  14  26  14  27   8  28   8  29   8
M  END
>  <minimizedAffinity>  (1) 
-4.85706425

>  <minimizedRMSD>  (1) 
0.0494246259

$$$$
