
     RDKit          3D

 21 22  0  0  0  0  0  0  0  0999 V2000
   46.5510   34.1780   43.6350 C   0  0  0  0  0  0  0  0  0  0  0  0
   45.5130   34.9620   44.0720 C   0  0  0  0  0  0  0  0  0  0  0  0
   44.9160   34.8250   45.3210 C   0  0  0  0  0  0  0  0  0  0  0  0
   45.4610   33.8270   46.0860 C   0  0  0  0  0  0  0  0  0  0  0  0
   46.4910   33.0210   45.7010 C   0  0  0  0  0  0  0  0  0  0  0  0
   46.9760   33.2530   44.4830 N   0  0  0  0  0  0  0  0  0  0  0  0
   48.7200   35.3850   40.9620 C   0  0  0  0  0  0  0  0  0  0  0  0
   48.2120   34.7040   39.8140 C   0  0  0  0  0  0  0  0  0  0  0  0
   47.1190   33.8320   39.9840 C   0  0  0  0  0  0  0  0  0  0  0  0
   46.6090   33.6890   41.2420 N   0  0  0  0  0  0  0  0  0  0  0  0
   47.1310   34.3670   42.3220 C   0  0  0  0  0  0  0  0  0  0  0  0
   48.1590   35.1830   42.1430 N   0  0  0  0  0  0  0  0  0  0  0  0
   44.9060   36.0200   43.2880 C   0  0  0  0  0  0  0  0  0  0  0  0
   45.1860   37.2450   43.2760 O   0  0  0  0  0  0  0  0  0  0  0  0
   44.0842   35.4585   45.6627 H   0  0  0  0  0  0  0  0  0  0  0  0
   45.0349   33.6638   47.0869 H   0  0  0  0  0  0  0  0  0  0  0  0
   46.8942   32.2320   46.3529 H   0  0  0  0  0  0  0  0  0  0  0  0
   49.5725   36.0733   40.8648 H   0  0  0  0  0  0  0  0  0  0  0  0
   48.6628   34.8566   38.8223 H   0  0  0  0  0  0  0  0  0  0  0  0
   46.6907   33.2845   39.1314 H   0  0  0  0  0  0  0  0  0  0  0  0
   44.0932   35.7094   42.6150 H   0  0  0  0  0  0  0  0  0  0  0  0
  1  2  2  0
  1  6  1  0
  2  3  1  0
  3  4  2  0
  5  4  1  0
  6  5  2  0
  7 12  2  0
  8  9  2  0
  8  7  1  0
  9 10  1  0
 10 11  2  0
 11  1  1  0
 12 11  1  0
 13  2  1  0
 14 13  2  0
  3 15  1  0
  4 16  1  0
  5 17  1  0
  7 18  1  0
  8 19  1  0
  9 20  1  0
 13 21  1  0
M  ISO  7  15  14  16  14  17  14  18  14  19  14  20  14  21   6
M  END
>  <minimizedAffinity>  (1) 
-4.42444324

>  <minimizedRMSD>  (1) 
4.4552598

$$$$
