
     RDKit          3D

 28 29  0  0  1  0  0  0  0  0999 V2000
   47.2060   34.3070   42.2350 C   0  0  1  0  0  0  0  0  0  0  0  0
   48.2790   35.3390   41.9480 C   0  0  0  0  0  0  0  0  0  0  0  0
   49.6460   34.9340   42.3860 C   0  0  0  0  0  0  0  0  0  0  0  0
   50.0780   33.5760   41.9120 C   0  0  0  0  0  0  0  0  0  0  0  0
   48.8940   32.7210   41.5370 C   0  0  0  0  0  0  0  0  0  0  0  0
   47.8170   32.9860   42.5610 C   0  0  1  0  0  0  0  0  0  0  0  0
   44.6530   36.3530   44.1160 C   0  0  0  0  0  0  0  0  0  0  0  0
   45.5420   35.9880   43.1020 C   0  0  0  0  0  0  0  0  0  0  0  0
   46.2470   34.7730   43.2770 C   0  0  0  0  0  0  0  0  0  0  0  0
   46.0300   34.0320   44.4020 N   0  0  0  0  0  0  0  0  0  0  0  0
   45.1550   34.4290   45.3590 C   0  0  0  0  0  0  0  0  0  0  0  0
   44.4710   35.5840   45.2150 N   0  0  0  0  0  0  0  0  0  0  0  0
   48.2780   32.8390   43.9090 N   0  0  0  0  0  0  0  0  0  0  0  0
   46.6104   34.1719   41.3201 H   0  0  0  0  0  0  0  0  0  0  0  0
   48.3032   35.5197   40.8632 H   0  0  0  0  0  0  0  0  0  0  0  0
   48.0154   36.2390   42.5228 H   0  0  0  0  0  0  0  0  0  0  0  0
   50.3627   35.6752   42.0026 H   0  0  0  0  0  0  0  0  0  0  0  0
   49.6200   34.8869   43.4847 H   0  0  0  0  0  0  0  0  0  0  0  0
   50.7271   33.6941   41.0318 H   0  0  0  0  0  0  0  0  0  0  0  0
   50.6177   33.0791   42.7316 H   0  0  0  0  0  0  0  0  0  0  0  0
   48.5355   32.9915   40.5329 H   0  0  0  0  0  0  0  0  0  0  0  0
   49.1679   31.6558   41.5217 H   0  0  0  0  0  0  0  0  0  0  0  0
   47.0288   32.2207   42.5052 H   0  0  0  0  0  0  0  0  0  0  0  0
   44.0857   37.2904   44.0187 H   0  0  0  0  0  0  0  0  0  0  0  0
   45.6873   36.6150   42.2099 H   0  0  0  0  0  0  0  0  0  0  0  0
   45.0023   33.8086   46.2544 H   0  0  0  0  0  0  0  0  0  0  0  0
   47.5177   33.0814   44.5602 H   0  0  0  0  0  0  0  0  0  0  0  0
   48.5684   31.8637   44.0681 H   0  0  0  0  0  0  0  0  0  0  0  0
  1  6  1  0
  1  9  1  0
  2  1  1  0
  2  3  1  0
  4  3  1  0
  5  4  1  0
  5  6  1  0
  6 13  1  0
  7 12  2  0
  8  9  2  0
  8  7  1  0
  9 10  1  0
 10 11  2  0
 12 11  1  0
  1 14  1  6
  2 15  1  0
  2 16  1  0
  3 17  1  0
  3 18  1  0
  4 19  1  0
  4 20  1  0
  5 21  1  0
  5 22  1  0
  6 23  1  6
  7 24  1  0
  8 25  1  0
 11 26  1  0
 13 27  1  0
 13 28  1  0
M  ISO  8  14  13  15  13  16  13  17  13  18  13  19  13  20  13  21  13
M  ISO  7  22  13  23  13  24  14  25  14  26  14  27   5  28   5
M  END
>  <minimizedAffinity>  (1) 
-4.52179623

>  <minimizedRMSD>  (1) 
0.475441784

$$$$
