
     RDKit          3D

 29 32  0  0  0  0  0  0  0  0999 V2000
   47.1280   31.3950   47.8760 N   0  0  0  0  0  0  0  0  0  0  0  0
   46.1070   32.1090   48.4100 C   0  0  0  0  0  0  0  0  0  0  0  0
   45.3990   32.6890   47.4160 N   0  0  0  0  0  0  0  0  0  0  0  0
   45.9950   32.3260   46.2600 C   0  0  0  0  0  0  0  0  0  0  0  0
   47.0440   31.5380   46.5740 N   0  0  0  0  0  0  0  0  0  0  0  0
   45.7400   32.6000   44.8650 N   0  0  0  0  0  0  0  0  0  0  0  0
   45.8410   31.7770   43.7810 C   0  0  0  0  0  0  0  0  0  0  0  0
   45.5000   32.4810   42.6830 N   0  0  0  0  0  0  0  0  0  0  0  0
   45.1850   33.7190   43.0330 C   0  0  0  0  0  0  0  0  0  0  0  0
   44.7720   34.8550   42.3630 C   0  0  0  0  0  0  0  0  0  0  0  0
   44.5380   35.9790   43.0790 N   0  0  0  0  0  0  0  0  0  0  0  0
   44.6840   36.0470   44.3980 C   0  0  0  0  0  0  0  0  0  0  0  0
   45.0840   34.9580   45.0790 N   0  0  0  0  0  0  0  0  0  0  0  0
   45.3290   33.8180   44.4030 C   0  0  0  0  0  0  0  0  0  0  0  0
   48.7810   31.1580   49.6210 C   0  0  0  0  0  0  0  0  0  0  0  0
   48.1460   30.6120   48.4930 C   0  0  0  0  0  0  0  0  0  0  0  0
   48.5530   29.3440   48.0550 C   0  0  0  0  0  0  0  0  0  0  0  0
   49.5410   28.7200   48.7510 N   0  0  0  0  0  0  0  0  0  0  0  0
   50.1310   29.2640   49.8250 C   0  0  0  0  0  0  0  0  0  0  0  0
   49.7440   30.4840   50.2540 N   0  0  0  0  0  0  0  0  0  0  0  0
   44.6000   34.8370   40.9510 N   0  0  0  0  0  0  0  0  0  0  0  0
   45.8890   32.2017   49.4842 H   0  0  0  0  0  0  0  0  0  0  0  0
   46.1479   30.7208   43.7999 H   0  0  0  0  0  0  0  0  0  0  0  0
   44.4791   36.9879   44.9297 H   0  0  0  0  0  0  0  0  0  0  0  0
   48.4816   32.1513   49.9865 H   0  0  0  0  0  0  0  0  0  0  0  0
   48.0888   28.8696   47.1778 H   0  0  0  0  0  0  0  0  0  0  0  0
   50.9266   28.7188   50.3540 H   0  0  0  0  0  0  0  0  0  0  0  0
   44.2919   35.6877   40.4588 H   0  0  0  0  0  0  0  0  0  0  0  0
   44.7836   33.9732   40.4208 H   0  0  0  0  0  0  0  0  0  0  0  0
  1  2  1  0
  1 16  1  0
  3  2  2  0
  4  5  2  0
  4  3  1  0
  5  1  1  0
  6  4  1  0
  7  6  1  0
  8  9  1  0
  8  7  2  0
  9 14  2  0
 10  9  1  0
 10 11  2  0
 11 12  1  0
 12 13  2  0
 14  6  1  0
 14 13  1  0
 15 20  2  0
 16 15  1  0
 17 16  2  0
 17 18  1  0
 18 19  2  0
 19 20  1  0
 21 10  1  0
  2 22  1  0
  7 23  1  0
 12 24  1  0
 15 25  1  0
 17 26  1  0
 19 27  1  0
 21 28  1  0
 21 29  1  0
M  ISO  6  22  14  23  14  24  14  25  14  26  14  27  14
M  END
>  <minimizedAffinity>  (1) 
-5.67063522

>  <minimizedRMSD>  (1) 
7.48133421

$$$$
