
     RDKit          3D

 27 28  0  0  1  0  0  0  0  0999 V2000
   47.2130   34.2510   42.2800 C   0  0  1  0  0  0  0  0  0  0  0  0
   48.2430   35.3180   41.9510 C   0  0  0  0  0  0  0  0  0  0  0  0
   49.6310   34.9630   42.3600 C   0  0  0  0  0  0  0  0  0  0  0  0
   50.0960   33.6160   41.8810 C   0  0  0  0  0  0  0  0  0  0  0  0
   48.9250   32.7130   41.5680 C   0  0  0  0  0  0  0  0  0  0  0  0
   47.8880   32.9640   42.6490 C   0  0  1  0  0  0  0  0  0  0  0  0
   44.6430   36.2840   44.1520 C   0  0  0  0  0  0  0  0  0  0  0  0
   45.5320   35.9120   43.1360 C   0  0  0  0  0  0  0  0  0  0  0  0
   46.2590   34.7110   43.3270 C   0  0  0  0  0  0  0  0  0  0  0  0
   46.0610   33.9880   44.4690 N   0  0  0  0  0  0  0  0  0  0  0  0
   45.1890   34.3910   45.4210 C   0  0  0  0  0  0  0  0  0  0  0  0
   44.4850   35.5310   45.2630 N   0  0  0  0  0  0  0  0  0  0  0  0
   48.5430   32.9640   43.8480 O   0  0  0  0  0  0  0  0  0  0  0  0
   46.6125   34.0627   41.3778 H   0  0  0  0  0  0  0  0  0  0  0  0
   48.2341   35.4846   40.8637 H   0  0  0  0  0  0  0  0  0  0  0  0
   47.9631   36.2180   42.5181 H   0  0  0  0  0  0  0  0  0  0  0  0
   50.3137   35.7256   41.9571 H   0  0  0  0  0  0  0  0  0  0  0  0
   49.6329   34.9223   43.4592 H   0  0  0  0  0  0  0  0  0  0  0  0
   50.7007   33.7477   40.9716 H   0  0  0  0  0  0  0  0  0  0  0  0
   50.6922   33.1493   42.6790 H   0  0  0  0  0  0  0  0  0  0  0  0
   48.5101   32.9573   40.5790 H   0  0  0  0  0  0  0  0  0  0  0  0
   49.2309   31.6566   41.5469 H   0  0  0  0  0  0  0  0  0  0  0  0
   47.1024   32.1992   42.7375 H   0  0  0  0  0  0  0  0  0  0  0  0
   44.0599   37.2104   44.0433 H   0  0  0  0  0  0  0  0  0  0  0  0
   45.6600   36.5242   42.2311 H   0  0  0  0  0  0  0  0  0  0  0  0
   45.0530   33.7858   46.3294 H   0  0  0  0  0  0  0  0  0  0  0  0
   48.7012   32.0306   44.1376 H   0  0  0  0  0  0  0  0  0  0  0  0
  1  6  1  0
  1  9  1  0
  2  1  1  0
  2  3  1  0
  4  3  1  0
  5  4  1  0
  5  6  1  0
  6 13  1  0
  7 12  2  0
  8  9  2  0
  8  7  1  0
  9 10  1  0
 10 11  2  0
 12 11  1  0
  1 14  1  6
  2 15  1  0
  2 16  1  0
  3 17  1  0
  3 18  1  0
  4 19  1  0
  4 20  1  0
  5 21  1  0
  5 22  1  0
  6 23  1  1
  7 24  1  0
  8 25  1  0
 11 26  1  0
 13 27  1  0
M  ISO  8  14  13  15  13  16  13  17  13  18  13  19  13  20  13  21  13
M  ISO  6  22  13  23  13  24  14  25  14  26  14  27   3
M  END
>  <minimizedAffinity>  (1) 
-4.50788355

>  <minimizedRMSD>  (1) 
0.415977895

$$$$
