
     RDKit          3D

 33 34  0  0  1  0  0  0  0  0999 V2000
   47.5110   34.0410   42.5020 C   0  0  1  0  0  0  0  0  0  0  0  0
   48.4130   35.1660   42.0230 C   0  0  0  0  0  0  0  0  0  0  0  0
   49.8130   35.0510   42.5260 C   0  0  0  0  0  0  0  0  0  0  0  0
   50.4560   33.7270   42.2540 C   0  0  0  0  0  0  0  0  0  0  0  0
   49.4270   32.6380   42.0730 C   0  0  0  0  0  0  0  0  0  0  0  0
   48.3190   32.9120   43.0690 C   0  0  2  0  0  0  0  0  0  0  0  0
   44.6910   36.0320   44.0200 C   0  0  0  0  0  0  0  0  0  0  0  0
   45.6620   35.6390   43.0940 C   0  0  0  0  0  0  0  0  0  0  0  0
   46.4610   34.5450   43.4320 C   0  0  0  0  0  0  0  0  0  0  0  0
   46.2610   33.9210   44.6290 N   0  0  0  0  0  0  0  0  0  0  0  0
   45.3010   34.3310   45.5120 C   0  0  0  0  0  0  0  0  0  0  0  0
   44.5250   35.3850   45.1950 N   0  0  0  0  0  0  0  0  0  0  0  0
   47.5660   31.7160   43.2660 N   0  0  0  0  0  0  0  0  0  0  0  0
   46.8190   31.2350   42.1470 C   0  0  0  0  0  0  0  0  0  0  0  0
   47.0460   31.5360   40.9150 N   0  0  0  0  0  0  0  0  0  0  0  0
   45.7130   30.3380   42.3710 N   0  0  0  0  0  0  0  0  0  0  0  0
   47.8290   32.1740   40.7130 H   0  0  0  0  0  0  0  0  0  0  0  0
   46.9714   33.6303   41.6359 H   0  0  0  0  0  0  0  0  0  0  0  0
   48.4344   35.1529   40.9233 H   0  0  0  0  0  0  0  0  0  0  0  0
   48.0002   36.1064   42.4169 H   0  0  0  0  0  0  0  0  0  0  0  0
   50.4179   35.8336   42.0446 H   0  0  0  0  0  0  0  0  0  0  0  0
   49.7660   35.1608   43.6195 H   0  0  0  0  0  0  0  0  0  0  0  0
   51.0592   33.8044   41.3374 H   0  0  0  0  0  0  0  0  0  0  0  0
   51.0859   33.4660   43.1172 H   0  0  0  0  0  0  0  0  0  0  0  0
   49.0286   32.6602   41.0479 H   0  0  0  0  0  0  0  0  0  0  0  0
   49.8701   31.6450   42.2392 H   0  0  0  0  0  0  0  0  0  0  0  0
   48.6897   33.2065   44.0619 H   0  0  0  0  0  0  0  0  0  0  0  0
   44.0448   36.8909   43.7860 H   0  0  0  0  0  0  0  0  0  0  0  0
   45.7911   36.1695   42.1391 H   0  0  0  0  0  0  0  0  0  0  0  0
   45.1642   33.8066   46.4692 H   0  0  0  0  0  0  0  0  0  0  0  0
   47.5612   31.2235   44.1706 H   0  0  0  0  0  0  0  0  0  0  0  0
   45.1668   29.9844   41.5725 H   0  0  0  0  0  0  0  0  0  0  0  0
   45.4689   30.0507   43.3295 H   0  0  0  0  0  0  0  0  0  0  0  0
  1  6  1  0
  1  9  1  0
  2  1  1  0
  2  3  1  0
  4  3  1  0
  5  4  1  0
  5  6  1  0
  6 13  1  0
  7 12  2  0
  8  9  2  0
  8  7  1  0
  9 10  1  0
 10 11  2  0
 12 11  1  0
 14 16  1  0
 14 13  1  0
 15 14  2  0
 17 15  1  0
  1 18  1  6
  2 19  1  0
  2 20  1  0
  3 21  1  0
  3 22  1  0
  4 23  1  0
  4 24  1  0
  5 25  1  0
  5 26  1  0
  6 27  1  1
  7 28  1  0
  8 29  1  0
 11 30  1  0
 13 31  1  0
 16 32  1  0
 16 33  1  0
M  ISO  8  18  13  19  13  20  13  21  13  22  13  23  13  24  13  25  13
M  ISO  5  26  13  27  13  28  14  29  14  30  14
M  END
>  <minimizedAffinity>  (1) 
-4.78484583

>  <minimizedRMSD>  (1) 
0.889637232

$$$$
