
     RDKit          3D

 26 28  0  0  0  0  0  0  0  0999 V2000
   46.9170   33.3890   44.2600 C   0  0  0  0  0  0  0  0  0  0  0  0
   45.8960   34.3330   44.2240 C   0  0  0  0  0  0  0  0  0  0  0  0
   45.0660   34.5530   45.3010 C   0  0  0  0  0  0  0  0  0  0  0  0
   45.3080   33.7870   46.4110 C   0  0  0  0  0  0  0  0  0  0  0  0
   46.3020   32.8480   46.4830 C   0  0  0  0  0  0  0  0  0  0  0  0
   47.0770   32.6820   45.3960 N   0  0  0  0  0  0  0  0  0  0  0  0
   49.7440   33.7270   42.0020 C   0  0  0  0  0  0  0  0  0  0  0  0
   49.4850   32.7480   40.9980 C   0  0  0  0  0  0  0  0  0  0  0  0
   48.3170   31.9690   41.1110 C   0  0  0  0  0  0  0  0  0  0  0  0
   47.5220   32.2170   42.1830 N   0  0  0  0  0  0  0  0  0  0  0  0
   47.7990   33.1540   43.1190 C   0  0  0  0  0  0  0  0  0  0  0  0
   48.9100   33.9020   43.0160 N   0  0  0  0  0  0  0  0  0  0  0  0
   45.7040   35.1320   42.9680 C   0  0  0  0  0  0  0  0  0  0  0  0
   44.3690   35.5200   42.5140 C   0  0  0  0  0  0  0  0  0  0  0  0
   45.1970   36.5670   43.1210 C   0  0  0  0  0  0  0  0  0  0  0  0
   44.2577   35.2986   45.2718 H   0  0  0  0  0  0  0  0  0  0  0  0
   44.6681   33.9346   47.2935 H   0  0  0  0  0  0  0  0  0  0  0  0
   46.4606   32.2526   47.3942 H   0  0  0  0  0  0  0  0  0  0  0  0
   50.6504   34.3464   41.9333 H   0  0  0  0  0  0  0  0  0  0  0  0
   50.1795   32.6049   40.1570 H   0  0  0  0  0  0  0  0  0  0  0  0
   48.0620   31.1987   40.3683 H   0  0  0  0  0  0  0  0  0  0  0  0
   46.5536   34.6212   42.4913 H   0  0  0  0  0  0  0  0  0  0  0  0
   44.1531   35.5572   41.4360 H   0  0  0  0  0  0  0  0  0  0  0  0
   43.3571   35.1389   42.7159 H   0  0  0  0  0  0  0  0  0  0  0  0
   44.9476   36.9637   44.1162 H   0  0  0  0  0  0  0  0  0  0  0  0
   45.5519   37.5636   42.8195 H   0  0  0  0  0  0  0  0  0  0  0  0
  1  6  2  0
  2  1  1  0
  2  3  2  0
  3  4  1  0
  4  5  2  0
  6  5  1  0
  7 12  2  0
  8  9  2  0
  8  7  1  0
  9 10  1  0
 10 11  2  0
 11  1  1  0
 12 11  1  0
 13 15  1  0
 13  2  1  0
 14 13  1  0
 14 15  1  0
  3 16  1  0
  4 17  1  0
  5 18  1  0
  7 19  1  0
  8 20  1  0
  9 21  1  0
 13 22  1  0
 14 23  1  0
 14 24  1  0
 15 25  1  0
 15 26  1  0
M  ISO  8  16  14  17  14  18  14  19  14  20  14  21  14  22  13  23  13
M  ISO  3  24  13  25  13  26  13
M  END
>  <minimizedAffinity>  (1) 
-4.17052603

>  <minimizedRMSD>  (1) 
4.50086117

$$$$
