
     RDKit          3D

 35 38  0  0  0  0  0  0  0  0999 V2000
   44.5830   35.7730   44.5330 C   0  0  0  0  0  0  0  0  0  0  0  0
   45.2920   35.8170   43.3160 C   0  0  0  0  0  0  0  0  0  0  0  0
   46.2840   34.8670   43.1250 C   0  0  0  0  0  0  0  0  0  0  0  0
   46.5080   33.9600   44.1110 N   0  0  0  0  0  0  0  0  0  0  0  0
   45.8020   33.9470   45.2750 C   0  0  0  0  0  0  0  0  0  0  0  0
   44.8310   34.8680   45.4800 N   0  0  0  0  0  0  0  0  0  0  0  0
   47.0610   34.8230   41.9310 N   0  0  0  0  0  0  0  0  0  0  0  0
   48.2860   35.3520   41.8130 C   0  0  0  0  0  0  0  0  0  0  0  0
   48.7150   35.1260   40.5580 N   0  0  0  0  0  0  0  0  0  0  0  0
   47.7470   34.4550   39.9070 C   0  0  0  0  0  0  0  0  0  0  0  0
   47.6980   33.9910   38.6090 C   0  0  0  0  0  0  0  0  0  0  0  0
   48.6320   34.1440   37.7810 O   0  0  0  0  0  0  0  0  0  0  0  0
   46.5750   33.3520   38.2660 N   0  0  0  0  0  0  0  0  0  0  0  0
   45.5100   33.1320   39.0770 C   0  0  0  0  0  0  0  0  0  0  0  0
   44.3750   32.4380   38.5860 N   0  0  0  0  0  0  0  0  0  0  0  0
   45.5530   33.5890   40.3610 N   0  0  0  0  0  0  0  0  0  0  0  0
   46.6730   34.2450   40.7600 C   0  0  0  0  0  0  0  0  0  0  0  0
   46.0520   32.9720   46.3230 C   0  0  0  0  0  0  0  0  0  0  0  0
   45.3680   32.9880   47.5160 C   0  0  0  0  0  0  0  0  0  0  0  0
   45.5890   32.0700   48.5260 C   0  0  0  0  0  0  0  0  0  0  0  0
   46.5470   31.1480   48.2320 C   0  0  0  0  0  0  0  0  0  0  0  0
   47.2660   31.0770   47.0650 C   0  0  0  0  0  0  0  0  0  0  0  0
   46.9710   32.0160   46.1530 N   0  0  0  0  0  0  0  0  0  0  0  0
   44.3880   34.0220   47.6760 N   0  0  0  0  0  0  0  0  0  0  0  0
   43.7917   36.5166   44.7090 H   0  0  0  0  0  0  0  0  0  0  0  0
   45.0679   36.5734   42.5494 H   0  0  0  0  0  0  0  0  0  0  0  0
   48.8427   35.8781   42.6025 H   0  0  0  0  0  0  0  0  0  0  0  0
   46.5129   32.9955   37.3016 H   0  0  0  0  0  0  0  0  0  0  0  0
   43.5668   32.2714   39.2024 H   0  0  0  0  0  0  0  0  0  0  0  0
   44.3588   32.1006   37.6130 H   0  0  0  0  0  0  0  0  0  0  0  0
   45.0411   32.0832   49.4797 H   0  0  0  0  0  0  0  0  0  0  0  0
   46.7645   30.3910   48.9999 H   0  0  0  0  0  0  0  0  0  0  0  0
   48.0299   30.3051   46.8898 H   0  0  0  0  0  0  0  0  0  0  0  0
   43.8437   34.0852   48.5481 H   0  0  0  0  0  0  0  0  0  0  0  0
   44.2282   34.7017   46.9188 H   0  0  0  0  0  0  0  0  0  0  0  0
  1  6  2  0
  2  1  1  0
  3  2  2  0
  3  4  1  0
  4  5  2  0
  5  6  1  0
  5 18  1  0
  7  3  1  0
  8  7  1  0
  9  8  2  0
 10  9  1  0
 10 17  2  0
 11 10  1  0
 12 11  2  0
 13 11  1  0
 13 14  1  0
 14 16  2  0
 15 14  1  0
 16 17  1  0
 17  7  1  0
 18 19  2  0
 19 24  1  0
 19 20  1  0
 21 20  2  0
 22 21  1  0
 23 18  1  0
 23 22  2  0
  1 25  1  0
  2 26  1  0
  8 27  1  0
 13 28  1  0
 15 29  1  0
 15 30  1  0
 20 31  1  0
 21 32  1  0
 22 33  1  0
 24 34  1  0
 24 35  1  0
M  ISO  7  25  14  26  14  27  14  28   9  31  14  32  14  33  14
M  END
>  <minimizedAffinity>  (1) 
-7.59893274

>  <minimizedRMSD>  (1) 
0.232406542

$$$$
