
     RDKit          3D

 34 37  0  0  0  0  0  0  0  0999 V2000
   44.6520   35.6590   44.3870 C   0  0  0  0  0  0  0  0  0  0  0  0
   45.4310   35.7120   43.2260 C   0  0  0  0  0  0  0  0  0  0  0  0
   46.4610   34.8050   43.1010 C   0  0  0  0  0  0  0  0  0  0  0  0
   46.6760   33.9080   44.0980 N   0  0  0  0  0  0  0  0  0  0  0  0
   45.8900   33.8870   45.2210 C   0  0  0  0  0  0  0  0  0  0  0  0
   44.8790   34.7700   45.3530 N   0  0  0  0  0  0  0  0  0  0  0  0
   46.1240   32.9280   46.2790 C   0  0  0  0  0  0  0  0  0  0  0  0
   45.4250   32.9850   47.4690 C   0  0  0  0  0  0  0  0  0  0  0  0
   45.6030   32.1030   48.5110 C   0  0  0  0  0  0  0  0  0  0  0  0
   46.5460   31.1500   48.2620 C   0  0  0  0  0  0  0  0  0  0  0  0
   47.2770   31.0330   47.1050 C   0  0  0  0  0  0  0  0  0  0  0  0
   47.0150   31.9500   46.1630 N   0  0  0  0  0  0  0  0  0  0  0  0
   44.4600   34.0360   47.6070 N   0  0  0  0  0  0  0  0  0  0  0  0
   47.2250   34.8820   41.9290 N   0  0  0  0  0  0  0  0  0  0  0  0
   48.3880   35.5760   41.7820 C   0  0  0  0  0  0  0  0  0  0  0  0
   48.8700   35.4430   40.5260 N   0  0  0  0  0  0  0  0  0  0  0  0
   48.0430   34.6650   39.8350 C   0  0  0  0  0  0  0  0  0  0  0  0
   48.0680   34.2190   38.5280 C   0  0  0  0  0  0  0  0  0  0  0  0
   47.0580   33.4250   38.1160 N   0  0  0  0  0  0  0  0  0  0  0  0
   46.0760   33.0980   38.9790 C   0  0  0  0  0  0  0  0  0  0  0  0
   46.0530   33.5350   40.2550 N   0  0  0  0  0  0  0  0  0  0  0  0
   47.0290   34.3300   40.7280 C   0  0  0  0  0  0  0  0  0  0  0  0
   49.1560   34.6160   37.6730 N   0  0  0  0  0  0  0  0  0  0  0  0
   43.8252   36.3747   44.5061 H   0  0  0  0  0  0  0  0  0  0  0  0
   45.2280   36.4532   42.4390 H   0  0  0  0  0  0  0  0  0  0  0  0
   45.0389   32.1614   49.4535 H   0  0  0  0  0  0  0  0  0  0  0  0
   46.7376   30.4122   49.0551 H   0  0  0  0  0  0  0  0  0  0  0  0
   48.0264   30.2407   46.9612 H   0  0  0  0  0  0  0  0  0  0  0  0
   43.9126   34.1218   48.4753 H   0  0  0  0  0  0  0  0  0  0  0  0
   44.3140   34.7054   46.8379 H   0  0  0  0  0  0  0  0  0  0  0  0
   48.8693   36.1645   42.5770 H   0  0  0  0  0  0  0  0  0  0  0  0
   45.2602   32.4485   38.6288 H   0  0  0  0  0  0  0  0  0  0  0  0
   49.1882   34.2913   36.6961 H   0  0  0  0  0  0  0  0  0  0  0  0
   49.9023   35.2248   38.0382 H   0  0  0  0  0  0  0  0  0  0  0  0
  1  6  2  0
  2  1  1  0
  3  2  2  0
  3  4  1  0
  4  5  2  0
  5  6  1  0
  5  7  1  0
  7  8  2  0
  8 13  1  0
  8  9  1  0
 10  9  2  0
 11 10  1  0
 12  7  1  0
 12 11  2  0
 14  3  1  0
 15 14  1  0
 16 15  2  0
 17 16  1  0
 17 22  2  0
 18 17  1  0
 19 18  2  0
 19 20  1  0
 20 21  2  0
 21 22  1  0
 22 14  1  0
 23 18  1  0
  1 24  1  0
  2 25  1  0
  9 26  1  0
 10 27  1  0
 11 28  1  0
 13 29  1  0
 13 30  1  0
 15 31  1  0
 20 32  1  0
 23 33  1  0
 23 34  1  0
M  ISO  7  24  14  25  14  26  14  27  14  28  14  31  14  32  14
M  END
>  <minimizedAffinity>  (1) 
-7.7923727

>  <minimizedRMSD>  (1) 
0.452851623

$$$$
