
     RDKit          3D

 34 36  0  0  0  0  0  0  0  0999 V2000
   44.4660   35.9430   44.7040 C   0  0  0  0  0  0  0  0  0  0  0  0
   45.0550   36.0730   43.4430 C   0  0  0  0  0  0  0  0  0  0  0  0
   46.0140   35.1300   43.0940 C   0  0  0  0  0  0  0  0  0  0  0  0
   46.3200   34.1500   43.9900 N   0  0  0  0  0  0  0  0  0  0  0  0
   45.7170   34.0620   45.2140 C   0  0  0  0  0  0  0  0  0  0  0  0
   44.7890   34.9680   45.5600 N   0  0  0  0  0  0  0  0  0  0  0  0
   46.0540   33.0120   46.1540 C   0  0  0  0  0  0  0  0  0  0  0  0
   45.4640   32.9180   47.3930 C   0  0  0  0  0  0  0  0  0  0  0  0
   45.7510   31.9390   48.3200 C   0  0  0  0  0  0  0  0  0  0  0  0
   46.6960   31.0470   47.8940 C   0  0  0  0  0  0  0  0  0  0  0  0
   47.3340   31.0750   46.6640 C   0  0  0  0  0  0  0  0  0  0  0  0
   46.9640   32.0810   45.8520 N   0  0  0  0  0  0  0  0  0  0  0  0
   44.4910   33.9270   47.6960 N   0  0  0  0  0  0  0  0  0  0  0  0
   46.7090   35.1460   41.8130 C   0  0  0  0  0  0  0  0  0  0  0  0
   48.2030   35.3390   41.9340 C   0  0  0  0  0  0  0  0  0  0  0  0
   48.6190   35.1380   40.4750 C   0  0  0  0  0  0  0  0  0  0  0  0
   47.6310   34.1340   39.9180 C   0  0  0  0  0  0  0  0  0  0  0  0
   46.6490   33.8560   41.0350 C   0  0  0  0  0  0  0  0  0  0  0  0
   43.7027   36.6755   45.0055 H   0  0  0  0  0  0  0  0  0  0  0  0
   44.7720   36.8855   42.7576 H   0  0  0  0  0  0  0  0  0  0  0  0
   45.2671   31.8809   49.3062 H   0  0  0  0  0  0  0  0  0  0  0  0
   46.9733   30.2386   48.5865 H   0  0  0  0  0  0  0  0  0  0  0  0
   48.0880   30.3288   46.3732 H   0  0  0  0  0  0  0  0  0  0  0  0
   44.0080   33.9200   48.6057 H   0  0  0  0  0  0  0  0  0  0  0  0
   44.2752   34.6587   47.0039 H   0  0  0  0  0  0  0  0  0  0  0  0
   46.1805   35.9735   41.3170 H   0  0  0  0  0  0  0  0  0  0  0  0
   48.4560   36.3468   42.2950 H   0  0  0  0  0  0  0  0  0  0  0  0
   48.6988   34.6696   42.6524 H   0  0  0  0  0  0  0  0  0  0  0  0
   48.5586   36.0869   39.9219 H   0  0  0  0  0  0  0  0  0  0  0  0
   49.6577   34.7866   40.3871 H   0  0  0  0  0  0  0  0  0  0  0  0
   47.1093   34.5541   39.0454 H   0  0  0  0  0  0  0  0  0  0  0  0
   48.1341   33.2145   39.5840 H   0  0  0  0  0  0  0  0  0  0  0  0
   45.6379   33.6686   40.6443 H   0  0  0  0  0  0  0  0  0  0  0  0
   46.8861   32.9613   41.6294 H   0  0  0  0  0  0  0  0  0  0  0  0
  1  6  2  0
  2  1  1  0
  3  2  2  0
  3  4  1  0
  4  5  2  0
  5  6  1  0
  5  7  1  0
  7  8  2  0
  8 13  1  0
  8  9  1  0
 10  9  2  0
 11 10  1  0
 12  7  1  0
 12 11  2  0
 14 15  1  0
 14  3  1  0
 16 15  1  0
 17 16  1  0
 17 18  1  0
 18 14  1  0
  1 19  1  0
  2 20  1  0
  9 21  1  0
 10 22  1  0
 11 23  1  0
 13 24  1  0
 13 25  1  0
 14 26  1  0
 15 27  1  0
 15 28  1  0
 16 29  1  0
 16 30  1  0
 17 31  1  0
 17 32  1  0
 18 33  1  0
 18 34  1  0
M  ISO  8  19  14  20  14  21  14  22  14  23  14  26  13  27  13  28  13
M  ISO  6  29  13  30  13  31  13  32  13  33  13  34  13
M  END
>  <minimizedAffinity>  (1) 
-6.83238316

>  <minimizedRMSD>  (1) 
0.742802441

$$$$
