
     RDKit          3D

 35 38  0  0  0  0  0  0  0  0999 V2000
   44.6840   35.6410   44.5320 C   0  0  0  0  0  0  0  0  0  0  0  0
   45.4240   35.6340   43.3470 C   0  0  0  0  0  0  0  0  0  0  0  0
   46.4250   34.6680   43.1990 C   0  0  0  0  0  0  0  0  0  0  0  0
   46.5750   33.8290   44.2330 N   0  0  0  0  0  0  0  0  0  0  0  0
   45.8550   33.8450   45.3760 C   0  0  0  0  0  0  0  0  0  0  0  0
   44.8960   34.7660   45.5250 N   0  0  0  0  0  0  0  0  0  0  0  0
   47.1390   34.7390   41.9330 C   0  0  0  0  0  0  0  0  0  0  0  0
   48.2120   35.5270   41.7940 N   0  0  0  0  0  0  0  0  0  0  0  0
   48.8640   35.5900   40.6380 C   0  0  0  0  0  0  0  0  0  0  0  0
   48.5520   34.9150   39.5240 N   0  0  0  0  0  0  0  0  0  0  0  0
   47.4790   34.1020   39.5970 C   0  0  0  0  0  0  0  0  0  0  0  0
   47.1120   33.3840   38.4870 C   0  0  0  0  0  0  0  0  0  0  0  0
   46.0340   32.5490   38.5150 C   0  0  0  0  0  0  0  0  0  0  0  0
   45.3240   32.4550   39.7130 C   0  0  0  0  0  0  0  0  0  0  0  0
   45.7270   33.1940   40.8020 C   0  0  0  0  0  0  0  0  0  0  0  0
   46.8090   34.0390   40.7940 C   0  0  0  0  0  0  0  0  0  0  0  0
   46.1040   32.8820   46.4340 C   0  0  0  0  0  0  0  0  0  0  0  0
   45.3790   32.9310   47.6160 C   0  0  0  0  0  0  0  0  0  0  0  0
   45.5530   32.0630   48.6580 C   0  0  0  0  0  0  0  0  0  0  0  0
   46.5170   31.1280   48.4320 C   0  0  0  0  0  0  0  0  0  0  0  0
   47.2740   31.0130   47.2960 C   0  0  0  0  0  0  0  0  0  0  0  0
   47.0140   31.9210   46.3430 N   0  0  0  0  0  0  0  0  0  0  0  0
   44.3880   33.9770   47.7190 N   0  0  0  0  0  0  0  0  0  0  0  0
   43.8940   36.3965   44.6553 H   0  0  0  0  0  0  0  0  0  0  0  0
   45.2250   36.3679   42.5522 H   0  0  0  0  0  0  0  0  0  0  0  0
   49.7382   36.2561   40.5917 H   0  0  0  0  0  0  0  0  0  0  0  0
   47.6962   33.4833   37.5602 H   0  0  0  0  0  0  0  0  0  0  0  0
   45.7355   31.9718   37.6275 H   0  0  0  0  0  0  0  0  0  0  0  0
   44.4476   31.7943   39.7864 H   0  0  0  0  0  0  0  0  0  0  0  0
   45.1484   33.1022   41.7330 H   0  0  0  0  0  0  0  0  0  0  0  0
   44.9702   32.1149   49.5895 H   0  0  0  0  0  0  0  0  0  0  0  0
   46.7048   30.3992   49.2342 H   0  0  0  0  0  0  0  0  0  0  0  0
   48.0396   30.2327   47.1740 H   0  0  0  0  0  0  0  0  0  0  0  0
   43.8182   34.0643   48.5726 H   0  0  0  0  0  0  0  0  0  0  0  0
   44.2512   34.6355   46.9389 H   0  0  0  0  0  0  0  0  0  0  0  0
  1  6  2  0
  2  1  1  0
  3  2  2  0
  3  4  1  0
  4  5  2  0
  5  6  1  0
  5 17  1  0
  7  3  1  0
  8  7  2  0
  9  8  1  0
 10 11  1  0
 10  9  2  0
 11 16  2  0
 12 13  2  0
 12 11  1  0
 13 14  1  0
 14 15  2  0
 16 15  1  0
 16  7  1  0
 17 18  2  0
 18 23  1  0
 18 19  1  0
 20 19  2  0
 21 20  1  0
 22 17  1  0
 22 21  2  0
  1 24  1  0
  2 25  1  0
  9 26  1  0
 12 27  1  0
 13 28  1  0
 14 29  1  0
 15 30  1  0
 19 31  1  0
 20 32  1  0
 21 33  1  0
 23 34  1  0
 23 35  1  0
M  ISO  8  24  14  25  14  26  14  27  14  28  14  29  14  30  14  31  14
M  ISO  2  32  14  33  14
M  END
>  <minimizedAffinity>  (1) 
-7.10697699

>  <minimizedRMSD>  (1) 
1.07242036

$$$$
