
     RDKit          3D

 35 37  0  0  0  0  0  0  0  0999 V2000
   44.9080   35.3100   44.4510 C   0  0  0  0  0  0  0  0  0  0  0  0
   45.6830   35.1890   43.2900 C   0  0  0  0  0  0  0  0  0  0  0  0
   46.6570   34.2140   43.2590 C   0  0  0  0  0  0  0  0  0  0  0  0
   46.8140   33.4280   44.3510 N   0  0  0  0  0  0  0  0  0  0  0  0
   46.0340   33.5770   45.4740 C   0  0  0  0  0  0  0  0  0  0  0  0
   45.0830   34.5200   45.5180 N   0  0  0  0  0  0  0  0  0  0  0  0
   46.2140   32.7250   46.6360 C   0  0  0  0  0  0  0  0  0  0  0  0
   45.4480   32.8560   47.7650 C   0  0  0  0  0  0  0  0  0  0  0  0
   45.5790   32.0760   48.8910 C   0  0  0  0  0  0  0  0  0  0  0  0
   46.5610   31.1380   48.7840 C   0  0  0  0  0  0  0  0  0  0  0  0
   47.3700   30.9440   47.6840 C   0  0  0  0  0  0  0  0  0  0  0  0
   47.1550   31.7600   46.6460 N   0  0  0  0  0  0  0  0  0  0  0  0
   44.4540   33.8880   47.7340 N   0  0  0  0  0  0  0  0  0  0  0  0
   47.4950   34.0070   42.1350 N   0  0  0  0  0  0  0  0  0  0  0  0
   46.9930   34.2470   40.7770 C   0  0  0  0  0  0  0  0  0  0  0  0
   48.1660   34.5200   39.8450 C   0  0  0  0  0  0  0  0  0  0  0  0
   48.9230   33.3060   39.8120 N   0  0  0  0  0  0  0  0  0  0  0  0
   49.4260   32.8890   41.0780 C   0  0  0  0  0  0  0  0  0  0  0  0
   48.8550   33.5590   42.2760 C   0  0  0  0  0  0  0  0  0  0  0  0
   44.1263   36.0831   44.4874 H   0  0  0  0  0  0  0  0  0  0  0  0
   45.5190   35.8527   42.4283 H   0  0  0  0  0  0  0  0  0  0  0  0
   44.9535   32.1977   49.7876 H   0  0  0  0  0  0  0  0  0  0  0  0
   46.7226   30.4785   49.6494 H   0  0  0  0  0  0  0  0  0  0  0  0
   48.1459   30.1646   47.6615 H   0  0  0  0  0  0  0  0  0  0  0  0
   43.8440   34.0402   48.5499 H   0  0  0  0  0  0  0  0  0  0  0  0
   44.3496   34.4775   46.8958 H   0  0  0  0  0  0  0  0  0  0  0  0
   46.4444   33.3603   40.4265 H   0  0  0  0  0  0  0  0  0  0  0  0
   46.3184   35.1159   40.7828 H   0  0  0  0  0  0  0  0  0  0  0  0
   47.8047   34.7745   38.8377 H   0  0  0  0  0  0  0  0  0  0  0  0
   48.7732   35.3685   40.1933 H   0  0  0  0  0  0  0  0  0  0  0  0
   48.3168   32.5587   39.4447 H   0  0  0  0  0  0  0  0  0  0  0  0
   49.2323   31.8105   41.1750 H   0  0  0  0  0  0  0  0  0  0  0  0
   50.4907   33.1654   41.0717 H   0  0  0  0  0  0  0  0  0  0  0  0
   49.4798   34.4343   42.5071 H   0  0  0  0  0  0  0  0  0  0  0  0
   48.8471   32.8030   43.0750 H   0  0  0  0  0  0  0  0  0  0  0  0
  1  6  2  0
  2  1  1  0
  3  2  2  0
  3  4  1  0
  4  5  2  0
  5  6  1  0
  5  7  1  0
  7 12  1  0
  7  8  2  0
  8  9  1  0
 10  9  2  0
 11 10  1  0
 12 11  2  0
 13  8  1  0
 14 19  1  0
 14  3  1  0
 15 14  1  0
 16 15  1  0
 17 16  1  0
 17 18  1  0
 18 19  1  0
  1 20  1  0
  2 21  1  0
  9 22  1  0
 10 23  1  0
 11 24  1  0
 13 25  1  0
 13 26  1  0
 15 27  1  0
 15 28  1  0
 16 29  1  0
 16 30  1  0
 17 31  1  0
 18 32  1  0
 18 33  1  0
 19 34  1  0
 19 35  1  0
M  ISO  8  20  14  21  14  22  14  23  14  24  14  27  13  28  13  29  13
M  ISO  6  30  13  31   5  32  13  33  13  34  13  35  13
M  END
>  <minimizedAffinity>  (1) 
-6.42074633

>  <minimizedRMSD>  (1) 
0.890063584

$$$$
