
     RDKit          3D

 26 28  0  0  0  0  0  0  0  0999 V2000
   44.5110   35.8620   44.6080 C   0  0  0  0  0  0  0  0  0  0  0  0
   45.1620   35.9370   43.3700 C   0  0  0  0  0  0  0  0  0  0  0  0
   46.1340   34.9960   43.1000 C   0  0  0  0  0  0  0  0  0  0  0  0
   46.4090   34.0500   44.0430 N   0  0  0  0  0  0  0  0  0  0  0  0
   45.7500   34.0090   45.2460 C   0  0  0  0  0  0  0  0  0  0  0  0
   44.8020   34.9260   45.5100 N   0  0  0  0  0  0  0  0  0  0  0  0
   46.0430   33.0010   46.2500 C   0  0  0  0  0  0  0  0  0  0  0  0
   45.4100   32.9620   47.4590 C   0  0  0  0  0  0  0  0  0  0  0  0
   45.6590   32.0250   48.4350 C   0  0  0  0  0  0  0  0  0  0  0  0
   46.6140   31.1170   48.0860 C   0  0  0  0  0  0  0  0  0  0  0  0
   47.2920   31.0950   46.8920 C   0  0  0  0  0  0  0  0  0  0  0  0
   46.9670   32.0570   46.0140 N   0  0  0  0  0  0  0  0  0  0  0  0
   44.4260   33.9860   47.6830 N   0  0  0  0  0  0  0  0  0  0  0  0
   46.9350   34.8810   41.8870 C   0  0  0  0  0  0  0  0  0  0  0  0
   46.7520   34.2790   40.7000 N   0  0  0  0  0  0  0  0  0  0  0  0
   47.7900   34.4740   39.9340 O   0  0  0  0  0  0  0  0  0  0  0  0
   48.6910   35.2060   40.5810 C   0  0  0  0  0  0  0  0  0  0  0  0
   48.1590   35.4650   41.8110 N   0  0  0  0  0  0  0  0  0  0  0  0
   43.7321   36.6021   44.8436 H   0  0  0  0  0  0  0  0  0  0  0  0
   44.9072   36.7185   42.6390 H   0  0  0  0  0  0  0  0  0  0  0  0
   45.1378   32.0099   49.4036 H   0  0  0  0  0  0  0  0  0  0  0  0
   46.8620   30.3376   48.8215 H   0  0  0  0  0  0  0  0  0  0  0  0
   48.0552   30.3350   46.6686 H   0  0  0  0  0  0  0  0  0  0  0  0
   43.9091   34.0176   48.5734 H   0  0  0  0  0  0  0  0  0  0  0  0
   44.2379   34.6880   46.9531 H   0  0  0  0  0  0  0  0  0  0  0  0
   49.6691   35.5367   40.2015 H   0  0  0  0  0  0  0  0  0  0  0  0
  1  6  2  0
  2  1  1  0
  3  2  2  0
  3  4  1  0
  4  5  2  0
  5  6  1  0
  5  7  1  0
  7  8  2  0
  8 13  1  0
  8  9  1  0
 10  9  2  0
 11 10  1  0
 12  7  1  0
 12 11  2  0
 14  3  1  0
 15 14  2  0
 16 17  1  0
 16 15  1  0
 17 18  2  0
 18 14  1  0
  1 19  1  0
  2 20  1  0
  9 21  1  0
 10 22  1  0
 11 23  1  0
 13 24  1  0
 13 25  1  0
 17 26  1  0
M  ISO  6  19  14  20  14  21  14  22  14  23  14  26  14
M  END
>  <minimizedAffinity>  (1) 
-6.48189688

>  <minimizedRMSD>  (1) 
0.37738654

$$$$
