
     RDKit          3D

 27 30  0  0  0  0  0  0  0  0999 V2000
   44.6980   34.2940   43.0150 N   0  0  0  0  0  0  0  0  0  0  0  0
   44.5470   35.6210   42.8120 C   0  0  0  0  0  0  0  0  0  0  0  0
   43.7190   35.8390   41.7830 N   0  0  0  0  0  0  0  0  0  0  0  0
   43.3360   34.6220   41.3210 C   0  0  0  0  0  0  0  0  0  0  0  0
   43.9540   33.7050   42.0970 N   0  0  0  0  0  0  0  0  0  0  0  0
   42.4460   34.4230   40.2180 N   0  0  0  0  0  0  0  0  0  0  0  0
   42.6060   34.6040   38.8940 C   0  0  0  0  0  0  0  0  0  0  0  0
   41.4390   34.2620   38.2840 N   0  0  0  0  0  0  0  0  0  0  0  0
   40.5700   33.8740   39.2370 C   0  0  0  0  0  0  0  0  0  0  0  0
   39.2760   33.4520   39.0150 C   0  0  0  0  0  0  0  0  0  0  0  0
   38.5350   33.0950   40.1060 N   0  0  0  0  0  0  0  0  0  0  0  0
   39.1450   33.1880   41.3240 C   0  0  0  0  0  0  0  0  0  0  0  0
   40.4090   33.6020   41.5100 N   0  0  0  0  0  0  0  0  0  0  0  0
   41.1940   33.9700   40.4690 C   0  0  0  0  0  0  0  0  0  0  0  0
   45.4340   34.0450   45.3000 C   0  0  0  0  0  0  0  0  0  0  0  0
   45.4660   33.5790   43.9740 C   0  0  0  0  0  0  0  0  0  0  0  0
   46.2440   32.4490   43.6780 C   0  0  0  0  0  0  0  0  0  0  0  0
   46.9210   31.8700   44.6930 N   0  0  0  0  0  0  0  0  0  0  0  0
   46.8800   32.3300   45.9520 C   0  0  0  0  0  0  0  0  0  0  0  0
   46.1410   33.4040   46.2360 N   0  0  0  0  0  0  0  0  0  0  0  0
   45.0339   36.4083   43.4062 H   0  0  0  0  0  0  0  0  0  0  0  0
   43.5174   34.9641   38.3944 H   0  0  0  0  0  0  0  0  0  0  0  0
   38.8567   33.4047   37.9991 H   0  0  0  0  0  0  0  0  0  0  0  0
   38.5619   32.9048   42.2127 H   0  0  0  0  0  0  0  0  0  0  0  0
   44.8335   34.9278   45.5645 H   0  0  0  0  0  0  0  0  0  0  0  0
   46.3004   32.0489   42.6549 H   0  0  0  0  0  0  0  0  0  0  0  0
   47.4516   31.8255   46.7449 H   0  0  0  0  0  0  0  0  0  0  0  0
  1 16  1  0
  2  1  1  0
  3  2  2  0
  4  3  1  0
  4  5  2  0
  5  1  1  0
  6 14  1  0
  6  4  1  0
  7  6  1  0
  8  7  2  0
  8  9  1  0
  9 14  2  0
 10  9  1  0
 10 11  2  0
 11 12  1  0
 12 13  2  0
 14 13  1  0
 15 20  2  0
 16 15  1  0
 17 16  2  0
 17 18  1  0
 18 19  2  0
 19 20  1  0
  2 21  1  0
  7 22  1  0
 10 23  1  0
 12 24  1  0
 15 25  1  0
 17 26  1  0
 19 27  1  0
M  ISO  7  21  14  22  14  23  14  24  14  25  14  26  14  27  14
M  END
>  <minimizedAffinity>  (1) 
-5.23864841

>  <minimizedRMSD>  (1) 
2.6629324

$$$$
