
     RDKit          3D

 28 30  0  0  0  0  0  0  0  0999 V2000
   44.6100   35.7230   44.5000 C   0  0  0  0  0  0  0  0  0  0  0  0
   45.3190   35.7450   43.2930 C   0  0  0  0  0  0  0  0  0  0  0  0
   46.3070   34.7970   43.1400 C   0  0  0  0  0  0  0  0  0  0  0  0
   46.5450   33.9020   44.1420 N   0  0  0  0  0  0  0  0  0  0  0  0
   45.8280   33.9180   45.3030 C   0  0  0  0  0  0  0  0  0  0  0  0
   44.8660   34.8360   45.4600 N   0  0  0  0  0  0  0  0  0  0  0  0
   46.0740   32.9760   46.3680 C   0  0  0  0  0  0  0  0  0  0  0  0
   45.3750   33.0050   47.5440 C   0  0  0  0  0  0  0  0  0  0  0  0
   45.5750   32.1230   48.5960 C   0  0  0  0  0  0  0  0  0  0  0  0
   46.5520   31.2010   48.3450 C   0  0  0  0  0  0  0  0  0  0  0  0
   47.2880   31.1150   47.1910 C   0  0  0  0  0  0  0  0  0  0  0  0
   47.0130   32.0180   46.2390 N   0  0  0  0  0  0  0  0  0  0  0  0
   44.3800   34.0300   47.6630 N   0  0  0  0  0  0  0  0  0  0  0  0
   47.0550   34.7790   41.9300 N   0  0  0  0  0  0  0  0  0  0  0  0
   46.8740   34.1790   40.7450 C   0  0  0  0  0  0  0  0  0  0  0  0
   47.8940   34.4750   39.8780 C   0  0  0  0  0  0  0  0  0  0  0  0
   48.7400   35.2930   40.5620 N   0  0  0  0  0  0  0  0  0  0  0  0
   48.2170   35.4620   41.7900 C   0  0  0  0  0  0  0  0  0  0  0  0
   43.8135   36.4644   44.6612 H   0  0  0  0  0  0  0  0  0  0  0  0
   45.0984   36.4819   42.5066 H   0  0  0  0  0  0  0  0  0  0  0  0
   45.0053   32.1618   49.5362 H   0  0  0  0  0  0  0  0  0  0  0  0
   46.7661   30.4661   49.1350 H   0  0  0  0  0  0  0  0  0  0  0  0
   48.0626   30.3461   47.0538 H   0  0  0  0  0  0  0  0  0  0  0  0
   43.8191   34.1058   48.5235 H   0  0  0  0  0  0  0  0  0  0  0  0
   44.2259   34.6907   46.8880 H   0  0  0  0  0  0  0  0  0  0  0  0
   46.0181   33.5329   40.5000 H   0  0  0  0  0  0  0  0  0  0  0  0
   48.0058   34.1234   38.8417 H   0  0  0  0  0  0  0  0  0  0  0  0
   48.6743   36.0763   42.5797 H   0  0  0  0  0  0  0  0  0  0  0  0
  1  6  2  0
  2  1  1  0
  3  2  2  0
  3  4  1  0
  4  5  2  0
  5  6  1  0
  5  7  1  0
  7  8  2  0
  8 13  1  0
  8  9  1  0
 10  9  2  0
 11 10  1  0
 12  7  1  0
 12 11  2  0
 14  3  1  0
 15 14  1  0
 16 17  1  0
 16 15  2  0
 17 18  2  0
 18 14  1  0
  1 19  1  0
  2 20  1  0
  9 21  1  0
 10 22  1  0
 11 23  1  0
 13 24  1  0
 13 25  1  0
 15 26  1  0
 16 27  1  0
 18 28  1  0
M  ISO  8  19  14  20  14  21  14  22  14  23  14  26  14  27  14  28  14
M  END
>  <minimizedAffinity>  (1) 
-6.49179029

>  <minimizedRMSD>  (1) 
0.373627067

$$$$
