
     RDKit          3D

 22 23  0  0  0  0  0  0  0  0999 V2000
   46.0310   33.0760   46.1610 C   0  0  0  0  0  0  0  0  0  0  0  0
   45.3920   33.0520   47.3750 C   0  0  0  0  0  0  0  0  0  0  0  0
   45.6240   32.1350   48.3670 C   0  0  0  0  0  0  0  0  0  0  0  0
   46.5750   31.2140   48.0390 C   0  0  0  0  0  0  0  0  0  0  0  0
   47.2570   31.1740   46.8450 C   0  0  0  0  0  0  0  0  0  0  0  0
   46.9420   32.1260   45.9530 N   0  0  0  0  0  0  0  0  0  0  0  0
   44.5070   35.9310   44.5080 C   0  0  0  0  0  0  0  0  0  0  0  0
   45.1650   35.9900   43.2540 C   0  0  0  0  0  0  0  0  0  0  0  0
   46.1270   35.0360   43.0030 C   0  0  0  0  0  0  0  0  0  0  0  0
   46.3880   34.1060   43.9600 N   0  0  0  0  0  0  0  0  0  0  0  0
   45.7330   34.0770   45.1630 C   0  0  0  0  0  0  0  0  0  0  0  0
   44.7960   35.0000   45.4170 N   0  0  0  0  0  0  0  0  0  0  0  0
   46.8820   34.9210   41.8410 O   0  0  0  0  0  0  0  0  0  0  0  0
   44.4120   34.0770   47.5960 N   0  0  0  0  0  0  0  0  0  0  0  0
   45.0957   32.1413   49.3318 H   0  0  0  0  0  0  0  0  0  0  0  0
   46.8151   30.4439   48.7868 H   0  0  0  0  0  0  0  0  0  0  0  0
   48.0162   30.4066   46.6337 H   0  0  0  0  0  0  0  0  0  0  0  0
   43.7328   36.6777   44.7385 H   0  0  0  0  0  0  0  0  0  0  0  0
   44.9182   36.7644   42.5128 H   0  0  0  0  0  0  0  0  0  0  0  0
   47.5523   34.1974   41.7558 H   0  0  0  0  0  0  0  0  0  0  0  0
   43.8972   34.1137   48.4874 H   0  0  0  0  0  0  0  0  0  0  0  0
   44.2235   34.7759   46.8632 H   0  0  0  0  0  0  0  0  0  0  0  0
  1  2  2  0
  2 14  1  0
  2  3  1  0
  4  3  2  0
  5  4  1  0
  6  1  1  0
  6  5  2  0
  7 12  2  0
  8  7  1  0
  9  8  2  0
  9 10  1  0
 10 11  2  0
 11 12  1  0
 11  1  1  0
 13  9  1  0
  3 15  1  0
  4 16  1  0
  5 17  1  0
  7 18  1  0
  8 19  1  0
 13 20  1  0
 14 21  1  0
 14 22  1  0
M  ISO  6  15  14  16  14  17  14  18  14  19  14  20   3
M  END
>  <minimizedAffinity>  (1) 
-5.56534529

>  <minimizedRMSD>  (1) 
0.132935584

$$$$
