
     RDKit          3D

 23 25  0  0  0  0  0  0  0  0999 V2000
   46.1340   33.3860   45.6490 N   0  0  0  0  0  0  0  0  0  0  0  0
   45.2120   34.3280   45.3340 C   0  0  0  0  0  0  0  0  0  0  0  0
   45.4980   34.8690   44.1360 N   0  0  0  0  0  0  0  0  0  0  0  0
   46.6220   34.2480   43.7010 C   0  0  0  0  0  0  0  0  0  0  0  0
   46.9800   33.3550   44.6410 N   0  0  0  0  0  0  0  0  0  0  0  0
   45.3140   32.7010   47.8240 C   0  0  0  0  0  0  0  0  0  0  0  0
   46.2590   32.5450   46.7990 C   0  0  0  0  0  0  0  0  0  0  0  0
   47.2720   31.5840   46.9500 C   0  0  0  0  0  0  0  0  0  0  0  0
   47.2710   30.8480   48.1040 N   0  0  0  0  0  0  0  0  0  0  0  0
   46.3550   31.0160   49.0710 C   0  0  0  0  0  0  0  0  0  0  0  0
   45.3810   31.9430   48.9240 N   0  0  0  0  0  0  0  0  0  0  0  0
   47.2740   34.5160   42.4720 C   0  0  0  0  0  0  0  0  0  0  0  0
   48.2380   35.3100   41.9420 C   0  0  0  0  0  0  0  0  0  0  0  0
   48.5930   35.2570   40.6370 C   0  0  0  0  0  0  0  0  0  0  0  0
   47.8960   34.3250   39.8630 C   0  0  0  0  0  0  0  0  0  0  0  0
   46.7400   33.5440   41.0510 S   0  0  0  0  0  0  0  0  0  0  0  0
   44.3559   34.6089   45.9650 H   0  0  0  0  0  0  0  0  0  0  0  0
   44.5146   33.4498   47.7227 H   0  0  0  0  0  0  0  0  0  0  0  0
   48.0349   31.4292   46.1728 H   0  0  0  0  0  0  0  0  0  0  0  0
   46.3965   30.4005   49.9818 H   0  0  0  0  0  0  0  0  0  0  0  0
   48.7521   36.0262   42.5998 H   0  0  0  0  0  0  0  0  0  0  0  0
   49.3765   35.9032   40.2144 H   0  0  0  0  0  0  0  0  0  0  0  0
   48.0139   34.1104   38.7906 H   0  0  0  0  0  0  0  0  0  0  0  0
  1  7  1  0
  2  1  1  0
  3  2  2  0
  4  3  1  0
  4  5  2  0
  5  1  1  0
  6 11  2  0
  7  8  2  0
  7  6  1  0
  8  9  1  0
  9 10  2  0
 11 10  1  0
 12  4  1  0
 13 12  2  0
 14 13  1  0
 15 14  2  0
 15 16  1  0
 16 12  1  0
  2 17  1  0
  6 18  1  0
  8 19  1  0
 10 20  1  0
 13 21  1  0
 14 22  1  0
 15 23  1  0
M  ISO  7  17  14  18  14  19  14  20  14  21  14  22  14  23  14
M  END
>  <minimizedAffinity>  (1) 
-5.04748201

>  <minimizedRMSD>  (1) 
5.21009207

$$$$
