
     RDKit          3D

 22 23  0  0  0  0  0  0  0  0999 V2000
   46.0630   32.9990   46.3430 C   0  0  0  0  0  0  0  0  0  0  0  0
   45.3860   33.0020   47.5300 C   0  0  0  0  0  0  0  0  0  0  0  0
   45.5930   32.1210   48.5660 C   0  0  0  0  0  0  0  0  0  0  0  0
   46.5740   31.2040   48.2970 C   0  0  0  0  0  0  0  0  0  0  0  0
   47.3020   31.1360   47.1250 C   0  0  0  0  0  0  0  0  0  0  0  0
   47.0070   32.0500   46.1910 N   0  0  0  0  0  0  0  0  0  0  0  0
   44.5850   35.7710   44.5250 C   0  0  0  0  0  0  0  0  0  0  0  0
   45.2720   35.7850   43.3080 C   0  0  0  0  0  0  0  0  0  0  0  0
   46.2510   34.8350   43.1110 C   0  0  0  0  0  0  0  0  0  0  0  0
   46.5050   33.9300   44.1010 N   0  0  0  0  0  0  0  0  0  0  0  0
   45.8040   33.9520   45.2840 C   0  0  0  0  0  0  0  0  0  0  0  0
   44.8520   34.8770   45.4760 N   0  0  0  0  0  0  0  0  0  0  0  0
   47.2480   34.6660   41.6420 S   0  0  0  0  0  0  0  0  0  0  0  0
   44.3870   34.0240   47.6620 N   0  0  0  0  0  0  0  0  0  0  0  0
   45.0301   32.1500   49.5106 H   0  0  0  0  0  0  0  0  0  0  0  0
   46.8004   30.4620   49.0769 H   0  0  0  0  0  0  0  0  0  0  0  0
   48.0800   30.3744   46.9675 H   0  0  0  0  0  0  0  0  0  0  0  0
   43.8001   36.5208   44.7030 H   0  0  0  0  0  0  0  0  0  0  0  0
   45.0390   36.5298   42.5328 H   0  0  0  0  0  0  0  0  0  0  0  0
   48.5523   34.4449   41.9982 H   0  0  0  0  0  0  0  0  0  0  0  0
   43.8326   34.0935   48.5273 H   0  0  0  0  0  0  0  0  0  0  0  0
   44.2245   34.6879   46.8915 H   0  0  0  0  0  0  0  0  0  0  0  0
  1  2  2  0
  2 14  1  0
  2  3  1  0
  4  3  2  0
  5  4  1  0
  6  1  1  0
  6  5  2  0
  7 12  2  0
  8  7  1  0
  9  8  2  0
  9 10  1  0
 10 11  2  0
 11 12  1  0
 11  1  1  0
 13  9  1  0
  3 15  1  0
  4 16  1  0
  5 17  1  0
  7 18  1  0
  8 19  1  0
 13 20  1  0
 14 21  1  0
 14 22  1  0
M  ISO  6  15  14  16  14  17  14  18  14  19  14  20  11
M  END
>  <minimizedAffinity>  (1) 
-5.56032419

>  <minimizedRMSD>  (1) 
0.106483541

$$$$
