
     RDKit          3D

 23 24  0  0  0  0  0  0  0  0999 V2000
   46.0390   33.0490   46.2150 C   0  0  0  0  0  0  0  0  0  0  0  0
   45.3840   33.0470   47.4140 C   0  0  0  0  0  0  0  0  0  0  0  0
   45.6140   32.1290   48.4170 C   0  0  0  0  0  0  0  0  0  0  0  0
   46.5700   31.2110   48.0930 C   0  0  0  0  0  0  0  0  0  0  0  0
   47.2700   31.1480   46.9130 C   0  0  0  0  0  0  0  0  0  0  0  0
   46.9580   32.0930   46.0210 N   0  0  0  0  0  0  0  0  0  0  0  0
   44.5430   35.8640   44.4860 C   0  0  0  0  0  0  0  0  0  0  0  0
   45.2150   35.9250   43.2600 C   0  0  0  0  0  0  0  0  0  0  0  0
   46.1940   34.9760   43.0390 C   0  0  0  0  0  0  0  0  0  0  0  0
   46.4480   34.0540   44.0030 N   0  0  0  0  0  0  0  0  0  0  0  0
   45.7660   34.0340   45.1870 C   0  0  0  0  0  0  0  0  0  0  0  0
   44.8120   34.9510   45.4140 N   0  0  0  0  0  0  0  0  0  0  0  0
   47.0050   34.8310   41.8880 N   0  0  0  0  0  0  0  0  0  0  0  0
   44.4060   34.0730   47.6060 N   0  0  0  0  0  0  0  0  0  0  0  0
   45.0814   32.1361   49.3795 H   0  0  0  0  0  0  0  0  0  0  0  0
   46.8026   30.4476   48.8500 H   0  0  0  0  0  0  0  0  0  0  0  0
   48.0303   30.3776   46.7169 H   0  0  0  0  0  0  0  0  0  0  0  0
   43.7565   36.6052   44.6911 H   0  0  0  0  0  0  0  0  0  0  0  0
   44.9751   36.6917   42.5086 H   0  0  0  0  0  0  0  0  0  0  0  0
   47.7054   34.0771   41.8431 H   0  0  0  0  0  0  0  0  0  0  0  0
   46.8948   35.4794   41.0953 H   0  0  0  0  0  0  0  0  0  0  0  0
   43.8791   34.1234   48.4896 H   0  0  0  0  0  0  0  0  0  0  0  0
   44.2286   34.7614   46.8606 H   0  0  0  0  0  0  0  0  0  0  0  0
  1  2  2  0
  2 14  1  0
  2  3  1  0
  4  3  2  0
  5  4  1  0
  6  1  1  0
  6  5  2  0
  7 12  2  0
  8  7  1  0
  9  8  2  0
  9 10  1  0
 10 11  2  0
 11 12  1  0
 11  1  1  0
 13  9  1  0
  3 15  1  0
  4 16  1  0
  5 17  1  0
  7 18  1  0
  8 19  1  0
 13 20  1  0
 13 21  1  0
 14 22  1  0
 14 23  1  0
M  ISO  5  15  14  16  14  17  14  18  14  19  14
M  END
>  <minimizedAffinity>  (1) 
-5.55760479

>  <minimizedRMSD>  (1) 
0.0862284899

$$$$
