
     RDKit          3D

 27 28  0  0  0  0  0  0  0  0999 V2000
   46.0810   33.0140   46.3040 C   0  0  0  0  0  0  0  0  0  0  0  0
   45.3900   33.0320   47.5030 C   0  0  0  0  0  0  0  0  0  0  0  0
   45.6140   32.1570   48.5370 C   0  0  0  0  0  0  0  0  0  0  0  0
   46.5970   31.2500   48.2770 C   0  0  0  0  0  0  0  0  0  0  0  0
   47.3270   31.1670   47.1150 C   0  0  0  0  0  0  0  0  0  0  0  0
   47.0160   32.0790   46.1710 N   0  0  0  0  0  0  0  0  0  0  0  0
   44.5860   35.8060   44.5170 C   0  0  0  0  0  0  0  0  0  0  0  0
   45.2310   35.7860   43.2770 C   0  0  0  0  0  0  0  0  0  0  0  0
   46.1810   34.8100   43.0590 C   0  0  0  0  0  0  0  0  0  0  0  0
   46.4480   33.9120   44.0560 N   0  0  0  0  0  0  0  0  0  0  0  0
   45.7960   33.9650   45.2520 C   0  0  0  0  0  0  0  0  0  0  0  0
   44.8670   34.9170   45.4680 N   0  0  0  0  0  0  0  0  0  0  0  0
   46.8660   34.7870   41.7470 C   0  0  0  0  0  0  0  0  0  0  0  0
   48.2650   35.3290   41.8180 C   0  0  0  0  0  0  0  0  0  0  0  0
   44.3810   34.0410   47.6450 N   0  0  0  0  0  0  0  0  0  0  0  0
   45.0542   32.1854   49.4835 H   0  0  0  0  0  0  0  0  0  0  0  0
   46.8268   30.5196   49.0667 H   0  0  0  0  0  0  0  0  0  0  0  0
   48.1104   30.4094   46.9654 H   0  0  0  0  0  0  0  0  0  0  0  0
   43.8259   36.5767   44.7126 H   0  0  0  0  0  0  0  0  0  0  0  0
   44.9886   36.5254   42.4995 H   0  0  0  0  0  0  0  0  0  0  0  0
   46.2876   35.3959   41.0365 H   0  0  0  0  0  0  0  0  0  0  0  0
   46.9305   33.7380   41.4224 H   0  0  0  0  0  0  0  0  0  0  0  0
   48.5608   35.4436   42.8713 H   0  0  0  0  0  0  0  0  0  0  0  0
   48.9538   34.6327   41.3174 H   0  0  0  0  0  0  0  0  0  0  0  0
   48.3049   36.3077   41.3174 H   0  0  0  0  0  0  0  0  0  0  0  0
   43.8339   34.1034   48.5155 H   0  0  0  0  0  0  0  0  0  0  0  0
   44.2033   34.7034   46.8765 H   0  0  0  0  0  0  0  0  0  0  0  0
  1  2  2  0
  2 15  1  0
  2  3  1  0
  4  3  2  0
  5  4  1  0
  6  1  1  0
  6  5  2  0
  7 12  2  0
  8  7  1  0
  9  8  2  0
  9 10  1  0
 10 11  2  0
 11 12  1  0
 11  1  1  0
 13 14  1  0
 13  9  1  0
  3 16  1  0
  4 17  1  0
  5 18  1  0
  7 19  1  0
  8 20  1  0
 13 21  1  0
 13 22  1  0
 14 23  1  0
 14 24  1  0
 14 25  1  0
 15 26  1  0
 15 27  1  0
M  ISO  8  16  14  17  14  18  14  19  14  20  14  21   8  22   8  23   8
M  ISO  2  24   8  25   8
M  END
>  <minimizedAffinity>  (1) 
-5.88397789

>  <minimizedRMSD>  (1) 
0.428539425

$$$$
