
     RDKit          3D

 40 42  0  0  0  0  0  0  0  0999 V2000
   44.4680   35.9370   44.6250 C   0  0  0  0  0  0  0  0  0  0  0  0
   44.7870   35.7740   43.2810 C   0  0  0  0  0  0  0  0  0  0  0  0
   45.5310   34.6600   42.9280 C   0  0  0  0  0  0  0  0  0  0  0  0
   45.9130   33.7800   43.9070 N   0  0  0  0  0  0  0  0  0  0  0  0
   45.5800   33.9770   45.2070 C   0  0  0  0  0  0  0  0  0  0  0  0
   44.8580   35.0580   45.5520 N   0  0  0  0  0  0  0  0  0  0  0  0
   45.9860   33.0440   46.2360 C   0  0  0  0  0  0  0  0  0  0  0  0
   45.3780   33.0500   47.4870 C   0  0  0  0  0  0  0  0  0  0  0  0
   45.7010   32.2040   48.5130 C   0  0  0  0  0  0  0  0  0  0  0  0
   46.7040   31.3270   48.1840 C   0  0  0  0  0  0  0  0  0  0  0  0
   47.3540   31.2620   46.9620 C   0  0  0  0  0  0  0  0  0  0  0  0
   46.9440   32.1520   46.0300 N   0  0  0  0  0  0  0  0  0  0  0  0
   44.3500   34.0140   47.6960 N   0  0  0  0  0  0  0  0  0  0  0  0
   45.8800   34.4710   41.5040 C   0  0  0  0  0  0  0  0  0  0  0  0
   47.1820   33.7260   41.3370 C   0  0  0  0  0  0  0  0  0  0  0  0
   47.5980   33.8010   39.9710 N   0  0  0  0  0  0  0  0  0  0  0  0
   47.1100   32.8020   39.1820 C   0  0  0  0  0  0  0  0  0  0  0  0
   47.3940   32.6920   37.8240 C   0  0  0  0  0  0  0  0  0  0  0  0
   46.8510   31.6010   36.9970 C   0  0  0  0  0  0  0  0  0  0  0  0
   48.2210   33.6780   37.3070 C   0  0  0  0  0  0  0  0  0  0  0  0
   48.5210   33.6430   36.0830 O   0  0  0  0  0  0  0  0  0  0  0  0
   48.6920   34.6590   38.1100 N   0  0  0  0  0  0  0  0  0  0  0  0
   48.3900   34.7280   39.4270 C   0  0  0  0  0  0  0  0  0  0  0  0
   48.8150   35.6280   40.1950 O   0  0  0  0  0  0  0  0  0  0  0  0
   43.8787   36.8134   44.9327 H   0  0  0  0  0  0  0  0  0  0  0  0
   44.4602   36.5036   42.5254 H   0  0  0  0  0  0  0  0  0  0  0  0
   45.2091   32.2247   49.4967 H   0  0  0  0  0  0  0  0  0  0  0  0
   47.0198   30.6127   48.9586 H   0  0  0  0  0  0  0  0  0  0  0  0
   48.1529   30.5326   46.7626 H   0  0  0  0  0  0  0  0  0  0  0  0
   43.8663   34.0624   48.6041 H   0  0  0  0  0  0  0  0  0  0  0  0
   44.0905   34.6625   46.9390 H   0  0  0  0  0  0  0  0  0  0  0  0
   45.0779   33.8993   41.0143 H   0  0  0  0  0  0  0  0  0  0  0  0
   45.9952   35.4648   41.0467 H   0  0  0  0  0  0  0  0  0  0  0  0
   47.9501   34.1799   41.9804 H   0  0  0  0  0  0  0  0  0  0  0  0
   47.0429   32.6728   41.6224 H   0  0  0  0  0  0  0  0  0  0  0  0
   46.4587   32.0444   39.6421 H   0  0  0  0  0  0  0  0  0  0  0  0
   46.4563   30.8080   37.6493 H   0  0  0  0  0  0  0  0  0  0  0  0
   46.0415   31.9902   36.3620 H   0  0  0  0  0  0  0  0  0  0  0  0
   47.6496   31.1899   36.3620 H   0  0  0  0  0  0  0  0  0  0  0  0
   49.3039   35.3810   37.7035 H   0  0  0  0  0  0  0  0  0  0  0  0
  1  6  2  0
  2  1  1  0
  3  2  2  0
  3  4  1  0
  4  5  2  0
  5  6  1  0
  5  7  1  0
  7  8  2  0
  8 13  1  0
  8  9  1  0
 10  9  2  0
 11 10  1  0
 12  7  1  0
 12 11  2  0
 14  3  1  0
 15 14  1  0
 16 15  1  0
 17 16  1  0
 18 17  2  0
 19 18  1  0
 20 18  1  0
 20 22  1  0
 21 20  2  0
 22 23  1  0
 23 16  1  0
 23 24  2  0
  1 25  1  0
  2 26  1  0
  9 27  1  0
 10 28  1  0
 11 29  1  0
 13 30  1  0
 13 31  1  0
 14 32  1  0
 14 33  1  0
 15 34  1  0
 15 35  1  0
 17 36  1  0
 19 37  1  0
 19 38  1  0
 19 39  1  0
 22 40  1  0
M  ISO  8  25  14  26  14  27  14  28  14  29  14  32   8  33   8  34   8
M  ISO  6  35   8  36  14  37   8  38   8  39   8  40   9
M  END
>  <minimizedAffinity>  (1) 
-6.75489807

>  <minimizedRMSD>  (1) 
1.63449764

$$$$
