
     RDKit          3D

 37 39  0  0  0  0  0  0  0  0999 V2000
   44.5680   35.7860   44.5890 C   0  0  0  0  0  0  0  0  0  0  0  0
   45.2470   35.8320   43.3750 C   0  0  0  0  0  0  0  0  0  0  0  0
   46.2240   34.8910   43.1490 C   0  0  0  0  0  0  0  0  0  0  0  0
   46.4860   33.9590   44.1160 N   0  0  0  0  0  0  0  0  0  0  0  0
   45.7960   33.9500   45.2940 C   0  0  0  0  0  0  0  0  0  0  0  0
   44.8320   34.8790   45.5160 N   0  0  0  0  0  0  0  0  0  0  0  0
   46.0710   32.9650   46.3180 C   0  0  0  0  0  0  0  0  0  0  0  0
   45.3930   32.9660   47.5140 C   0  0  0  0  0  0  0  0  0  0  0  0
   45.5950   32.0710   48.5270 C   0  0  0  0  0  0  0  0  0  0  0  0
   46.5610   31.1440   48.2360 C   0  0  0  0  0  0  0  0  0  0  0  0
   47.2820   31.0780   47.0620 C   0  0  0  0  0  0  0  0  0  0  0  0
   46.9920   32.0170   46.1380 N   0  0  0  0  0  0  0  0  0  0  0  0
   44.4080   33.9900   47.6910 N   0  0  0  0  0  0  0  0  0  0  0  0
   46.9490   34.9340   41.8600 C   0  0  0  0  0  0  0  0  0  0  0  0
   48.1040   33.9900   41.8150 C   0  0  0  0  0  0  0  0  0  0  0  0
   48.3950   33.6720   40.4310 N   0  0  0  0  0  0  0  0  0  0  0  0
   47.9240   34.3060   39.3590 C   0  0  0  0  0  0  0  0  0  0  0  0
   48.2660   33.9180   38.0860 C   0  0  0  0  0  0  0  0  0  0  0  0
   49.1190   32.8460   37.8940 C   0  0  0  0  0  0  0  0  0  0  0  0
   49.4410   32.4790   36.7370 O   0  0  0  0  0  0  0  0  0  0  0  0
   49.5570   32.2510   39.0030 N   0  0  0  0  0  0  0  0  0  0  0  0
   49.2350   32.6130   40.2530 C   0  0  0  0  0  0  0  0  0  0  0  0
   49.7130   31.9740   41.2260 O   0  0  0  0  0  0  0  0  0  0  0  0
   43.7829   36.5310   44.7853 H   0  0  0  0  0  0  0  0  0  0  0  0
   45.0098   36.5965   42.6205 H   0  0  0  0  0  0  0  0  0  0  0  0
   45.0401   32.0927   49.4765 H   0  0  0  0  0  0  0  0  0  0  0  0
   46.7803   30.3878   49.0042 H   0  0  0  0  0  0  0  0  0  0  0  0
   48.0470   30.3066   46.8897 H   0  0  0  0  0  0  0  0  0  0  0  0
   43.8688   34.0400   48.5671 H   0  0  0  0  0  0  0  0  0  0  0  0
   44.2387   34.6767   46.9422 H   0  0  0  0  0  0  0  0  0  0  0  0
   46.2485   34.6711   41.0537 H   0  0  0  0  0  0  0  0  0  0  0  0
   47.3479   35.9518   41.7379 H   0  0  0  0  0  0  0  0  0  0  0  0
   48.9837   34.4600   42.2790 H   0  0  0  0  0  0  0  0  0  0  0  0
   47.8561   33.0703   42.3652 H   0  0  0  0  0  0  0  0  0  0  0  0
   47.2450   35.1606   39.4957 H   0  0  0  0  0  0  0  0  0  0  0  0
   47.8611   34.4603   37.2188 H   0  0  0  0  0  0  0  0  0  0  0  0
   50.1936   31.4491   38.8909 H   0  0  0  0  0  0  0  0  0  0  0  0
  1  6  2  0
  2  1  1  0
  3  2  2  0
  3  4  1  0
  4  5  2  0
  5  6  1  0
  5  7  1  0
  7  8  2  0
  8 13  1  0
  8  9  1  0
 10  9  2  0
 11 10  1  0
 12  7  1  0
 12 11  2  0
 14  3  1  0
 15 14  1  0
 16 15  1  0
 17 16  1  0
 18 17  2  0
 19 18  1  0
 19 21  1  0
 20 19  2  0
 21 22  1  0
 22 16  1  0
 22 23  2  0
  1 24  1  0
  2 25  1  0
  9 26  1  0
 10 27  1  0
 11 28  1  0
 13 29  1  0
 13 30  1  0
 14 31  1  0
 14 32  1  0
 15 33  1  0
 15 34  1  0
 17 35  1  0
 18 36  1  0
 21 37  1  0
M  ISO  8  24  14  25  14  26  14  27  14  28  14  31   8  32   8  33   8
M  ISO  4  34   8  35  14  36  14  37   9
M  END
>  <minimizedAffinity>  (1) 
-6.67849493

>  <minimizedRMSD>  (1) 
2.02250671

$$$$
