
     RDKit          3D

 36 38  0  0  0  0  0  0  0  0999 V2000
   44.5540   35.8440   44.5080 C   0  0  0  0  0  0  0  0  0  0  0  0
   44.6490   35.4960   43.1580 C   0  0  0  0  0  0  0  0  0  0  0  0
   45.1950   34.2610   42.8380 C   0  0  0  0  0  0  0  0  0  0  0  0
   45.6110   33.4490   43.8590 N   0  0  0  0  0  0  0  0  0  0  0  0
   45.4990   33.8270   45.1620 C   0  0  0  0  0  0  0  0  0  0  0  0
   44.9690   35.0290   45.4730 N   0  0  0  0  0  0  0  0  0  0  0  0
   45.9450   32.9470   46.2230 C   0  0  0  0  0  0  0  0  0  0  0  0
   45.3720   33.0330   47.4900 C   0  0  0  0  0  0  0  0  0  0  0  0
   45.7370   32.2320   48.5470 C   0  0  0  0  0  0  0  0  0  0  0  0
   46.7140   31.3450   48.2390 C   0  0  0  0  0  0  0  0  0  0  0  0
   47.3280   31.2020   47.0130 C   0  0  0  0  0  0  0  0  0  0  0  0
   46.8880   32.0440   46.0460 N   0  0  0  0  0  0  0  0  0  0  0  0
   44.3480   34.0150   47.6830 N   0  0  0  0  0  0  0  0  0  0  0  0
   45.2980   33.8840   41.4200 C   0  0  0  0  0  0  0  0  0  0  0  0
   46.4700   32.9580   41.1700 C   0  0  0  0  0  0  0  0  0  0  0  0
   47.6920   33.6930   41.5950 C   0  0  0  0  0  0  0  0  0  0  0  0
   47.8810   34.9790   41.1340 C   0  0  0  0  0  0  0  0  0  0  0  0
   48.9570   35.7990   41.4300 C   0  0  0  0  0  0  0  0  0  0  0  0
   49.9090   35.2480   42.2640 C   0  0  0  0  0  0  0  0  0  0  0  0
   49.7290   33.9630   42.7320 C   0  0  0  0  0  0  0  0  0  0  0  0
   48.6570   33.2210   42.4030 N   0  0  0  0  0  0  0  0  0  0  0  0
   44.1239   36.8193   44.7799 H   0  0  0  0  0  0  0  0  0  0  0  0
   44.3009   36.1815   42.3713 H   0  0  0  0  0  0  0  0  0  0  0  0
   45.2803   32.3044   49.5451 H   0  0  0  0  0  0  0  0  0  0  0  0
   47.0493   30.6749   49.0443 H   0  0  0  0  0  0  0  0  0  0  0  0
   48.1181   30.4582   46.8324 H   0  0  0  0  0  0  0  0  0  0  0  0
   43.8964   34.1141   48.6034 H   0  0  0  0  0  0  0  0  0  0  0  0
   44.0630   34.6223   46.9014 H   0  0  0  0  0  0  0  0  0  0  0  0
   44.3708   33.3748   41.1183 H   0  0  0  0  0  0  0  0  0  0  0  0
   45.4538   34.8006   40.8321 H   0  0  0  0  0  0  0  0  0  0  0  0
   46.3576   32.0361   41.7595 H   0  0  0  0  0  0  0  0  0  0  0  0
   46.5290   32.6707   40.1098 H   0  0  0  0  0  0  0  0  0  0  0  0
   47.1063   35.3910   40.4706 H   0  0  0  0  0  0  0  0  0  0  0  0
   49.0469   36.8191   41.0282 H   0  0  0  0  0  0  0  0  0  0  0  0
   50.7995   35.8261   42.5516 H   0  0  0  0  0  0  0  0  0  0  0  0
   50.4896   33.5298   43.3982 H   0  0  0  0  0  0  0  0  0  0  0  0
  1  6  2  0
  2  1  1  0
  3  2  2  0
  3  4  1  0
  4  5  2  0
  5  6  1  0
  5  7  1  0
  7  8  2  0
  8 13  1  0
  8  9  1  0
 10  9  2  0
 11 10  1  0
 12  7  1  0
 12 11  2  0
 14  3  1  0
 15 14  1  0
 15 16  1  0
 16 21  2  0
 17 18  2  0
 17 16  1  0
 18 19  1  0
 19 20  2  0
 21 20  1  0
  1 22  1  0
  2 23  1  0
  9 24  1  0
 10 25  1  0
 11 26  1  0
 13 27  1  0
 13 28  1  0
 14 29  1  0
 14 30  1  0
 15 31  1  0
 15 32  1  0
 17 33  1  0
 18 34  1  0
 19 35  1  0
 20 36  1  0
M  ISO  8  22  14  23  14  24  14  25  14  26  14  29   8  30   8  31   8
M  ISO  5  32   8  33  14  34  14  35  14  36  14
M  END
>  <minimizedAffinity>  (1) 
-6.60436487

>  <minimizedRMSD>  (1) 
2.3352232

$$$$
