
     RDKit          3D

 40 42  0  0  0  0  0  0  0  0999 V2000
   44.5870   35.7980   44.5490 C   0  0  0  0  0  0  0  0  0  0  0  0
   45.2040   35.7480   43.2980 C   0  0  0  0  0  0  0  0  0  0  0  0
   46.1310   34.7570   43.0710 C   0  0  0  0  0  0  0  0  0  0  0  0
   46.4050   33.8700   44.0720 N   0  0  0  0  0  0  0  0  0  0  0  0
   45.7880   33.9410   45.2880 C   0  0  0  0  0  0  0  0  0  0  0  0
   44.8790   34.9150   45.5070 N   0  0  0  0  0  0  0  0  0  0  0  0
   46.0930   32.9950   46.3290 C   0  0  0  0  0  0  0  0  0  0  0  0
   45.3890   33.0270   47.5300 C   0  0  0  0  0  0  0  0  0  0  0  0
   45.6230   32.1560   48.5720 C   0  0  0  0  0  0  0  0  0  0  0  0
   46.6200   31.2500   48.3180 C   0  0  0  0  0  0  0  0  0  0  0  0
   47.3470   31.1700   47.1610 C   0  0  0  0  0  0  0  0  0  0  0  0
   47.0310   32.0750   46.2030 N   0  0  0  0  0  0  0  0  0  0  0  0
   44.3760   34.0190   47.6710 N   0  0  0  0  0  0  0  0  0  0  0  0
   46.7960   34.6920   41.7440 C   0  0  0  0  0  0  0  0  0  0  0  0
   48.0630   35.5190   41.7100 C   0  0  0  0  0  0  0  0  0  0  0  0
   49.2030   34.5560   41.4600 C   0  0  0  0  0  0  0  0  0  0  0  0
   48.6970   33.1510   41.2060 C   0  0  0  0  0  0  0  0  0  0  0  0
   50.0240   32.3810   41.2570 C   0  0  0  0  0  0  0  0  0  0  0  0
   50.8800   33.1230   42.2460 C   0  0  0  0  0  0  0  0  0  0  0  0
   50.0690   34.3510   42.6640 C   0  0  0  0  0  0  0  0  0  0  0  0
   43.8431   36.5829   44.7503 H   0  0  0  0  0  0  0  0  0  0  0  0
   44.9561   36.4803   42.5156 H   0  0  0  0  0  0  0  0  0  0  0  0
   45.0627   32.1850   49.5182 H   0  0  0  0  0  0  0  0  0  0  0  0
   46.8558   30.5257   49.1115 H   0  0  0  0  0  0  0  0  0  0  0  0
   48.1376   30.4187   47.0178 H   0  0  0  0  0  0  0  0  0  0  0  0
   43.8310   34.0782   48.5430 H   0  0  0  0  0  0  0  0  0  0  0  0
   44.1887   34.6769   46.9009 H   0  0  0  0  0  0  0  0  0  0  0  0
   47.0484   33.6444   41.5230 H   0  0  0  0  0  0  0  0  0  0  0  0
   46.1021   35.0980   40.9932 H   0  0  0  0  0  0  0  0  0  0  0  0
   48.0095   36.2618   40.9004 H   0  0  0  0  0  0  0  0  0  0  0  0
   48.2053   36.0646   42.6545 H   0  0  0  0  0  0  0  0  0  0  0  0
   49.7406   35.0080   40.6134 H   0  0  0  0  0  0  0  0  0  0  0  0
   48.2107   33.0630   40.2233 H   0  0  0  0  0  0  0  0  0  0  0  0
   47.9282   32.7994   41.9098 H   0  0  0  0  0  0  0  0  0  0  0  0
   49.8561   31.3471   41.5931 H   0  0  0  0  0  0  0  0  0  0  0  0
   50.5006   32.3223   40.2673 H   0  0  0  0  0  0  0  0  0  0  0  0
   51.0923   32.4892   43.1196 H   0  0  0  0  0  0  0  0  0  0  0  0
   51.8481   33.4081   41.8083 H   0  0  0  0  0  0  0  0  0  0  0  0
   50.7188   35.2199   42.8450 H   0  0  0  0  0  0  0  0  0  0  0  0
   49.5109   34.2233   43.6032 H   0  0  0  0  0  0  0  0  0  0  0  0
  1  6  2  0
  2  1  1  0
  3  2  2  0
  3  4  1  0
  4  5  2  0
  5  6  1  0
  5  7  1  0
  7  8  2  0
  8 13  1  0
  8  9  1  0
 10  9  2  0
 11 10  1  0
 12  7  1  0
 12 11  2  0
 14  3  1  0
 15 14  1  0
 16 15  1  0
 16 20  1  0
 17 18  1  0
 17 16  1  0
 18 19  1  0
 19 20  1  0
  1 21  1  0
  2 22  1  0
  9 23  1  0
 10 24  1  0
 11 25  1  0
 13 26  1  0
 13 27  1  0
 14 28  1  0
 14 29  1  0
 15 30  1  0
 15 31  1  0
 16 32  1  0
 17 33  1  0
 17 34  1  0
 18 35  1  0
 18 36  1  0
 19 37  1  0
 19 38  1  0
 20 39  1  0
 20 40  1  0
M  ISO  8  21  14  22  14  23  14  24  14  25  14  28   8  29   8  30   8
M  ISO  8  31   8  32  13  33  13  34  13  35  13  36  13  37  13  38  13
M  ISO  2  39  13  40  13
M  END
>  <minimizedAffinity>  (1) 
-6.73753643

>  <minimizedRMSD>  (1) 
1.60018814

$$$$
