
     RDKit          3D

 35 37  0  0  0  0  0  0  0  0999 V2000
   44.5010   35.9400   44.5920 C   0  0  0  0  0  0  0  0  0  0  0  0
   44.6620   35.7400   43.2310 C   0  0  0  0  0  0  0  0  0  0  0  0
   45.2890   34.5670   42.8440 C   0  0  0  0  0  0  0  0  0  0  0  0
   45.7050   33.6920   43.8090 N   0  0  0  0  0  0  0  0  0  0  0  0
   45.5230   33.9380   45.1360 C   0  0  0  0  0  0  0  0  0  0  0  0
   44.9090   35.0850   45.5180 N   0  0  0  0  0  0  0  0  0  0  0  0
   45.9650   33.0100   46.1410 C   0  0  0  0  0  0  0  0  0  0  0  0
   45.4120   33.0190   47.4130 C   0  0  0  0  0  0  0  0  0  0  0  0
   45.7790   32.1710   48.4200 C   0  0  0  0  0  0  0  0  0  0  0  0
   46.7630   31.2890   48.0540 C   0  0  0  0  0  0  0  0  0  0  0  0
   47.3580   31.2210   46.8140 C   0  0  0  0  0  0  0  0  0  0  0  0
   46.9090   32.1120   45.9070 N   0  0  0  0  0  0  0  0  0  0  0  0
   44.3910   33.9890   47.6700 N   0  0  0  0  0  0  0  0  0  0  0  0
   45.4850   34.3120   41.3980 C   0  0  0  0  0  0  0  0  0  0  0  0
   46.9420   34.1050   41.0650 C   0  0  0  0  0  0  0  0  0  0  0  0
   47.1870   33.9340   39.6320 C   0  0  0  0  0  0  0  0  0  0  0  0
   48.2700   34.4890   38.9420 C   0  0  0  0  0  0  0  0  0  0  0  0
   48.4760   34.3080   37.5830 C   0  0  0  0  0  0  0  0  0  0  0  0
   47.5850   33.5540   36.8770 N   0  0  0  0  0  0  0  0  0  0  0  0
   46.5390   33.0180   37.5500 C   0  0  0  0  0  0  0  0  0  0  0  0
   46.3650   33.2090   38.8640 N   0  0  0  0  0  0  0  0  0  0  0  0
   44.0047   36.8639   44.9238 H   0  0  0  0  0  0  0  0  0  0  0  0
   44.3094   36.4763   42.4938 H   0  0  0  0  0  0  0  0  0  0  0  0
   45.3298   32.1938   49.4239 H   0  0  0  0  0  0  0  0  0  0  0  0
   47.1066   30.5744   48.8164 H   0  0  0  0  0  0  0  0  0  0  0  0
   48.1457   30.4899   46.5795 H   0  0  0  0  0  0  0  0  0  0  0  0
   43.9483   34.0370   48.5988 H   0  0  0  0  0  0  0  0  0  0  0  0
   44.0991   34.6389   46.9261 H   0  0  0  0  0  0  0  0  0  0  0  0
   44.9221   33.4104   41.1146 H   0  0  0  0  0  0  0  0  0  0  0  0
   45.1252   35.1898   40.8411 H   0  0  0  0  0  0  0  0  0  0  0  0
   47.5084   34.9808   41.4145 H   0  0  0  0  0  0  0  0  0  0  0  0
   47.2633   33.1791   41.5645 H   0  0  0  0  0  0  0  0  0  0  0  0
   48.9927   35.0982   39.5046 H   0  0  0  0  0  0  0  0  0  0  0  0
   49.3428   34.7645   37.0827 H   0  0  0  0  0  0  0  0  0  0  0  0
   45.8090   32.4062   36.9997 H   0  0  0  0  0  0  0  0  0  0  0  0
  1  6  2  0
  2  1  1  0
  3  2  2  0
  3  4  1  0
  4  5  2  0
  5  6  1  0
  5  7  1  0
  7  8  2  0
  8 13  1  0
  8  9  1  0
 10  9  2  0
 11 10  1  0
 12  7  1  0
 12 11  2  0
 14  3  1  0
 15 14  1  0
 16 15  1  0
 17 16  2  0
 18 17  1  0
 19 20  1  0
 19 18  2  0
 20 21  2  0
 21 16  1  0
  1 22  1  0
  2 23  1  0
  9 24  1  0
 10 25  1  0
 11 26  1  0
 13 27  1  0
 13 28  1  0
 14 29  1  0
 14 30  1  0
 15 31  1  0
 15 32  1  0
 17 33  1  0
 18 34  1  0
 20 35  1  0
M  ISO  8  22  14  23  14  24  14  25  14  26  14  29   8  30   8  31   8
M  ISO  4  32   8  33  14  34  14  35  14
M  END
>  <minimizedAffinity>  (1) 
-6.23115635

>  <minimizedRMSD>  (1) 
1.79495001

$$$$
