
     RDKit          3D

 33 35  0  0  0  0  0  0  0  0999 V2000
   44.4970   35.9410   44.7140 C   0  0  0  0  0  0  0  0  0  0  0  0
   45.0520   35.9730   43.4250 C   0  0  0  0  0  0  0  0  0  0  0  0
   45.9600   34.9840   43.0790 C   0  0  0  0  0  0  0  0  0  0  0  0
   46.2750   34.0270   44.0030 N   0  0  0  0  0  0  0  0  0  0  0  0
   45.7120   34.0330   45.2470 C   0  0  0  0  0  0  0  0  0  0  0  0
   44.8260   34.9940   45.5890 N   0  0  0  0  0  0  0  0  0  0  0  0
   46.0600   33.0060   46.2080 C   0  0  0  0  0  0  0  0  0  0  0  0
   45.4170   32.9590   47.4430 C   0  0  0  0  0  0  0  0  0  0  0  0
   45.6770   32.0260   48.4100 C   0  0  0  0  0  0  0  0  0  0  0  0
   46.6450   31.1290   48.0400 C   0  0  0  0  0  0  0  0  0  0  0  0
   47.3180   31.1130   46.8450 C   0  0  0  0  0  0  0  0  0  0  0  0
   46.9780   32.0840   45.9650 N   0  0  0  0  0  0  0  0  0  0  0  0
   44.4280   33.9560   47.7020 N   0  0  0  0  0  0  0  0  0  0  0  0
   46.5430   35.0200   41.7230 C   0  0  0  0  0  0  0  0  0  0  0  0
   48.0310   34.9380   41.7350 C   0  0  0  0  0  0  0  0  0  0  0  0
   48.4460   33.9400   40.6860 C   0  0  0  0  0  0  0  0  0  0  0  0
   48.0230   34.0750   39.3370 C   0  0  0  0  0  0  0  0  0  0  0  0
   48.8040   32.6280   38.5350 S   0  0  0  0  0  0  0  0  0  0  0  0
   49.5760   32.0840   40.1840 C   0  0  0  0  0  0  0  0  0  0  0  0
   49.2140   32.8860   40.9090 N   0  0  0  0  0  0  0  0  0  0  0  0
   43.7738   36.7162   45.0074 H   0  0  0  0  0  0  0  0  0  0  0  0
   44.7742   36.7608   42.7093 H   0  0  0  0  0  0  0  0  0  0  0  0
   45.1630   31.9989   49.3821 H   0  0  0  0  0  0  0  0  0  0  0  0
   46.9067   30.3488   48.7699 H   0  0  0  0  0  0  0  0  0  0  0  0
   48.0854   30.3589   46.6161 H   0  0  0  0  0  0  0  0  0  0  0  0
   43.9258   33.9619   48.6013 H   0  0  0  0  0  0  0  0  0  0  0  0
   44.2168   34.6693   46.9896 H   0  0  0  0  0  0  0  0  0  0  0  0
   46.2462   35.9612   41.2371 H   0  0  0  0  0  0  0  0  0  0  0  0
   46.1661   34.1435   41.1756 H   0  0  0  0  0  0  0  0  0  0  0  0
   48.4619   35.9236   41.5049 H   0  0  0  0  0  0  0  0  0  0  0  0
   48.3904   34.6250   42.7264 H   0  0  0  0  0  0  0  0  0  0  0  0
   47.3871   34.8523   38.8882 H   0  0  0  0  0  0  0  0  0  0  0  0
   50.2140   31.2116   40.3884 H   0  0  0  0  0  0  0  0  0  0  0  0
  1  6  2  0
  2  1  1  0
  3  2  2  0
  3  4  1  0
  4  5  2  0
  5  6  1  0
  5  7  1  0
  7  8  2  0
  8 13  1  0
  8  9  1  0
 10  9  2  0
 11 10  1  0
 12  7  1  0
 12 11  2  0
 14 15  1  0
 14  3  1  0
 16 20  1  0
 16 15  1  0
 17 16  2  0
 18 17  1  0
 18 19  1  0
 19 20  2  0
  1 21  1  0
  2 22  1  0
  9 23  1  0
 10 24  1  0
 11 25  1  0
 13 26  1  0
 13 27  1  0
 14 28  1  0
 14 29  1  0
 15 30  1  0
 15 31  1  0
 17 32  1  0
 19 33  1  0
M  ISO  8  21  14  22  14  23  14  24  14  25  14  28   8  29   8  30   8
M  ISO  3  31   8  32  14  33  14
M  END
>  <minimizedAffinity>  (1) 
-6.16652298

>  <minimizedRMSD>  (1) 
1.15935194

$$$$
