
     RDKit          3D

 27 29  0  0  0  0  0  0  0  0999 V2000
   44.6920   33.8760   41.5030 N   0  0  0  0  0  0  0  0  0  0  0  0
   43.6190   33.6110   40.7260 C   0  0  0  0  0  0  0  0  0  0  0  0
   44.0140   33.3320   39.4770 N   0  0  0  0  0  0  0  0  0  0  0  0
   45.3680   33.4250   39.4640 C   0  0  0  0  0  0  0  0  0  0  0  0
   45.7580   33.7580   40.7130 N   0  0  0  0  0  0  0  0  0  0  0  0
   46.4170   33.2600   38.4900 N   0  0  0  0  0  0  0  0  0  0  0  0
   46.0610   32.6260   37.3570 C   0  0  0  0  0  0  0  0  0  0  0  0
   47.0790   32.4650   36.4100 C   0  0  0  0  0  0  0  0  0  0  0  0
   48.3330   32.9600   36.7090 C   0  0  0  0  0  0  0  0  0  0  0  0
   49.4050   32.8110   35.7550 N   0  0  0  0  0  0  0  0  0  0  0  0
   48.6100   33.5870   37.8710 N   0  0  0  0  0  0  0  0  0  0  0  0
   47.6290   33.7510   38.8060 C   0  0  0  0  0  0  0  0  0  0  0  0
   47.8090   34.3250   39.9150 O   0  0  0  0  0  0  0  0  0  0  0  0
   44.3370   35.4880   43.2660 C   0  0  0  0  0  0  0  0  0  0  0  0
   44.7870   34.2220   42.8850 C   0  0  0  0  0  0  0  0  0  0  0  0
   45.3030   33.3660   43.8680 C   0  0  0  0  0  0  0  0  0  0  0  0
   45.3380   33.8170   45.1560 N   0  0  0  0  0  0  0  0  0  0  0  0
   44.8970   35.0410   45.4840 C   0  0  0  0  0  0  0  0  0  0  0  0
   44.4040   35.8540   44.5410 N   0  0  0  0  0  0  0  0  0  0  0  0
   42.5739   33.6227   41.0690 H   0  0  0  0  0  0  0  0  0  0  0  0
   45.0381   32.2589   37.1868 H   0  0  0  0  0  0  0  0  0  0  0  0
   46.8854   31.9578   35.4533 H   0  0  0  0  0  0  0  0  0  0  0  0
   50.3425   33.1781   35.9723 H   0  0  0  0  0  0  0  0  0  0  0  0
   49.2328   32.3375   34.8566 H   0  0  0  0  0  0  0  0  0  0  0  0
   43.9289   36.1789   42.5136 H   0  0  0  0  0  0  0  0  0  0  0  0
   45.6686   32.3613   43.6093 H   0  0  0  0  0  0  0  0  0  0  0  0
   44.9405   35.3776   46.5303 H   0  0  0  0  0  0  0  0  0  0  0  0
  1 15  1  0
  2  1  1  0
  3  2  2  0
  4  3  1  0
  4  5  2  0
  5  1  1  0
  6 12  1  0
  6  4  1  0
  7  6  1  0
  8  9  1  0
  8  7  2  0
  9 11  2  0
 10  9  1  0
 11 12  1  0
 12 13  2  0
 14 19  2  0
 15 14  1  0
 15 16  2  0
 16 17  1  0
 17 18  2  0
 19 18  1  0
  2 20  1  0
  7 21  1  0
  8 22  1  0
 10 23  1  0
 10 24  1  0
 14 25  1  0
 16 26  1  0
 18 27  1  0
M  ISO  6  20  14  21  14  22  14  25  14  26  14  27  14
M  END
>  <minimizedAffinity>  (1) 
-4.85769796

>  <minimizedRMSD>  (1) 
2.97386599

$$$$
