
     RDKit          3D

 34 36  0  0  0  0  0  0  0  0999 V2000
   44.5540   35.7980   44.5160 C   0  0  0  0  0  0  0  0  0  0  0  0
   44.7540   35.4700   43.1740 C   0  0  0  0  0  0  0  0  0  0  0  0
   45.3880   34.2680   42.8820 C   0  0  0  0  0  0  0  0  0  0  0  0
   45.7870   33.4630   43.9140 N   0  0  0  0  0  0  0  0  0  0  0  0
   45.5660   33.8340   45.2080 C   0  0  0  0  0  0  0  0  0  0  0  0
   44.9540   34.9940   45.4910 N   0  0  0  0  0  0  0  0  0  0  0  0
   45.9900   32.9540   46.2890 C   0  0  0  0  0  0  0  0  0  0  0  0
   45.3660   33.0420   47.5340 C   0  0  0  0  0  0  0  0  0  0  0  0
   45.7040   32.2350   48.6010 C   0  0  0  0  0  0  0  0  0  0  0  0
   46.6980   31.3550   48.3160 C   0  0  0  0  0  0  0  0  0  0  0  0
   47.3500   31.2180   47.1220 C   0  0  0  0  0  0  0  0  0  0  0  0
   46.9430   32.0530   46.1470 N   0  0  0  0  0  0  0  0  0  0  0  0
   44.3410   34.0140   47.6900 N   0  0  0  0  0  0  0  0  0  0  0  0
   45.6040   33.9130   41.4590 C   0  0  0  0  0  0  0  0  0  0  0  0
   46.9500   33.2760   41.2440 C   0  0  0  0  0  0  0  0  0  0  0  0
   48.0540   34.1030   41.6390 N   0  0  0  0  0  0  0  0  0  0  0  0
   49.0360   33.9460   42.5590 C   0  0  0  0  0  0  0  0  0  0  0  0
   49.8390   35.0620   42.5200 C   0  0  0  0  0  0  0  0  0  0  0  0
   49.3460   35.9030   41.5740 N   0  0  0  0  0  0  0  0  0  0  0  0
   48.2620   35.2870   41.0600 C   0  0  0  0  0  0  0  0  0  0  0  0
   44.0536   36.7441   44.7699 H   0  0  0  0  0  0  0  0  0  0  0  0
   44.4196   36.1432   42.3709 H   0  0  0  0  0  0  0  0  0  0  0  0
   45.2165   32.2983   49.5850 H   0  0  0  0  0  0  0  0  0  0  0  0
   47.0108   30.6834   49.1291 H   0  0  0  0  0  0  0  0  0  0  0  0
   48.1498   30.4786   46.9688 H   0  0  0  0  0  0  0  0  0  0  0  0
   43.8560   34.1105   48.5935 H   0  0  0  0  0  0  0  0  0  0  0  0
   44.0831   34.6219   46.8995 H   0  0  0  0  0  0  0  0  0  0  0  0
   44.8210   33.2073   41.1446 H   0  0  0  0  0  0  0  0  0  0  0  0
   45.5625   34.8374   40.8642 H   0  0  0  0  0  0  0  0  0  0  0  0
   46.9893   32.3441   41.8270 H   0  0  0  0  0  0  0  0  0  0  0  0
   47.0520   33.1021   40.1626 H   0  0  0  0  0  0  0  0  0  0  0  0
   49.1680   33.0778   43.2214 H   0  0  0  0  0  0  0  0  0  0  0  0
   50.7256   35.2421   43.1456 H   0  0  0  0  0  0  0  0  0  0  0  0
   47.6295   35.7074   40.2643 H   0  0  0  0  0  0  0  0  0  0  0  0
  1  6  2  0
  2  1  1  0
  3  2  2  0
  3  4  1  0
  4  5  2  0
  5  6  1  0
  5  7  1  0
  7  8  2  0
  8 13  1  0
  8  9  1  0
 10  9  2  0
 11 10  1  0
 12  7  1  0
 12 11  2  0
 14  3  1  0
 15 14  1  0
 15 16  1  0
 16 17  1  0
 18 17  2  0
 19 18  1  0
 20 19  2  0
 20 16  1  0
  1 21  1  0
  2 22  1  0
  9 23  1  0
 10 24  1  0
 11 25  1  0
 13 26  1  0
 13 27  1  0
 14 28  1  0
 14 29  1  0
 15 30  1  0
 15 31  1  0
 17 32  1  0
 18 33  1  0
 20 34  1  0
M  ISO  8  21  14  22  14  23  14  24  14  25  14  28   8  29   8  30   8
M  ISO  4  31   8  32  14  33  14  34  14
M  END
>  <minimizedAffinity>  (1) 
-6.05066776

>  <minimizedRMSD>  (1) 
1.81116319

$$$$
