
     RDKit          3D

 29 30  0  0  0  0  0  0  0  0999 V2000
   44.6160   35.7200   44.4940 C   0  0  0  0  0  0  0  0  0  0  0  0
   45.3530   35.7430   43.3010 C   0  0  0  0  0  0  0  0  0  0  0  0
   46.3560   34.8070   43.1430 C   0  0  0  0  0  0  0  0  0  0  0  0
   46.5790   33.9130   44.1430 N   0  0  0  0  0  0  0  0  0  0  0  0
   45.8510   33.9160   45.2830 C   0  0  0  0  0  0  0  0  0  0  0  0
   44.8620   34.8320   45.4500 N   0  0  0  0  0  0  0  0  0  0  0  0
   46.0890   32.9640   46.3490 C   0  0  0  0  0  0  0  0  0  0  0  0
   45.3790   33.0060   47.5250 C   0  0  0  0  0  0  0  0  0  0  0  0
   45.5720   32.1250   48.5650 C   0  0  0  0  0  0  0  0  0  0  0  0
   46.5320   31.2000   48.3260 C   0  0  0  0  0  0  0  0  0  0  0  0
   47.2780   31.0900   47.1920 C   0  0  0  0  0  0  0  0  0  0  0  0
   47.0000   32.0120   46.2390 N   0  0  0  0  0  0  0  0  0  0  0  0
   44.3930   34.0240   47.6600 N   0  0  0  0  0  0  0  0  0  0  0  0
   47.1300   34.8320   41.8890 C   0  0  0  0  0  0  0  0  0  0  0  0
   48.4330   34.0700   42.0000 C   0  0  0  0  0  0  0  0  0  0  0  0
   49.2390   34.6110   43.0500 N   0  0  0  0  0  0  0  0  0  0  0  0
   43.8129   36.4571   44.6416 H   0  0  0  0  0  0  0  0  0  0  0  0
   45.1389   36.4832   42.5160 H   0  0  0  0  0  0  0  0  0  0  0  0
   44.9995   32.1683   49.5033 H   0  0  0  0  0  0  0  0  0  0  0  0
   46.7277   30.4681   49.1235 H   0  0  0  0  0  0  0  0  0  0  0  0
   48.0460   30.3136   47.0601 H   0  0  0  0  0  0  0  0  0  0  0  0
   43.8378   34.0918   48.5249 H   0  0  0  0  0  0  0  0  0  0  0  0
   44.2348   34.6927   46.8927 H   0  0  0  0  0  0  0  0  0  0  0  0
   47.3533   35.8781   41.6325 H   0  0  0  0  0  0  0  0  0  0  0  0
   46.5230   34.3468   41.1104 H   0  0  0  0  0  0  0  0  0  0  0  0
   48.2176   33.0132   42.2163 H   0  0  0  0  0  0  0  0  0  0  0  0
   48.9796   34.1575   41.0494 H   0  0  0  0  0  0  0  0  0  0  0  0
   48.8405   34.3435   43.9613 H   0  0  0  0  0  0  0  0  0  0  0  0
   50.1972   34.2413   42.9725 H   0  0  0  0  0  0  0  0  0  0  0  0
  1  6  2  0
  2  1  1  0
  3  2  2  0
  3  4  1  0
  4  5  2  0
  5  6  1  0
  5  7  1  0
  7  8  2  0
  8 13  1  0
  8  9  1  0
 10  9  2  0
 11 10  1  0
 12  7  1  0
 12 11  2  0
 14 15  1  0
 14  3  1  0
 15 16  1  0
  1 17  1  0
  2 18  1  0
  9 19  1  0
 10 20  1  0
 11 21  1  0
 13 22  1  0
 13 23  1  0
 14 24  1  0
 14 25  1  0
 15 26  1  0
 15 27  1  0
 16 28  1  0
 16 29  1  0
M  ISO  8  17  14  18  14  19  14  20  14  21  14  24   8  25   8  26   8
M  ISO  3  27   8  28   5  29   5
M  END
>  <minimizedAffinity>  (1) 
-5.79761982

>  <minimizedRMSD>  (1) 
0.693635225

$$$$
