
     RDKit          3D

 32 34  0  0  0  0  0  0  0  0999 V2000
   44.5740   35.8450   44.5400 C   0  0  0  0  0  0  0  0  0  0  0  0
   45.1910   35.8100   43.2830 C   0  0  0  0  0  0  0  0  0  0  0  0
   46.1200   34.8200   43.0420 C   0  0  0  0  0  0  0  0  0  0  0  0
   46.3920   33.9220   44.0350 N   0  0  0  0  0  0  0  0  0  0  0  0
   45.7780   33.9800   45.2430 C   0  0  0  0  0  0  0  0  0  0  0  0
   44.8640   34.9510   45.4880 N   0  0  0  0  0  0  0  0  0  0  0  0
   46.0820   33.0200   46.2820 C   0  0  0  0  0  0  0  0  0  0  0  0
   45.3880   33.0420   47.4880 C   0  0  0  0  0  0  0  0  0  0  0  0
   45.6250   32.1550   48.5220 C   0  0  0  0  0  0  0  0  0  0  0  0
   46.6040   31.2560   48.2530 C   0  0  0  0  0  0  0  0  0  0  0  0
   47.3320   31.1770   47.0770 C   0  0  0  0  0  0  0  0  0  0  0  0
   47.0170   32.0920   46.1350 N   0  0  0  0  0  0  0  0  0  0  0  0
   44.3810   34.0370   47.6510 N   0  0  0  0  0  0  0  0  0  0  0  0
   46.7800   34.7730   41.7170 C   0  0  0  0  0  0  0  0  0  0  0  0
   48.1670   35.3690   41.7520 C   0  0  0  0  0  0  0  0  0  0  0  0
   49.2100   34.3170   41.8120 C   0  0  0  0  0  0  0  0  0  0  0  0
   50.3280   34.5210   42.5250 N   0  0  0  0  0  0  0  0  0  0  0  0
   51.0640   33.4640   42.4140 O   0  0  0  0  0  0  0  0  0  0  0  0
   50.4670   32.5610   41.6490 C   0  0  0  0  0  0  0  0  0  0  0  0
   49.2840   33.0920   41.2580 N   0  0  0  0  0  0  0  0  0  0  0  0
   43.8318   36.6289   44.7513 H   0  0  0  0  0  0  0  0  0  0  0  0
   44.9414   36.5515   42.5098 H   0  0  0  0  0  0  0  0  0  0  0  0
   45.0719   32.1766   49.4726 H   0  0  0  0  0  0  0  0  0  0  0  0
   46.8413   30.5239   49.0390 H   0  0  0  0  0  0  0  0  0  0  0  0
   48.1143   30.4196   46.9209 H   0  0  0  0  0  0  0  0  0  0  0  0
   43.8442   34.0875   48.5286 H   0  0  0  0  0  0  0  0  0  0  0  0
   44.1899   34.7057   46.8912 H   0  0  0  0  0  0  0  0  0  0  0  0
   46.1696   35.3371   40.9964 H   0  0  0  0  0  0  0  0  0  0  0  0
   46.8722   33.7174   41.4217 H   0  0  0  0  0  0  0  0  0  0  0  0
   48.3197   35.9722   40.8449 H   0  0  0  0  0  0  0  0  0  0  0  0
   48.2523   35.9910   42.6553 H   0  0  0  0  0  0  0  0  0  0  0  0
   50.8584   31.5682   41.3822 H   0  0  0  0  0  0  0  0  0  0  0  0
  1  6  2  0
  2  1  1  0
  3  2  2  0
  3  4  1  0
  4  5  2  0
  5  6  1  0
  5  7  1  0
  7  8  2  0
  8 13  1  0
  8  9  1  0
 10  9  2  0
 11 10  1  0
 12  7  1  0
 12 11  2  0
 14 15  1  0
 14  3  1  0
 15 16  1  0
 16 17  2  0
 18 17  1  0
 19 18  1  0
 20 19  2  0
 20 16  1  0
  1 21  1  0
  2 22  1  0
  9 23  1  0
 10 24  1  0
 11 25  1  0
 13 26  1  0
 13 27  1  0
 14 28  1  0
 14 29  1  0
 15 30  1  0
 15 31  1  0
 19 32  1  0
M  ISO  8  21  14  22  14  23  14  24  14  25  14  28   8  29   8  30   8
M  ISO  2  31   8  32  14
M  END
>  <minimizedAffinity>  (1) 
-6.63372993

>  <minimizedRMSD>  (1) 
0.921547353

$$$$
