
     RDKit          3D

 30 32  0  0  0  0  0  0  0  0999 V2000
   45.2730   32.9330   43.9840 N   0  0  0  0  0  0  0  0  0  0  0  0
   45.5930   31.6140   43.8400 C   0  0  0  0  0  0  0  0  0  0  0  0
   46.0450   31.1590   45.0160 N   0  0  0  0  0  0  0  0  0  0  0  0
   46.0140   32.1790   45.8960 C   0  0  0  0  0  0  0  0  0  0  0  0
   45.5390   33.2580   45.2500 N   0  0  0  0  0  0  0  0  0  0  0  0
   46.4120   32.1210   47.2610 N   0  0  0  0  0  0  0  0  0  0  0  0
   45.4700   32.4180   48.3150 C   0  0  0  0  0  0  0  0  0  0  0  0
   45.4940   31.3530   49.3600 C   0  0  0  0  0  0  0  0  0  0  0  0
   46.7390   30.6960   49.5550 N   0  0  0  0  0  0  0  0  0  0  0  0
   47.9000   31.3490   49.0500 C   0  0  0  0  0  0  0  0  0  0  0  0
   47.7750   31.7580   47.5990 C   0  0  0  0  0  0  0  0  0  0  0  0
   44.0400   33.3690   41.9670 C   0  0  0  0  0  0  0  0  0  0  0  0
   44.7560   33.8770   43.0540 C   0  0  0  0  0  0  0  0  0  0  0  0
   44.9110   35.2590   43.1530 C   0  0  0  0  0  0  0  0  0  0  0  0
   44.3650   36.0390   42.1940 N   0  0  0  0  0  0  0  0  0  0  0  0
   43.6770   35.5170   41.1520 C   0  0  0  0  0  0  0  0  0  0  0  0
   43.5210   34.1770   41.0470 N   0  0  0  0  0  0  0  0  0  0  0  0
   45.4962   31.0251   42.9159 H   0  0  0  0  0  0  0  0  0  0  0  0
   45.7350   33.3813   48.7752 H   0  0  0  0  0  0  0  0  0  0  0  0
   44.4596   32.4664   47.8828 H   0  0  0  0  0  0  0  0  0  0  0  0
   45.2037   31.8135   50.3159 H   0  0  0  0  0  0  0  0  0  0  0  0
   44.8020   30.5751   49.0049 H   0  0  0  0  0  0  0  0  0  0  0  0
   46.8690   30.5709   50.5691 H   0  0  0  0  0  0  0  0  0  0  0  0
   48.0825   32.2512   49.6522 H   0  0  0  0  0  0  0  0  0  0  0  0
   48.7309   30.6311   49.1150 H   0  0  0  0  0  0  0  0  0  0  0  0
   48.0884   30.9170   46.9630 H   0  0  0  0  0  0  0  0  0  0  0  0
   48.4157   32.6366   47.4333 H   0  0  0  0  0  0  0  0  0  0  0  0
   43.9032   32.2818   41.8705 H   0  0  0  0  0  0  0  0  0  0  0  0
   45.4650   35.7043   43.9925 H   0  0  0  0  0  0  0  0  0  0  0  0
   43.2445   36.1823   40.3902 H   0  0  0  0  0  0  0  0  0  0  0  0
  1  5  1  0
  2  1  1  0
  2  3  2  0
  3  4  1  0
  4  6  1  0
  5  4  2  0
  6 11  1  0
  6  7  1  0
  7  8  1  0
  8  9  1  0
 10  9  1  0
 11 10  1  0
 12 13  2  0
 13 14  1  0
 13  1  1  0
 15 14  2  0
 16 15  1  0
 17 16  2  0
 17 12  1  0
  2 18  1  0
  7 19  1  0
  7 20  1  0
  8 21  1  0
  8 22  1  0
  9 23  1  0
 10 24  1  0
 10 25  1  0
 11 26  1  0
 11 27  1  0
 12 28  1  0
 14 29  1  0
 16 30  1  0
M  ISO  8  18  14  19  13  20  13  21  13  22  13  23   5  24  13  25  13
M  ISO  5  26  13  27  13  28  14  29  14  30  14
M  END
>  <minimizedAffinity>  (1) 
-4.8373189

>  <minimizedRMSD>  (1) 
8.05070496

$$$$
