
     RDKit          3D

 42 45  0  0  0  0  0  0  0  0999 V2000
   44.5700   35.8250   44.5550 C   0  0  0  0  0  0  0  0  0  0  0  0
   45.1760   35.7810   43.2960 C   0  0  0  0  0  0  0  0  0  0  0  0
   46.0940   34.7940   43.0530 C   0  0  0  0  0  0  0  0  0  0  0  0
   46.3700   33.9080   44.0480 N   0  0  0  0  0  0  0  0  0  0  0  0
   45.7760   33.9600   45.2630 C   0  0  0  0  0  0  0  0  0  0  0  0
   44.8660   34.9370   45.5080 N   0  0  0  0  0  0  0  0  0  0  0  0
   46.0900   33.0080   46.2990 C   0  0  0  0  0  0  0  0  0  0  0  0
   45.4040   33.0270   47.5010 C   0  0  0  0  0  0  0  0  0  0  0  0
   45.6480   32.1490   48.5380 C   0  0  0  0  0  0  0  0  0  0  0  0
   46.6230   31.2560   48.2770 C   0  0  0  0  0  0  0  0  0  0  0  0
   47.3440   31.1780   47.1050 C   0  0  0  0  0  0  0  0  0  0  0  0
   47.0230   32.0900   46.1530 N   0  0  0  0  0  0  0  0  0  0  0  0
   44.3790   34.0200   47.6700 N   0  0  0  0  0  0  0  0  0  0  0  0
   46.7410   34.7380   41.7230 C   0  0  0  0  0  0  0  0  0  0  0  0
   48.0970   35.4000   41.7110 C   0  0  0  0  0  0  0  0  0  0  0  0
   49.2040   34.4230   41.8270 C   0  0  0  0  0  0  0  0  0  0  0  0
   50.2890   34.6670   42.5630 N   0  0  0  0  0  0  0  0  0  0  0  0
   51.0760   33.6460   42.4790 O   0  0  0  0  0  0  0  0  0  0  0  0
   50.5340   32.7220   41.6970 C   0  0  0  0  0  0  0  0  0  0  0  0
   49.3460   33.1960   41.2730 N   0  0  0  0  0  0  0  0  0  0  0  0
   51.2820   31.5270   41.5020 N   0  0  0  0  0  0  0  0  0  0  0  0
   52.2240   31.5370   40.5390 C   0  0  0  0  0  0  0  0  0  0  0  0
   52.9300   30.3410   40.3850 C   0  0  0  0  0  0  0  0  0  0  0  0
   52.6540   29.2310   41.1880 C   0  0  0  0  0  0  0  0  0  0  0  0
   53.2750   28.1410   41.0700 O   0  0  0  0  0  0  0  0  0  0  0  0
   51.6900   29.3150   42.1280 N   0  0  0  0  0  0  0  0  0  0  0  0
   51.0090   30.4630   42.2790 C   0  0  0  0  0  0  0  0  0  0  0  0
   50.1200   30.4950   43.1670 O   0  0  0  0  0  0  0  0  0  0  0  0
   43.8303   36.6112   44.7664 H   0  0  0  0  0  0  0  0  0  0  0  0
   44.9223   36.5194   42.5211 H   0  0  0  0  0  0  0  0  0  0  0  0
   45.0972   32.1758   49.4898 H   0  0  0  0  0  0  0  0  0  0  0  0
   46.8636   30.5281   49.0658 H   0  0  0  0  0  0  0  0  0  0  0  0
   48.1300   30.4240   46.9511 H   0  0  0  0  0  0  0  0  0  0  0  0
   43.8465   34.0658   48.5505 H   0  0  0  0  0  0  0  0  0  0  0  0
   44.1768   34.6859   46.9106 H   0  0  0  0  0  0  0  0  0  0  0  0
   46.8607   33.6836   41.4332 H   0  0  0  0  0  0  0  0  0  0  0  0
   46.0977   35.2817   41.0155 H   0  0  0  0  0  0  0  0  0  0  0  0
   48.2116   35.9531   40.7671 H   0  0  0  0  0  0  0  0  0  0  0  0
   48.1499   36.0712   42.5809 H   0  0  0  0  0  0  0  0  0  0  0  0
   52.4231   32.4231   39.9184 H   0  0  0  0  0  0  0  0  0  0  0  0
   53.7163   30.2720   39.6188 H   0  0  0  0  0  0  0  0  0  0  0  0
   51.4775   28.5039   42.7262 H   0  0  0  0  0  0  0  0  0  0  0  0
  1  6  2  0
  2  1  1  0
  3  2  2  0
  3  4  1  0
  4  5  2  0
  5  6  1  0
  5  7  1  0
  7  8  2  0
  8 13  1  0
  8  9  1  0
 10  9  2  0
 11 10  1  0
 12  7  1  0
 12 11  2  0
 14  3  1  0
 15 14  1  0
 15 16  1  0
 16 17  2  0
 18 17  1  0
 19 18  1  0
 20 19  2  0
 20 16  1  0
 21 19  1  0
 21 27  1  0
 22 21  1  0
 23 22  2  0
 23 24  1  0
 24 26  1  0
 25 24  2  0
 26 27  1  0
 27 28  2  0
  1 29  1  0
  2 30  1  0
  9 31  1  0
 10 32  1  0
 11 33  1  0
 13 34  1  0
 13 35  1  0
 14 36  1  0
 14 37  1  0
 15 38  1  0
 15 39  1  0
 22 40  1  0
 23 41  1  0
 26 42  1  0
M  ISO  8  29  14  30  14  31  14  32  14  33  14  36   8  37   8  38   8
M  ISO  4  39   8  40  14  41  14  42   9
M  END
>  <minimizedAffinity>  (1) 
-7.47181177

>  <minimizedRMSD>  (1) 
0.210350037

$$$$
