
     RDKit          3D

 41 44  0  0  0  0  0  0  0  0999 V2000
   44.5850   35.8010   44.5420 C   0  0  0  0  0  0  0  0  0  0  0  0
   45.1540   35.7140   43.2650 C   0  0  0  0  0  0  0  0  0  0  0  0
   46.0460   34.6900   43.0210 C   0  0  0  0  0  0  0  0  0  0  0  0
   46.3270   33.8190   44.0270 N   0  0  0  0  0  0  0  0  0  0  0  0
   45.7660   33.9200   45.2550 C   0  0  0  0  0  0  0  0  0  0  0  0
   44.8870   34.9270   45.5010 N   0  0  0  0  0  0  0  0  0  0  0  0
   46.0800   32.9810   46.3130 C   0  0  0  0  0  0  0  0  0  0  0  0
   45.3890   33.0270   47.5200 C   0  0  0  0  0  0  0  0  0  0  0  0
   45.6420   32.1590   48.5690 C   0  0  0  0  0  0  0  0  0  0  0  0
   46.6290   31.2630   48.3020 C   0  0  0  0  0  0  0  0  0  0  0  0
   47.3510   31.1640   47.1350 C   0  0  0  0  0  0  0  0  0  0  0  0
   47.0210   32.0620   46.1720 N   0  0  0  0  0  0  0  0  0  0  0  0
   44.3750   34.0150   47.6750 N   0  0  0  0  0  0  0  0  0  0  0  0
   46.6540   34.5870   41.6750 C   0  0  0  0  0  0  0  0  0  0  0  0
   47.9670   35.3280   41.5810 C   0  0  0  0  0  0  0  0  0  0  0  0
   49.1280   34.4370   41.7800 C   0  0  0  0  0  0  0  0  0  0  0  0
   50.1390   34.7670   42.5930 N   0  0  0  0  0  0  0  0  0  0  0  0
   51.0060   33.8050   42.5720 O   0  0  0  0  0  0  0  0  0  0  0  0
   50.5950   32.8440   41.7640 C   0  0  0  0  0  0  0  0  0  0  0  0
   49.4010   33.2370   41.2560 N   0  0  0  0  0  0  0  0  0  0  0  0
   51.3330   31.6110   41.5070 C   0  0  0  0  0  0  0  0  0  0  0  0
   51.0240   30.5220   42.3050 C   0  0  0  0  0  0  0  0  0  0  0  0
   51.7740   29.3810   41.9960 C   0  0  0  0  0  0  0  0  0  0  0  0
   52.7270   29.3300   41.0000 C   0  0  0  0  0  0  0  0  0  0  0  0
   52.9660   30.4780   40.2510 C   0  0  0  0  0  0  0  0  0  0  0  0
   52.2630   31.5900   40.5240 N   0  0  0  0  0  0  0  0  0  0  0  0
   43.8719   36.6102   44.7581 H   0  0  0  0  0  0  0  0  0  0  0  0
   44.8973   36.4405   42.4800 H   0  0  0  0  0  0  0  0  0  0  0  0
   45.0978   32.1913   49.5244 H   0  0  0  0  0  0  0  0  0  0  0  0
   46.8749   30.5454   49.0986 H   0  0  0  0  0  0  0  0  0  0  0  0
   48.1397   30.4106   46.9925 H   0  0  0  0  0  0  0  0  0  0  0  0
   43.8452   34.0754   48.5562 H   0  0  0  0  0  0  0  0  0  0  0  0
   44.1714   34.6691   46.9059 H   0  0  0  0  0  0  0  0  0  0  0  0
   46.8297   33.5254   41.4465 H   0  0  0  0  0  0  0  0  0  0  0  0
   45.9580   35.0429   40.9555 H   0  0  0  0  0  0  0  0  0  0  0  0
   48.0421   35.7902   40.5856 H   0  0  0  0  0  0  0  0  0  0  0  0
   47.9837   36.0862   42.3778 H   0  0  0  0  0  0  0  0  0  0  0  0
   50.2657   30.5507   43.1013 H   0  0  0  0  0  0  0  0  0  0  0  0
   51.5922   28.4690   42.5836 H   0  0  0  0  0  0  0  0  0  0  0  0
   53.2852   28.4030   40.8024 H   0  0  0  0  0  0  0  0  0  0  0  0
   53.7182   30.4752   39.4484 H   0  0  0  0  0  0  0  0  0  0  0  0
  1  6  2  0
  2  1  1  0
  3  2  2  0
  3  4  1  0
  4  5  2  0
  5  6  1  0
  5  7  1  0
  7  8  2  0
  8 13  1  0
  8  9  1  0
 10  9  2  0
 11 10  1  0
 12  7  1  0
 12 11  2  0
 14  3  1  0
 15 14  1  0
 15 16  1  0
 16 17  2  0
 18 17  1  0
 19 18  1  0
 20 19  2  0
 20 16  1  0
 21 19  1  0
 21 22  2  0
 23 22  1  0
 24 23  2  0
 25 26  2  0
 25 24  1  0
 26 21  1  0
  1 27  1  0
  2 28  1  0
  9 29  1  0
 10 30  1  0
 11 31  1  0
 13 32  1  0
 13 33  1  0
 14 34  1  0
 14 35  1  0
 15 36  1  0
 15 37  1  0
 22 38  1  0
 23 39  1  0
 24 40  1  0
 25 41  1  0
M  ISO  8  27  14  28  14  29  14  30  14  31  14  34   8  35   8  36   8
M  ISO  5  37   8  38  14  39  14  40  14  41  14
M  END
>  <minimizedAffinity>  (1) 
-6.97721338

>  <minimizedRMSD>  (1) 
0.39171508

$$$$
