
     RDKit          3D

 44 46  0  0  0  0  0  0  0  0999 V2000
   44.5670   35.8550   44.5540 C   0  0  0  0  0  0  0  0  0  0  0  0
   45.1770   35.8210   43.2990 C   0  0  0  0  0  0  0  0  0  0  0  0
   46.0980   34.8290   43.0440 C   0  0  0  0  0  0  0  0  0  0  0  0
   46.3780   33.9200   44.0310 N   0  0  0  0  0  0  0  0  0  0  0  0
   45.7720   33.9760   45.2430 C   0  0  0  0  0  0  0  0  0  0  0  0
   44.8620   34.9560   45.4930 N   0  0  0  0  0  0  0  0  0  0  0  0
   46.0760   33.0080   46.2780 C   0  0  0  0  0  0  0  0  0  0  0  0
   45.3820   33.0320   47.4930 C   0  0  0  0  0  0  0  0  0  0  0  0
   45.6200   32.1400   48.5220 C   0  0  0  0  0  0  0  0  0  0  0  0
   46.6020   31.2340   48.2390 C   0  0  0  0  0  0  0  0  0  0  0  0
   47.3240   31.1580   47.0610 C   0  0  0  0  0  0  0  0  0  0  0  0
   47.0110   32.0780   46.1190 N   0  0  0  0  0  0  0  0  0  0  0  0
   44.3830   34.0290   47.6590 N   0  0  0  0  0  0  0  0  0  0  0  0
   46.7560   34.7760   41.7150 C   0  0  0  0  0  0  0  0  0  0  0  0
   48.1290   35.4090   41.7440 C   0  0  0  0  0  0  0  0  0  0  0  0
   49.2080   34.4000   41.8390 C   0  0  0  0  0  0  0  0  0  0  0  0
   50.3140   34.6140   42.5540 N   0  0  0  0  0  0  0  0  0  0  0  0
   51.0650   33.5710   42.4510 O   0  0  0  0  0  0  0  0  0  0  0  0
   50.4810   32.6570   41.6780 C   0  0  0  0  0  0  0  0  0  0  0  0
   49.3070   33.1880   41.2930 N   0  0  0  0  0  0  0  0  0  0  0  0
   51.0790   31.3170   41.3440 C   0  0  0  0  0  0  0  0  0  0  0  0
   50.0070   30.4570   40.6670 C   0  0  0  0  0  0  0  0  0  0  0  0
   51.4250   30.6330   42.6350 C   0  0  0  0  0  0  0  0  0  0  0  0
   52.2670   31.5100   40.4360 C   0  0  0  0  0  0  0  0  0  0  0  0
   43.8277   36.6397   44.7726 H   0  0  0  0  0  0  0  0  0  0  0  0
   44.9281   36.5688   42.5317 H   0  0  0  0  0  0  0  0  0  0  0  0
   45.0720   32.1582   49.4756 H   0  0  0  0  0  0  0  0  0  0  0  0
   46.8410   30.4967   49.0195 H   0  0  0  0  0  0  0  0  0  0  0  0
   48.1029   30.3981   46.9004 H   0  0  0  0  0  0  0  0  0  0  0  0
   43.8489   34.0815   48.5381 H   0  0  0  0  0  0  0  0  0  0  0  0
   44.1931   34.6991   46.9002 H   0  0  0  0  0  0  0  0  0  0  0  0
   46.1312   35.3134   40.9864 H   0  0  0  0  0  0  0  0  0  0  0  0
   46.8719   33.7193   41.4321 H   0  0  0  0  0  0  0  0  0  0  0  0
   48.2697   35.9924   40.8221 H   0  0  0  0  0  0  0  0  0  0  0  0
   48.1866   36.0500   42.6361 H   0  0  0  0  0  0  0  0  0  0  0  0
   49.3930   29.9644   41.4353 H   0  0  0  0  0  0  0  0  0  0  0  0
   49.3671   31.0951   40.0398 H   0  0  0  0  0  0  0  0  0  0  0  0
   50.4912   29.6940   40.0398 H   0  0  0  0  0  0  0  0  0  0  0  0
   51.1070   31.2617   43.4798 H   0  0  0  0  0  0  0  0  0  0  0  0
   50.9093   29.6627   42.6855 H   0  0  0  0  0  0  0  0  0  0  0  0
   52.5122   30.4735   42.6855 H   0  0  0  0  0  0  0  0  0  0  0  0
   53.1724   31.6571   41.0431 H   0  0  0  0  0  0  0  0  0  0  0  0
   52.3917   30.6203   39.8012 H   0  0  0  0  0  0  0  0  0  0  0  0
   52.1036   32.3934   39.8012 H   0  0  0  0  0  0  0  0  0  0  0  0
  1  6  2  0
  2  1  1  0
  3  2  2  0
  3  4  1  0
  4  5  2  0
  5  6  1  0
  5  7  1  0
  7  8  2  0
  8 13  1  0
  8  9  1  0
 10  9  2  0
 11 10  1  0
 12  7  1  0
 12 11  2  0
 14 15  1  0
 14  3  1  0
 15 16  1  0
 16 17  2  0
 18 17  1  0
 19 18  1  0
 20 19  2  0
 20 16  1  0
 21 19  1  0
 21 23  1  0
 22 21  1  0
 24 21  1  0
  1 25  1  0
  2 26  1  0
  9 27  1  0
 10 28  1  0
 11 29  1  0
 13 30  1  0
 13 31  1  0
 14 32  1  0
 14 33  1  0
 15 34  1  0
 15 35  1  0
 22 36  1  0
 22 37  1  0
 22 38  1  0
 23 39  1  0
 23 40  1  0
 23 41  1  0
 24 42  1  0
 24 43  1  0
 24 44  1  0
M  ISO  8  25  14  26  14  27  14  28  14  29  14  32   8  33   8  34   8
M  ISO  8  35   8  36   8  37   8  38   8  39   8  40   8  41   8  42   8
M  ISO  2  43   8  44   8
M  END
>  <minimizedAffinity>  (1) 
-6.93323612

>  <minimizedRMSD>  (1) 
0.303384542

$$$$
