
     RDKit          3D

 39 42  0  0  0  0  0  0  0  0999 V2000
   44.5840   35.8010   44.5420 C   0  0  0  0  0  0  0  0  0  0  0  0
   45.1600   35.7210   43.2740 C   0  0  0  0  0  0  0  0  0  0  0  0
   46.0630   34.7020   43.0230 C   0  0  0  0  0  0  0  0  0  0  0  0
   46.3490   33.8230   44.0310 N   0  0  0  0  0  0  0  0  0  0  0  0
   45.7720   33.9230   45.2610 C   0  0  0  0  0  0  0  0  0  0  0  0
   44.8840   34.9250   45.5100 N   0  0  0  0  0  0  0  0  0  0  0  0
   46.0870   32.9830   46.3130 C   0  0  0  0  0  0  0  0  0  0  0  0
   45.3990   33.0240   47.5110 C   0  0  0  0  0  0  0  0  0  0  0  0
   45.6460   32.1520   48.5710 C   0  0  0  0  0  0  0  0  0  0  0  0
   46.6250   31.2620   48.3130 C   0  0  0  0  0  0  0  0  0  0  0  0
   47.3480   31.1680   47.1410 C   0  0  0  0  0  0  0  0  0  0  0  0
   47.0280   32.0650   46.1740 N   0  0  0  0  0  0  0  0  0  0  0  0
   44.3790   34.0160   47.6690 N   0  0  0  0  0  0  0  0  0  0  0  0
   46.6830   34.6010   41.6800 C   0  0  0  0  0  0  0  0  0  0  0  0
   47.9980   35.3460   41.6180 C   0  0  0  0  0  0  0  0  0  0  0  0
   49.1540   34.4520   41.8060 C   0  0  0  0  0  0  0  0  0  0  0  0
   50.1680   34.7440   42.6160 N   0  0  0  0  0  0  0  0  0  0  0  0
   51.0250   33.7840   42.5790 O   0  0  0  0  0  0  0  0  0  0  0  0
   50.6120   32.8360   41.7530 C   0  0  0  0  0  0  0  0  0  0  0  0
   49.4310   33.2620   41.2690 N   0  0  0  0  0  0  0  0  0  0  0  0
   51.1790   31.5590   41.3430 C   0  0  0  0  0  0  0  0  0  0  0  0
   50.8050   30.2530   41.6800 C   0  0  0  0  0  0  0  0  0  0  0  0
   51.7090   29.4400   40.9880 C   0  0  0  0  0  0  0  0  0  0  0  0
   52.5480   30.2320   40.3000 N   0  0  0  0  0  0  0  0  0  0  0  0
   52.2490   31.5110   40.4960 N   0  0  0  0  0  0  0  0  0  0  0  0
   43.8638   36.6053   44.7527 H   0  0  0  0  0  0  0  0  0  0  0  0
   44.9028   36.4505   42.4919 H   0  0  0  0  0  0  0  0  0  0  0  0
   45.0964   32.1870   49.5232 H   0  0  0  0  0  0  0  0  0  0  0  0
   46.8703   30.5445   49.1099 H   0  0  0  0  0  0  0  0  0  0  0  0
   48.1350   30.4127   46.9994 H   0  0  0  0  0  0  0  0  0  0  0  0
   43.8480   34.0729   48.5497 H   0  0  0  0  0  0  0  0  0  0  0  0
   44.1761   34.6728   46.9020 H   0  0  0  0  0  0  0  0  0  0  0  0
   46.8618   33.5407   41.4479 H   0  0  0  0  0  0  0  0  0  0  0  0
   45.9964   35.0521   40.9485 H   0  0  0  0  0  0  0  0  0  0  0  0
   48.0831   35.8331   40.6354 H   0  0  0  0  0  0  0  0  0  0  0  0
   48.0063   36.0845   42.4332 H   0  0  0  0  0  0  0  0  0  0  0  0
   49.9844   29.9368   42.3407 H   0  0  0  0  0  0  0  0  0  0  0  0
   51.7293   28.3403   41.0044 H   0  0  0  0  0  0  0  0  0  0  0  0
   53.3166   29.8942   39.7033 H   0  0  0  0  0  0  0  0  0  0  0  0
  1  6  2  0
  2  1  1  0
  3  2  2  0
  3  4  1  0
  4  5  2  0
  5  6  1  0
  5  7  1  0
  7  8  2  0
  8 13  1  0
  8  9  1  0
 10  9  2  0
 11 10  1  0
 12  7  1  0
 12 11  2  0
 14  3  1  0
 15 14  1  0
 15 16  1  0
 16 17  2  0
 18 17  1  0
 19 18  1  0
 20 19  2  0
 20 16  1  0
 21 22  1  0
 21 19  1  0
 23 22  2  0
 24 25  1  0
 24 23  1  0
 25 21  2  0
  1 26  1  0
  2 27  1  0
  9 28  1  0
 10 29  1  0
 11 30  1  0
 13 31  1  0
 13 32  1  0
 14 33  1  0
 14 34  1  0
 15 35  1  0
 15 36  1  0
 22 37  1  0
 23 38  1  0
 24 39  1  0
M  ISO  8  26  14  27  14  28  14  29  14  30  14  33   8  34   8  35   8
M  ISO  4  36   8  37  14  38  14  39   9
M  END
>  <minimizedAffinity>  (1) 
-6.82659769

>  <minimizedRMSD>  (1) 
0.339910299

$$$$
