
     RDKit          3D

 35 37  0  0  0  0  0  0  0  0999 V2000
   44.5720   35.8500   44.5440 C   0  0  0  0  0  0  0  0  0  0  0  0
   45.1780   35.8160   43.2920 C   0  0  0  0  0  0  0  0  0  0  0  0
   46.1090   34.8180   43.0400 C   0  0  0  0  0  0  0  0  0  0  0  0
   46.3860   33.9190   44.0300 N   0  0  0  0  0  0  0  0  0  0  0  0
   45.7720   33.9830   45.2450 C   0  0  0  0  0  0  0  0  0  0  0  0
   44.8560   34.9630   45.4960 N   0  0  0  0  0  0  0  0  0  0  0  0
   46.0850   33.0190   46.2700 C   0  0  0  0  0  0  0  0  0  0  0  0
   45.3920   33.0400   47.4780 C   0  0  0  0  0  0  0  0  0  0  0  0
   45.6290   32.1540   48.5100 C   0  0  0  0  0  0  0  0  0  0  0  0
   46.6000   31.2590   48.2450 C   0  0  0  0  0  0  0  0  0  0  0  0
   47.3300   31.1830   47.0610 C   0  0  0  0  0  0  0  0  0  0  0  0
   47.0170   32.0950   46.1190 N   0  0  0  0  0  0  0  0  0  0  0  0
   44.3800   34.0350   47.6550 N   0  0  0  0  0  0  0  0  0  0  0  0
   46.7640   34.7670   41.7140 C   0  0  0  0  0  0  0  0  0  0  0  0
   48.1410   35.3860   41.7360 C   0  0  0  0  0  0  0  0  0  0  0  0
   49.2180   34.3910   41.8360 C   0  0  0  0  0  0  0  0  0  0  0  0
   50.3190   34.5880   42.5610 N   0  0  0  0  0  0  0  0  0  0  0  0
   51.0720   33.5470   42.4540 O   0  0  0  0  0  0  0  0  0  0  0  0
   50.5030   32.6510   41.6700 C   0  0  0  0  0  0  0  0  0  0  0  0
   49.3310   33.1850   41.2800 N   0  0  0  0  0  0  0  0  0  0  0  0
   51.0120   31.3230   41.2770 C   0  0  0  0  0  0  0  0  0  0  0  0
   43.8327   36.6368   44.7548 H   0  0  0  0  0  0  0  0  0  0  0  0
   44.9259   36.5603   42.5223 H   0  0  0  0  0  0  0  0  0  0  0  0
   45.0760   32.1769   49.4606 H   0  0  0  0  0  0  0  0  0  0  0  0
   46.8367   30.5258   49.0302 H   0  0  0  0  0  0  0  0  0  0  0  0
   48.1128   30.4262   46.9046 H   0  0  0  0  0  0  0  0  0  0  0  0
   43.8488   34.0782   48.5364 H   0  0  0  0  0  0  0  0  0  0  0  0
   44.1824   34.7084   46.9011 H   0  0  0  0  0  0  0  0  0  0  0  0
   46.1414   35.3127   40.9897 H   0  0  0  0  0  0  0  0  0  0  0  0
   46.8726   33.7097   41.4305 H   0  0  0  0  0  0  0  0  0  0  0  0
   48.2810   35.9617   40.8092 H   0  0  0  0  0  0  0  0  0  0  0  0
   48.1998   36.0244   42.6298 H   0  0  0  0  0  0  0  0  0  0  0  0
   51.2373   30.7351   42.1790 H   0  0  0  0  0  0  0  0  0  0  0  0
   50.2504   30.8005   40.6795 H   0  0  0  0  0  0  0  0  0  0  0  0
   51.9277   31.4434   40.6795 H   0  0  0  0  0  0  0  0  0  0  0  0
  1  6  2  0
  2  1  1  0
  3  2  2  0
  3  4  1  0
  4  5  2  0
  5  6  1  0
  5  7  1  0
  7  8  2  0
  8 13  1  0
  8  9  1  0
 10  9  2  0
 11 10  1  0
 12  7  1  0
 12 11  2  0
 14 15  1  0
 14  3  1  0
 15 16  1  0
 16 17  2  0
 18 17  1  0
 19 18  1  0
 20 19  2  0
 20 16  1  0
 21 19  1  0
  1 22  1  0
  2 23  1  0
  9 24  1  0
 10 25  1  0
 11 26  1  0
 13 27  1  0
 13 28  1  0
 14 29  1  0
 14 30  1  0
 15 31  1  0
 15 32  1  0
 21 33  1  0
 21 34  1  0
 21 35  1  0
M  ISO  8  22  14  23  14  24  14  25  14  26  14  29   8  30   8  31   8
M  ISO  4  32   8  33   8  34   8  35   8
M  END
>  <minimizedAffinity>  (1) 
-6.77549648

>  <minimizedRMSD>  (1) 
0.0470329113

$$$$
