
     RDKit          3D

 45 48  0  0  0  0  0  0  0  0999 V2000
   46.5240   34.5410   41.6330 C   0  0  0  0  0  0  0  0  0  0  0  0
   44.5890   35.8090   44.5580 C   0  0  0  0  0  0  0  0  0  0  0  0
   45.1140   35.7020   43.2570 C   0  0  0  0  0  0  0  0  0  0  0  0
   45.9660   34.6620   42.9970 C   0  0  0  0  0  0  0  0  0  0  0  0
   46.2580   33.7930   44.0010 N   0  0  0  0  0  0  0  0  0  0  0  0
   45.7400   33.9160   45.2460 C   0  0  0  0  0  0  0  0  0  0  0  0
   44.8960   34.9410   45.5150 N   0  0  0  0  0  0  0  0  0  0  0  0
   46.0640   32.9820   46.3030 C   0  0  0  0  0  0  0  0  0  0  0  0
   45.3950   33.0220   47.5110 C   0  0  0  0  0  0  0  0  0  0  0  0
   45.6690   32.1540   48.5510 C   0  0  0  0  0  0  0  0  0  0  0  0
   46.6440   31.2620   48.2920 C   0  0  0  0  0  0  0  0  0  0  0  0
   47.3490   31.1670   47.1160 C   0  0  0  0  0  0  0  0  0  0  0  0
   47.0090   32.0590   46.1580 N   0  0  0  0  0  0  0  0  0  0  0  0
   44.3740   34.0090   47.6780 N   0  0  0  0  0  0  0  0  0  0  0  0
   47.8180   35.3110   41.4690 C   0  0  0  0  0  0  0  0  0  0  0  0
   49.0060   34.4840   41.7450 C   0  0  0  0  0  0  0  0  0  0  0  0
   50.0010   34.9050   42.5240 N   0  0  0  0  0  0  0  0  0  0  0  0
   50.8930   33.9820   42.5840 O   0  0  0  0  0  0  0  0  0  0  0  0
   50.5330   32.9370   41.8620 C   0  0  0  0  0  0  0  0  0  0  0  0
   49.3400   33.2590   41.3340 N   0  0  0  0  0  0  0  0  0  0  0  0
   52.8450   29.4770   41.4620 C   0  0  0  0  0  0  0  0  0  0  0  0
   52.8420   30.4230   40.4690 C   0  0  0  0  0  0  0  0  0  0  0  0
   52.0830   31.5660   40.5940 C   0  0  0  0  0  0  0  0  0  0  0  0
   51.3320   31.7350   41.7300 C   0  0  0  0  0  0  0  0  0  0  0  0
   51.3160   30.7910   42.7530 C   0  0  0  0  0  0  0  0  0  0  0  0
   52.0810   29.6500   42.6170 C   0  0  0  0  0  0  0  0  0  0  0  0
   53.8520   28.0580   41.1950 S   0  0  0  0  0  0  0  0  0  0  0  0
   53.1820   27.2450   40.1180 O   0  0  0  0  0  0  0  0  0  0  0  0
   55.1900   28.5300   40.7120 O   0  0  0  0  0  0  0  0  0  0  0  0
   46.7159   33.4785   41.4226 H   0  0  0  0  0  0  0  0  0  0  0  0
   45.7902   34.9642   40.9313 H   0  0  0  0  0  0  0  0  0  0  0  0
   43.9031   36.6372   44.7896 H   0  0  0  0  0  0  0  0  0  0  0  0
   44.8490   36.4291   42.4753 H   0  0  0  0  0  0  0  0  0  0  0  0
   45.1344   32.1889   49.5117 H   0  0  0  0  0  0  0  0  0  0  0  0
   46.8979   30.5485   49.0898 H   0  0  0  0  0  0  0  0  0  0  0  0
   48.1375   30.4153   46.9641 H   0  0  0  0  0  0  0  0  0  0  0  0
   43.8547   34.0677   48.5656 H   0  0  0  0  0  0  0  0  0  0  0  0
   44.1578   34.6613   46.9107 H   0  0  0  0  0  0  0  0  0  0  0  0
   47.8790   35.6821   40.4353 H   0  0  0  0  0  0  0  0  0  0  0  0
   47.8097   36.1369   42.1956 H   0  0  0  0  0  0  0  0  0  0  0  0
   53.4503   30.2679   39.5657 H   0  0  0  0  0  0  0  0  0  0  0  0
   52.0791   32.3271   39.7999 H   0  0  0  0  0  0  0  0  0  0  0  0
   50.7048   30.9514   43.6534 H   0  0  0  0  0  0  0  0  0  0  0  0
   52.0883   28.8867   43.4091 H   0  0  0  0  0  0  0  0  0  0  0  0
   54.0113   27.3112   42.3324 H   0  0  0  0  0  0  0  0  0  0  0  0
  1  4  1  0
  2  7  2  0
  3  2  1  0
  4  3  2  0
  4  5  1  0
  5  6  2  0
  6  7  1  0
  6  8  1  0
  8  9  2  0
  9 14  1  0
  9 10  1  0
 11 10  2  0
 12 11  1  0
 13  8  1  0
 13 12  2  0
 15  1  1  0
 15 16  1  0
 16 17  2  0
 17 18  1  0
 19 18  1  0
 20 16  1  0
 20 19  2  0
 21 26  2  0
 22 23  2  0
 22 21  1  0
 23 24  1  0
 24 19  1  0
 24 25  2  0
 26 25  1  0
 27 21  1  0
 28 27  2  0
 29 27  2  0
  1 30  1  0
  1 31  1  0
  2 32  1  0
  3 33  1  0
 10 34  1  0
 11 35  1  0
 12 36  1  0
 14 37  1  0
 14 38  1  0
 15 39  1  0
 15 40  1  0
 22 41  1  0
 23 42  1  0
 25 43  1  0
 26 44  1  0
 27 45  1  0
M  ISO  8  30   8  31   8  32  14  33  14  34  14  35  14  36  14  39   8
M  ISO  6  40   8  41  14  42  14  43  14  44  14  45  11
M  END
>  <minimizedAffinity>  (1) 
-6.83134794

>  <minimizedRMSD>  (1) 
0.997875869

$$$$
