
     RDKit          3D

 37 40  0  0  0  0  0  0  0  0999 V2000
   44.5580   35.8240   44.5710 C   0  0  0  0  0  0  0  0  0  0  0  0
   45.1650   35.7760   43.3040 C   0  0  0  0  0  0  0  0  0  0  0  0
   46.0980   34.7770   43.0590 C   0  0  0  0  0  0  0  0  0  0  0  0
   46.3820   33.8900   44.0600 N   0  0  0  0  0  0  0  0  0  0  0  0
   45.7760   33.9660   45.2730 C   0  0  0  0  0  0  0  0  0  0  0  0
   44.8630   34.9370   45.5250 N   0  0  0  0  0  0  0  0  0  0  0  0
   46.0950   33.0040   46.3070 C   0  0  0  0  0  0  0  0  0  0  0  0
   45.3880   33.0180   47.5170 C   0  0  0  0  0  0  0  0  0  0  0  0
   45.6220   32.1310   48.5400 C   0  0  0  0  0  0  0  0  0  0  0  0
   46.6020   31.2350   48.2810 C   0  0  0  0  0  0  0  0  0  0  0  0
   47.3420   31.1680   47.1000 C   0  0  0  0  0  0  0  0  0  0  0  0
   47.0390   32.0810   46.1560 N   0  0  0  0  0  0  0  0  0  0  0  0
   44.3880   34.0100   47.6740 N   0  0  0  0  0  0  0  0  0  0  0  0
   46.7400   34.7170   41.7280 C   0  0  0  0  0  0  0  0  0  0  0  0
   48.0870   35.3920   41.7240 C   0  0  0  0  0  0  0  0  0  0  0  0
   49.2080   34.4310   41.8270 C   0  0  0  0  0  0  0  0  0  0  0  0
   50.2450   34.6310   42.6300 N   0  0  0  0  0  0  0  0  0  0  0  0
   51.0590   33.6330   42.5090 O   0  0  0  0  0  0  0  0  0  0  0  0
   50.5730   32.7670   41.6270 C   0  0  0  0  0  0  0  0  0  0  0  0
   49.3990   33.2730   41.1950 N   0  0  0  0  0  0  0  0  0  0  0  0
   51.2040   31.5140   41.2200 C   0  0  0  0  0  0  0  0  0  0  0  0
   50.8430   30.2430   41.4720 N   0  0  0  0  0  0  0  0  0  0  0  0
   51.6680   29.3980   40.9320 O   0  0  0  0  0  0  0  0  0  0  0  0
   52.5850   30.1140   40.3140 C   0  0  0  0  0  0  0  0  0  0  0  0
   52.3370   31.4470   40.4660 N   0  0  0  0  0  0  0  0  0  0  0  0
   43.8160   36.6080   44.7827 H   0  0  0  0  0  0  0  0  0  0  0  0
   44.9076   36.5107   42.5268 H   0  0  0  0  0  0  0  0  0  0  0  0
   45.0617   32.1479   49.4865 H   0  0  0  0  0  0  0  0  0  0  0  0
   46.8343   30.4995   49.0652 H   0  0  0  0  0  0  0  0  0  0  0  0
   48.1277   30.4133   46.9481 H   0  0  0  0  0  0  0  0  0  0  0  0
   43.8430   34.0583   48.5467 H   0  0  0  0  0  0  0  0  0  0  0  0
   44.2062   34.6826   46.9154 H   0  0  0  0  0  0  0  0  0  0  0  0
   46.8696   33.6626   41.4427 H   0  0  0  0  0  0  0  0  0  0  0  0
   46.0919   35.2442   41.0124 H   0  0  0  0  0  0  0  0  0  0  0  0
   48.1940   35.9583   40.7871 H   0  0  0  0  0  0  0  0  0  0  0  0
   48.1315   36.0499   42.6045 H   0  0  0  0  0  0  0  0  0  0  0  0
   53.4334   29.6951   39.7530 H   0  0  0  0  0  0  0  0  0  0  0  0
  1  6  2  0
  2  1  1  0
  3  2  2  0
  3  4  1  0
  4  5  2  0
  5  6  1  0
  5  7  1  0
  7  8  2  0
  8 13  1  0
  8  9  1  0
 10  9  2  0
 11 10  1  0
 12  7  1  0
 12 11  2  0
 14  3  1  0
 15 14  1  0
 15 16  1  0
 16 17  2  0
 18 17  1  0
 19 18  1  0
 20 19  2  0
 20 16  1  0
 21 22  2  0
 21 19  1  0
 23 22  1  0
 24 25  2  0
 24 23  1  0
 25 21  1  0
  1 26  1  0
  2 27  1  0
  9 28  1  0
 10 29  1  0
 11 30  1  0
 13 31  1  0
 13 32  1  0
 14 33  1  0
 14 34  1  0
 15 35  1  0
 15 36  1  0
 24 37  1  0
M  ISO  8  26  14  27  14  28  14  29  14  30  14  33   8  34   8  35   8
M  ISO  2  36   8  37  14
M  END
>  <minimizedAffinity>  (1) 
-6.86598206

>  <minimizedRMSD>  (1) 
0.319922239

$$$$
