
     RDKit          3D

 39 42  0  0  0  0  0  0  0  0999 V2000
   44.5750   35.8210   44.5400 C   0  0  0  0  0  0  0  0  0  0  0  0
   45.1870   35.7650   43.2790 C   0  0  0  0  0  0  0  0  0  0  0  0
   46.1040   34.7710   43.0500 C   0  0  0  0  0  0  0  0  0  0  0  0
   46.3790   33.8890   44.0450 N   0  0  0  0  0  0  0  0  0  0  0  0
   45.7790   33.9570   45.2600 C   0  0  0  0  0  0  0  0  0  0  0  0
   44.8660   34.9400   45.4990 N   0  0  0  0  0  0  0  0  0  0  0  0
   46.0910   33.0050   46.3020 C   0  0  0  0  0  0  0  0  0  0  0  0
   45.3920   33.0350   47.5090 C   0  0  0  0  0  0  0  0  0  0  0  0
   45.6390   32.1540   48.5490 C   0  0  0  0  0  0  0  0  0  0  0  0
   46.6150   31.2630   48.2930 C   0  0  0  0  0  0  0  0  0  0  0  0
   47.3480   31.1830   47.1110 C   0  0  0  0  0  0  0  0  0  0  0  0
   47.0270   32.0880   46.1630 N   0  0  0  0  0  0  0  0  0  0  0  0
   44.3780   34.0270   47.6620 N   0  0  0  0  0  0  0  0  0  0  0  0
   46.7570   34.7060   41.7160 C   0  0  0  0  0  0  0  0  0  0  0  0
   48.1120   35.3850   41.7140 C   0  0  0  0  0  0  0  0  0  0  0  0
   49.2110   34.3950   41.8210 C   0  0  0  0  0  0  0  0  0  0  0  0
   50.2840   34.6440   42.6050 N   0  0  0  0  0  0  0  0  0  0  0  0
   51.0770   33.6180   42.5080 O   0  0  0  0  0  0  0  0  0  0  0  0
   50.5650   32.7210   41.7010 C   0  0  0  0  0  0  0  0  0  0  0  0
   49.3890   33.1980   41.2620 N   0  0  0  0  0  0  0  0  0  0  0  0
   51.1520   31.4250   41.3300 C   0  0  0  0  0  0  0  0  0  0  0  0
   50.8220   30.1690   41.7540 C   0  0  0  0  0  0  0  0  0  0  0  0
   51.5140   29.1220   41.2660 C   0  0  0  0  0  0  0  0  0  0  0  0
   52.5660   29.3900   40.3220 C   0  0  0  0  0  0  0  0  0  0  0  0
   52.4810   31.2430   40.1950 S   0  0  0  0  0  0  0  0  0  0  0  0
   43.8369   36.6108   44.7433 H   0  0  0  0  0  0  0  0  0  0  0  0
   44.9387   36.4971   42.4964 H   0  0  0  0  0  0  0  0  0  0  0  0
   45.0865   32.1802   49.4998 H   0  0  0  0  0  0  0  0  0  0  0  0
   46.8540   30.5368   49.0839 H   0  0  0  0  0  0  0  0  0  0  0  0
   48.1368   30.4313   46.9604 H   0  0  0  0  0  0  0  0  0  0  0  0
   43.8394   34.0820   48.5382 H   0  0  0  0  0  0  0  0  0  0  0  0
   44.1846   34.6881   46.8962 H   0  0  0  0  0  0  0  0  0  0  0  0
   46.8882   33.6504   41.4358 H   0  0  0  0  0  0  0  0  0  0  0  0
   46.1124   35.2314   40.9960 H   0  0  0  0  0  0  0  0  0  0  0  0
   48.2284   35.9497   40.7772 H   0  0  0  0  0  0  0  0  0  0  0  0
   48.1647   36.0574   42.5829 H   0  0  0  0  0  0  0  0  0  0  0  0
   50.0085   30.0162   42.4785 H   0  0  0  0  0  0  0  0  0  0  0  0
   51.2821   28.0934   41.5795 H   0  0  0  0  0  0  0  0  0  0  0  0
   53.2404   28.6866   39.8117 H   0  0  0  0  0  0  0  0  0  0  0  0
  1  6  2  0
  2  1  1  0
  3  2  2  0
  3  4  1  0
  4  5  2  0
  5  6  1  0
  5  7  1  0
  7  8  2  0
  8 13  1  0
  8  9  1  0
 10  9  2  0
 11 10  1  0
 12  7  1  0
 12 11  2  0
 14  3  1  0
 15 14  1  0
 15 16  1  0
 16 17  2  0
 18 17  1  0
 19 18  1  0
 20 19  2  0
 20 16  1  0
 21 19  1  0
 21 22  2  0
 23 22  1  0
 24 23  2  0
 25 24  1  0
 25 21  1  0
  1 26  1  0
  2 27  1  0
  9 28  1  0
 10 29  1  0
 11 30  1  0
 13 31  1  0
 13 32  1  0
 14 33  1  0
 14 34  1  0
 15 35  1  0
 15 36  1  0
 22 37  1  0
 23 38  1  0
 24 39  1  0
M  ISO  8  26  14  27  14  28  14  29  14  30  14  33   8  34   8  35   8
M  ISO  4  36   8  37  14  38  14  39  14
M  END
>  <minimizedAffinity>  (1) 
-6.87007618

>  <minimizedRMSD>  (1) 
0.357917041

$$$$
