
     RDKit          3D

 38 40  0  0  0  0  0  0  0  0999 V2000
   44.5690   35.8420   44.5570 C   0  0  0  0  0  0  0  0  0  0  0  0
   45.1870   35.7960   43.2950 C   0  0  0  0  0  0  0  0  0  0  0  0
   46.1050   34.8090   43.0540 C   0  0  0  0  0  0  0  0  0  0  0  0
   46.3800   33.9120   44.0480 N   0  0  0  0  0  0  0  0  0  0  0  0
   45.7770   33.9720   45.2540 C   0  0  0  0  0  0  0  0  0  0  0  0
   44.8620   34.9500   45.5050 N   0  0  0  0  0  0  0  0  0  0  0  0
   46.0800   33.0120   46.3000 C   0  0  0  0  0  0  0  0  0  0  0  0
   45.3850   33.0380   47.4990 C   0  0  0  0  0  0  0  0  0  0  0  0
   45.6260   32.1510   48.5300 C   0  0  0  0  0  0  0  0  0  0  0  0
   46.6060   31.2480   48.2720 C   0  0  0  0  0  0  0  0  0  0  0  0
   47.3390   31.1730   47.0870 C   0  0  0  0  0  0  0  0  0  0  0  0
   47.0190   32.0850   46.1510 N   0  0  0  0  0  0  0  0  0  0  0  0
   44.3780   34.0330   47.6580 N   0  0  0  0  0  0  0  0  0  0  0  0
   46.7630   34.7510   41.7250 C   0  0  0  0  0  0  0  0  0  0  0  0
   48.1280   35.3970   41.7400 C   0  0  0  0  0  0  0  0  0  0  0  0
   49.2140   34.3920   41.8310 C   0  0  0  0  0  0  0  0  0  0  0  0
   50.3030   34.6020   42.5770 N   0  0  0  0  0  0  0  0  0  0  0  0
   51.0710   33.5700   42.4720 O   0  0  0  0  0  0  0  0  0  0  0  0
   50.5210   32.6750   41.6690 C   0  0  0  0  0  0  0  0  0  0  0  0
   49.3240   33.1750   41.2400 N   0  0  0  0  0  0  0  0  0  0  0  0
   51.0560   31.3390   41.2640 C   0  0  0  0  0  0  0  0  0  0  0  0
   52.2650   31.4760   40.4000 C   0  0  0  0  0  0  0  0  0  0  0  0
   43.8295   36.6288   44.7669 H   0  0  0  0  0  0  0  0  0  0  0  0
   44.9389   36.5355   42.5194 H   0  0  0  0  0  0  0  0  0  0  0  0
   45.0709   32.1744   49.4794 H   0  0  0  0  0  0  0  0  0  0  0  0
   46.8411   30.5171   49.0598 H   0  0  0  0  0  0  0  0  0  0  0  0
   48.1248   30.4197   46.9289 H   0  0  0  0  0  0  0  0  0  0  0  0
   43.8394   34.0852   48.5344 H   0  0  0  0  0  0  0  0  0  0  0  0
   44.1885   34.7002   46.8966 H   0  0  0  0  0  0  0  0  0  0  0  0
   46.1306   35.2743   40.9927 H   0  0  0  0  0  0  0  0  0  0  0  0
   46.8915   33.6922   41.4558 H   0  0  0  0  0  0  0  0  0  0  0  0
   48.2570   35.9773   40.8145 H   0  0  0  0  0  0  0  0  0  0  0  0
   48.1885   36.0457   42.6263 H   0  0  0  0  0  0  0  0  0  0  0  0
   51.3242   30.7719   42.1676 H   0  0  0  0  0  0  0  0  0  0  0  0
   50.2781   30.8139   40.6903 H   0  0  0  0  0  0  0  0  0  0  0  0
   53.1587   31.5773   41.0333 H   0  0  0  0  0  0  0  0  0  0  0  0
   52.3649   30.5834   39.7649 H   0  0  0  0  0  0  0  0  0  0  0  0
   52.1626   32.3683   39.7649 H   0  0  0  0  0  0  0  0  0  0  0  0
  1  6  2  0
  2  1  1  0
  3  2  2  0
  3  4  1  0
  4  5  2  0
  5  6  1  0
  5  7  1  0
  7  8  2  0
  8 13  1  0
  8  9  1  0
 10  9  2  0
 11 10  1  0
 12  7  1  0
 12 11  2  0
 14 15  1  0
 14  3  1  0
 15 16  1  0
 16 17  2  0
 18 17  1  0
 19 18  1  0
 20 19  2  0
 20 16  1  0
 21 19  1  0
 22 21  1  0
  1 23  1  0
  2 24  1  0
  9 25  1  0
 10 26  1  0
 11 27  1  0
 13 28  1  0
 13 29  1  0
 14 30  1  0
 14 31  1  0
 15 32  1  0
 15 33  1  0
 21 34  1  0
 21 35  1  0
 22 36  1  0
 22 37  1  0
 22 38  1  0
M  ISO  8  23  14  24  14  25  14  26  14  27  14  30   8  31   8  32   8
M  ISO  6  33   8  34   8  35   8  36   8  37   8  38   8
M  END
>  <minimizedAffinity>  (1) 
-6.69927835

>  <minimizedRMSD>  (1) 
0.307179242

$$$$
