
     RDKit          3D

 34 36  0  0  0  0  0  0  0  0999 V2000
   44.5820   35.8280   44.5480 C   0  0  0  0  0  0  0  0  0  0  0  0
   45.1830   35.7920   43.2930 C   0  0  0  0  0  0  0  0  0  0  0  0
   46.0980   34.7990   43.0510 C   0  0  0  0  0  0  0  0  0  0  0  0
   46.3720   33.9030   44.0430 N   0  0  0  0  0  0  0  0  0  0  0  0
   45.7700   33.9640   45.2550 C   0  0  0  0  0  0  0  0  0  0  0  0
   44.8610   34.9430   45.5080 N   0  0  0  0  0  0  0  0  0  0  0  0
   46.0700   33.0150   46.3060 C   0  0  0  0  0  0  0  0  0  0  0  0
   45.3860   33.0480   47.5070 C   0  0  0  0  0  0  0  0  0  0  0  0
   45.6460   32.1690   48.5440 C   0  0  0  0  0  0  0  0  0  0  0  0
   46.6320   31.2750   48.2710 C   0  0  0  0  0  0  0  0  0  0  0  0
   47.3500   31.1830   47.1070 C   0  0  0  0  0  0  0  0  0  0  0  0
   47.0100   32.0900   46.1680 N   0  0  0  0  0  0  0  0  0  0  0  0
   44.3730   34.0260   47.6660 N   0  0  0  0  0  0  0  0  0  0  0  0
   46.7560   34.7410   41.7200 C   0  0  0  0  0  0  0  0  0  0  0  0
   48.1130   35.3970   41.7310 C   0  0  0  0  0  0  0  0  0  0  0  0
   49.2140   34.4090   41.8250 C   0  0  0  0  0  0  0  0  0  0  0  0
   50.2880   34.6160   42.5920 N   0  0  0  0  0  0  0  0  0  0  0  0
   51.0710   33.5980   42.4760 O   0  0  0  0  0  0  0  0  0  0  0  0
   50.5390   32.7130   41.6420 C   0  0  0  0  0  0  0  0  0  0  0  0
   49.3640   33.2220   41.2280 N   0  0  0  0  0  0  0  0  0  0  0  0
   51.1700   31.4650   41.3020 C   0  0  0  0  0  0  0  0  0  0  0  0
   52.2110   31.4930   40.5890 O   0  0  0  0  0  0  0  0  0  0  0  0
   43.8465   36.6186   44.7576 H   0  0  0  0  0  0  0  0  0  0  0  0
   44.9327   36.5348   42.5213 H   0  0  0  0  0  0  0  0  0  0  0  0
   45.1042   32.1921   49.5011 H   0  0  0  0  0  0  0  0  0  0  0  0
   46.8787   30.5529   49.0632 H   0  0  0  0  0  0  0  0  0  0  0  0
   48.1383   30.4317   46.9514 H   0  0  0  0  0  0  0  0  0  0  0  0
   43.8429   34.0798   48.5475 H   0  0  0  0  0  0  0  0  0  0  0  0
   44.1667   34.6831   46.9001 H   0  0  0  0  0  0  0  0  0  0  0  0
   46.1187   35.2561   40.9862 H   0  0  0  0  0  0  0  0  0  0  0  0
   46.8930   33.6822   41.4549 H   0  0  0  0  0  0  0  0  0  0  0  0
   48.2343   35.9747   40.8028 H   0  0  0  0  0  0  0  0  0  0  0  0
   48.1662   36.0459   42.6176 H   0  0  0  0  0  0  0  0  0  0  0  0
   50.7549   30.5095   41.6551 H   0  0  0  0  0  0  0  0  0  0  0  0
  1  6  2  0
  2  1  1  0
  3  2  2  0
  3  4  1  0
  4  5  2  0
  5  6  1  0
  5  7  1  0
  7  8  2  0
  8 13  1  0
  8  9  1  0
 10  9  2  0
 11 10  1  0
 12  7  1  0
 12 11  2  0
 14 15  1  0
 14  3  1  0
 15 16  1  0
 16 17  2  0
 18 17  1  0
 19 18  1  0
 20 19  2  0
 20 16  1  0
 21 19  1  0
 22 21  2  0
  1 23  1  0
  2 24  1  0
  9 25  1  0
 10 26  1  0
 11 27  1  0
 13 28  1  0
 13 29  1  0
 14 30  1  0
 14 31  1  0
 15 32  1  0
 15 33  1  0
 21 34  1  0
M  ISO  8  23  14  24  14  25  14  26  14  27  14  30   8  31   8  32   8
M  ISO  2  33   8  34   6
M  END
>  <minimizedAffinity>  (1) 
-6.63353014

>  <minimizedRMSD>  (1) 
0.17064555

$$$$
