
     RDKit          3D

 33 35  0  0  0  0  0  0  0  0999 V2000
   44.5720   35.8390   44.5520 C   0  0  0  0  0  0  0  0  0  0  0  0
   45.1950   35.8060   43.2880 C   0  0  0  0  0  0  0  0  0  0  0  0
   46.1140   34.8210   43.0480 C   0  0  0  0  0  0  0  0  0  0  0  0
   46.3770   33.9270   44.0420 N   0  0  0  0  0  0  0  0  0  0  0  0
   45.7750   33.9720   45.2450 C   0  0  0  0  0  0  0  0  0  0  0  0
   44.8640   34.9400   45.4940 N   0  0  0  0  0  0  0  0  0  0  0  0
   46.0730   33.0120   46.2920 C   0  0  0  0  0  0  0  0  0  0  0  0
   45.3790   33.0420   47.5020 C   0  0  0  0  0  0  0  0  0  0  0  0
   45.6270   32.1580   48.5360 C   0  0  0  0  0  0  0  0  0  0  0  0
   46.6150   31.2600   48.2450 C   0  0  0  0  0  0  0  0  0  0  0  0
   47.3380   31.1700   47.0840 C   0  0  0  0  0  0  0  0  0  0  0  0
   47.0120   32.0850   46.1380 N   0  0  0  0  0  0  0  0  0  0  0  0
   44.3810   34.0330   47.6550 N   0  0  0  0  0  0  0  0  0  0  0  0
   46.7670   34.7810   41.7280 C   0  0  0  0  0  0  0  0  0  0  0  0
   48.1460   35.3700   41.7490 C   0  0  0  0  0  0  0  0  0  0  0  0
   49.2150   34.3530   41.8250 C   0  0  0  0  0  0  0  0  0  0  0  0
   50.3270   34.5500   42.5410 N   0  0  0  0  0  0  0  0  0  0  0  0
   51.0720   33.5100   42.4260 O   0  0  0  0  0  0  0  0  0  0  0  0
   50.4850   32.6120   41.6450 C   0  0  0  0  0  0  0  0  0  0  0  0
   49.3110   33.1470   41.2660 N   0  0  0  0  0  0  0  0  0  0  0  0
   50.9270   31.3500   41.2510 O   0  0  0  0  0  0  0  0  0  0  0  0
   43.8298   36.6220   44.7664 H   0  0  0  0  0  0  0  0  0  0  0  0
   44.9494   36.5508   42.5166 H   0  0  0  0  0  0  0  0  0  0  0  0
   45.0853   32.1758   49.4932 H   0  0  0  0  0  0  0  0  0  0  0  0
   46.8570   30.5280   49.0296 H   0  0  0  0  0  0  0  0  0  0  0  0
   48.1222   30.4138   46.9315 H   0  0  0  0  0  0  0  0  0  0  0  0
   43.8438   34.0919   48.5319 H   0  0  0  0  0  0  0  0  0  0  0  0
   44.1916   34.6956   46.8895 H   0  0  0  0  0  0  0  0  0  0  0  0
   46.1524   35.3483   41.0135 H   0  0  0  0  0  0  0  0  0  0  0  0
   46.8600   33.7251   41.4340 H   0  0  0  0  0  0  0  0  0  0  0  0
   48.2884   35.9582   40.8304 H   0  0  0  0  0  0  0  0  0  0  0  0
   48.2215   35.9902   42.6544 H   0  0  0  0  0  0  0  0  0  0  0  0
   50.3654   30.7921   40.6565 H   0  0  0  0  0  0  0  0  0  0  0  0
  1  6  2  0
  2  1  1  0
  3  2  2  0
  3  4  1  0
  4  5  2  0
  5  6  1  0
  5  7  1  0
  7  8  2  0
  8 13  1  0
  8  9  1  0
 10  9  2  0
 11 10  1  0
 12  7  1  0
 12 11  2  0
 14 15  1  0
 14  3  1  0
 15 16  1  0
 16 17  2  0
 18 17  1  0
 19 18  1  0
 20 19  2  0
 20 16  1  0
 21 19  1  0
  1 22  1  0
  2 23  1  0
  9 24  1  0
 10 25  1  0
 11 26  1  0
 13 27  1  0
 13 28  1  0
 14 29  1  0
 14 30  1  0
 15 31  1  0
 15 32  1  0
 21 33  1  0
M  ISO  8  22  14  23  14  24  14  25  14  26  14  29   8  30   8  31   8
M  ISO  2  32   8  33   3
M  END
>  <minimizedAffinity>  (1) 
-6.75631237

>  <minimizedRMSD>  (1) 
0.0305392388

$$$$
