
     RDKit          3D

 49 53  0  0  0  0  0  0  0  0999 V2000
   46.7430   34.7490   41.6930 C   0  0  0  0  0  0  0  0  0  0  0  0
   44.5880   35.8820   44.5510 C   0  0  0  0  0  0  0  0  0  0  0  0
   45.1910   35.8290   43.2860 C   0  0  0  0  0  0  0  0  0  0  0  0
   46.0910   34.8240   43.0310 C   0  0  0  0  0  0  0  0  0  0  0  0
   46.3570   33.9270   44.0160 N   0  0  0  0  0  0  0  0  0  0  0  0
   45.7690   33.9850   45.2400 C   0  0  0  0  0  0  0  0  0  0  0  0
   44.8710   34.9880   45.4940 N   0  0  0  0  0  0  0  0  0  0  0  0
   46.0640   33.0210   46.2770 C   0  0  0  0  0  0  0  0  0  0  0  0
   45.3600   33.0610   47.4740 C   0  0  0  0  0  0  0  0  0  0  0  0
   45.5960   32.1630   48.5120 C   0  0  0  0  0  0  0  0  0  0  0  0
   46.5740   31.2560   48.2320 C   0  0  0  0  0  0  0  0  0  0  0  0
   47.3000   31.1760   47.0610 C   0  0  0  0  0  0  0  0  0  0  0  0
   46.9920   32.0890   46.1270 N   0  0  0  0  0  0  0  0  0  0  0  0
   44.3680   34.0540   47.6390 N   0  0  0  0  0  0  0  0  0  0  0  0
   48.1640   35.2670   41.7300 C   0  0  0  0  0  0  0  0  0  0  0  0
   49.1460   34.1990   42.0370 C   0  0  0  0  0  0  0  0  0  0  0  0
   50.4050   34.4510   42.4020 N   0  0  0  0  0  0  0  0  0  0  0  0
   51.0050   33.3190   42.5980 O   0  0  0  0  0  0  0  0  0  0  0  0
   50.1660   32.3200   42.3670 C   0  0  0  0  0  0  0  0  0  0  0  0
   48.9770   32.8660   42.0090 N   0  0  0  0  0  0  0  0  0  0  0  0
   50.6010   30.9800   42.5180 N   0  0  0  0  0  0  0  0  0  0  0  0
   50.4970   30.0790   43.4810 N   0  0  0  0  0  0  0  0  0  0  0  0
   51.0910   28.9300   43.1270 C   0  0  0  0  0  0  0  0  0  0  0  0
   51.6050   29.1290   41.8470 C   0  0  0  0  0  0  0  0  0  0  0  0
   51.2790   30.4470   41.4770 C   0  0  0  0  0  0  0  0  0  0  0  0
   51.7130   30.9020   40.1600 C   0  0  0  0  0  0  0  0  0  0  0  0
   53.0670   31.0000   39.9170 C   0  0  0  0  0  0  0  0  0  0  0  0
   53.5770   31.4220   38.6970 C   0  0  0  0  0  0  0  0  0  0  0  0
   52.7220   31.7630   37.6750 C   0  0  0  0  0  0  0  0  0  0  0  0
   51.3650   31.6690   37.9060 C   0  0  0  0  0  0  0  0  0  0  0  0
   50.8540   31.2430   39.1350 C   0  0  0  0  0  0  0  0  0  0  0  0
   46.1625   35.3527   40.9798 H   0  0  0  0  0  0  0  0  0  0  0  0
   46.7721   33.6932   41.3858 H   0  0  0  0  0  0  0  0  0  0  0  0
   43.8643   36.6814   44.7682 H   0  0  0  0  0  0  0  0  0  0  0  0
   44.9484   36.5757   42.5155 H   0  0  0  0  0  0  0  0  0  0  0  0
   45.0467   32.1837   49.4648 H   0  0  0  0  0  0  0  0  0  0  0  0
   46.8068   30.5177   49.0135 H   0  0  0  0  0  0  0  0  0  0  0  0
   48.0787   30.4151   46.9039 H   0  0  0  0  0  0  0  0  0  0  0  0
   43.8317   34.1054   48.5169 H   0  0  0  0  0  0  0  0  0  0  0  0
   44.1813   34.7263   46.8814 H   0  0  0  0  0  0  0  0  0  0  0  0
   48.4080   35.7001   40.7487 H   0  0  0  0  0  0  0  0  0  0  0  0
   48.2262   36.0203   42.5291 H   0  0  0  0  0  0  0  0  0  0  0  0
   51.1591   28.0115   43.7284 H   0  0  0  0  0  0  0  0  0  0  0  0
   52.1592   28.3964   41.2420 H   0  0  0  0  0  0  0  0  0  0  0  0
   53.7694   30.7336   40.7205 H   0  0  0  0  0  0  0  0  0  0  0  0
   54.6650   31.4837   38.5475 H   0  0  0  0  0  0  0  0  0  0  0  0
   53.1087   32.1007   36.7022 H   0  0  0  0  0  0  0  0  0  0  0  0
   50.6657   31.9369   37.1002 H   0  0  0  0  0  0  0  0  0  0  0  0
   49.7662   31.1794   39.2855 H   0  0  0  0  0  0  0  0  0  0  0  0
  1 15  1  0
  1  4  1  0
  2  7  2  0
  3  2  1  0
  4  3  2  0
  4  5  1  0
  5  6  2  0
  6  7  1  0
  6  8  1  0
  8  9  2  0
  9 14  1  0
  9 10  1  0
 11 10  2  0
 12 11  1  0
 13  8  1  0
 13 12  2  0
 15 16  1  0
 16 17  2  0
 17 18  1  0
 19 21  1  0
 19 18  1  0
 20 16  1  0
 20 19  2  0
 21 22  1  0
 23 22  2  0
 24 23  1  0
 25 24  2  0
 25 21  1  0
 26 25  1  0
 27 26  2  0
 28 27  1  0
 29 30  1  0
 29 28  2  0
 30 31  2  0
 31 26  1  0
  1 32  1  0
  1 33  1  0
  2 34  1  0
  3 35  1  0
 10 36  1  0
 11 37  1  0
 12 38  1  0
 14 39  1  0
 14 40  1  0
 15 41  1  0
 15 42  1  0
 23 43  1  0
 24 44  1  0
 27 45  1  0
 28 46  1  0
 29 47  1  0
 30 48  1  0
 31 49  1  0
M  ISO  8  32   8  33   8  34  14  35  14  36  14  37  14  38  14  41   8
M  ISO  8  42   8  43  14  44  14  45  14  46  14  47  14  48  14  49  14
M  END
>  <minimizedAffinity>  (1) 
-7.64620972

>  <minimizedRMSD>  (1) 
1.35927272

$$$$
