
     RDKit          3D

 24 26  0  0  0  0  0  0  0  0999 V2000
   46.2730   31.1570   47.3850 N   0  0  0  0  0  0  0  0  0  0  0  0
   45.5360   31.8820   48.2550 C   0  0  0  0  0  0  0  0  0  0  0  0
   45.1470   33.0350   47.6590 N   0  0  0  0  0  0  0  0  0  0  0  0
   45.6480   33.0220   46.4070 C   0  0  0  0  0  0  0  0  0  0  0  0
   46.3250   31.8680   46.2770 N   0  0  0  0  0  0  0  0  0  0  0  0
   48.2600   29.8920   47.8550 C   0  0  0  0  0  0  0  0  0  0  0  0
   46.9070   29.8960   47.5060 C   0  0  0  0  0  0  0  0  0  0  0  0
   46.2930   28.6640   47.3060 C   0  0  0  0  0  0  0  0  0  0  0  0
   47.0200   27.5320   47.4560 N   0  0  0  0  0  0  0  0  0  0  0  0
   48.3260   27.5610   47.7940 C   0  0  0  0  0  0  0  0  0  0  0  0
   48.9220   28.7390   47.9880 N   0  0  0  0  0  0  0  0  0  0  0  0
   45.4960   34.0500   45.3840 C   0  0  0  0  0  0  0  0  0  0  0  0
   46.1820   33.9270   44.1920 C   0  0  0  0  0  0  0  0  0  0  0  0
   46.0510   34.8910   43.2120 C   0  0  0  0  0  0  0  0  0  0  0  0
   45.2500   35.9520   43.4230 N   0  0  0  0  0  0  0  0  0  0  0  0
   44.5820   36.0530   44.6060 C   0  0  0  0  0  0  0  0  0  0  0  0
   44.6980   35.1130   45.5890 N   0  0  0  0  0  0  0  0  0  0  0  0
   45.2905   31.5833   49.2848 H   0  0  0  0  0  0  0  0  0  0  0  0
   48.7839   30.8448   48.0214 H   0  0  0  0  0  0  0  0  0  0  0  0
   45.2297   28.6102   47.0293 H   0  0  0  0  0  0  0  0  0  0  0  0
   48.8924   26.6250   47.9082 H   0  0  0  0  0  0  0  0  0  0  0  0
   46.8350   33.0582   44.0225 H   0  0  0  0  0  0  0  0  0  0  0  0
   46.5988   34.7923   42.2632 H   0  0  0  0  0  0  0  0  0  0  0  0
   43.9274   36.9208   44.7747 H   0  0  0  0  0  0  0  0  0  0  0  0
  1  7  1  0
  1  2  1  0
  3  2  2  0
  4  3  1  0
  5  4  2  0
  5  1  1  0
  6 11  2  0
  7  6  1  0
  8  9  1  0
  8  7  2  0
  9 10  2  0
 10 11  1  0
 12 17  1  0
 12  4  1  0
 13 12  2  0
 14 15  2  0
 14 13  1  0
 15 16  1  0
 16 17  2  0
  2 18  1  0
  6 19  1  0
  8 20  1  0
 10 21  1  0
 13 22  1  0
 14 23  1  0
 16 24  1  0
M  ISO  7  18  14  19  14  20  14  21  14  22  14  23  14  24  14
M  END
>  <minimizedAffinity>  (1) 
-4.61706877

>  <minimizedRMSD>  (1) 
7.45082283

$$$$
