
     RDKit          3D

 52 56  0  0  0  0  0  0  0  0999 V2000
   46.7470   34.7780   41.7070 C   0  0  0  0  0  0  0  0  0  0  0  0
   44.5790   35.8670   44.5590 C   0  0  0  0  0  0  0  0  0  0  0  0
   45.1850   35.8290   43.3030 C   0  0  0  0  0  0  0  0  0  0  0  0
   46.0920   34.8350   43.0390 C   0  0  0  0  0  0  0  0  0  0  0  0
   46.3620   33.9280   44.0190 N   0  0  0  0  0  0  0  0  0  0  0  0
   45.7660   33.9740   45.2420 C   0  0  0  0  0  0  0  0  0  0  0  0
   44.8640   34.9630   45.5010 N   0  0  0  0  0  0  0  0  0  0  0  0
   46.0700   33.0000   46.2630 C   0  0  0  0  0  0  0  0  0  0  0  0
   45.3780   33.0290   47.4730 C   0  0  0  0  0  0  0  0  0  0  0  0
   45.6150   32.1240   48.5050 C   0  0  0  0  0  0  0  0  0  0  0  0
   46.5850   31.2200   48.2020 C   0  0  0  0  0  0  0  0  0  0  0  0
   47.3020   31.1390   47.0290 C   0  0  0  0  0  0  0  0  0  0  0  0
   46.9880   32.0660   46.1010 N   0  0  0  0  0  0  0  0  0  0  0  0
   44.3900   34.0300   47.6530 N   0  0  0  0  0  0  0  0  0  0  0  0
   48.1500   35.3460   41.7310 C   0  0  0  0  0  0  0  0  0  0  0  0
   49.1770   34.2970   41.9630 C   0  0  0  0  0  0  0  0  0  0  0  0
   50.3790   34.5580   42.4900 N   0  0  0  0  0  0  0  0  0  0  0  0
   51.0350   33.4460   42.5640 O   0  0  0  0  0  0  0  0  0  0  0  0
   50.3030   32.4640   42.1020 C   0  0  0  0  0  0  0  0  0  0  0  0
   49.1020   32.9810   41.7080 N   0  0  0  0  0  0  0  0  0  0  0  0
   50.8090   31.1320   42.0770 N   0  0  0  0  0  0  0  0  0  0  0  0
   50.6960   30.0830   42.8760 N   0  0  0  0  0  0  0  0  0  0  0  0
   51.3850   29.0340   42.3920 C   0  0  0  0  0  0  0  0  0  0  0  0
   51.9680   29.4630   41.2080 C   0  0  0  0  0  0  0  0  0  0  0  0
   51.5930   30.8030   41.0200 C   0  0  0  0  0  0  0  0  0  0  0  0
   52.0680   31.5560   39.8170 C   0  0  0  0  0  0  0  0  0  0  0  0
   51.1150   31.4220   38.6800 C   0  0  0  0  0  0  0  0  0  0  0  0
   51.8740   30.5980   37.6720 C   0  0  0  0  0  0  0  0  0  0  0  0
   53.2910   31.0640   37.8610 C   0  0  0  0  0  0  0  0  0  0  0  0
   53.4390   31.1400   39.3650 C   0  0  0  0  0  0  0  0  0  0  0  0
   46.1438   35.3559   40.9913 H   0  0  0  0  0  0  0  0  0  0  0  0
   46.8174   33.7206   41.4120 H   0  0  0  0  0  0  0  0  0  0  0  0
   43.8492   36.6600   44.7792 H   0  0  0  0  0  0  0  0  0  0  0  0
   44.9400   36.5818   42.5393 H   0  0  0  0  0  0  0  0  0  0  0  0
   45.0750   32.1388   49.4632 H   0  0  0  0  0  0  0  0  0  0  0  0
   46.8218   30.4748   48.9757 H   0  0  0  0  0  0  0  0  0  0  0  0
   48.0745   30.3741   46.8612 H   0  0  0  0  0  0  0  0  0  0  0  0
   43.8609   34.0786   48.5354 H   0  0  0  0  0  0  0  0  0  0  0  0
   44.2014   34.7085   46.9014 H   0  0  0  0  0  0  0  0  0  0  0  0
   48.3520   35.8318   40.7650 H   0  0  0  0  0  0  0  0  0  0  0  0
   48.2087   36.0653   42.5612 H   0  0  0  0  0  0  0  0  0  0  0  0
   51.4695   28.0350   42.8446 H   0  0  0  0  0  0  0  0  0  0  0  0
   52.6055   28.8644   40.5407 H   0  0  0  0  0  0  0  0  0  0  0  0
   52.1219   32.6086   40.1320 H   0  0  0  0  0  0  0  0  0  0  0  0
   50.1967   30.9058   38.9968 H   0  0  0  0  0  0  0  0  0  0  0  0
   50.7912   32.3937   38.2788 H   0  0  0  0  0  0  0  0  0  0  0  0
   51.5231   30.8009   36.6494 H   0  0  0  0  0  0  0  0  0  0  0  0
   51.7493   29.5142   37.8126 H   0  0  0  0  0  0  0  0  0  0  0  0
   54.0026   30.3435   37.4316 H   0  0  0  0  0  0  0  0  0  0  0  0
   53.4979   32.0216   37.3607 H   0  0  0  0  0  0  0  0  0  0  0  0
   53.7143   30.1615   39.7854 H   0  0  0  0  0  0  0  0  0  0  0  0
   54.2313   31.8309   39.6890 H   0  0  0  0  0  0  0  0  0  0  0  0
  1 15  1  0
  1  4  1  0
  2  7  2  0
  3  2  1  0
  4  3  2  0
  4  5  1  0
  5  6  2  0
  6  7  1  0
  6  8  1  0
  8  9  2  0
  9 14  1  0
  9 10  1  0
 11 10  2  0
 12 11  1  0
 13  8  1  0
 13 12  2  0
 15 16  1  0
 16 17  2  0
 17 18  1  0
 19 18  1  0
 20 16  1  0
 20 19  2  0
 21 19  1  0
 21 22  1  0
 23 22  2  0
 24 23  1  0
 25 24  2  0
 25 21  1  0
 26 25  1  0
 27 26  1  0
 28 29  1  0
 28 27  1  0
 29 30  1  0
 30 26  1  0
  1 31  1  0
  1 32  1  0
  2 33  1  0
  3 34  1  0
 10 35  1  0
 11 36  1  0
 12 37  1  0
 14 38  1  0
 14 39  1  0
 15 40  1  0
 15 41  1  0
 23 42  1  0
 24 43  1  0
 26 44  1  0
 27 45  1  0
 27 46  1  0
 28 47  1  0
 28 48  1  0
 29 49  1  0
 29 50  1  0
 30 51  1  0
 30 52  1  0
M  ISO  8  31   8  32   8  33  14  34  14  35  14  36  14  37  14  40   8
M  ISO  8  41   8  42  14  43  14  44  13  45  13  46  13  47  13  48  13
M  ISO  4  49  13  50  13  51  13  52  13
M  END
>  <minimizedAffinity>  (1) 
-7.49489737

>  <minimizedRMSD>  (1) 
0.880958438

$$$$
