
     RDKit          3D

 55 59  0  0  0  0  0  0  0  0999 V2000
   46.7060   34.7460   41.6910 C   0  0  0  0  0  0  0  0  0  0  0  0
   44.5790   35.8670   44.5650 C   0  0  0  0  0  0  0  0  0  0  0  0
   45.1710   35.8180   43.2950 C   0  0  0  0  0  0  0  0  0  0  0  0
   46.0690   34.8140   43.0300 C   0  0  0  0  0  0  0  0  0  0  0  0
   46.3450   33.9090   44.0170 N   0  0  0  0  0  0  0  0  0  0  0  0
   45.7600   33.9720   45.2430 C   0  0  0  0  0  0  0  0  0  0  0  0
   44.8690   34.9700   45.5050 N   0  0  0  0  0  0  0  0  0  0  0  0
   46.0680   33.0020   46.2720 C   0  0  0  0  0  0  0  0  0  0  0  0
   45.3730   33.0390   47.4760 C   0  0  0  0  0  0  0  0  0  0  0  0
   45.6110   32.1430   48.5090 C   0  0  0  0  0  0  0  0  0  0  0  0
   46.5900   31.2290   48.2220 C   0  0  0  0  0  0  0  0  0  0  0  0
   47.3050   31.1540   47.0440 C   0  0  0  0  0  0  0  0  0  0  0  0
   46.9900   32.0740   46.1130 N   0  0  0  0  0  0  0  0  0  0  0  0
   44.3810   34.0350   47.6530 N   0  0  0  0  0  0  0  0  0  0  0  0
   48.0950   35.3430   41.6930 C   0  0  0  0  0  0  0  0  0  0  0  0
   49.1440   34.3310   41.9730 C   0  0  0  0  0  0  0  0  0  0  0  0
   50.3480   34.6600   42.4630 N   0  0  0  0  0  0  0  0  0  0  0  0
   51.0390   33.5730   42.6000 O   0  0  0  0  0  0  0  0  0  0  0  0
   50.3130   32.5360   42.2090 C   0  0  0  0  0  0  0  0  0  0  0  0
   49.1060   33.0000   41.8070 N   0  0  0  0  0  0  0  0  0  0  0  0
   50.8600   31.2200   42.2650 N   0  0  0  0  0  0  0  0  0  0  0  0
   50.7800   30.2300   43.1390 N   0  0  0  0  0  0  0  0  0  0  0  0
   51.4880   29.1710   42.7300 C   0  0  0  0  0  0  0  0  0  0  0  0
   52.0510   29.5280   41.5140 C   0  0  0  0  0  0  0  0  0  0  0  0
   51.6400   30.8460   41.2250 C   0  0  0  0  0  0  0  0  0  0  0  0
   52.0840   31.5390   39.9680 C   0  0  0  0  0  0  0  0  0  0  0  0
   53.4370   31.1400   39.5180 C   0  0  0  0  0  0  0  0  0  0  0  0
   53.4960   30.7360   38.0600 C   0  0  0  0  0  0  0  0  0  0  0  0
   52.4600   29.6700   37.7850 C   0  0  0  0  0  0  0  0  0  0  0  0
   51.0840   30.1390   38.1270 C   0  0  0  0  0  0  0  0  0  0  0  0
   51.1010   31.4430   38.8530 C   0  0  0  0  0  0  0  0  0  0  0  0
   46.0828   35.2992   40.9729 H   0  0  0  0  0  0  0  0  0  0  0  0
   46.7924   33.6861   41.4095 H   0  0  0  0  0  0  0  0  0  0  0  0
   43.8573   36.6661   44.7902 H   0  0  0  0  0  0  0  0  0  0  0  0
   44.9217   36.5667   42.5287 H   0  0  0  0  0  0  0  0  0  0  0  0
   45.0667   32.1648   49.4646 H   0  0  0  0  0  0  0  0  0  0  0  0
   46.8275   30.4886   49.0000 H   0  0  0  0  0  0  0  0  0  0  0  0
   48.0811   30.3927   46.8768 H   0  0  0  0  0  0  0  0  0  0  0  0
   43.8520   34.0839   48.5354 H   0  0  0  0  0  0  0  0  0  0  0  0
   44.1888   34.7101   46.8992 H   0  0  0  0  0  0  0  0  0  0  0  0
   48.2891   35.7898   40.7068 H   0  0  0  0  0  0  0  0  0  0  0  0
   48.1350   36.0982   42.4918 H   0  0  0  0  0  0  0  0  0  0  0  0
   51.6009   28.2100   43.2533 H   0  0  0  0  0  0  0  0  0  0  0  0
   52.7002   28.8978   40.8884 H   0  0  0  0  0  0  0  0  0  0  0  0
   52.1395   32.5992   40.2558 H   0  0  0  0  0  0  0  0  0  0  0  0
   54.1191   31.9892   39.6715 H   0  0  0  0  0  0  0  0  0  0  0  0
   53.7268   30.2587   40.1090 H   0  0  0  0  0  0  0  0  0  0  0  0
   53.2940   31.6139   37.4287 H   0  0  0  0  0  0  0  0  0  0  0  0
   54.4964   30.3396   37.8317 H   0  0  0  0  0  0  0  0  0  0  0  0
   52.4926   29.4077   36.7172 H   0  0  0  0  0  0  0  0  0  0  0  0
   52.6911   28.7960   38.4117 H   0  0  0  0  0  0  0  0  0  0  0  0
   50.5082   30.2578   37.1973 H   0  0  0  0  0  0  0  0  0  0  0  0
   50.6242   29.3890   38.7873 H   0  0  0  0  0  0  0  0  0  0  0  0
   51.3347   32.2340   38.1251 H   0  0  0  0  0  0  0  0  0  0  0  0
   50.1077   31.5470   39.3140 H   0  0  0  0  0  0  0  0  0  0  0  0
  1 15  1  0
  1  4  1  0
  2  7  2  0
  3  2  1  0
  4  3  2  0
  4  5  1  0
  5  6  2  0
  6  7  1  0
  6  8  1  0
  8  9  2  0
  9 14  1  0
  9 10  1  0
 11 10  2  0
 12 11  1  0
 13  8  1  0
 13 12  2  0
 15 16  1  0
 16 17  2  0
 17 18  1  0
 19 21  1  0
 19 18  1  0
 20 16  1  0
 20 19  2  0
 21 22  1  0
 23 22  2  0
 24 23  1  0
 25 24  2  0
 25 21  1  0
 26 25  1  0
 27 26  1  0
 28 27  1  0
 29 28  1  0
 29 30  1  0
 30 31  1  0
 31 26  1  0
  1 32  1  0
  1 33  1  0
  2 34  1  0
  3 35  1  0
 10 36  1  0
 11 37  1  0
 12 38  1  0
 14 39  1  0
 14 40  1  0
 15 41  1  0
 15 42  1  0
 23 43  1  0
 24 44  1  0
 26 45  1  0
 27 46  1  0
 27 47  1  0
 28 48  1  0
 28 49  1  0
 29 50  1  0
 29 51  1  0
 30 52  1  0
 30 53  1  0
 31 54  1  0
 31 55  1  0
M  ISO  8  32   8  33   8  34  14  35  14  36  14  37  14  38  14  41   8
M  ISO  8  42   8  43  14  44  14  45  13  46  13  47  13  48  13  49  13
M  ISO  6  50  13  51  13  52  13  53  13  54  13  55  13
M  END
>  <minimizedAffinity>  (1) 
-7.51709843

>  <minimizedRMSD>  (1) 
1.06620955

$$$$
