
     RDKit          3D

 45 49  0  0  0  0  0  0  0  0999 V2000
   46.7590   34.7340   41.7330 C   0  0  0  0  0  0  0  0  0  0  0  0
   44.5760   35.8510   44.5740 C   0  0  0  0  0  0  0  0  0  0  0  0
   45.1910   35.7970   43.3100 C   0  0  0  0  0  0  0  0  0  0  0  0
   46.1030   34.8040   43.0610 C   0  0  0  0  0  0  0  0  0  0  0  0
   46.3700   33.9110   44.0550 N   0  0  0  0  0  0  0  0  0  0  0  0
   45.7690   33.9710   45.2760 C   0  0  0  0  0  0  0  0  0  0  0  0
   44.8640   34.9580   45.5210 N   0  0  0  0  0  0  0  0  0  0  0  0
   46.0740   33.0100   46.3060 C   0  0  0  0  0  0  0  0  0  0  0  0
   45.3660   33.0400   47.5160 C   0  0  0  0  0  0  0  0  0  0  0  0
   45.6110   32.1410   48.5520 C   0  0  0  0  0  0  0  0  0  0  0  0
   46.5910   31.2450   48.2790 C   0  0  0  0  0  0  0  0  0  0  0  0
   47.3250   31.1660   47.1050 C   0  0  0  0  0  0  0  0  0  0  0  0
   47.0030   32.0890   46.1660 N   0  0  0  0  0  0  0  0  0  0  0  0
   44.3650   34.0350   47.6630 N   0  0  0  0  0  0  0  0  0  0  0  0
   48.1810   35.2740   41.7750 C   0  0  0  0  0  0  0  0  0  0  0  0
   49.1770   34.2170   42.0250 C   0  0  0  0  0  0  0  0  0  0  0  0
   50.4460   34.4570   42.3490 N   0  0  0  0  0  0  0  0  0  0  0  0
   51.0630   33.3250   42.5010 O   0  0  0  0  0  0  0  0  0  0  0  0
   50.2220   32.3390   42.2830 C   0  0  0  0  0  0  0  0  0  0  0  0
   49.0230   32.8790   41.9800 N   0  0  0  0  0  0  0  0  0  0  0  0
   50.6590   30.9820   42.3880 N   0  0  0  0  0  0  0  0  0  0  0  0
   50.6120   30.0700   43.3510 N   0  0  0  0  0  0  0  0  0  0  0  0
   51.1750   28.9240   42.9330 C   0  0  0  0  0  0  0  0  0  0  0  0
   51.6010   29.1310   41.6280 C   0  0  0  0  0  0  0  0  0  0  0  0
   51.2590   30.4510   41.3090 C   0  0  0  0  0  0  0  0  0  0  0  0
   51.5650   30.9780   40.0230 N   0  0  0  0  0  0  0  0  0  0  0  0
   50.9570   31.4020   38.9150 C   0  0  0  0  0  0  0  0  0  0  0  0
   51.8810   31.7960   38.0130 N   0  0  0  0  0  0  0  0  0  0  0  0
   53.0870   31.6080   38.5830 C   0  0  0  0  0  0  0  0  0  0  0  0
   52.8850   31.1060   39.8160 N   0  0  0  0  0  0  0  0  0  0  0  0
   46.1739   35.3277   41.0153 H   0  0  0  0  0  0  0  0  0  0  0  0
   46.8036   33.6777   41.4294 H   0  0  0  0  0  0  0  0  0  0  0  0
   43.8441   36.6446   44.7849 H   0  0  0  0  0  0  0  0  0  0  0  0
   44.9447   36.5381   42.5353 H   0  0  0  0  0  0  0  0  0  0  0  0
   45.0599   32.1569   49.5039 H   0  0  0  0  0  0  0  0  0  0  0  0
   46.8264   30.5107   49.0634 H   0  0  0  0  0  0  0  0  0  0  0  0
   48.1095   30.4111   46.9477 H   0  0  0  0  0  0  0  0  0  0  0  0
   43.8208   34.0931   48.5356 H   0  0  0  0  0  0  0  0  0  0  0  0
   44.1826   34.6991   46.8971 H   0  0  0  0  0  0  0  0  0  0  0  0
   48.4065   35.7504   40.8095 H   0  0  0  0  0  0  0  0  0  0  0  0
   48.2415   35.9943   42.6042 H   0  0  0  0  0  0  0  0  0  0  0  0
   51.2789   27.9964   43.5151 H   0  0  0  0  0  0  0  0  0  0  0  0
   52.1061   28.4038   40.9753 H   0  0  0  0  0  0  0  0  0  0  0  0
   49.8684   31.4270   38.7594 H   0  0  0  0  0  0  0  0  0  0  0  0
   54.0624   31.8257   38.1234 H   0  0  0  0  0  0  0  0  0  0  0  0
  1 15  1  0
  1  4  1  0
  2  7  2  0
  3  2  1  0
  4  3  2  0
  4  5  1  0
  5  6  2  0
  6  7  1  0
  6  8  1  0
  8  9  2  0
  9 14  1  0
  9 10  1  0
 11 10  2  0
 12 11  1  0
 13  8  1  0
 13 12  2  0
 15 16  1  0
 16 17  2  0
 17 18  1  0
 19 21  1  0
 19 18  1  0
 20 16  1  0
 20 19  2  0
 21 22  1  0
 23 22  2  0
 24 23  1  0
 25 24  2  0
 25 21  1  0
 26 25  1  0
 27 26  1  0
 28 29  1  0
 28 27  2  0
 29 30  2  0
 30 26  1  0
  1 31  1  0
  1 32  1  0
  2 33  1  0
  3 34  1  0
 10 35  1  0
 11 36  1  0
 12 37  1  0
 14 38  1  0
 14 39  1  0
 15 40  1  0
 15 41  1  0
 23 42  1  0
 24 43  1  0
 27 44  1  0
 29 45  1  0
M  ISO  8  31   8  32   8  33  14  34  14  35  14  36  14  37  14  40   8
M  ISO  5  41   8  42  14  43  14  44  14  45  14
M  END
>  <minimizedAffinity>  (1) 
-7.37623453

>  <minimizedRMSD>  (1) 
1.18469596

$$$$
