
     RDKit          3D

 32 33  0  0  0  0  0  0  0  0999 V2000
   50.2670   33.0810   41.7660 C   0  0  0  0  0  0  0  0  0  0  0  0
   50.3150   31.6600   41.6480 C   0  0  0  0  0  0  0  0  0  0  0  0
   49.3320   30.9170   42.2810 C   0  0  0  0  0  0  0  0  0  0  0  0
   48.3720   31.5900   42.9820 N   0  0  0  0  0  0  0  0  0  0  0  0
   48.3530   32.9280   43.0760 C   0  0  0  0  0  0  0  0  0  0  0  0
   49.2920   33.6810   42.4740 N   0  0  0  0  0  0  0  0  0  0  0  0
   47.2770   33.4640   43.8500 N   0  0  0  0  0  0  0  0  0  0  0  0
   47.1310   32.9180   45.0810 C   0  0  0  0  0  0  0  0  0  0  0  0
   46.1150   33.3570   45.9340 C   0  0  0  0  0  0  0  0  0  0  0  0
   45.2810   34.3410   45.5010 C   0  0  0  0  0  0  0  0  0  0  0  0
   44.3500   34.7720   46.2300 O   0  0  0  0  0  0  0  0  0  0  0  0
   45.4450   34.8760   44.2600 N   0  0  0  0  0  0  0  0  0  0  0  0
   46.4360   34.4350   43.4520 C   0  0  0  0  0  0  0  0  0  0  0  0
   46.6190   34.9070   42.2950 O   0  0  0  0  0  0  0  0  0  0  0  0
   45.9800   32.7310   47.2910 C   0  0  0  0  0  0  0  0  0  0  0  0
   44.6100   35.9170   43.7250 C   0  0  0  0  0  0  0  0  0  0  0  0
   43.8860   35.4950   42.4780 C   0  0  0  0  0  0  0  0  0  0  0  0
   45.2840   37.2130   43.4800 C   0  0  0  0  0  0  0  0  0  0  0  0
   51.0359   33.6936   41.2725 H   0  0  0  0  0  0  0  0  0  0  0  0
   51.1110   31.1677   41.0700 H   0  0  0  0  0  0  0  0  0  0  0  0
   49.3247   29.8187   42.2210 H   0  0  0  0  0  0  0  0  0  0  0  0
   47.8167   32.1238   45.4113 H   0  0  0  0  0  0  0  0  0  0  0  0
   46.1447   33.4949   48.0652 H   0  0  0  0  0  0  0  0  0  0  0  0
   44.9702   32.3090   47.4013 H   0  0  0  0  0  0  0  0  0  0  0  0
   46.7261   31.9303   47.4013 H   0  0  0  0  0  0  0  0  0  0  0  0
   43.8880   36.0864   44.5374 H   0  0  0  0  0  0  0  0  0  0  0  0
   42.9656   34.9585   42.7521 H   0  0  0  0  0  0  0  0  0  0  0  0
   43.6289   36.3847   41.8844 H   0  0  0  0  0  0  0  0  0  0  0  0
   44.5334   34.8328   41.8844 H   0  0  0  0  0  0  0  0  0  0  0  0
   45.5300   37.6860   44.4422 H   0  0  0  0  0  0  0  0  0  0  0  0
   46.2081   37.0433   42.9079 H   0  0  0  0  0  0  0  0  0  0  0  0
   44.6144   37.8721   42.9079 H   0  0  0  0  0  0  0  0  0  0  0  0
  1  6  2  0
  2  1  1  0
  2  3  2  0
  3  4  1  0
  4  5  2  0
  5  7  1  0
  6  5  1  0
  7  8  1  0
  8  9  2  0
  9 15  1  0
 10  9  1  0
 10 11  2  0
 12 10  1  0
 13  7  1  0
 13 12  1  0
 14 13  2  0
 16 12  1  0
 17 16  1  0
 18 16  1  0
  1 19  1  0
  2 20  1  0
  3 21  1  0
  8 22  1  0
 15 23  1  0
 15 24  1  0
 15 25  1  0
 16 26  1  0
 17 27  1  0
 17 28  1  0
 17 29  1  0
 18 30  1  0
 18 31  1  0
 18 32  1  0
M  ISO  8  19  14  20  14  21  14  22  14  23   8  24   8  25   8  26   8
M  ISO  6  27   8  28   8  29   8  30   8  31   8  32   8
M  END
>  <minimizedAffinity>  (1) 
-4.86485004

>  <minimizedRMSD>  (1) 
4.00650263

$$$$
