
     RDKit          3D

 29 31  0  0  0  0  0  0  0  0999 V2000
   45.8050   33.0740   45.9090 N   0  0  0  0  0  0  0  0  0  0  0  0
   45.2130   34.2770   45.6820 C   0  0  0  0  0  0  0  0  0  0  0  0
   45.6040   34.7400   44.4800 N   0  0  0  0  0  0  0  0  0  0  0  0
   46.4440   33.8330   43.9420 C   0  0  0  0  0  0  0  0  0  0  0  0
   46.5380   32.8380   44.8420 N   0  0  0  0  0  0  0  0  0  0  0  0
   47.1600   33.7920   42.6950 N   0  0  0  0  0  0  0  0  0  0  0  0
   47.4970   32.5810   42.0080 C   0  0  0  0  0  0  0  0  0  0  0  0
   48.7930   32.6380   41.2520 C   0  0  0  0  0  0  0  0  0  0  0  0
   49.1860   33.9050   40.8740 O   0  0  0  0  0  0  0  0  0  0  0  0
   48.0440   34.7130   40.6770 C   0  0  0  0  0  0  0  0  0  0  0  0
   47.5750   35.0560   42.0820 C   0  0  0  0  0  0  0  0  0  0  0  0
   45.6840   32.7500   48.2930 C   0  0  0  0  0  0  0  0  0  0  0  0
   45.7230   32.1850   47.0130 C   0  0  0  0  0  0  0  0  0  0  0  0
   45.6790   30.8010   46.9100 C   0  0  0  0  0  0  0  0  0  0  0  0
   45.6010   30.0840   48.0520 N   0  0  0  0  0  0  0  0  0  0  0  0
   45.5650   30.6450   49.2690 C   0  0  0  0  0  0  0  0  0  0  0  0
   45.6070   31.9750   49.3690 N   0  0  0  0  0  0  0  0  0  0  0  0
   44.5249   34.7896   46.3703 H   0  0  0  0  0  0  0  0  0  0  0  0
   47.5667   31.7722   42.7502 H   0  0  0  0  0  0  0  0  0  0  0  0
   46.7056   32.4116   41.2630 H   0  0  0  0  0  0  0  0  0  0  0  0
   49.5808   32.2114   41.8903 H   0  0  0  0  0  0  0  0  0  0  0  0
   48.6346   32.0721   40.3221 H   0  0  0  0  0  0  0  0  0  0  0  0
   48.3042   35.6253   40.1202 H   0  0  0  0  0  0  0  0  0  0  0  0
   47.2667   34.2033   40.0888 H   0  0  0  0  0  0  0  0  0  0  0  0
   48.3959   35.5077   42.6583 H   0  0  0  0  0  0  0  0  0  0  0  0
   46.7488   35.7820   42.0624 H   0  0  0  0  0  0  0  0  0  0  0  0
   45.7173   33.8434   48.4087 H   0  0  0  0  0  0  0  0  0  0  0  0
   45.7068   30.3041   45.9290 H   0  0  0  0  0  0  0  0  0  0  0  0
   45.5018   30.0187   50.1711 H   0  0  0  0  0  0  0  0  0  0  0  0
  1 13  1  0
  2  1  1  0
  3  2  2  0
  4  3  1  0
  4  5  2  0
  5  1  1  0
  6  4  1  0
  7  6  1  0
  8  7  1  0
  9  8  1  0
 10  9  1  0
 10 11  1  0
 11  6  1  0
 12 17  2  0
 13 12  1  0
 14 13  2  0
 14 15  1  0
 15 16  2  0
 16 17  1  0
  2 18  1  0
  7 19  1  0
  7 20  1  0
  8 21  1  0
  8 22  1  0
 10 23  1  0
 10 24  1  0
 11 25  1  0
 11 26  1  0
 12 27  1  0
 14 28  1  0
 16 29  1  0
M  ISO  8  18  14  19  13  20  13  21  13  22  13  23  13  24  13  25  13
M  ISO  4  26  13  27  14  28  14  29  14
M  END
>  <minimizedAffinity>  (1) 
-4.56377792

>  <minimizedRMSD>  (1) 
5.32461357

$$$$
