
     RDKit          3D

 23 24  0  0  0  0  0  0  0  0999 V2000
   46.2030   35.2140   42.1600 C   0  0  0  0  0  0  0  0  0  0  0  0
   45.7200   34.2720   41.2130 C   0  0  0  0  0  0  0  0  0  0  0  0
   45.1930   33.0710   41.6870 C   0  0  0  0  0  0  0  0  0  0  0  0
   45.1730   32.8760   43.0390 N   0  0  0  0  0  0  0  0  0  0  0  0
   45.6400   33.7940   43.9150 C   0  0  0  0  0  0  0  0  0  0  0  0
   46.1500   34.9500   43.4790 N   0  0  0  0  0  0  0  0  0  0  0  0
   45.5390   33.4200   45.2830 N   0  0  0  0  0  0  0  0  0  0  0  0
   46.0630   32.2070   45.5900 C   0  0  0  0  0  0  0  0  0  0  0  0
   46.0300   31.7190   46.8990 C   0  0  0  0  0  0  0  0  0  0  0  0
   46.6180   30.3740   47.2030 C   0  0  0  0  0  0  0  0  0  0  0  0
   45.4540   32.4990   47.8670 C   0  0  0  0  0  0  0  0  0  0  0  0
   45.3990   32.1050   49.0630 O   0  0  0  0  0  0  0  0  0  0  0  0
   44.9370   33.7060   47.5380 N   0  0  0  0  0  0  0  0  0  0  0  0
   44.9760   34.1700   46.2610 C   0  0  0  0  0  0  0  0  0  0  0  0
   44.5070   35.2850   45.9170 O   0  0  0  0  0  0  0  0  0  0  0  0
   46.6245   36.1687   41.8122 H   0  0  0  0  0  0  0  0  0  0  0  0
   45.7606   34.4842   40.1344 H   0  0  0  0  0  0  0  0  0  0  0  0
   44.8068   32.3071   40.9961 H   0  0  0  0  0  0  0  0  0  0  0  0
   46.5209   31.5982   44.7964 H   0  0  0  0  0  0  0  0  0  0  0  0
   46.6776   30.2377   48.2929 H   0  0  0  0  0  0  0  0  0  0  0  0
   45.9810   29.5889   46.7696 H   0  0  0  0  0  0  0  0  0  0  0  0
   47.6269   30.3084   46.7696 H   0  0  0  0  0  0  0  0  0  0  0  0
   44.5045   34.2856   48.2715 H   0  0  0  0  0  0  0  0  0  0  0  0
  1  6  2  0
  2  3  2  0
  2  1  1  0
  3  4  1  0
  4  5  2  0
  5  7  1  0
  6  5  1  0
  7  8  1  0
  7 14  1  0
  8  9  2  0
  9 10  1  0
  9 11  1  0
 11 12  2  0
 13 11  1  0
 14 13  1  0
 15 14  2  0
  1 16  1  0
  2 17  1  0
  3 18  1  0
  8 19  1  0
 10 20  1  0
 10 21  1  0
 10 22  1  0
 13 23  1  0
M  ISO  8  16  14  17  14  18  14  19  14  20   8  21   8  22   8  23   9
M  END
>  <minimizedAffinity>  (1) 
-5.03898525

>  <minimizedRMSD>  (1) 
2.22498465

$$$$
