
     RDKit          3D

 29 30  0  0  0  0  0  0  0  0999 V2000
   50.7730   32.8340   41.9520 C   0  0  0  0  0  0  0  0  0  0  0  0
   50.6980   31.4190   41.8110 C   0  0  0  0  0  0  0  0  0  0  0  0
   49.5500   30.7790   42.2740 C   0  0  0  0  0  0  0  0  0  0  0  0
   48.5620   31.5380   42.8380 N   0  0  0  0  0  0  0  0  0  0  0  0
   48.6680   32.8880   42.9560 C   0  0  0  0  0  0  0  0  0  0  0  0
   49.7580   33.4970   42.5160 N   0  0  0  0  0  0  0  0  0  0  0  0
   47.5540   33.5180   43.5630 N   0  0  0  0  0  0  0  0  0  0  0  0
   47.1740   33.0030   44.7560 C   0  0  0  0  0  0  0  0  0  0  0  0
   46.0860   33.5400   45.4540 C   0  0  0  0  0  0  0  0  0  0  0  0
   45.4180   34.6000   44.8980 C   0  0  0  0  0  0  0  0  0  0  0  0
   44.4350   35.1130   45.4930 O   0  0  0  0  0  0  0  0  0  0  0  0
   45.8190   35.1010   43.6990 N   0  0  0  0  0  0  0  0  0  0  0  0
   46.8740   34.5650   43.0420 C   0  0  0  0  0  0  0  0  0  0  0  0
   47.2700   35.0040   41.9310 O   0  0  0  0  0  0  0  0  0  0  0  0
   45.6910   32.9470   46.7690 C   0  0  0  0  0  0  0  0  0  0  0  0
   45.1020   36.2240   43.1240 C   0  0  0  0  0  0  0  0  0  0  0  0
   44.0810   35.6660   42.1600 C   0  0  0  0  0  0  0  0  0  0  0  0
   51.6611   33.3786   41.5989 H   0  0  0  0  0  0  0  0  0  0  0  0
   51.5195   30.8497   41.3516 H   0  0  0  0  0  0  0  0  0  0  0  0
   49.4409   29.6878   42.1878 H   0  0  0  0  0  0  0  0  0  0  0  0
   47.7267   32.1526   45.1818 H   0  0  0  0  0  0  0  0  0  0  0  0
   46.0997   33.5605   47.5854 H   0  0  0  0  0  0  0  0  0  0  0  0
   44.5939   32.9201   46.8444 H   0  0  0  0  0  0  0  0  0  0  0  0
   46.0889   31.9243   46.8444 H   0  0  0  0  0  0  0  0  0  0  0  0
   44.5968   36.7933   43.9182 H   0  0  0  0  0  0  0  0  0  0  0  0
   45.7957   36.9012   42.6042 H   0  0  0  0  0  0  0  0  0  0  0  0
   43.2526   35.2133   42.7247 H   0  0  0  0  0  0  0  0  0  0  0  0
   43.6928   36.4774   41.5268 H   0  0  0  0  0  0  0  0  0  0  0  0
   44.5543   34.9011   41.5268 H   0  0  0  0  0  0  0  0  0  0  0  0
  1  6  2  0
  2  1  1  0
  2  3  2  0
  3  4  1  0
  4  5  2  0
  5  7  1  0
  6  5  1  0
  7  8  1  0
  8  9  2  0
  9 15  1  0
 10  9  1  0
 10 11  2  0
 12 10  1  0
 13  7  1  0
 13 12  1  0
 14 13  2  0
 16 12  1  0
 17 16  1  0
  1 18  1  0
  2 19  1  0
  3 20  1  0
  8 21  1  0
 15 22  1  0
 15 23  1  0
 15 24  1  0
 16 25  1  0
 16 26  1  0
 17 27  1  0
 17 28  1  0
 17 29  1  0
M  ISO  8  18  14  19  14  20  14  21  14  22   8  23   8  24   8  25   8
M  ISO  4  26   8  27   8  28   8  29   8
M  END
>  <minimizedAffinity>  (1) 
-4.86290026

>  <minimizedRMSD>  (1) 
4.29346561

$$$$
