
     RDKit          3D

 43 45  0  0  0  0  0  0  0  0999 V2000
   50.0310   34.0690   42.7750 C   0  0  0  0  0  0  0  0  0  0  0  0
   50.7830   33.1360   42.0220 C   0  0  0  0  0  0  0  0  0  0  0  0
   50.0850   32.1310   41.3620 C   0  0  0  0  0  0  0  0  0  0  0  0
   48.7180   32.0810   41.4640 N   0  0  0  0  0  0  0  0  0  0  0  0
   48.0380   33.0070   42.2060 C   0  0  0  0  0  0  0  0  0  0  0  0
   48.6980   33.9700   42.8380 N   0  0  0  0  0  0  0  0  0  0  0  0
   46.6300   32.8230   42.2150 N   0  0  0  0  0  0  0  0  0  0  0  0
   46.2090   31.5830   42.5680 C   0  0  0  0  0  0  0  0  0  0  0  0
   44.8460   31.2820   42.6140 C   0  0  0  0  0  0  0  0  0  0  0  0
   43.9450   32.2630   42.2950 C   0  0  0  0  0  0  0  0  0  0  0  0
   42.7160   32.0430   42.3200 O   0  0  0  0  0  0  0  0  0  0  0  0
   44.3870   33.4930   41.9450 N   0  0  0  0  0  0  0  0  0  0  0  0
   45.7200   33.7770   41.9040 C   0  0  0  0  0  0  0  0  0  0  0  0
   46.1710   34.9090   41.5840 O   0  0  0  0  0  0  0  0  0  0  0  0
   44.4090   29.9070   43.0070 C   0  0  0  0  0  0  0  0  0  0  0  0
   43.4460   34.5500   41.6020 C   0  0  0  0  0  0  0  0  0  0  0  0
   43.3100   34.5670   40.1060 C   0  0  0  0  0  0  0  0  0  0  0  0
   42.0250   35.0750   39.7020 N   0  0  0  0  0  0  0  0  0  0  0  0
   40.9320   34.2520   40.1400 C   0  0  0  0  0  0  0  0  0  0  0  0
   40.5530   33.1840   39.1530 C   0  0  0  0  0  0  0  0  0  0  0  0
   40.5160   33.6720   37.7910 N   0  0  0  0  0  0  0  0  0  0  0  0
   40.6010   35.1390   37.7820 C   0  0  0  0  0  0  0  0  0  0  0  0
   41.9690   35.4830   38.3310 C   0  0  0  0  0  0  0  0  0  0  0  0
   50.5452   34.8801   43.3115 H   0  0  0  0  0  0  0  0  0  0  0  0
   51.8792   33.2035   41.9612 H   0  0  0  0  0  0  0  0  0  0  0  0
   50.6243   31.3823   40.7631 H   0  0  0  0  0  0  0  0  0  0  0  0
   46.9474   30.8077   42.8202 H   0  0  0  0  0  0  0  0  0  0  0  0
   44.3844   29.8296   44.1040 H   0  0  0  0  0  0  0  0  0  0  0  0
   43.4046   29.7120   42.6030 H   0  0  0  0  0  0  0  0  0  0  0  0
   45.1165   29.1679   42.6030 H   0  0  0  0  0  0  0  0  0  0  0  0
   42.4691   34.3478   42.0655 H   0  0  0  0  0  0  0  0  0  0  0  0
   43.8059   35.5226   41.9689 H   0  0  0  0  0  0  0  0  0  0  0  0
   44.0976   35.2074   39.6821 H   0  0  0  0  0  0  0  0  0  0  0  0
   43.4062   33.5350   39.7375 H   0  0  0  0  0  0  0  0  0  0  0  0
   41.2181   33.7671   41.0850 H   0  0  0  0  0  0  0  0  0  0  0  0
   40.0581   34.9098   40.2566 H   0  0  0  0  0  0  0  0  0  0  0  0
   41.2896   32.3694   39.2154 H   0  0  0  0  0  0  0  0  0  0  0  0
   39.5413   32.8371   39.4100 H   0  0  0  0  0  0  0  0  0  0  0  0
   41.3114   33.2807   37.2665 H   0  0  0  0  0  0  0  0  0  0  0  0
   40.4940   35.5214   36.7562 H   0  0  0  0  0  0  0  0  0  0  0  0
   39.8002   35.5919   38.3850 H   0  0  0  0  0  0  0  0  0  0  0  0
   42.7433   34.9550   37.7550 H   0  0  0  0  0  0  0  0  0  0  0  0
   42.1445   36.5661   38.2531 H   0  0  0  0  0  0  0  0  0  0  0  0
  1  6  2  0
  2  1  1  0
  3  4  1  0
  3  2  2  0
  4  5  2  0
  5  7  1  0
  5  6  1  0
  7  8  1  0
  8  9  2  0
  9 15  1  0
 10 11  2  0
 10  9  1  0
 12 10  1  0
 13 12  1  0
 13  7  1  0
 14 13  2  0
 16 12  1  0
 17 16  1  0
 18 17  1  0
 18 19  1  0
 20 19  1  0
 21 20  1  0
 22 21  1  0
 22 23  1  0
 23 18  1  0
  1 24  1  0
  2 25  1  0
  3 26  1  0
  8 27  1  0
 15 28  1  0
 15 29  1  0
 15 30  1  0
 16 31  1  0
 16 32  1  0
 17 33  1  0
 17 34  1  0
 19 35  1  0
 19 36  1  0
 20 37  1  0
 20 38  1  0
 21 39  1  0
 22 40  1  0
 22 41  1  0
 23 42  1  0
 23 43  1  0
M  ISO  8  24  14  25  14  26  14  27  14  28   8  29   8  30   8  31   8
M  ISO  8  32   8  33   8  34   8  35  13  36  13  37  13  38  13  39   5
M  ISO  4  40  13  41  13  42  13  43  13
M  END
>  <minimizedAffinity>  (1) 
-4.63022089

>  <minimizedRMSD>  (1) 
2.89748883

$$$$
