
     RDKit          3D

 31 32  0  0  0  0  0  0  0  0999 V2000
   50.7570   32.8330   41.9410 C   0  0  0  0  0  0  0  0  0  0  0  0
   50.6960   31.4250   41.8100 C   0  0  0  0  0  0  0  0  0  0  0  0
   49.5650   30.7810   42.2900 C   0  0  0  0  0  0  0  0  0  0  0  0
   48.5750   31.5320   42.8580 N   0  0  0  0  0  0  0  0  0  0  0  0
   48.6690   32.8920   42.9680 C   0  0  0  0  0  0  0  0  0  0  0  0
   49.7430   33.4960   42.5120 N   0  0  0  0  0  0  0  0  0  0  0  0
   47.5560   33.5060   43.5810 N   0  0  0  0  0  0  0  0  0  0  0  0
   47.1800   33.0050   44.7750 C   0  0  0  0  0  0  0  0  0  0  0  0
   46.0960   33.5320   45.4710 C   0  0  0  0  0  0  0  0  0  0  0  0
   45.4080   34.5840   44.9130 C   0  0  0  0  0  0  0  0  0  0  0  0
   44.4280   35.0910   45.5000 O   0  0  0  0  0  0  0  0  0  0  0  0
   45.8030   35.0800   43.7010 N   0  0  0  0  0  0  0  0  0  0  0  0
   46.8560   34.5480   43.0530 C   0  0  0  0  0  0  0  0  0  0  0  0
   47.2480   34.9810   41.9320 O   0  0  0  0  0  0  0  0  0  0  0  0
   45.7120   32.9470   46.7900 C   0  0  0  0  0  0  0  0  0  0  0  0
   45.0700   36.1850   43.1290 C   0  0  0  0  0  0  0  0  0  0  0  0
   43.9890   35.6160   42.2400 C   0  0  0  0  0  0  0  0  0  0  0  0
   42.7030   35.5830   42.8520 N   0  0  0  0  0  0  0  0  0  0  0  0
   51.6366   33.3823   41.5741 H   0  0  0  0  0  0  0  0  0  0  0  0
   51.5171   30.8609   41.3436 H   0  0  0  0  0  0  0  0  0  0  0  0
   49.4672   29.6879   42.2149 H   0  0  0  0  0  0  0  0  0  0  0  0
   47.7409   32.1634   45.2075 H   0  0  0  0  0  0  0  0  0  0  0  0
   46.1204   33.5692   47.5999 H   0  0  0  0  0  0  0  0  0  0  0  0
   44.6155   32.9133   46.8709 H   0  0  0  0  0  0  0  0  0  0  0  0
   46.1172   31.9275   46.8709 H   0  0  0  0  0  0  0  0  0  0  0  0
   44.6164   36.7870   43.9301 H   0  0  0  0  0  0  0  0  0  0  0  0
   45.7438   36.8308   42.5468 H   0  0  0  0  0  0  0  0  0  0  0  0
   44.2698   34.5883   41.9661 H   0  0  0  0  0  0  0  0  0  0  0  0
   43.9116   36.2773   41.3644 H   0  0  0  0  0  0  0  0  0  0  0  0
   42.8101   35.5857   43.8764 H   0  0  0  0  0  0  0  0  0  0  0  0
   42.1630   36.4104   42.5610 H   0  0  0  0  0  0  0  0  0  0  0  0
  1  6  2  0
  2  1  1  0
  2  3  2  0
  3  4  1  0
  4  5  2  0
  5  7  1  0
  6  5  1  0
  7  8  1  0
  8  9  2  0
  9 15  1  0
 10  9  1  0
 10 11  2  0
 12 10  1  0
 13  7  1  0
 13 12  1  0
 14 13  2  0
 16 12  1  0
 17 18  1  0
 17 16  1  0
  1 19  1  0
  2 20  1  0
  3 21  1  0
  8 22  1  0
 15 23  1  0
 15 24  1  0
 15 25  1  0
 16 26  1  0
 16 27  1  0
 17 28  1  0
 17 29  1  0
 18 30  1  0
 18 31  1  0
M  ISO  8  19  14  20  14  21  14  22  14  23   8  24   8  25   8  26   8
M  ISO  5  27   8  28   8  29   8  30   5  31   5
M  END
>  <minimizedAffinity>  (1) 
-5.17081833

>  <minimizedRMSD>  (1) 
0.219995394

$$$$
