
     RDKit          3D

 30 31  0  0  0  0  0  0  0  0999 V2000
   50.8900   33.0670   42.0870 C   0  0  0  0  0  0  0  0  0  0  0  0
   50.9250   31.6340   42.1280 C   0  0  0  0  0  0  0  0  0  0  0  0
   49.8020   30.9630   42.6150 C   0  0  0  0  0  0  0  0  0  0  0  0
   48.7360   31.7160   43.0240 N   0  0  0  0  0  0  0  0  0  0  0  0
   48.7300   33.0690   42.9730 C   0  0  0  0  0  0  0  0  0  0  0  0
   49.7940   33.6900   42.5130 N   0  0  0  0  0  0  0  0  0  0  0  0
   47.5370   33.6750   43.4400 N   0  0  0  0  0  0  0  0  0  0  0  0
   47.1300   33.2820   44.6600 C   0  0  0  0  0  0  0  0  0  0  0  0
   45.9610   33.8070   45.2380 C   0  0  0  0  0  0  0  0  0  0  0  0
   45.2480   34.7350   44.5180 C   0  0  0  0  0  0  0  0  0  0  0  0
   44.2000   35.2330   44.9890 O   0  0  0  0  0  0  0  0  0  0  0  0
   45.6850   35.1100   43.2960 N   0  0  0  0  0  0  0  0  0  0  0  0
   46.8210   34.5840   42.7590 C   0  0  0  0  0  0  0  0  0  0  0  0
   47.2490   34.9190   41.6160 O   0  0  0  0  0  0  0  0  0  0  0  0
   45.5380   33.3470   46.5960 C   0  0  0  0  0  0  0  0  0  0  0  0
   44.9220   36.0930   42.5420 C   0  0  0  0  0  0  0  0  0  0  0  0
   44.1830   35.3640   41.4540 C   0  0  0  0  0  0  0  0  0  0  0  0
   42.4110   35.3390   41.6880 S   0  0  0  0  0  0  0  0  0  0  0  0
   51.7510   33.6392   41.7113 H   0  0  0  0  0  0  0  0  0  0  0  0
   51.8112   31.0796   41.7856 H   0  0  0  0  0  0  0  0  0  0  0  0
   49.7753   29.8646   42.6681 H   0  0  0  0  0  0  0  0  0  0  0  0
   47.7211   32.5381   45.2143 H   0  0  0  0  0  0  0  0  0  0  0  0
   46.0720   33.9277   47.3626 H   0  0  0  0  0  0  0  0  0  0  0  0
   44.4543   33.4954   46.7123 H   0  0  0  0  0  0  0  0  0  0  0  0
   45.7765   32.2795   46.7123 H   0  0  0  0  0  0  0  0  0  0  0  0
   44.2063   36.6005   43.2055 H   0  0  0  0  0  0  0  0  0  0  0  0
   45.5920   36.8512   42.1104 H   0  0  0  0  0  0  0  0  0  0  0  0
   44.5447   34.3256   41.4230 H   0  0  0  0  0  0  0  0  0  0  0  0
   44.3775   35.9020   40.5145 H   0  0  0  0  0  0  0  0  0  0  0  0
   42.1274   35.3350   43.0283 H   0  0  0  0  0  0  0  0  0  0  0  0
  1  2  2  0
  1  6  1  0
  2  3  1  0
  3  4  2  0
  5  4  1  0
  5  7  1  0
  6  5  2  0
  7  8  1  0
  8  9  2  0
  9 15  1  0
 10 11  2  0
 10  9  1  0
 12 10  1  0
 13 12  1  0
 13  7  1  0
 14 13  2  0
 16 12  1  0
 17 18  1  0
 17 16  1  0
  1 19  1  0
  2 20  1  0
  3 21  1  0
  8 22  1  0
 15 23  1  0
 15 24  1  0
 15 25  1  0
 16 26  1  0
 16 27  1  0
 17 28  1  0
 17 29  1  0
 18 30  1  0
M  ISO  8  19  14  20  14  21  14  22  14  23   8  24   8  25   8  26   8
M  ISO  4  27   8  28   8  29   8  30  11
M  END
>  <minimizedAffinity>  (1) 
-4.42833471

>  <minimizedRMSD>  (1) 
0.54398191

$$$$
