
     RDKit          3D

 26 28  0  0  0  0  0  0  0  0999 V2000
   45.9050   33.2760   43.2160 N   0  0  0  0  0  0  0  0  0  0  0  0
   47.1960   32.8610   43.0260 C   0  0  0  0  0  0  0  0  0  0  0  0
   47.6490   32.2640   44.1390 N   0  0  0  0  0  0  0  0  0  0  0  0
   46.6240   32.3070   45.0390 C   0  0  0  0  0  0  0  0  0  0  0  0
   45.5770   32.9240   44.4610 N   0  0  0  0  0  0  0  0  0  0  0  0
   44.5870   33.2730   41.1930 C   0  0  0  0  0  0  0  0  0  0  0  0
   45.0050   33.9530   42.3380 C   0  0  0  0  0  0  0  0  0  0  0  0
   44.5300   35.2410   42.5650 C   0  0  0  0  0  0  0  0  0  0  0  0
   43.6780   35.7780   41.6570 N   0  0  0  0  0  0  0  0  0  0  0  0
   43.2860   35.1070   40.5600 C   0  0  0  0  0  0  0  0  0  0  0  0
   43.7480   33.8670   40.3480 N   0  0  0  0  0  0  0  0  0  0  0  0
   46.4290   31.8470   46.4310 C   0  0  0  0  0  0  0  0  0  0  0  0
   45.5510   30.7830   46.6120 C   0  0  0  0  0  0  0  0  0  0  0  0
   45.2910   30.2680   47.8690 C   0  0  0  0  0  0  0  0  0  0  0  0
   45.9490   30.8620   48.9510 C   0  0  0  0  0  0  0  0  0  0  0  0
   46.8270   31.9230   48.7900 C   0  0  0  0  0  0  0  0  0  0  0  0
   47.0630   32.4100   47.5280 C   0  0  0  0  0  0  0  0  0  0  0  0
   47.7746   32.9966   42.1003 H   0  0  0  0  0  0  0  0  0  0  0  0
   44.9483   32.2539   40.9907 H   0  0  0  0  0  0  0  0  0  0  0  0
   44.8371   35.8079   43.4563 H   0  0  0  0  0  0  0  0  0  0  0  0
   42.5927   35.5713   39.8433 H   0  0  0  0  0  0  0  0  0  0  0  0
   45.0527   30.3417   45.7362 H   0  0  0  0  0  0  0  0  0  0  0  0
   44.5964   29.4271   48.0118 H   0  0  0  0  0  0  0  0  0  0  0  0
   45.7637   30.4744   49.9636 H   0  0  0  0  0  0  0  0  0  0  0  0
   47.3280   32.3688   49.6619 H   0  0  0  0  0  0  0  0  0  0  0  0
   47.7582   33.2506   47.3867 H   0  0  0  0  0  0  0  0  0  0  0  0
  1  5  1  0
  2  1  1  0
  2  3  2  0
  3  4  1  0
  4 12  1  0
  5  4  2  0
  6  7  2  0
  7  8  1  0
  7  1  1  0
  9  8  2  0
 10  9  1  0
 11 10  2  0
 11  6  1  0
 12 13  2  0
 12 17  1  0
 13 14  1  0
 14 15  2  0
 16 15  1  0
 17 16  2  0
  2 18  1  0
  6 19  1  0
  8 20  1  0
 10 21  1  0
 13 22  1  0
 14 23  1  0
 15 24  1  0
 16 25  1  0
 17 26  1  0
M  ISO  8  18  14  19  14  20  14  21  14  22  14  23  14  24  14  25  14
M  ISO  1  26  14
M  END
>  <minimizedAffinity>  (1) 
-4.24651718

>  <minimizedRMSD>  (1) 
7.46589851

$$$$
