
     RDKit          3D

 47 50  0  0  0  0  0  0  0  0999 V2000
   50.8060   32.9710   42.0170 C   0  0  0  0  0  0  0  0  0  0  0  0
   50.7430   31.5660   41.8360 C   0  0  0  0  0  0  0  0  0  0  0  0
   49.5910   30.9080   42.2580 C   0  0  0  0  0  0  0  0  0  0  0  0
   48.5870   31.6440   42.8190 N   0  0  0  0  0  0  0  0  0  0  0  0
   48.6780   32.9890   42.9780 C   0  0  0  0  0  0  0  0  0  0  0  0
   49.7700   33.6040   42.5770 N   0  0  0  0  0  0  0  0  0  0  0  0
   47.5570   33.5910   43.5720 N   0  0  0  0  0  0  0  0  0  0  0  0
   47.1440   33.0560   44.7340 C   0  0  0  0  0  0  0  0  0  0  0  0
   46.0380   33.5730   45.4170 C   0  0  0  0  0  0  0  0  0  0  0  0
   45.3730   34.6390   44.8850 C   0  0  0  0  0  0  0  0  0  0  0  0
   44.3900   35.1170   45.4690 O   0  0  0  0  0  0  0  0  0  0  0  0
   45.8000   35.1690   43.7110 N   0  0  0  0  0  0  0  0  0  0  0  0
   46.8730   34.6520   43.0690 C   0  0  0  0  0  0  0  0  0  0  0  0
   47.3000   35.1220   41.9700 O   0  0  0  0  0  0  0  0  0  0  0  0
   45.6250   32.9360   46.7170 C   0  0  0  0  0  0  0  0  0  0  0  0
   45.0880   36.3050   43.1500 C   0  0  0  0  0  0  0  0  0  0  0  0
   44.2770   35.7770   41.9810 C   0  0  0  0  0  0  0  0  0  0  0  0
   43.0220   35.2470   42.3720 N   0  0  0  0  0  0  0  0  0  0  0  0
   42.0040   35.1540   41.3830 C   0  0  0  0  0  0  0  0  0  0  0  0
   40.9370   36.0250   41.3620 C   0  0  0  0  0  0  0  0  0  0  0  0
   39.9210   35.9870   40.4300 C   0  0  0  0  0  0  0  0  0  0  0  0
   39.9460   35.0240   39.4430 C   0  0  0  0  0  0  0  0  0  0  0  0
   40.9920   34.1260   39.4180 C   0  0  0  0  0  0  0  0  0  0  0  0
   41.0100   33.1660   38.4270 C   0  0  0  0  0  0  0  0  0  0  0  0
   42.0490   32.2380   38.3650 C   0  0  0  0  0  0  0  0  0  0  0  0
   43.0410   32.3190   39.3190 C   0  0  0  0  0  0  0  0  0  0  0  0
   42.9750   33.2940   40.2830 C   0  0  0  0  0  0  0  0  0  0  0  0
   41.9690   34.2310   40.3840 C   0  0  0  0  0  0  0  0  0  0  0  0
   51.6967   33.5335   41.7004 H   0  0  0  0  0  0  0  0  0  0  0  0
   51.5768   31.0142   41.3773 H   0  0  0  0  0  0  0  0  0  0  0  0
   49.4917   29.8186   42.1420 H   0  0  0  0  0  0  0  0  0  0  0  0
   47.6855   32.1962   45.1554 H   0  0  0  0  0  0  0  0  0  0  0  0
   46.0116   33.5323   47.5566 H   0  0  0  0  0  0  0  0  0  0  0  0
   44.5272   32.8937   46.7721 H   0  0  0  0  0  0  0  0  0  0  0  0
   46.0344   31.9165   46.7721 H   0  0  0  0  0  0  0  0  0  0  0  0
   44.4212   36.7454   43.9059 H   0  0  0  0  0  0  0  0  0  0  0  0
   45.7876   37.0890   42.8244 H   0  0  0  0  0  0  0  0  0  0  0  0
   44.8537   34.9826   41.4847 H   0  0  0  0  0  0  0  0  0  0  0  0
   44.0809   36.6242   41.3073 H   0  0  0  0  0  0  0  0  0  0  0  0
   42.8527   34.9394   43.3403 H   0  0  0  0  0  0  0  0  0  0  0  0
   40.8923   36.8018   42.1396 H   0  0  0  0  0  0  0  0  0  0  0  0
   39.0994   36.7171   40.4734 H   0  0  0  0  0  0  0  0  0  0  0  0
   39.1461   34.9733   38.6896 H   0  0  0  0  0  0  0  0  0  0  0  0
   40.2010   33.1326   37.6824 H   0  0  0  0  0  0  0  0  0  0  0  0
   42.0762   31.4669   37.5810 H   0  0  0  0  0  0  0  0  0  0  0  0
   43.8796   31.6072   39.3077 H   0  0  0  0  0  0  0  0  0  0  0  0
   43.7830   33.3302   41.0285 H   0  0  0  0  0  0  0  0  0  0  0  0
  1  6  2  0
  2  1  1  0
  2  3  2  0
  3  4  1  0
  4  5  2  0
  5  7  1  0
  6  5  1  0
  7  8  1  0
  8  9  2  0
  9 15  1  0
 10  9  1  0
 10 11  2  0
 12 10  1  0
 13  7  1  0
 13 12  1  0
 14 13  2  0
 16 12  1  0
 17 18  1  0
 17 16  1  0
 19 18  1  0
 20 19  2  0
 21 20  1  0
 22 21  2  0
 23 22  1  0
 23 28  2  0
 24 23  1  0
 25 24  2  0
 25 26  1  0
 26 27  2  0
 27 28  1  0
 28 19  1  0
  1 29  1  0
  2 30  1  0
  3 31  1  0
  8 32  1  0
 15 33  1  0
 15 34  1  0
 15 35  1  0
 16 36  1  0
 16 37  1  0
 17 38  1  0
 17 39  1  0
 18 40  1  0
 20 41  1  0
 21 42  1  0
 22 43  1  0
 24 44  1  0
 25 45  1  0
 26 46  1  0
 27 47  1  0
M  ISO  8  29  14  30  14  31  14  32  14  33   8  34   8  35   8  36   8
M  ISO  8  37   8  38   8  39   8  41  14  42  14  43  14  44  14  45  14
M  ISO  2  46  14  47  14
M  END
>  <minimizedAffinity>  (1) 
-7.20422506

>  <minimizedRMSD>  (1) 
0.735122204

$$$$
