
     RDKit          3D

 41 43  0  0  0  0  0  0  0  0999 V2000
   50.7750   32.9480   41.9950 C   0  0  0  0  0  0  0  0  0  0  0  0
   50.7330   31.5420   41.8430 C   0  0  0  0  0  0  0  0  0  0  0  0
   49.6150   30.8820   42.3040 C   0  0  0  0  0  0  0  0  0  0  0  0
   48.6070   31.6040   42.8800 N   0  0  0  0  0  0  0  0  0  0  0  0
   48.6770   32.9550   43.0110 C   0  0  0  0  0  0  0  0  0  0  0  0
   49.7490   33.5720   42.5680 N   0  0  0  0  0  0  0  0  0  0  0  0
   47.5540   33.5460   43.6270 N   0  0  0  0  0  0  0  0  0  0  0  0
   47.1730   33.0220   44.8100 C   0  0  0  0  0  0  0  0  0  0  0  0
   46.0800   33.5270   45.5040 C   0  0  0  0  0  0  0  0  0  0  0  0
   45.3870   34.5790   44.9580 C   0  0  0  0  0  0  0  0  0  0  0  0
   44.4030   35.0660   45.5400 O   0  0  0  0  0  0  0  0  0  0  0  0
   45.7790   35.1060   43.7560 N   0  0  0  0  0  0  0  0  0  0  0  0
   46.8490   34.5890   43.1080 C   0  0  0  0  0  0  0  0  0  0  0  0
   47.2430   35.0490   41.9970 O   0  0  0  0  0  0  0  0  0  0  0  0
   45.6890   32.9230   46.8040 C   0  0  0  0  0  0  0  0  0  0  0  0
   45.0370   36.2150   43.1980 C   0  0  0  0  0  0  0  0  0  0  0  0
   44.2130   35.6650   42.0600 C   0  0  0  0  0  0  0  0  0  0  0  0
   42.8170   35.5460   42.3490 N   0  0  0  0  0  0  0  0  0  0  0  0
   41.9500   35.3880   41.2290 C   0  0  0  0  0  0  0  0  0  0  0  0
   42.4260   35.1550   39.9560 C   0  0  0  0  0  0  0  0  0  0  0  0
   41.6600   34.9910   38.8250 C   0  0  0  0  0  0  0  0  0  0  0  0
   40.2900   35.0660   38.9650 C   0  0  0  0  0  0  0  0  0  0  0  0
   39.7460   35.2970   40.2110 C   0  0  0  0  0  0  0  0  0  0  0  0
   40.5730   35.4510   41.3040 C   0  0  0  0  0  0  0  0  0  0  0  0
   51.6467   33.5193   41.6432 H   0  0  0  0  0  0  0  0  0  0  0  0
   51.5638   30.9951   41.3733 H   0  0  0  0  0  0  0  0  0  0  0  0
   49.5345   29.7890   42.2099 H   0  0  0  0  0  0  0  0  0  0  0  0
   47.7383   32.1788   45.2336 H   0  0  0  0  0  0  0  0  0  0  0  0
   46.0856   33.5357   47.6270 H   0  0  0  0  0  0  0  0  0  0  0  0
   44.5920   32.8812   46.8737 H   0  0  0  0  0  0  0  0  0  0  0  0
   46.0999   31.9050   46.8737 H   0  0  0  0  0  0  0  0  0  0  0  0
   44.3796   36.6531   43.9634 H   0  0  0  0  0  0  0  0  0  0  0  0
   45.7166   37.0048   42.8453 H   0  0  0  0  0  0  0  0  0  0  0  0
   44.5988   34.6666   41.8062 H   0  0  0  0  0  0  0  0  0  0  0  0
   44.3034   36.3813   41.2301 H   0  0  0  0  0  0  0  0  0  0  0  0
   42.4580   35.5730   43.3140 H   0  0  0  0  0  0  0  0  0  0  0  0
   43.5175   35.0948   39.8336 H   0  0  0  0  0  0  0  0  0  0  0  0
   42.1235   34.8067   37.8446 H   0  0  0  0  0  0  0  0  0  0  0  0
   39.6360   34.9425   38.0892 H   0  0  0  0  0  0  0  0  0  0  0  0
   38.6545   35.3583   40.3329 H   0  0  0  0  0  0  0  0  0  0  0  0
   40.1117   35.6334   42.2858 H   0  0  0  0  0  0  0  0  0  0  0  0
  1  6  2  0
  2  1  1  0
  2  3  2  0
  3  4  1  0
  4  5  2  0
  5  7  1  0
  6  5  1  0
  7  8  1  0
  8  9  2  0
  9 15  1  0
 10  9  1  0
 10 11  2  0
 12 10  1  0
 13  7  1  0
 13 12  1  0
 14 13  2  0
 16 12  1  0
 17 18  1  0
 17 16  1  0
 19 24  1  0
 19 18  1  0
 20 19  2  0
 21 22  2  0
 21 20  1  0
 22 23  1  0
 23 24  2  0
  1 25  1  0
  2 26  1  0
  3 27  1  0
  8 28  1  0
 15 29  1  0
 15 30  1  0
 15 31  1  0
 16 32  1  0
 16 33  1  0
 17 34  1  0
 17 35  1  0
 18 36  1  0
 20 37  1  0
 21 38  1  0
 22 39  1  0
 23 40  1  0
 24 41  1  0
M  ISO  8  25  14  26  14  27  14  28  14  29   8  30   8  31   8  32   8
M  ISO  8  33   8  34   8  35   8  37  14  38  14  39  14  40  14  41  14
M  END
>  <minimizedAffinity>  (1) 
-6.76367664

>  <minimizedRMSD>  (1) 
0.77466923

$$$$
