
     RDKit          3D

 38 40  0  0  0  0  0  0  0  0999 V2000
   50.8100   32.9820   42.0140 C   0  0  0  0  0  0  0  0  0  0  0  0
   50.7770   31.5600   41.9130 C   0  0  0  0  0  0  0  0  0  0  0  0
   49.6490   30.8990   42.3720 C   0  0  0  0  0  0  0  0  0  0  0  0
   48.6280   31.6410   42.8960 N   0  0  0  0  0  0  0  0  0  0  0  0
   48.6860   33.0010   42.9790 C   0  0  0  0  0  0  0  0  0  0  0  0
   49.7660   33.6150   42.5400 N   0  0  0  0  0  0  0  0  0  0  0  0
   47.5490   33.6040   43.5450 N   0  0  0  0  0  0  0  0  0  0  0  0
   47.1460   33.1180   44.7460 C   0  0  0  0  0  0  0  0  0  0  0  0
   46.0300   33.6470   45.3940 C   0  0  0  0  0  0  0  0  0  0  0  0
   45.3400   34.6710   44.7970 C   0  0  0  0  0  0  0  0  0  0  0  0
   44.3430   35.1620   45.3490 O   0  0  0  0  0  0  0  0  0  0  0  0
   45.7580   35.1450   43.5960 N   0  0  0  0  0  0  0  0  0  0  0  0
   46.8450   34.6210   42.9800 C   0  0  0  0  0  0  0  0  0  0  0  0
   47.2520   35.0440   41.8630 O   0  0  0  0  0  0  0  0  0  0  0  0
   45.6310   33.0710   46.7170 C   0  0  0  0  0  0  0  0  0  0  0  0
   45.0220   36.2310   42.9710 C   0  0  0  0  0  0  0  0  0  0  0  0
   43.9840   35.5970   42.0590 C   0  0  0  0  0  0  0  0  0  0  0  0
   42.6750   35.6270   42.6020 N   0  0  0  0  0  0  0  0  0  0  0  0
   41.6430   35.2790   41.6760 C   0  0  0  0  0  0  0  0  0  0  0  0
   40.7440   36.1440   41.0510 C   0  0  0  0  0  0  0  0  0  0  0  0
   39.9070   35.3890   40.2270 C   0  0  0  0  0  0  0  0  0  0  0  0
   40.3040   34.1120   40.3630 N   0  0  0  0  0  0  0  0  0  0  0  0
   41.3180   34.0620   41.2120 N   0  0  0  0  0  0  0  0  0  0  0  0
   51.6860   33.5466   41.6620 H   0  0  0  0  0  0  0  0  0  0  0  0
   51.6229   31.0037   41.4830 H   0  0  0  0  0  0  0  0  0  0  0  0
   49.5770   29.8028   42.3159 H   0  0  0  0  0  0  0  0  0  0  0  0
   47.7068   32.2960   45.2147 H   0  0  0  0  0  0  0  0  0  0  0  0
   46.0552   33.6833   47.5264 H   0  0  0  0  0  0  0  0  0  0  0  0
   44.5340   33.0647   46.7983 H   0  0  0  0  0  0  0  0  0  0  0  0
   46.0106   32.0418   46.7983 H   0  0  0  0  0  0  0  0  0  0  0  0
   44.5266   36.8429   43.7392 H   0  0  0  0  0  0  0  0  0  0  0  0
   45.6973   36.8863   42.4014 H   0  0  0  0  0  0  0  0  0  0  0  0
   44.2662   34.5485   41.8830 H   0  0  0  0  0  0  0  0  0  0  0  0
   43.9661   36.1804   41.1267 H   0  0  0  0  0  0  0  0  0  0  0  0
   42.4833   35.8786   43.5822 H   0  0  0  0  0  0  0  0  0  0  0  0
   40.7019   37.2350   41.1847 H   0  0  0  0  0  0  0  0  0  0  0  0
   39.0885   35.7634   39.5946 H   0  0  0  0  0  0  0  0  0  0  0  0
   39.8860   33.3021   39.8833 H   0  0  0  0  0  0  0  0  0  0  0  0
  1  6  2  0
  2  1  1  0
  2  3  2  0
  3  4  1  0
  4  5  2  0
  5  7  1  0
  6  5  1  0
  7  8  1  0
  8  9  2  0
  9 15  1  0
 10 11  2  0
 10  9  1  0
 12 10  1  0
 13  7  1  0
 13 12  1  0
 14 13  2  0
 16 12  1  0
 17 18  1  0
 17 16  1  0
 19 18  1  0
 20 19  1  0
 21 22  1  0
 21 20  2  0
 22 23  1  0
 23 19  2  0
  1 24  1  0
  2 25  1  0
  3 26  1  0
  8 27  1  0
 15 28  1  0
 15 29  1  0
 15 30  1  0
 16 31  1  0
 16 32  1  0
 17 33  1  0
 17 34  1  0
 18 35  1  0
 20 36  1  0
 21 37  1  0
 22 38  1  0
M  ISO  8  24  14  25  14  26  14  27  14  28   8  29   8  30   8  31   8
M  ISO  6  32   8  33   8  34   8  36  14  37  14  38   9
M  END
>  <minimizedAffinity>  (1) 
-6.49190474

>  <minimizedRMSD>  (1) 
0.326267302

$$$$
