
     RDKit          3D

 23 25  0  0  0  0  0  0  0  0999 V2000
   46.0900   33.0890   45.9660 N   0  0  0  0  0  0  0  0  0  0  0  0
   45.3470   34.1050   46.4730 C   0  0  0  0  0  0  0  0  0  0  0  0
   44.7430   34.7670   45.4660 N   0  0  0  0  0  0  0  0  0  0  0  0
   45.1150   34.1530   44.3260 C   0  0  0  0  0  0  0  0  0  0  0  0
   45.9340   33.1350   44.6470 N   0  0  0  0  0  0  0  0  0  0  0  0
   47.3650   32.4110   47.8840 C   0  0  0  0  0  0  0  0  0  0  0  0
   46.9040   32.1120   46.6000 C   0  0  0  0  0  0  0  0  0  0  0  0
   47.2730   30.8880   46.0330 C   0  0  0  0  0  0  0  0  0  0  0  0
   48.0560   30.0590   46.7590 N   0  0  0  0  0  0  0  0  0  0  0  0
   48.4860   30.3680   47.9930 C   0  0  0  0  0  0  0  0  0  0  0  0
   48.1360   31.5480   48.5510 N   0  0  0  0  0  0  0  0  0  0  0  0
   44.6700   34.5730   43.0010 C   0  0  0  0  0  0  0  0  0  0  0  0
   45.1850   34.2260   41.7730 C   0  0  0  0  0  0  0  0  0  0  0  0
   44.4410   34.8630   40.8520 N   0  0  0  0  0  0  0  0  0  0  0  0
   43.4760   35.5980   41.4760 C   0  0  0  0  0  0  0  0  0  0  0  0
   43.6340   35.4060   42.7910 N   0  0  0  0  0  0  0  0  0  0  0  0
   45.2522   34.3505   47.5410 H   0  0  0  0  0  0  0  0  0  0  0  0
   47.0900   33.3681   48.3513 H   0  0  0  0  0  0  0  0  0  0  0  0
   46.9355   30.6076   45.0243 H   0  0  0  0  0  0  0  0  0  0  0  0
   49.1215   29.6624   48.5482 H   0  0  0  0  0  0  0  0  0  0  0  0
   46.0381   33.5583   41.5823 H   0  0  0  0  0  0  0  0  0  0  0  0
   42.7147   36.2272   40.9917 H   0  0  0  0  0  0  0  0  0  0  0  0
   43.0528   35.8300   43.5281 H   0  0  0  0  0  0  0  0  0  0  0  0
  1  2  1  0
  1  7  1  0
  3  2  2  0
  4  5  2  0
  4  3  1  0
  5  1  1  0
  6 11  2  0
  7  6  1  0
  8  7  2  0
  8  9  1  0
  9 10  2  0
 10 11  1  0
 12  4  1  0
 13 12  2  0
 14 15  2  0
 14 13  1  0
 15 16  1  0
 16 12  1  0
  2 17  1  0
  6 18  1  0
  8 19  1  0
 10 20  1  0
 13 21  1  0
 15 22  1  0
 16 23  1  0
M  ISO  7  17  14  18  14  19  14  20  14  21  14  22  14  23   9
M  END
>  <minimizedAffinity>  (1) 
-4.1912508

>  <minimizedRMSD>  (1) 
5.08303404

$$$$
