
     RDKit          3D

 23 25  0  0  0  0  0  0  0  0999 V2000
   45.0750   33.9130   41.5270 N   0  0  0  0  0  0  0  0  0  0  0  0
   44.1260   33.5340   40.6440 C   0  0  0  0  0  0  0  0  0  0  0  0
   44.7170   33.2930   39.4460 N   0  0  0  0  0  0  0  0  0  0  0  0
   46.0350   33.5260   39.6010 C   0  0  0  0  0  0  0  0  0  0  0  0
   46.2350   33.9030   40.8770 N   0  0  0  0  0  0  0  0  0  0  0  0
   47.0310   33.3960   38.5990 N   0  0  0  0  0  0  0  0  0  0  0  0
   46.8110   33.3270   37.2730 C   0  0  0  0  0  0  0  0  0  0  0  0
   48.0230   33.2040   36.6200 C   0  0  0  0  0  0  0  0  0  0  0  0
   48.9760   33.2020   37.5720 N   0  0  0  0  0  0  0  0  0  0  0  0
   48.3510   33.3190   38.7610 C   0  0  0  0  0  0  0  0  0  0  0  0
   44.5030   35.5640   43.1800 C   0  0  0  0  0  0  0  0  0  0  0  0
   45.0080   34.2800   42.9080 C   0  0  0  0  0  0  0  0  0  0  0  0
   45.3960   33.4820   43.9750 C   0  0  0  0  0  0  0  0  0  0  0  0
   45.2720   33.9720   45.2330 N   0  0  0  0  0  0  0  0  0  0  0  0
   44.7880   35.2010   45.4720 C   0  0  0  0  0  0  0  0  0  0  0  0
   44.4110   35.9790   44.4470 N   0  0  0  0  0  0  0  0  0  0  0  0
   43.0518   33.4367   40.8599 H   0  0  0  0  0  0  0  0  0  0  0  0
   45.8249   33.3628   36.7869 H   0  0  0  0  0  0  0  0  0  0  0  0
   48.1790   33.1234   35.5341 H   0  0  0  0  0  0  0  0  0  0  0  0
   48.8626   33.3471   39.7344 H   0  0  0  0  0  0  0  0  0  0  0  0
   44.1864   36.2213   42.3568 H   0  0  0  0  0  0  0  0  0  0  0  0
   45.7962   32.4719   43.8035 H   0  0  0  0  0  0  0  0  0  0  0  0
   44.7009   35.5686   46.5051 H   0  0  0  0  0  0  0  0  0  0  0  0
  1 12  1  0
  2  1  1  0
  3  4  1  0
  3  2  2  0
  4  5  2  0
  5  1  1  0
  6 10  1  0
  6  4  1  0
  7  6  1  0
  8  7  2  0
  8  9  1  0
  9 10  2  0
 11 16  2  0
 12 11  1  0
 12 13  2  0
 13 14  1  0
 14 15  2  0
 16 15  1  0
  2 17  1  0
  7 18  1  0
  8 19  1  0
 10 20  1  0
 11 21  1  0
 13 22  1  0
 15 23  1  0
M  ISO  7  17  14  18  14  19  14  20  14  21  14  22  14  23  14
M  END
>  <minimizedAffinity>  (1) 
-4.08374405

>  <minimizedRMSD>  (1) 
2.9448874

$$$$
