
     RDKit          3D

 44 47  0  0  0  0  0  0  0  0999 V2000
   50.7710   33.0870   42.0650 C   0  0  0  0  0  0  0  0  0  0  0  0
   50.8090   31.6930   42.0470 C   0  0  0  0  0  0  0  0  0  0  0  0
   49.6970   31.0220   42.5330 C   0  0  0  0  0  0  0  0  0  0  0  0
   48.6400   31.7560   42.9970 N   0  0  0  0  0  0  0  0  0  0  0  0
   48.6400   33.1000   42.9990 C   0  0  0  0  0  0  0  0  0  0  0  0
   49.6890   33.7300   42.5400 N   0  0  0  0  0  0  0  0  0  0  0  0
   47.4660   33.6980   43.5140 N   0  0  0  0  0  0  0  0  0  0  0  0
   47.0680   33.2810   44.7290 C   0  0  0  0  0  0  0  0  0  0  0  0
   45.9360   33.7990   45.3370 C   0  0  0  0  0  0  0  0  0  0  0  0
   45.2100   34.7700   44.6630 C   0  0  0  0  0  0  0  0  0  0  0  0
   44.1800   35.2670   45.1800 O   0  0  0  0  0  0  0  0  0  0  0  0
   45.6280   35.1770   43.4370 N   0  0  0  0  0  0  0  0  0  0  0  0
   46.7310   34.6490   42.8830 C   0  0  0  0  0  0  0  0  0  0  0  0
   47.1440   35.0050   41.7460 O   0  0  0  0  0  0  0  0  0  0  0  0
   45.5250   33.3140   46.6920 C   0  0  0  0  0  0  0  0  0  0  0  0
   44.8470   36.1870   42.7730 C   0  0  0  0  0  0  0  0  0  0  0  0
   43.8580   35.5540   41.8940 C   0  0  0  0  0  0  0  0  0  0  0  0
   42.5410   35.2940   42.4300 N   0  0  0  0  0  0  0  0  0  0  0  0
   41.3810   35.4730   41.6690 C   0  0  0  0  0  0  0  0  0  0  0  0
   40.8660   36.6300   41.3300 O   0  0  0  0  0  0  0  0  0  0  0  0
   39.2730   33.6270   37.8850 N   0  0  0  0  0  0  0  0  0  0  0  0
   39.9770   34.7260   37.5640 C   0  0  0  0  0  0  0  0  0  0  0  0
   40.5230   35.1480   38.6970 N   0  0  0  0  0  0  0  0  0  0  0  0
   40.2180   34.3850   39.7580 C   0  0  0  0  0  0  0  0  0  0  0  0
   40.5010   34.3690   41.1070 C   0  0  0  0  0  0  0  0  0  0  0  0
   39.9720   33.3870   41.8500 N   0  0  0  0  0  0  0  0  0  0  0  0
   39.1970   32.4670   41.2770 C   0  0  0  0  0  0  0  0  0  0  0  0
   38.8900   32.4360   39.9690 N   0  0  0  0  0  0  0  0  0  0  0  0
   39.4030   33.4060   39.1950 C   0  0  0  0  0  0  0  0  0  0  0  0
   51.6294   33.6632   41.6892 H   0  0  0  0  0  0  0  0  0  0  0  0
   51.6844   31.1485   41.6633 H   0  0  0  0  0  0  0  0  0  0  0  0
   49.6655   29.9225   42.5451 H   0  0  0  0  0  0  0  0  0  0  0  0
   47.6545   32.5112   45.2519 H   0  0  0  0  0  0  0  0  0  0  0  0
   46.0313   33.9115   47.4644 H   0  0  0  0  0  0  0  0  0  0  0  0
   44.4356   33.4177   46.8037 H   0  0  0  0  0  0  0  0  0  0  0  0
   45.8060   32.2564   46.8037 H   0  0  0  0  0  0  0  0  0  0  0  0
   44.3279   36.7998   43.5247 H   0  0  0  0  0  0  0  0  0  0  0  0
   45.5128   36.8229   42.1711 H   0  0  0  0  0  0  0  0  0  0  0  0
   44.2765   34.5889   41.5724 H   0  0  0  0  0  0  0  0  0  0  0  0
   43.6887   36.2913   41.0954 H   0  0  0  0  0  0  0  0  0  0  0  0
   42.4540   34.9667   43.4027 H   0  0  0  0  0  0  0  0  0  0  0  0
   38.7249   33.0516   37.2298 H   0  0  0  0  0  0  0  0  0  0  0  0
   40.0793   35.1813   36.5679 H   0  0  0  0  0  0  0  0  0  0  0  0
   38.7793   31.6778   41.9194 H   0  0  0  0  0  0  0  0  0  0  0  0
  1  6  2  0
  2  1  1  0
  2  3  2  0
  3  4  1  0
  4  5  2  0
  5  7  1  0
  6  5  1  0
  7  8  1  0
  8  9  2  0
  9 15  1  0
 10 11  2  0
 10  9  1  0
 12 10  1  0
 13 12  1  0
 13  7  1  0
 14 13  2  0
 16 12  1  0
 17 18  1  0
 17 16  1  0
 19 18  1  0
 20 19  2  0
 21 29  1  0
 22 21  1  0
 22 23  2  0
 23 24  1  0
 24 25  1  0
 25 19  1  0
 25 26  2  0
 27 26  1  0
 28 27  2  0
 29 24  2  0
 29 28  1  0
  1 30  1  0
  2 31  1  0
  3 32  1  0
  8 33  1  0
 15 34  1  0
 15 35  1  0
 15 36  1  0
 16 37  1  0
 16 38  1  0
 17 39  1  0
 17 40  1  0
 18 41  1  0
 21 42  1  0
 22 43  1  0
 27 44  1  0
M  ISO  8  30  14  31  14  32  14  33  14  34   8  35   8  36   8  37   8
M  ISO  6  38   8  39   8  40   8  42   9  43  14  44  14
M  END
>  <minimizedAffinity>  (1) 
-7.21449566

>  <minimizedRMSD>  (1) 
0.537550092

$$$$
