
     RDKit          3D

 40 42  0  0  0  0  0  0  0  0999 V2000
   50.7090   33.0910   42.0530 C   0  0  0  0  0  0  0  0  0  0  0  0
   50.7750   31.6990   42.0650 C   0  0  0  0  0  0  0  0  0  0  0  0
   49.6740   31.0310   42.5840 C   0  0  0  0  0  0  0  0  0  0  0  0
   48.6140   31.7610   43.0420 N   0  0  0  0  0  0  0  0  0  0  0  0
   48.5960   33.1060   43.0090 C   0  0  0  0  0  0  0  0  0  0  0  0
   49.6300   33.7370   42.5210 N   0  0  0  0  0  0  0  0  0  0  0  0
   47.4220   33.7020   43.5230 N   0  0  0  0  0  0  0  0  0  0  0  0
   47.0440   33.3020   44.7580 C   0  0  0  0  0  0  0  0  0  0  0  0
   45.9130   33.8140   45.3650 C   0  0  0  0  0  0  0  0  0  0  0  0
   45.1610   34.7600   44.6800 C   0  0  0  0  0  0  0  0  0  0  0  0
   44.1280   35.2540   45.1920 O   0  0  0  0  0  0  0  0  0  0  0  0
   45.5580   35.1510   43.4350 N   0  0  0  0  0  0  0  0  0  0  0  0
   46.6620   34.6280   42.8810 C   0  0  0  0  0  0  0  0  0  0  0  0
   47.0620   34.9620   41.7380 O   0  0  0  0  0  0  0  0  0  0  0  0
   45.5130   33.3530   46.7290 C   0  0  0  0  0  0  0  0  0  0  0  0
   44.7510   36.1250   42.7580 C   0  0  0  0  0  0  0  0  0  0  0  0
   43.7090   35.4500   41.9700 C   0  0  0  0  0  0  0  0  0  0  0  0
   42.3660   35.4120   42.5040 N   0  0  0  0  0  0  0  0  0  0  0  0
   41.2560   35.5190   41.6860 C   0  0  0  0  0  0  0  0  0  0  0  0
   40.8160   36.5890   41.0780 O   0  0  0  0  0  0  0  0  0  0  0  0
   40.3360   34.3020   41.3830 C   0  0  0  0  0  0  0  0  0  0  0  0
   40.0040   33.1250   41.8090 C   0  0  0  0  0  0  0  0  0  0  0  0
   39.0880   32.3490   41.2030 C   0  0  0  0  0  0  0  0  0  0  0  0
   38.4410   32.9260   39.9580 C   0  0  0  0  0  0  0  0  0  0  0  0
   39.3040   34.6100   39.8420 S   0  0  0  0  0  0  0  0  0  0  0  0
   51.5550   33.6695   41.6535 H   0  0  0  0  0  0  0  0  0  0  0  0
   51.6533   31.1579   41.6833 H   0  0  0  0  0  0  0  0  0  0  0  0
   49.6555   29.9319   42.6257 H   0  0  0  0  0  0  0  0  0  0  0  0
   47.6492   32.5536   45.2906 H   0  0  0  0  0  0  0  0  0  0  0  0
   46.0352   33.9549   47.4873 H   0  0  0  0  0  0  0  0  0  0  0  0
   44.4263   33.4710   46.8519 H   0  0  0  0  0  0  0  0  0  0  0  0
   45.7830   32.2938   46.8519 H   0  0  0  0  0  0  0  0  0  0  0  0
   44.2775   36.7854   43.4994 H   0  0  0  0  0  0  0  0  0  0  0  0
   45.3873   36.7182   42.0848 H   0  0  0  0  0  0  0  0  0  0  0  0
   44.0323   34.4085   41.8259 H   0  0  0  0  0  0  0  0  0  0  0  0
   43.6221   36.0566   41.0565 H   0  0  0  0  0  0  0  0  0  0  0  0
   42.2325   35.3025   43.5194 H   0  0  0  0  0  0  0  0  0  0  0  0
   40.4970   32.7399   42.7138 H   0  0  0  0  0  0  0  0  0  0  0  0
   38.8231   31.3532   41.5879 H   0  0  0  0  0  0  0  0  0  0  0  0
   37.6772   32.4859   39.3000 H   0  0  0  0  0  0  0  0  0  0  0  0
  1  2  2  0
  1  6  1  0
  2  3  1  0
  3  4  2  0
  5  4  1  0
  5  7  1  0
  6  5  2  0
  7  8  1  0
  8  9  2  0
  9 15  1  0
 10 11  2  0
 10  9  1  0
 12 10  1  0
 13 12  1  0
 13  7  1  0
 14 13  2  0
 16 12  1  0
 17 18  1  0
 17 16  1  0
 19 18  1  0
 20 19  2  0
 21 19  1  0
 21 22  2  0
 23 22  1  0
 24 23  2  0
 25 24  1  0
 25 21  1  0
  1 26  1  0
  2 27  1  0
  3 28  1  0
  8 29  1  0
 15 30  1  0
 15 31  1  0
 15 32  1  0
 16 33  1  0
 16 34  1  0
 17 35  1  0
 17 36  1  0
 18 37  1  0
 22 38  1  0
 23 39  1  0
 24 40  1  0
M  ISO  8  26  14  27  14  28  14  29  14  30   8  31   8  32   8  33   8
M  ISO  6  34   8  35   8  36   8  38  14  39  14  40  14
M  END
>  <minimizedAffinity>  (1) 
-6.54518223

>  <minimizedRMSD>  (1) 
0.451039493

$$$$
