
     RDKit          3D

 38 40  0  0  0  0  0  0  0  0999 V2000
   50.6740   33.0990   42.0390 C   0  0  0  0  0  0  0  0  0  0  0  0
   50.7420   31.7080   42.0710 C   0  0  0  0  0  0  0  0  0  0  0  0
   49.6530   31.0320   42.6000 C   0  0  0  0  0  0  0  0  0  0  0  0
   48.5880   31.7650   43.0540 N   0  0  0  0  0  0  0  0  0  0  0  0
   48.5620   33.1080   43.0070 C   0  0  0  0  0  0  0  0  0  0  0  0
   49.5900   33.7390   42.5080 N   0  0  0  0  0  0  0  0  0  0  0  0
   47.3910   33.7000   43.5210 N   0  0  0  0  0  0  0  0  0  0  0  0
   47.0200   33.3150   44.7620 C   0  0  0  0  0  0  0  0  0  0  0  0
   45.8970   33.8280   45.3720 C   0  0  0  0  0  0  0  0  0  0  0  0
   45.1320   34.7650   44.6860 C   0  0  0  0  0  0  0  0  0  0  0  0
   44.1050   35.2590   45.2000 O   0  0  0  0  0  0  0  0  0  0  0  0
   45.5150   35.1410   43.4400 N   0  0  0  0  0  0  0  0  0  0  0  0
   46.6190   34.6170   42.8790 C   0  0  0  0  0  0  0  0  0  0  0  0
   47.0080   34.9420   41.7250 O   0  0  0  0  0  0  0  0  0  0  0  0
   45.5050   33.3780   46.7430 C   0  0  0  0  0  0  0  0  0  0  0  0
   44.7050   36.1110   42.7530 C   0  0  0  0  0  0  0  0  0  0  0  0
   43.6590   35.4260   41.9810 C   0  0  0  0  0  0  0  0  0  0  0  0
   42.3200   35.4130   42.5240 N   0  0  0  0  0  0  0  0  0  0  0  0
   41.1890   35.4560   41.6990 C   0  0  0  0  0  0  0  0  0  0  0  0
   40.7680   36.5190   41.0470 O   0  0  0  0  0  0  0  0  0  0  0  0
   40.2460   34.2900   41.4200 C   0  0  0  0  0  0  0  0  0  0  0  0
   40.1160   33.0950   42.0790 N   0  0  0  0  0  0  0  0  0  0  0  0
   39.1930   32.4400   41.4800 O   0  0  0  0  0  0  0  0  0  0  0  0
   38.6870   33.0780   40.4790 C   0  0  0  0  0  0  0  0  0  0  0  0
   39.3520   34.2340   40.4520 N   0  0  0  0  0  0  0  0  0  0  0  0
   51.5139   33.6775   41.6268 H   0  0  0  0  0  0  0  0  0  0  0  0
   51.6227   31.1685   41.6925 H   0  0  0  0  0  0  0  0  0  0  0  0
   49.6443   29.9334   42.6539 H   0  0  0  0  0  0  0  0  0  0  0  0
   47.6302   32.5734   45.2983 H   0  0  0  0  0  0  0  0  0  0  0  0
   46.0335   33.9847   47.4931 H   0  0  0  0  0  0  0  0  0  0  0  0
   44.4193   33.4991   46.8722 H   0  0  0  0  0  0  0  0  0  0  0  0
   45.7738   32.3192   46.8722 H   0  0  0  0  0  0  0  0  0  0  0  0
   44.2366   36.7823   43.4878 H   0  0  0  0  0  0  0  0  0  0  0  0
   45.3383   36.6954   42.0693 H   0  0  0  0  0  0  0  0  0  0  0  0
   43.9737   34.3791   41.8591 H   0  0  0  0  0  0  0  0  0  0  0  0
   43.5751   36.0078   41.0513 H   0  0  0  0  0  0  0  0  0  0  0  0
   42.1939   35.3710   43.5454 H   0  0  0  0  0  0  0  0  0  0  0  0
   37.8877   32.7440   39.8010 H   0  0  0  0  0  0  0  0  0  0  0  0
  1  2  2  0
  1  6  1  0
  2  3  1  0
  3  4  2  0
  5  4  1  0
  5  7  1  0
  6  5  2  0
  7  8  1  0
  8  9  2  0
  9 15  1  0
 10 11  2  0
 10  9  1  0
 12 10  1  0
 13 12  1  0
 13  7  1  0
 14 13  2  0
 16 12  1  0
 17 18  1  0
 17 16  1  0
 19 18  1  0
 20 19  2  0
 21 19  1  0
 21 22  2  0
 23 22  1  0
 24 23  1  0
 25 24  2  0
 25 21  1  0
  1 26  1  0
  2 27  1  0
  3 28  1  0
  8 29  1  0
 15 30  1  0
 15 31  1  0
 15 32  1  0
 16 33  1  0
 16 34  1  0
 17 35  1  0
 17 36  1  0
 18 37  1  0
 24 38  1  0
M  ISO  8  26  14  27  14  28  14  29  14  30   8  31   8  32   8  33   8
M  ISO  4  34   8  35   8  36   8  38  14
M  END
>  <minimizedAffinity>  (1) 
-6.39719248

>  <minimizedRMSD>  (1) 
0.475186229

$$$$
