
     RDKit          3D

 40 42  0  0  0  0  0  0  0  0999 V2000
   50.6780   33.0480   41.9960 C   0  0  0  0  0  0  0  0  0  0  0  0
   50.7500   31.6600   42.1000 C   0  0  0  0  0  0  0  0  0  0  0  0
   49.6500   31.0190   42.6560 C   0  0  0  0  0  0  0  0  0  0  0  0
   48.5830   31.7740   43.0580 N   0  0  0  0  0  0  0  0  0  0  0  0
   48.5610   33.1130   42.9370 C   0  0  0  0  0  0  0  0  0  0  0  0
   49.5960   33.7170   42.4150 N   0  0  0  0  0  0  0  0  0  0  0  0
   47.3790   33.7300   43.4050 N   0  0  0  0  0  0  0  0  0  0  0  0
   46.9890   33.4060   44.6550 C   0  0  0  0  0  0  0  0  0  0  0  0
   45.8560   33.9520   45.2210 C   0  0  0  0  0  0  0  0  0  0  0  0
   45.1070   34.8570   44.4720 C   0  0  0  0  0  0  0  0  0  0  0  0
   44.0740   35.3810   44.9440 O   0  0  0  0  0  0  0  0  0  0  0  0
   45.5110   35.1730   43.2080 N   0  0  0  0  0  0  0  0  0  0  0  0
   46.6210   34.6170   42.6970 C   0  0  0  0  0  0  0  0  0  0  0  0
   47.0290   34.8810   41.5380 O   0  0  0  0  0  0  0  0  0  0  0  0
   45.4300   33.5670   46.5970 C   0  0  0  0  0  0  0  0  0  0  0  0
   44.7090   36.1010   42.4650 C   0  0  0  0  0  0  0  0  0  0  0  0
   43.6390   35.3780   41.7590 C   0  0  0  0  0  0  0  0  0  0  0  0
   42.3210   35.3810   42.3470 N   0  0  0  0  0  0  0  0  0  0  0  0
   41.1670   35.5360   41.5730 C   0  0  0  0  0  0  0  0  0  0  0  0
   40.7640   36.6420   41.0050 O   0  0  0  0  0  0  0  0  0  0  0  0
   38.9860   32.6290   41.4890 N   0  0  0  0  0  0  0  0  0  0  0  0
   39.9160   33.4010   42.0310 N   0  0  0  0  0  0  0  0  0  0  0  0
   40.1550   34.4650   41.2490 C   0  0  0  0  0  0  0  0  0  0  0  0
   39.2880   34.2780   40.1780 C   0  0  0  0  0  0  0  0  0  0  0  0
   38.5560   33.1270   40.3300 C   0  0  0  0  0  0  0  0  0  0  0  0
   51.5233   33.6029   41.5629 H   0  0  0  0  0  0  0  0  0  0  0  0
   51.6334   31.1002   41.7590 H   0  0  0  0  0  0  0  0  0  0  0  0
   49.6375   29.9251   42.7707 H   0  0  0  0  0  0  0  0  0  0  0  0
   47.5884   32.6899   45.2363 H   0  0  0  0  0  0  0  0  0  0  0  0
   46.0353   34.1141   47.3348 H   0  0  0  0  0  0  0  0  0  0  0  0
   44.3680   33.8178   46.7357 H   0  0  0  0  0  0  0  0  0  0  0  0
   45.5724   32.4851   46.7357 H   0  0  0  0  0  0  0  0  0  0  0  0
   44.2626   36.8324   43.1548 H   0  0  0  0  0  0  0  0  0  0  0  0
   45.3412   36.6229   41.7315 H   0  0  0  0  0  0  0  0  0  0  0  0
   43.9559   34.3284   41.6704 H   0  0  0  0  0  0  0  0  0  0  0  0
   43.5191   35.9205   40.8096 H   0  0  0  0  0  0  0  0  0  0  0  0
   42.2278   35.2656   43.3663 H   0  0  0  0  0  0  0  0  0  0  0  0
   38.6393   31.7551   41.9097 H   0  0  0  0  0  0  0  0  0  0  0  0
   39.2004   34.9626   39.3215 H   0  0  0  0  0  0  0  0  0  0  0  0
   37.7935   32.7128   39.6540 H   0  0  0  0  0  0  0  0  0  0  0  0
  1  2  2  0
  1  6  1  0
  2  3  1  0
  3  4  2  0
  5  4  1  0
  5  7  1  0
  6  5  2  0
  7  8  1  0
  8  9  2  0
  9 15  1  0
 10 11  2  0
 10  9  1  0
 12 10  1  0
 13 12  1  0
 13  7  1  0
 14 13  2  0
 16 12  1  0
 17 18  1  0
 17 16  1  0
 19 18  1  0
 20 19  2  0
 21 22  1  0
 23 19  1  0
 23 22  2  0
 24 25  2  0
 24 23  1  0
 25 21  1  0
  1 26  1  0
  2 27  1  0
  3 28  1  0
  8 29  1  0
 15 30  1  0
 15 31  1  0
 15 32  1  0
 16 33  1  0
 16 34  1  0
 17 35  1  0
 17 36  1  0
 18 37  1  0
 21 38  1  0
 24 39  1  0
 25 40  1  0
M  ISO  8  26  14  27  14  28  14  29  14  30   8  31   8  32   8  33   8
M  ISO  6  34   8  35   8  36   8  38   9  39  14  40  14
M  END
>  <minimizedAffinity>  (1) 
-6.67183018

>  <minimizedRMSD>  (1) 
0.615195811

$$$$
