
     RDKit          3D

 34 35  0  0  0  0  0  0  0  0999 V2000
   50.8160   32.9820   42.0140 C   0  0  0  0  0  0  0  0  0  0  0  0
   50.8120   31.5900   41.9230 C   0  0  0  0  0  0  0  0  0  0  0  0
   49.6860   30.9260   42.3870 C   0  0  0  0  0  0  0  0  0  0  0  0
   48.6530   31.6610   42.9010 N   0  0  0  0  0  0  0  0  0  0  0  0
   48.6910   33.0040   42.9730 C   0  0  0  0  0  0  0  0  0  0  0  0
   49.7520   33.6280   42.5360 N   0  0  0  0  0  0  0  0  0  0  0  0
   47.5460   33.6070   43.5310 N   0  0  0  0  0  0  0  0  0  0  0  0
   47.1480   33.1330   44.7330 C   0  0  0  0  0  0  0  0  0  0  0  0
   46.0410   33.6530   45.3810 C   0  0  0  0  0  0  0  0  0  0  0  0
   45.3350   34.6790   44.7730 C   0  0  0  0  0  0  0  0  0  0  0  0
   44.3310   35.1720   45.3310 O   0  0  0  0  0  0  0  0  0  0  0  0
   45.7510   35.1410   43.5660 N   0  0  0  0  0  0  0  0  0  0  0  0
   46.8300   34.6180   42.9580 C   0  0  0  0  0  0  0  0  0  0  0  0
   47.2400   35.0210   41.8460 O   0  0  0  0  0  0  0  0  0  0  0  0
   45.6390   33.1000   46.7140 C   0  0  0  0  0  0  0  0  0  0  0  0
   44.9870   36.2040   42.9670 C   0  0  0  0  0  0  0  0  0  0  0  0
   43.9570   35.6300   42.0740 C   0  0  0  0  0  0  0  0  0  0  0  0
   42.6370   35.4550   42.6220 N   0  0  0  0  0  0  0  0  0  0  0  0
   41.5260   35.3310   41.7650 C   0  0  0  0  0  0  0  0  0  0  0  0
   40.9550   36.2900   41.1090 O   0  0  0  0  0  0  0  0  0  0  0  0
   40.7500   34.1920   41.3980 O   0  0  0  0  0  0  0  0  0  0  0  0
   51.6867   33.5535   41.6602 H   0  0  0  0  0  0  0  0  0  0  0  0
   51.6668   31.0414   41.5006 H   0  0  0  0  0  0  0  0  0  0  0  0
   49.6248   29.8286   42.3425 H   0  0  0  0  0  0  0  0  0  0  0  0
   47.7154   32.3176   45.2055 H   0  0  0  0  0  0  0  0  0  0  0  0
   46.0832   33.7111   47.5135 H   0  0  0  0  0  0  0  0  0  0  0  0
   44.5428   33.1195   46.8036 H   0  0  0  0  0  0  0  0  0  0  0  0
   45.9958   32.0633   46.8036 H   0  0  0  0  0  0  0  0  0  0  0  0
   44.4995   36.7948   43.7565 H   0  0  0  0  0  0  0  0  0  0  0  0
   45.6570   36.8526   42.3836 H   0  0  0  0  0  0  0  0  0  0  0  0
   44.3142   34.6419   41.7484 H   0  0  0  0  0  0  0  0  0  0  0  0
   43.8349   36.3692   41.2686 H   0  0  0  0  0  0  0  0  0  0  0  0
   42.5049   35.4204   43.6429 H   0  0  0  0  0  0  0  0  0  0  0  0
   39.9902   34.2918   40.7713 H   0  0  0  0  0  0  0  0  0  0  0  0
  1  6  2  0
  2  1  1  0
  2  3  2  0
  3  4  1  0
  4  5  2  0
  5  7  1  0
  6  5  1  0
  7  8  1  0
  8  9  2  0
  9 15  1  0
 10 11  2  0
 10  9  1  0
 12 10  1  0
 13  7  1  0
 13 12  1  0
 14 13  2  0
 16 12  1  0
 17 18  1  0
 17 16  1  0
 19 18  1  0
 20 19  2  0
 21 19  1  0
  1 22  1  0
  2 23  1  0
  3 24  1  0
  8 25  1  0
 15 26  1  0
 15 27  1  0
 15 28  1  0
 16 29  1  0
 16 30  1  0
 17 31  1  0
 17 32  1  0
 18 33  1  0
 21 34  1  0
M  ISO  8  22  14  23  14  24  14  25  14  26   8  27   8  28   8  29   8
M  ISO  4  30   8  31   8  32   8  34   3
M  END
>  <minimizedAffinity>  (1) 
-5.75647736

>  <minimizedRMSD>  (1) 
0.0449791588

$$$$
