
     RDKit          3D

 35 36  0  0  0  0  0  0  0  0999 V2000
   50.8100   32.9890   42.0130 C   0  0  0  0  0  0  0  0  0  0  0  0
   50.8040   31.5980   41.9260 C   0  0  0  0  0  0  0  0  0  0  0  0
   49.6790   30.9330   42.3930 C   0  0  0  0  0  0  0  0  0  0  0  0
   48.6500   31.6710   42.9090 N   0  0  0  0  0  0  0  0  0  0  0  0
   48.6890   33.0140   42.9780 C   0  0  0  0  0  0  0  0  0  0  0  0
   49.7510   33.6370   42.5360 N   0  0  0  0  0  0  0  0  0  0  0  0
   47.5400   33.6150   43.5390 N   0  0  0  0  0  0  0  0  0  0  0  0
   47.1440   33.1450   44.7330 C   0  0  0  0  0  0  0  0  0  0  0  0
   46.0320   33.6650   45.3800 C   0  0  0  0  0  0  0  0  0  0  0  0
   45.3270   34.6900   44.7670 C   0  0  0  0  0  0  0  0  0  0  0  0
   44.3180   35.1840   45.3230 O   0  0  0  0  0  0  0  0  0  0  0  0
   45.7450   35.1490   43.5600 N   0  0  0  0  0  0  0  0  0  0  0  0
   46.8260   34.6270   42.9570 C   0  0  0  0  0  0  0  0  0  0  0  0
   47.2370   35.0300   41.8430 O   0  0  0  0  0  0  0  0  0  0  0  0
   45.6240   33.1150   46.7150 C   0  0  0  0  0  0  0  0  0  0  0  0
   44.9830   36.2110   42.9570 C   0  0  0  0  0  0  0  0  0  0  0  0
   43.9650   35.6360   42.0540 C   0  0  0  0  0  0  0  0  0  0  0  0
   42.6470   35.4290   42.5960 N   0  0  0  0  0  0  0  0  0  0  0  0
   41.5420   35.3350   41.7370 C   0  0  0  0  0  0  0  0  0  0  0  0
   40.9550   36.3010   41.1100 O   0  0  0  0  0  0  0  0  0  0  0  0
   40.7340   34.1980   41.2980 N   0  0  0  0  0  0  0  0  0  0  0  0
   51.6802   33.5583   41.6543 H   0  0  0  0  0  0  0  0  0  0  0  0
   51.6581   31.0484   41.5035 H   0  0  0  0  0  0  0  0  0  0  0  0
   49.6164   29.8357   42.3490 H   0  0  0  0  0  0  0  0  0  0  0  0
   47.7124   32.3316   45.2076 H   0  0  0  0  0  0  0  0  0  0  0  0
   46.0741   33.7217   47.5146 H   0  0  0  0  0  0  0  0  0  0  0  0
   44.5281   33.1451   46.8046 H   0  0  0  0  0  0  0  0  0  0  0  0
   45.9707   32.0749   46.8046 H   0  0  0  0  0  0  0  0  0  0  0  0
   44.4859   36.7978   43.7435 H   0  0  0  0  0  0  0  0  0  0  0  0
   45.6560   36.8641   42.3820 H   0  0  0  0  0  0  0  0  0  0  0  0
   44.3394   34.6598   41.7120 H   0  0  0  0  0  0  0  0  0  0  0  0
   43.8313   36.3874   41.2619 H   0  0  0  0  0  0  0  0  0  0  0  0
   42.5156   35.3500   43.6145 H   0  0  0  0  0  0  0  0  0  0  0  0
   39.9478   34.3449   40.6490 H   0  0  0  0  0  0  0  0  0  0  0  0
   40.9511   33.2502   41.6378 H   0  0  0  0  0  0  0  0  0  0  0  0
  1  6  2  0
  2  1  1  0
  2  3  2  0
  3  4  1  0
  4  5  2  0
  5  7  1  0
  6  5  1  0
  7  8  1  0
  8  9  2  0
  9 15  1  0
 10 11  2  0
 10  9  1  0
 12 10  1  0
 13  7  1  0
 13 12  1  0
 14 13  2  0
 16 12  1  0
 17 18  1  0
 17 16  1  0
 19 18  1  0
 20 19  2  0
 21 19  1  0
  1 22  1  0
  2 23  1  0
  3 24  1  0
  8 25  1  0
 15 26  1  0
 15 27  1  0
 15 28  1  0
 16 29  1  0
 16 30  1  0
 17 31  1  0
 17 32  1  0
 18 33  1  0
 21 34  1  0
 21 35  1  0
M  ISO  8  22  14  23  14  24  14  25  14  26   8  27   8  28   8  29   8
M  ISO  3  30   8  31   8  32   8
M  END
>  <minimizedAffinity>  (1) 
-5.75226021

>  <minimizedRMSD>  (1) 
0.0419755429

$$$$
