
     RDKit          3D

 29 31  0  0  1  0  0  0  0  0999 V2000
   44.5480   35.2780   42.0580 C   0  0  1  0  0  0  0  0  0  0  0  0
   44.8120   34.4210   40.9170 C   0  0  0  0  0  0  0  0  0  0  0  0
   43.3830   34.6460   41.3280 C   0  0  2  0  0  0  0  0  0  0  0  0
   44.5970   35.2640   45.7340 C   0  0  0  0  0  0  0  0  0  0  0  0
   45.3200   34.0770   46.0580 C   0  0  0  0  0  0  0  0  0  0  0  0
   45.7880   33.2930   44.9850 C   0  0  0  0  0  0  0  0  0  0  0  0
   45.5190   33.7220   43.7160 N   0  0  0  0  0  0  0  0  0  0  0  0
   44.8270   34.8590   43.4570 C   0  0  0  0  0  0  0  0  0  0  0  0
   44.3630   35.6340   44.4680 N   0  0  0  0  0  0  0  0  0  0  0  0
   42.4740   35.4410   40.5850 N   0  0  0  0  0  0  0  0  0  0  0  0
   41.1910   35.4430   41.2130 C   0  0  0  0  0  0  0  0  0  0  0  0
   40.1520   35.3380   40.1230 C   0  0  0  0  0  0  0  0  0  0  0  0
   40.9200   35.6650   38.8560 C   0  0  0  0  0  0  0  0  0  0  0  0
   42.3220   35.1720   39.2050 C   0  0  0  0  0  0  0  0  0  0  0  0
   44.8649   36.2989   42.3174 H   0  0  0  0  0  0  0  0  0  0  0  0
   45.2752   33.4352   41.0707 H   0  0  0  0  0  0  0  0  0  0  0  0
   45.3695   34.5434   39.9767 H   0  0  0  0  0  0  0  0  0  0  0  0
   42.5331   33.9932   41.5760 H   0  0  0  0  0  0  0  0  0  0  0  0
   44.2193   35.8962   46.5511 H   0  0  0  0  0  0  0  0  0  0  0  0
   45.5043   33.7861   47.1027 H   0  0  0  0  0  0  0  0  0  0  0  0
   46.3518   32.3654   45.1632 H   0  0  0  0  0  0  0  0  0  0  0  0
   41.1061   34.5854   41.8966 H   0  0  0  0  0  0  0  0  0  0  0  0
   41.0473   36.3636   41.7977 H   0  0  0  0  0  0  0  0  0  0  0  0
   39.7346   34.3213   40.0765 H   0  0  0  0  0  0  0  0  0  0  0  0
   39.2960   36.0093   40.2860 H   0  0  0  0  0  0  0  0  0  0  0  0
   40.9147   36.7459   38.6521 H   0  0  0  0  0  0  0  0  0  0  0  0
   40.4993   35.2063   37.9490 H   0  0  0  0  0  0  0  0  0  0  0  0
   42.4118   34.0932   39.0096 H   0  0  0  0  0  0  0  0  0  0  0  0
   43.0957   35.6681   38.6006 H   0  0  0  0  0  0  0  0  0  0  0  0
  1  8  1  0
  2  3  1  0
  2  1  1  0
  3  1  1  0
  4  5  2  0
  6  5  1  0
  7  6  2  0
  8  7  1  0
  8  9  2  0
  9  4  1  0
 10 11  1  0
 10  3  1  0
 12 11  1  0
 13 14  1  0
 13 12  1  0
 14 10  1  0
  1 15  1  6
  2 16  1  0
  2 17  1  0
  3 18  1  1
  4 19  1  0
  5 20  1  0
  6 21  1  0
 11 22  1  0
 11 23  1  0
 12 24  1  0
 12 25  1  0
 13 26  1  0
 13 27  1  0
 14 28  1  0
 14 29  1  0
M  ISO  8  15  13  16  13  17  13  18  13  19  14  20  14  21  14  22  13
M  ISO  7  23  13  24  13  25  13  26  13  27  13  28  13  29  13
M  END
>  <minimizedAffinity>  (1) 
-4.54043531

>  <minimizedRMSD>  (1) 
6.88672638

$$$$
