
     RDKit          3D

 18 19  0  0  1  0  0  0  0  0999 V2000
   45.9950   33.8520   44.7950 C   0  0  0  0  0  0  0  0  0  0  0  0
   44.9420   34.8010   44.6360 C   0  0  0  0  0  0  0  0  0  0  0  0
   45.0540   35.6780   43.5610 C   0  0  0  0  0  0  0  0  0  0  0  0
   46.1480   35.5780   42.7380 N   0  0  0  0  0  0  0  0  0  0  0  0
   47.1210   34.6570   42.9350 C   0  0  0  0  0  0  0  0  0  0  0  0
   47.0440   33.8000   43.9570 N   0  0  0  0  0  0  0  0  0  0  0  0
   48.2820   34.5860   42.0220 C   0  0  1  0  0  0  0  0  0  0  0  0
   48.9760   35.7570   41.5160 C   0  0  0  0  0  0  0  0  0  0  0  0
   49.6700   34.8750   42.5570 C   0  0  2  0  0  0  0  0  0  0  0  0
   50.6470   34.0100   42.0770 O   0  0  0  0  0  0  0  0  0  0  0  0
   45.9466   33.1391   45.6314 H   0  0  0  0  0  0  0  0  0  0  0  0
   44.0866   34.8378   45.3266 H   0  0  0  0  0  0  0  0  0  0  0  0
   44.2802   36.4372   43.3744 H   0  0  0  0  0  0  0  0  0  0  0  0
   47.7897   33.7407   41.5189 H   0  0  0  0  0  0  0  0  0  0  0  0
   49.3420   35.7705   40.4788 H   0  0  0  0  0  0  0  0  0  0  0  0
   48.7351   36.8282   41.4491 H   0  0  0  0  0  0  0  0  0  0  0  0
   50.1433   35.0430   43.5356 H   0  0  0  0  0  0  0  0  0  0  0  0
   51.1201   33.5911   42.8391 H   0  0  0  0  0  0  0  0  0  0  0  0
  2  1  2  0
  3  2  1  0
  4  5  1  0
  4  3  2  0
  5  6  2  0
  6  1  1  0
  7  9  1  0
  7  5  1  0
  8  7  1  0
  8  9  1  0
 10  9  1  0
  1 11  1  0
  2 12  1  0
  3 13  1  0
  7 14  1  6
  8 15  1  0
  8 16  1  0
  9 17  1  1
 10 18  1  0
M  ISO  8  11  14  12  14  13  14  14  13  15  13  16  13  17  13  18   3
M  END
>  <minimizedAffinity>  (1) 
-4.08823967

>  <minimizedRMSD>  (1) 
0.0965147316

$$$$
