
     RDKit          3D

 20 21  0  0  1  0  0  0  0  0999 V2000
   45.4580   34.2460   45.0110 C   0  0  0  0  0  0  0  0  0  0  0  0
   44.5990   35.3500   44.7420 C   0  0  0  0  0  0  0  0  0  0  0  0
   44.8920   36.1100   43.6030 C   0  0  0  0  0  0  0  0  0  0  0  0
   45.9690   35.7590   42.8270 N   0  0  0  0  0  0  0  0  0  0  0  0
   46.7500   34.6970   43.1340 C   0  0  0  0  0  0  0  0  0  0  0  0
   46.5140   33.9390   44.2080 N   0  0  0  0  0  0  0  0  0  0  0  0
   47.8960   34.3610   42.2660 C   0  0  1  0  0  0  0  0  0  0  0  0
   48.5970   35.3150   41.4280 C   0  0  0  0  0  0  0  0  0  0  0  0
   49.2990   34.7510   42.6670 C   0  0  2  0  0  0  0  0  0  0  0  0
   50.4180   33.8000   42.2990 C   0  0  0  0  0  0  0  0  0  0  0  0
   45.2621   33.6218   45.8953 H   0  0  0  0  0  0  0  0  0  0  0  0
   43.7486   35.5932   45.3959 H   0  0  0  0  0  0  0  0  0  0  0  0
   44.2686   36.9754   43.3339 H   0  0  0  0  0  0  0  0  0  0  0  0
   47.3728   33.4203   42.0392 H   0  0  0  0  0  0  0  0  0  0  0  0
   48.9348   35.0179   40.4242 H   0  0  0  0  0  0  0  0  0  0  0  0
   48.3767   36.3271   41.0577 H   0  0  0  0  0  0  0  0  0  0  0  0
   49.7569   35.1171   43.5978 H   0  0  0  0  0  0  0  0  0  0  0  0
   50.8811   33.4064   43.2159 H   0  0  0  0  0  0  0  0  0  0  0  0
   50.0113   32.9669   41.7069 H   0  0  0  0  0  0  0  0  0  0  0  0
   51.1746   34.3357   41.7069 H   0  0  0  0  0  0  0  0  0  0  0  0
  2  1  2  0
  3  2  1  0
  4  5  1  0
  4  3  2  0
  5  6  2  0
  6  1  1  0
  7  9  1  0
  7  5  1  0
  8  7  1  0
  8  9  1  0
 10  9  1  0
  1 11  1  0
  2 12  1  0
  3 13  1  0
  7 14  1  6
  8 15  1  0
  8 16  1  0
  9 17  1  1
 10 18  1  0
 10 19  1  0
 10 20  1  0
M  ISO  8  11  14  12  14  13  14  14  13  15  13  16  13  17  13  18   8
M  ISO  2  19   8  20   8
M  END
>  <minimizedAffinity>  (1) 
-4.12311268

>  <minimizedRMSD>  (1) 
0.618172705

$$$$
