
     RDKit          3D

 33 37  0  0  1  0  0  0  0  0999 V2000
   47.6070   34.6080   42.1470 C   0  0  1  0  0  0  0  0  0  0  0  0
   48.5920   35.5820   41.7540 C   0  0  0  0  0  0  0  0  0  0  0  0
   49.0220   34.3210   42.5390 C   0  0  2  0  0  0  0  0  0  0  0  0
   49.7370   33.3290   41.6910 C   0  0  0  0  0  0  0  0  0  0  0  0
   50.9470   32.8090   41.9980 N   0  0  0  0  0  0  0  0  0  0  0  0
   51.3430   31.9810   41.1000 O   0  0  0  0  0  0  0  0  0  0  0  0
   50.4200   31.9300   40.1910 C   0  0  0  0  0  0  0  0  0  0  0  0
   49.3790   32.7620   40.5120 N   0  0  0  0  0  0  0  0  0  0  0  0
   50.2660   31.2090   38.9610 N   0  0  0  0  0  0  0  0  0  0  0  0
   50.6550   29.9240   38.7430 C   0  0  0  0  0  0  0  0  0  0  0  0
   50.3310   29.6240   37.4620 N   0  0  0  0  0  0  0  0  0  0  0  0
   49.7490   30.6920   36.8760 C   0  0  0  0  0  0  0  0  0  0  0  0
   49.2360   30.9260   35.6010 C   0  0  0  0  0  0  0  0  0  0  0  0
   48.6980   32.1440   35.3090 N   0  0  0  0  0  0  0  0  0  0  0  0
   48.6650   33.1230   36.2580 C   0  0  0  0  0  0  0  0  0  0  0  0
   49.1620   32.8950   37.4890 N   0  0  0  0  0  0  0  0  0  0  0  0
   49.7070   31.7090   37.8360 C   0  0  0  0  0  0  0  0  0  0  0  0
   45.5470   34.1380   45.1390 C   0  0  0  0  0  0  0  0  0  0  0  0
   44.6180   35.2090   45.0870 C   0  0  0  0  0  0  0  0  0  0  0  0
   44.7270   36.0820   44.0030 C   0  0  0  0  0  0  0  0  0  0  0  0
   45.7110   35.8550   43.0660 N   0  0  0  0  0  0  0  0  0  0  0  0
   46.5590   34.8210   43.1760 C   0  0  0  0  0  0  0  0  0  0  0  0
   46.5010   33.9640   44.1820 N   0  0  0  0  0  0  0  0  0  0  0  0
   46.8308   34.0802   41.5735 H   0  0  0  0  0  0  0  0  0  0  0  0
   48.8662   35.6902   40.6942 H   0  0  0  0  0  0  0  0  0  0  0  0
   48.7139   36.6659   41.8962 H   0  0  0  0  0  0  0  0  0  0  0  0
   49.5430   34.0822   43.4779 H   0  0  0  0  0  0  0  0  0  0  0  0
   51.1405   29.2552   39.4689 H   0  0  0  0  0  0  0  0  0  0  0  0
   49.2651   30.1348   34.8374 H   0  0  0  0  0  0  0  0  0  0  0  0
   48.2301   34.1042   36.0168 H   0  0  0  0  0  0  0  0  0  0  0  0
   45.4955   33.4270   45.9768 H   0  0  0  0  0  0  0  0  0  0  0  0
   43.8498   35.3448   45.8625 H   0  0  0  0  0  0  0  0  0  0  0  0
   44.0402   36.9349   43.8991 H   0  0  0  0  0  0  0  0  0  0  0  0
  1  3  1  0
  1 22  1  0
  2  1  1  0
  2  3  1  0
  4  5  2  0
  4  3  1  0
  6  5  1  0
  7  8  2  0
  7  6  1  0
  8  4  1  0
  9  7  1  0
 10  9  1  0
 11 10  2  0
 12 11  1  0
 12 17  2  0
 13 12  1  0
 14 13  2  0
 14 15  1  0
 15 16  2  0
 16 17  1  0
 17  9  1  0
 19 18  2  0
 20 19  1  0
 21 22  1  0
 21 20  2  0
 22 23  2  0
 23 18  1  0
  1 24  1  6
  2 25  1  0
  2 26  1  0
  3 27  1  1
 10 28  1  0
 13 29  1  0
 15 30  1  0
 18 31  1  0
 19 32  1  0
 20 33  1  0
M  ISO  8  24  13  25  13  26  13  27  13  28  14  29  14  30  14  31  14
M  ISO  2  32  14  33  14
M  END
>  <minimizedAffinity>  (1) 
-5.78144741

>  <minimizedRMSD>  (1) 
0.777196467

$$$$
