
     RDKit          3D

 19 20  0  0  0  0  0  0  0  0999 V2000
   44.0270   34.4630   41.8850 N   0  0  0  0  0  0  0  0  0  0  0  0
   43.2850   35.5030   41.4390 C   0  0  0  0  0  0  0  0  0  0  0  0
   42.9620   35.3180   40.1430 N   0  0  0  0  0  0  0  0  0  0  0  0
   43.5190   34.1390   39.7840 C   0  0  0  0  0  0  0  0  0  0  0  0
   44.1600   33.6350   40.8520 N   0  0  0  0  0  0  0  0  0  0  0  0
   44.5160   35.2180   44.1250 C   0  0  0  0  0  0  0  0  0  0  0  0
   44.6000   34.1960   43.1540 C   0  0  0  0  0  0  0  0  0  0  0  0
   45.2320   33.0140   43.5150 C   0  0  0  0  0  0  0  0  0  0  0  0
   45.7400   32.8800   44.7630 N   0  0  0  0  0  0  0  0  0  0  0  0
   45.6430   33.8840   45.6750 C   0  0  0  0  0  0  0  0  0  0  0  0
   45.0360   35.0260   45.3380 N   0  0  0  0  0  0  0  0  0  0  0  0
   43.4000   33.5730   38.4460 C   0  0  0  0  0  0  0  0  0  0  0  0
   42.5270   32.6890   38.2510 O   0  0  0  0  0  0  0  0  0  0  0  0
   44.2230   33.9910   37.4080 O   0  0  0  0  0  0  0  0  0  0  0  0
   42.9887   36.3720   42.0449 H   0  0  0  0  0  0  0  0  0  0  0  0
   44.0227   36.1705   43.8813 H   0  0  0  0  0  0  0  0  0  0  0  0
   45.3197   32.1905   42.7910 H   0  0  0  0  0  0  0  0  0  0  0  0
   46.0617   33.7570   46.6842 H   0  0  0  0  0  0  0  0  0  0  0  0
   44.1245   33.5927   36.5071 H   0  0  0  0  0  0  0  0  0  0  0  0
  1  7  1  0
  2  1  1  0
  3  2  2  0
  4  3  1  0
  4  5  2  0
  5  1  1  0
  6 11  2  0
  7  8  2  0
  7  6  1  0
  8  9  1  0
  9 10  2  0
 11 10  1  0
 12  4  1  0
 13 12  2  0
 14 12  1  0
  2 15  1  0
  6 16  1  0
  8 17  1  0
 10 18  1  0
 14 19  1  0
M  ISO  5  15  14  16  14  17  14  18  14  19   3
M  END
>  <minimizedAffinity>  (1) 
-3.79212761

>  <minimizedRMSD>  (1) 
0.187250078

$$$$
