
     RDKit          3D

 18 19  0  0  1  0  0  0  0  0999 V2000
   45.4870   34.2320   45.0110 C   0  0  0  0  0  0  0  0  0  0  0  0
   44.6210   35.3440   44.7950 C   0  0  0  0  0  0  0  0  0  0  0  0
   44.8530   36.1240   43.6700 C   0  0  0  0  0  0  0  0  0  0  0  0
   45.8880   35.7830   42.8460 N   0  0  0  0  0  0  0  0  0  0  0  0
   46.6940   34.7110   43.0870 C   0  0  0  0  0  0  0  0  0  0  0  0
   46.4920   33.9330   44.1740 N   0  0  0  0  0  0  0  0  0  0  0  0
   47.8230   34.3640   42.1880 C   0  0  1  0  0  0  0  0  0  0  0  0
   48.6100   35.3520   41.4810 C   0  0  0  0  0  0  0  0  0  0  0  0
   49.2400   34.6170   42.6720 C   0  0  2  0  0  0  0  0  0  0  0  0
   50.5380   33.4160   42.2720 S   0  0  0  0  0  0  0  0  0  0  0  0
   45.3255   33.5972   45.8947 H   0  0  0  0  0  0  0  0  0  0  0  0
   43.8018   35.5747   45.4919 H   0  0  0  0  0  0  0  0  0  0  0  0
   44.2191   36.9950   43.4477 H   0  0  0  0  0  0  0  0  0  0  0  0
   47.2478   33.4942   41.8378 H   0  0  0  0  0  0  0  0  0  0  0  0
   48.9624   35.1421   40.4604 H   0  0  0  0  0  0  0  0  0  0  0  0
   48.4636   36.4099   41.2177 H   0  0  0  0  0  0  0  0  0  0  0  0
   49.7006   34.8739   43.6373 H   0  0  0  0  0  0  0  0  0  0  0  0
   51.0741   32.9200   43.4311 H   0  0  0  0  0  0  0  0  0  0  0  0
  2  1  2  0
  3  2  1  0
  4  5  1  0
  4  3  2  0
  5  6  2  0
  6  1  1  0
  7  9  1  0
  7  5  1  0
  8  7  1  0
  8  9  1  0
 10  9  1  0
  1 11  1  0
  2 12  1  0
  3 13  1  0
  7 14  1  6
  8 15  1  0
  8 16  1  0
  9 17  1  1
 10 18  1  0
M  ISO  8  11  14  12  14  13  14  14  13  15  13  16  13  17  13  18  11
M  END
>  <minimizedAffinity>  (1) 
-3.90211201

>  <minimizedRMSD>  (1) 
0.659160972

$$$$
