
     RDKit          3D

 38 42  0  0  1  0  0  0  0  0999 V2000
   47.6090   34.5090   42.1710 C   0  0  1  0  0  0  0  0  0  0  0  0
   48.5100   35.4970   41.6340 C   0  0  0  0  0  0  0  0  0  0  0  0
   49.0470   34.4030   42.5800 C   0  0  2  0  0  0  0  0  0  0  0  0
   45.5040   34.1840   45.1510 C   0  0  0  0  0  0  0  0  0  0  0  0
   44.5980   35.2830   45.0450 C   0  0  0  0  0  0  0  0  0  0  0  0
   44.7400   36.1160   43.9320 C   0  0  0  0  0  0  0  0  0  0  0  0
   45.7260   35.8310   43.0250 N   0  0  0  0  0  0  0  0  0  0  0  0
   46.5560   34.7750   43.1780 C   0  0  0  0  0  0  0  0  0  0  0  0
   46.4630   33.9550   44.2130 N   0  0  0  0  0  0  0  0  0  0  0  0
   49.8560   33.3720   41.8930 C   0  0  0  0  0  0  0  0  0  0  0  0
   51.0010   32.8480   42.3470 N   0  0  0  0  0  0  0  0  0  0  0  0
   51.4820   31.9710   41.5470 O   0  0  0  0  0  0  0  0  0  0  0  0
   50.6860   31.8790   40.5410 C   0  0  0  0  0  0  0  0  0  0  0  0
   49.6740   32.7390   40.7400 N   0  0  0  0  0  0  0  0  0  0  0  0
   50.6180   31.1020   39.2950 C   0  0  0  0  0  0  0  0  0  0  0  0
   49.4800   30.5030   38.7660 C   0  0  0  0  0  0  0  0  0  0  0  0
   49.4420   29.7930   37.6170 C   0  0  0  0  0  0  0  0  0  0  0  0
   50.5680   29.6170   36.8790 C   0  0  0  0  0  0  0  0  0  0  0  0
   51.7400   30.1770   37.3290 C   0  0  0  0  0  0  0  0  0  0  0  0
   52.8600   29.9780   36.5570 C   0  0  0  0  0  0  0  0  0  0  0  0
   54.0730   30.5090   36.9410 C   0  0  0  0  0  0  0  0  0  0  0  0
   54.1080   31.2320   38.1130 C   0  0  0  0  0  0  0  0  0  0  0  0
   52.9540   31.3980   38.8470 C   0  0  0  0  0  0  0  0  0  0  0  0
   51.7280   30.8930   38.5070 C   0  0  0  0  0  0  0  0  0  0  0  0
   46.8785   33.8448   41.6860 H   0  0  0  0  0  0  0  0  0  0  0  0
   48.7734   35.4778   40.5662 H   0  0  0  0  0  0  0  0  0  0  0  0
   48.5394   36.5965   41.6222 H   0  0  0  0  0  0  0  0  0  0  0  0
   49.5862   34.3441   43.5370 H   0  0  0  0  0  0  0  0  0  0  0  0
   45.4246   33.5052   46.0130 H   0  0  0  0  0  0  0  0  0  0  0  0
   43.8238   35.4654   45.8048 H   0  0  0  0  0  0  0  0  0  0  0  0
   44.0753   36.9805   43.7877 H   0  0  0  0  0  0  0  0  0  0  0  0
   48.5395   30.6157   39.3253 H   0  0  0  0  0  0  0  0  0  0  0  0
   48.4922   29.3545   37.2771 H   0  0  0  0  0  0  0  0  0  0  0  0
   50.5430   29.0398   35.9429 H   0  0  0  0  0  0  0  0  0  0  0  0
   52.7880   29.3924   35.6286 H   0  0  0  0  0  0  0  0  0  0  0  0
   54.9786   30.3609   36.3344 H   0  0  0  0  0  0  0  0  0  0  0  0
   55.0529   31.6747   38.4612 H   0  0  0  0  0  0  0  0  0  0  0  0
   53.0231   31.9809   39.7773 H   0  0  0  0  0  0  0  0  0  0  0  0
  1  3  1  0
  1  8  1  0
  2  1  1  0
  2  3  1  0
  5  4  2  0
  6  5  1  0
  7  8  1  0
  7  6  2  0
  8  9  2  0
  9  4  1  0
 10 11  2  0
 10  3  1  0
 12 11  1  0
 13 14  2  0
 13 12  1  0
 14 10  1  0
 15 13  1  0
 16 15  2  0
 17 16  1  0
 18 19  1  0
 18 17  2  0
 19 24  2  0
 20 21  2  0
 20 19  1  0
 21 22  1  0
 22 23  2  0
 24 23  1  0
 24 15  1  0
  1 25  1  6
  2 26  1  0
  2 27  1  0
  3 28  1  1
  4 29  1  0
  5 30  1  0
  6 31  1  0
 16 32  1  0
 17 33  1  0
 18 34  1  0
 20 35  1  0
 21 36  1  0
 22 37  1  0
 23 38  1  0
M  ISO  8  25  13  26  13  27  13  28  13  29  14  30  14  31  14  32  14
M  ISO  6  33  14  34  14  35  14  36  14  37  14  38  14
M  END
>  <minimizedAffinity>  (1) 
-5.62082529

>  <minimizedRMSD>  (1) 
0.604818106

$$$$
