
     RDKit          3D

 35 38  0  0  1  0  0  0  0  0999 V2000
   47.6140   34.5160   42.1680 C   0  0  1  0  0  0  0  0  0  0  0  0
   48.4870   35.5170   41.6120 C   0  0  0  0  0  0  0  0  0  0  0  0
   49.0520   34.4520   42.5700 C   0  0  2  0  0  0  0  0  0  0  0  0
   45.5030   34.1800   45.1410 C   0  0  0  0  0  0  0  0  0  0  0  0
   44.5950   35.2800   45.0320 C   0  0  0  0  0  0  0  0  0  0  0  0
   44.7340   36.1190   43.9220 C   0  0  0  0  0  0  0  0  0  0  0  0
   45.7230   35.8290   43.0280 N   0  0  0  0  0  0  0  0  0  0  0  0
   46.5570   34.7790   43.1740 C   0  0  0  0  0  0  0  0  0  0  0  0
   46.4600   33.9590   44.2080 N   0  0  0  0  0  0  0  0  0  0  0  0
   49.8780   33.4180   41.8850 C   0  0  0  0  0  0  0  0  0  0  0  0
   51.1260   33.0830   42.2580 N   0  0  0  0  0  0  0  0  0  0  0  0
   51.6150   32.1560   41.5160 O   0  0  0  0  0  0  0  0  0  0  0  0
   50.6930   31.8600   40.6360 C   0  0  0  0  0  0  0  0  0  0  0  0
   49.5850   32.6230   40.8250 N   0  0  0  0  0  0  0  0  0  0  0  0
   50.8970   30.8140   39.5910 C   0  0  0  0  0  0  0  0  0  0  0  0
   50.8340   31.4200   38.2070 C   0  0  0  0  0  0  0  0  0  0  0  0
   52.2340   31.7710   37.8200 C   0  0  0  0  0  0  0  0  0  0  0  0
   53.1340   31.1390   38.8370 C   0  0  0  0  0  0  0  0  0  0  0  0
   52.2670   30.2180   39.6430 C   0  0  0  0  0  0  0  0  0  0  0  0
   46.8996   33.8232   41.6993 H   0  0  0  0  0  0  0  0  0  0  0  0
   48.7462   35.4881   40.5434 H   0  0  0  0  0  0  0  0  0  0  0  0
   48.4899   36.6166   41.5834 H   0  0  0  0  0  0  0  0  0  0  0  0
   49.5991   34.4234   43.5239 H   0  0  0  0  0  0  0  0  0  0  0  0
   45.4224   33.4989   46.0010 H   0  0  0  0  0  0  0  0  0  0  0  0
   43.8188   35.4586   45.7907 H   0  0  0  0  0  0  0  0  0  0  0  0
   44.0691   36.9828   43.7747 H   0  0  0  0  0  0  0  0  0  0  0  0
   50.1126   30.0670   39.7826 H   0  0  0  0  0  0  0  0  0  0  0  0
   50.4161   30.6931   37.4949 H   0  0  0  0  0  0  0  0  0  0  0  0
   50.1888   32.3109   38.1974 H   0  0  0  0  0  0  0  0  0  0  0  0
   52.4599   31.3780   36.8177 H   0  0  0  0  0  0  0  0  0  0  0  0
   52.3745   32.8616   37.7912 H   0  0  0  0  0  0  0  0  0  0  0  0
   53.9342   30.5719   38.3390 H   0  0  0  0  0  0  0  0  0  0  0  0
   53.6168   31.8959   39.4726 H   0  0  0  0  0  0  0  0  0  0  0  0
   52.6241   30.1647   40.6820 H   0  0  0  0  0  0  0  0  0  0  0  0
   52.2816   29.1920   39.2467 H   0  0  0  0  0  0  0  0  0  0  0  0
  1  3  1  0
  1  8  1  0
  2  1  1  0
  2  3  1  0
  5  4  2  0
  6  5  1  0
  7  8  1  0
  7  6  2  0
  8  9  2  0
  9  4  1  0
 10 11  2  0
 10  3  1  0
 12 11  1  0
 13 14  2  0
 13 12  1  0
 14 10  1  0
 15 19  1  0
 15 13  1  0
 16 15  1  0
 17 16  1  0
 17 18  1  0
 18 19  1  0
  1 20  1  6
  2 21  1  0
  2 22  1  0
  3 23  1  1
  4 24  1  0
  5 25  1  0
  6 26  1  0
 15 27  1  0
 16 28  1  0
 16 29  1  0
 17 30  1  0
 17 31  1  0
 18 32  1  0
 18 33  1  0
 19 34  1  0
 19 35  1  0
M  ISO  8  20  13  21  13  22  13  23  13  24  14  25  14  26  14  27  13
M  ISO  8  28  13  29  13  30  13  31  13  32  13  33  13  34  13  35  13
M  END
>  <minimizedAffinity>  (1) 
-5.19832134

>  <minimizedRMSD>  (1) 
0.251603723

$$$$
