
     RDKit          3D

 29 32  0  0  1  0  0  0  0  0999 V2000
   47.6020   34.5540   42.1760 C   0  0  1  0  0  0  0  0  0  0  0  0
   48.5120   35.5570   41.6850 C   0  0  0  0  0  0  0  0  0  0  0  0
   49.0370   34.4110   42.5780 C   0  0  2  0  0  0  0  0  0  0  0  0
   49.8230   33.3950   41.8230 C   0  0  0  0  0  0  0  0  0  0  0  0
   51.0890   33.0490   42.1110 N   0  0  0  0  0  0  0  0  0  0  0  0
   51.5380   32.1470   41.3210 O   0  0  0  0  0  0  0  0  0  0  0  0
   50.5770   31.8700   40.4860 C   0  0  0  0  0  0  0  0  0  0  0  0
   49.4770   32.6270   40.7580 N   0  0  0  0  0  0  0  0  0  0  0  0
   50.7120   30.9020   39.4520 N   0  0  0  0  0  0  0  0  0  0  0  0
   50.3420   29.6330   39.2980 N   0  0  0  0  0  0  0  0  0  0  0  0
   50.7360   29.1870   38.0910 C   0  0  0  0  0  0  0  0  0  0  0  0
   51.3910   30.2470   37.4600 C   0  0  0  0  0  0  0  0  0  0  0  0
   51.3620   31.3130   38.3360 C   0  0  0  0  0  0  0  0  0  0  0  0
   45.5250   34.1540   45.1640 C   0  0  0  0  0  0  0  0  0  0  0  0
   44.6060   35.2370   45.0860 C   0  0  0  0  0  0  0  0  0  0  0  0
   44.7240   36.0940   43.9880 C   0  0  0  0  0  0  0  0  0  0  0  0
   45.7070   35.8390   43.0660 N   0  0  0  0  0  0  0  0  0  0  0  0
   46.5510   34.7930   43.1950 C   0  0  0  0  0  0  0  0  0  0  0  0
   46.4780   33.9570   44.2170 N   0  0  0  0  0  0  0  0  0  0  0  0
   46.8658   33.9179   41.6628 H   0  0  0  0  0  0  0  0  0  0  0  0
   48.7741   35.5860   40.6171 H   0  0  0  0  0  0  0  0  0  0  0  0
   48.5537   36.6555   41.7254 H   0  0  0  0  0  0  0  0  0  0  0  0
   49.5787   34.3017   43.5291 H   0  0  0  0  0  0  0  0  0  0  0  0
   50.5733   28.1798   37.6798 H   0  0  0  0  0  0  0  0  0  0  0  0
   51.8432   30.2345   36.4573 H   0  0  0  0  0  0  0  0  0  0  0  0
   51.7879   32.3120   38.1608 H   0  0  0  0  0  0  0  0  0  0  0  0
   45.4620   33.4581   46.0135 H   0  0  0  0  0  0  0  0  0  0  0  0
   43.8362   35.3932   45.8560 H   0  0  0  0  0  0  0  0  0  0  0  0
   44.0456   36.9513   43.8664 H   0  0  0  0  0  0  0  0  0  0  0  0
  1  3  1  0
  1 18  1  0
  2  1  1  0
  2  3  1  0
  4  5  2  0
  4  3  1  0
  6  5  1  0
  7  8  2  0
  7  6  1  0
  8  4  1  0
  9  7  1  0
 10  9  1  0
 11 10  2  0
 12 11  1  0
 12 13  2  0
 13  9  1  0
 15 14  2  0
 16 15  1  0
 17 18  1  0
 17 16  2  0
 18 19  2  0
 19 14  1  0
  1 20  1  6
  2 21  1  0
  2 22  1  0
  3 23  1  1
 11 24  1  0
 12 25  1  0
 13 26  1  0
 14 27  1  0
 15 28  1  0
 16 29  1  0
M  ISO  8  20  13  21  13  22  13  23  13  24  14  25  14  26  14  27  14
M  ISO  2  28  14  29  14
M  END
>  <minimizedAffinity>  (1) 
-5.12343216

>  <minimizedRMSD>  (1) 
0.165808797

$$$$
