
     RDKit          3D

 37 40  0  0  1  0  0  0  0  0999 V2000
   47.6120   34.5750   42.1590 C   0  0  1  0  0  0  0  0  0  0  0  0
   48.5480   35.5690   41.6960 C   0  0  0  0  0  0  0  0  0  0  0  0
   49.0450   34.3940   42.5610 C   0  0  2  0  0  0  0  0  0  0  0  0
   49.8090   33.3770   41.7760 C   0  0  0  0  0  0  0  0  0  0  0  0
   51.0460   32.9610   42.1020 N   0  0  0  0  0  0  0  0  0  0  0  0
   51.4840   32.0740   41.2840 O   0  0  0  0  0  0  0  0  0  0  0  0
   50.5410   31.8840   40.3990 C   0  0  0  0  0  0  0  0  0  0  0  0
   49.4720   32.6770   40.6650 N   0  0  0  0  0  0  0  0  0  0  0  0
   50.5560   30.9830   39.2740 N   0  0  0  0  0  0  0  0  0  0  0  0
   49.3720   30.3700   38.7400 C   0  0  0  0  0  0  0  0  0  0  0  0
   49.2970   30.3340   37.2470 C   0  0  0  0  0  0  0  0  0  0  0  0
   50.6370   30.1140   36.5910 C   0  0  0  0  0  0  0  0  0  0  0  0
   51.7070   31.0030   37.1860 C   0  0  0  0  0  0  0  0  0  0  0  0
   51.8450   30.6910   38.6610 C   0  0  0  0  0  0  0  0  0  0  0  0
   45.5370   34.1430   45.1480 C   0  0  0  0  0  0  0  0  0  0  0  0
   44.6090   35.2330   45.0700 C   0  0  0  0  0  0  0  0  0  0  0  0
   44.7320   36.0960   43.9740 C   0  0  0  0  0  0  0  0  0  0  0  0
   45.7190   35.8450   43.0530 N   0  0  0  0  0  0  0  0  0  0  0  0
   46.5610   34.8020   43.1810 C   0  0  0  0  0  0  0  0  0  0  0  0
   46.4900   33.9570   44.1970 N   0  0  0  0  0  0  0  0  0  0  0  0
   46.8620   33.9712   41.6270 H   0  0  0  0  0  0  0  0  0  0  0  0
   48.8150   35.6178   40.6300 H   0  0  0  0  0  0  0  0  0  0  0  0
   48.6135   36.6650   41.7636 H   0  0  0  0  0  0  0  0  0  0  0  0
   49.5825   34.2520   43.5102 H   0  0  0  0  0  0  0  0  0  0  0  0
   49.3278   29.3346   39.1089 H   0  0  0  0  0  0  0  0  0  0  0  0
   48.5273   30.9897   39.0752 H   0  0  0  0  0  0  0  0  0  0  0  0
   48.6238   29.5163   36.9502 H   0  0  0  0  0  0  0  0  0  0  0  0
   48.9267   31.3148   36.9141 H   0  0  0  0  0  0  0  0  0  0  0  0
   50.5480   30.3341   35.5169 H   0  0  0  0  0  0  0  0  0  0  0  0
   50.9311   29.0672   36.7572 H   0  0  0  0  0  0  0  0  0  0  0  0
   52.6651   30.8166   36.6787 H   0  0  0  0  0  0  0  0  0  0  0  0
   51.4275   32.0588   37.0546 H   0  0  0  0  0  0  0  0  0  0  0  0
   52.0999   29.6302   38.8017 H   0  0  0  0  0  0  0  0  0  0  0  0
   52.6454   31.2909   39.1187 H   0  0  0  0  0  0  0  0  0  0  0  0
   45.4765   33.4432   45.9945 H   0  0  0  0  0  0  0  0  0  0  0  0
   43.8350   35.3847   45.8367 H   0  0  0  0  0  0  0  0  0  0  0  0
   44.0544   36.9541   43.8538 H   0  0  0  0  0  0  0  0  0  0  0  0
  1  3  1  0
  1 19  1  0
  2  1  1  0
  2  3  1  0
  4  5  2  0
  4  3  1  0
  6  5  1  0
  7  8  2  0
  7  6  1  0
  8  4  1  0
  9  7  1  0
 10  9  1  0
 11 10  1  0
 12 13  1  0
 12 11  1  0
 13 14  1  0
 14  9  1  0
 16 15  2  0
 17 16  1  0
 18 19  1  0
 18 17  2  0
 19 20  2  0
 20 15  1  0
  1 21  1  6
  2 22  1  0
  2 23  1  0
  3 24  1  1
 10 25  1  0
 10 26  1  0
 11 27  1  0
 11 28  1  0
 12 29  1  0
 12 30  1  0
 13 31  1  0
 13 32  1  0
 14 33  1  0
 14 34  1  0
 15 35  1  0
 16 36  1  0
 17 37  1  0
M  ISO  8  21  13  22  13  23  13  24  13  25  13  26  13  27  13  28  13
M  ISO  8  29  13  30  13  31  13  32  13  33  13  34  13  35  14  36  14
M  ISO  1  37  14
M  END
>  <minimizedAffinity>  (1) 
-5.2280221

>  <minimizedRMSD>  (1) 
0.309597343

$$$$
