
     RDKit          3D

 30 33  0  0  1  0  0  0  0  0999 V2000
   47.6040   34.5590   42.1630 C   0  0  1  0  0  0  0  0  0  0  0  0
   48.5290   35.5540   41.6820 C   0  0  0  0  0  0  0  0  0  0  0  0
   49.0360   34.3900   42.5660 C   0  0  2  0  0  0  0  0  0  0  0  0
   45.5250   34.1600   45.1500 C   0  0  0  0  0  0  0  0  0  0  0  0
   44.6090   35.2390   45.0780 C   0  0  0  0  0  0  0  0  0  0  0  0
   44.7300   36.0960   43.9800 C   0  0  0  0  0  0  0  0  0  0  0  0
   45.7090   35.8440   43.0600 N   0  0  0  0  0  0  0  0  0  0  0  0
   46.5530   34.7990   43.1830 C   0  0  0  0  0  0  0  0  0  0  0  0
   46.4830   33.9560   44.2020 N   0  0  0  0  0  0  0  0  0  0  0  0
   49.8060   33.3760   41.8040 C   0  0  0  0  0  0  0  0  0  0  0  0
   51.0700   33.0020   42.0970 N   0  0  0  0  0  0  0  0  0  0  0  0
   51.5110   32.1100   41.2870 O   0  0  0  0  0  0  0  0  0  0  0  0
   50.5530   31.8690   40.4360 C   0  0  0  0  0  0  0  0  0  0  0  0
   49.4580   32.6390   40.7170 N   0  0  0  0  0  0  0  0  0  0  0  0
   50.5570   30.9180   39.3010 C   0  0  0  0  0  0  0  0  0  0  0  0
   50.4320   29.5510   39.4720 C   0  0  0  0  0  0  0  0  0  0  0  0
   50.4560   28.8140   38.3090 C   0  0  0  0  0  0  0  0  0  0  0  0
   50.5900   29.3420   37.0800 N   0  0  0  0  0  0  0  0  0  0  0  0
   50.7090   30.6720   36.9600 C   0  0  0  0  0  0  0  0  0  0  0  0
   50.6920   31.4390   38.0650 N   0  0  0  0  0  0  0  0  0  0  0  0
   46.8588   33.9401   41.6417 H   0  0  0  0  0  0  0  0  0  0  0  0
   48.7929   35.5893   40.6147 H   0  0  0  0  0  0  0  0  0  0  0  0
   48.5867   36.6513   41.7326 H   0  0  0  0  0  0  0  0  0  0  0  0
   49.5735   34.2622   43.5172 H   0  0  0  0  0  0  0  0  0  0  0  0
   45.4607   33.4639   45.9993 H   0  0  0  0  0  0  0  0  0  0  0  0
   43.8399   35.3947   45.8489 H   0  0  0  0  0  0  0  0  0  0  0  0
   44.0524   36.9540   43.8592 H   0  0  0  0  0  0  0  0  0  0  0  0
   50.3216   29.0872   40.4633 H   0  0  0  0  0  0  0  0  0  0  0  0
   50.3592   27.7213   38.3910 H   0  0  0  0  0  0  0  0  0  0  0  0
   50.8195   31.1319   35.9669 H   0  0  0  0  0  0  0  0  0  0  0  0
  1  3  1  0
  1  8  1  0
  2  1  1  0
  2  3  1  0
  5  4  2  0
  6  5  1  0
  7  8  1  0
  7  6  2  0
  8  9  2  0
  9  4  1  0
 10 11  2  0
 10  3  1  0
 12 11  1  0
 13 14  2  0
 13 12  1  0
 14 10  1  0
 15 16  2  0
 15 13  1  0
 17 16  1  0
 18 17  2  0
 19 18  1  0
 19 20  2  0
 20 15  1  0
  1 21  1  6
  2 22  1  0
  2 23  1  0
  3 24  1  1
  4 25  1  0
  5 26  1  0
  6 27  1  0
 16 28  1  0
 17 29  1  0
 19 30  1  0
M  ISO  8  21  13  22  13  23  13  24  13  25  14  26  14  27  14  28  14
M  ISO  2  29  14  30  14
M  END
>  <minimizedAffinity>  (1) 
-4.90590239

>  <minimizedRMSD>  (1) 
0.232791588

$$$$
