
     RDKit          3D

 32 35  0  0  1  0  0  0  0  0999 V2000
   47.5880   34.5440   42.1700 C   0  0  1  0  0  0  0  0  0  0  0  0
   48.5010   35.5370   41.6680 C   0  0  0  0  0  0  0  0  0  0  0  0
   49.0220   34.3960   42.5710 C   0  0  2  0  0  0  0  0  0  0  0  0
   45.5180   34.1700   45.1660 C   0  0  0  0  0  0  0  0  0  0  0  0
   44.6030   35.2560   45.0930 C   0  0  0  0  0  0  0  0  0  0  0  0
   44.7240   36.1090   43.9890 C   0  0  0  0  0  0  0  0  0  0  0  0
   45.7020   35.8440   43.0650 N   0  0  0  0  0  0  0  0  0  0  0  0
   46.5420   34.7930   43.1920 C   0  0  0  0  0  0  0  0  0  0  0  0
   46.4680   33.9580   44.2160 N   0  0  0  0  0  0  0  0  0  0  0  0
   49.8040   33.3690   41.8230 C   0  0  0  0  0  0  0  0  0  0  0  0
   51.0760   33.0370   42.1030 N   0  0  0  0  0  0  0  0  0  0  0  0
   51.5200   32.1240   41.3260 O   0  0  0  0  0  0  0  0  0  0  0  0
   50.5510   31.8260   40.5070 C   0  0  0  0  0  0  0  0  0  0  0  0
   49.4480   32.5820   40.7770 N   0  0  0  0  0  0  0  0  0  0  0  0
   50.5890   30.8210   39.4220 C   0  0  0  0  0  0  0  0  0  0  0  0
   50.3410   29.4690   39.6800 C   0  0  0  0  0  0  0  0  0  0  0  0
   50.3800   28.5410   38.6580 C   0  0  0  0  0  0  0  0  0  0  0  0
   50.6740   29.0380   37.4050 C   0  0  0  0  0  0  0  0  0  0  0  0
   50.9310   30.3510   37.0700 C   0  0  0  0  0  0  0  0  0  0  0  0
   50.8760   31.2400   38.1420 C   0  0  0  0  0  0  0  0  0  0  0  0
   46.8465   33.9100   41.6619 H   0  0  0  0  0  0  0  0  0  0  0  0
   48.7609   35.5547   40.5993 H   0  0  0  0  0  0  0  0  0  0  0  0
   48.5484   36.6356   41.6980 H   0  0  0  0  0  0  0  0  0  0  0  0
   49.5641   34.2914   43.5224 H   0  0  0  0  0  0  0  0  0  0  0  0
   45.4554   33.4784   46.0191 H   0  0  0  0  0  0  0  0  0  0  0  0
   43.8374   35.4182   45.8660 H   0  0  0  0  0  0  0  0  0  0  0  0
   44.0511   36.9704   43.8660 H   0  0  0  0  0  0  0  0  0  0  0  0
   50.1130   29.1421   40.7053 H   0  0  0  0  0  0  0  0  0  0  0  0
   50.1885   27.4719   38.8322 H   0  0  0  0  0  0  0  0  0  0  0  0
   50.7070   28.3073   36.5834 H   0  0  0  0  0  0  0  0  0  0  0  0
   51.1602   30.6699   36.0425 H   0  0  0  0  0  0  0  0  0  0  0  0
   51.0675   32.3078   37.9602 H   0  0  0  0  0  0  0  0  0  0  0  0
  1  3  1  0
  1  8  1  0
  2  1  1  0
  2  3  1  0
  5  4  2  0
  6  5  1  0
  7  8  1  0
  7  6  2  0
  8  9  2  0
  9  4  1  0
 10 11  2  0
 10  3  1  0
 12 11  1  0
 13 14  2  0
 13 12  1  0
 14 10  1  0
 15 16  2  0
 15 13  1  0
 17 16  1  0
 18 17  2  0
 19 18  1  0
 19 20  2  0
 20 15  1  0
  1 21  1  6
  2 22  1  0
  2 23  1  0
  3 24  1  1
  4 25  1  0
  5 26  1  0
  6 27  1  0
 16 28  1  0
 17 29  1  0
 18 30  1  0
 19 31  1  0
 20 32  1  0
M  ISO  8  21  13  22  13  23  13  24  13  25  14  26  14  27  14  28  14
M  ISO  4  29  14  30  14  31  14  32  14
M  END
>  <minimizedAffinity>  (1) 
-4.89411211

>  <minimizedRMSD>  (1) 
0.224359527

$$$$
