
     RDKit          3D

 34 37  0  0  1  0  0  0  0  0999 V2000
   47.6020   34.5620   42.1710 C   0  0  1  0  0  0  0  0  0  0  0  0
   48.5260   35.5550   41.6790 C   0  0  0  0  0  0  0  0  0  0  0  0
   49.0370   34.3950   42.5650 C   0  0  2  0  0  0  0  0  0  0  0  0
   49.8050   33.3760   41.8090 C   0  0  0  0  0  0  0  0  0  0  0  0
   51.0500   32.9700   42.1130 N   0  0  0  0  0  0  0  0  0  0  0  0
   51.5090   32.0930   41.3180 O   0  0  0  0  0  0  0  0  0  0  0  0
   50.5630   31.8810   40.4390 C   0  0  0  0  0  0  0  0  0  0  0  0
   49.4840   32.6630   40.7130 N   0  0  0  0  0  0  0  0  0  0  0  0
   50.4820   31.0130   39.2970 N   0  0  0  0  0  0  0  0  0  0  0  0
   49.6760   29.8590   38.8890 C   0  0  0  0  0  0  0  0  0  0  0  0
   49.7180   29.8060   37.3940 C   0  0  0  0  0  0  0  0  0  0  0  0
   50.5170   31.0050   36.9400 C   0  0  0  0  0  0  0  0  0  0  0  0
   51.3860   31.2430   38.1600 C   0  0  0  0  0  0  0  0  0  0  0  0
   45.5320   34.1500   45.1600 C   0  0  0  0  0  0  0  0  0  0  0  0
   44.6080   35.2320   45.0860 C   0  0  0  0  0  0  0  0  0  0  0  0
   44.7250   36.1050   43.9770 C   0  0  0  0  0  0  0  0  0  0  0  0
   45.7130   35.8570   43.0490 N   0  0  0  0  0  0  0  0  0  0  0  0
   46.5570   34.8020   43.1910 C   0  0  0  0  0  0  0  0  0  0  0  0
   46.4900   33.9560   44.2100 N   0  0  0  0  0  0  0  0  0  0  0  0
   46.8526   33.9416   41.6577 H   0  0  0  0  0  0  0  0  0  0  0  0
   48.7833   35.5851   40.6099 H   0  0  0  0  0  0  0  0  0  0  0  0
   48.5852   36.6525   41.7241 H   0  0  0  0  0  0  0  0  0  0  0  0
   49.5803   34.2720   43.5135 H   0  0  0  0  0  0  0  0  0  0  0  0
   50.0969   28.9350   39.3122 H   0  0  0  0  0  0  0  0  0  0  0  0
   48.6415   29.9537   39.2507 H   0  0  0  0  0  0  0  0  0  0  0  0
   50.2050   28.8776   37.0610 H   0  0  0  0  0  0  0  0  0  0  0  0
   48.7037   29.8220   36.9686 H   0  0  0  0  0  0  0  0  0  0  0  0
   51.1218   30.7756   36.0503 H   0  0  0  0  0  0  0  0  0  0  0  0
   49.9091   31.8702   36.6369 H   0  0  0  0  0  0  0  0  0  0  0  0
   52.2288   30.5365   38.1825 H   0  0  0  0  0  0  0  0  0  0  0  0
   51.8299   32.2494   38.1714 H   0  0  0  0  0  0  0  0  0  0  0  0
   45.4705   33.4516   46.0076 H   0  0  0  0  0  0  0  0  0  0  0  0
   43.8375   35.3827   45.8565 H   0  0  0  0  0  0  0  0  0  0  0  0
   44.0436   36.9605   43.8593 H   0  0  0  0  0  0  0  0  0  0  0  0
  1  3  1  0
  1 18  1  0
  2  1  1  0
  2  3  1  0
  4  5  2  0
  4  3  1  0
  6  5  1  0
  7  8  2  0
  7  6  1  0
  8  4  1  0
  9  7  1  0
 10  9  1  0
 11 10  1  0
 12 11  1  0
 12 13  1  0
 13  9  1  0
 15 14  2  0
 16 15  1  0
 17 18  1  0
 17 16  2  0
 18 19  2  0
 19 14  1  0
  1 20  1  6
  2 21  1  0
  2 22  1  0
  3 23  1  1
 10 24  1  0
 10 25  1  0
 11 26  1  0
 11 27  1  0
 12 28  1  0
 12 29  1  0
 13 30  1  0
 13 31  1  0
 14 32  1  0
 15 33  1  0
 16 34  1  0
M  ISO  8  20  13  21  13  22  13  23  13  24  13  25  13  26  13  27  13
M  ISO  7  28  13  29  13  30  13  31  13  32  14  33  14  34  14
M  END
>  <minimizedAffinity>  (1) 
-5.13386345

>  <minimizedRMSD>  (1) 
0.263370603

$$$$
