
     RDKit          3D

 29 32  0  0  1  0  0  0  0  0999 V2000
   47.5880   34.5280   42.1670 C   0  0  1  0  0  0  0  0  0  0  0  0
   48.4970   35.5210   41.6530 C   0  0  0  0  0  0  0  0  0  0  0  0
   49.0240   34.3890   42.5660 C   0  0  2  0  0  0  0  0  0  0  0  0
   45.5110   34.1790   45.1620 C   0  0  0  0  0  0  0  0  0  0  0  0
   44.6040   35.2630   45.0840 C   0  0  0  0  0  0  0  0  0  0  0  0
   44.7320   36.1050   43.9760 C   0  0  0  0  0  0  0  0  0  0  0  0
   45.7100   35.8340   43.0520 N   0  0  0  0  0  0  0  0  0  0  0  0
   46.5420   34.7870   43.1850 C   0  0  0  0  0  0  0  0  0  0  0  0
   46.4660   33.9560   44.2130 N   0  0  0  0  0  0  0  0  0  0  0  0
   49.8100   33.3680   41.8350 C   0  0  0  0  0  0  0  0  0  0  0  0
   51.0880   33.0460   42.0970 N   0  0  0  0  0  0  0  0  0  0  0  0
   51.5310   32.1300   41.3300 O   0  0  0  0  0  0  0  0  0  0  0  0
   50.5670   31.8090   40.5340 C   0  0  0  0  0  0  0  0  0  0  0  0
   49.4560   32.5560   40.8060 N   0  0  0  0  0  0  0  0  0  0  0  0
   50.6420   30.7910   39.4870 C   0  0  0  0  0  0  0  0  0  0  0  0
   50.7420   31.0690   38.1390 C   0  0  0  0  0  0  0  0  0  0  0  0
   50.7900   29.8670   37.4610 C   0  0  0  0  0  0  0  0  0  0  0  0
   50.7160   28.9030   38.4450 C   0  0  0  0  0  0  0  0  0  0  0  0
   50.6290   29.4750   39.6430 O   0  0  0  0  0  0  0  0  0  0  0  0
   46.8488   33.8837   41.6685 H   0  0  0  0  0  0  0  0  0  0  0  0
   48.7545   35.5299   40.5836 H   0  0  0  0  0  0  0  0  0  0  0  0
   48.5406   36.6200   41.6726 H   0  0  0  0  0  0  0  0  0  0  0  0
   49.5666   34.2935   43.5181 H   0  0  0  0  0  0  0  0  0  0  0  0
   45.4436   33.4918   46.0182 H   0  0  0  0  0  0  0  0  0  0  0  0
   43.8384   35.4337   45.8552 H   0  0  0  0  0  0  0  0  0  0  0  0
   44.0621   36.9679   43.8470 H   0  0  0  0  0  0  0  0  0  0  0  0
   50.7772   32.0704   37.6851 H   0  0  0  0  0  0  0  0  0  0  0  0
   50.8697   29.7122   36.3749 H   0  0  0  0  0  0  0  0  0  0  0  0
   50.7273   27.8179   38.2651 H   0  0  0  0  0  0  0  0  0  0  0  0
  1  3  1  0
  1  8  1  0
  2  1  1  0
  2  3  1  0
  5  4  2  0
  6  5  1  0
  7  8  1  0
  7  6  2  0
  8  9  2  0
  9  4  1  0
 10 11  2  0
 10  3  1  0
 12 11  1  0
 13 14  2  0
 13 12  1  0
 14 10  1  0
 15 19  1  0
 15 13  1  0
 16 15  2  0
 17 16  1  0
 17 18  2  0
 18 19  1  0
  1 20  1  6
  2 21  1  0
  2 22  1  0
  3 23  1  1
  4 24  1  0
  5 25  1  0
  6 26  1  0
 16 27  1  0
 17 28  1  0
 18 29  1  0
M  ISO  8  20  13  21  13  22  13  23  13  24  14  25  14  26  14  27  14
M  ISO  2  28  14  29  14
M  END
>  <minimizedAffinity>  (1) 
-4.82049417

>  <minimizedRMSD>  (1) 
0.0738418028

$$$$
