
     RDKit          3D

 31 34  0  0  1  0  0  0  0  0999 V2000
   47.6000   34.5550   42.1720 C   0  0  1  0  0  0  0  0  0  0  0  0
   48.5140   35.5500   41.6720 C   0  0  0  0  0  0  0  0  0  0  0  0
   49.0350   34.4040   42.5690 C   0  0  2  0  0  0  0  0  0  0  0  0
   45.5240   34.1570   45.1630 C   0  0  0  0  0  0  0  0  0  0  0  0
   44.6030   35.2470   45.0820 C   0  0  0  0  0  0  0  0  0  0  0  0
   44.7270   36.1020   43.9830 C   0  0  0  0  0  0  0  0  0  0  0  0
   45.7130   35.8480   43.0550 N   0  0  0  0  0  0  0  0  0  0  0  0
   46.5520   34.7960   43.1930 C   0  0  0  0  0  0  0  0  0  0  0  0
   46.4750   33.9590   44.2160 N   0  0  0  0  0  0  0  0  0  0  0  0
   49.8180   33.3870   41.8190 C   0  0  0  0  0  0  0  0  0  0  0  0
   51.0780   33.0270   42.1110 N   0  0  0  0  0  0  0  0  0  0  0  0
   51.5150   32.1160   41.3130 O   0  0  0  0  0  0  0  0  0  0  0  0
   50.5530   31.8540   40.4780 C   0  0  0  0  0  0  0  0  0  0  0  0
   49.4700   32.6230   40.7540 N   0  0  0  0  0  0  0  0  0  0  0  0
   50.5520   30.8900   39.3770 C   0  0  0  0  0  0  0  0  0  0  0  0
   50.9460   31.2080   38.0850 C   0  0  0  0  0  0  0  0  0  0  0  0
   50.9360   30.2880   37.0680 C   0  0  0  0  0  0  0  0  0  0  0  0
   50.5090   29.0140   37.4060 C   0  0  0  0  0  0  0  0  0  0  0  0
   50.1180   28.6830   38.6710 C   0  0  0  0  0  0  0  0  0  0  0  0
   50.1500   29.6330   39.6230 N   0  0  0  0  0  0  0  0  0  0  0  0
   46.8564   33.9240   41.6631 H   0  0  0  0  0  0  0  0  0  0  0  0
   48.7718   35.5721   40.6029 H   0  0  0  0  0  0  0  0  0  0  0  0
   48.5630   36.6484   41.7067 H   0  0  0  0  0  0  0  0  0  0  0  0
   49.5767   34.2926   43.5198 H   0  0  0  0  0  0  0  0  0  0  0  0
   45.4602   33.4622   46.0134 H   0  0  0  0  0  0  0  0  0  0  0  0
   43.8315   35.4059   45.8498 H   0  0  0  0  0  0  0  0  0  0  0  0
   44.0505   36.9608   43.8616 H   0  0  0  0  0  0  0  0  0  0  0  0
   51.2781   32.2342   37.8689 H   0  0  0  0  0  0  0  0  0  0  0  0
   51.2482   30.5461   36.0453 H   0  0  0  0  0  0  0  0  0  0  0  0
   50.4842   28.2398   36.6250 H   0  0  0  0  0  0  0  0  0  0  0  0
   49.7840   27.6618   38.9070 H   0  0  0  0  0  0  0  0  0  0  0  0
  1  3  1  0
  1  8  1  0
  2  1  1  0
  2  3  1  0
  5  4  2  0
  6  5  1  0
  7  8  1  0
  7  6  2  0
  8  9  2  0
  9  4  1  0
 10 11  2  0
 10  3  1  0
 12 11  1  0
 13 14  2  0
 13 12  1  0
 14 10  1  0
 15 20  1  0
 15 13  1  0
 16 15  2  0
 17 18  2  0
 17 16  1  0
 18 19  1  0
 19 20  2  0
  1 21  1  6
  2 22  1  0
  2 23  1  0
  3 24  1  1
  4 25  1  0
  5 26  1  0
  6 27  1  0
 16 28  1  0
 17 29  1  0
 18 30  1  0
 19 31  1  0
M  ISO  8  21  13  22  13  23  13  24  13  25  14  26  14  27  14  28  14
M  ISO  3  29  14  30  14  31  14
M  END
>  <minimizedAffinity>  (1) 
-4.87896252

>  <minimizedRMSD>  (1) 
0.216611639

$$$$
