
     RDKit          3D

 29 32  0  0  1  0  0  0  0  0999 V2000
   47.5840   34.5350   42.1730 C   0  0  1  0  0  0  0  0  0  0  0  0
   48.4930   35.5280   41.6640 C   0  0  0  0  0  0  0  0  0  0  0  0
   49.0210   34.3930   42.5750 C   0  0  2  0  0  0  0  0  0  0  0  0
   45.5160   34.1750   45.1730 C   0  0  0  0  0  0  0  0  0  0  0  0
   44.6040   35.2560   45.0980 C   0  0  0  0  0  0  0  0  0  0  0  0
   44.7260   36.1020   43.9930 C   0  0  0  0  0  0  0  0  0  0  0  0
   45.7010   35.8480   43.0570 N   0  0  0  0  0  0  0  0  0  0  0  0
   46.5390   34.7920   43.1960 C   0  0  0  0  0  0  0  0  0  0  0  0
   46.4670   33.9590   44.2260 N   0  0  0  0  0  0  0  0  0  0  0  0
   49.7970   33.3670   41.8300 C   0  0  0  0  0  0  0  0  0  0  0  0
   51.0760   33.0380   42.0880 N   0  0  0  0  0  0  0  0  0  0  0  0
   51.5110   32.1230   41.3100 O   0  0  0  0  0  0  0  0  0  0  0  0
   50.5400   31.8140   40.5120 C   0  0  0  0  0  0  0  0  0  0  0  0
   49.4330   32.5680   40.7940 N   0  0  0  0  0  0  0  0  0  0  0  0
   50.5910   30.8090   39.4530 C   0  0  0  0  0  0  0  0  0  0  0  0
   50.8770   31.0200   38.1140 C   0  0  0  0  0  0  0  0  0  0  0  0
   50.8190   29.8150   37.4740 N   0  0  0  0  0  0  0  0  0  0  0  0
   50.5050   28.9050   38.3990 C   0  0  0  0  0  0  0  0  0  0  0  0
   50.3660   29.4870   39.5920 N   0  0  0  0  0  0  0  0  0  0  0  0
   46.8448   33.8944   41.6698 H   0  0  0  0  0  0  0  0  0  0  0  0
   48.7516   35.5400   40.5949 H   0  0  0  0  0  0  0  0  0  0  0  0
   48.5362   36.6269   41.6872 H   0  0  0  0  0  0  0  0  0  0  0  0
   49.5656   34.2966   43.5258 H   0  0  0  0  0  0  0  0  0  0  0  0
   45.4525   33.4857   46.0279 H   0  0  0  0  0  0  0  0  0  0  0  0
   43.8385   35.4210   45.8705 H   0  0  0  0  0  0  0  0  0  0  0  0
   44.0500   36.9614   43.8730 H   0  0  0  0  0  0  0  0  0  0  0  0
   51.1100   31.9887   37.6479 H   0  0  0  0  0  0  0  0  0  0  0  0
   50.3789   27.8295   38.2056 H   0  0  0  0  0  0  0  0  0  0  0  0
   50.1270   29.0068   40.4713 H   0  0  0  0  0  0  0  0  0  0  0  0
  1  3  1  0
  1  8  1  0
  2  1  1  0
  2  3  1  0
  5  4  2  0
  6  5  1  0
  7  8  1  0
  7  6  2  0
  8  9  2  0
  9  4  1  0
 10 11  2  0
 10  3  1  0
 12 11  1  0
 13 14  2  0
 13 12  1  0
 14 10  1  0
 15 19  1  0
 15 13  1  0
 16 15  2  0
 17 16  1  0
 17 18  2  0
 18 19  1  0
  1 20  1  6
  2 21  1  0
  2 22  1  0
  3 23  1  1
  4 24  1  0
  5 25  1  0
  6 26  1  0
 16 27  1  0
 18 28  1  0
 19 29  1  0
M  ISO  8  20  13  21  13  22  13  23  13  24  14  25  14  26  14  27  14
M  ISO  2  28  14  29   9
M  END
>  <minimizedAffinity>  (1) 
-4.81325769

>  <minimizedRMSD>  (1) 
0.0953672677

$$$$
