
     RDKit          3D

 35 38  0  0  1  0  0  0  0  0999 V2000
   47.6100   34.6030   42.1210 C   0  0  1  0  0  0  0  0  0  0  0  0
   48.5990   35.5780   41.7440 C   0  0  0  0  0  0  0  0  0  0  0  0
   49.0240   34.3070   42.5200 C   0  0  2  0  0  0  0  0  0  0  0  0
   45.5670   34.1250   45.1190 C   0  0  0  0  0  0  0  0  0  0  0  0
   44.6340   35.1890   45.0820 C   0  0  0  0  0  0  0  0  0  0  0  0
   44.7340   36.0680   43.9990 C   0  0  0  0  0  0  0  0  0  0  0  0
   45.7120   35.8480   43.0560 N   0  0  0  0  0  0  0  0  0  0  0  0
   46.5670   34.8120   43.1550 C   0  0  0  0  0  0  0  0  0  0  0  0
   46.5130   33.9500   44.1660 N   0  0  0  0  0  0  0  0  0  0  0  0
   49.7420   33.3180   41.6680 C   0  0  0  0  0  0  0  0  0  0  0  0
   50.9470   32.7980   41.9600 N   0  0  0  0  0  0  0  0  0  0  0  0
   51.3330   31.9620   41.0540 O   0  0  0  0  0  0  0  0  0  0  0  0
   50.4070   31.9120   40.1600 C   0  0  0  0  0  0  0  0  0  0  0  0
   49.3770   32.7450   40.4940 N   0  0  0  0  0  0  0  0  0  0  0  0
   50.4480   29.5900   36.6320 C   0  0  0  0  0  0  0  0  0  0  0  0
   50.6320   30.9650   36.5480 C   0  0  0  0  0  0  0  0  0  0  0  0
   50.6140   31.7090   37.7260 C   0  0  0  0  0  0  0  0  0  0  0  0
   50.4180   31.0880   38.9430 C   0  0  0  0  0  0  0  0  0  0  0  0
   50.2380   29.7240   38.9950 C   0  0  0  0  0  0  0  0  0  0  0  0
   50.2500   28.9580   37.8460 C   0  0  0  0  0  0  0  0  0  0  0  0
   50.4600   28.6180   35.1980 S   0  0  0  0  0  0  0  0  0  0  0  0
   51.8460   28.1690   34.8440 O   0  0  0  0  0  0  0  0  0  0  0  0
   49.9600   29.4300   34.0210 O   0  0  0  0  0  0  0  0  0  0  0  0
   46.8359   34.0849   41.5358 H   0  0  0  0  0  0  0  0  0  0  0  0
   48.8794   35.6962   40.6869 H   0  0  0  0  0  0  0  0  0  0  0  0
   48.7219   36.6602   41.8980 H   0  0  0  0  0  0  0  0  0  0  0  0
   49.5401   34.0585   43.4591 H   0  0  0  0  0  0  0  0  0  0  0  0
   45.5217   33.4119   45.9553 H   0  0  0  0  0  0  0  0  0  0  0  0
   43.8708   35.3175   45.8637 H   0  0  0  0  0  0  0  0  0  0  0  0
   44.0440   36.9192   43.9026 H   0  0  0  0  0  0  0  0  0  0  0  0
   50.7881   31.4541   35.5751 H   0  0  0  0  0  0  0  0  0  0  0  0
   50.7570   32.7989   37.6858 H   0  0  0  0  0  0  0  0  0  0  0  0
   50.0820   29.2360   39.9684 H   0  0  0  0  0  0  0  0  0  0  0  0
   50.1052   27.8687   37.8954 H   0  0  0  0  0  0  0  0  0  0  0  0
   49.6614   27.5337   35.4500 H   0  0  0  0  0  0  0  0  0  0  0  0
  1  3  1  0
  1  8  1  0
  2  1  1  0
  2  3  1  0
  5  4  2  0
  6  5  1  0
  7  8  1  0
  7  6  2  0
  8  9  2  0
  9  4  1  0
 10 11  2  0
 10  3  1  0
 12 11  1  0
 13 14  2  0
 13 12  1  0
 14 10  1  0
 15 20  2  0
 16 15  1  0
 16 17  2  0
 17 18  1  0
 18 19  2  0
 18 13  1  0
 20 19  1  0
 21 15  1  0
 22 21  2  0
 23 21  2  0
  1 24  1  6
  2 25  1  0
  2 26  1  0
  3 27  1  1
  4 28  1  0
  5 29  1  0
  6 30  1  0
 16 31  1  0
 17 32  1  0
 19 33  1  0
 20 34  1  0
 21 35  1  0
M  ISO  8  24  13  25  13  26  13  27  13  28  14  29  14  30  14  31  14
M  ISO  4  32  14  33  14  34  14  35  11
M  END
>  <minimizedAffinity>  (1) 
-4.79399872

>  <minimizedRMSD>  (1) 
1.19671607

$$$$
