
     RDKit          3D

 31 33  0  0  1  0  0  0  0  0999 V2000
   47.5760   34.5390   42.1810 C   0  0  1  0  0  0  0  0  0  0  0  0
   48.4840   35.5400   41.6780 C   0  0  0  0  0  0  0  0  0  0  0  0
   49.0150   34.4090   42.5850 C   0  0  2  0  0  0  0  0  0  0  0  0
   45.5140   34.1680   45.1850 C   0  0  0  0  0  0  0  0  0  0  0  0
   44.6010   35.2620   45.1050 C   0  0  0  0  0  0  0  0  0  0  0  0
   44.7160   36.1130   44.0020 C   0  0  0  0  0  0  0  0  0  0  0  0
   45.6900   35.8440   43.0800 N   0  0  0  0  0  0  0  0  0  0  0  0
   46.5290   34.7960   43.2020 C   0  0  0  0  0  0  0  0  0  0  0  0
   46.4590   33.9620   44.2280 N   0  0  0  0  0  0  0  0  0  0  0  0
   49.7960   33.3870   41.8360 C   0  0  0  0  0  0  0  0  0  0  0  0
   51.0700   33.0550   42.1060 N   0  0  0  0  0  0  0  0  0  0  0  0
   51.5070   32.1310   41.3290 O   0  0  0  0  0  0  0  0  0  0  0  0
   50.5240   31.8270   40.5190 C   0  0  0  0  0  0  0  0  0  0  0  0
   49.4490   32.5850   40.8040 N   0  0  0  0  0  0  0  0  0  0  0  0
   50.5340   30.8090   39.4320 C   0  0  0  0  0  0  0  0  0  0  0  0
   51.4300   31.2750   38.2760 C   0  0  0  0  0  0  0  0  0  0  0  0
   49.1490   30.4470   38.9640 C   0  0  0  0  0  0  0  0  0  0  0  0
   46.8433   33.8918   41.6768 H   0  0  0  0  0  0  0  0  0  0  0  0
   48.7465   35.5567   40.6099 H   0  0  0  0  0  0  0  0  0  0  0  0
   48.5207   36.6391   41.7050 H   0  0  0  0  0  0  0  0  0  0  0  0
   49.5595   34.3163   43.5363 H   0  0  0  0  0  0  0  0  0  0  0  0
   45.4524   33.4767   46.0384 H   0  0  0  0  0  0  0  0  0  0  0  0
   43.8380   35.4287   45.8796 H   0  0  0  0  0  0  0  0  0  0  0  0
   44.0427   36.9741   43.8790 H   0  0  0  0  0  0  0  0  0  0  0  0
   50.9589   29.8828   39.8462 H   0  0  0  0  0  0  0  0  0  0  0  0
   52.3369   31.7467   38.6822 H   0  0  0  0  0  0  0  0  0  0  0  0
   51.7120   30.4093   37.6587 H   0  0  0  0  0  0  0  0  0  0  0  0
   50.8832   32.0029   37.6587 H   0  0  0  0  0  0  0  0  0  0  0  0
   48.5000   30.2774   39.8358 H   0  0  0  0  0  0  0  0  0  0  0  0
   48.7406   31.2686   38.3572 H   0  0  0  0  0  0  0  0  0  0  0  0
   49.1948   29.5307   38.3572 H   0  0  0  0  0  0  0  0  0  0  0  0
  1  3  1  0
  1  8  1  0
  2  1  1  0
  2  3  1  0
  5  4  2  0
  6  5  1  0
  7  8  1  0
  7  6  2  0
  8  9  2  0
  9  4  1  0
 10 11  2  0
 10  3  1  0
 12 11  1  0
 13 14  2  0
 13 12  1  0
 14 10  1  0
 15 13  1  0
 16 15  1  0
 17 15  1  0
  1 18  1  6
  2 19  1  0
  2 20  1  0
  3 21  1  1
  4 22  1  0
  5 23  1  0
  6 24  1  0
 15 25  1  0
 16 26  1  0
 16 27  1  0
 16 28  1  0
 17 29  1  0
 17 30  1  0
 17 31  1  0
M  ISO  8  18  13  19  13  20  13  21  13  22  14  23  14  24  14  25   8
M  ISO  6  26   8  27   8  28   8  29   8  30   8  31   8
M  END
>  <minimizedAffinity>  (1) 
-4.76950359

>  <minimizedRMSD>  (1) 
0.0992077813

$$$$
