
     RDKit          3D

 23 25  0  0  1  0  0  0  0  0999 V2000
   47.5870   34.5200   42.1670 C   0  0  1  0  0  0  0  0  0  0  0  0
   48.5000   35.5020   41.6410 C   0  0  0  0  0  0  0  0  0  0  0  0
   49.0240   34.3770   42.5580 C   0  0  2  0  0  0  0  0  0  0  0  0
   45.5140   34.1800   45.1640 C   0  0  0  0  0  0  0  0  0  0  0  0
   44.6040   35.2750   45.0770 C   0  0  0  0  0  0  0  0  0  0  0  0
   44.7340   36.1160   43.9680 C   0  0  0  0  0  0  0  0  0  0  0  0
   45.7140   35.8410   43.0440 N   0  0  0  0  0  0  0  0  0  0  0  0
   46.5450   34.7850   43.1870 C   0  0  0  0  0  0  0  0  0  0  0  0
   46.4660   33.9570   44.2170 N   0  0  0  0  0  0  0  0  0  0  0  0
   49.7940   33.3370   41.8160 C   0  0  0  0  0  0  0  0  0  0  0  0
   51.0800   33.0330   42.0580 N   0  0  0  0  0  0  0  0  0  0  0  0
   51.5100   32.1050   41.3040 O   0  0  0  0  0  0  0  0  0  0  0  0
   50.5190   31.7570   40.5300 C   0  0  0  0  0  0  0  0  0  0  0  0
   49.4130   32.5050   40.8140 N   0  0  0  0  0  0  0  0  0  0  0  0
   50.3300   30.8180   39.5020 O   0  0  0  0  0  0  0  0  0  0  0  0
   46.8397   33.8786   41.6770 H   0  0  0  0  0  0  0  0  0  0  0  0
   48.7519   35.5006   40.5702 H   0  0  0  0  0  0  0  0  0  0  0  0
   48.5508   36.6008   41.6519 H   0  0  0  0  0  0  0  0  0  0  0  0
   49.5736   34.2877   43.5067 H   0  0  0  0  0  0  0  0  0  0  0  0
   45.4443   33.4953   46.0221 H   0  0  0  0  0  0  0  0  0  0  0  0
   43.8367   35.4493   45.8457 H   0  0  0  0  0  0  0  0  0  0  0  0
   44.0659   36.9800   43.8374 H   0  0  0  0  0  0  0  0  0  0  0  0
   51.0766   30.2294   39.2258 H   0  0  0  0  0  0  0  0  0  0  0  0
  1  3  1  0
  1  8  1  0
  2  1  1  0
  2  3  1  0
  5  4  2  0
  6  5  1  0
  7  8  1  0
  7  6  2  0
  8  9  2  0
  9  4  1  0
 10 11  2  0
 10  3  1  0
 12 11  1  0
 13 14  2  0
 13 12  1  0
 14 10  1  0
 15 13  1  0
  1 16  1  6
  2 17  1  0
  2 18  1  0
  3 19  1  1
  4 20  1  0
  5 21  1  0
  6 22  1  0
 15 23  1  0
M  ISO  8  16  13  17  13  18  13  19  13  20  14  21  14  22  14  23   3
M  END
>  <minimizedAffinity>  (1) 
-4.76196623

>  <minimizedRMSD>  (1) 
0.0208886843

$$$$
