
     RDKit          3D

 24 26  0  0  1  0  0  0  0  0999 V2000
   47.5890   34.5150   42.1680 C   0  0  1  0  0  0  0  0  0  0  0  0
   48.4980   35.5000   41.6410 C   0  0  0  0  0  0  0  0  0  0  0  0
   49.0260   34.3730   42.5600 C   0  0  2  0  0  0  0  0  0  0  0  0
   45.5070   34.1870   45.1640 C   0  0  0  0  0  0  0  0  0  0  0  0
   44.6040   35.2760   45.0730 C   0  0  0  0  0  0  0  0  0  0  0  0
   44.7370   36.1140   43.9620 C   0  0  0  0  0  0  0  0  0  0  0  0
   45.7160   35.8350   43.0450 N   0  0  0  0  0  0  0  0  0  0  0  0
   46.5460   34.7820   43.1870 C   0  0  0  0  0  0  0  0  0  0  0  0
   46.4620   33.9580   44.2190 N   0  0  0  0  0  0  0  0  0  0  0  0
   49.7970   33.3380   41.8260 C   0  0  0  0  0  0  0  0  0  0  0  0
   51.0870   33.0380   42.0590 N   0  0  0  0  0  0  0  0  0  0  0  0
   51.5130   32.1020   41.2940 O   0  0  0  0  0  0  0  0  0  0  0  0
   50.5270   31.7560   40.5380 C   0  0  0  0  0  0  0  0  0  0  0  0
   49.4210   32.5000   40.8270 N   0  0  0  0  0  0  0  0  0  0  0  0
   50.5450   30.7490   39.5320 N   0  0  0  0  0  0  0  0  0  0  0  0
   46.8443   33.8700   41.6787 H   0  0  0  0  0  0  0  0  0  0  0  0
   48.7492   35.4995   40.5701 H   0  0  0  0  0  0  0  0  0  0  0  0
   48.5458   36.5989   41.6516 H   0  0  0  0  0  0  0  0  0  0  0  0
   49.5757   34.2843   43.5087 H   0  0  0  0  0  0  0  0  0  0  0  0
   45.4346   33.5054   46.0243 H   0  0  0  0  0  0  0  0  0  0  0  0
   43.8355   35.4531   45.8398 H   0  0  0  0  0  0  0  0  0  0  0  0
   44.0703   36.9784   43.8270 H   0  0  0  0  0  0  0  0  0  0  0  0
   51.4075   30.2151   39.3532 H   0  0  0  0  0  0  0  0  0  0  0  0
   49.6956   30.5543   38.9829 H   0  0  0  0  0  0  0  0  0  0  0  0
  1  3  1  0
  1  8  1  0
  2  1  1  0
  2  3  1  0
  5  4  2  0
  6  5  1  0
  7  8  1  0
  7  6  2  0
  8  9  2  0
  9  4  1  0
 10 11  2  0
 10  3  1  0
 12 11  1  0
 13 14  2  0
 13 12  1  0
 14 10  1  0
 15 13  1  0
  1 16  1  6
  2 17  1  0
  2 18  1  0
  3 19  1  1
  4 20  1  0
  5 21  1  0
  6 22  1  0
 15 23  1  0
 15 24  1  0
M  ISO  7  16  13  17  13  18  13  19  13  20  14  21  14  22  14
M  END
>  <minimizedAffinity>  (1) 
-4.75980091

>  <minimizedRMSD>  (1) 
0.0148063283

$$$$
