
     RDKit          3D

 17 18  0  0  0  0  0  0  0  0999 V2000
   44.3930   35.3200   44.1330 C   0  0  0  0  0  0  0  0  0  0  0  0
   44.5870   34.2620   43.2210 C   0  0  0  0  0  0  0  0  0  0  0  0
   45.2560   33.1090   43.6530 C   0  0  0  0  0  0  0  0  0  0  0  0
   45.6860   33.0750   44.9360 N   0  0  0  0  0  0  0  0  0  0  0  0
   45.4880   34.1000   45.7870 C   0  0  0  0  0  0  0  0  0  0  0  0
   44.8460   35.2110   45.3830 N   0  0  0  0  0  0  0  0  0  0  0  0
   44.0730   34.4540   41.8980 N   0  0  0  0  0  0  0  0  0  0  0  0
   43.3540   35.4630   41.3560 C   0  0  0  0  0  0  0  0  0  0  0  0
   43.0960   35.2020   40.0670 N   0  0  0  0  0  0  0  0  0  0  0  0
   43.6640   34.0070   39.7930 C   0  0  0  0  0  0  0  0  0  0  0  0
   44.2560   33.5700   40.9340 N   0  0  0  0  0  0  0  0  0  0  0  0
   43.7430   33.0150   38.2980 S   0  0  0  0  0  0  0  0  0  0  0  0
   43.8692   36.2333   43.8143 H   0  0  0  0  0  0  0  0  0  0  0  0
   45.4258   32.2611   42.9732 H   0  0  0  0  0  0  0  0  0  0  0  0
   45.8545   34.0280   46.8216 H   0  0  0  0  0  0  0  0  0  0  0  0
   43.0286   36.3655   41.8941 H   0  0  0  0  0  0  0  0  0  0  0  0
   43.8484   31.6909   38.6336 H   0  0  0  0  0  0  0  0  0  0  0  0
  1  6  2  0
  2  3  2  0
  2  1  1  0
  3  4  1  0
  4  5  2  0
  6  5  1  0
  7  2  1  0
  8  7  1  0
  9  8  2  0
 10  9  1  0
 10 11  2  0
 11  7  1  0
 12 10  1  0
  1 13  1  0
  3 14  1  0
  5 15  1  0
  8 16  1  0
 12 17  1  0
M  ISO  5  13  14  14  14  15  14  16  14  17  11
M  END
>  <minimizedAffinity>  (1) 
-3.2292695

>  <minimizedRMSD>  (1) 
0.0997624546

$$$$
