
     RDKit          3D

 43 48  0  0  1  0  0  0  0  0999 V2000
   49.0660   33.2260   41.0020 C   0  0  0  0  0  0  0  0  0  0  0  0
   50.0360   32.3100   41.0560 N   0  0  0  0  0  0  0  0  0  0  0  0
   50.1980   31.7280   39.9120 O   0  0  0  0  0  0  0  0  0  0  0  0
   49.3460   32.2430   39.0860 C   0  0  0  0  0  0  0  0  0  0  0  0
   48.6120   33.1900   39.7270 N   0  0  0  0  0  0  0  0  0  0  0  0
   49.1730   31.8880   37.6820 C   0  0  0  0  0  0  0  0  0  0  0  0
   47.9810   31.7430   37.0240 C   0  0  0  0  0  0  0  0  0  0  0  0
   48.2560   31.4010   35.7060 C   0  0  0  0  0  0  0  0  0  0  0  0
   49.5790   31.3470   35.5940 N   0  0  0  0  0  0  0  0  0  0  0  0
   50.1500   31.6370   36.7770 N   0  0  0  0  0  0  0  0  0  0  0  0
   50.2410   31.0230   34.3740 C   0  0  0  0  0  0  0  0  0  0  0  0
   51.3710   30.2760   34.5050 N   0  0  0  0  0  0  0  0  0  0  0  0
   52.0860   29.9050   33.4150 C   0  0  0  0  0  0  0  0  0  0  0  0
   51.7040   30.2620   32.1660 N   0  0  0  0  0  0  0  0  0  0  0  0
   50.5860   31.0050   31.9980 C   0  0  0  0  0  0  0  0  0  0  0  0
   50.1200   31.4160   30.7470 C   0  0  0  0  0  0  0  0  0  0  0  0
   48.9610   32.1780   30.6590 C   0  0  0  0  0  0  0  0  0  0  0  0
   48.2410   32.5510   31.7730 C   0  0  0  0  0  0  0  0  0  0  0  0
   48.7110   32.1360   33.0220 C   0  0  0  0  0  0  0  0  0  0  0  0
   49.8460   31.3910   33.0960 C   0  0  0  0  0  0  0  0  0  0  0  0
   47.3510   34.8150   41.9750 C   0  0  1  0  0  0  0  0  0  0  0  0
   48.5500   35.5790   41.8030 C   0  0  0  0  0  0  0  0  0  0  0  0
   48.6190   34.0650   42.1500 C   0  0  2  0  0  0  0  0  0  0  0  0
   45.5310   34.1730   45.0780 C   0  0  0  0  0  0  0  0  0  0  0  0
   44.6150   35.2650   45.1690 C   0  0  0  0  0  0  0  0  0  0  0  0
   44.6540   36.1970   44.1430 C   0  0  0  0  0  0  0  0  0  0  0  0
   45.5510   36.0150   43.1310 N   0  0  0  0  0  0  0  0  0  0  0  0
   46.3890   34.9660   43.1000 C   0  0  0  0  0  0  0  0  0  0  0  0
   46.4030   34.0490   44.0380 N   0  0  0  0  0  0  0  0  0  0  0  0
   46.9807   31.8743   37.4623 H   0  0  0  0  0  0  0  0  0  0  0  0
   47.5212   31.2116   34.9096 H   0  0  0  0  0  0  0  0  0  0  0  0
   52.9958   29.3012   33.5478 H   0  0  0  0  0  0  0  0  0  0  0  0
   50.6683   31.1376   29.8349 H   0  0  0  0  0  0  0  0  0  0  0  0
   48.6066   32.4939   29.6667 H   0  0  0  0  0  0  0  0  0  0  0  0
   47.3265   33.1555   31.6823 H   0  0  0  0  0  0  0  0  0  0  0  0
   48.1670   32.4099   33.9380 H   0  0  0  0  0  0  0  0  0  0  0  0
   46.4633   34.7051   41.3348 H   0  0  0  0  0  0  0  0  0  0  0  0
   48.8420   35.9294   40.8020 H   0  0  0  0  0  0  0  0  0  0  0  0
   48.9590   36.5008   42.2424 H   0  0  0  0  0  0  0  0  0  0  0  0
   49.0415   33.4189   42.9336 H   0  0  0  0  0  0  0  0  0  0  0  0
   45.5327   33.4099   45.8703 H   0  0  0  0  0  0  0  0  0  0  0  0
   43.9137   35.3619   46.0109 H   0  0  0  0  0  0  0  0  0  0  0  0
   43.9768   37.0638   44.1449 H   0  0  0  0  0  0  0  0  0  0  0  0
  1  2  2  0
  1 23  1  0
  3  2  1  0
  4  5  2  0
  4  3  1  0
  5  1  1  0
  6  4  1  0
  7  6  1  0
  8  7  2  0
  9  8  1  0
  9 10  1  0
 10  6  2  0
 11 12  2  0
 11  9  1  0
 13 12  1  0
 14 13  2  0
 15 14  1  0
 15 20  2  0
 16 15  1  0
 17 16  2  0
 17 18  1  0
 18 19  2  0
 19 20  1  0
 20 11  1  0
 21 23  1  0
 21 28  1  0
 22 21  1  0
 22 23  1  0
 24 25  2  0
 26 25  1  0
 27 26  2  0
 28 27  1  0
 28 29  2  0
 29 24  1  0
  7 30  1  0
  8 31  1  0
 13 32  1  0
 16 33  1  0
 17 34  1  0
 18 35  1  0
 19 36  1  0
 21 37  1  6
 22 38  1  0
 22 39  1  0
 23 40  1  1
 24 41  1  0
 25 42  1  0
 26 43  1  0
M  ISO  8  30  14  31  14  32  14  33  14  34  14  35  14  36  14  37  13
M  ISO  6  38  13  39  13  40  13  41  14  42  14  43  14
M  END
>  <minimizedAffinity>  (1) 
-6.70276642

>  <minimizedRMSD>  (1) 
4.56674433

$$$$
