
     RDKit          3D

 42 46  0  0  1  0  0  0  0  0999 V2000
   49.7980   33.3600   41.7830 C   0  0  0  0  0  0  0  0  0  0  0  0
   51.0430   32.9580   42.0470 N   0  0  0  0  0  0  0  0  0  0  0  0
   51.4460   32.0740   41.1980 O   0  0  0  0  0  0  0  0  0  0  0  0
   50.4740   31.8770   40.3590 C   0  0  0  0  0  0  0  0  0  0  0  0
   49.4090   32.6590   40.6750 N   0  0  0  0  0  0  0  0  0  0  0  0
   47.6230   34.5910   42.1880 C   0  0  1  0  0  0  0  0  0  0  0  0
   48.5560   35.5760   41.7360 C   0  0  0  0  0  0  0  0  0  0  0  0
   49.0360   34.3640   42.5800 C   0  0  2  0  0  0  0  0  0  0  0  0
   45.5310   34.1510   45.1520 C   0  0  0  0  0  0  0  0  0  0  0  0
   44.6050   35.2180   45.0870 C   0  0  0  0  0  0  0  0  0  0  0  0
   44.7240   36.0820   44.0030 C   0  0  0  0  0  0  0  0  0  0  0  0
   45.7150   35.8430   43.0850 N   0  0  0  0  0  0  0  0  0  0  0  0
   46.5630   34.8070   43.2090 C   0  0  0  0  0  0  0  0  0  0  0  0
   46.4970   33.9610   44.2090 N   0  0  0  0  0  0  0  0  0  0  0  0
   50.4920   30.9560   39.2280 C   0  0  0  0  0  0  0  0  0  0  0  0
   51.3980   29.9450   39.0410 C   0  0  0  0  0  0  0  0  0  0  0  0
   51.0740   29.2910   37.8500 C   0  0  0  0  0  0  0  0  0  0  0  0
   49.9890   29.9220   37.3550 N   0  0  0  0  0  0  0  0  0  0  0  0
   49.6360   30.9250   38.1820 N   0  0  0  0  0  0  0  0  0  0  0  0
   47.4290   29.6330   34.1020 C   0  0  0  0  0  0  0  0  0  0  0  0
   47.1220   30.4820   35.1700 C   0  0  0  0  0  0  0  0  0  0  0  0
   48.0290   30.5290   36.2320 C   0  0  0  0  0  0  0  0  0  0  0  0
   49.1870   29.7440   36.1910 C   0  0  0  0  0  0  0  0  0  0  0  0
   49.4620   28.9150   35.1220 C   0  0  0  0  0  0  0  0  0  0  0  0
   48.5730   28.8610   34.0680 C   0  0  0  0  0  0  0  0  0  0  0  0
   46.2680   29.5930   32.7770 S   0  0  0  0  0  0  0  0  0  0  0  0
   44.9150   30.0950   33.2600 O   0  0  0  0  0  0  0  0  0  0  0  0
   46.0510   28.1490   32.3970 O   0  0  0  0  0  0  0  0  0  0  0  0
   46.8619   34.0100   41.6467 H   0  0  0  0  0  0  0  0  0  0  0  0
   48.8147   35.6419   40.6689 H   0  0  0  0  0  0  0  0  0  0  0  0
   48.6399   36.6694   41.8218 H   0  0  0  0  0  0  0  0  0  0  0  0
   49.5653   34.1805   43.5267 H   0  0  0  0  0  0  0  0  0  0  0  0
   45.4694   33.4477   45.9955 H   0  0  0  0  0  0  0  0  0  0  0  0
   43.8298   35.3577   45.8548 H   0  0  0  0  0  0  0  0  0  0  0  0
   44.0404   36.9356   43.8850 H   0  0  0  0  0  0  0  0  0  0  0  0
   52.2333   29.6929   39.7108 H   0  0  0  0  0  0  0  0  0  0  0  0
   51.5987   28.4329   37.4046 H   0  0  0  0  0  0  0  0  0  0  0  0
   46.2040   31.0881   35.1739 H   0  0  0  0  0  0  0  0  0  0  0  0
   47.8337   31.1803   37.0967 H   0  0  0  0  0  0  0  0  0  0  0  0
   50.3777   28.3055   35.1105 H   0  0  0  0  0  0  0  0  0  0  0  0
   48.7745   28.2073   33.2066 H   0  0  0  0  0  0  0  0  0  0  0  0
   46.7410   30.3574   31.7432 H   0  0  0  0  0  0  0  0  0  0  0  0
  1  2  2  0
  1  8  1  0
  3  2  1  0
  4  5  2  0
  4  3  1  0
  5  1  1  0
  6  8  1  0
  6 13  1  0
  7  6  1  0
  7  8  1  0
 10  9  2  0
 11 10  1  0
 12 13  1  0
 12 11  2  0
 13 14  2  0
 14  9  1  0
 15  4  1  0
 16 15  1  0
 17 16  2  0
 18 17  1  0
 18 19  1  0
 19 15  2  0
 20 21  2  0
 21 22  1  0
 23 22  2  0
 23 18  1  0
 24 23  1  0
 25 20  1  0
 25 24  2  0
 26 27  2  0
 26 20  1  0
 28 26  2  0
  6 29  1  6
  7 30  1  0
  7 31  1  0
  8 32  1  1
  9 33  1  0
 10 34  1  0
 11 35  1  0
 16 36  1  0
 17 37  1  0
 21 38  1  0
 22 39  1  0
 24 40  1  0
 25 41  1  0
 26 42  1  0
M  ISO  8  29  13  30  13  31  13  32  13  33  14  34  14  35  14  36  14
M  ISO  6  37  14  38  14  39  14  40  14  41  14  42  11
M  END
>  <minimizedAffinity>  (1) 
-5.31191015

>  <minimizedRMSD>  (1) 
4.14452744

$$$$
