
     RDKit          3D

 41 44  0  0  1  0  0  0  0  0999 V2000
   47.6050   34.5430   42.1910 C   0  0  1  0  0  0  0  0  0  0  0  0
   48.4920   35.5330   41.6600 C   0  0  0  0  0  0  0  0  0  0  0  0
   49.0300   34.4030   42.5800 C   0  0  2  0  0  0  0  0  0  0  0  0
   45.5090   34.1760   45.1630 C   0  0  0  0  0  0  0  0  0  0  0  0
   44.6020   35.2510   45.0840 C   0  0  0  0  0  0  0  0  0  0  0  0
   44.7300   36.0960   43.9910 C   0  0  0  0  0  0  0  0  0  0  0  0
   45.7130   35.8330   43.0740 N   0  0  0  0  0  0  0  0  0  0  0  0
   46.5470   34.7880   43.2090 C   0  0  0  0  0  0  0  0  0  0  0  0
   46.4720   33.9580   44.2230 N   0  0  0  0  0  0  0  0  0  0  0  0
   49.8270   33.3780   41.8430 C   0  0  0  0  0  0  0  0  0  0  0  0
   51.0890   33.0470   42.1130 N   0  0  0  0  0  0  0  0  0  0  0  0
   51.5200   32.1210   41.3210 O   0  0  0  0  0  0  0  0  0  0  0  0
   50.5550   31.8240   40.5160 C   0  0  0  0  0  0  0  0  0  0  0  0
   49.4660   32.5870   40.8010 N   0  0  0  0  0  0  0  0  0  0  0  0
   50.5890   30.8280   39.4500 C   0  0  0  0  0  0  0  0  0  0  0  0
   50.2650   31.0530   38.1390 C   0  0  0  0  0  0  0  0  0  0  0  0
   50.4240   29.8580   37.4420 C   0  0  0  0  0  0  0  0  0  0  0  0
   50.8370   28.9560   38.3460 N   0  0  0  0  0  0  0  0  0  0  0  0
   50.9370   29.5240   39.5400 N   0  0  0  0  0  0  0  0  0  0  0  0
   51.1430   27.5560   38.1130 C   0  0  0  0  0  0  0  0  0  0  0  0
   52.3730   27.0990   38.8550 C   0  0  0  0  0  0  0  0  0  0  0  0
   49.9630   26.6820   38.4730 C   0  0  0  0  0  0  0  0  0  0  0  0
   51.4180   27.3390   36.6370 C   0  0  0  0  0  0  0  0  0  0  0  0
   46.8643   33.8939   41.7010 H   0  0  0  0  0  0  0  0  0  0  0  0
   48.7377   35.5352   40.5878 H   0  0  0  0  0  0  0  0  0  0  0  0
   48.5307   36.6323   41.6689 H   0  0  0  0  0  0  0  0  0  0  0  0
   49.5751   34.3076   43.5307 H   0  0  0  0  0  0  0  0  0  0  0  0
   45.4374   33.4856   46.0164 H   0  0  0  0  0  0  0  0  0  0  0  0
   43.8303   35.4125   45.8511 H   0  0  0  0  0  0  0  0  0  0  0  0
   44.0576   36.9572   43.8638 H   0  0  0  0  0  0  0  0  0  0  0  0
   49.9362   32.0113   37.7106 H   0  0  0  0  0  0  0  0  0  0  0  0
   50.2472   29.6880   36.3697 H   0  0  0  0  0  0  0  0  0  0  0  0
   52.1937   27.1656   39.9382 H   0  0  0  0  0  0  0  0  0  0  0  0
   52.5986   26.0570   38.5841 H   0  0  0  0  0  0  0  0  0  0  0  0
   53.2243   27.7409   38.5841 H   0  0  0  0  0  0  0  0  0  0  0  0
   49.8753   26.6170   39.5676 H   0  0  0  0  0  0  0  0  0  0  0  0
   49.0430   27.1183   38.0567 H   0  0  0  0  0  0  0  0  0  0  0  0
   50.1122   25.6748   38.0567 H   0  0  0  0  0  0  0  0  0  0  0  0
   52.2766   26.6615   36.5197 H   0  0  0  0  0  0  0  0  0  0  0  0
   50.5320   26.8940   36.1605 H   0  0  0  0  0  0  0  0  0  0  0  0
   51.6448   28.3042   36.1605 H   0  0  0  0  0  0  0  0  0  0  0  0
  1  3  1  0
  1  8  1  0
  2  1  1  0
  2  3  1  0
  5  4  2  0
  6  5  1  0
  7  8  1  0
  7  6  2  0
  8  9  2  0
  9  4  1  0
 10 11  2  0
 10  3  1  0
 12 11  1  0
 13 14  2  0
 13 12  1  0
 14 10  1  0
 15 19  2  0
 15 13  1  0
 16 15  1  0
 17 16  2  0
 17 18  1  0
 18 19  1  0
 20 18  1  0
 20 22  1  0
 20 21  1  0
 23 20  1  0
  1 24  1  6
  2 25  1  0
  2 26  1  0
  3 27  1  1
  4 28  1  0
  5 29  1  0
  6 30  1  0
 16 31  1  0
 17 32  1  0
 21 33  1  0
 21 34  1  0
 21 35  1  0
 22 36  1  0
 22 37  1  0
 22 38  1  0
 23 39  1  0
 23 40  1  0
 23 41  1  0
M  ISO  8  24  13  25  13  26  13  27  13  28  14  29  14  30  14  31  14
M  ISO  8  32  14  33   8  34   8  35   8  36   8  37   8  38   8  39   8
M  ISO  2  40   8  41   8
M  END
>  <minimizedAffinity>  (1) 
-4.6438489

>  <minimizedRMSD>  (1) 
0.518678606

$$$$
