
     RDKit          3D

 42 46  0  0  1  0  0  0  0  0999 V2000
   49.8420   33.4020   41.8340 C   0  0  0  0  0  0  0  0  0  0  0  0
   51.0840   33.0290   42.1430 N   0  0  0  0  0  0  0  0  0  0  0  0
   51.5290   32.1280   41.3320 O   0  0  0  0  0  0  0  0  0  0  0  0
   50.5930   31.8880   40.4750 C   0  0  0  0  0  0  0  0  0  0  0  0
   49.5070   32.6620   40.7430 N   0  0  0  0  0  0  0  0  0  0  0  0
   47.6130   34.5530   42.1880 C   0  0  1  0  0  0  0  0  0  0  0  0
   48.5030   35.5490   41.6700 C   0  0  0  0  0  0  0  0  0  0  0  0
   49.0370   34.4120   42.5790 C   0  0  2  0  0  0  0  0  0  0  0  0
   45.5180   34.1580   45.1530 C   0  0  0  0  0  0  0  0  0  0  0  0
   44.6030   35.2320   45.0750 C   0  0  0  0  0  0  0  0  0  0  0  0
   44.7280   36.0830   43.9870 C   0  0  0  0  0  0  0  0  0  0  0  0
   45.7140   35.8340   43.0710 N   0  0  0  0  0  0  0  0  0  0  0  0
   46.5540   34.7920   43.2050 C   0  0  0  0  0  0  0  0  0  0  0  0
   46.4840   33.9530   44.2130 N   0  0  0  0  0  0  0  0  0  0  0  0
   50.6520   30.9350   39.3680 C   0  0  0  0  0  0  0  0  0  0  0  0
   49.5860   30.2680   38.8230 C   0  0  0  0  0  0  0  0  0  0  0  0
   50.0690   29.4600   37.7960 C   0  0  0  0  0  0  0  0  0  0  0  0
   51.3940   29.6580   37.7460 N   0  0  0  0  0  0  0  0  0  0  0  0
   51.7530   30.5400   38.6840 N   0  0  0  0  0  0  0  0  0  0  0  0
   52.1820   28.9410   36.7580 C   0  0  0  0  0  0  0  0  0  0  0  0
   52.1660   29.5890   35.4160 C   0  0  0  0  0  0  0  0  0  0  0  0
   53.6180   29.5040   34.9910 C   0  0  0  0  0  0  0  0  0  0  0  0
   54.3320   29.8420   36.3010 C   0  0  0  0  0  0  0  0  0  0  0  0
   53.6090   28.9100   37.2570 C   0  0  0  0  0  0  0  0  0  0  0  0
   46.8747   33.9068   41.6906 H   0  0  0  0  0  0  0  0  0  0  0  0
   48.7527   35.5619   40.5988 H   0  0  0  0  0  0  0  0  0  0  0  0
   48.5416   36.6481   41.6902 H   0  0  0  0  0  0  0  0  0  0  0  0
   49.5766   34.3054   43.5316 H   0  0  0  0  0  0  0  0  0  0  0  0
   45.4484   33.4626   46.0024 H   0  0  0  0  0  0  0  0  0  0  0  0
   43.8284   35.3858   45.8408 H   0  0  0  0  0  0  0  0  0  0  0  0
   44.0493   36.9397   43.8629 H   0  0  0  0  0  0  0  0  0  0  0  0
   48.5363   30.3551   39.1399 H   0  0  0  0  0  0  0  0  0  0  0  0
   49.4790   28.7909   37.1524 H   0  0  0  0  0  0  0  0  0  0  0  0
   51.7498   27.9368   36.6368 H   0  0  0  0  0  0  0  0  0  0  0  0
   51.5153   29.0415   34.7183 H   0  0  0  0  0  0  0  0  0  0  0  0
   51.7738   30.6166   35.4308 H   0  0  0  0  0  0  0  0  0  0  0  0
   53.8767   28.4941   34.6400 H   0  0  0  0  0  0  0  0  0  0  0  0
   53.8814   30.1629   34.1505 H   0  0  0  0  0  0  0  0  0  0  0  0
   55.4071   29.6155   36.2479 H   0  0  0  0  0  0  0  0  0  0  0  0
   54.2968   30.9050   36.5818 H   0  0  0  0  0  0  0  0  0  0  0  0
   53.6731   29.2788   38.2913 H   0  0  0  0  0  0  0  0  0  0  0  0
   54.0367   27.8967   37.2772 H   0  0  0  0  0  0  0  0  0  0  0  0
  1  2  2  0
  1  8  1  0
  3  2  1  0
  4  5  2  0
  4  3  1  0
  5  1  1  0
  6  8  1  0
  6 13  1  0
  7  6  1  0
  7  8  1  0
 10  9  2  0
 11 10  1  0
 12 13  1  0
 12 11  2  0
 13 14  2  0
 14  9  1  0
 15  4  1  0
 16 15  1  0
 17 16  2  0
 18 17  1  0
 18 19  1  0
 19 15  2  0
 20 24  1  0
 20 18  1  0
 21 20  1  0
 22 21  1  0
 22 23  1  0
 23 24  1  0
  6 25  1  6
  7 26  1  0
  7 27  1  0
  8 28  1  1
  9 29  1  0
 10 30  1  0
 11 31  1  0
 16 32  1  0
 17 33  1  0
 20 34  1  0
 21 35  1  0
 21 36  1  0
 22 37  1  0
 22 38  1  0
 23 39  1  0
 23 40  1  0
 24 41  1  0
 24 42  1  0
M  ISO  8  25  13  26  13  27  13  28  13  29  14  30  14  31  14  32  14
M  ISO  8  33  14  34  13  35  13  36  13  37  13  38  13  39  13  40  13
M  ISO  2  41  13  42  13
M  END
>  <minimizedAffinity>  (1) 
-5.02936649

>  <minimizedRMSD>  (1) 
1.81655145

$$$$
