
     RDKit          3D

 39 43  0  0  1  0  0  0  0  0999 V2000
   49.8230   33.3760   41.8390 C   0  0  0  0  0  0  0  0  0  0  0  0
   51.0860   33.0410   42.1080 N   0  0  0  0  0  0  0  0  0  0  0  0
   51.5110   32.1200   41.3110 O   0  0  0  0  0  0  0  0  0  0  0  0
   50.5460   31.8290   40.5050 C   0  0  0  0  0  0  0  0  0  0  0  0
   49.4540   32.5880   40.7890 N   0  0  0  0  0  0  0  0  0  0  0  0
   47.6060   34.5450   42.1920 C   0  0  1  0  0  0  0  0  0  0  0  0
   48.4940   35.5350   41.6610 C   0  0  0  0  0  0  0  0  0  0  0  0
   49.0300   34.3990   42.5800 C   0  0  2  0  0  0  0  0  0  0  0  0
   45.5160   34.1670   45.1680 C   0  0  0  0  0  0  0  0  0  0  0  0
   44.5980   35.2520   45.0860 C   0  0  0  0  0  0  0  0  0  0  0  0
   44.7310   36.0940   43.9910 C   0  0  0  0  0  0  0  0  0  0  0  0
   45.7130   35.8450   43.0660 N   0  0  0  0  0  0  0  0  0  0  0  0
   46.5500   34.7890   43.2130 C   0  0  0  0  0  0  0  0  0  0  0  0
   46.4800   33.9530   44.2250 N   0  0  0  0  0  0  0  0  0  0  0  0
   50.5790   30.8350   39.4320 C   0  0  0  0  0  0  0  0  0  0  0  0
   50.9250   31.0670   38.1260 C   0  0  0  0  0  0  0  0  0  0  0  0
   50.8280   29.8770   37.4440 C   0  0  0  0  0  0  0  0  0  0  0  0
   50.4340   28.9510   38.3100 N   0  0  0  0  0  0  0  0  0  0  0  0
   50.2790   29.5230   39.5210 N   0  0  0  0  0  0  0  0  0  0  0  0
   50.2040   27.5580   38.0150 C   0  0  0  0  0  0  0  0  0  0  0  0
   49.7140   27.3100   36.7470 C   0  0  0  0  0  0  0  0  0  0  0  0
   49.4720   25.9960   36.3980 C   0  0  0  0  0  0  0  0  0  0  0  0
   49.6900   24.9060   37.2460 C   0  0  0  0  0  0  0  0  0  0  0  0
   50.1800   25.2380   38.4940 C   0  0  0  0  0  0  0  0  0  0  0  0
   50.4430   26.5300   38.9040 C   0  0  0  0  0  0  0  0  0  0  0  0
   46.8632   33.8996   41.7004 H   0  0  0  0  0  0  0  0  0  0  0  0
   48.7384   35.5387   40.5885 H   0  0  0  0  0  0  0  0  0  0  0  0
   48.5355   36.6342   41.6716 H   0  0  0  0  0  0  0  0  0  0  0  0
   49.5746   34.2986   43.5305 H   0  0  0  0  0  0  0  0  0  0  0  0
   45.4462   33.4765   46.0214 H   0  0  0  0  0  0  0  0  0  0  0  0
   43.8239   35.4144   45.8505 H   0  0  0  0  0  0  0  0  0  0  0  0
   44.0554   36.9530   43.8659 H   0  0  0  0  0  0  0  0  0  0  0  0
   51.2270   32.0347   37.6989 H   0  0  0  0  0  0  0  0  0  0  0  0
   51.0385   29.7207   36.3757 H   0  0  0  0  0  0  0  0  0  0  0  0
   49.5233   28.1309   36.0401 H   0  0  0  0  0  0  0  0  0  0  0  0
   49.0831   25.7941   35.3890 H   0  0  0  0  0  0  0  0  0  0  0  0
   49.4876   23.8679   36.9437 H   0  0  0  0  0  0  0  0  0  0  0  0
   50.3728   24.4219   39.2059 H   0  0  0  0  0  0  0  0  0  0  0  0
   50.8326   26.7343   39.9122 H   0  0  0  0  0  0  0  0  0  0  0  0
  1  2  2  0
  1  8  1  0
  3  2  1  0
  4  5  2  0
  4  3  1  0
  5  1  1  0
  6  8  1  0
  6 13  1  0
  7  6  1  0
  7  8  1  0
 10  9  2  0
 11 10  1  0
 12 13  1  0
 12 11  2  0
 13 14  2  0
 14  9  1  0
 15 19  2  0
 15  4  1  0
 16 15  1  0
 17 16  2  0
 17 18  1  0
 18 19  1  0
 20 18  1  0
 20 25  1  0
 21 20  2  0
 22 21  1  0
 22 23  2  0
 23 24  1  0
 24 25  2  0
  6 26  1  6
  7 27  1  0
  7 28  1  0
  8 29  1  1
  9 30  1  0
 10 31  1  0
 11 32  1  0
 16 33  1  0
 17 34  1  0
 21 35  1  0
 22 36  1  0
 23 37  1  0
 24 38  1  0
 25 39  1  0
M  ISO  8  26  13  27  13  28  13  29  13  30  14  31  14  32  14  33  14
M  ISO  6  34  14  35  14  36  14  37  14  38  14  39  14
M  END
>  <minimizedAffinity>  (1) 
-4.61334991

>  <minimizedRMSD>  (1) 
0.110009857

$$$$
