
     RDKit          3D

 36 40  0  0  1  0  0  0  0  0999 V2000
   49.8280   33.3800   41.8520 C   0  0  0  0  0  0  0  0  0  0  0  0
   51.0970   33.0660   42.1230 N   0  0  0  0  0  0  0  0  0  0  0  0
   51.5340   32.1370   41.3370 O   0  0  0  0  0  0  0  0  0  0  0  0
   50.5810   31.8230   40.5440 C   0  0  0  0  0  0  0  0  0  0  0  0
   49.4760   32.5770   40.8210 N   0  0  0  0  0  0  0  0  0  0  0  0
   47.5990   34.5390   42.1840 C   0  0  1  0  0  0  0  0  0  0  0  0
   48.4870   35.5290   41.6510 C   0  0  0  0  0  0  0  0  0  0  0  0
   49.0230   34.4020   42.5800 C   0  0  2  0  0  0  0  0  0  0  0  0
   45.5070   34.1720   45.1610 C   0  0  0  0  0  0  0  0  0  0  0  0
   44.5970   35.2680   45.0710 C   0  0  0  0  0  0  0  0  0  0  0  0
   44.7300   36.1070   43.9750 C   0  0  0  0  0  0  0  0  0  0  0  0
   45.7130   35.8360   43.0630 N   0  0  0  0  0  0  0  0  0  0  0  0
   46.5420   34.7850   43.2040 C   0  0  0  0  0  0  0  0  0  0  0  0
   46.4680   33.9550   44.2170 N   0  0  0  0  0  0  0  0  0  0  0  0
   50.6190   30.8170   39.4850 C   0  0  0  0  0  0  0  0  0  0  0  0
   50.1760   30.9830   38.2000 C   0  0  0  0  0  0  0  0  0  0  0  0
   50.3870   29.7920   37.5070 C   0  0  0  0  0  0  0  0  0  0  0  0
   50.9480   28.9480   38.3880 N   0  0  0  0  0  0  0  0  0  0  0  0
   51.0880   29.5490   39.5620 N   0  0  0  0  0  0  0  0  0  0  0  0
   51.3370   27.6070   38.1120 C   0  0  0  0  0  0  0  0  0  0  0  0
   52.0690   27.1570   37.0360 C   0  0  0  0  0  0  0  0  0  0  0  0
   52.2010   25.8430   37.1720 N   0  0  0  0  0  0  0  0  0  0  0  0
   51.5850   25.4320   38.2900 C   0  0  0  0  0  0  0  0  0  0  0  0
   51.0620   26.5200   38.8530 N   0  0  0  0  0  0  0  0  0  0  0  0
   46.8601   33.8898   41.6914 H   0  0  0  0  0  0  0  0  0  0  0  0
   48.7370   35.5264   40.5798 H   0  0  0  0  0  0  0  0  0  0  0  0
   48.5242   36.6284   41.6546 H   0  0  0  0  0  0  0  0  0  0  0  0
   49.5621   34.3094   43.5344 H   0  0  0  0  0  0  0  0  0  0  0  0
   45.4314   33.4831   46.0152 H   0  0  0  0  0  0  0  0  0  0  0  0
   43.8255   35.4392   45.8361 H   0  0  0  0  0  0  0  0  0  0  0  0
   44.0610   36.9700   43.8421 H   0  0  0  0  0  0  0  0  0  0  0  0
   49.7300   31.8992   37.7856 H   0  0  0  0  0  0  0  0  0  0  0  0
   50.1438   29.5858   36.4542 H   0  0  0  0  0  0  0  0  0  0  0  0
   52.4697   27.7717   36.2165 H   0  0  0  0  0  0  0  0  0  0  0  0
   51.5237   24.4006   38.6674 H   0  0  0  0  0  0  0  0  0  0  0  0
   50.5236   26.5272   39.7310 H   0  0  0  0  0  0  0  0  0  0  0  0
  1  2  2  0
  1  8  1  0
  3  2  1  0
  4  5  2  0
  4  3  1  0
  5  1  1  0
  6  8  1  0
  6 13  1  0
  7  6  1  0
  7  8  1  0
 10  9  2  0
 11 10  1  0
 12 13  1  0
 12 11  2  0
 13 14  2  0
 14  9  1  0
 15 19  2  0
 15  4  1  0
 16 15  1  0
 17 16  2  0
 17 18  1  0
 18 19  1  0
 20 18  1  0
 20 24  1  0
 21 22  1  0
 21 20  2  0
 22 23  2  0
 23 24  1  0
  6 25  1  6
  7 26  1  0
  7 27  1  0
  8 28  1  1
  9 29  1  0
 10 30  1  0
 11 31  1  0
 16 32  1  0
 17 33  1  0
 21 34  1  0
 23 35  1  0
 24 36  1  0
M  ISO  8  25  13  26  13  27  13  28  13  29  14  30  14  31  14  32  14
M  ISO  4  33  14  34  14  35  14  36   9
M  END
>  <minimizedAffinity>  (1) 
-4.6234436

>  <minimizedRMSD>  (1) 
0.861213267

$$$$
