
     RDKit          3D

 38 42  0  0  1  0  0  0  0  0999 V2000
   49.8240   33.3710   41.8360 C   0  0  0  0  0  0  0  0  0  0  0  0
   51.0880   33.0460   42.1050 N   0  0  0  0  0  0  0  0  0  0  0  0
   51.5210   32.1180   41.3160 O   0  0  0  0  0  0  0  0  0  0  0  0
   50.5600   31.8140   40.5180 C   0  0  0  0  0  0  0  0  0  0  0  0
   49.4660   32.5770   40.8030 N   0  0  0  0  0  0  0  0  0  0  0  0
   47.6020   34.5400   42.1830 C   0  0  1  0  0  0  0  0  0  0  0  0
   48.4940   35.5270   41.6550 C   0  0  0  0  0  0  0  0  0  0  0  0
   49.0240   34.3910   42.5710 C   0  0  2  0  0  0  0  0  0  0  0  0
   45.5100   34.1760   45.1530 C   0  0  0  0  0  0  0  0  0  0  0  0
   44.6030   35.2540   45.0730 C   0  0  0  0  0  0  0  0  0  0  0  0
   44.7320   36.0980   43.9810 C   0  0  0  0  0  0  0  0  0  0  0  0
   45.7170   35.8370   43.0610 N   0  0  0  0  0  0  0  0  0  0  0  0
   46.5460   34.7910   43.1990 C   0  0  0  0  0  0  0  0  0  0  0  0
   46.4730   33.9580   44.2120 N   0  0  0  0  0  0  0  0  0  0  0  0
   50.5900   30.8120   39.4520 C   0  0  0  0  0  0  0  0  0  0  0  0
   50.6440   31.0590   38.1060 C   0  0  0  0  0  0  0  0  0  0  0  0
   50.6560   29.8400   37.4450 C   0  0  0  0  0  0  0  0  0  0  0  0
   50.6120   28.8950   38.3780 N   0  0  0  0  0  0  0  0  0  0  0  0
   50.5710   29.4650   39.5960 N   0  0  0  0  0  0  0  0  0  0  0  0
   50.6120   27.5160   38.0320 C   0  0  0  0  0  0  0  0  0  0  0  0
   50.9700   27.2270   36.7330 C   0  0  0  0  0  0  0  0  0  0  0  0
   51.0230   25.9430   36.2310 C   0  0  0  0  0  0  0  0  0  0  0  0
   50.6980   24.8920   37.0790 C   0  0  0  0  0  0  0  0  0  0  0  0
   50.3400   25.2130   38.3850 C   0  0  0  0  0  0  0  0  0  0  0  0
   50.3010   26.4800   38.8330 N   0  0  0  0  0  0  0  0  0  0  0  0
   46.8587   33.8946   41.6921 H   0  0  0  0  0  0  0  0  0  0  0  0
   48.7399   35.5313   40.5829 H   0  0  0  0  0  0  0  0  0  0  0  0
   48.5392   36.6260   41.6672 H   0  0  0  0  0  0  0  0  0  0  0  0
   49.5650   34.2864   43.5230 H   0  0  0  0  0  0  0  0  0  0  0  0
   45.4377   33.4856   46.0063 H   0  0  0  0  0  0  0  0  0  0  0  0
   43.8312   35.4166   45.8398 H   0  0  0  0  0  0  0  0  0  0  0  0
   44.0592   36.9589   43.8542 H   0  0  0  0  0  0  0  0  0  0  0  0
   50.6728   32.0512   37.6320 H   0  0  0  0  0  0  0  0  0  0  0  0
   50.6946   29.6851   36.3566 H   0  0  0  0  0  0  0  0  0  0  0  0
   51.2261   28.0612   36.0633 H   0  0  0  0  0  0  0  0  0  0  0  0
   51.3149   25.7566   35.1869 H   0  0  0  0  0  0  0  0  0  0  0  0
   50.7226   23.8483   36.7324 H   0  0  0  0  0  0  0  0  0  0  0  0
   50.0790   24.3989   39.0772 H   0  0  0  0  0  0  0  0  0  0  0  0
  1  2  2  0
  1  8  1  0
  3  2  1  0
  4  5  2  0
  4  3  1  0
  5  1  1  0
  6  8  1  0
  6 13  1  0
  7  6  1  0
  7  8  1  0
 10  9  2  0
 11 10  1  0
 12 13  1  0
 12 11  2  0
 13 14  2  0
 14  9  1  0
 15 19  2  0
 15  4  1  0
 16 15  1  0
 17 16  2  0
 17 18  1  0
 18 19  1  0
 20 18  1  0
 20 25  1  0
 21 20  2  0
 22 21  1  0
 22 23  2  0
 23 24  1  0
 24 25  2  0
  6 26  1  6
  7 27  1  0
  7 28  1  0
  8 29  1  1
  9 30  1  0
 10 31  1  0
 11 32  1  0
 16 33  1  0
 17 34  1  0
 21 35  1  0
 22 36  1  0
 23 37  1  0
 24 38  1  0
M  ISO  8  26  13  27  13  28  13  29  13  30  14  31  14  32  14  33  14
M  ISO  5  34  14  35  14  36  14  37  14  38  14
M  END
>  <minimizedAffinity>  (1) 
-4.60808277

>  <minimizedRMSD>  (1) 
0.565378308

$$$$
