
     RDKit          3D

 38 41  0  0  1  0  0  0  0  0999 V2000
   47.6010   34.5400   42.1950 C   0  0  1  0  0  0  0  0  0  0  0  0
   48.4890   35.5270   41.6610 C   0  0  0  0  0  0  0  0  0  0  0  0
   49.0240   34.3940   42.5770 C   0  0  2  0  0  0  0  0  0  0  0  0
   45.5150   34.1680   45.1690 C   0  0  0  0  0  0  0  0  0  0  0  0
   44.5970   35.2580   45.0850 C   0  0  0  0  0  0  0  0  0  0  0  0
   44.7310   36.0960   43.9900 C   0  0  0  0  0  0  0  0  0  0  0  0
   45.7130   35.8410   43.0680 N   0  0  0  0  0  0  0  0  0  0  0  0
   46.5470   34.7870   43.2150 C   0  0  0  0  0  0  0  0  0  0  0  0
   46.4760   33.9540   44.2270 N   0  0  0  0  0  0  0  0  0  0  0  0
   49.8190   33.3730   41.8380 C   0  0  0  0  0  0  0  0  0  0  0  0
   51.0840   33.0420   42.1050 N   0  0  0  0  0  0  0  0  0  0  0  0
   51.5130   32.1190   41.3120 O   0  0  0  0  0  0  0  0  0  0  0  0
   50.5380   31.8210   40.5050 C   0  0  0  0  0  0  0  0  0  0  0  0
   49.4520   32.5830   40.7940 N   0  0  0  0  0  0  0  0  0  0  0  0
   50.5790   30.8270   39.4440 C   0  0  0  0  0  0  0  0  0  0  0  0
   50.9100   31.0670   38.1380 C   0  0  0  0  0  0  0  0  0  0  0  0
   50.8310   29.8510   37.4590 C   0  0  0  0  0  0  0  0  0  0  0  0
   50.4650   28.9290   38.3420 N   0  0  0  0  0  0  0  0  0  0  0  0
   50.3090   29.5060   39.5460 N   0  0  0  0  0  0  0  0  0  0  0  0
   50.2760   27.5260   38.0080 C   0  0  0  0  0  0  0  0  0  0  0  0
   51.6150   26.8260   37.7990 C   0  0  0  0  0  0  0  0  0  0  0  0
   49.5590   27.3850   36.6590 C   0  0  0  0  0  0  0  0  0  0  0  0
   46.8559   33.8938   41.7080 H   0  0  0  0  0  0  0  0  0  0  0  0
   48.7304   35.5292   40.5878 H   0  0  0  0  0  0  0  0  0  0  0  0
   48.5327   36.6261   41.6705 H   0  0  0  0  0  0  0  0  0  0  0  0
   49.5697   34.2927   43.5267 H   0  0  0  0  0  0  0  0  0  0  0  0
   45.4442   33.4779   46.0226 H   0  0  0  0  0  0  0  0  0  0  0  0
   43.8238   35.4238   45.8496 H   0  0  0  0  0  0  0  0  0  0  0  0
   44.0573   36.9560   43.8618 H   0  0  0  0  0  0  0  0  0  0  0  0
   51.1871   32.0390   37.7039 H   0  0  0  0  0  0  0  0  0  0  0  0
   51.0341   29.6864   36.3905 H   0  0  0  0  0  0  0  0  0  0  0  0
   49.7045   27.0885   38.8399 H   0  0  0  0  0  0  0  0  0  0  0  0
   52.0628   26.5919   38.7761 H   0  0  0  0  0  0  0  0  0  0  0  0
   51.4578   25.8947   37.2351 H   0  0  0  0  0  0  0  0  0  0  0  0
   52.2900   27.4866   37.2351 H   0  0  0  0  0  0  0  0  0  0  0  0
   48.4929   27.1753   36.8306 H   0  0  0  0  0  0  0  0  0  0  0  0
   49.6617   28.3205   36.0896 H   0  0  0  0  0  0  0  0  0  0  0  0
   50.0083   26.5580   36.0896 H   0  0  0  0  0  0  0  0  0  0  0  0
  1  3  1  0
  1  8  1  0
  2  1  1  0
  2  3  1  0
  5  4  2  0
  6  5  1  0
  7  8  1  0
  7  6  2  0
  8  9  2  0
  9  4  1  0
 10 11  2  0
 10  3  1  0
 12 11  1  0
 13 14  2  0
 13 12  1  0
 14 10  1  0
 15 19  2  0
 15 13  1  0
 16 15  1  0
 17 16  2  0
 17 18  1  0
 18 19  1  0
 20 18  1  0
 21 20  1  0
 22 20  1  0
  1 23  1  6
  2 24  1  0
  2 25  1  0
  3 26  1  1
  4 27  1  0
  5 28  1  0
  6 29  1  0
 16 30  1  0
 17 31  1  0
 20 32  1  0
 21 33  1  0
 21 34  1  0
 21 35  1  0
 22 36  1  0
 22 37  1  0
 22 38  1  0
M  ISO  8  23  13  24  13  25  13  26  13  27  14  28  14  29  14  30  14
M  ISO  8  31  14  32   8  33   8  34   8  35   8  36   8  37   8  38   8
M  END
>  <minimizedAffinity>  (1) 
-4.61380959

>  <minimizedRMSD>  (1) 
0.0435019284

$$$$
