
     RDKit          3D

 36 40  0  0  1  0  0  0  0  0999 V2000
   49.8280   33.3780   41.8360 C   0  0  0  0  0  0  0  0  0  0  0  0
   51.0890   33.0380   42.1090 N   0  0  0  0  0  0  0  0  0  0  0  0
   51.5150   32.1130   41.3140 O   0  0  0  0  0  0  0  0  0  0  0  0
   50.5630   31.8250   40.5080 C   0  0  0  0  0  0  0  0  0  0  0  0
   49.4780   32.5940   40.7950 N   0  0  0  0  0  0  0  0  0  0  0  0
   47.6100   34.5480   42.1840 C   0  0  1  0  0  0  0  0  0  0  0  0
   48.5040   35.5340   41.6550 C   0  0  0  0  0  0  0  0  0  0  0  0
   49.0320   34.3960   42.5710 C   0  0  2  0  0  0  0  0  0  0  0  0
   45.5090   34.1770   45.1490 C   0  0  0  0  0  0  0  0  0  0  0  0
   44.5960   35.2600   45.0630 C   0  0  0  0  0  0  0  0  0  0  0  0
   44.7320   36.1020   43.9680 C   0  0  0  0  0  0  0  0  0  0  0  0
   45.7190   35.8350   43.0650 N   0  0  0  0  0  0  0  0  0  0  0  0
   46.5530   34.7950   43.2000 C   0  0  0  0  0  0  0  0  0  0  0  0
   46.4740   33.9640   44.2120 N   0  0  0  0  0  0  0  0  0  0  0  0
   50.5920   30.8310   39.4340 C   0  0  0  0  0  0  0  0  0  0  0  0
   50.9090   31.0680   38.1220 C   0  0  0  0  0  0  0  0  0  0  0  0
   50.8140   29.8560   37.4380 C   0  0  0  0  0  0  0  0  0  0  0  0
   50.4470   28.9330   38.3450 N   0  0  0  0  0  0  0  0  0  0  0  0
   50.3130   29.5090   39.5340 N   0  0  0  0  0  0  0  0  0  0  0  0
   50.2210   27.5360   38.1190 C   0  0  0  0  0  0  0  0  0  0  0  0
   51.0550   26.5270   38.6080 C   0  0  0  0  0  0  0  0  0  0  0  0
   50.5500   25.3010   38.2070 C   0  0  0  0  0  0  0  0  0  0  0  0
   49.4200   25.6330   37.4860 C   0  0  0  0  0  0  0  0  0  0  0  0
   49.2540   26.9440   37.4520 O   0  0  0  0  0  0  0  0  0  0  0  0
   46.8643   33.9057   41.6927 H   0  0  0  0  0  0  0  0  0  0  0  0
   48.7492   35.5379   40.5827 H   0  0  0  0  0  0  0  0  0  0  0  0
   48.5516   36.6329   41.6672 H   0  0  0  0  0  0  0  0  0  0  0  0
   49.5728   34.2895   43.5229 H   0  0  0  0  0  0  0  0  0  0  0  0
   45.4347   33.4860   46.0016 H   0  0  0  0  0  0  0  0  0  0  0  0
   43.8201   35.4238   45.8253 H   0  0  0  0  0  0  0  0  0  0  0  0
   44.0609   36.9628   43.8318 H   0  0  0  0  0  0  0  0  0  0  0  0
   51.1880   32.0389   37.6867 H   0  0  0  0  0  0  0  0  0  0  0  0
   51.0022   29.6881   36.3673 H   0  0  0  0  0  0  0  0  0  0  0  0
   51.9619   26.6808   39.2112 H   0  0  0  0  0  0  0  0  0  0  0  0
   50.9539   24.2990   38.4141 H   0  0  0  0  0  0  0  0  0  0  0  0
   48.7493   24.9056   37.0054 H   0  0  0  0  0  0  0  0  0  0  0  0
  1  2  2  0
  1  8  1  0
  3  2  1  0
  4  5  2  0
  4  3  1  0
  5  1  1  0
  6  8  1  0
  6 13  1  0
  7  6  1  0
  7  8  1  0
 10  9  2  0
 11 10  1  0
 12 13  1  0
 12 11  2  0
 13 14  2  0
 14  9  1  0
 15 19  2  0
 15  4  1  0
 16 15  1  0
 17 16  2  0
 17 18  1  0
 18 19  1  0
 20 18  1  0
 20 21  2  0
 22 21  1  0
 23 22  2  0
 24 23  1  0
 24 20  1  0
  6 25  1  6
  7 26  1  0
  7 27  1  0
  8 28  1  1
  9 29  1  0
 10 30  1  0
 11 31  1  0
 16 32  1  0
 17 33  1  0
 21 34  1  0
 22 35  1  0
 23 36  1  0
M  ISO  8  25  13  26  13  27  13  28  13  29  14  30  14  31  14  32  14
M  ISO  4  33  14  34  14  35  14  36  14
M  END
>  <minimizedAffinity>  (1) 
-4.59327888

>  <minimizedRMSD>  (1) 
0.046411626

$$$$
