
     RDKit          3D

 29 31  0  0  0  0  0  0  0  0999 V2000
   45.6190   33.6000   46.0830 C   0  0  0  0  0  0  0  0  0  0  0  0
   44.7150   34.6700   46.2370 C   0  0  0  0  0  0  0  0  0  0  0  0
   44.8100   35.4550   44.5320 S   0  0  0  0  0  0  0  0  0  0  0  0
   46.0630   34.1600   43.9650 C   0  0  0  0  0  0  0  0  0  0  0  0
   46.1660   33.5410   44.8820 N   0  0  0  0  0  0  0  0  0  0  0  0
   46.7410   33.9990   42.6440 N   0  0  0  0  0  0  0  0  0  0  0  0
   47.5160   34.9540   42.1400 C   0  0  0  0  0  0  0  0  0  0  0  0
   48.1080   34.7290   40.9130 C   0  0  0  0  0  0  0  0  0  0  0  0
   48.9870   35.7830   40.3160 C   0  0  0  0  0  0  0  0  0  0  0  0
   47.9020   33.5360   40.2160 C   0  0  0  0  0  0  0  0  0  0  0  0
   48.4300   33.3140   39.1040 O   0  0  0  0  0  0  0  0  0  0  0  0
   47.0900   32.6210   40.8220 N   0  0  0  0  0  0  0  0  0  0  0  0
   46.5040   32.8300   42.0250 C   0  0  0  0  0  0  0  0  0  0  0  0
   45.7710   31.9320   42.5060 O   0  0  0  0  0  0  0  0  0  0  0  0
   47.3790   31.6420   48.6010 C   0  0  0  0  0  0  0  0  0  0  0  0
   46.3180   31.0570   49.3240 C   0  0  0  0  0  0  0  0  0  0  0  0
   44.9870   31.3330   48.9500 C   0  0  0  0  0  0  0  0  0  0  0  0
   44.7950   32.1690   47.8830 N   0  0  0  0  0  0  0  0  0  0  0  0
   45.8440   32.7090   47.2180 C   0  0  0  0  0  0  0  0  0  0  0  0
   47.1250   32.4540   47.5650 N   0  0  0  0  0  0  0  0  0  0  0  0
   44.1185   34.9644   47.1131 H   0  0  0  0  0  0  0  0  0  0  0  0
   47.6809   35.8956   42.6842 H   0  0  0  0  0  0  0  0  0  0  0  0
   49.4673   36.3589   41.1208 H   0  0  0  0  0  0  0  0  0  0  0  0
   49.7596   35.3071   39.6942 H   0  0  0  0  0  0  0  0  0  0  0  0
   48.3801   36.4576   39.6942 H   0  0  0  0  0  0  0  0  0  0  0  0
   46.9144   31.7276   40.3405 H   0  0  0  0  0  0  0  0  0  0  0  0
   48.4195   31.4308   48.8887 H   0  0  0  0  0  0  0  0  0  0  0  0
   46.5278   30.3903   50.1734 H   0  0  0  0  0  0  0  0  0  0  0  0
   44.1372   30.8944   49.4935 H   0  0  0  0  0  0  0  0  0  0  0  0
  1  2  2  0
  1 19  1  0
  3  2  1  0
  4  3  1  0
  4  5  2  0
  5  1  1  0
  6  4  1  0
  7  6  1  0
  8  7  2  0
  9  8  1  0
 10 12  1  0
 10  8  1  0
 11 10  2  0
 12 13  1  0
 13 14  2  0
 13  6  1  0
 15 16  2  0
 17 16  1  0
 18 17  2  0
 19 20  2  0
 19 18  1  0
 20 15  1  0
  2 21  1  0
  7 22  1  0
  9 23  1  0
  9 24  1  0
  9 25  1  0
 12 26  1  0
 15 27  1  0
 16 28  1  0
 17 29  1  0
M  ISO  8  21  14  22  14  23   8  24   8  25   8  26   9  27  14  28  14
M  ISO  1  29  14
M  END
>  <minimizedAffinity>  (1) 
-5.5609746

>  <minimizedRMSD>  (1) 
8.31187534

$$$$
