
     RDKit          3D

 28 29  0  0  0  0  0  0  0  0999 V2000
   46.4620   33.5540   44.7480 C   0  0  0  0  0  0  0  0  0  0  0  0
   45.3660   34.3660   44.3690 C   0  0  0  0  0  0  0  0  0  0  0  0
   46.0130   35.0960   42.7500 S   0  0  0  0  0  0  0  0  0  0  0  0
   47.6380   34.1390   42.9330 C   0  0  0  0  0  0  0  0  0  0  0  0
   47.4760   33.5940   43.8910 N   0  0  0  0  0  0  0  0  0  0  0  0
   47.1290   31.0200   47.2830 C   0  0  0  0  0  0  0  0  0  0  0  0
   46.1960   31.3500   48.2980 C   0  0  0  0  0  0  0  0  0  0  0  0
   45.3460   32.4350   48.1100 C   0  0  0  0  0  0  0  0  0  0  0  0
   45.4760   33.1170   46.9360 N   0  0  0  0  0  0  0  0  0  0  0  0
   46.3630   32.7930   45.9860 C   0  0  0  0  0  0  0  0  0  0  0  0
   47.1860   31.7530   46.1510 N   0  0  0  0  0  0  0  0  0  0  0  0
   48.7220   34.2400   41.9280 C   0  0  0  0  0  0  0  0  0  0  0  0
   49.2040   32.8750   41.5850 C   0  0  0  0  0  0  0  0  0  0  0  0
   49.8480   35.1170   42.4820 C   0  0  0  0  0  0  0  0  0  0  0  0
   48.2440   34.9230   40.6580 C   0  0  0  0  0  0  0  0  0  0  0  0
   44.4036   34.5275   44.8766 H   0  0  0  0  0  0  0  0  0  0  0  0
   47.8078   30.1650   47.4182 H   0  0  0  0  0  0  0  0  0  0  0  0
   46.1448   30.7558   49.2223 H   0  0  0  0  0  0  0  0  0  0  0  0
   44.6064   32.7281   48.8697 H   0  0  0  0  0  0  0  0  0  0  0  0
   49.4024   32.3131   42.5096 H   0  0  0  0  0  0  0  0  0  0  0  0
   48.4361   32.3523   40.9959 H   0  0  0  0  0  0  0  0  0  0  0  0
   50.1299   32.9504   40.9959 H   0  0  0  0  0  0  0  0  0  0  0  0
   49.8216   35.0964   43.5815 H   0  0  0  0  0  0  0  0  0  0  0  0
   50.8176   34.7338   42.1313 H   0  0  0  0  0  0  0  0  0  0  0  0
   49.7138   36.1509   42.1313 H   0  0  0  0  0  0  0  0  0  0  0  0
   47.6315   35.7982   40.9206 H   0  0  0  0  0  0  0  0  0  0  0  0
   49.1130   35.2477   40.0669 H   0  0  0  0  0  0  0  0  0  0  0  0
   47.6413   34.2177   40.0669 H   0  0  0  0  0  0  0  0  0  0  0  0
  1 10  1  0
  2  1  2  0
  3  4  1  0
  3  2  1  0
  4  5  2  0
  5  1  1  0
  6  7  2  0
  8  7  1  0
  9  8  2  0
 10 11  2  0
 10  9  1  0
 11  6  1  0
 12 14  1  0
 12  4  1  0
 13 12  1  0
 15 12  1  0
  2 16  1  0
  6 17  1  0
  7 18  1  0
  8 19  1  0
 13 20  1  0
 13 21  1  0
 13 22  1  0
 14 23  1  0
 14 24  1  0
 14 25  1  0
 15 26  1  0
 15 27  1  0
 15 28  1  0
M  ISO  8  16  14  17  14  18  14  19  14  20   8  21   8  22   8  23   8
M  ISO  5  24   8  25   8  26   8  27   8  28   8
M  END
>  <minimizedAffinity>  (1) 
-4.74232912

>  <minimizedRMSD>  (1) 
6.61578465

$$$$
