
     RDKit          3D

 23 25  0  0  0  0  0  0  0  0999 V2000
   46.3270   33.3730   45.3520 C   0  0  0  0  0  0  0  0  0  0  0  0
   45.2280   34.2010   45.6620 C   0  0  0  0  0  0  0  0  0  0  0  0
   45.1480   35.2680   44.1050 S   0  0  0  0  0  0  0  0  0  0  0  0
   46.6320   34.3550   43.3650 C   0  0  0  0  0  0  0  0  0  0  0  0
   46.8740   33.6190   44.1660 N   0  0  0  0  0  0  0  0  0  0  0  0
   47.3160   34.5450   42.0670 N   0  0  0  0  0  0  0  0  0  0  0  0
   47.0320   33.7290   41.0500 C   0  0  0  0  0  0  0  0  0  0  0  0
   47.8340   34.1880   40.0270 C   0  0  0  0  0  0  0  0  0  0  0  0
   48.5490   35.2480   40.4850 N   0  0  0  0  0  0  0  0  0  0  0  0
   48.2180   35.4720   41.7810 C   0  0  0  0  0  0  0  0  0  0  0  0
   46.9440   30.1100   46.8460 C   0  0  0  0  0  0  0  0  0  0  0  0
   47.4560   30.4300   48.1190 C   0  0  0  0  0  0  0  0  0  0  0  0
   47.5920   31.7810   48.4660 C   0  0  0  0  0  0  0  0  0  0  0  0
   47.2120   32.7110   47.5360 N   0  0  0  0  0  0  0  0  0  0  0  0
   46.7300   32.3680   46.3390 C   0  0  0  0  0  0  0  0  0  0  0  0
   46.5910   31.0760   45.9820 N   0  0  0  0  0  0  0  0  0  0  0  0
   44.5938   34.2201   46.5606 H   0  0  0  0  0  0  0  0  0  0  0  0
   46.3239   32.8874   41.0322 H   0  0  0  0  0  0  0  0  0  0  0  0
   47.8860   33.7672   39.0120 H   0  0  0  0  0  0  0  0  0  0  0  0
   48.6122   36.2525   42.4484 H   0  0  0  0  0  0  0  0  0  0  0  0
   46.8318   29.0549   46.5558 H   0  0  0  0  0  0  0  0  0  0  0  0
   47.7427   29.6368   48.8251 H   0  0  0  0  0  0  0  0  0  0  0  0
   47.9884   32.0822   49.4469 H   0  0  0  0  0  0  0  0  0  0  0  0
  1  2  2  0
  1 15  1  0
  3  2  1  0
  4  3  1  0
  4  5  2  0
  5  1  1  0
  6  4  1  0
  7  6  1  0
  8  9  1  0
  8  7  2  0
  9 10  2  0
 10  6  1  0
 11 12  2  0
 12 13  1  0
 14 13  2  0
 15 14  1  0
 16 15  2  0
 16 11  1  0
  2 17  1  0
  7 18  1  0
  8 19  1  0
 10 20  1  0
 11 21  1  0
 12 22  1  0
 13 23  1  0
M  ISO  7  17  14  18  14  19  14  20  14  21  14  22  14  23  14
M  END
>  <minimizedAffinity>  (1) 
-4.70531225

>  <minimizedRMSD>  (1) 
7.24560738

$$$$
