
     RDKit          3D

 25 26  0  0  0  0  0  0  0  0999 V2000
   44.5630   36.1200   44.4420 C   0  0  0  0  0  0  0  0  0  0  0  0
   45.1420   36.3270   43.1880 C   0  0  0  0  0  0  0  0  0  0  0  0
   46.0220   35.3620   42.6550 C   0  0  0  0  0  0  0  0  0  0  0  0
   46.2660   34.2510   43.4170 N   0  0  0  0  0  0  0  0  0  0  0  0
   45.6810   34.0920   44.6300 C   0  0  0  0  0  0  0  0  0  0  0  0
   44.8340   35.0120   45.1510 N   0  0  0  0  0  0  0  0  0  0  0  0
   45.9580   32.8930   45.4260 C   0  0  0  0  0  0  0  0  0  0  0  0
   46.0720   31.6500   44.7610 C   0  0  0  0  0  0  0  0  0  0  0  0
   46.4180   30.5200   46.2390 S   0  0  0  0  0  0  0  0  0  0  0  0
   46.3330   31.9820   47.4370 C   0  0  0  0  0  0  0  0  0  0  0  0
   46.1220   32.8260   46.7400 N   0  0  0  0  0  0  0  0  0  0  0  0
   46.5260   31.8450   48.9060 C   0  0  0  0  0  0  0  0  0  0  0  0
   45.2930   31.2500   49.4960 C   0  0  0  0  0  0  0  0  0  0  0  0
   47.7440   30.9310   49.0880 C   0  0  0  0  0  0  0  0  0  0  0  0
   43.8763   36.8740   44.8542 H   0  0  0  0  0  0  0  0  0  0  0  0
   44.9126   37.2394   42.6180 H   0  0  0  0  0  0  0  0  0  0  0  0
   46.4920   35.4963   41.6696 H   0  0  0  0  0  0  0  0  0  0  0  0
   45.9846   31.4091   43.6913 H   0  0  0  0  0  0  0  0  0  0  0  0
   46.6993   32.8073   49.4099 H   0  0  0  0  0  0  0  0  0  0  0  0
   45.3594   31.2820   50.5935 H   0  0  0  0  0  0  0  0  0  0  0  0
   44.4146   31.8234   49.1649 H   0  0  0  0  0  0  0  0  0  0  0  0
   45.1952   30.2056   49.1649 H   0  0  0  0  0  0  0  0  0  0  0  0
   47.9368   30.7864   50.1613 H   0  0  0  0  0  0  0  0  0  0  0  0
   47.5453   29.9572   48.6166 H   0  0  0  0  0  0  0  0  0  0  0  0
   48.6235   31.3939   48.6166 H   0  0  0  0  0  0  0  0  0  0  0  0
  1  6  2  0
  2  1  1  0
  3  2  2  0
  3  4  1  0
  4  5  2  0
  5  6  1  0
  5  7  1  0
  7 11  1  0
  8  7  2  0
  8  9  1  0
  9 10  1  0
 10 12  1  0
 11 10  2  0
 12 14  1  0
 12 13  1  0
  1 15  1  0
  2 16  1  0
  3 17  1  0
  8 18  1  0
 12 19  1  0
 13 20  1  0
 13 21  1  0
 13 22  1  0
 14 23  1  0
 14 24  1  0
 14 25  1  0
M  ISO  8  15  14  16  14  17  14  18  14  19   8  20   8  21   8  22   8
M  ISO  3  23   8  24   8  25   8
M  END
>  <minimizedAffinity>  (1) 
-4.73972416

>  <minimizedRMSD>  (1) 
1.40479493

$$$$
