
     RDKit          3D

 19 20  0  0  0  0  0  0  0  0999 V2000
   44.4900   35.9480   44.7610 C   0  0  0  0  0  0  0  0  0  0  0  0
   45.0330   36.0850   43.4820 C   0  0  0  0  0  0  0  0  0  0  0  0
   45.9500   35.1260   43.0340 C   0  0  0  0  0  0  0  0  0  0  0  0
   46.2560   34.1090   43.8880 N   0  0  0  0  0  0  0  0  0  0  0  0
   45.7130   34.0050   45.1180 C   0  0  0  0  0  0  0  0  0  0  0  0
   44.8330   34.9210   45.5550 N   0  0  0  0  0  0  0  0  0  0  0  0
   46.0650   32.9010   46.0050 C   0  0  0  0  0  0  0  0  0  0  0  0
   47.0070   31.9480   45.5510 C   0  0  0  0  0  0  0  0  0  0  0  0
   47.0710   30.7930   47.0590 S   0  0  0  0  0  0  0  0  0  0  0  0
   45.8030   31.8680   47.9630 C   0  0  0  0  0  0  0  0  0  0  0  0
   45.5920   32.6770   47.2250 N   0  0  0  0  0  0  0  0  0  0  0  0
   45.2960   31.5700   49.3520 C   0  0  0  0  0  0  0  0  0  0  0  0
   43.7685   36.6945   45.1245 H   0  0  0  0  0  0  0  0  0  0  0  0
   44.7461   36.9299   42.8387 H   0  0  0  0  0  0  0  0  0  0  0  0
   46.4044   35.1909   42.0343 H   0  0  0  0  0  0  0  0  0  0  0  0
   47.5490   31.8915   44.5955 H   0  0  0  0  0  0  0  0  0  0  0  0
   45.9961   31.9815   50.0940 H   0  0  0  0  0  0  0  0  0  0  0  0
   44.3060   32.0299   49.4875 H   0  0  0  0  0  0  0  0  0  0  0  0
   45.2162   30.4813   49.4875 H   0  0  0  0  0  0  0  0  0  0  0  0
  1  6  2  0
  2  1  1  0
  3  2  2  0
  3  4  1  0
  4  5  2  0
  5  6  1  0
  5  7  1  0
  7 11  1  0
  8  7  2  0
  8  9  1  0
  9 10  1  0
 10 12  1  0
 11 10  2  0
  1 13  1  0
  2 14  1  0
  3 15  1  0
  8 16  1  0
 12 17  1  0
 12 18  1  0
 12 19  1  0
M  ISO  7  13  14  14  14  15  14  16  14  17   8  18   8  19   8
M  END
>  <minimizedAffinity>  (1) 
-4.44425774

>  <minimizedRMSD>  (1) 
0.535523117

$$$$
