
     RDKit          3D

 26 28  0  0  0  0  0  0  0  0999 V2000
   46.2980   32.4260   44.6030 C   0  0  0  0  0  0  0  0  0  0  0  0
   47.6000   32.1030   44.1570 C   0  0  0  0  0  0  0  0  0  0  0  0
   47.7360   30.2970   44.7170 S   0  0  0  0  0  0  0  0  0  0  0  0
   45.9870   30.3740   45.4390 C   0  0  0  0  0  0  0  0  0  0  0  0
   45.6780   31.4210   45.2130 N   0  0  0  0  0  0  0  0  0  0  0  0
   44.6110   35.6110   45.1550 C   0  0  0  0  0  0  0  0  0  0  0  0
   44.8250   36.2900   43.9510 C   0  0  0  0  0  0  0  0  0  0  0  0
   45.5530   35.6580   42.9410 C   0  0  0  0  0  0  0  0  0  0  0  0
   46.0120   34.4010   43.1980 N   0  0  0  0  0  0  0  0  0  0  0  0
   45.7940   33.7690   44.3590 C   0  0  0  0  0  0  0  0  0  0  0  0
   45.0950   34.3620   45.3450 N   0  0  0  0  0  0  0  0  0  0  0  0
   45.3800   29.2130   46.0970 C   0  0  0  0  0  0  0  0  0  0  0  0
   45.9100   28.6950   47.2580 C   0  0  0  0  0  0  0  0  0  0  0  0
   45.2780   27.6010   47.8120 C   0  0  0  0  0  0  0  0  0  0  0  0
   44.1560   27.0320   47.2430 C   0  0  0  0  0  0  0  0  0  0  0  0
   43.6110   27.5430   46.0700 C   0  0  0  0  0  0  0  0  0  0  0  0
   44.2620   28.6340   45.5400 C   0  0  0  0  0  0  0  0  0  0  0  0
   48.3342   32.7291   43.6289 H   0  0  0  0  0  0  0  0  0  0  0  0
   44.0410   36.0996   45.9590 H   0  0  0  0  0  0  0  0  0  0  0  0
   44.4266   37.3045   43.8024 H   0  0  0  0  0  0  0  0  0  0  0  0
   45.7478   36.1538   41.9786 H   0  0  0  0  0  0  0  0  0  0  0  0
   46.8026   29.1365   47.7253 H   0  0  0  0  0  0  0  0  0  0  0  0
   45.6817   27.1672   48.7387 H   0  0  0  0  0  0  0  0  0  0  0  0
   43.6863   26.1617   47.7246 H   0  0  0  0  0  0  0  0  0  0  0  0
   42.7196   27.1048   45.5974 H   0  0  0  0  0  0  0  0  0  0  0  0
   43.8636   29.0710   44.6125 H   0  0  0  0  0  0  0  0  0  0  0  0
  1  5  1  0
  2  1  2  0
  2  3  1  0
  3  4  1  0
  4 12  1  0
  5  4  2  0
  6 11  2  0
  7  6  1  0
  8  9  1  0
  8  7  2  0
  9 10  2  0
 10  1  1  0
 10 11  1  0
 12 13  2  0
 13 14  1  0
 15 14  2  0
 16 15  1  0
 17 16  2  0
 17 12  1  0
  2 18  1  0
  6 19  1  0
  7 20  1  0
  8 21  1  0
 13 22  1  0
 14 23  1  0
 15 24  1  0
 16 25  1  0
 17 26  1  0
M  ISO  8  18  14  19  14  20  14  21  14  22  14  23  14  24  14  25  14
M  ISO  1  26  14
M  END
>  <minimizedAffinity>  (1) 
-4.15416574

>  <minimizedRMSD>  (1) 
3.8034668

$$$$
