
     RDKit          3D

 28 30  0  0  0  0  0  0  0  0999 V2000
   46.6940   32.6150   44.8640 C   0  0  0  0  0  0  0  0  0  0  0  0
   47.1580   31.8220   43.7880 C   0  0  0  0  0  0  0  0  0  0  0  0
   47.9600   30.3800   44.7140 S   0  0  0  0  0  0  0  0  0  0  0  0
   47.4950   31.1610   46.3740 C   0  0  0  0  0  0  0  0  0  0  0  0
   46.9740   32.0910   46.0510 N   0  0  0  0  0  0  0  0  0  0  0  0
   47.8160   30.5630   47.6230 N   0  0  0  0  0  0  0  0  0  0  0  0
   48.0910   31.1570   48.9110 C   0  0  0  0  0  0  0  0  0  0  0  0
   49.2550   30.3410   49.4340 C   0  0  0  0  0  0  0  0  0  0  0  0
   49.2980   29.0880   48.5850 C   0  0  0  0  0  0  0  0  0  0  0  0
   47.9470   29.1530   47.9030 C   0  0  0  0  0  0  0  0  0  0  0  0
   44.5490   35.5300   45.3010 C   0  0  0  0  0  0  0  0  0  0  0  0
   44.6720   36.1880   44.0660 C   0  0  0  0  0  0  0  0  0  0  0  0
   45.4970   35.6330   43.0690 C   0  0  0  0  0  0  0  0  0  0  0  0
   46.1310   34.4620   43.3910 N   0  0  0  0  0  0  0  0  0  0  0  0
   45.9950   33.8600   44.5760 C   0  0  0  0  0  0  0  0  0  0  0  0
   45.2130   34.3750   45.5370 N   0  0  0  0  0  0  0  0  0  0  0  0
   47.0749   31.9967   42.7051 H   0  0  0  0  0  0  0  0  0  0  0  0
   48.3692   32.2159   48.8045 H   0  0  0  0  0  0  0  0  0  0  0  0
   47.2210   31.1436   49.5841 H   0  0  0  0  0  0  0  0  0  0  0  0
   50.1940   30.9048   49.3319 H   0  0  0  0  0  0  0  0  0  0  0  0
   49.1337   30.1020   50.5009 H   0  0  0  0  0  0  0  0  0  0  0  0
   50.1206   29.1226   47.8555 H   0  0  0  0  0  0  0  0  0  0  0  0
   49.4750   28.1623   49.1523 H   0  0  0  0  0  0  0  0  0  0  0  0
   47.1458   28.8025   48.5703 H   0  0  0  0  0  0  0  0  0  0  0  0
   47.8716   28.5159   47.0095 H   0  0  0  0  0  0  0  0  0  0  0  0
   43.9062   35.9582   46.0843 H   0  0  0  0  0  0  0  0  0  0  0  0
   44.1297   37.1267   43.8798 H   0  0  0  0  0  0  0  0  0  0  0  0
   45.6252   36.1124   42.0873 H   0  0  0  0  0  0  0  0  0  0  0  0
  1  5  1  0
  2  3  1  0
  2  1  2  0
  3  4  1  0
  4  6  1  0
  5  4  2  0
  6 10  1  0
  6  7  1  0
  7  8  1  0
  9  8  1  0
 10  9  1  0
 11 16  2  0
 12 11  1  0
 13 14  1  0
 13 12  2  0
 14 15  2  0
 15  1  1  0
 15 16  1  0
  2 17  1  0
  7 18  1  0
  7 19  1  0
  8 20  1  0
  8 21  1  0
  9 22  1  0
  9 23  1  0
 10 24  1  0
 10 25  1  0
 11 26  1  0
 12 27  1  0
 13 28  1  0
M  ISO  8  17  14  18  13  19  13  20  13  21  13  22  13  23  13  24  13
M  ISO  4  25  13  26  14  27  14  28  14
M  END
>  <minimizedAffinity>  (1) 
-4.45978308

>  <minimizedRMSD>  (1) 
3.19457436

$$$$
