
     RDKit          3D

 29 31  0  0  0  0  0  0  0  0999 V2000
   45.8850   32.7060   43.3980 C   0  0  0  0  0  0  0  0  0  0  0  0
   46.8050   31.8750   42.7170 C   0  0  0  0  0  0  0  0  0  0  0  0
   47.5290   30.8760   44.1570 S   0  0  0  0  0  0  0  0  0  0  0  0
   46.4250   31.8040   45.3820 C   0  0  0  0  0  0  0  0  0  0  0  0
   45.8670   32.4960   44.7090 N   0  0  0  0  0  0  0  0  0  0  0  0
   46.3970   31.5860   46.7990 N   0  0  0  0  0  0  0  0  0  0  0  0
   47.2100   32.2580   47.7900 C   0  0  0  0  0  0  0  0  0  0  0  0
   47.1200   31.3580   49.0300 C   0  0  0  0  0  0  0  0  0  0  0  0
   45.8330   31.2980   49.5290 O   0  0  0  0  0  0  0  0  0  0  0  0
   44.8720   31.1570   48.5570 C   0  0  0  0  0  0  0  0  0  0  0  0
   45.4590   30.5950   47.2690 C   0  0  0  0  0  0  0  0  0  0  0  0
   43.9780   35.6970   42.5670 C   0  0  0  0  0  0  0  0  0  0  0  0
   43.6060   35.4640   41.2220 C   0  0  0  0  0  0  0  0  0  0  0  0
   44.0160   34.2680   40.6000 C   0  0  0  0  0  0  0  0  0  0  0  0
   44.7600   33.4000   41.3580 N   0  0  0  0  0  0  0  0  0  0  0  0
   45.0910   33.6580   42.6300 C   0  0  0  0  0  0  0  0  0  0  0  0
   44.7150   34.7910   43.2500 N   0  0  0  0  0  0  0  0  0  0  0  0
   47.0375   31.8225   41.6431 H   0  0  0  0  0  0  0  0  0  0  0  0
   48.2513   32.3441   47.4461 H   0  0  0  0  0  0  0  0  0  0  0  0
   46.8659   33.2835   47.9898 H   0  0  0  0  0  0  0  0  0  0  0  0
   47.4436   30.3427   48.7571 H   0  0  0  0  0  0  0  0  0  0  0  0
   47.7690   31.7842   49.8092 H   0  0  0  0  0  0  0  0  0  0  0  0
   44.0917   30.4732   48.9224 H   0  0  0  0  0  0  0  0  0  0  0  0
   44.4521   32.1503   48.3402 H   0  0  0  0  0  0  0  0  0  0  0  0
   44.6654   30.4351   46.5242 H   0  0  0  0  0  0  0  0  0  0  0  0
   45.9467   29.6234   47.4366 H   0  0  0  0  0  0  0  0  0  0  0  0
   43.6640   36.6268   43.0638 H   0  0  0  0  0  0  0  0  0  0  0  0
   43.0068   36.2040   40.6712 H   0  0  0  0  0  0  0  0  0  0  0  0
   43.7521   34.0412   39.5565 H   0  0  0  0  0  0  0  0  0  0  0  0
  1  5  1  0
  2  1  2  0
  2  3  1  0
  3  4  1  0
  4  6  1  0
  5  4  2  0
  6 11  1  0
  6  7  1  0
  7  8  1  0
  8  9  1  0
 10  9  1  0
 11 10  1  0
 12 17  2  0
 13 12  1  0
 14 13  2  0
 14 15  1  0
 15 16  2  0
 16 17  1  0
 16  1  1  0
  2 18  1  0
  7 19  1  0
  7 20  1  0
  8 21  1  0
  8 22  1  0
 10 23  1  0
 10 24  1  0
 11 25  1  0
 11 26  1  0
 12 27  1  0
 13 28  1  0
 14 29  1  0
M  ISO  8  18  14  19  13  20  13  21  13  22  13  23  13  24  13  25  13
M  ISO  4  26  13  27  14  28  14  29  14
M  END
>  <minimizedAffinity>  (1) 
-4.26542282

>  <minimizedRMSD>  (1) 
3.26941133

$$$$
