
     RDKit          3D

 23 25  0  0  0  0  0  0  0  0999 V2000
   45.9090   34.3940   41.4760 C   0  0  0  0  0  0  0  0  0  0  0  0
   46.2820   35.1100   42.6410 C   0  0  0  0  0  0  0  0  0  0  0  0
   48.0860   34.5640   42.7900 S   0  0  0  0  0  0  0  0  0  0  0  0
   47.9210   33.4930   41.2430 C   0  0  0  0  0  0  0  0  0  0  0  0
   46.8660   33.6490   40.9310 N   0  0  0  0  0  0  0  0  0  0  0  0
   42.9300   33.9530   39.4210 C   0  0  0  0  0  0  0  0  0  0  0  0
   41.9890   34.7880   40.0720 C   0  0  0  0  0  0  0  0  0  0  0  0
   42.3700   35.4940   41.2060 C   0  0  0  0  0  0  0  0  0  0  0  0
   43.6550   35.3390   41.6310 N   0  0  0  0  0  0  0  0  0  0  0  0
   44.5300   34.5420   40.9950 C   0  0  0  0  0  0  0  0  0  0  0  0
   44.1810   33.8440   39.8900 N   0  0  0  0  0  0  0  0  0  0  0  0
   49.1340   32.7560   40.8340 C   0  0  0  0  0  0  0  0  0  0  0  0
   50.2390   32.6500   41.5900 C   0  0  0  0  0  0  0  0  0  0  0  0
   51.3070   31.9570   41.1440 C   0  0  0  0  0  0  0  0  0  0  0  0
   51.1700   31.3700   39.8540 C   0  0  0  0  0  0  0  0  0  0  0  0
   49.4220   31.8900   39.3600 S   0  0  0  0  0  0  0  0  0  0  0  0
   45.6921   35.7878   43.2754 H   0  0  0  0  0  0  0  0  0  0  0  0
   42.6320   33.3900   38.5242 H   0  0  0  0  0  0  0  0  0  0  0  0
   40.9641   34.8767   39.6824 H   0  0  0  0  0  0  0  0  0  0  0  0
   41.6648   36.1497   41.7377 H   0  0  0  0  0  0  0  0  0  0  0  0
   50.2734   33.1311   42.5786 H   0  0  0  0  0  0  0  0  0  0  0  0
   52.2259   31.8520   41.7394 H   0  0  0  0  0  0  0  0  0  0  0  0
   51.8965   30.7675   39.2891 H   0  0  0  0  0  0  0  0  0  0  0  0
  1  2  2  0
  2  3  1  0
  4  3  1  0
  5  4  2  0
  5  1  1  0
  6 11  2  0
  6  7  1  0
  7  8  2  0
  8  9  1  0
 10  1  1  0
 10  9  2  0
 11 10  1  0
 12  4  1  0
 12 13  2  0
 14 13  1  0
 15 14  2  0
 16 15  1  0
 16 12  1  0
  2 17  1  0
  6 18  1  0
  7 19  1  0
  8 20  1  0
 13 21  1  0
 14 22  1  0
 15 23  1  0
M  ISO  7  17  14  18  14  19  14  20  14  21  14  22  14  23  14
M  END
>  <minimizedAffinity>  (1) 
-3.86318755

>  <minimizedRMSD>  (1) 
8.19225979

$$$$
