
     RDKit          3D

 30 31  0  0  0  0  0  0  0  0999 V2000
   46.4280   33.4970   45.0130 C   0  0  0  0  0  0  0  0  0  0  0  0
   45.3190   34.3180   44.6660 C   0  0  0  0  0  0  0  0  0  0  0  0
   45.9040   35.0230   43.0200 S   0  0  0  0  0  0  0  0  0  0  0  0
   47.5360   34.0550   43.1430 C   0  0  0  0  0  0  0  0  0  0  0  0
   47.3940   33.5260   44.1160 N   0  0  0  0  0  0  0  0  0  0  0  0
   47.2590   31.0810   47.6090 C   0  0  0  0  0  0  0  0  0  0  0  0
   46.2740   31.3390   48.5960 C   0  0  0  0  0  0  0  0  0  0  0  0
   45.3270   32.3430   48.3640 C   0  0  0  0  0  0  0  0  0  0  0  0
   45.4360   33.0010   47.1820 N   0  0  0  0  0  0  0  0  0  0  0  0
   46.3650   32.7520   46.2610 C   0  0  0  0  0  0  0  0  0  0  0  0
   47.2790   31.7980   46.4620 N   0  0  0  0  0  0  0  0  0  0  0  0
   48.5740   34.1330   42.1070 C   0  0  0  0  0  0  0  0  0  0  0  0
   49.0290   32.7510   41.7620 C   0  0  0  0  0  0  0  0  0  0  0  0
   49.7180   35.0110   42.5890 C   0  0  0  0  0  0  0  0  0  0  0  0
   48.0400   34.7590   40.8280 C   0  0  0  0  0  0  0  0  0  0  0  0
   48.9500   35.6250   40.1640 N   0  0  0  0  0  0  0  0  0  0  0  0
   44.3787   34.4929   45.2094 H   0  0  0  0  0  0  0  0  0  0  0  0
   48.0098   30.2947   47.7767 H   0  0  0  0  0  0  0  0  0  0  0  0
   46.2546   30.7586   49.5302 H   0  0  0  0  0  0  0  0  0  0  0  0
   44.5417   32.5843   49.0955 H   0  0  0  0  0  0  0  0  0  0  0  0
   49.2154   32.1848   42.6865 H   0  0  0  0  0  0  0  0  0  0  0  0
   48.2501   32.2449   41.1728 H   0  0  0  0  0  0  0  0  0  0  0  0
   49.9563   32.8066   41.1728 H   0  0  0  0  0  0  0  0  0  0  0  0
   49.7331   35.0226   43.6888 H   0  0  0  0  0  0  0  0  0  0  0  0
   50.6711   34.6103   42.2134 H   0  0  0  0  0  0  0  0  0  0  0  0
   49.5774   36.0353   42.2134 H   0  0  0  0  0  0  0  0  0  0  0  0
   47.7726   33.9474   40.1354 H   0  0  0  0  0  0  0  0  0  0  0  0
   47.1804   35.3792   41.1220 H   0  0  0  0  0  0  0  0  0  0  0  0
   49.4986   36.1471   40.8621 H   0  0  0  0  0  0  0  0  0  0  0  0
   49.5853   35.0686   39.5743 H   0  0  0  0  0  0  0  0  0  0  0  0
  1 10  1  0
  2  1  2  0
  3  4  1  0
  3  2  1  0
  4  5  2  0
  5  1  1  0
  6  7  2  0
  8  7  1  0
  9  8  2  0
 10 11  2  0
 10  9  1  0
 11  6  1  0
 12 14  1  0
 12  4  1  0
 13 12  1  0
 15 12  1  0
 16 15  1  0
  2 17  1  0
  6 18  1  0
  7 19  1  0
  8 20  1  0
 13 21  1  0
 13 22  1  0
 13 23  1  0
 14 24  1  0
 14 25  1  0
 14 26  1  0
 15 27  1  0
 15 28  1  0
 16 29  1  0
 16 30  1  0
M  ISO  8  17  14  18  14  19  14  20  14  21   8  22   8  23   8  24   8
M  ISO  6  25   8  26   8  27   8  28   8  29   5  30   5
M  END
>  <minimizedAffinity>  (1) 
-4.94454002

>  <minimizedRMSD>  (1) 
0.463151693

$$$$
