
     RDKit          3D

 42 44  0  0  0  0  0  0  0  0999 V2000
   47.6810   34.0740   42.0540 C   0  0  0  0  0  0  0  0  0  0  0  0
   46.1650   33.5340   45.3760 C   0  0  0  0  0  0  0  0  0  0  0  0
   45.1160   34.4910   45.3000 C   0  0  0  0  0  0  0  0  0  0  0  0
   45.4040   35.2110   43.5770 S   0  0  0  0  0  0  0  0  0  0  0  0
   46.8960   34.0530   43.3230 C   0  0  0  0  0  0  0  0  0  0  0  0
   46.9160   33.4900   44.2900 N   0  0  0  0  0  0  0  0  0  0  0  0
   47.4830   31.1350   47.7790 C   0  0  0  0  0  0  0  0  0  0  0  0
   46.5410   31.2330   48.8490 C   0  0  0  0  0  0  0  0  0  0  0  0
   45.4670   32.1220   48.7330 C   0  0  0  0  0  0  0  0  0  0  0  0
   45.3900   32.8480   47.5860 N   0  0  0  0  0  0  0  0  0  0  0  0
   46.2900   32.7420   46.5840 C   0  0  0  0  0  0  0  0  0  0  0  0
   47.3300   31.8940   46.6750 N   0  0  0  0  0  0  0  0  0  0  0  0
   48.2790   32.7150   41.8510 C   0  0  0  0  0  0  0  0  0  0  0  0
   48.7530   35.1380   42.1600 C   0  0  0  0  0  0  0  0  0  0  0  0
   46.7950   34.3690   40.8710 C   0  0  0  0  0  0  0  0  0  0  0  0
   47.1900   33.7770   39.6920 N   0  0  0  0  0  0  0  0  0  0  0  0
   46.9570   32.4680   39.3020 C   0  0  0  0  0  0  0  0  0  0  0  0
   46.5570   32.4520   37.8150 C   0  0  0  0  0  0  0  0  0  0  0  0
   47.6610   33.0010   37.0540 N   0  0  0  0  0  0  0  0  0  0  0  0
   48.0690   34.3030   37.5230 C   0  0  0  0  0  0  0  0  0  0  0  0
   48.3120   34.3390   39.0100 C   0  0  0  0  0  0  0  0  0  0  0  0
   44.3454   34.7437   46.0432 H   0  0  0  0  0  0  0  0  0  0  0  0
   48.3327   30.4406   47.8559 H   0  0  0  0  0  0  0  0  0  0  0  0
   46.6588   30.6171   49.7527 H   0  0  0  0  0  0  0  0  0  0  0  0
   44.7194   32.2287   49.5328 H   0  0  0  0  0  0  0  0  0  0  0  0
   48.4819   32.2539   42.8289 H   0  0  0  0  0  0  0  0  0  0  0  0
   47.5750   32.0850   41.2876 H   0  0  0  0  0  0  0  0  0  0  0  0
   49.2191   32.8085   41.2876 H   0  0  0  0  0  0  0  0  0  0  0  0
   48.9611   35.3445   43.2202 H   0  0  0  0  0  0  0  0  0  0  0  0
   49.6711   34.7838   41.6684 H   0  0  0  0  0  0  0  0  0  0  0  0
   48.4057   36.0587   41.6684 H   0  0  0  0  0  0  0  0  0  0  0  0
   45.7800   34.0170   41.1074 H   0  0  0  0  0  0  0  0  0  0  0  0
   46.8502   35.4551   40.7059 H   0  0  0  0  0  0  0  0  0  0  0  0
   47.8707   31.8724   39.4446 H   0  0  0  0  0  0  0  0  0  0  0  0
   46.1473   32.0376   39.9095 H   0  0  0  0  0  0  0  0  0  0  0  0
   46.3567   31.4196   37.4924 H   0  0  0  0  0  0  0  0  0  0  0  0
   45.6462   33.0478   37.6555 H   0  0  0  0  0  0  0  0  0  0  0  0
   47.3737   33.0812   36.0681 H   0  0  0  0  0  0  0  0  0  0  0  0
   48.9988   34.5865   37.0081 H   0  0  0  0  0  0  0  0  0  0  0  0
   47.2508   35.0049   37.3043 H   0  0  0  0  0  0  0  0  0  0  0  0
   49.2144   33.7566   39.2478 H   0  0  0  0  0  0  0  0  0  0  0  0
   48.4512   35.3814   39.3325 H   0  0  0  0  0  0  0  0  0  0  0  0
  1 14  1  0
  1  5  1  0
  2 11  1  0
  3  2  2  0
  4  3  1  0
  5  4  1  0
  5  6  2  0
  6  2  1  0
  7  8  2  0
  9  8  1  0
 10  9  2  0
 11 12  2  0
 11 10  1  0
 12  7  1  0
 13  1  1  0
 15  1  1  0
 16 15  1  0
 17 16  1  0
 18 17  1  0
 19 20  1  0
 19 18  1  0
 20 21  1  0
 21 16  1  0
  3 22  1  0
  7 23  1  0
  8 24  1  0
  9 25  1  0
 13 26  1  0
 13 27  1  0
 13 28  1  0
 14 29  1  0
 14 30  1  0
 14 31  1  0
 15 32  1  0
 15 33  1  0
 17 34  1  0
 17 35  1  0
 18 36  1  0
 18 37  1  0
 19 38  1  0
 20 39  1  0
 20 40  1  0
 21 41  1  0
 21 42  1  0
M  ISO  8  22  14  23  14  24  14  25  14  26   8  27   8  28   8  29   8
M  ISO  8  30   8  31   8  32   8  33   8  34  13  35  13  36  13  37  13
M  ISO  5  38   5  39  13  40  13  41  13  42  13
M  END
>  <minimizedAffinity>  (1) 
-5.18431664

>  <minimizedRMSD>  (1) 
1.93283081

$$$$
