
     RDKit          3D

 23 25  0  0  0  0  0  0  0  0999 V2000
   44.8600   35.7500   43.1060 C   0  0  0  0  0  0  0  0  0  0  0  0
   45.4130   34.4660   42.9090 C   0  0  0  0  0  0  0  0  0  0  0  0
   45.6030   33.6490   44.0130 C   0  0  0  0  0  0  0  0  0  0  0  0
   45.2440   34.1300   45.2290 N   0  0  0  0  0  0  0  0  0  0  0  0
   44.7200   35.3540   45.3920 C   0  0  0  0  0  0  0  0  0  0  0  0
   44.5340   36.1490   44.3330 N   0  0  0  0  0  0  0  0  0  0  0  0
   45.7370   34.1060   41.5740 N   0  0  0  0  0  0  0  0  0  0  0  0
   44.9410   33.7060   40.5330 C   0  0  0  0  0  0  0  0  0  0  0  0
   45.7020   33.4720   39.4570 N   0  0  0  0  0  0  0  0  0  0  0  0
   46.9770   33.7240   39.8150 C   0  0  0  0  0  0  0  0  0  0  0  0
   46.9740   34.1080   41.1040 N   0  0  0  0  0  0  0  0  0  0  0  0
   48.2300   33.6300   39.0160 C   0  0  0  0  0  0  0  0  0  0  0  0
   48.3230   34.5020   37.7600 C   0  0  0  0  0  0  0  0  0  0  0  0
   48.1840   32.9820   37.6480 C   0  0  0  0  0  0  0  0  0  0  0  0
   44.6990   36.4188   42.2476 H   0  0  0  0  0  0  0  0  0  0  0  0
   46.0317   32.6417   43.9058 H   0  0  0  0  0  0  0  0  0  0  0  0
   44.4431   35.7040   46.3974 H   0  0  0  0  0  0  0  0  0  0  0  0
   43.8475   33.5946   40.5749 H   0  0  0  0  0  0  0  0  0  0  0  0
   48.8446   33.4751   39.9151 H   0  0  0  0  0  0  0  0  0  0  0  0
   47.4841   35.1553   37.4782 H   0  0  0  0  0  0  0  0  0  0  0  0
   49.0315   35.2526   37.3798 H   0  0  0  0  0  0  0  0  0  0  0  0
   47.2452   32.5423   37.2802 H   0  0  0  0  0  0  0  0  0  0  0  0
   48.7548   32.1859   37.1475 H   0  0  0  0  0  0  0  0  0  0  0  0
  1  6  2  0
  2  1  1  0
  2  3  2  0
  3  4  1  0
  4  5  2  0
  6  5  1  0
  7  2  1  0
  8  7  1  0
  9 10  1  0
  9  8  2  0
 10 11  2  0
 11  7  1  0
 12 10  1  0
 13 12  1  0
 14 13  1  0
 14 12  1  0
  1 15  1  0
  3 16  1  0
  5 17  1  0
  8 18  1  0
 12 19  1  0
 13 20  1  0
 13 21  1  0
 14 22  1  0
 14 23  1  0
M  ISO  8  15  14  16  14  17  14  18  14  19  13  20  13  21  13  22  13
M  ISO  1  23  13
M  END
>  <minimizedAffinity>  (1) 
-3.91711664

>  <minimizedRMSD>  (1) 
3.09334922

$$$$
