
     RDKit          3D

 35 37  0  0  0  0  0  0  0  0999 V2000
   46.2630   33.8360   44.6650 C   0  0  0  0  0  0  0  0  0  0  0  0
   45.1990   34.7330   44.4740 C   0  0  0  0  0  0  0  0  0  0  0  0
   45.6620   35.4770   42.8070 S   0  0  0  0  0  0  0  0  0  0  0  0
   47.2130   34.4080   42.7170 C   0  0  0  0  0  0  0  0  0  0  0  0
   47.1270   33.8490   43.6740 N   0  0  0  0  0  0  0  0  0  0  0  0
   47.2350   31.3060   47.1050 C   0  0  0  0  0  0  0  0  0  0  0  0
   46.3310   31.5210   48.1620 C   0  0  0  0  0  0  0  0  0  0  0  0
   45.3970   32.5290   48.0300 C   0  0  0  0  0  0  0  0  0  0  0  0
   45.4130   33.2560   46.8760 N   0  0  0  0  0  0  0  0  0  0  0  0
   46.2890   33.0290   45.8810 C   0  0  0  0  0  0  0  0  0  0  0  0
   47.1980   32.0670   45.9790 N   0  0  0  0  0  0  0  0  0  0  0  0
   48.1480   34.4650   41.5790 C   0  0  0  0  0  0  0  0  0  0  0  0
   49.0860   33.3080   41.6460 C   0  0  0  0  0  0  0  0  0  0  0  0
   48.8970   35.7850   41.5860 C   0  0  0  0  0  0  0  0  0  0  0  0
   47.3950   34.3870   40.2520 C   0  0  0  0  0  0  0  0  0  0  0  0
   48.2180   33.7430   39.1860 C   0  0  0  0  0  0  0  0  0  0  0  0
   48.3640   34.4860   37.8570 C   0  0  0  0  0  0  0  0  0  0  0  0
   47.5600   33.2570   37.9170 C   0  0  0  0  0  0  0  0  0  0  0  0
   44.3338   34.9430   45.1200 H   0  0  0  0  0  0  0  0  0  0  0  0
   47.9859   30.5069   47.1916 H   0  0  0  0  0  0  0  0  0  0  0  0
   46.3677   30.9016   49.0703 H   0  0  0  0  0  0  0  0  0  0  0  0
   44.6670   32.7381   48.8259 H   0  0  0  0  0  0  0  0  0  0  0  0
   49.2873   33.0597   42.6985 H   0  0  0  0  0  0  0  0  0  0  0  0
   48.6337   32.4397   41.1445 H   0  0  0  0  0  0  0  0  0  0  0  0
   50.0290   33.5710   41.1445 H   0  0  0  0  0  0  0  0  0  0  0  0
   49.0756   36.0997   42.6248 H   0  0  0  0  0  0  0  0  0  0  0  0
   49.8603   35.6627   41.0692 H   0  0  0  0  0  0  0  0  0  0  0  0
   48.2980   36.5492   41.0692 H   0  0  0  0  0  0  0  0  0  0  0  0
   46.4769   33.7989   40.3974 H   0  0  0  0  0  0  0  0  0  0  0  0
   47.1602   35.4125   39.9307 H   0  0  0  0  0  0  0  0  0  0  0  0
   48.8885   33.2954   39.9344 H   0  0  0  0  0  0  0  0  0  0  0  0
   49.3300   34.4848   37.3308 H   0  0  0  0  0  0  0  0  0  0  0  0
   48.1803   35.5171   37.5209 H   0  0  0  0  0  0  0  0  0  0  0  0
   46.4665   33.3154   37.8131 H   0  0  0  0  0  0  0  0  0  0  0  0
   47.5689   32.3065   37.3635 H   0  0  0  0  0  0  0  0  0  0  0  0
  1 10  1  0
  2  1  2  0
  3  2  1  0
  4  3  1  0
  4  5  2  0
  5  1  1  0
  6  7  2  0
  8  7  1  0
  9  8  2  0
 10 11  2  0
 10  9  1  0
 11  6  1  0
 12 14  1  0
 12 13  1  0
 12  4  1  0
 15 12  1  0
 16 15  1  0
 17 18  1  0
 17 16  1  0
 18 16  1  0
  2 19  1  0
  6 20  1  0
  7 21  1  0
  8 22  1  0
 13 23  1  0
 13 24  1  0
 13 25  1  0
 14 26  1  0
 14 27  1  0
 14 28  1  0
 15 29  1  0
 15 30  1  0
 16 31  1  0
 17 32  1  0
 17 33  1  0
 18 34  1  0
 18 35  1  0
M  ISO  8  19  14  20  14  21  14  22  14  23   8  24   8  25   8  26   8
M  ISO  8  27   8  28   8  29   8  30   8  31  13  32  13  33  13  34  13
M  ISO  1  35  13
M  END
>  <minimizedAffinity>  (1) 
-5.14277601

>  <minimizedRMSD>  (1) 
1.12822795

$$$$
