
     RDKit          3D

 43 45  0  0  0  0  0  0  0  0999 V2000
   48.6420   34.6160   41.6460 C   0  0  0  0  0  0  0  0  0  0  0  0
   46.3950   33.7880   44.4540 C   0  0  0  0  0  0  0  0  0  0  0  0
   45.2590   34.5480   44.0730 C   0  0  0  0  0  0  0  0  0  0  0  0
   45.8780   35.3160   42.4740 S   0  0  0  0  0  0  0  0  0  0  0  0
   47.5500   34.4460   42.6530 C   0  0  0  0  0  0  0  0  0  0  0  0
   47.3980   33.8920   43.6040 N   0  0  0  0  0  0  0  0  0  0  0  0
   47.1080   31.2400   46.9600 C   0  0  0  0  0  0  0  0  0  0  0  0
   46.2060   31.5620   47.9910 C   0  0  0  0  0  0  0  0  0  0  0  0
   45.3610   32.6450   47.8320 C   0  0  0  0  0  0  0  0  0  0  0  0
   45.4650   33.3340   46.6630 N   0  0  0  0  0  0  0  0  0  0  0  0
   46.3270   33.0170   45.6880 C   0  0  0  0  0  0  0  0  0  0  0  0
   47.1470   31.9790   45.8240 N   0  0  0  0  0  0  0  0  0  0  0  0
   49.7380   33.6920   41.9750 C   0  0  0  0  0  0  0  0  0  0  0  0
   49.1270   36.0790   41.7060 C   0  0  0  0  0  0  0  0  0  0  0  0
   48.1240   34.4030   40.2590 C   0  0  0  0  0  0  0  0  0  0  0  0
   48.0470   33.1190   39.7360 N   0  0  0  0  0  0  0  0  0  0  0  0
   46.8380   32.3980   39.6890 C   0  0  0  0  0  0  0  0  0  0  0  0
   45.8000   32.9990   38.7600 C   0  0  0  0  0  0  0  0  0  0  0  0
   46.3460   33.2140   37.3660 C   0  0  0  0  0  0  0  0  0  0  0  0
   47.6990   33.8990   37.4560 C   0  0  0  0  0  0  0  0  0  0  0  0
   48.6240   33.1380   38.4030 C   0  0  0  0  0  0  0  0  0  0  0  0
   44.2861   34.6572   44.5745 H   0  0  0  0  0  0  0  0  0  0  0  0
   47.7866   30.3822   47.0767 H   0  0  0  0  0  0  0  0  0  0  0  0
   46.1735   30.9602   48.9112 H   0  0  0  0  0  0  0  0  0  0  0  0
   44.6409   32.9350   48.6113 H   0  0  0  0  0  0  0  0  0  0  0  0
   49.8339   33.6112   43.0678 H   0  0  0  0  0  0  0  0  0  0  0  0
   49.5210   32.7002   41.5516 H   0  0  0  0  0  0  0  0  0  0  0  0
   50.6788   34.0736   41.5516 H   0  0  0  0  0  0  0  0  0  0  0  0
   49.2296   36.3885   42.7566 H   0  0  0  0  0  0  0  0  0  0  0  0
   50.1012   36.1633   41.2021 H   0  0  0  0  0  0  0  0  0  0  0  0
   48.3961   36.7285   41.2021 H   0  0  0  0  0  0  0  0  0  0  0  0
   47.1056   34.8179   40.2332 H   0  0  0  0  0  0  0  0  0  0  0  0
   48.8838   34.8877   39.6282 H   0  0  0  0  0  0  0  0  0  0  0  0
   47.0575   31.3755   39.3480 H   0  0  0  0  0  0  0  0  0  0  0  0
   46.4118   32.4225   40.7028 H   0  0  0  0  0  0  0  0  0  0  0  0
   44.9377   32.3185   38.7029 H   0  0  0  0  0  0  0  0  0  0  0  0
   45.5068   33.9786   39.1655 H   0  0  0  0  0  0  0  0  0  0  0  0
   45.6517   33.8461   36.7930 H   0  0  0  0  0  0  0  0  0  0  0  0
   46.4576   32.2434   36.8606 H   0  0  0  0  0  0  0  0  0  0  0  0
   48.1544   33.9329   36.4553 H   0  0  0  0  0  0  0  0  0  0  0  0
   47.5556   34.9186   37.8432 H   0  0  0  0  0  0  0  0  0  0  0  0
   48.7481   32.1060   38.0429 H   0  0  0  0  0  0  0  0  0  0  0  0
   49.6040   33.6366   38.4359 H   0  0  0  0  0  0  0  0  0  0  0  0
  1 14  1  0
  1 13  1  0
  1  5  1  0
  2 11  1  0
  3  2  2  0
  4  5  1  0
  4  3  1  0
  5  6  2  0
  6  2  1  0
  7  8  2  0
  9  8  1  0
 10  9  2  0
 11 12  2  0
 11 10  1  0
 12  7  1  0
 15  1  1  0
 16 15  1  0
 17 16  1  0
 18 17  1  0
 19 20  1  0
 19 18  1  0
 20 21  1  0
 21 16  1  0
  3 22  1  0
  7 23  1  0
  8 24  1  0
  9 25  1  0
 13 26  1  0
 13 27  1  0
 13 28  1  0
 14 29  1  0
 14 30  1  0
 14 31  1  0
 15 32  1  0
 15 33  1  0
 17 34  1  0
 17 35  1  0
 18 36  1  0
 18 37  1  0
 19 38  1  0
 19 39  1  0
 20 40  1  0
 20 41  1  0
 21 42  1  0
 21 43  1  0
M  ISO  8  22  14  23  14  24  14  25  14  26   8  27   8  28   8  29   8
M  ISO  8  30   8  31   8  32   8  33   8  34  13  35  13  36  13  37  13
M  ISO  6  38  13  39  13  40  13  41  13  42  13  43  13
M  END
>  <minimizedAffinity>  (1) 
-5.37604618

>  <minimizedRMSD>  (1) 
1.50083292

$$$$
