
     RDKit          3D

 35 36  0  0  0  0  0  0  0  0999 V2000
   48.1500   34.3750   41.8600 C   0  0  0  0  0  0  0  0  0  0  0  0
   46.2410   33.7170   44.9580 C   0  0  0  0  0  0  0  0  0  0  0  0
   45.1700   34.5780   44.7380 C   0  0  0  0  0  0  0  0  0  0  0  0
   45.6230   35.3210   43.0680 S   0  0  0  0  0  0  0  0  0  0  0  0
   47.2140   34.2860   43.0050 C   0  0  0  0  0  0  0  0  0  0  0  0
   47.1040   33.7570   43.9670 N   0  0  0  0  0  0  0  0  0  0  0  0
   47.2960   31.2860   47.4440 C   0  0  0  0  0  0  0  0  0  0  0  0
   46.3500   31.4560   48.4830 C   0  0  0  0  0  0  0  0  0  0  0  0
   45.3720   32.4000   48.3090 C   0  0  0  0  0  0  0  0  0  0  0  0
   45.3860   33.1030   47.1430 N   0  0  0  0  0  0  0  0  0  0  0  0
   46.2770   32.9420   46.1660 C   0  0  0  0  0  0  0  0  0  0  0  0
   47.2540   32.0240   46.2990 N   0  0  0  0  0  0  0  0  0  0  0  0
   49.1580   33.3100   41.9880 C   0  0  0  0  0  0  0  0  0  0  0  0
   48.8040   35.7600   41.8680 C   0  0  0  0  0  0  0  0  0  0  0  0
   47.4260   34.2260   40.5350 C   0  0  0  0  0  0  0  0  0  0  0  0
   48.1740   34.6780   39.4570 O   0  0  0  0  0  0  0  0  0  0  0  0
   47.9500   33.7770   38.4020 C   0  0  0  0  0  0  0  0  0  0  0  0
   48.4190   34.3660   37.0810 C   0  0  0  0  0  0  0  0  0  0  0  0
   44.2920   34.7728   45.3714 H   0  0  0  0  0  0  0  0  0  0  0  0
   48.0902   30.5345   47.5645 H   0  0  0  0  0  0  0  0  0  0  0  0
   46.3983   30.8503   49.4000 H   0  0  0  0  0  0  0  0  0  0  0  0
   44.6078   32.5822   49.0789 H   0  0  0  0  0  0  0  0  0  0  0  0
   49.3471   33.1102   43.0530 H   0  0  0  0  0  0  0  0  0  0  0  0
   48.7878   32.3946   41.5033 H   0  0  0  0  0  0  0  0  0  0  0  0
   50.0924   33.6293   41.5033 H   0  0  0  0  0  0  0  0  0  0  0  0
   48.9582   36.0867   42.9070 H   0  0  0  0  0  0  0  0  0  0  0  0
   49.7739   35.7105   41.3514 H   0  0  0  0  0  0  0  0  0  0  0  0
   48.1496   36.4775   41.3514 H   0  0  0  0  0  0  0  0  0  0  0  0
   47.1938   33.1621   40.3796 H   0  0  0  0  0  0  0  0  0  0  0  0
   46.5152   34.8407   40.5856 H   0  0  0  0  0  0  0  0  0  0  0  0
   48.5029   32.8466   38.5987 H   0  0  0  0  0  0  0  0  0  0  0  0
   46.8710   33.5739   38.3345 H   0  0  0  0  0  0  0  0  0  0  0  0
   49.0934   35.2129   37.2760 H   0  0  0  0  0  0  0  0  0  0  0  0
   48.9541   33.5961   36.5057 H   0  0  0  0  0  0  0  0  0  0  0  0
   47.5489   34.7151   36.5057 H   0  0  0  0  0  0  0  0  0  0  0  0
  1 14  1  0
  1 13  1  0
  1  5  1  0
  2 11  1  0
  3  2  2  0
  4  3  1  0
  5  4  1  0
  5  6  2  0
  6  2  1  0
  7  8  2  0
  9  8  1  0
 10  9  2  0
 11 12  2  0
 11 10  1  0
 12  7  1  0
 15  1  1  0
 16 15  1  0
 17 16  1  0
 18 17  1  0
  3 19  1  0
  7 20  1  0
  8 21  1  0
  9 22  1  0
 13 23  1  0
 13 24  1  0
 13 25  1  0
 14 26  1  0
 14 27  1  0
 14 28  1  0
 15 29  1  0
 15 30  1  0
 17 31  1  0
 17 32  1  0
 18 33  1  0
 18 34  1  0
 18 35  1  0
M  ISO  8  19  14  20  14  21  14  22  14  23   8  24   8  25   8  26   8
M  ISO  8  27   8  28   8  29   8  30   8  31   8  32   8  33   8  34   8
M  ISO  1  35   8
M  END
>  <minimizedAffinity>  (1) 
-4.84857798

>  <minimizedRMSD>  (1) 
1.16154218

$$$$
