
     RDKit          3D

 42 44  0  0  0  0  0  0  0  0999 V2000
   48.8350   34.1060   42.2000 C   0  0  0  0  0  0  0  0  0  0  0  0
   46.2500   33.4490   44.7460 C   0  0  0  0  0  0  0  0  0  0  0  0
   45.2830   34.3870   44.3260 C   0  0  0  0  0  0  0  0  0  0  0  0
   46.1490   35.1600   42.8330 S   0  0  0  0  0  0  0  0  0  0  0  0
   47.6600   34.0440   43.0830 C   0  0  0  0  0  0  0  0  0  0  0  0
   47.3250   33.4680   43.9810 N   0  0  0  0  0  0  0  0  0  0  0  0
   45.9440   30.5140   46.8680 C   0  0  0  0  0  0  0  0  0  0  0  0
   45.4590   31.0630   48.0880 C   0  0  0  0  0  0  0  0  0  0  0  0
   45.2480   32.4240   48.1570 C   0  0  0  0  0  0  0  0  0  0  0  0
   45.5200   33.1560   47.0440 N   0  0  0  0  0  0  0  0  0  0  0  0
   45.9800   32.6190   45.8950 C   0  0  0  0  0  0  0  0  0  0  0  0
   46.1900   31.3100   45.8040 N   0  0  0  0  0  0  0  0  0  0  0  0
   49.6240   32.8460   42.3630 C   0  0  0  0  0  0  0  0  0  0  0  0
   49.6550   35.3360   42.5190 C   0  0  0  0  0  0  0  0  0  0  0  0
   48.4220   34.1910   40.7320 C   0  0  0  0  0  0  0  0  0  0  0  0
   48.4700   32.9570   40.1100 O   0  0  0  0  0  0  0  0  0  0  0  0
   48.4160   33.0190   38.7570 C   0  0  0  0  0  0  0  0  0  0  0  0
   47.2540   32.3380   38.0980 C   0  0  0  0  0  0  0  0  0  0  0  0
   47.5440   32.6880   36.6320 C   0  0  0  0  0  0  0  0  0  0  0  0
   47.9030   34.1580   36.7250 C   0  0  0  0  0  0  0  0  0  0  0  0
   48.3800   34.3850   38.1620 C   0  0  0  0  0  0  0  0  0  0  0  0
   44.2933   34.6086   44.7518 H   0  0  0  0  0  0  0  0  0  0  0  0
   46.1204   29.4310   46.7903 H   0  0  0  0  0  0  0  0  0  0  0  0
   45.2572   30.4172   48.9553 H   0  0  0  0  0  0  0  0  0  0  0  0
   44.8744   32.8987   49.0763 H   0  0  0  0  0  0  0  0  0  0  0  0
   49.7574   32.6329   43.4339 H   0  0  0  0  0  0  0  0  0  0  0  0
   49.0862   32.0125   41.8875 H   0  0  0  0  0  0  0  0  0  0  0  0
   50.6087   32.9659   41.8875 H   0  0  0  0  0  0  0  0  0  0  0  0
   49.7325   35.4522   43.6101 H   0  0  0  0  0  0  0  0  0  0  0  0
   50.6618   35.2270   42.0895 H   0  0  0  0  0  0  0  0  0  0  0  0
   49.1672   36.2234   42.0895 H   0  0  0  0  0  0  0  0  0  0  0  0
   47.3943   34.5788   40.6737 H   0  0  0  0  0  0  0  0  0  0  0  0
   49.1281   34.8594   40.2176 H   0  0  0  0  0  0  0  0  0  0  0  0
   49.3644   32.4986   38.5578 H   0  0  0  0  0  0  0  0  0  0  0  0
   47.2656   31.2515   38.2693 H   0  0  0  0  0  0  0  0  0  0  0  0
   46.2641   32.6484   38.4636 H   0  0  0  0  0  0  0  0  0  0  0  0
   46.6568   32.5323   36.0007 H   0  0  0  0  0  0  0  0  0  0  0  0
   48.3286   32.0675   36.1743 H   0  0  0  0  0  0  0  0  0  0  0  0
   48.7053   34.4014   36.0129 H   0  0  0  0  0  0  0  0  0  0  0  0
   47.0437   34.7993   36.4793 H   0  0  0  0  0  0  0  0  0  0  0  0
   49.3807   34.8416   38.1731 H   0  0  0  0  0  0  0  0  0  0  0  0
   47.7242   35.0697   38.7198 H   0  0  0  0  0  0  0  0  0  0  0  0
  1 13  1  0
  1 14  1  0
  1  5  1  0
  2 11  1  0
  3  2  2  0
  4  5  1  0
  4  3  1  0
  5  6  2  0
  6  2  1  0
  7  8  2  0
  8  9  1  0
 10  9  2  0
 11 10  1  0
 12 11  2  0
 12  7  1  0
 15  1  1  0
 16 15  1  0
 17 16  1  0
 18 17  1  0
 19 20  1  0
 19 18  1  0
 20 21  1  0
 21 17  1  0
  3 22  1  0
  7 23  1  0
  8 24  1  0
  9 25  1  0
 13 26  1  0
 13 27  1  0
 13 28  1  0
 14 29  1  0
 14 30  1  0
 14 31  1  0
 15 32  1  0
 15 33  1  0
 17 34  1  0
 18 35  1  0
 18 36  1  0
 19 37  1  0
 19 38  1  0
 20 39  1  0
 20 40  1  0
 21 41  1  0
 21 42  1  0
M  ISO  8  22  14  23  14  24  14  25  14  26   8  27   8  28   8  29   8
M  ISO  8  30   8  31   8  32   8  33   8  34  13  35  13  36  13  37  13
M  ISO  5  38  13  39  13  40  13  41  13  42  13
M  END
>  <minimizedAffinity>  (1) 
-4.81689358

>  <minimizedRMSD>  (1) 
1.8957926

$$$$
