
     RDKit          3D

 39 43  0  0  1  0  0  0  0  0999 V2000
   47.4700   32.5300   37.8090 C   0  0  2  0  0  0  0  0  0  0  0  0
   46.7930   31.5340   38.7790 C   0  0  0  0  0  0  0  0  0  0  0  0
   46.4680   33.0390   38.8020 C   0  0  1  0  0  0  0  0  0  0  0  0
   46.9080   33.8510   39.9410 C   0  0  0  0  0  0  0  0  0  0  0  0
   48.2200   34.2150   40.1680 C   0  0  0  0  0  0  0  0  0  0  0  0
   48.6620   34.9770   41.2300 C   0  0  0  0  0  0  0  0  0  0  0  0
   47.7270   35.4170   42.1450 C   0  0  0  0  0  0  0  0  0  0  0  0
   46.3910   35.0780   41.9610 C   0  0  0  0  0  0  0  0  0  0  0  0
   45.5340   35.5590   42.9200 C   0  0  0  0  0  0  0  0  0  0  0  0
   44.1930   35.2690   42.8120 C   0  0  0  0  0  0  0  0  0  0  0  0
   43.7720   34.5030   41.7410 C   0  0  0  0  0  0  0  0  0  0  0  0
   44.6560   34.0300   40.7880 C   0  0  0  0  0  0  0  0  0  0  0  0
   46.0060   34.3110   40.8790 C   0  0  0  0  0  0  0  0  0  0  0  0
   47.4100   32.2740   34.2090 N   0  0  0  0  0  0  0  0  0  0  0  0
   46.0660   32.1970   34.4790 C   0  0  0  0  0  0  0  0  0  0  0  0
   45.8740   32.2800   35.8010 N   0  0  0  0  0  0  0  0  0  0  0  0
   47.0990   32.4100   36.3750 C   0  0  0  0  0  0  0  0  0  0  0  0
   47.9970   32.4020   35.3870 N   0  0  0  0  0  0  0  0  0  0  0  0
   48.1070   30.9950   32.2950 C   0  0  0  0  0  0  0  0  0  0  0  0
   48.1230   32.2350   32.9890 C   0  0  0  0  0  0  0  0  0  0  0  0
   48.8160   33.2850   32.4330 C   0  0  0  0  0  0  0  0  0  0  0  0
   49.4460   33.0630   31.2440 N   0  0  0  0  0  0  0  0  0  0  0  0
   49.4180   31.8910   30.6120 C   0  0  0  0  0  0  0  0  0  0  0  0
   48.7520   30.8680   31.1380 N   0  0  0  0  0  0  0  0  0  0  0  0
   48.5011   32.8232   37.5622 H   0  0  0  0  0  0  0  0  0  0  0  0
   46.0522   30.8118   38.4053 H   0  0  0  0  0  0  0  0  0  0  0  0
   47.1373   30.7903   39.5128 H   0  0  0  0  0  0  0  0  0  0  0  0
   45.5468   33.6351   38.7241 H   0  0  0  0  0  0  0  0  0  0  0  0
   48.9733   33.8700   39.4445 H   0  0  0  0  0  0  0  0  0  0  0  0
   49.7273   35.2263   41.3440 H   0  0  0  0  0  0  0  0  0  0  0  0
   48.0342   36.0270   43.0073 H   0  0  0  0  0  0  0  0  0  0  0  0
   45.9116   36.1638   43.7576 H   0  0  0  0  0  0  0  0  0  0  0  0
   43.4744   35.6374   43.5589 H   0  0  0  0  0  0  0  0  0  0  0  0
   42.7030   34.2626   41.6438 H   0  0  0  0  0  0  0  0  0  0  0  0
   44.2809   33.4245   39.9498 H   0  0  0  0  0  0  0  0  0  0  0  0
   45.2714   32.0847   33.7266 H   0  0  0  0  0  0  0  0  0  0  0  0
   47.5601   30.1381   32.7152 H   0  0  0  0  0  0  0  0  0  0  0  0
   48.8604   34.2661   32.9284 H   0  0  0  0  0  0  0  0  0  0  0  0
   49.9460   31.7696   29.6547 H   0  0  0  0  0  0  0  0  0  0  0  0
  1  2  1  0
  1  3  1  0
  2  3  1  0
  3  4  1  0
  4  5  2  0
  4 13  1  0
  5  6  1  0
  6  7  2  0
  8  7  1  0
  8  9  2  0
 10  9  1  0
 11 10  2  0
 12 13  2  0
 12 11  1  0
 13  8  1  0
 14 15  1  0
 14 18  1  0
 15 16  2  0
 16 17  1  0
 17  1  1  0
 18 17  2  0
 19 20  2  0
 20 14  1  0
 21 20  1  0
 22 21  2  0
 23 24  2  0
 23 22  1  0
 24 19  1  0
  1 25  1  6
  2 26  1  0
  2 27  1  0
  3 28  1  6
  5 29  1  0
  6 30  1  0
  7 31  1  0
  9 32  1  0
 10 33  1  0
 11 34  1  0
 12 35  1  0
 15 36  1  0
 19 37  1  0
 21 38  1  0
 23 39  1  0
M  ISO  8  25  13  26  13  27  13  28  13  29  14  30  14  31  14  32  14
M  ISO  7  33  14  34  14  35  14  36  14  37  14  38  14  39  14
M  END
>  <minimizedAffinity>  (1) 
-6.49568844

>  <minimizedRMSD>  (1) 
9.02867985

$$$$
