
     RDKit          3D

 37 41  0  0  1  0  0  0  0  0999 V2000
   48.0400   33.3390   39.1860 C   0  0  2  0  0  0  0  0  0  0  0  0
   48.3470   34.4200   38.1230 C   0  0  0  0  0  0  0  0  0  0  0  0
   47.9260   32.9900   37.7320 C   0  0  1  0  0  0  0  0  0  0  0  0
   48.9430   32.2330   37.0760 N   0  0  0  0  0  0  0  0  0  0  0  0
   49.9030   31.4640   37.6300 C   0  0  0  0  0  0  0  0  0  0  0  0
   50.6520   30.9280   36.6410 N   0  0  0  0  0  0  0  0  0  0  0  0
   50.1500   31.3710   35.4670 C   0  0  0  0  0  0  0  0  0  0  0  0
   50.4650   31.1870   34.1230 C   0  0  0  0  0  0  0  0  0  0  0  0
   51.4470   30.4370   33.9010 O   0  0  0  0  0  0  0  0  0  0  0  0
   49.7510   31.7830   33.1570 N   0  0  0  0  0  0  0  0  0  0  0  0
   48.7030   32.5820   33.4400 C   0  0  0  0  0  0  0  0  0  0  0  0
   47.9780   33.1930   32.3720 N   0  0  0  0  0  0  0  0  0  0  0  0
   48.3760   32.7770   34.7310 N   0  0  0  0  0  0  0  0  0  0  0  0
   49.0710   32.1950   35.7280 C   0  0  0  0  0  0  0  0  0  0  0  0
   45.5900   34.0160   41.7550 N   0  0  0  0  0  0  0  0  0  0  0  0
   44.7680   33.7400   40.7080 C   0  0  0  0  0  0  0  0  0  0  0  0
   45.5030   33.4520   39.6250 N   0  0  0  0  0  0  0  0  0  0  0  0
   46.8060   33.5470   39.9950 C   0  0  0  0  0  0  0  0  0  0  0  0
   46.8280   33.8880   41.2840 N   0  0  0  0  0  0  0  0  0  0  0  0
   44.7370   35.6560   43.3040 C   0  0  0  0  0  0  0  0  0  0  0  0
   45.3220   34.3750   43.0990 C   0  0  0  0  0  0  0  0  0  0  0  0
   45.5800   33.5980   44.2030 C   0  0  0  0  0  0  0  0  0  0  0  0
   45.2600   34.0970   45.4260 N   0  0  0  0  0  0  0  0  0  0  0  0
   44.7140   35.3000   45.5920 C   0  0  0  0  0  0  0  0  0  0  0  0
   44.4560   36.0660   44.5380 N   0  0  0  0  0  0  0  0  0  0  0  0
   48.5749   32.8798   40.0304 H   0  0  0  0  0  0  0  0  0  0  0  0
   47.6562   35.2628   37.9727 H   0  0  0  0  0  0  0  0  0  0  0  0
   49.1943   35.0831   37.8943 H   0  0  0  0  0  0  0  0  0  0  0  0
   47.1216   32.5124   37.1533 H   0  0  0  0  0  0  0  0  0  0  0  0
   50.0515   31.3004   38.7076 H   0  0  0  0  0  0  0  0  0  0  0  0
   50.0103   31.6261   32.1726 H   0  0  0  0  0  0  0  0  0  0  0  0
   47.1757   33.8052   32.5782 H   0  0  0  0  0  0  0  0  0  0  0  0
   48.2574   33.0215   31.3956 H   0  0  0  0  0  0  0  0  0  0  0  0
   43.6687   33.7513   40.7442 H   0  0  0  0  0  0  0  0  0  0  0  0
   44.5176   36.3058   42.4440 H   0  0  0  0  0  0  0  0  0  0  0  0
   46.0326   32.6007   44.0997 H   0  0  0  0  0  0  0  0  0  0  0  0
   44.4762   35.6601   46.6038 H   0  0  0  0  0  0  0  0  0  0  0  0
  1 18  1  0
  2  1  1  0
  3  2  1  0
  3  1  1  0
  4  5  1  0
  4  3  1  0
  6  5  2  0
  7 14  2  0
  7  6  1  0
  8  7  1  0
  9  8  2  0
 10 11  1  0
 10  8  1  0
 11 13  2  0
 12 11  1  0
 13 14  1  0
 14  4  1  0
 15 21  1  0
 16 15  1  0
 17 18  1  0
 17 16  2  0
 18 19  2  0
 19 15  1  0
 20 25  2  0
 21 20  1  0
 21 22  2  0
 22 23  1  0
 23 24  2  0
 25 24  1  0
  1 26  1  1
  2 27  1  0
  2 28  1  0
  3 29  1  1
  5 30  1  0
 10 31  1  0
 12 32  1  0
 12 33  1  0
 16 34  1  0
 20 35  1  0
 22 36  1  0
 24 37  1  0
M  ISO  8  26  13  27  13  28  13  29  13  30  14  31   9  34  14  35  14
M  ISO  2  36  14  37  14
M  END
>  <minimizedAffinity>  (1) 
-5.88658714

>  <minimizedRMSD>  (1) 
1.71998668

$$$$
