
     RDKit          3D

 36 40  0  0  1  0  0  0  0  0999 V2000
   49.0440   31.6620   40.5560 C   0  0  2  0  0  0  0  0  0  0  0  0
   49.8950   31.7690   39.2700 C   0  0  0  0  0  0  0  0  0  0  0  0
   48.5650   31.0030   39.3040 C   0  0  2  0  0  0  0  0  0  0  0  0
   47.4870   31.5450   38.5390 N   0  0  0  0  0  0  0  0  0  0  0  0
   46.2730   32.0480   38.8310 C   0  0  0  0  0  0  0  0  0  0  0  0
   45.6200   32.4380   37.7160 N   0  0  0  0  0  0  0  0  0  0  0  0
   46.4460   32.1730   36.6790 C   0  0  0  0  0  0  0  0  0  0  0  0
   46.2520   32.3850   35.3300 C   0  0  0  0  0  0  0  0  0  0  0  0
   47.2390   32.0350   34.4560 N   0  0  0  0  0  0  0  0  0  0  0  0
   48.3840   31.4880   34.9580 C   0  0  0  0  0  0  0  0  0  0  0  0
   48.5360   31.2990   36.2760 N   0  0  0  0  0  0  0  0  0  0  0  0
   47.5970   31.6230   37.1920 C   0  0  0  0  0  0  0  0  0  0  0  0
   45.0530   32.9560   34.8250 N   0  0  0  0  0  0  0  0  0  0  0  0
   47.1760   34.2160   42.2990 N   0  0  0  0  0  0  0  0  0  0  0  0
   47.7660   34.9710   41.3220 C   0  0  0  0  0  0  0  0  0  0  0  0
   48.5230   34.1840   40.5420 N   0  0  0  0  0  0  0  0  0  0  0  0
   48.4120   32.9210   41.0280 C   0  0  0  0  0  0  0  0  0  0  0  0
   47.5950   32.9900   42.0810 N   0  0  0  0  0  0  0  0  0  0  0  0
   45.5410   35.7500   43.1680 C   0  0  0  0  0  0  0  0  0  0  0  0
   46.3040   34.5710   43.3490 C   0  0  0  0  0  0  0  0  0  0  0  0
   46.1460   33.8660   44.5200 C   0  0  0  0  0  0  0  0  0  0  0  0
   45.2560   34.3510   45.4370 N   0  0  0  0  0  0  0  0  0  0  0  0
   44.5490   35.4630   45.2410 C   0  0  0  0  0  0  0  0  0  0  0  0
   44.6940   36.1520   44.1150 N   0  0  0  0  0  0  0  0  0  0  0  0
   49.1927   31.3005   41.5842 H   0  0  0  0  0  0  0  0  0  0  0  0
   50.8474   31.2249   39.1873 H   0  0  0  0  0  0  0  0  0  0  0  0
   50.3194   32.5876   38.6701 H   0  0  0  0  0  0  0  0  0  0  0  0
   48.2292   29.9784   39.0862 H   0  0  0  0  0  0  0  0  0  0  0  0
   45.8649   32.1307   39.8492 H   0  0  0  0  0  0  0  0  0  0  0  0
   49.1932   31.1983   34.2715 H   0  0  0  0  0  0  0  0  0  0  0  0
   44.9388   33.1015   33.8117 H   0  0  0  0  0  0  0  0  0  0  0  0
   44.2980   33.2245   35.4722 H   0  0  0  0  0  0  0  0  0  0  0  0
   47.6392   36.0563   41.1955 H   0  0  0  0  0  0  0  0  0  0  0  0
   45.6477   36.3357   42.2431 H   0  0  0  0  0  0  0  0  0  0  0  0
   46.7158   32.9447   44.7114 H   0  0  0  0  0  0  0  0  0  0  0  0
   43.8452   35.8104   46.0117 H   0  0  0  0  0  0  0  0  0  0  0  0
  1 17  1  0
  2  3  1  0
  2  1  1  0
  3  1  1  0
  4  5  1  0
  4  3  1  0
  6  5  2  0
  7 12  2  0
  7  6  1  0
  8  7  1  0
  9 10  1  0
  9  8  2  0
 10 11  2  0
 11 12  1  0
 12  4  1  0
 13  8  1  0
 14 20  1  0
 15 14  1  0
 16 17  1  0
 16 15  2  0
 17 18  2  0
 18 14  1  0
 19 20  2  0
 19 24  1  0
 20 21  1  0
 21 22  2  0
 23 22  1  0
 24 23  2  0
  1 25  1  1
  2 26  1  0
  2 27  1  0
  3 28  1  1
  5 29  1  0
 10 30  1  0
 13 31  1  0
 13 32  1  0
 15 33  1  0
 19 34  1  0
 21 35  1  0
 23 36  1  0
M  ISO  8  25  13  26  13  27  13  28  13  29  14  30  14  33  14  34  14
M  ISO  2  35  14  36  14
M  END
>  <minimizedAffinity>  (1) 
-5.3900423

>  <minimizedRMSD>  (1) 
1.94822073

$$$$
