
     RDKit          3D

 37 41  0  0  1  0  0  0  0  0999 V2000
   48.1910   33.5100   38.7870 C   0  0  2  0  0  0  0  0  0  0  0  0
   48.4630   34.6790   37.8150 C   0  0  0  0  0  0  0  0  0  0  0  0
   48.0860   33.2830   37.3050 C   0  0  1  0  0  0  0  0  0  0  0  0
   49.1360   32.4050   36.7470 C   0  0  0  0  0  0  0  0  0  0  0  0
   50.1470   31.9500   37.5270 N   0  0  0  0  0  0  0  0  0  0  0  0
   51.1130   31.1520   37.0460 C   0  0  0  0  0  0  0  0  0  0  0  0
   51.0850   30.7840   35.7440 N   0  0  0  0  0  0  0  0  0  0  0  0
   50.0860   31.2240   34.9470 C   0  0  0  0  0  0  0  0  0  0  0  0
   50.1490   30.7900   33.6330 C   0  0  0  0  0  0  0  0  0  0  0  0
   49.1580   31.2090   32.7800 C   0  0  0  0  0  0  0  0  0  0  0  0
   48.1380   32.0420   33.2530 C   0  0  0  0  0  0  0  0  0  0  0  0
   48.1210   32.4450   34.5690 C   0  0  0  0  0  0  0  0  0  0  0  0
   49.1060   32.0350   35.4370 C   0  0  0  0  0  0  0  0  0  0  0  0
   45.7100   34.0420   41.3610 N   0  0  0  0  0  0  0  0  0  0  0  0
   44.9110   33.6180   40.3470 C   0  0  0  0  0  0  0  0  0  0  0  0
   45.6580   33.3560   39.2630 N   0  0  0  0  0  0  0  0  0  0  0  0
   46.9470   33.6160   39.5970 C   0  0  0  0  0  0  0  0  0  0  0  0
   46.9260   34.0250   40.8660 N   0  0  0  0  0  0  0  0  0  0  0  0
   44.9830   35.7670   42.8700 C   0  0  0  0  0  0  0  0  0  0  0  0
   45.4170   34.4370   42.6870 C   0  0  0  0  0  0  0  0  0  0  0  0
   45.5190   33.6380   43.8040 C   0  0  0  0  0  0  0  0  0  0  0  0
   45.1990   34.1730   45.0080 N   0  0  0  0  0  0  0  0  0  0  0  0
   44.7910   35.4330   45.1530 C   0  0  0  0  0  0  0  0  0  0  0  0
   44.6850   36.2250   44.0810 N   0  0  0  0  0  0  0  0  0  0  0  0
   48.7399   33.0006   39.5928 H   0  0  0  0  0  0  0  0  0  0  0  0
   47.7474   35.5105   37.7342 H   0  0  0  0  0  0  0  0  0  0  0  0
   49.2909   35.3825   37.6427 H   0  0  0  0  0  0  0  0  0  0  0  0
   47.3175   32.9329   36.6001 H   0  0  0  0  0  0  0  0  0  0  0  0
   51.9207   30.8000   37.7046 H   0  0  0  0  0  0  0  0  0  0  0  0
   50.9617   30.1349   33.2863 H   0  0  0  0  0  0  0  0  0  0  0  0
   49.1659   30.8906   31.7271 H   0  0  0  0  0  0  0  0  0  0  0  0
   47.3446   32.3769   32.5687 H   0  0  0  0  0  0  0  0  0  0  0  0
   47.3138   33.0997   34.9291 H   0  0  0  0  0  0  0  0  0  0  0  0
   43.8182   33.5064   40.4056 H   0  0  0  0  0  0  0  0  0  0  0  0
   44.8902   36.4329   41.9993 H   0  0  0  0  0  0  0  0  0  0  0  0
   45.8515   32.5927   43.7215 H   0  0  0  0  0  0  0  0  0  0  0  0
   44.5420   35.8206   46.1519 H   0  0  0  0  0  0  0  0  0  0  0  0
  1 17  1  0
  2  1  1  0
  3  2  1  0
  3  1  1  0
  4  3  1  0
  4  5  2  0
  6  5  1  0
  7  6  2  0
  8 13  2  0
  8  7  1  0
  9  8  1  0
 10 11  1  0
 10  9  2  0
 11 12  2  0
 12 13  1  0
 13  4  1  0
 14 20  1  0
 15 14  1  0
 16 17  1  0
 16 15  2  0
 17 18  2  0
 18 14  1  0
 19 24  2  0
 20 19  1  0
 20 21  2  0
 21 22  1  0
 22 23  2  0
 24 23  1  0
  1 25  1  1
  2 26  1  0
  2 27  1  0
  3 28  1  1
  6 29  1  0
  9 30  1  0
 10 31  1  0
 11 32  1  0
 12 33  1  0
 15 34  1  0
 19 35  1  0
 21 36  1  0
 23 37  1  0
M  ISO  8  25  13  26  13  27  13  28  13  29  14  30  14  31  14  32  14
M  ISO  5  33  14  34  14  35  14  36  14  37  14
M  END
>  <minimizedAffinity>  (1) 
-5.37321234

>  <minimizedRMSD>  (1) 
0.709086776

$$$$
