
     RDKit          3D

 50 53  0  0  1  0  0  0  0  0999 V2000
   48.1880   33.7280   42.3960 C   0  0  0  0  0  0  0  0  0  0  0  0
   46.3420   33.2510   45.5320 C   0  0  0  0  0  0  0  0  0  0  0  0
   45.2970   34.1790   45.3140 C   0  0  0  0  0  0  0  0  0  0  0  0
   45.7660   34.8450   43.6100 S   0  0  0  0  0  0  0  0  0  0  0  0
   47.2950   33.7120   43.5530 C   0  0  0  0  0  0  0  0  0  0  0  0
   47.2110   33.1850   44.5360 N   0  0  0  0  0  0  0  0  0  0  0  0
   47.3510   30.8830   48.1010 C   0  0  0  0  0  0  0  0  0  0  0  0
   46.3830   31.0640   49.1050 C   0  0  0  0  0  0  0  0  0  0  0  0
   45.3940   31.9970   48.8850 C   0  0  0  0  0  0  0  0  0  0  0  0
   45.4160   32.6910   47.7070 N   0  0  0  0  0  0  0  0  0  0  0  0
   46.3460   32.5070   46.7620 C   0  0  0  0  0  0  0  0  0  0  0  0
   47.3290   31.6010   46.9410 N   0  0  0  0  0  0  0  0  0  0  0  0
   48.8660   32.3880   42.2790 C   0  0  0  0  0  0  0  0  0  0  0  0
   49.2420   34.8080   42.5760 C   0  0  0  0  0  0  0  0  0  0  0  0
   47.4850   33.9790   41.0940 C   0  0  0  0  0  0  0  0  0  0  0  0
   48.3430   34.2320   40.0430 O   0  0  0  0  0  0  0  0  0  0  0  0
   48.0700   33.4600   38.9470 C   0  0  2  0  0  0  0  0  0  0  0  0
   49.0910   32.4340   38.5320 C   0  0  0  0  0  0  0  0  0  0  0  0
   48.7130   33.5450   37.6480 C   0  0  1  0  0  0  0  0  0  0  0  0
   47.8620   33.4260   36.4990 N   0  0  0  0  0  0  0  0  0  0  0  0
   48.4440   32.8130   35.3530 C   0  0  0  0  0  0  0  0  0  0  0  0
   47.5060   31.7380   34.7880 C   0  0  0  0  0  0  0  0  0  0  0  0
   46.2490   32.3680   34.5160 N   0  0  0  0  0  0  0  0  0  0  0  0
   45.6290   32.6590   35.7940 C   0  0  0  0  0  0  0  0  0  0  0  0
   46.6150   32.8120   36.9200 C   0  0  0  0  0  0  0  0  0  0  0  0
   44.4455   34.4408   45.9593 H   0  0  0  0  0  0  0  0  0  0  0  0
   48.1486   30.1414   48.2553 H   0  0  0  0  0  0  0  0  0  0  0  0
   46.4147   30.4792   50.0361 H   0  0  0  0  0  0  0  0  0  0  0  0
   44.6097   32.1785   49.6347 H   0  0  0  0  0  0  0  0  0  0  0  0
   49.0674   31.9899   43.2845 H   0  0  0  0  0  0  0  0  0  0  0  0
   48.2115   31.6923   41.7335 H   0  0  0  0  0  0  0  0  0  0  0  0
   49.8143   32.5032   41.7335 H   0  0  0  0  0  0  0  0  0  0  0  0
   49.4105   34.9807   43.6492 H   0  0  0  0  0  0  0  0  0  0  0  0
   50.1820   34.4852   42.1045 H   0  0  0  0  0  0  0  0  0  0  0  0
   48.8964   35.7398   42.1045 H   0  0  0  0  0  0  0  0  0  0  0  0
   46.8840   33.0916   40.8465 H   0  0  0  0  0  0  0  0  0  0  0  0
   46.8665   34.8785   41.2294 H   0  0  0  0  0  0  0  0  0  0  0  0
   47.0116   33.5069   39.2429 H   0  0  0  0  0  0  0  0  0  0  0  0
   50.0833   32.4160   39.0064 H   0  0  0  0  0  0  0  0  0  0  0  0
   49.1167   31.3373   38.4508 H   0  0  0  0  0  0  0  0  0  0  0  0
   49.3351   34.2621   37.0924 H   0  0  0  0  0  0  0  0  0  0  0  0
   48.6230   33.5787   34.5838 H   0  0  0  0  0  0  0  0  0  0  0  0
   49.3939   32.3409   35.6441 H   0  0  0  0  0  0  0  0  0  0  0  0
   47.9265   31.3215   33.8608 H   0  0  0  0  0  0  0  0  0  0  0  0
   47.3808   30.9145   35.5065 H   0  0  0  0  0  0  0  0  0  0  0  0
   46.3984   33.2406   33.9895 H   0  0  0  0  0  0  0  0  0  0  0  0
   45.0606   33.5960   35.6996 H   0  0  0  0  0  0  0  0  0  0  0  0
   44.9849   31.8027   36.0429 H   0  0  0  0  0  0  0  0  0  0  0  0
   46.8354   31.8159   37.3314 H   0  0  0  0  0  0  0  0  0  0  0  0
   46.1584   33.4731   37.6714 H   0  0  0  0  0  0  0  0  0  0  0  0
  1 14  1  0
  1  5  1  0
  2 11  1  0
  3  2  2  0
  4  3  1  0
  5  4  1  0
  5  6  2  0
  6  2  1  0
  7  8  2  0
  9  8  1  0
 10  9  2  0
 11 12  2  0
 11 10  1  0
 12  7  1  0
 13  1  1  0
 15  1  1  0
 16 15  1  0
 17 16  1  0
 18 17  1  0
 19 18  1  0
 19 17  1  0
 20 25  1  0
 20 19  1  0
 21 20  1  0
 22 21  1  0
 23 22  1  0
 23 24  1  0
 24 25  1  0
  3 26  1  0
  7 27  1  0
  8 28  1  0
  9 29  1  0
 13 30  1  0
 13 31  1  0
 13 32  1  0
 14 33  1  0
 14 34  1  0
 14 35  1  0
 15 36  1  0
 15 37  1  0
 17 38  1  6
 18 39  1  0
 18 40  1  0
 19 41  1  6
 21 42  1  0
 21 43  1  0
 22 44  1  0
 22 45  1  0
 23 46  1  0
 24 47  1  0
 24 48  1  0
 25 49  1  0
 25 50  1  0
M  ISO  8  26  14  27  14  28  14  29  14  30   8  31   8  32   8  33   8
M  ISO  8  34   8  35   8  36   8  37   8  38  13  39  13  40  13  41  13
M  ISO  8  42  13  43  13  44  13  45  13  46   5  47  13  48  13  49  13
M  ISO  1  50  13
M  END
>  <minimizedAffinity>  (1) 
-5.49719

>  <minimizedRMSD>  (1) 
0.955245256

$$$$
