
     RDKit          3D

 49 52  0  0  1  0  0  0  0  0999 V2000
   48.7290   34.2890   41.8850 C   0  0  0  0  0  0  0  0  0  0  0  0
   46.4590   33.6270   44.6910 C   0  0  0  0  0  0  0  0  0  0  0  0
   45.3860   34.4710   44.3050 C   0  0  0  0  0  0  0  0  0  0  0  0
   46.0670   35.1860   42.6970 S   0  0  0  0  0  0  0  0  0  0  0  0
   47.6720   34.1860   42.8880 C   0  0  0  0  0  0  0  0  0  0  0  0
   47.4720   33.6470   43.8470 N   0  0  0  0  0  0  0  0  0  0  0  0
   47.0200   31.0690   47.2070 C   0  0  0  0  0  0  0  0  0  0  0  0
   46.0830   31.4020   48.2230 C   0  0  0  0  0  0  0  0  0  0  0  0
   45.2920   32.4890   48.0190 C   0  0  0  0  0  0  0  0  0  0  0  0
   45.4390   33.1990   46.8540 N   0  0  0  0  0  0  0  0  0  0  0  0
   46.3180   32.8810   45.9070 C   0  0  0  0  0  0  0  0  0  0  0  0
   47.1270   31.8050   46.0700 N   0  0  0  0  0  0  0  0  0  0  0  0
   49.2440   32.8980   41.5870 C   0  0  0  0  0  0  0  0  0  0  0  0
   49.8660   35.1360   42.4200 C   0  0  0  0  0  0  0  0  0  0  0  0
   48.2830   34.8700   40.5810 C   0  0  0  0  0  0  0  0  0  0  0  0
   47.4720   34.0230   39.8530 O   0  0  0  0  0  0  0  0  0  0  0  0
   48.0820   33.5470   38.7240 C   0  0  2  0  0  0  0  0  0  0  0  0
   48.2510   34.5010   37.5560 C   0  0  0  0  0  0  0  0  0  0  0  0
   47.4360   33.2760   37.4590 C   0  0  1  0  0  0  0  0  0  0  0  0
   47.7710   32.1240   36.5660 C   0  0  0  0  0  0  0  0  0  0  0  0
   49.0620   32.2170   35.8390 C   0  0  0  0  0  0  0  0  0  0  0  0
   48.7570   31.4750   34.5310 C   0  0  0  0  0  0  0  0  0  0  0  0
   47.4270   32.1140   34.1730 C   0  0  0  0  0  0  0  0  0  0  0  0
   46.6860   32.0580   35.4820 C   0  0  0  0  0  0  0  0  0  0  0  0
   44.4238   34.6570   44.8046 H   0  0  0  0  0  0  0  0  0  0  0  0
   47.6736   30.1950   47.3446 H   0  0  0  0  0  0  0  0  0  0  0  0
   46.0009   30.8018   49.1412 H   0  0  0  0  0  0  0  0  0  0  0  0
   44.5499   32.7928   48.7720 H   0  0  0  0  0  0  0  0  0  0  0  0
   49.4397   32.3693   42.5316 H   0  0  0  0  0  0  0  0  0  0  0  0
   48.4911   32.3448   41.0064 H   0  0  0  0  0  0  0  0  0  0  0  0
   50.1756   32.9685   41.0064 H   0  0  0  0  0  0  0  0  0  0  0  0
   49.8475   35.1222   43.5198 H   0  0  0  0  0  0  0  0  0  0  0  0
   50.8245   34.7300   42.0643 H   0  0  0  0  0  0  0  0  0  0  0  0
   49.7514   36.1706   42.0643 H   0  0  0  0  0  0  0  0  0  0  0  0
   47.7263   35.7967   40.7842 H   0  0  0  0  0  0  0  0  0  0  0  0
   49.1863   35.0513   39.9800 H   0  0  0  0  0  0  0  0  0  0  0  0
   48.7046   32.9181   39.3773 H   0  0  0  0  0  0  0  0  0  0  0  0
   47.7691   35.4897   37.5714 H   0  0  0  0  0  0  0  0  0  0  0  0
   49.0989   34.9323   37.0037 H   0  0  0  0  0  0  0  0  0  0  0  0
   46.3965   33.0654   37.1672 H   0  0  0  0  0  0  0  0  0  0  0  0
   47.8387   31.2490   37.2292 H   0  0  0  0  0  0  0  0  0  0  0  0
   49.3364   33.2649   35.6475 H   0  0  0  0  0  0  0  0  0  0  0  0
   49.9117   31.7953   36.3960 H   0  0  0  0  0  0  0  0  0  0  0  0
   49.5221   31.6668   33.7643 H   0  0  0  0  0  0  0  0  0  0  0  0
   48.7383   30.3782   34.6127 H   0  0  0  0  0  0  0  0  0  0  0  0
   47.5613   33.1520   33.8346 H   0  0  0  0  0  0  0  0  0  0  0  0
   46.9032   31.6111   33.3467 H   0  0  0  0  0  0  0  0  0  0  0  0
   45.9988   32.9122   35.5724 H   0  0  0  0  0  0  0  0  0  0  0  0
   46.0754   31.1472   35.5685 H   0  0  0  0  0  0  0  0  0  0  0  0
  1 14  1  0
  1  5  1  0
  2 11  1  0
  3  2  2  0
  4  5  1  0
  4  3  1  0
  5  6  2  0
  6  2  1  0
  7  8  2  0
  9  8  1  0
 10  9  2  0
 11 12  2  0
 11 10  1  0
 12  7  1  0
 13  1  1  0
 15  1  1  0
 16 15  1  0
 17 16  1  0
 18 17  1  0
 19 18  1  0
 19 17  1  0
 20 19  1  0
 21 20  1  0
 22 21  1  0
 23 22  1  0
 23 24  1  0
 24 20  1  0
  3 25  1  0
  7 26  1  0
  8 27  1  0
  9 28  1  0
 13 29  1  0
 13 30  1  0
 13 31  1  0
 14 32  1  0
 14 33  1  0
 14 34  1  0
 15 35  1  0
 15 36  1  0
 17 37  1  1
 18 38  1  0
 18 39  1  0
 19 40  1  1
 20 41  1  0
 21 42  1  0
 21 43  1  0
 22 44  1  0
 22 45  1  0
 23 46  1  0
 23 47  1  0
 24 48  1  0
 24 49  1  0
M  ISO  8  25  14  26  14  27  14  28  14  29   8  30   8  31   8  32   8
M  ISO  8  33   8  34   8  35   8  36   8  37  13  38  13  39  13  40  13
M  ISO  8  41  13  42  13  43  13  44  13  45  13  46  13  47  13  48  13
M  ISO  1  49  13
M  END
>  <minimizedAffinity>  (1) 
-5.46899748

>  <minimizedRMSD>  (1) 
1.6013819

$$$$
