
     RDKit          3D

 47 50  0  0  1  0  0  0  0  0999 V2000
   48.0050   34.0340   42.0970 C   0  0  0  0  0  0  0  0  0  0  0  0
   46.2600   33.4780   45.2780 C   0  0  0  0  0  0  0  0  0  0  0  0
   45.1980   34.3860   45.1100 C   0  0  0  0  0  0  0  0  0  0  0  0
   45.6000   35.0870   43.4050 S   0  0  0  0  0  0  0  0  0  0  0  0
   47.1540   33.9790   43.2830 C   0  0  0  0  0  0  0  0  0  0  0  0
   47.1060   33.4410   44.2560 N   0  0  0  0  0  0  0  0  0  0  0  0
   47.4140   31.1020   47.7860 C   0  0  0  0  0  0  0  0  0  0  0  0
   46.4730   31.2490   48.8250 C   0  0  0  0  0  0  0  0  0  0  0  0
   45.4520   32.1600   48.6500 C   0  0  0  0  0  0  0  0  0  0  0  0
   45.4270   32.8600   47.4770 N   0  0  0  0  0  0  0  0  0  0  0  0
   46.3330   32.7080   46.4980 C   0  0  0  0  0  0  0  0  0  0  0  0
   47.3350   31.8320   46.6370 N   0  0  0  0  0  0  0  0  0  0  0  0
   48.8560   32.7930   42.0560 C   0  0  0  0  0  0  0  0  0  0  0  0
   48.9010   35.2560   42.1610 C   0  0  0  0  0  0  0  0  0  0  0  0
   47.2400   34.0860   40.8020 C   0  0  0  0  0  0  0  0  0  0  0  0
   48.0250   34.4360   39.7190 O   0  0  0  0  0  0  0  0  0  0  0  0
   47.9140   33.5460   38.6820 C   0  0  2  0  0  0  0  0  0  0  0  0
   49.1150   32.7060   38.3130 C   0  0  0  0  0  0  0  0  0  0  0  0
   48.5240   33.6790   37.3730 C   0  0  1  0  0  0  0  0  0  0  0  0
   47.8020   33.1730   36.2490 N   0  0  0  0  0  0  0  0  0  0  0  0
   46.5780   32.5100   36.5400 C   0  0  0  0  0  0  0  0  0  0  0  0
   45.9610   32.1740   35.1760 C   0  0  0  0  0  0  0  0  0  0  0  0
   46.7200   31.1730   34.6350 O   0  0  0  0  0  0  0  0  0  0  0  0
   48.0460   31.4950   34.4340 C   0  0  0  0  0  0  0  0  0  0  0  0
   48.5610   32.6650   35.1730 C   0  0  0  0  0  0  0  0  0  0  0  0
   44.3633   34.6221   45.7865 H   0  0  0  0  0  0  0  0  0  0  0  0
   48.2343   30.3789   47.9052 H   0  0  0  0  0  0  0  0  0  0  0  0
   46.5504   30.6551   49.7477 H   0  0  0  0  0  0  0  0  0  0  0  0
   44.6874   32.3168   49.4251 H   0  0  0  0  0  0  0  0  0  0  0  0
   49.0793   32.4674   43.0827 H   0  0  0  0  0  0  0  0  0  0  0  0
   48.3146   31.9944   41.5277 H   0  0  0  0  0  0  0  0  0  0  0  0
   49.7960   33.0103   41.5277 H   0  0  0  0  0  0  0  0  0  0  0  0
   49.0917   35.5161   43.2126 H   0  0  0  0  0  0  0  0  0  0  0  0
   49.8549   35.0380   41.6584 H   0  0  0  0  0  0  0  0  0  0  0  0
   48.4063   36.1002   41.6584 H   0  0  0  0  0  0  0  0  0  0  0  0
   46.8056   33.0933   40.6126 H   0  0  0  0  0  0  0  0  0  0  0  0
   46.4674   34.8616   40.9098 H   0  0  0  0  0  0  0  0  0  0  0  0
   46.8704   33.3970   38.9963 H   0  0  0  0  0  0  0  0  0  0  0  0
   50.0938   32.9037   38.7744 H   0  0  0  0  0  0  0  0  0  0  0  0
   49.3501   31.6316   38.2923 H   0  0  0  0  0  0  0  0  0  0  0  0
   48.9266   34.5251   36.7968 H   0  0  0  0  0  0  0  0  0  0  0  0
   46.7655   31.5908   37.1143 H   0  0  0  0  0  0  0  0  0  0  0  0
   45.9086   33.1362   37.1482 H   0  0  0  0  0  0  0  0  0  0  0  0
   44.9223   31.8351   35.3033 H   0  0  0  0  0  0  0  0  0  0  0  0
   45.9473   33.0573   34.5205 H   0  0  0  0  0  0  0  0  0  0  0  0
   48.6870   30.9102   33.7579 H   0  0  0  0  0  0  0  0  0  0  0  0
   49.5166   33.1311   34.8907 H   0  0  0  0  0  0  0  0  0  0  0  0
  1 14  1  0
  1  5  1  0
  2 11  1  0
  3  2  2  0
  4  3  1  0
  5  4  1  0
  5  6  2  0
  6  2  1  0
  7  8  2  0
  9  8  1  0
 10  9  2  0
 11 12  2  0
 11 10  1  0
 12  7  1  0
 13  1  1  0
 15  1  1  0
 16 15  1  0
 17 16  1  0
 18 17  1  0
 19 18  1  0
 19 17  1  0
 20 21  1  0
 20 19  1  0
 22 21  1  0
 23 22  1  0
 24 23  1  0
 24 25  2  0
 25 20  1  0
  3 26  1  0
  7 27  1  0
  8 28  1  0
  9 29  1  0
 13 30  1  0
 13 31  1  0
 13 32  1  0
 14 33  1  0
 14 34  1  0
 14 35  1  0
 15 36  1  0
 15 37  1  0
 17 38  1  6
 18 39  1  0
 18 40  1  0
 19 41  1  6
 21 42  1  0
 21 43  1  0
 22 44  1  0
 22 45  1  0
 24 46  1  0
 25 47  1  0
M  ISO  8  26  14  27  14  28  14  29  14  30   8  31   8  32   8  33   8
M  ISO  8  34   8  35   8  36   8  37   8  38  13  39  13  40  13  41  13
M  ISO  6  42  13  43  13  44  13  45  13  46  13  47  13
M  END
>  <minimizedAffinity>  (1) 
-5.39655352

>  <minimizedRMSD>  (1) 
0.993047118

$$$$
