
     RDKit          3D

 39 41  0  0  1  0  0  0  0  0999 V2000
   48.3650   33.8800   42.3490 C   0  0  0  0  0  0  0  0  0  0  0  0
   46.3710   33.3200   45.3780 C   0  0  0  0  0  0  0  0  0  0  0  0
   45.3030   34.1970   45.1070 C   0  0  0  0  0  0  0  0  0  0  0  0
   45.8370   34.8860   43.4330 S   0  0  0  0  0  0  0  0  0  0  0  0
   47.4110   33.8260   43.4530 C   0  0  0  0  0  0  0  0  0  0  0  0
   47.2740   33.3080   44.4320 N   0  0  0  0  0  0  0  0  0  0  0  0
   47.3050   30.9400   47.9730 C   0  0  0  0  0  0  0  0  0  0  0  0
   46.3170   31.1310   48.9540 C   0  0  0  0  0  0  0  0  0  0  0  0
   45.3480   32.0680   48.7150 C   0  0  0  0  0  0  0  0  0  0  0  0
   45.4000   32.7600   47.5370 N   0  0  0  0  0  0  0  0  0  0  0  0
   46.3490   32.5660   46.6120 C   0  0  0  0  0  0  0  0  0  0  0  0
   47.3130   31.6580   46.8120 N   0  0  0  0  0  0  0  0  0  0  0  0
   49.0470   32.5380   42.2400 C   0  0  0  0  0  0  0  0  0  0  0  0
   49.3890   34.9550   42.5970 C   0  0  0  0  0  0  0  0  0  0  0  0
   47.7230   34.1310   41.0140 C   0  0  0  0  0  0  0  0  0  0  0  0
   48.0590   33.2010   40.0550 O   0  0  0  0  0  0  0  0  0  0  0  0
   47.1510   33.1420   39.0340 C   0  0  2  0  0  0  0  0  0  0  0  0
   47.4590   32.2170   37.8740 C   0  0  0  0  0  0  0  0  0  0  0  0
   47.2990   33.6740   37.6960 C   0  0  2  0  0  0  0  0  0  0  0  0
   48.4880   34.5540   37.3770 C   0  0  0  0  0  0  0  0  0  0  0  0
   44.4067   34.4188   45.7048 H   0  0  0  0  0  0  0  0  0  0  0  0
   48.0929   30.1920   48.1453 H   0  0  0  0  0  0  0  0  0  0  0  0
   46.3221   30.5456   49.8853 H   0  0  0  0  0  0  0  0  0  0  0  0
   44.5511   32.2585   49.4490 H   0  0  0  0  0  0  0  0  0  0  0  0
   49.2466   32.1452   43.2479 H   0  0  0  0  0  0  0  0  0  0  0  0
   48.3950   31.8385   41.6963 H   0  0  0  0  0  0  0  0  0  0  0  0
   49.9964   32.6523   41.6963 H   0  0  0  0  0  0  0  0  0  0  0  0
   49.5206   35.0931   43.6803 H   0  0  0  0  0  0  0  0  0  0  0  0
   50.3477   34.6593   42.1460 H   0  0  0  0  0  0  0  0  0  0  0  0
   49.0470   35.8982   42.1460 H   0  0  0  0  0  0  0  0  0  0  0  0
   46.6310   34.1156   41.1453 H   0  0  0  0  0  0  0  0  0  0  0  0
   48.0890   35.1057   40.6591 H   0  0  0  0  0  0  0  0  0  0  0  0
   46.3711   33.3027   39.7929 H   0  0  0  0  0  0  0  0  0  0  0  0
   48.4515   31.7515   37.7826 H   0  0  0  0  0  0  0  0  0  0  0  0
   47.0045   31.3134   37.4416 H   0  0  0  0  0  0  0  0  0  0  0  0
   46.6704   34.2875   37.0338 H   0  0  0  0  0  0  0  0  0  0  0  0
   48.9518   34.8973   38.3135 H   0  0  0  0  0  0  0  0  0  0  0  0
   49.2225   33.9803   36.7928 H   0  0  0  0  0  0  0  0  0  0  0  0
   48.1539   35.4241   36.7928 H   0  0  0  0  0  0  0  0  0  0  0  0
  1 14  1  0
  1  5  1  0
  2 11  1  0
  3  2  2  0
  4  5  1  0
  4  3  1  0
  5  6  2  0
  6  2  1  0
  7  8  2  0
  9  8  1  0
 10  9  2  0
 11 12  2  0
 11 10  1  0
 12  7  1  0
 13  1  1  0
 15  1  1  0
 16 15  1  0
 17 16  1  0
 18 17  1  0
 19 18  1  0
 19 17  1  0
 20 19  1  0
  3 21  1  0
  7 22  1  0
  8 23  1  0
  9 24  1  0
 13 25  1  0
 13 26  1  0
 13 27  1  0
 14 28  1  0
 14 29  1  0
 14 30  1  0
 15 31  1  0
 15 32  1  0
 17 33  1  1
 18 34  1  0
 18 35  1  0
 19 36  1  6
 20 37  1  0
 20 38  1  0
 20 39  1  0
M  ISO  8  21  14  22  14  23  14  24  14  25   8  26   8  27   8  28   8
M  ISO  8  29   8  30   8  31   8  32   8  33  13  34  13  35  13  36  13
M  ISO  3  37   8  38   8  39   8
M  END
>  <minimizedAffinity>  (1) 
-4.9281435

>  <minimizedRMSD>  (1) 
0.732259154

$$$$
