
     RDKit          3D

 37 39  0  0  1  0  0  0  0  0999 V2000
   48.3220   33.8950   42.3380 C   0  0  0  0  0  0  0  0  0  0  0  0
   46.3590   33.3410   45.3890 C   0  0  0  0  0  0  0  0  0  0  0  0
   45.2960   34.2170   45.1260 C   0  0  0  0  0  0  0  0  0  0  0  0
   45.8010   34.9060   43.4440 S   0  0  0  0  0  0  0  0  0  0  0  0
   47.3830   33.8370   43.4540 C   0  0  0  0  0  0  0  0  0  0  0  0
   47.2830   33.3040   44.4350 N   0  0  0  0  0  0  0  0  0  0  0  0
   47.3110   30.9470   47.9540 C   0  0  0  0  0  0  0  0  0  0  0  0
   46.3030   31.1240   48.9420 C   0  0  0  0  0  0  0  0  0  0  0  0
   45.3220   32.0670   48.7060 C   0  0  0  0  0  0  0  0  0  0  0  0
   45.3960   32.7550   47.5440 N   0  0  0  0  0  0  0  0  0  0  0  0
   46.3440   32.5860   46.6170 C   0  0  0  0  0  0  0  0  0  0  0  0
   47.3170   31.6760   46.8130 N   0  0  0  0  0  0  0  0  0  0  0  0
   48.8760   32.5160   42.1030 C   0  0  0  0  0  0  0  0  0  0  0  0
   49.4540   34.8390   42.6700 C   0  0  0  0  0  0  0  0  0  0  0  0
   47.6950   34.3430   41.0440 C   0  0  0  0  0  0  0  0  0  0  0  0
   47.9440   33.4840   39.9910 O   0  0  0  0  0  0  0  0  0  0  0  0
   46.8950   33.4180   39.1120 C   0  0  2  0  0  0  0  0  0  0  0  0
   46.6780   32.1280   38.3600 C   0  0  0  0  0  0  0  0  0  0  0  0
   46.9840   33.3940   37.6630 C   0  0  2  0  0  0  0  0  0  0  0  0
   48.5580   33.6480   36.8080 S   0  0  0  0  0  0  0  0  0  0  0  0
   44.4082   34.4416   45.7354 H   0  0  0  0  0  0  0  0  0  0  0  0
   48.1027   30.2017   48.1206 H   0  0  0  0  0  0  0  0  0  0  0  0
   46.3048   30.5276   49.8663 H   0  0  0  0  0  0  0  0  0  0  0  0
   44.5157   32.2505   49.4314 H   0  0  0  0  0  0  0  0  0  0  0  0
   49.0714   32.0296   43.0701 H   0  0  0  0  0  0  0  0  0  0  0  0
   48.1474   31.9203   41.5335 H   0  0  0  0  0  0  0  0  0  0  0  0
   49.8142   32.5899   41.5335 H   0  0  0  0  0  0  0  0  0  0  0  0
   49.5537   34.9221   43.7623 H   0  0  0  0  0  0  0  0  0  0  0  0
   50.3914   34.4513   42.2447 H   0  0  0  0  0  0  0  0  0  0  0  0
   49.2410   35.8308   42.2447 H   0  0  0  0  0  0  0  0  0  0  0  0
   46.6067   34.4121   41.1886 H   0  0  0  0  0  0  0  0  0  0  0  0
   48.1406   35.3147   40.7848 H   0  0  0  0  0  0  0  0  0  0  0  0
   46.3463   34.0793   39.7987 H   0  0  0  0  0  0  0  0  0  0  0  0
   47.4284   31.3251   38.4073 H   0  0  0  0  0  0  0  0  0  0  0  0
   45.8817   31.3711   38.3064 H   0  0  0  0  0  0  0  0  0  0  0  0
   46.4970   33.9607   36.8557 H   0  0  0  0  0  0  0  0  0  0  0  0
   49.5579   33.8094   37.7305 H   0  0  0  0  0  0  0  0  0  0  0  0
  1 14  1  0
  1  5  1  0
  2 11  1  0
  3  2  2  0
  4  5  1  0
  4  3  1  0
  5  6  2  0
  6  2  1  0
  7  8  2  0
  9  8  1  0
 10  9  2  0
 11 12  2  0
 11 10  1  0
 12  7  1  0
 13  1  1  0
 15  1  1  0
 16 15  1  0
 17 16  1  0
 18 17  1  0
 19 18  1  0
 19 17  1  0
 20 19  1  0
  3 21  1  0
  7 22  1  0
  8 23  1  0
  9 24  1  0
 13 25  1  0
 13 26  1  0
 13 27  1  0
 14 28  1  0
 14 29  1  0
 14 30  1  0
 15 31  1  0
 15 32  1  0
 17 33  1  6
 18 34  1  0
 18 35  1  0
 19 36  1  6
 20 37  1  0
M  ISO  8  21  14  22  14  23  14  24  14  25   8  26   8  27   8  28   8
M  ISO  8  29   8  30   8  31   8  32   8  33  13  34  13  35  13  36  13
M  ISO  1  37  11
M  END
>  <minimizedAffinity>  (1) 
-4.73663187

>  <minimizedRMSD>  (1) 
0.951216698

$$$$
