
     RDKit          3D

 33 36  0  0  1  0  0  0  0  0999 V2000
   48.2570   33.5940   38.9150 C   0  0  2  0  0  0  0  0  0  0  0  0
   48.3890   34.5910   37.7430 C   0  0  0  0  0  0  0  0  0  0  0  0
   48.2010   33.0930   37.5040 C   0  0  1  0  0  0  0  0  0  0  0  0
   49.2570   32.3040   36.9600 N   0  0  0  0  0  0  0  0  0  0  0  0
   50.2600   31.7530   37.6650 C   0  0  0  0  0  0  0  0  0  0  0  0
   51.2490   30.9980   37.0720 C   0  0  0  0  0  0  0  0  0  0  0  0
   51.1930   30.8130   35.7060 C   0  0  0  0  0  0  0  0  0  0  0  0
   52.0790   30.1310   35.1270 O   0  0  0  0  0  0  0  0  0  0  0  0
   50.1840   31.3730   35.0280 N   0  0  0  0  0  0  0  0  0  0  0  0
   49.2100   32.1180   35.6270 C   0  0  0  0  0  0  0  0  0  0  0  0
   48.3040   32.5960   34.8730 O   0  0  0  0  0  0  0  0  0  0  0  0
   45.7460   34.0940   41.4610 N   0  0  0  0  0  0  0  0  0  0  0  0
   44.9540   33.6520   40.4300 C   0  0  0  0  0  0  0  0  0  0  0  0
   45.7180   33.3980   39.3560 N   0  0  0  0  0  0  0  0  0  0  0  0
   46.9990   33.6830   39.7140 C   0  0  0  0  0  0  0  0  0  0  0  0
   46.9720   34.0960   40.9820 N   0  0  0  0  0  0  0  0  0  0  0  0
   44.9300   35.8090   42.9430 C   0  0  0  0  0  0  0  0  0  0  0  0
   45.4170   34.4840   42.7750 C   0  0  0  0  0  0  0  0  0  0  0  0
   45.5290   33.6930   43.8950 C   0  0  0  0  0  0  0  0  0  0  0  0
   45.1650   34.2340   45.0930 N   0  0  0  0  0  0  0  0  0  0  0  0
   44.7120   35.4780   45.2240 C   0  0  0  0  0  0  0  0  0  0  0  0
   44.5980   36.2530   44.1520 N   0  0  0  0  0  0  0  0  0  0  0  0
   48.8563   33.3143   39.7940 H   0  0  0  0  0  0  0  0  0  0  0  0
   47.5738   35.2948   37.5193 H   0  0  0  0  0  0  0  0  0  0  0  0
   49.1216   35.3515   37.4351 H   0  0  0  0  0  0  0  0  0  0  0  0
   47.4829   32.4863   36.9328 H   0  0  0  0  0  0  0  0  0  0  0  0
   50.2927   31.9101   38.7532 H   0  0  0  0  0  0  0  0  0  0  0  0
   52.0592   30.5559   37.6704 H   0  0  0  0  0  0  0  0  0  0  0  0
   50.1407   31.2355   34.0081 H   0  0  0  0  0  0  0  0  0  0  0  0
   43.8623   33.5256   40.4770 H   0  0  0  0  0  0  0  0  0  0  0  0
   44.8273   36.4697   42.0696 H   0  0  0  0  0  0  0  0  0  0  0  0
   45.8995   32.6595   43.8267 H   0  0  0  0  0  0  0  0  0  0  0  0
   44.4331   35.8628   46.2161 H   0  0  0  0  0  0  0  0  0  0  0  0
  1 15  1  0
  2  1  1  0
  3  2  1  0
  3  1  1  0
  4  3  1  0
  4  5  1  0
  6  5  2  0
  7  6  1  0
  8  7  2  0
  9 10  1  0
  9  7  1  0
 10  4  1  0
 11 10  2  0
 12 18  1  0
 13 12  1  0
 14 15  1  0
 14 13  2  0
 15 16  2  0
 16 12  1  0
 17 22  2  0
 18 17  1  0
 18 19  2  0
 19 20  1  0
 20 21  2  0
 22 21  1  0
  1 23  1  1
  2 24  1  0
  2 25  1  0
  3 26  1  6
  5 27  1  0
  6 28  1  0
  9 29  1  0
 13 30  1  0
 17 31  1  0
 19 32  1  0
 21 33  1  0
M  ISO  8  23  13  24  13  25  13  26  13  27  14  28  14  29   9  30  14
M  ISO  3  31  14  32  14  33  14
M  END
>  <minimizedAffinity>  (1) 
-5.14170122

>  <minimizedRMSD>  (1) 
0.342740685

$$$$
