
     RDKit          3D

 46 49  0  0  1  0  0  0  0  0999 V2000
   48.7390   34.3940   41.8930 C   0  0  0  0  0  0  0  0  0  0  0  0
   46.4990   33.6440   44.6860 C   0  0  0  0  0  0  0  0  0  0  0  0
   45.4060   34.4710   44.3040 C   0  0  0  0  0  0  0  0  0  0  0  0
   46.1030   35.2020   42.7000 S   0  0  0  0  0  0  0  0  0  0  0  0
   47.7120   34.2340   42.8980 C   0  0  0  0  0  0  0  0  0  0  0  0
   47.5220   33.6840   43.8510 N   0  0  0  0  0  0  0  0  0  0  0  0
   47.0770   31.0770   47.1850 C   0  0  0  0  0  0  0  0  0  0  0  0
   46.1380   31.3910   48.2140 C   0  0  0  0  0  0  0  0  0  0  0  0
   45.3280   32.4940   48.0090 C   0  0  0  0  0  0  0  0  0  0  0  0
   45.4840   33.1970   46.8430 N   0  0  0  0  0  0  0  0  0  0  0  0
   46.3780   32.8690   45.9020 C   0  0  0  0  0  0  0  0  0  0  0  0
   47.1780   31.8130   46.0620 N   0  0  0  0  0  0  0  0  0  0  0  0
   50.0870   33.9610   42.5450 C   0  0  0  0  0  0  0  0  0  0  0  0
   48.9110   35.8370   41.5190 C   0  0  0  0  0  0  0  0  0  0  0  0
   48.6530   33.5310   40.7160 C   0  0  0  0  0  0  0  0  0  0  0  0
   47.8420   33.9900   39.7050 O   0  0  0  0  0  0  0  0  0  0  0  0
   48.3330   33.6160   38.4680 C   0  0  2  0  0  0  0  0  0  0  0  0
   48.5290   34.7070   37.4710 C   0  0  0  0  0  0  0  0  0  0  0  0
   47.5330   33.6770   37.2270 C   0  0  1  0  0  0  0  0  0  0  0  0
   47.9290   32.6970   36.1390 C   0  0  0  0  0  0  0  0  0  0  0  0
   48.8690   32.9520   35.2840 O   0  0  0  0  0  0  0  0  0  0  0  0
   47.2910   31.4620   36.0190 O   0  0  0  0  0  0  0  0  0  0  0  0
   46.2010   31.4240   35.1580 C   0  0  0  0  0  0  0  0  0  0  0  0
   45.7610   30.2120   34.6280 C   0  0  0  0  0  0  0  0  0  0  0  0
   44.6800   30.4580   33.8150 C   0  0  0  0  0  0  0  0  0  0  0  0
   44.4770   31.7900   33.8590 N   0  0  0  0  0  0  0  0  0  0  0  0
   45.3630   32.3430   34.6380 N   0  0  0  0  0  0  0  0  0  0  0  0
   44.4369   34.6379   44.7969 H   0  0  0  0  0  0  0  0  0  0  0  0
   47.7380   30.2072   47.3137 H   0  0  0  0  0  0  0  0  0  0  0  0
   46.0620   30.7837   49.1280 H   0  0  0  0  0  0  0  0  0  0  0  0
   44.5821   32.7971   48.7586 H   0  0  0  0  0  0  0  0  0  0  0  0
   49.9911   33.9918   43.6404 H   0  0  0  0  0  0  0  0  0  0  0  0
   50.3359   32.9377   42.2274 H   0  0  0  0  0  0  0  0  0  0  0  0
   50.8853   34.6479   42.2274 H   0  0  0  0  0  0  0  0  0  0  0  0
   48.9836   36.4463   42.4320 H   0  0  0  0  0  0  0  0  0  0  0  0
   49.8296   35.9550   40.9254 H   0  0  0  0  0  0  0  0  0  0  0  0
   48.0459   36.1676   40.9254 H   0  0  0  0  0  0  0  0  0  0  0  0
   49.6677   33.4108   40.3087 H   0  0  0  0  0  0  0  0  0  0  0  0
   48.2010   32.5901   41.0630 H   0  0  0  0  0  0  0  0  0  0  0  0
   48.9206   32.8144   38.9394 H   0  0  0  0  0  0  0  0  0  0  0  0
   48.2114   35.7328   37.7096 H   0  0  0  0  0  0  0  0  0  0  0  0
   49.3899   35.1026   36.9121 H   0  0  0  0  0  0  0  0  0  0  0  0
   46.4535   33.6615   37.0163 H   0  0  0  0  0  0  0  0  0  0  0  0
   46.2041   29.2250   34.8268 H   0  0  0  0  0  0  0  0  0  0  0  0
   44.0989   29.7184   33.2446 H   0  0  0  0  0  0  0  0  0  0  0  0
   43.7344   32.2940   33.3536 H   0  0  0  0  0  0  0  0  0  0  0  0
  1 13  1  0
  1  5  1  0
  2 11  1  0
  3  2  2  0
  4  5  1  0
  4  3  1  0
  5  6  2  0
  6  2  1  0
  7  8  2  0
  9  8  1  0
 10  9  2  0
 11 12  2  0
 11 10  1  0
 12  7  1  0
 14  1  1  0
 15  1  1  0
 16 15  1  0
 17 16  1  0
 18 17  1  0
 19 18  1  0
 19 17  1  0
 20 19  1  0
 21 20  2  0
 22 20  1  0
 23 22  1  0
 24 23  1  0
 25 26  1  0
 25 24  2  0
 26 27  1  0
 27 23  2  0
  3 28  1  0
  7 29  1  0
  8 30  1  0
  9 31  1  0
 13 32  1  0
 13 33  1  0
 13 34  1  0
 14 35  1  0
 14 36  1  0
 14 37  1  0
 15 38  1  0
 15 39  1  0
 17 40  1  1
 18 41  1  0
 18 42  1  0
 19 43  1  1
 24 44  1  0
 25 45  1  0
 26 46  1  0
M  ISO  8  28  14  29  14  30  14  31  14  32   8  33   8  34   8  35   8
M  ISO  8  36   8  37   8  38   8  39   8  40  13  41  13  42  13  43  13
M  ISO  3  44  14  45  14  46   9
M  END
>  <minimizedAffinity>  (1) 
-6.24095297

>  <minimizedRMSD>  (1) 
1.49086249

$$$$
