
     RDKit          3D

 51 54  0  0  1  0  0  0  0  0999 V2000
   48.7720   34.3630   41.8130 C   0  0  0  0  0  0  0  0  0  0  0  0
   46.5180   33.6320   44.6090 C   0  0  0  0  0  0  0  0  0  0  0  0
   45.4340   34.4530   44.2150 C   0  0  0  0  0  0  0  0  0  0  0  0
   46.1300   35.1780   42.6090 S   0  0  0  0  0  0  0  0  0  0  0  0
   47.7410   34.2160   42.8150 C   0  0  0  0  0  0  0  0  0  0  0  0
   47.5410   33.6740   43.7710 N   0  0  0  0  0  0  0  0  0  0  0  0
   47.0660   31.0480   47.1110 C   0  0  0  0  0  0  0  0  0  0  0  0
   46.1490   31.4070   48.1320 C   0  0  0  0  0  0  0  0  0  0  0  0
   45.3640   32.5230   47.9560 C   0  0  0  0  0  0  0  0  0  0  0  0
   45.5260   33.2180   46.7890 N   0  0  0  0  0  0  0  0  0  0  0  0
   46.4010   32.8650   45.8260 C   0  0  0  0  0  0  0  0  0  0  0  0
   47.1760   31.7840   45.9750 N   0  0  0  0  0  0  0  0  0  0  0  0
   50.1190   33.9420   42.4730 C   0  0  0  0  0  0  0  0  0  0  0  0
   48.9360   35.7970   41.4090 C   0  0  0  0  0  0  0  0  0  0  0  0
   48.6860   33.4740   40.6490 C   0  0  0  0  0  0  0  0  0  0  0  0
   47.9050   33.9350   39.6180 O   0  0  0  0  0  0  0  0  0  0  0  0
   48.4160   33.5580   38.3920 C   0  0  2  0  0  0  0  0  0  0  0  0
   48.4400   34.6080   37.3320 C   0  0  0  0  0  0  0  0  0  0  0  0
   47.5860   33.4480   37.1720 C   0  0  1  0  0  0  0  0  0  0  0  0
   48.0810   32.4630   36.1300 C   0  0  0  0  0  0  0  0  0  0  0  0
   49.3260   32.1040   36.0490 O   0  0  0  0  0  0  0  0  0  0  0  0
   47.1990   31.8930   35.2100 O   0  0  0  0  0  0  0  0  0  0  0  0
   48.2860   33.2590   33.6390 N   0  0  0  0  0  0  0  0  0  0  0  0
   48.8670   33.1140   32.3290 C   0  0  0  0  0  0  0  0  0  0  0  0
   48.6260   31.7190   31.8490 C   0  0  0  0  0  0  0  0  0  0  0  0
   47.9130   31.0640   33.0390 C   0  0  0  0  0  0  0  0  0  0  0  0
   47.3300   32.1930   33.8290 C   0  0  1  0  0  0  0  0  0  0  0  0
   44.4628   34.6221   44.7031 H   0  0  0  0  0  0  0  0  0  0  0  0
   47.6990   30.1579   47.2417 H   0  0  0  0  0  0  0  0  0  0  0  0
   46.0670   30.8038   49.0482 H   0  0  0  0  0  0  0  0  0  0  0  0
   44.6389   32.8420   48.7192 H   0  0  0  0  0  0  0  0  0  0  0  0
   50.0167   33.9740   43.5678 H   0  0  0  0  0  0  0  0  0  0  0  0
   50.3778   32.9201   42.1586 H   0  0  0  0  0  0  0  0  0  0  0  0
   50.9136   34.6346   42.1586 H   0  0  0  0  0  0  0  0  0  0  0  0
   49.0079   36.4255   42.3089 H   0  0  0  0  0  0  0  0  0  0  0  0
   49.8526   35.9069   40.8108 H   0  0  0  0  0  0  0  0  0  0  0  0
   48.0679   36.1110   40.8108 H   0  0  0  0  0  0  0  0  0  0  0  0
   49.7042   33.3202   40.2622 H   0  0  0  0  0  0  0  0  0  0  0  0
   48.2072   32.5499   41.0052 H   0  0  0  0  0  0  0  0  0  0  0  0
   49.1155   32.8681   38.8866 H   0  0  0  0  0  0  0  0  0  0  0  0
   47.9947   35.5948   37.5267 H   0  0  0  0  0  0  0  0  0  0  0  0
   49.2272   35.0810   36.7265 H   0  0  0  0  0  0  0  0  0  0  0  0
   46.5133   33.2843   36.9918 H   0  0  0  0  0  0  0  0  0  0  0  0
   47.8111   34.1702   33.7110 H   0  0  0  0  0  0  0  0  0  0  0  0
   48.4005   33.8296   31.6360 H   0  0  0  0  0  0  0  0  0  0  0  0
   49.9479   33.3130   32.3745 H   0  0  0  0  0  0  0  0  0  0  0  0
   47.9873   31.7137   30.9535 H   0  0  0  0  0  0  0  0  0  0  0  0
   49.5479   31.1962   31.5543 H   0  0  0  0  0  0  0  0  0  0  0  0
   47.1176   30.3906   32.6870 H   0  0  0  0  0  0  0  0  0  0  0  0
   48.6032   30.4575   33.6438 H   0  0  0  0  0  0  0  0  0  0  0  0
   46.3101   32.4354   33.4957 H   0  0  0  0  0  0  0  0  0  0  0  0
  1 13  1  0
  1  5  1  0
  2 11  1  0
  3  2  2  0
  4  5  1  0
  4  3  1  0
  5  6  2  0
  6  2  1  0
  7  8  2  0
  9  8  1  0
 10  9  2  0
 11 12  2  0
 11 10  1  0
 12  7  1  0
 14  1  1  0
 15  1  1  0
 16 15  1  0
 17 16  1  0
 18 17  1  0
 19 18  1  0
 19 17  1  0
 20 19  1  0
 21 20  2  0
 22 20  1  0
 23 27  1  0
 24 23  1  0
 25 24  1  0
 25 26  1  0
 26 27  1  0
 27 22  1  0
  3 28  1  0
  7 29  1  0
  8 30  1  0
  9 31  1  0
 13 32  1  0
 13 33  1  0
 13 34  1  0
 14 35  1  0
 14 36  1  0
 14 37  1  0
 15 38  1  0
 15 39  1  0
 17 40  1  1
 18 41  1  0
 18 42  1  0
 19 43  1  1
 23 44  1  0
 24 45  1  0
 24 46  1  0
 25 47  1  0
 25 48  1  0
 26 49  1  0
 26 50  1  0
 27 51  1  6
M  ISO  8  28  14  29  14  30  14  31  14  32   8  33   8  34   8  35   8
M  ISO  8  36   8  37   8  38   8  39   8  40  13  41  13  42  13  43  13
M  ISO  8  44   5  45  13  46  13  47  13  48  13  49  13  50  13  51  13
M  END
>  <minimizedAffinity>  (1) 
-6.20244789

>  <minimizedRMSD>  (1) 
2.45590425

$$$$
