
     RDKit          3D

 54 57  0  0  1  0  0  0  0  0999 V2000
   48.7520   34.4280   41.9280 C   0  0  0  0  0  0  0  0  0  0  0  0
   46.4930   33.6410   44.6970 C   0  0  0  0  0  0  0  0  0  0  0  0
   45.3970   34.4520   44.3100 C   0  0  0  0  0  0  0  0  0  0  0  0
   46.0960   35.2030   42.7160 S   0  0  0  0  0  0  0  0  0  0  0  0
   47.7150   34.2570   42.9220 C   0  0  0  0  0  0  0  0  0  0  0  0
   47.5240   33.6960   43.8720 N   0  0  0  0  0  0  0  0  0  0  0  0
   47.0630   31.0530   47.1910 C   0  0  0  0  0  0  0  0  0  0  0  0
   46.1260   31.3830   48.2100 C   0  0  0  0  0  0  0  0  0  0  0  0
   45.3220   32.4820   48.0210 C   0  0  0  0  0  0  0  0  0  0  0  0
   45.4810   33.1870   46.8580 N   0  0  0  0  0  0  0  0  0  0  0  0
   46.3650   32.8640   45.9110 C   0  0  0  0  0  0  0  0  0  0  0  0
   47.1750   31.7930   46.0540 N   0  0  0  0  0  0  0  0  0  0  0  0
   50.0800   33.9070   42.5520 C   0  0  0  0  0  0  0  0  0  0  0  0
   48.9770   35.8820   41.6230 C   0  0  0  0  0  0  0  0  0  0  0  0
   48.6250   33.6310   40.7060 C   0  0  0  0  0  0  0  0  0  0  0  0
   47.9400   34.2330   39.6810 O   0  0  0  0  0  0  0  0  0  0  0  0
   48.2780   33.6840   38.4570 C   0  0  2  0  0  0  0  0  0  0  0  0
   48.5250   34.6350   37.3380 C   0  0  0  0  0  0  0  0  0  0  0  0
   47.3870   33.7400   37.2750 C   0  0  1  0  0  0  0  0  0  0  0  0
   47.5500   32.6160   36.2810 C   0  0  0  0  0  0  0  0  0  0  0  0
   48.6220   32.4410   35.5880 O   0  0  0  0  0  0  0  0  0  0  0  0
   46.5590   31.6820   36.0500 O   0  0  0  0  0  0  0  0  0  0  0  0
   43.3870   30.1970   34.4200 N   0  0  0  0  0  0  0  0  0  0  0  0
   44.6550   30.5090   33.7860 C   0  0  0  0  0  0  0  0  0  0  0  0
   45.0710   31.8630   34.2660 C   0  0  0  0  0  0  0  0  0  0  0  0
   45.2310   31.9550   35.7560 C   0  0  0  0  0  0  0  0  0  0  0  0
   44.1980   31.2090   36.5230 C   0  0  0  0  0  0  0  0  0  0  0  0
   43.6740   29.9770   35.8140 C   0  0  0  0  0  0  0  0  0  0  0  0
   44.4213   34.6024   44.7951 H   0  0  0  0  0  0  0  0  0  0  0  0
   47.7140   30.1767   47.3257 H   0  0  0  0  0  0  0  0  0  0  0  0
   46.0472   30.7755   49.1236 H   0  0  0  0  0  0  0  0  0  0  0  0
   44.5797   32.7833   48.7748 H   0  0  0  0  0  0  0  0  0  0  0  0
   50.0058   33.9361   43.6491 H   0  0  0  0  0  0  0  0  0  0  0  0
   50.2582   32.8723   42.2239 H   0  0  0  0  0  0  0  0  0  0  0  0
   50.9142   34.5445   42.2239 H   0  0  0  0  0  0  0  0  0  0  0  0
   49.0641   36.4448   42.5641 H   0  0  0  0  0  0  0  0  0  0  0  0
   49.9034   35.9954   41.0408 H   0  0  0  0  0  0  0  0  0  0  0  0
   48.1282   36.2701   41.0408 H   0  0  0  0  0  0  0  0  0  0  0  0
   49.6378   33.3970   40.3463 H   0  0  0  0  0  0  0  0  0  0  0  0
   48.0387   32.7423   40.9825 H   0  0  0  0  0  0  0  0  0  0  0  0
   48.7996   32.8606   38.9669 H   0  0  0  0  0  0  0  0  0  0  0  0
   48.3673   35.7131   37.4894 H   0  0  0  0  0  0  0  0  0  0  0  0
   49.3786   34.8504   36.6785 H   0  0  0  0  0  0  0  0  0  0  0  0
   46.3016   33.8597   37.1422 H   0  0  0  0  0  0  0  0  0  0  0  0
   42.9787   29.3488   34.0020 H   0  0  0  0  0  0  0  0  0  0  0  0
   44.5371   30.5171   32.6924 H   0  0  0  0  0  0  0  0  0  0  0  0
   45.4141   29.7550   34.0415 H   0  0  0  0  0  0  0  0  0  0  0  0
   46.0335   32.1164   33.7976 H   0  0  0  0  0  0  0  0  0  0  0  0
   44.2694   32.5624   33.9861 H   0  0  0  0  0  0  0  0  0  0  0  0
   45.0214   32.9747   36.1114 H   0  0  0  0  0  0  0  0  0  0  0  0
   44.6378   30.8957   37.4813 H   0  0  0  0  0  0  0  0  0  0  0  0
   43.3436   31.8898   36.6514 H   0  0  0  0  0  0  0  0  0  0  0  0
   42.7486   29.6545   36.3137 H   0  0  0  0  0  0  0  0  0  0  0  0
   44.4633   29.2126   35.8659 H   0  0  0  0  0  0  0  0  0  0  0  0
  1 13  1  0
  1  5  1  0
  2 11  1  0
  3  2  2  0
  4  5  1  0
  4  3  1  0
  5  6  2  0
  6  2  1  0
  7  8  2  0
  9  8  1  0
 10  9  2  0
 11 12  2  0
 11 10  1  0
 12  7  1  0
 14  1  1  0
 15  1  1  0
 16 15  1  0
 17 16  1  0
 18 17  1  0
 19 18  1  0
 19 17  1  0
 20 19  1  0
 21 20  2  0
 22 20  1  0
 23 28  1  0
 24 25  1  0
 24 23  1  0
 25 26  1  0
 26 22  1  0
 26 27  1  0
 28 27  1  0
  3 29  1  0
  7 30  1  0
  8 31  1  0
  9 32  1  0
 13 33  1  0
 13 34  1  0
 13 35  1  0
 14 36  1  0
 14 37  1  0
 14 38  1  0
 15 39  1  0
 15 40  1  0
 17 41  1  1
 18 42  1  0
 18 43  1  0
 19 44  1  1
 23 45  1  0
 24 46  1  0
 24 47  1  0
 25 48  1  0
 25 49  1  0
 26 50  1  0
 27 51  1  0
 27 52  1  0
 28 53  1  0
 28 54  1  0
M  ISO  8  29  14  30  14  31  14  32  14  33   8  34   8  35   8  36   8
M  ISO  8  37   8  38   8  39   8  40   8  41  13  42  13  43  13  44  13
M  ISO  8  45   5  46  13  47  13  48  13  49  13  50  13  51  13  52  13
M  ISO  2  53  13  54  13
M  END
>  <minimizedAffinity>  (1) 
-5.89175272

>  <minimizedRMSD>  (1) 
1.49767613

$$$$
