
     RDKit          3D

 46 49  0  0  1  0  0  0  0  0999 V2000
   48.7990   34.4230   41.8940 C   0  0  0  0  0  0  0  0  0  0  0  0
   46.5000   33.6510   44.6580 C   0  0  0  0  0  0  0  0  0  0  0  0
   45.4090   34.4590   44.2580 C   0  0  0  0  0  0  0  0  0  0  0  0
   46.0990   35.2100   42.6680 S   0  0  0  0  0  0  0  0  0  0  0  0
   47.7340   34.2660   42.8770 C   0  0  0  0  0  0  0  0  0  0  0  0
   47.5280   33.7170   43.8280 N   0  0  0  0  0  0  0  0  0  0  0  0
   47.0450   31.0400   47.1330 C   0  0  0  0  0  0  0  0  0  0  0  0
   46.1250   31.3810   48.1490 C   0  0  0  0  0  0  0  0  0  0  0  0
   45.3390   32.4890   47.9900 C   0  0  0  0  0  0  0  0  0  0  0  0
   45.5030   33.2070   46.8280 N   0  0  0  0  0  0  0  0  0  0  0  0
   46.3870   32.8660   45.8670 C   0  0  0  0  0  0  0  0  0  0  0  0
   47.1620   31.7890   46.0070 N   0  0  0  0  0  0  0  0  0  0  0  0
   50.1150   33.9790   42.5570 C   0  0  0  0  0  0  0  0  0  0  0  0
   48.9170   35.8270   41.4630 C   0  0  0  0  0  0  0  0  0  0  0  0
   48.6730   33.4730   40.7230 C   0  0  0  0  0  0  0  0  0  0  0  0
   47.8570   34.0210   39.7250 O   0  0  0  0  0  0  0  0  0  0  0  0
   48.3350   33.6290   38.4850 C   0  0  2  0  0  0  0  0  0  0  0  0
   48.5320   34.7100   37.4770 C   0  0  0  0  0  0  0  0  0  0  0  0
   47.5350   33.6780   37.2440 C   0  0  1  0  0  0  0  0  0  0  0  0
   47.9320   32.6970   36.1540 C   0  0  0  0  0  0  0  0  0  0  0  0
   48.8900   32.9400   35.3150 O   0  0  0  0  0  0  0  0  0  0  0  0
   47.2780   31.4730   36.0150 O   0  0  0  0  0  0  0  0  0  0  0  0
   44.4650   31.7650   33.8480 N   0  0  0  0  0  0  0  0  0  0  0  0
   45.3430   32.3390   34.6450 N   0  0  0  0  0  0  0  0  0  0  0  0
   46.1920   31.4320   35.1500 C   0  0  0  0  0  0  0  0  0  0  0  0
   45.8210   30.2040   34.6330 C   0  0  0  0  0  0  0  0  0  0  0  0
   44.7300   30.4460   33.8160 C   0  0  0  0  0  0  0  0  0  0  0  0
   44.4312   34.6082   44.7392 H   0  0  0  0  0  0  0  0  0  0  0  0
   47.6793   30.1498   47.2567 H   0  0  0  0  0  0  0  0  0  0  0  0
   46.0418   30.7639   49.0558 H   0  0  0  0  0  0  0  0  0  0  0  0
   44.6096   32.7919   48.7557 H   0  0  0  0  0  0  0  0  0  0  0  0
   50.0052   34.0160   43.6509 H   0  0  0  0  0  0  0  0  0  0  0  0
   50.3531   32.9508   42.2470 H   0  0  0  0  0  0  0  0  0  0  0  0
   50.9273   34.6528   42.2470 H   0  0  0  0  0  0  0  0  0  0  0  0
   48.9718   36.4787   42.3475 H   0  0  0  0  0  0  0  0  0  0  0  0
   49.8287   35.9500   40.8599 H   0  0  0  0  0  0  0  0  0  0  0  0
   48.0387   36.1005   40.8599 H   0  0  0  0  0  0  0  0  0  0  0  0
   49.6724   33.2795   40.3061 H   0  0  0  0  0  0  0  0  0  0  0  0
   48.2181   32.5358   41.0760 H   0  0  0  0  0  0  0  0  0  0  0  0
   48.9162   32.8270   38.9635 H   0  0  0  0  0  0  0  0  0  0  0  0
   48.2153   35.7384   37.7052 H   0  0  0  0  0  0  0  0  0  0  0  0
   49.3930   35.0993   36.9139 H   0  0  0  0  0  0  0  0  0  0  0  0
   46.4546   33.6555   37.0387 H   0  0  0  0  0  0  0  0  0  0  0  0
   43.7079   32.2424   33.3383 H   0  0  0  0  0  0  0  0  0  0  0  0
   46.2965   29.2320   34.8309 H   0  0  0  0  0  0  0  0  0  0  0  0
   44.1754   29.6905   33.2401 H   0  0  0  0  0  0  0  0  0  0  0  0
  1 13  1  0
  1  5  1  0
  2 11  1  0
  3  2  2  0
  4  5  1  0
  4  3  1  0
  5  6  2  0
  6  2  1  0
  7  8  2  0
  9  8  1  0
 10  9  2  0
 11 12  2  0
 11 10  1  0
 12  7  1  0
 14  1  1  0
 15  1  1  0
 16 15  1  0
 17 16  1  0
 18 17  1  0
 19 18  1  0
 19 17  1  0
 20 19  1  0
 21 20  2  0
 22 20  1  0
 23 24  1  0
 24 25  2  0
 25 22  1  0
 26 25  1  0
 27 23  1  0
 27 26  2  0
  3 28  1  0
  7 29  1  0
  8 30  1  0
  9 31  1  0
 13 32  1  0
 13 33  1  0
 13 34  1  0
 14 35  1  0
 14 36  1  0
 14 37  1  0
 15 38  1  0
 15 39  1  0
 17 40  1  1
 18 41  1  0
 18 42  1  0
 19 43  1  1
 23 44  1  0
 26 45  1  0
 27 46  1  0
M  ISO  8  28  14  29  14  30  14  31  14  32   8  33   8  34   8  35   8
M  ISO  8  36   8  37   8  38   8  39   8  40  13  41  13  42  13  43  13
M  ISO  3  44   9  45  14  46  14
M  END
>  <minimizedAffinity>  (1) 
-6.23155308

>  <minimizedRMSD>  (1) 
1.54042244

$$$$
