
     RDKit          3D

 44 47  0  0  1  0  0  0  0  0999 V2000
   48.7950   34.3460   41.7720 C   0  0  0  0  0  0  0  0  0  0  0  0
   46.5370   33.6220   44.5710 C   0  0  0  0  0  0  0  0  0  0  0  0
   45.4390   34.4490   44.1860 C   0  0  0  0  0  0  0  0  0  0  0  0
   46.1190   35.1800   42.5760 S   0  0  0  0  0  0  0  0  0  0  0  0
   47.7390   34.2140   42.7690 C   0  0  0  0  0  0  0  0  0  0  0  0
   47.5260   33.6800   43.7250 N   0  0  0  0  0  0  0  0  0  0  0  0
   47.0690   31.0480   47.0700 C   0  0  0  0  0  0  0  0  0  0  0  0
   46.1660   31.4070   48.1070 C   0  0  0  0  0  0  0  0  0  0  0  0
   45.3900   32.5250   47.9270 C   0  0  0  0  0  0  0  0  0  0  0  0
   45.5450   33.2190   46.7550 N   0  0  0  0  0  0  0  0  0  0  0  0
   46.4040   32.8670   45.7850 C   0  0  0  0  0  0  0  0  0  0  0  0
   47.1710   31.7860   45.9270 N   0  0  0  0  0  0  0  0  0  0  0  0
   50.1230   33.9520   42.4430 C   0  0  0  0  0  0  0  0  0  0  0  0
   48.8900   35.7330   41.2840 C   0  0  0  0  0  0  0  0  0  0  0  0
   48.6760   33.3470   40.6420 C   0  0  0  0  0  0  0  0  0  0  0  0
   47.8590   33.8450   39.6220 O   0  0  0  0  0  0  0  0  0  0  0  0
   48.4280   33.5360   38.3950 C   0  0  2  0  0  0  0  0  0  0  0  0
   48.4790   34.6410   37.3940 C   0  0  0  0  0  0  0  0  0  0  0  0
   47.6550   33.4800   37.1330 C   0  0  1  0  0  0  0  0  0  0  0  0
   48.2090   32.5670   36.0540 C   0  0  0  0  0  0  0  0  0  0  0  0
   49.3610   31.9790   36.1660 O   0  0  0  0  0  0  0  0  0  0  0  0
   47.4930   32.3130   34.8860 O   0  0  0  0  0  0  0  0  0  0  0  0
   48.0760   32.4120   33.6320 C   0  0  0  0  0  0  0  0  0  0  0  0
   48.7600   33.3360   32.9340 N   0  0  0  0  0  0  0  0  0  0  0  0
   49.0790   32.8790   31.7610 O   0  0  0  0  0  0  0  0  0  0  0  0
   48.6260   31.6450   31.6260 C   0  0  0  0  0  0  0  0  0  0  0  0
   48.0020   31.3590   32.7970 N   0  0  0  0  0  0  0  0  0  0  0  0
   44.4720   34.6148   44.6833 H   0  0  0  0  0  0  0  0  0  0  0  0
   47.6998   30.1551   47.1916 H   0  0  0  0  0  0  0  0  0  0  0  0
   46.0911   30.8072   49.0260 H   0  0  0  0  0  0  0  0  0  0  0  0
   44.6717   32.8513   48.6935 H   0  0  0  0  0  0  0  0  0  0  0  0
   50.0059   33.9867   43.5362 H   0  0  0  0  0  0  0  0  0  0  0  0
   50.4006   32.9328   42.1362 H   0  0  0  0  0  0  0  0  0  0  0  0
   50.9115   34.6549   42.1362 H   0  0  0  0  0  0  0  0  0  0  0  0
   48.9371   36.4208   42.1411 H   0  0  0  0  0  0  0  0  0  0  0  0
   49.7980   35.8454   40.6733 H   0  0  0  0  0  0  0  0  0  0  0  0
   48.0059   35.9682   40.6733 H   0  0  0  0  0  0  0  0  0  0  0  0
   49.6771   33.1426   40.2346 H   0  0  0  0  0  0  0  0  0  0  0  0
   48.2260   32.4232   41.0344 H   0  0  0  0  0  0  0  0  0  0  0  0
   49.1143   32.8285   38.8832 H   0  0  0  0  0  0  0  0  0  0  0  0
   48.0075   35.6087   37.6205 H   0  0  0  0  0  0  0  0  0  0  0  0
   49.2838   35.1580   36.8508 H   0  0  0  0  0  0  0  0  0  0  0  0
   46.5944   33.3063   36.8987 H   0  0  0  0  0  0  0  0  0  0  0  0
   48.7322   30.9884   30.7499 H   0  0  0  0  0  0  0  0  0  0  0  0
  1 13  1  0
  1  5  1  0
  2 11  1  0
  3  2  2  0
  4  5  1  0
  4  3  1  0
  5  6  2  0
  6  2  1  0
  7  8  2  0
  9  8  1  0
 10  9  2  0
 11 12  2  0
 11 10  1  0
 12  7  1  0
 14  1  1  0
 15  1  1  0
 16 15  1  0
 17 16  1  0
 18 17  1  0
 19 18  1  0
 19 17  1  0
 20 21  2  0
 20 19  1  0
 22 20  1  0
 23 22  1  0
 24 23  2  0
 25 24  1  0
 26 25  1  0
 26 27  2  0
 27 23  1  0
  3 28  1  0
  7 29  1  0
  8 30  1  0
  9 31  1  0
 13 32  1  0
 13 33  1  0
 13 34  1  0
 14 35  1  0
 14 36  1  0
 14 37  1  0
 15 38  1  0
 15 39  1  0
 17 40  1  1
 18 41  1  0
 18 42  1  0
 19 43  1  1
 26 44  1  0
M  ISO  8  28  14  29  14  30  14  31  14  32   8  33   8  34   8  35   8
M  ISO  8  36   8  37   8  38   8  39   8  40  13  41  13  42  13  43  13
M  ISO  1  44  14
M  END
>  <minimizedAffinity>  (1) 
-6.1197052

>  <minimizedRMSD>  (1) 
2.60518003

$$$$
