
     RDKit          3D

 52 55  0  0  1  0  0  0  0  0999 V2000
   48.7520   34.4090   41.8280 C   0  0  0  0  0  0  0  0  0  0  0  0
   46.5020   33.6500   44.6200 C   0  0  0  0  0  0  0  0  0  0  0  0
   45.4140   34.4660   44.2270 C   0  0  0  0  0  0  0  0  0  0  0  0
   46.1040   35.2000   42.6330 S   0  0  0  0  0  0  0  0  0  0  0  0
   47.7220   34.2490   42.8320 C   0  0  0  0  0  0  0  0  0  0  0  0
   47.5290   33.6980   43.7870 N   0  0  0  0  0  0  0  0  0  0  0  0
   47.0610   31.0530   47.1070 C   0  0  0  0  0  0  0  0  0  0  0  0
   46.1500   31.3920   48.1430 C   0  0  0  0  0  0  0  0  0  0  0  0
   45.3660   32.5200   47.9530 C   0  0  0  0  0  0  0  0  0  0  0  0
   45.5100   33.2270   46.8040 N   0  0  0  0  0  0  0  0  0  0  0  0
   46.3850   32.8790   45.8370 C   0  0  0  0  0  0  0  0  0  0  0  0
   47.1690   31.7940   45.9720 N   0  0  0  0  0  0  0  0  0  0  0  0
   50.0920   33.9380   42.4680 C   0  0  0  0  0  0  0  0  0  0  0  0
   48.9390   35.8500   41.4730 C   0  0  0  0  0  0  0  0  0  0  0  0
   48.6450   33.5620   40.6390 C   0  0  0  0  0  0  0  0  0  0  0  0
   47.9490   34.1060   39.5900 O   0  0  0  0  0  0  0  0  0  0  0  0
   48.3740   33.5900   38.3830 C   0  0  2  0  0  0  0  0  0  0  0  0
   48.3410   34.5040   37.2040 C   0  0  0  0  0  0  0  0  0  0  0  0
   47.4680   33.3410   37.2400 C   0  0  1  0  0  0  0  0  0  0  0  0
   47.9000   32.2330   36.2930 C   0  0  0  0  0  0  0  0  0  0  0  0
   49.0220   31.6020   36.4330 O   0  0  0  0  0  0  0  0  0  0  0  0
   47.0840   31.8480   35.2270 O   0  0  0  0  0  0  0  0  0  0  0  0
   47.4920   32.1690   33.9090 C   0  0  0  0  0  0  0  0  0  0  0  0
   48.7900   32.9350   33.9070 C   0  0  0  0  0  0  0  0  0  0  0  0
   49.4880   32.4520   32.6610 C   0  0  0  0  0  0  0  0  0  0  0  0
   48.5500   31.5370   31.9260 C   0  0  0  0  0  0  0  0  0  0  0  0
   47.7120   30.9490   33.0440 C   0  0  0  0  0  0  0  0  0  0  0  0
   44.4408   34.6265   44.7140 H   0  0  0  0  0  0  0  0  0  0  0  0
   47.6982   30.1644   47.2266 H   0  0  0  0  0  0  0  0  0  0  0  0
   46.0699   30.7855   49.0572 H   0  0  0  0  0  0  0  0  0  0  0  0
   44.6418   32.8353   48.7186 H   0  0  0  0  0  0  0  0  0  0  0  0
   50.0054   33.9684   43.5642 H   0  0  0  0  0  0  0  0  0  0  0  0
   50.3105   32.9092   42.1459 H   0  0  0  0  0  0  0  0  0  0  0  0
   50.9062   34.6038   42.1459 H   0  0  0  0  0  0  0  0  0  0  0  0
   49.0165   36.4473   42.3934 H   0  0  0  0  0  0  0  0  0  0  0  0
   49.8597   35.9656   40.8822 H   0  0  0  0  0  0  0  0  0  0  0  0
   48.0783   36.1968   40.8822 H   0  0  0  0  0  0  0  0  0  0  0  0
   49.6636   33.3367   40.2900 H   0  0  0  0  0  0  0  0  0  0  0  0
   48.0776   32.6726   40.9505 H   0  0  0  0  0  0  0  0  0  0  0  0
   49.1015   32.9584   38.9139 H   0  0  0  0  0  0  0  0  0  0  0  0
   49.1910   34.5314   36.5063 H   0  0  0  0  0  0  0  0  0  0  0  0
   48.1894   35.5844   37.0633 H   0  0  0  0  0  0  0  0  0  0  0  0
   46.3854   33.1682   37.1497 H   0  0  0  0  0  0  0  0  0  0  0  0
   46.6677   32.7716   33.4997 H   0  0  0  0  0  0  0  0  0  0  0  0
   48.6060   34.0184   33.8586 H   0  0  0  0  0  0  0  0  0  0  0  0
   49.3832   32.7710   34.8187 H   0  0  0  0  0  0  0  0  0  0  0  0
   49.7485   33.3096   32.0233 H   0  0  0  0  0  0  0  0  0  0  0  0
   50.4129   31.9181   32.9247 H   0  0  0  0  0  0  0  0  0  0  0  0
   47.9253   32.0975   31.2150 H   0  0  0  0  0  0  0  0  0  0  0  0
   49.0666   30.7765   31.3220 H   0  0  0  0  0  0  0  0  0  0  0  0
   46.7614   30.5441   32.6667 H   0  0  0  0  0  0  0  0  0  0  0  0
   48.1805   30.1011   33.5652 H   0  0  0  0  0  0  0  0  0  0  0  0
  1 13  1  0
  1  5  1  0
  2 11  1  0
  3  2  2  0
  4  5  1  0
  4  3  1  0
  5  6  2  0
  6  2  1  0
  7  8  2  0
  9  8  1  0
 10  9  2  0
 11 12  2  0
 11 10  1  0
 12  7  1  0
 14  1  1  0
 15  1  1  0
 16 15  1  0
 17 16  1  0
 18 19  1  0
 18 17  1  0
 19 17  1  0
 20 21  2  0
 20 19  1  0
 22 20  1  0
 23 22  1  0
 24 23  1  0
 25 24  1  0
 26 25  1  0
 26 27  1  0
 27 23  1  0
  3 28  1  0
  7 29  1  0
  8 30  1  0
  9 31  1  0
 13 32  1  0
 13 33  1  0
 13 34  1  0
 14 35  1  0
 14 36  1  0
 14 37  1  0
 15 38  1  0
 15 39  1  0
 17 40  1  1
 18 41  1  0
 18 42  1  0
 19 43  1  1
 23 44  1  0
 24 45  1  0
 24 46  1  0
 25 47  1  0
 25 48  1  0
 26 49  1  0
 26 50  1  0
 27 51  1  0
 27 52  1  0
M  ISO  8  28  14  29  14  30  14  31  14  32   8  33   8  34   8  35   8
M  ISO  8  36   8  37   8  38   8  39   8  40  13  41  13  42  13  43  13
M  ISO  8  44  13  45  13  46  13  47  13  48  13  49  13  50  13  51  13
M  ISO  1  52  13
M  END
>  <minimizedAffinity>  (1) 
-5.94251347

>  <minimizedRMSD>  (1) 
2.60323668

$$$$
