
     RDKit          3D

 46 49  0  0  1  0  0  0  0  0999 V2000
   48.7450   34.4190   41.8940 C   0  0  0  0  0  0  0  0  0  0  0  0
   46.4930   33.6480   44.6840 C   0  0  0  0  0  0  0  0  0  0  0  0
   45.4030   34.4700   44.2960 C   0  0  0  0  0  0  0  0  0  0  0  0
   46.0990   35.2130   42.6990 S   0  0  0  0  0  0  0  0  0  0  0  0
   47.7140   34.2560   42.8960 C   0  0  0  0  0  0  0  0  0  0  0  0
   47.5100   33.7070   43.8450 N   0  0  0  0  0  0  0  0  0  0  0  0
   47.0720   31.0570   47.1690 C   0  0  0  0  0  0  0  0  0  0  0  0
   46.1310   31.3920   48.1880 C   0  0  0  0  0  0  0  0  0  0  0  0
   45.3300   32.4890   48.0070 C   0  0  0  0  0  0  0  0  0  0  0  0
   45.4890   33.1930   46.8500 N   0  0  0  0  0  0  0  0  0  0  0  0
   46.3800   32.8690   45.8910 C   0  0  0  0  0  0  0  0  0  0  0  0
   47.1770   31.8040   46.0400 N   0  0  0  0  0  0  0  0  0  0  0  0
   50.0770   33.9050   42.5180 C   0  0  0  0  0  0  0  0  0  0  0  0
   48.9620   35.8650   41.5730 C   0  0  0  0  0  0  0  0  0  0  0  0
   48.6160   33.6040   40.6830 C   0  0  0  0  0  0  0  0  0  0  0  0
   47.8760   34.1660   39.6730 O   0  0  0  0  0  0  0  0  0  0  0  0
   48.2330   33.6520   38.4430 C   0  0  2  0  0  0  0  0  0  0  0  0
   48.4890   34.6340   37.3500 C   0  0  0  0  0  0  0  0  0  0  0  0
   47.3570   33.7240   37.2550 C   0  0  1  0  0  0  0  0  0  0  0  0
   47.5530   32.6270   36.2240 C   0  0  0  0  0  0  0  0  0  0  0  0
   48.3530   32.7580   35.2110 O   0  0  0  0  0  0  0  0  0  0  0  0
   46.8710   31.4150   36.3340 O   0  0  0  0  0  0  0  0  0  0  0  0
   46.0520   31.0430   35.2760 C   0  0  0  0  0  0  0  0  0  0  0  0
   44.7250   31.1820   34.9290 C   0  0  0  0  0  0  0  0  0  0  0  0
   44.5640   30.5690   33.7270 N   0  0  0  0  0  0  0  0  0  0  0  0
   45.7410   30.0730   33.3490 C   0  0  0  0  0  0  0  0  0  0  0  0
   46.6800   30.3520   34.2890 N   0  0  0  0  0  0  0  0  0  0  0  0
   44.4303   34.6301   44.7841 H   0  0  0  0  0  0  0  0  0  0  0  0
   47.7226   30.1798   47.3001 H   0  0  0  0  0  0  0  0  0  0  0  0
   46.0502   30.7823   49.1000 H   0  0  0  0  0  0  0  0  0  0  0  0
   44.5898   32.7891   48.7633 H   0  0  0  0  0  0  0  0  0  0  0  0
   50.0030   33.9336   43.6151 H   0  0  0  0  0  0  0  0  0  0  0  0
   50.2609   32.8714   42.1897 H   0  0  0  0  0  0  0  0  0  0  0  0
   50.9075   34.5472   42.1897 H   0  0  0  0  0  0  0  0  0  0  0  0
   49.0482   36.4391   42.5073 H   0  0  0  0  0  0  0  0  0  0  0  0
   49.8868   35.9759   40.9879 H   0  0  0  0  0  0  0  0  0  0  0  0
   48.1104   36.2425   40.9879 H   0  0  0  0  0  0  0  0  0  0  0  0
   49.6269   33.4091   40.2955 H   0  0  0  0  0  0  0  0  0  0  0  0
   48.0763   32.6943   40.9851 H   0  0  0  0  0  0  0  0  0  0  0  0
   48.7560   32.8214   38.9396 H   0  0  0  0  0  0  0  0  0  0  0  0
   48.3186   35.7067   37.5240 H   0  0  0  0  0  0  0  0  0  0  0  0
   49.3487   34.8741   36.7071 H   0  0  0  0  0  0  0  0  0  0  0  0
   46.2708   33.8298   37.1173 H   0  0  0  0  0  0  0  0  0  0  0  0
   43.9452   31.6919   35.5137 H   0  0  0  0  0  0  0  0  0  0  0  0
   45.9246   29.5205   32.4157 H   0  0  0  0  0  0  0  0  0  0  0  0
   47.6758   30.0904   34.2596 H   0  0  0  0  0  0  0  0  0  0  0  0
  1 13  1  0
  1  5  1  0
  2 11  1  0
  3  2  2  0
  4  5  1  0
  4  3  1  0
  5  6  2  0
  6  2  1  0
  7  8  2  0
  9  8  1  0
 10  9  2  0
 11 12  2  0
 11 10  1  0
 12  7  1  0
 14  1  1  0
 15  1  1  0
 16 15  1  0
 17 16  1  0
 18 17  1  0
 19 18  1  0
 19 17  1  0
 20 22  1  0
 20 19  1  0
 21 20  2  0
 23 22  1  0
 24 23  2  0
 25 24  1  0
 26 25  2  0
 26 27  1  0
 27 23  1  0
  3 28  1  0
  7 29  1  0
  8 30  1  0
  9 31  1  0
 13 32  1  0
 13 33  1  0
 13 34  1  0
 14 35  1  0
 14 36  1  0
 14 37  1  0
 15 38  1  0
 15 39  1  0
 17 40  1  1
 18 41  1  0
 18 42  1  0
 19 43  1  1
 24 44  1  0
 26 45  1  0
 27 46  1  0
M  ISO  8  28  14  29  14  30  14  31  14  32   8  33   8  34   8  35   8
M  ISO  8  36   8  37   8  38   8  39   8  40  13  41  13  42  13  43  13
M  ISO  3  44  14  45  14  46   9
M  END
>  <minimizedAffinity>  (1) 
-5.76436138

>  <minimizedRMSD>  (1) 
1.5364747

$$$$
