
     RDKit          3D

 38 40  0  0  0  0  0  0  0  0999 V2000
   46.6920   34.1880   43.1850 C   0  0  0  0  0  0  0  0  0  0  0  0
   45.4400   34.7580   43.4010 C   0  0  0  0  0  0  0  0  0  0  0  0
   44.8950   34.5870   44.6700 C   0  0  0  0  0  0  0  0  0  0  0  0
   45.5930   33.8900   45.6160 N   0  0  0  0  0  0  0  0  0  0  0  0
   46.8000   33.3580   45.3620 C   0  0  0  0  0  0  0  0  0  0  0  0
   47.3320   33.5130   44.1560 N   0  0  0  0  0  0  0  0  0  0  0  0
   47.2790   34.3460   41.8930 N   0  0  0  0  0  0  0  0  0  0  0  0
   48.1860   35.3570   41.8100 C   0  0  0  0  0  0  0  0  0  0  0  0
   48.6820   35.4260   40.5600 N   0  0  0  0  0  0  0  0  0  0  0  0
   48.0510   34.4280   39.8820 C   0  0  0  0  0  0  0  0  0  0  0  0
   47.1970   33.7760   40.7070 N   0  0  0  0  0  0  0  0  0  0  0  0
   44.7910   35.4760   42.3220 C   0  0  0  0  0  0  0  0  0  0  0  0
   43.8250   34.5110   41.6170 C   0  0  0  0  0  0  0  0  0  0  0  0
   42.8020   35.3010   40.8180 C   0  0  0  0  0  0  0  0  0  0  0  0
   42.6430   34.7800   39.4280 C   0  0  0  0  0  0  0  0  0  0  0  0
   41.1900   34.8150   39.0040 C   0  0  0  0  0  0  0  0  0  0  0  0
   40.5730   36.1450   39.4270 C   0  0  0  0  0  0  0  0  0  0  0  0
   40.5310   36.2420   40.9270 C   0  0  0  0  0  0  0  0  0  0  0  0
   41.5020   35.2680   41.5850 C   0  0  0  0  0  0  0  0  0  0  0  0
   43.9085   35.0102   44.9102 H   0  0  0  0  0  0  0  0  0  0  0  0
   47.3398   32.8018   46.1425 H   0  0  0  0  0  0  0  0  0  0  0  0
   48.4715   36.0194   42.6405 H   0  0  0  0  0  0  0  0  0  0  0  0
   48.2111   34.1867   38.8208 H   0  0  0  0  0  0  0  0  0  0  0  0
   44.2322   36.3323   42.7275 H   0  0  0  0  0  0  0  0  0  0  0  0
   45.5407   35.8513   41.6099 H   0  0  0  0  0  0  0  0  0  0  0  0
   44.3923   33.8568   40.9387 H   0  0  0  0  0  0  0  0  0  0  0  0
   43.3055   33.9012   42.3708 H   0  0  0  0  0  0  0  0  0  0  0  0
   43.1451   36.3392   40.6982 H   0  0  0  0  0  0  0  0  0  0  0  0
   43.2346   35.4017   38.7399 H   0  0  0  0  0  0  0  0  0  0  0  0
   42.9937   33.7378   39.3997 H   0  0  0  0  0  0  0  0  0  0  0  0
   40.6468   33.9884   39.4853 H   0  0  0  0  0  0  0  0  0  0  0  0
   41.1224   34.7085   37.9113 H   0  0  0  0  0  0  0  0  0  0  0  0
   41.1788   36.9709   39.0259 H   0  0  0  0  0  0  0  0  0  0  0  0
   39.5476   36.2072   39.0336 H   0  0  0  0  0  0  0  0  0  0  0  0
   40.7978   37.2667   41.2251 H   0  0  0  0  0  0  0  0  0  0  0  0
   39.5136   35.9862   41.2577 H   0  0  0  0  0  0  0  0  0  0  0  0
   41.0821   34.2516   41.5611 H   0  0  0  0  0  0  0  0  0  0  0  0
   41.6737   35.5550   42.6329 H   0  0  0  0  0  0  0  0  0  0  0  0
  1  2  1  0
  1  6  2  0
  2  3  2  0
  3  4  1  0
  5  4  2  0
  6  5  1  0
  7  1  1  0
  8  7  1  0
  9  8  2  0
 10  9  1  0
 10 11  2  0
 11  7  1  0
 12  2  1  0
 13 12  1  0
 14 19  1  0
 14 13  1  0
 15 14  1  0
 16 17  1  0
 16 15  1  0
 17 18  1  0
 18 19  1  0
  3 20  1  0
  5 21  1  0
  8 22  1  0
 10 23  1  0
 12 24  1  0
 12 25  1  0
 13 26  1  0
 13 27  1  0
 14 28  1  0
 15 29  1  0
 15 30  1  0
 16 31  1  0
 16 32  1  0
 17 33  1  0
 17 34  1  0
 18 35  1  0
 18 36  1  0
 19 37  1  0
 19 38  1  0
M  ISO  8  20  14  21  14  22  14  23  14  24   8  25   8  26   8  27   8
M  ISO  8  28  13  29  13  30  13  31  13  32  13  33  13  34  13  35  13
M  ISO  3  36  13  37  13  38  13
M  END
>  <minimizedAffinity>  (1) 
-5.56970072

>  <minimizedRMSD>  (1) 
1.05474627

$$$$
