
     RDKit          3D

 24 25  0  0  0  0  0  0  0  0999 V2000
   46.5500   34.3930   43.3180 C   0  0  0  0  0  0  0  0  0  0  0  0
   45.4070   35.1550   43.5520 C   0  0  0  0  0  0  0  0  0  0  0  0
   44.8030   34.9970   44.8010 C   0  0  0  0  0  0  0  0  0  0  0  0
   45.3530   34.1240   45.7070 N   0  0  0  0  0  0  0  0  0  0  0  0
   46.4460   33.4210   45.4350 C   0  0  0  0  0  0  0  0  0  0  0  0
   47.0340   33.5580   44.2490 N   0  0  0  0  0  0  0  0  0  0  0  0
   47.1880   34.5300   42.0560 N   0  0  0  0  0  0  0  0  0  0  0  0
   48.2170   35.4060   42.0330 C   0  0  0  0  0  0  0  0  0  0  0  0
   48.7470   35.4580   40.7960 N   0  0  0  0  0  0  0  0  0  0  0  0
   48.0040   34.5830   40.0630 C   0  0  0  0  0  0  0  0  0  0  0  0
   47.0540   34.0200   40.8390 N   0  0  0  0  0  0  0  0  0  0  0  0
   44.9140   36.0400   42.5300 C   0  0  0  0  0  0  0  0  0  0  0  0
   43.8630   35.2750   41.7060 C   0  0  0  0  0  0  0  0  0  0  0  0
   42.5780   35.8840   42.0060 N   0  0  0  0  0  0  0  0  0  0  0  0
   43.8966   35.5656   45.0563 H   0  0  0  0  0  0  0  0  0  0  0  0
   46.8621   32.7310   46.1838 H   0  0  0  0  0  0  0  0  0  0  0  0
   48.5692   35.9897   42.8963 H   0  0  0  0  0  0  0  0  0  0  0  0
   48.1559   34.3669   38.9952 H   0  0  0  0  0  0  0  0  0  0  0  0
   44.4536   36.9253   42.9929 H   0  0  0  0  0  0  0  0  0  0  0  0
   45.7385   36.3738   41.8828 H   0  0  0  0  0  0  0  0  0  0  0  0
   43.8558   34.2128   41.9920 H   0  0  0  0  0  0  0  0  0  0  0  0
   44.0862   35.3282   40.6302 H   0  0  0  0  0  0  0  0  0  0  0  0
   42.4556   35.9420   43.0271 H   0  0  0  0  0  0  0  0  0  0  0  0
   42.5440   36.8308   41.6018 H   0  0  0  0  0  0  0  0  0  0  0  0
  1  2  2  0
  1  6  1  0
  2  3  1  0
  3  4  2  0
  5  4  1  0
  6  5  2  0
  7  1  1  0
  8  7  1  0
  9  8  2  0
 10  9  1  0
 10 11  2  0
 11  7  1  0
 12  2  1  0
 13 14  1  0
 13 12  1  0
  3 15  1  0
  5 16  1  0
  8 17  1  0
 10 18  1  0
 12 19  1  0
 12 20  1  0
 13 21  1  0
 13 22  1  0
 14 23  1  0
 14 24  1  0
M  ISO  8  15  14  16  14  17  14  18  14  19   8  20   8  21   8  22   8
M  ISO  2  23   5  24   5
M  END
>  <minimizedAffinity>  (1) 
-4.28307915

>  <minimizedRMSD>  (1) 
0.395202398

$$$$
