
     RDKit          3D

 29 30  0  0  0  0  0  0  0  0999 V2000
   46.3650   34.3360   43.3710 C   0  0  0  0  0  0  0  0  0  0  0  0
   45.2080   35.0850   43.5750 C   0  0  0  0  0  0  0  0  0  0  0  0
   44.6530   35.0280   44.8660 C   0  0  0  0  0  0  0  0  0  0  0  0
   45.2570   34.2670   45.8190 N   0  0  0  0  0  0  0  0  0  0  0  0
   46.3780   33.5620   45.5620 C   0  0  0  0  0  0  0  0  0  0  0  0
   46.9100   33.6090   44.3400 N   0  0  0  0  0  0  0  0  0  0  0  0
   46.9470   34.3810   42.0600 N   0  0  0  0  0  0  0  0  0  0  0  0
   48.0190   35.2340   41.9630 C   0  0  0  0  0  0  0  0  0  0  0  0
   48.4950   35.2090   40.7040 N   0  0  0  0  0  0  0  0  0  0  0  0
   47.6920   34.3280   40.0510 C   0  0  0  0  0  0  0  0  0  0  0  0
   46.7520   33.8290   40.8880 N   0  0  0  0  0  0  0  0  0  0  0  0
   44.6430   35.8700   42.4820 C   0  0  0  0  0  0  0  0  0  0  0  0
   43.4970   35.0560   41.8800 C   0  0  0  0  0  0  0  0  0  0  0  0
   42.3670   35.9320   41.6930 N   0  0  0  0  0  0  0  0  0  0  0  0
   41.0280   35.5090   41.4800 C   0  0  0  0  0  0  0  0  0  0  0  0
   40.7330   34.3590   41.9890 N   0  0  0  0  0  0  0  0  0  0  0  0
   40.2440   36.4650   40.7320 N   0  0  0  0  0  0  0  0  0  0  0  0
   39.7420   34.0100   41.8500 H   0  0  0  0  0  0  0  0  0  0  0  0
   43.7395   35.5931   45.1032 H   0  0  0  0  0  0  0  0  0  0  0  0
   46.8475   32.9558   46.3507 H   0  0  0  0  0  0  0  0  0  0  0  0
   48.4249   35.8421   42.7849 H   0  0  0  0  0  0  0  0  0  0  0  0
   47.7920   34.0578   38.9894 H   0  0  0  0  0  0  0  0  0  0  0  0
   44.2628   36.8286   42.8648 H   0  0  0  0  0  0  0  0  0  0  0  0
   45.4084   36.0848   41.7217 H   0  0  0  0  0  0  0  0  0  0  0  0
   43.8072   34.6375   40.9112 H   0  0  0  0  0  0  0  0  0  0  0  0
   43.2269   34.2283   42.5523 H   0  0  0  0  0  0  0  0  0  0  0  0
   42.5452   36.9462   41.7157 H   0  0  0  0  0  0  0  0  0  0  0  0
   39.2567   36.2654   40.5168 H   0  0  0  0  0  0  0  0  0  0  0  0
   40.6725   37.3460   40.4140 H   0  0  0  0  0  0  0  0  0  0  0  0
  1  2  2  0
  1  6  1  0
  2  3  1  0
  3  4  2  0
  5  4  1  0
  6  5  2  0
  7  1  1  0
  8  7  1  0
  9  8  2  0
 10  9  1  0
 10 11  2  0
 11  7  1  0
 12  2  1  0
 13 12  1  0
 14 13  1  0
 15 14  1  0
 15 16  2  0
 17 15  1  0
 18 16  1  0
  3 19  1  0
  5 20  1  0
  8 21  1  0
 10 22  1  0
 12 23  1  0
 12 24  1  0
 13 25  1  0
 13 26  1  0
 14 27  1  0
 17 28  1  0
 17 29  1  0
M  ISO  8  19  14  20  14  21  14  22  14  23   8  24   8  25   8  26   8
M  END
>  <minimizedAffinity>  (1) 
-5.12143517

>  <minimizedRMSD>  (1) 
0.950092435

$$$$
