
     RDKit          3D

 37 39  0  0  0  0  0  0  0  0999 V2000
   46.6360   34.2290   43.0930 C   0  0  0  0  0  0  0  0  0  0  0  0
   45.3790   34.8040   43.2680 C   0  0  0  0  0  0  0  0  0  0  0  0
   44.7780   34.6840   44.5120 C   0  0  0  0  0  0  0  0  0  0  0  0
   45.4570   34.0070   45.4990 N   0  0  0  0  0  0  0  0  0  0  0  0
   46.6530   33.4710   45.3000 C   0  0  0  0  0  0  0  0  0  0  0  0
   47.2280   33.5890   44.0990 N   0  0  0  0  0  0  0  0  0  0  0  0
   47.2610   34.3520   41.8190 N   0  0  0  0  0  0  0  0  0  0  0  0
   48.1600   35.3740   41.7380 C   0  0  0  0  0  0  0  0  0  0  0  0
   48.6890   35.3990   40.4980 N   0  0  0  0  0  0  0  0  0  0  0  0
   48.0880   34.3740   39.8370 C   0  0  0  0  0  0  0  0  0  0  0  0
   47.2210   33.7470   40.6560 N   0  0  0  0  0  0  0  0  0  0  0  0
   44.7510   35.4970   42.1460 C   0  0  0  0  0  0  0  0  0  0  0  0
   43.8670   34.4790   41.4060 C   0  0  0  0  0  0  0  0  0  0  0  0
   42.7040   35.0520   40.8480 N   0  0  0  0  0  0  0  0  0  0  0  0
   42.5790   35.1530   39.4590 C   0  0  0  0  0  0  0  0  0  0  0  0
   41.2040   34.9230   38.9020 C   0  0  0  0  0  0  0  0  0  0  0  0
   40.0750   35.4170   39.7300 C   0  0  0  0  0  0  0  0  0  0  0  0
   40.2710   35.1340   41.1780 C   0  0  0  0  0  0  0  0  0  0  0  0
   41.6480   35.4120   41.6990 C   0  0  0  0  0  0  0  0  0  0  0  0
   43.7858   35.1181   44.7045 H   0  0  0  0  0  0  0  0  0  0  0  0
   47.1658   32.9359   46.1129 H   0  0  0  0  0  0  0  0  0  0  0  0
   48.4132   36.0672   42.5537 H   0  0  0  0  0  0  0  0  0  0  0  0
   48.2808   34.0978   38.7898 H   0  0  0  0  0  0  0  0  0  0  0  0
   44.1346   36.3292   42.5168 H   0  0  0  0  0  0  0  0  0  0  0  0
   45.5149   35.9084   41.4699 H   0  0  0  0  0  0  0  0  0  0  0  0
   44.4577   34.0279   40.5951 H   0  0  0  0  0  0  0  0  0  0  0  0
   43.5404   33.7326   42.1451 H   0  0  0  0  0  0  0  0  0  0  0  0
   42.8958   36.1647   39.1656 H   0  0  0  0  0  0  0  0  0  0  0  0
   43.2040   34.3473   39.0463 H   0  0  0  0  0  0  0  0  0  0  0  0
   41.1488   35.4242   37.9244 H   0  0  0  0  0  0  0  0  0  0  0  0
   41.0819   33.8308   38.8556 H   0  0  0  0  0  0  0  0  0  0  0  0
   39.9837   36.5044   39.5912 H   0  0  0  0  0  0  0  0  0  0  0  0
   39.1643   34.8929   39.4047 H   0  0  0  0  0  0  0  0  0  0  0  0
   39.5605   35.7530   41.7455 H   0  0  0  0  0  0  0  0  0  0  0  0
   40.1081   34.0534   41.3038 H   0  0  0  0  0  0  0  0  0  0  0  0
   41.7705   34.8595   42.6423 H   0  0  0  0  0  0  0  0  0  0  0  0
   41.7117   36.5044   41.8109 H   0  0  0  0  0  0  0  0  0  0  0  0
  1  2  1  0
  1  6  2  0
  2  3  2  0
  3  4  1  0
  5  4  2  0
  6  5  1  0
  7  1  1  0
  8  7  1  0
  9  8  2  0
 10  9  1  0
 10 11  2  0
 11  7  1  0
 12  2  1  0
 13 12  1  0
 14 13  1  0
 14 19  1  0
 15 14  1  0
 16 15  1  0
 16 17  1  0
 17 18  1  0
 18 19  1  0
  3 20  1  0
  5 21  1  0
  8 22  1  0
 10 23  1  0
 12 24  1  0
 12 25  1  0
 13 26  1  0
 13 27  1  0
 15 28  1  0
 15 29  1  0
 16 30  1  0
 16 31  1  0
 17 32  1  0
 17 33  1  0
 18 34  1  0
 18 35  1  0
 19 36  1  0
 19 37  1  0
M  ISO  8  20  14  21  14  22  14  23  14  24   8  25   8  26   8  27   8
M  ISO  8  28  13  29  13  30  13  31  13  32  13  33  13  34  13  35  13
M  ISO  2  36  13  37  13
M  END
>  <minimizedAffinity>  (1) 
-5.33923435

>  <minimizedRMSD>  (1) 
1.21729743

$$$$
