
     RDKit          3D

 34 36  0  0  0  0  0  0  0  0999 V2000
   46.3990   34.3020   43.3420 C   0  0  0  0  0  0  0  0  0  0  0  0
   45.2030   35.0230   43.5190 C   0  0  0  0  0  0  0  0  0  0  0  0
   44.6470   34.9670   44.8040 C   0  0  0  0  0  0  0  0  0  0  0  0
   45.2720   34.2430   45.7690 N   0  0  0  0  0  0  0  0  0  0  0  0
   46.4070   33.5750   45.5500 C   0  0  0  0  0  0  0  0  0  0  0  0
   46.9560   33.6140   44.3340 N   0  0  0  0  0  0  0  0  0  0  0  0
   46.9900   34.3450   42.0360 N   0  0  0  0  0  0  0  0  0  0  0  0
   47.9980   35.2590   41.9170 C   0  0  0  0  0  0  0  0  0  0  0  0
   48.4830   35.2210   40.6630 N   0  0  0  0  0  0  0  0  0  0  0  0
   47.7570   34.2790   40.0390 C   0  0  0  0  0  0  0  0  0  0  0  0
   46.8420   33.7430   40.8760 N   0  0  0  0  0  0  0  0  0  0  0  0
   44.6270   35.7570   42.4170 C   0  0  0  0  0  0  0  0  0  0  0  0
   43.5160   34.8900   41.8120 C   0  0  0  0  0  0  0  0  0  0  0  0
   42.5130   35.6900   41.1350 N   0  0  0  0  0  0  0  0  0  0  0  0
   41.1970   35.5260   41.6810 C   0  0  0  0  0  0  0  0  0  0  0  0
   40.3340   36.0900   40.5700 C   0  0  0  0  0  0  0  0  0  0  0  0
   40.9200   35.3230   39.3900 C   0  0  0  0  0  0  0  0  0  0  0  0
   42.3820   35.1850   39.7920 C   0  0  0  0  0  0  0  0  0  0  0  0
   43.7137   35.5039   45.0293 H   0  0  0  0  0  0  0  0  0  0  0  0
   46.8824   33.0013   46.3592 H   0  0  0  0  0  0  0  0  0  0  0  0
   48.3562   35.9209   42.7192 H   0  0  0  0  0  0  0  0  0  0  0  0
   47.8896   33.9836   38.9877 H   0  0  0  0  0  0  0  0  0  0  0  0
   44.2065   36.7071   42.7782 H   0  0  0  0  0  0  0  0  0  0  0  0
   45.3938   35.9844   41.6618 H   0  0  0  0  0  0  0  0  0  0  0  0
   43.9633   34.1933   41.0878 H   0  0  0  0  0  0  0  0  0  0  0  0
   43.0226   34.3475   42.6319 H   0  0  0  0  0  0  0  0  0  0  0  0
   40.9690   34.4662   41.8677 H   0  0  0  0  0  0  0  0  0  0  0  0
   41.0517   36.0177   42.6542 H   0  0  0  0  0  0  0  0  0  0  0  0
   39.2686   35.8617   40.7206 H   0  0  0  0  0  0  0  0  0  0  0  0
   40.3490   37.1856   40.4729 H   0  0  0  0  0  0  0  0  0  0  0  0
   40.8155   35.8906   38.4536 H   0  0  0  0  0  0  0  0  0  0  0  0
   40.4220   34.3614   39.1966 H   0  0  0  0  0  0  0  0  0  0  0  0
   42.6824   34.1274   39.7578 H   0  0  0  0  0  0  0  0  0  0  0  0
   43.0276   35.7484   39.1023 H   0  0  0  0  0  0  0  0  0  0  0  0
  1  2  1  0
  1  6  2  0
  2  3  2  0
  3  4  1  0
  5  4  2  0
  6  5  1  0
  7  1  1  0
  8  7  1  0
  9  8  2  0
 10  9  1  0
 10 11  2  0
 11  7  1  0
 12  2  1  0
 13 12  1  0
 14 15  1  0
 14 13  1  0
 16 15  1  0
 17 18  1  0
 17 16  1  0
 18 14  1  0
  3 19  1  0
  5 20  1  0
  8 21  1  0
 10 22  1  0
 12 23  1  0
 12 24  1  0
 13 25  1  0
 13 26  1  0
 15 27  1  0
 15 28  1  0
 16 29  1  0
 16 30  1  0
 17 31  1  0
 17 32  1  0
 18 33  1  0
 18 34  1  0
M  ISO  8  19  14  20  14  21  14  22  14  23   8  24   8  25   8  26   8
M  ISO  8  27  13  28  13  29  13  30  13  31  13  32  13  33  13  34  13
M  END
>  <minimizedAffinity>  (1) 
-5.37691879

>  <minimizedRMSD>  (1) 
0.727379918

$$$$
