
     RDKit          3D

 35 37  0  0  0  0  0  0  0  0999 V2000
   46.3930   34.3040   43.3500 C   0  0  0  0  0  0  0  0  0  0  0  0
   45.2010   35.0060   43.5380 C   0  0  0  0  0  0  0  0  0  0  0  0
   44.6470   34.9530   44.8110 C   0  0  0  0  0  0  0  0  0  0  0  0
   45.2770   34.2390   45.7810 N   0  0  0  0  0  0  0  0  0  0  0  0
   46.4150   33.5800   45.5650 C   0  0  0  0  0  0  0  0  0  0  0  0
   46.9640   33.6180   44.3510 N   0  0  0  0  0  0  0  0  0  0  0  0
   46.9840   34.3430   42.0480 N   0  0  0  0  0  0  0  0  0  0  0  0
   47.9890   35.2550   41.9140 C   0  0  0  0  0  0  0  0  0  0  0  0
   48.4710   35.2060   40.6580 N   0  0  0  0  0  0  0  0  0  0  0  0
   47.7340   34.2430   40.0340 C   0  0  0  0  0  0  0  0  0  0  0  0
   46.8340   33.7280   40.8940 N   0  0  0  0  0  0  0  0  0  0  0  0
   44.6160   35.7380   42.4240 C   0  0  0  0  0  0  0  0  0  0  0  0
   43.4990   34.8940   41.8370 C   0  0  0  0  0  0  0  0  0  0  0  0
   42.5870   35.6750   40.9260 C   0  0  0  0  0  0  0  0  0  0  0  0
   41.1930   35.7920   41.4350 C   0  0  0  0  0  0  0  0  0  0  0  0
   40.3080   35.2250   40.3380 C   0  0  0  0  0  0  0  0  0  0  0  0
   41.1100   35.5830   39.1020 C   0  0  0  0  0  0  0  0  0  0  0  0
   42.5050   35.1180   39.5470 C   0  0  0  0  0  0  0  0  0  0  0  0
   43.7087   35.4831   45.0315 H   0  0  0  0  0  0  0  0  0  0  0  0
   46.8942   33.0130   46.3767 H   0  0  0  0  0  0  0  0  0  0  0  0
   48.3494   35.9257   42.7079 H   0  0  0  0  0  0  0  0  0  0  0  0
   47.8561   33.9332   38.9856 H   0  0  0  0  0  0  0  0  0  0  0  0
   44.2108   36.6967   42.7800 H   0  0  0  0  0  0  0  0  0  0  0  0
   45.3804   35.9418   41.6597 H   0  0  0  0  0  0  0  0  0  0  0  0
   43.9472   34.0703   41.2620 H   0  0  0  0  0  0  0  0  0  0  0  0
   42.8896   34.5256   42.6755 H   0  0  0  0  0  0  0  0  0  0  0  0
   43.0588   36.6684   40.9009 H   0  0  0  0  0  0  0  0  0  0  0  0
   41.0732   35.2130   42.3626 H   0  0  0  0  0  0  0  0  0  0  0  0
   40.9320   36.8344   41.6702 H   0  0  0  0  0  0  0  0  0  0  0  0
   40.1871   34.1364   40.4393 H   0  0  0  0  0  0  0  0  0  0  0  0
   39.2797   35.6155   40.3390 H   0  0  0  0  0  0  0  0  0  0  0  0
   41.0855   36.6636   38.8980 H   0  0  0  0  0  0  0  0  0  0  0  0
   40.7471   35.1317   38.1668 H   0  0  0  0  0  0  0  0  0  0  0  0
   42.5781   34.0204   39.5535 H   0  0  0  0  0  0  0  0  0  0  0  0
   43.3175   35.4497   38.8838 H   0  0  0  0  0  0  0  0  0  0  0  0
  1  2  1  0
  1  6  2  0
  2  3  2  0
  3  4  1  0
  5  4  2  0
  6  5  1  0
  7  1  1  0
  8  7  1  0
  9  8  2  0
 10  9  1  0
 10 11  2  0
 11  7  1  0
 12  2  1  0
 13 12  1  0
 14 15  1  0
 14 13  1  0
 16 15  1  0
 17 18  1  0
 17 16  1  0
 18 14  1  0
  3 19  1  0
  5 20  1  0
  8 21  1  0
 10 22  1  0
 12 23  1  0
 12 24  1  0
 13 25  1  0
 13 26  1  0
 14 27  1  0
 15 28  1  0
 15 29  1  0
 16 30  1  0
 16 31  1  0
 17 32  1  0
 17 33  1  0
 18 34  1  0
 18 35  1  0
M  ISO  8  19  14  20  14  21  14  22  14  23   8  24   8  25   8  26   8
M  ISO  8  27  13  28  13  29  13  30  13  31  13  32  13  33  13  34  13
M  ISO  1  35  13
M  END
>  <minimizedAffinity>  (1) 
-5.38787794

>  <minimizedRMSD>  (1) 
0.774844408

$$$$
