
     RDKit          3D

 31 34  0  0  1  0  0  0  0  0999 V2000
   45.7450   34.0420   41.3630 N   0  0  0  0  0  0  0  0  0  0  0  0
   44.9610   33.5820   40.3520 C   0  0  0  0  0  0  0  0  0  0  0  0
   45.7160   33.3300   39.2710 N   0  0  0  0  0  0  0  0  0  0  0  0
   46.9970   33.6390   39.6050 C   0  0  0  0  0  0  0  0  0  0  0  0
   46.9630   34.0620   40.8710 N   0  0  0  0  0  0  0  0  0  0  0  0
   44.9900   35.7830   42.8540 C   0  0  0  0  0  0  0  0  0  0  0  0
   45.4360   34.4440   42.6860 C   0  0  0  0  0  0  0  0  0  0  0  0
   45.5350   33.6400   43.8060 C   0  0  0  0  0  0  0  0  0  0  0  0
   45.2010   34.1700   45.0100 N   0  0  0  0  0  0  0  0  0  0  0  0
   44.7850   35.4280   45.1520 C   0  0  0  0  0  0  0  0  0  0  0  0
   44.6840   36.2170   44.0800 N   0  0  0  0  0  0  0  0  0  0  0  0
   48.2390   33.5570   38.7920 C   0  0  2  0  0  0  0  0  0  0  0  0
   48.3900   34.6020   37.6710 C   0  0  0  0  0  0  0  0  0  0  0  0
   48.1450   33.1250   37.3550 C   0  0  1  0  0  0  0  0  0  0  0  0
   49.2750   32.2830   36.9140 C   0  0  0  0  0  0  0  0  0  0  0  0
   49.3530   31.6300   35.7080 C   0  0  0  0  0  0  0  0  0  0  0  0
   50.4500   30.8760   35.4020 C   0  0  0  0  0  0  0  0  0  0  0  0
   51.4990   30.7390   36.2610 N   0  0  0  0  0  0  0  0  0  0  0  0
   51.4130   31.3850   37.4480 C   0  0  0  0  0  0  0  0  0  0  0  0
   50.3430   32.1190   37.7440 N   0  0  0  0  0  0  0  0  0  0  0  0
   43.8721   33.4380   40.4109 H   0  0  0  0  0  0  0  0  0  0  0  0
   44.8980   36.4529   41.9864 H   0  0  0  0  0  0  0  0  0  0  0  0
   45.8757   32.5974   43.7236 H   0  0  0  0  0  0  0  0  0  0  0  0
   44.5259   35.8147   46.1486 H   0  0  0  0  0  0  0  0  0  0  0  0
   48.8417   33.2207   39.6486 H   0  0  0  0  0  0  0  0  0  0  0  0
   47.5976   35.3446   37.4958 H   0  0  0  0  0  0  0  0  0  0  0  0
   49.1460   35.3505   37.3912 H   0  0  0  0  0  0  0  0  0  0  0  0
   47.4103   32.6175   36.7127 H   0  0  0  0  0  0  0  0  0  0  0  0
   48.5281   31.7147   34.9853 H   0  0  0  0  0  0  0  0  0  0  0  0
   50.4880   30.3624   34.4300 H   0  0  0  0  0  0  0  0  0  0  0  0
   52.2350   31.3023   38.1742 H   0  0  0  0  0  0  0  0  0  0  0  0
  1  7  1  0
  2  1  1  0
  3  4  1  0
  3  2  2  0
  4  5  2  0
  5  1  1  0
  6 11  2  0
  7  6  1  0
  7  8  2  0
  8  9  1  0
  9 10  2  0
 11 10  1  0
 12  4  1  0
 13 12  1  0
 14 13  1  0
 14 12  1  0
 15 14  1  0
 15 20  1  0
 16 15  2  0
 17 16  1  0
 17 18  2  0
 18 19  1  0
 19 20  2  0
  2 21  1  0
  6 22  1  0
  8 23  1  0
 10 24  1  0
 12 25  1  1
 13 26  1  0
 13 27  1  0
 14 28  1  1
 16 29  1  0
 17 30  1  0
 19 31  1  0
M  ISO  8  21  14  22  14  23  14  24  14  25  13  26  13  27  13  28  13
M  ISO  3  29  14  30  14  31  14
M  END
>  <minimizedAffinity>  (1) 
-4.68359709

>  <minimizedRMSD>  (1) 
0.416048139

$$$$
