
     RDKit          3D

 45 48  0  0  1  0  0  0  0  0999 V2000
   42.2740   35.3500   40.5080 C   0  0  2  0  0  0  0  0  0  0  0  0
   41.1440   36.2050   41.0160 C   0  0  0  0  0  0  0  0  0  0  0  0
   39.9150   35.6970   40.3170 C   0  0  0  0  0  0  0  0  0  0  0  0
   40.5030   35.1450   39.0180 C   0  0  0  0  0  0  0  0  0  0  0  0
   41.6310   34.3220   39.6800 C   0  0  1  0  0  0  0  0  0  0  0  0
   42.3650   33.5140   38.8170 N   0  0  0  0  0  0  0  0  0  0  0  0
   43.6800   33.7560   38.5300 C   0  0  0  0  0  0  0  0  0  0  0  0
   44.4830   33.0180   37.6970 C   0  0  0  0  0  0  0  0  0  0  0  0
   43.8950   31.9250   37.0910 C   0  0  0  0  0  0  0  0  0  0  0  0
   44.6190   31.2380   36.3230 O   0  0  0  0  0  0  0  0  0  0  0  0
   42.5980   31.6290   37.3320 N   0  0  0  0  0  0  0  0  0  0  0  0
   41.9000   32.4310   38.1770 C   0  0  0  0  0  0  0  0  0  0  0  0
   40.7050   32.0860   38.3450 O   0  0  0  0  0  0  0  0  0  0  0  0
   43.0700   34.7800   41.6570 C   0  0  0  0  0  0  0  0  0  0  0  0
   44.2820   35.6150   42.0150 C   0  0  0  0  0  0  0  0  0  0  0  0
   46.0470   34.3540   43.1640 C   0  0  0  0  0  0  0  0  0  0  0  0
   44.8740   35.0910   43.2310 C   0  0  0  0  0  0  0  0  0  0  0  0
   44.3400   35.2770   44.4910 C   0  0  0  0  0  0  0  0  0  0  0  0
   44.9720   34.7440   45.5680 N   0  0  0  0  0  0  0  0  0  0  0  0
   46.0930   34.0440   45.4670 C   0  0  0  0  0  0  0  0  0  0  0  0
   46.6290   33.8490   44.2670 N   0  0  0  0  0  0  0  0  0  0  0  0
   46.6280   34.1410   41.8660 N   0  0  0  0  0  0  0  0  0  0  0  0
   47.6430   35.0020   41.5630 C   0  0  0  0  0  0  0  0  0  0  0  0
   48.1110   34.7140   40.3320 N   0  0  0  0  0  0  0  0  0  0  0  0
   47.3530   33.6600   39.9020 C   0  0  0  0  0  0  0  0  0  0  0  0
   46.4560   33.3260   40.8520 N   0  0  0  0  0  0  0  0  0  0  0  0
   43.0077   35.9155   39.9148 H   0  0  0  0  0  0  0  0  0  0  0  0
   41.0394   36.0972   42.1057 H   0  0  0  0  0  0  0  0  0  0  0  0
   41.3167   37.2728   40.8162 H   0  0  0  0  0  0  0  0  0  0  0  0
   39.4196   34.9070   40.9004 H   0  0  0  0  0  0  0  0  0  0  0  0
   39.1388   36.4617   40.1663 H   0  0  0  0  0  0  0  0  0  0  0  0
   40.8872   35.9358   38.3569 H   0  0  0  0  0  0  0  0  0  0  0  0
   39.8169   34.6044   38.3494 H   0  0  0  0  0  0  0  0  0  0  0  0
   41.3248   33.4740   40.3102 H   0  0  0  0  0  0  0  0  0  0  0  0
   44.1400   34.6294   39.0153 H   0  0  0  0  0  0  0  0  0  0  0  0
   45.5363   33.2822   37.5217 H   0  0  0  0  0  0  0  0  0  0  0  0
   42.1505   30.8156   36.8859 H   0  0  0  0  0  0  0  0  0  0  0  0
   42.4155   34.7176   42.5389 H   0  0  0  0  0  0  0  0  0  0  0  0
   43.4353   33.7911   41.3430 H   0  0  0  0  0  0  0  0  0  0  0  0
   45.0165   35.5684   41.1975 H   0  0  0  0  0  0  0  0  0  0  0  0
   43.9799   36.6613   42.1697 H   0  0  0  0  0  0  0  0  0  0  0  0
   43.4111   35.8517   44.6208 H   0  0  0  0  0  0  0  0  0  0  0  0
   46.5736   33.6297   46.3655 H   0  0  0  0  0  0  0  0  0  0  0  0
   48.0186   35.8020   42.2179 H   0  0  0  0  0  0  0  0  0  0  0  0
   47.4590   33.1600   38.9280 H   0  0  0  0  0  0  0  0  0  0  0  0
  1  2  1  0
  1 14  1  0
  3  2  1  0
  4  5  1  0
  4  3  1  0
  5  1  1  0
  6  5  1  0
  7  6  1  0
  8  7  2  0
  9 11  1  0
  9  8  1  0
 10  9  2  0
 11 12  1  0
 12 13  2  0
 12  6  1  0
 14 15  1  0
 15 17  1  0
 16 17  1  0
 16 21  2  0
 17 18  2  0
 18 19  1  0
 20 19  2  0
 21 20  1  0
 22 16  1  0
 23 22  1  0
 24 23  2  0
 25 24  1  0
 25 26  2  0
 26 22  1  0
  1 27  1  6
  2 28  1  0
  2 29  1  0
  3 30  1  0
  3 31  1  0
  4 32  1  0
  4 33  1  0
  5 34  1  1
  7 35  1  0
  8 36  1  0
 11 37  1  0
 14 38  1  0
 14 39  1  0
 15 40  1  0
 15 41  1  0
 18 42  1  0
 20 43  1  0
 23 44  1  0
 25 45  1  0
M  ISO  8  27  13  28  13  29  13  30  13  31  13  32  13  33  13  34  13
M  ISO  8  35  14  36  14  37   9  38   8  39   8  40   8  41   8  42  14
M  ISO  3  43  14  44  14  45  14
M  END
>  <minimizedAffinity>  (1) 
-6.01458454

>  <minimizedRMSD>  (1) 
2.03420091

$$$$
