
     RDKit          3D

 45 48  0  0  1  0  0  0  0  0999 V2000
   42.1160   35.5830   40.8480 C   0  0  2  0  0  0  0  0  0  0  0  0
   40.8710   35.3620   41.6410 C   0  0  0  0  0  0  0  0  0  0  0  0
   39.8350   34.9270   40.6600 C   0  0  0  0  0  0  0  0  0  0  0  0
   40.3090   35.4140   39.3450 C   0  0  0  0  0  0  0  0  0  0  0  0
   41.8190   35.3230   39.4390 C   0  0  2  0  0  0  0  0  0  0  0  0
   42.3670   34.0970   38.8460 C   0  0  0  0  0  0  0  0  0  0  0  0
   41.5200   33.0160   38.5750 C   0  0  0  0  0  0  0  0  0  0  0  0
   41.9810   31.8350   38.0160 C   0  0  0  0  0  0  0  0  0  0  0  0
   43.3010   31.6740   37.7030 C   0  0  0  0  0  0  0  0  0  0  0  0
   44.1670   32.7180   37.9550 C   0  0  0  0  0  0  0  0  0  0  0  0
   43.6880   33.8850   38.5110 C   0  0  0  0  0  0  0  0  0  0  0  0
   43.3080   34.8210   41.3960 C   0  0  0  0  0  0  0  0  0  0  0  0
   44.4160   35.7350   41.8880 C   0  0  0  0  0  0  0  0  0  0  0  0
   46.1210   34.4110   43.0560 C   0  0  0  0  0  0  0  0  0  0  0  0
   44.9570   35.1630   43.1130 C   0  0  0  0  0  0  0  0  0  0  0  0
   44.3860   35.3140   44.3610 C   0  0  0  0  0  0  0  0  0  0  0  0
   44.9670   34.7410   45.4430 N   0  0  0  0  0  0  0  0  0  0  0  0
   46.0910   34.0210   45.3560 C   0  0  0  0  0  0  0  0  0  0  0  0
   46.6570   33.8620   44.1640 N   0  0  0  0  0  0  0  0  0  0  0  0
   46.7440   34.2310   41.7790 N   0  0  0  0  0  0  0  0  0  0  0  0
   47.7800   35.0770   41.5260 C   0  0  0  0  0  0  0  0  0  0  0  0
   48.2810   34.8100   40.2990 N   0  0  0  0  0  0  0  0  0  0  0  0
   47.5170   33.7790   39.8180 C   0  0  0  0  0  0  0  0  0  0  0  0
   46.5840   33.4380   40.7330 N   0  0  0  0  0  0  0  0  0  0  0  0
   42.4346   36.6321   40.9372 H   0  0  0  0  0  0  0  0  0  0  0  0
   41.0331   34.5809   42.3984 H   0  0  0  0  0  0  0  0  0  0  0  0
   40.5647   36.2734   42.1753 H   0  0  0  0  0  0  0  0  0  0  0  0
   39.7461   33.8306   40.6550 H   0  0  0  0  0  0  0  0  0  0  0  0
   38.8414   35.3271   40.9102 H   0  0  0  0  0  0  0  0  0  0  0  0
   39.9903   36.4531   39.1755 H   0  0  0  0  0  0  0  0  0  0  0  0
   39.9023   34.8292   38.5068 H   0  0  0  0  0  0  0  0  0  0  0  0
   42.3420   36.0670   38.8201 H   0  0  0  0  0  0  0  0  0  0  0  0
   40.4503   33.1074   38.8144 H   0  0  0  0  0  0  0  0  0  0  0  0
   41.2739   31.0152   37.8214 H   0  0  0  0  0  0  0  0  0  0  0  0
   43.6646   30.7347   37.2608 H   0  0  0  0  0  0  0  0  0  0  0  0
   45.2356   32.6196   37.7132 H   0  0  0  0  0  0  0  0  0  0  0  0
   44.4044   34.6982   38.6993 H   0  0  0  0  0  0  0  0  0  0  0  0
   42.9696   34.1958   42.2354 H   0  0  0  0  0  0  0  0  0  0  0  0
   43.7191   34.2150   40.5751 H   0  0  0  0  0  0  0  0  0  0  0  0
   45.2074   35.8060   41.1273 H   0  0  0  0  0  0  0  0  0  0  0  0
   44.0238   36.7451   42.0773 H   0  0  0  0  0  0  0  0  0  0  0  0
   43.4612   35.8983   44.4768 H   0  0  0  0  0  0  0  0  0  0  0  0
   46.5382   33.5692   46.2537 H   0  0  0  0  0  0  0  0  0  0  0  0
   48.1505   35.8541   42.2108 H   0  0  0  0  0  0  0  0  0  0  0  0
   47.6444   33.3014   38.8353 H   0  0  0  0  0  0  0  0  0  0  0  0
  1 12  1  0
  1  2  1  0
  3  2  1  0
  4  5  1  0
  4  3  1  0
  5  1  1  0
  6  5  1  0
  7  6  2  0
  8  7  1  0
  9 10  1  0
  9  8  2  0
 10 11  2  0
 11  6  1  0
 12 13  1  0
 13 15  1  0
 14 15  1  0
 14 19  2  0
 15 16  2  0
 16 17  1  0
 18 17  2  0
 19 18  1  0
 20 14  1  0
 21 20  1  0
 22 21  2  0
 23 22  1  0
 23 24  2  0
 24 20  1  0
  1 25  1  6
  2 26  1  0
  2 27  1  0
  3 28  1  0
  3 29  1  0
  4 30  1  0
  4 31  1  0
  5 32  1  6
  7 33  1  0
  8 34  1  0
  9 35  1  0
 10 36  1  0
 11 37  1  0
 12 38  1  0
 12 39  1  0
 13 40  1  0
 13 41  1  0
 16 42  1  0
 18 43  1  0
 21 44  1  0
 23 45  1  0
M  ISO  8  25  13  26  13  27  13  28  13  29  13  30  13  31  13  32  13
M  ISO  8  33  14  34  14  35  14  36  14  37  14  38   8  39   8  40   8
M  ISO  5  41   8  42  14  43  14  44  14  45  14
M  END
>  <minimizedAffinity>  (1) 
-5.94802713

>  <minimizedRMSD>  (1) 
0.822404444

$$$$
