
     RDKit          3D

 38 40  0  0  1  0  0  0  0  0999 V2000
   43.3640   34.7720   41.2460 C   0  0  0  0  0  0  0  0  0  0  0  0
   42.1790   35.4450   40.5970 C   0  0  2  0  0  0  0  0  0  0  0  0
   41.0300   35.6800   41.5130 C   0  0  0  0  0  0  0  0  0  0  0  0
   39.8570   34.9420   40.8920 C   0  0  0  0  0  0  0  0  0  0  0  0
   40.1660   35.0960   39.4200 C   0  0  0  0  0  0  0  0  0  0  0  0
   41.6550   34.7640   39.4010 C   0  0  1  0  0  0  0  0  0  0  0  0
   42.2180   35.3930   38.1620 C   0  0  0  0  0  0  0  0  0  0  0  0
   41.7890   36.3480   37.4990 O   0  0  0  0  0  0  0  0  0  0  0  0
   43.3900   34.7640   37.7530 O   0  0  0  0  0  0  0  0  0  0  0  0
   44.3600   35.7630   41.8120 C   0  0  0  0  0  0  0  0  0  0  0  0
   46.0490   34.4950   43.0540 C   0  0  0  0  0  0  0  0  0  0  0  0
   44.8730   35.2340   43.0690 C   0  0  0  0  0  0  0  0  0  0  0  0
   44.2550   35.4220   44.2910 C   0  0  0  0  0  0  0  0  0  0  0  0
   44.8310   34.8760   45.4020 N   0  0  0  0  0  0  0  0  0  0  0  0
   45.9560   34.1740   45.3680 C   0  0  0  0  0  0  0  0  0  0  0  0
   46.5550   33.9900   44.1950 N   0  0  0  0  0  0  0  0  0  0  0  0
   46.7050   34.2870   41.8040 N   0  0  0  0  0  0  0  0  0  0  0  0
   47.7400   35.1140   41.5590 C   0  0  0  0  0  0  0  0  0  0  0  0
   48.2720   34.8160   40.3530 N   0  0  0  0  0  0  0  0  0  0  0  0
   47.5310   33.7880   39.8780 C   0  0  0  0  0  0  0  0  0  0  0  0
   46.5760   33.4700   40.7700 N   0  0  0  0  0  0  0  0  0  0  0  0
   43.8730   34.1523   40.4930 H   0  0  0  0  0  0  0  0  0  0  0  0
   42.9856   34.1660   42.0824 H   0  0  0  0  0  0  0  0  0  0  0  0
   42.6189   36.4077   40.2976 H   0  0  0  0  0  0  0  0  0  0  0  0
   41.2488   35.2804   42.5142 H   0  0  0  0  0  0  0  0  0  0  0  0
   40.8185   36.7526   41.6347 H   0  0  0  0  0  0  0  0  0  0  0  0
   39.8404   33.8840   41.1928 H   0  0  0  0  0  0  0  0  0  0  0  0
   38.8703   35.3257   41.1908 H   0  0  0  0  0  0  0  0  0  0  0  0
   39.5862   34.3885   38.8090 H   0  0  0  0  0  0  0  0  0  0  0  0
   39.9153   36.0830   39.0041 H   0  0  0  0  0  0  0  0  0  0  0  0
   41.8939   33.6903   39.4028 H   0  0  0  0  0  0  0  0  0  0  0  0
   43.8662   35.0815   36.9452 H   0  0  0  0  0  0  0  0  0  0  0  0
   45.1887   35.9030   41.1023 H   0  0  0  0  0  0  0  0  0  0  0  0
   43.8715   36.7337   41.9823 H   0  0  0  0  0  0  0  0  0  0  0  0
   43.3209   35.9980   44.3666 H   0  0  0  0  0  0  0  0  0  0  0  0
   46.3841   33.7533   46.2898 H   0  0  0  0  0  0  0  0  0  0  0  0
   48.0957   35.9064   42.2339 H   0  0  0  0  0  0  0  0  0  0  0  0
   47.6861   33.2888   38.9102 H   0  0  0  0  0  0  0  0  0  0  0  0
  1 10  1  0
  2  1  1  0
  2  3  1  0
  4  3  1  0
  5  4  1  0
  6  5  1  0
  6  2  1  0
  7  6  1  0
  8  7  2  0
  9  7  1  0
 10 12  1  0
 11 12  1  0
 11 16  2  0
 12 13  2  0
 13 14  1  0
 15 14  2  0
 16 15  1  0
 17 11  1  0
 18 17  1  0
 19 18  2  0
 20 19  1  0
 20 21  2  0
 21 17  1  0
  1 22  1  0
  1 23  1  0
  2 24  1  6
  3 25  1  0
  3 26  1  0
  4 27  1  0
  4 28  1  0
  5 29  1  0
  5 30  1  0
  6 31  1  1
  9 32  1  0
 10 33  1  0
 10 34  1  0
 13 35  1  0
 15 36  1  0
 18 37  1  0
 20 38  1  0
M  ISO  8  22   8  23   8  24  13  25  13  26  13  27  13  28  13  29  13
M  ISO  8  30  13  31  13  32   3  33   8  34   8  35  14  36  14  37  14
M  ISO  1  38  14
M  END
>  <minimizedAffinity>  (1) 
-5.90839958

>  <minimizedRMSD>  (1) 
0.876107931

$$$$
