
     RDKit          3D

 42 44  0  0  1  0  0  0  0  0999 V2000
   43.1510   35.0860   42.1750 C   0  0  0  0  0  0  0  0  0  0  0  0
   42.5090   35.6380   40.9190 C   0  0  2  0  0  0  0  0  0  0  0  0
   41.0850   36.0480   41.1240 C   0  0  0  0  0  0  0  0  0  0  0  0
   40.3120   35.3000   40.0640 C   0  0  0  0  0  0  0  0  0  0  0  0
   41.3470   35.2190   38.9460 C   0  0  0  0  0  0  0  0  0  0  0  0
   42.5050   34.6620   39.8050 C   0  0  1  0  0  0  0  0  0  0  0  0
   43.7110   34.4950   39.0790 N   0  0  0  0  0  0  0  0  0  0  0  0
   43.8540   33.5330   38.0230 C   0  0  0  0  0  0  0  0  0  0  0  0
   43.0120   32.5380   37.9960 N   0  0  0  0  0  0  0  0  0  0  0  0
   44.8730   33.6790   37.0620 N   0  0  0  0  0  0  0  0  0  0  0  0
   43.0280   31.7890   37.2770 H   0  0  0  0  0  0  0  0  0  0  0  0
   44.4880   35.7450   42.4850 C   0  0  0  0  0  0  0  0  0  0  0  0
   46.2370   34.2230   43.2980 C   0  0  0  0  0  0  0  0  0  0  0  0
   45.1190   34.9990   43.5610 C   0  0  0  0  0  0  0  0  0  0  0  0
   44.6690   35.0080   44.8740 C   0  0  0  0  0  0  0  0  0  0  0  0
   45.3260   34.2750   45.8160 N   0  0  0  0  0  0  0  0  0  0  0  0
   46.4050   33.5350   45.5260 C   0  0  0  0  0  0  0  0  0  0  0  0
   46.8430   33.5210   44.2710 N   0  0  0  0  0  0  0  0  0  0  0  0
   46.7280   34.1930   41.9470 N   0  0  0  0  0  0  0  0  0  0  0  0
   47.7650   35.0150   41.7130 C   0  0  0  0  0  0  0  0  0  0  0  0
   48.1360   34.8980   40.4150 N   0  0  0  0  0  0  0  0  0  0  0  0
   47.2850   33.9760   39.8810 C   0  0  0  0  0  0  0  0  0  0  0  0
   46.4410   33.5630   40.8310 N   0  0  0  0  0  0  0  0  0  0  0  0
   43.3124   34.0059   42.0431 H   0  0  0  0  0  0  0  0  0  0  0  0
   42.4731   35.2943   43.0158 H   0  0  0  0  0  0  0  0  0  0  0  0
   43.1282   36.5122   40.6693 H   0  0  0  0  0  0  0  0  0  0  0  0
   40.7404   35.7626   42.1289 H   0  0  0  0  0  0  0  0  0  0  0  0
   40.9509   37.1369   41.0451 H   0  0  0  0  0  0  0  0  0  0  0  0
   40.0150   34.2996   40.4119 H   0  0  0  0  0  0  0  0  0  0  0  0
   39.3667   35.7800   39.7708 H   0  0  0  0  0  0  0  0  0  0  0  0
   41.5787   36.2039   38.5143 H   0  0  0  0  0  0  0  0  0  0  0  0
   41.0676   34.6353   38.0565 H   0  0  0  0  0  0  0  0  0  0  0  0
   42.3856   33.6300   40.1665 H   0  0  0  0  0  0  0  0  0  0  0  0
   44.5180   35.0883   39.3190 H   0  0  0  0  0  0  0  0  0  0  0  0
   44.9714   32.9860   36.3063 H   0  0  0  0  0  0  0  0  0  0  0  0
   45.5199   34.4787   37.1148 H   0  0  0  0  0  0  0  0  0  0  0  0
   45.1294   35.7258   41.5916 H   0  0  0  0  0  0  0  0  0  0  0  0
   44.3368   36.7926   42.7845 H   0  0  0  0  0  0  0  0  0  0  0  0
   43.7870   35.6035   45.1524 H   0  0  0  0  0  0  0  0  0  0  0  0
   46.9158   32.9533   46.3075 H   0  0  0  0  0  0  0  0  0  0  0  0
   48.2365   35.6760   42.4552 H   0  0  0  0  0  0  0  0  0  0  0  0
   47.2922   33.6286   38.8373 H   0  0  0  0  0  0  0  0  0  0  0  0
  1 12  1  0
  2  3  1  0
  2  1  1  0
  4  3  1  0
  5  6  1  0
  5  4  1  0
  6  2  1  0
  7  6  1  0
  8  7  1  0
  9  8  2  0
 10  8  1  0
 11  9  1  0
 12 14  1  0
 13 14  1  0
 13 18  2  0
 14 15  2  0
 15 16  1  0
 17 16  2  0
 18 17  1  0
 19 13  1  0
 20 19  1  0
 21 20  2  0
 22 21  1  0
 22 23  2  0
 23 19  1  0
  1 24  1  0
  1 25  1  0
  2 26  1  6
  3 27  1  0
  3 28  1  0
  4 29  1  0
  4 30  1  0
  5 31  1  0
  5 32  1  0
  6 33  1  1
  7 34  1  0
 10 35  1  0
 10 36  1  0
 12 37  1  0
 12 38  1  0
 15 39  1  0
 17 40  1  0
 20 41  1  0
 22 42  1  0
M  ISO  8  24   8  25   8  26  13  27  13  28  13  29  13  30  13  31  13
M  ISO  8  32  13  33  13  37   8  38   8  39  14  40  14  41  14  42  14
M  END
>  <minimizedAffinity>  (1) 
-6.09515238

>  <minimizedRMSD>  (1) 
0.558095336

$$$$
