
     RDKit          3D

 48 51  0  0  1  0  0  0  0  0999 V2000
   41.7310   35.4000   40.5950 C   0  0  2  0  0  0  0  0  0  0  0  0
   40.4850   36.2190   40.7480 C   0  0  0  0  0  0  0  0  0  0  0  0
   39.3630   35.3210   40.2340 C   0  0  0  0  0  0  0  0  0  0  0  0
   40.0930   34.5140   39.1870 C   0  0  0  0  0  0  0  0  0  0  0  0
   41.3260   34.1080   40.0060 C   0  0  1  0  0  0  0  0  0  0  0  0
   42.2870   33.3930   39.2540 N   0  0  0  0  0  0  0  0  0  0  0  0
   42.5030   32.0850   39.4890 C   0  0  0  0  0  0  0  0  0  0  0  0
   43.4160   31.2970   38.8140 C   0  0  0  0  0  0  0  0  0  0  0  0
   43.6010   29.8590   39.1260 C   0  0  0  0  0  0  0  0  0  0  0  0
   44.1550   31.9190   37.8230 C   0  0  0  0  0  0  0  0  0  0  0  0
   45.0060   31.2700   37.1630 O   0  0  0  0  0  0  0  0  0  0  0  0
   43.9370   33.2410   37.5850 N   0  0  0  0  0  0  0  0  0  0  0  0
   43.0220   33.9360   38.2970 C   0  0  0  0  0  0  0  0  0  0  0  0
   42.8990   35.1520   37.9970 O   0  0  0  0  0  0  0  0  0  0  0  0
   42.4850   35.2430   41.9010 C   0  0  0  0  0  0  0  0  0  0  0  0
   43.9740   35.5050   41.7580 C   0  0  0  0  0  0  0  0  0  0  0  0
   45.7840   34.3360   42.9240 C   0  0  0  0  0  0  0  0  0  0  0  0
   44.6280   35.1010   42.9890 C   0  0  0  0  0  0  0  0  0  0  0  0
   44.1660   35.4350   44.2500 C   0  0  0  0  0  0  0  0  0  0  0  0
   44.8480   35.0100   45.3470 N   0  0  0  0  0  0  0  0  0  0  0  0
   45.9550   34.2770   45.2580 C   0  0  0  0  0  0  0  0  0  0  0  0
   46.4210   33.9410   44.0460 N   0  0  0  0  0  0  0  0  0  0  0  0
   46.2840   33.9760   41.6390 N   0  0  0  0  0  0  0  0  0  0  0  0
   47.2900   34.7810   41.1830 C   0  0  0  0  0  0  0  0  0  0  0  0
   47.6780   34.3410   39.9600 N   0  0  0  0  0  0  0  0  0  0  0  0
   46.8830   33.2600   39.7040 C   0  0  0  0  0  0  0  0  0  0  0  0
   46.0470   33.0600   40.7370 N   0  0  0  0  0  0  0  0  0  0  0  0
   42.4461   35.9081   39.9313 H   0  0  0  0  0  0  0  0  0  0  0  0
   40.3198   36.4797   41.8038 H   0  0  0  0  0  0  0  0  0  0  0  0
   40.5422   37.1691   40.1966 H   0  0  0  0  0  0  0  0  0  0  0  0
   38.9627   34.6785   41.0321 H   0  0  0  0  0  0  0  0  0  0  0  0
   38.4854   35.8654   39.8551 H   0  0  0  0  0  0  0  0  0  0  0  0
   40.3626   35.1232   38.3117 H   0  0  0  0  0  0  0  0  0  0  0  0
   39.5218   33.6812   38.7510 H   0  0  0  0  0  0  0  0  0  0  0  0
   41.1484   33.3598   40.7925 H   0  0  0  0  0  0  0  0  0  0  0  0
   41.9065   31.6064   40.2796 H   0  0  0  0  0  0  0  0  0  0  0  0
   43.6189   29.7199   40.2170 H   0  0  0  0  0  0  0  0  0  0  0  0
   42.7699   29.2807   38.6962 H   0  0  0  0  0  0  0  0  0  0  0  0
   44.5515   29.5099   38.6962 H   0  0  0  0  0  0  0  0  0  0  0  0
   44.4778   33.7197   36.8506 H   0  0  0  0  0  0  0  0  0  0  0  0
   42.0721   35.9533   42.6324 H   0  0  0  0  0  0  0  0  0  0  0  0
   42.3630   34.2004   42.2297 H   0  0  0  0  0  0  0  0  0  0  0  0
   44.3749   34.9226   40.9153 H   0  0  0  0  0  0  0  0  0  0  0  0
   44.1542   36.5730   41.5659 H   0  0  0  0  0  0  0  0  0  0  0  0
   43.2542   36.0396   44.3641 H   0  0  0  0  0  0  0  0  0  0  0  0
   46.4814   33.9507   46.1671 H   0  0  0  0  0  0  0  0  0  0  0  0
   47.7146   35.6427   41.7189 H   0  0  0  0  0  0  0  0  0  0  0  0
   46.9213   32.6468   38.7916 H   0  0  0  0  0  0  0  0  0  0  0  0
  1  2  1  0
  1 15  1  0
  3  2  1  0
  4  5  1  0
  4  3  1  0
  5  1  1  0
  6  7  1  0
  6  5  1  0
  8  9  1  0
  8  7  2  0
 10  8  1  0
 11 10  2  0
 12 10  1  0
 12 13  1  0
 13  6  1  0
 14 13  2  0
 16 15  1  0
 16 18  1  0
 17 18  1  0
 17 22  2  0
 18 19  2  0
 19 20  1  0
 21 20  2  0
 22 21  1  0
 23 17  1  0
 24 23  1  0
 25 24  2  0
 26 25  1  0
 26 27  2  0
 27 23  1  0
  1 28  1  6
  2 29  1  0
  2 30  1  0
  3 31  1  0
  3 32  1  0
  4 33  1  0
  4 34  1  0
  5 35  1  1
  7 36  1  0
  9 37  1  0
  9 38  1  0
  9 39  1  0
 12 40  1  0
 15 41  1  0
 15 42  1  0
 16 43  1  0
 16 44  1  0
 19 45  1  0
 21 46  1  0
 24 47  1  0
 26 48  1  0
M  ISO  8  28  13  29  13  30  13  31  13  32  13  33  13  34  13  35  13
M  ISO  8  36  14  37   8  38   8  39   8  40   9  41   8  42   8  43   8
M  ISO  5  44   8  45  14  46  14  47  14  48  14
M  END
>  <minimizedAffinity>  (1) 
-5.75434399

>  <minimizedRMSD>  (1) 
2.28691626

$$$$
