
     RDKit          3D

 41 43  0  0  1  0  0  0  0  0999 V2000
   43.3940   34.8260   41.2670 C   0  0  0  0  0  0  0  0  0  0  0  0
   42.1640   35.4960   40.7030 C   0  0  2  0  0  0  0  0  0  0  0  0
   41.0210   35.5430   41.6540 C   0  0  0  0  0  0  0  0  0  0  0  0
   39.8760   34.8570   40.9450 C   0  0  0  0  0  0  0  0  0  0  0  0
   40.1700   35.1650   39.4950 C   0  0  0  0  0  0  0  0  0  0  0  0
   41.6780   34.8880   39.4430 C   0  0  1  0  0  0  0  0  0  0  0  0
   42.2810   35.5040   38.2170 C   0  0  0  0  0  0  0  0  0  0  0  0
   41.3350   36.3250   37.4070 C   0  0  0  0  0  0  0  0  0  0  0  0
   44.3850   35.8060   41.8640 C   0  0  0  0  0  0  0  0  0  0  0  0
   46.0630   34.5040   43.0800 C   0  0  0  0  0  0  0  0  0  0  0  0
   44.8950   35.2530   43.1010 C   0  0  0  0  0  0  0  0  0  0  0  0
   44.2830   35.4260   44.3330 C   0  0  0  0  0  0  0  0  0  0  0  0
   44.8350   34.8690   45.4410 N   0  0  0  0  0  0  0  0  0  0  0  0
   45.9590   34.1530   45.3920 C   0  0  0  0  0  0  0  0  0  0  0  0
   46.5670   33.9740   44.2130 N   0  0  0  0  0  0  0  0  0  0  0  0
   46.7190   34.3060   41.8310 N   0  0  0  0  0  0  0  0  0  0  0  0
   47.7530   35.1390   41.5970 C   0  0  0  0  0  0  0  0  0  0  0  0
   48.2870   34.8490   40.3850 N   0  0  0  0  0  0  0  0  0  0  0  0
   47.5440   33.8220   39.9070 C   0  0  0  0  0  0  0  0  0  0  0  0
   46.5880   33.4960   40.7950 N   0  0  0  0  0  0  0  0  0  0  0  0
   43.8932   34.2727   40.4579 H   0  0  0  0  0  0  0  0  0  0  0  0
   43.0622   34.1607   42.0777 H   0  0  0  0  0  0  0  0  0  0  0  0
   42.5145   36.5190   40.5015 H   0  0  0  0  0  0  0  0  0  0  0  0
   41.2720   35.0103   42.5831 H   0  0  0  0  0  0  0  0  0  0  0  0
   40.7665   36.5757   41.9348 H   0  0  0  0  0  0  0  0  0  0  0  0
   39.8828   33.7730   41.1321 H   0  0  0  0  0  0  0  0  0  0  0  0
   38.8836   35.1964   41.2767 H   0  0  0  0  0  0  0  0  0  0  0  0
   39.6126   34.5002   38.8187 H   0  0  0  0  0  0  0  0  0  0  0  0
   39.8815   36.1776   39.1767 H   0  0  0  0  0  0  0  0  0  0  0  0
   41.9462   33.8235   39.3722 H   0  0  0  0  0  0  0  0  0  0  0  0
   43.1139   36.1501   38.5315 H   0  0  0  0  0  0  0  0  0  0  0  0
   42.6012   34.6709   37.5740 H   0  0  0  0  0  0  0  0  0  0  0  0
   40.6771   36.8959   38.0788 H   0  0  0  0  0  0  0  0  0  0  0  0
   41.9038   37.0206   36.7725 H   0  0  0  0  0  0  0  0  0  0  0  0
   40.7264   35.6639   36.7725 H   0  0  0  0  0  0  0  0  0  0  0  0
   45.2151   35.9680   41.1607 H   0  0  0  0  0  0  0  0  0  0  0  0
   43.8897   36.7686   42.0592 H   0  0  0  0  0  0  0  0  0  0  0  0
   43.3551   36.0115   44.4121 H   0  0  0  0  0  0  0  0  0  0  0  0
   46.3810   33.7152   46.3086 H   0  0  0  0  0  0  0  0  0  0  0  0
   48.1062   35.9265   42.2790 H   0  0  0  0  0  0  0  0  0  0  0  0
   47.6995   33.3280   38.9365 H   0  0  0  0  0  0  0  0  0  0  0  0
  1  9  1  0
  2  1  1  0
  2  3  1  0
  4  3  1  0
  5  4  1  0
  6  5  1  0
  6  2  1  0
  7  6  1  0
  8  7  1  0
  9 11  1  0
 10 11  1  0
 10 15  2  0
 11 12  2  0
 12 13  1  0
 14 13  2  0
 15 14  1  0
 16 10  1  0
 17 16  1  0
 18 17  2  0
 19 18  1  0
 19 20  2  0
 20 16  1  0
  1 21  1  0
  1 22  1  0
  2 23  1  6
  3 24  1  0
  3 25  1  0
  4 26  1  0
  4 27  1  0
  5 28  1  0
  5 29  1  0
  6 30  1  1
  7 31  1  0
  7 32  1  0
  8 33  1  0
  8 34  1  0
  8 35  1  0
  9 36  1  0
  9 37  1  0
 12 38  1  0
 14 39  1  0
 17 40  1  0
 19 41  1  0
M  ISO  8  21   8  22   8  23  13  24  13  25  13  26  13  27  13  28  13
M  ISO  8  29  13  30  13  31   8  32   8  33   8  34   8  35   8  36   8
M  ISO  5  37   8  38  14  39  14  40  14  41  14
M  END
>  <minimizedAffinity>  (1) 
-5.75576878

>  <minimizedRMSD>  (1) 
0.7717188

$$$$
