
     RDKit          3D

 47 49  0  0  1  0  0  0  0  0999 V2000
   43.2740   34.8810   41.5940 C   0  0  0  0  0  0  0  0  0  0  0  0
   42.3380   35.5770   40.6340 C   0  0  2  0  0  0  0  0  0  0  0  0
   41.1200   36.0230   41.4030 C   0  0  0  0  0  0  0  0  0  0  0  0
   40.0090   35.8640   40.4920 C   0  0  0  0  0  0  0  0  0  0  0  0
   40.3670   34.8740   39.4850 C   0  0  0  0  0  0  0  0  0  0  0  0
   41.9100   34.9340   39.4550 C   0  0  2  0  0  0  0  0  0  0  0  0
   42.2800   33.5820   38.9920 C   0  0  0  0  0  0  0  0  0  0  0  0
   43.6950   33.3890   38.5810 C   0  0  0  0  0  0  0  0  0  0  0  0
   42.1050   32.7080   40.2550 C   0  0  0  0  0  0  0  0  0  0  0  0
   41.2330   33.0450   38.0800 C   0  0  0  0  0  0  0  0  0  0  0  0
   44.4020   35.7580   42.0950 C   0  0  0  0  0  0  0  0  0  0  0  0
   46.1190   34.3960   43.1970 C   0  0  0  0  0  0  0  0  0  0  0  0
   44.9610   35.1540   43.2940 C   0  0  0  0  0  0  0  0  0  0  0  0
   44.4070   35.2860   44.5510 C   0  0  0  0  0  0  0  0  0  0  0  0
   45.0130   34.6780   45.6060 N   0  0  0  0  0  0  0  0  0  0  0  0
   46.1180   33.9590   45.4870 C   0  0  0  0  0  0  0  0  0  0  0  0
   46.6620   33.8240   44.2810 N   0  0  0  0  0  0  0  0  0  0  0  0
   46.7200   34.2420   41.9000 N   0  0  0  0  0  0  0  0  0  0  0  0
   47.7540   35.1010   41.6650 C   0  0  0  0  0  0  0  0  0  0  0  0
   48.2300   34.8610   40.4280 N   0  0  0  0  0  0  0  0  0  0  0  0
   47.4710   33.8570   39.9350 C   0  0  0  0  0  0  0  0  0  0  0  0
   46.5420   33.4770   40.8430 N   0  0  0  0  0  0  0  0  0  0  0  0
   43.7123   34.0119   41.0816 H   0  0  0  0  0  0  0  0  0  0  0  0
   42.6766   34.5961   42.4726 H   0  0  0  0  0  0  0  0  0  0  0  0
   42.9742   36.3805   40.2343 H   0  0  0  0  0  0  0  0  0  0  0  0
   40.9780   35.3961   42.2957 H   0  0  0  0  0  0  0  0  0  0  0  0
   41.2157   37.0615   41.7528 H   0  0  0  0  0  0  0  0  0  0  0  0
   39.1219   35.5237   41.0463 H   0  0  0  0  0  0  0  0  0  0  0  0
   39.7817   36.8251   40.0077 H   0  0  0  0  0  0  0  0  0  0  0  0
   40.0178   33.8724   39.7764 H   0  0  0  0  0  0  0  0  0  0  0  0
   39.9107   35.0751   38.5045 H   0  0  0  0  0  0  0  0  0  0  0  0
   42.4786   35.5713   38.7618 H   0  0  0  0  0  0  0  0  0  0  0  0
   44.3283   33.3026   39.4762 H   0  0  0  0  0  0  0  0  0  0  0  0
   43.7807   32.4709   37.9813 H   0  0  0  0  0  0  0  0  0  0  0  0
   44.0234   34.2507   37.9813 H   0  0  0  0  0  0  0  0  0  0  0  0
   42.2298   33.3315   41.1526 H   0  0  0  0  0  0  0  0  0  0  0  0
   41.0996   32.2616   40.2556 H   0  0  0  0  0  0  0  0  0  0  0  0
   42.8610   31.9089   40.2556 H   0  0  0  0  0  0  0  0  0  0  0  0
   40.4098   32.6228   38.6751 H   0  0  0  0  0  0  0  0  0  0  0  0
   40.8479   33.8569   37.4455 H   0  0  0  0  0  0  0  0  0  0  0  0
   41.6677   32.2585   37.4455 H   0  0  0  0  0  0  0  0  0  0  0  0
   45.1809   35.8376   41.3223 H   0  0  0  0  0  0  0  0  0  0  0  0
   44.0226   36.7650   42.3230 H   0  0  0  0  0  0  0  0  0  0  0  0
   43.4891   35.8741   44.6975 H   0  0  0  0  0  0  0  0  0  0  0  0
   46.5764   33.4834   46.3666 H   0  0  0  0  0  0  0  0  0  0  0  0
   48.1336   35.8593   42.3656 H   0  0  0  0  0  0  0  0  0  0  0  0
   47.5914   33.4115   38.9365 H   0  0  0  0  0  0  0  0  0  0  0  0
  1 11  1  0
  2  3  1  0
  2  1  1  0
  4  3  1  0
  5  4  1  0
  6  5  1  0
  6  2  1  0
  7  6  1  0
  7  9  1  0
  8  7  1  0
 10  7  1  0
 11 13  1  0
 12 13  1  0
 12 17  2  0
 13 14  2  0
 14 15  1  0
 16 15  2  0
 17 16  1  0
 18 12  1  0
 19 18  1  0
 20 19  2  0
 21 20  1  0
 21 22  2  0
 22 18  1  0
  1 23  1  0
  1 24  1  0
  2 25  1  6
  3 26  1  0
  3 27  1  0
  4 28  1  0
  4 29  1  0
  5 30  1  0
  5 31  1  0
  6 32  1  6
  8 33  1  0
  8 34  1  0
  8 35  1  0
  9 36  1  0
  9 37  1  0
  9 38  1  0
 10 39  1  0
 10 40  1  0
 10 41  1  0
 11 42  1  0
 11 43  1  0
 14 44  1  0
 16 45  1  0
 19 46  1  0
 21 47  1  0
M  ISO  8  23   8  24   8  25  13  26  13  27  13  28  13  29  13  30  13
M  ISO  8  31  13  32  13  33   8  34   8  35   8  36   8  37   8  38   8
M  ISO  8  39   8  40   8  41   8  42   8  43   8  44  14  45  14  46  14
M  ISO  1  47  14
M  END
>  <minimizedAffinity>  (1) 
-5.77938414

>  <minimizedRMSD>  (1) 
0.821408391

$$$$
