
     RDKit          3D

 51 54  0  0  1  0  0  0  0  0999 V2000
   43.0590   34.7770   41.6810 C   0  0  0  0  0  0  0  0  0  0  0  0
   42.1950   35.3480   40.6010 C   0  0  2  0  0  0  0  0  0  0  0  0
   41.0960   36.2180   41.1520 C   0  0  0  0  0  0  0  0  0  0  0  0
   39.8480   35.7020   40.4890 C   0  0  0  0  0  0  0  0  0  0  0  0
   40.4150   35.2770   39.1270 C   0  0  0  0  0  0  0  0  0  0  0  0
   41.5670   34.4100   39.6910 C   0  0  1  0  0  0  0  0  0  0  0  0
   42.2110   33.5740   38.6990 C   0  0  0  0  0  0  0  0  0  0  0  0
   41.2430   32.6420   37.9610 C   0  0  0  0  0  0  0  0  0  0  0  0
   40.8400   31.4900   38.8410 C   0  0  0  0  0  0  0  0  0  0  0  0
   41.9770   30.4610   38.8290 C   0  0  0  0  0  0  0  0  0  0  0  0
   43.2610   31.2670   38.7390 C   0  0  0  0  0  0  0  0  0  0  0  0
   43.1140   32.5790   39.4790 C   0  0  0  0  0  0  0  0  0  0  0  0
   44.2650   35.6520   42.0260 C   0  0  0  0  0  0  0  0  0  0  0  0
   46.0290   34.3400   43.1170 C   0  0  0  0  0  0  0  0  0  0  0  0
   44.8740   35.1110   43.2290 C   0  0  0  0  0  0  0  0  0  0  0  0
   44.3780   35.3070   44.5110 C   0  0  0  0  0  0  0  0  0  0  0  0
   45.0250   34.7530   45.5670 N   0  0  0  0  0  0  0  0  0  0  0  0
   46.1230   34.0230   45.4270 C   0  0  0  0  0  0  0  0  0  0  0  0
   46.6210   33.8190   44.2110 N   0  0  0  0  0  0  0  0  0  0  0  0
   46.5630   34.1220   41.8210 N   0  0  0  0  0  0  0  0  0  0  0  0
   47.5870   34.9190   41.4640 C   0  0  0  0  0  0  0  0  0  0  0  0
   48.0100   34.6140   40.2220 N   0  0  0  0  0  0  0  0  0  0  0  0
   47.2060   33.5940   39.8220 C   0  0  0  0  0  0  0  0  0  0  0  0
   46.3530   33.3320   40.8120 N   0  0  0  0  0  0  0  0  0  0  0  0
   43.4256   33.7941   41.3501 H   0  0  0  0  0  0  0  0  0  0  0  0
   42.4398   34.7086   42.5876 H   0  0  0  0  0  0  0  0  0  0  0  0
   42.9348   35.9178   40.0196 H   0  0  0  0  0  0  0  0  0  0  0  0
   41.0280   36.1149   42.2450 H   0  0  0  0  0  0  0  0  0  0  0  0
   41.2663   37.2867   40.9548 H   0  0  0  0  0  0  0  0  0  0  0  0
   39.4200   34.8487   41.0356 H   0  0  0  0  0  0  0  0  0  0  0  0
   39.0216   36.4261   40.4375 H   0  0  0  0  0  0  0  0  0  0  0  0
   40.7768   36.1293   38.5332 H   0  0  0  0  0  0  0  0  0  0  0  0
   39.7208   34.7919   38.4250 H   0  0  0  0  0  0  0  0  0  0  0  0
   41.3759   33.5098   40.2937 H   0  0  0  0  0  0  0  0  0  0  0  0
   42.7093   34.2499   37.9885 H   0  0  0  0  0  0  0  0  0  0  0  0
   40.3449   33.2083   37.6735 H   0  0  0  0  0  0  0  0  0  0  0  0
   41.7461   32.2453   37.0669 H   0  0  0  0  0  0  0  0  0  0  0  0
   40.6706   31.8466   39.8677 H   0  0  0  0  0  0  0  0  0  0  0  0
   39.9098   31.0345   38.4705 H   0  0  0  0  0  0  0  0  0  0  0  0
   41.9632   29.8637   39.7526 H   0  0  0  0  0  0  0  0  0  0  0  0
   41.8794   29.7584   37.9883 H   0  0  0  0  0  0  0  0  0  0  0  0
   44.0836   30.6892   39.1857 H   0  0  0  0  0  0  0  0  0  0  0  0
   43.4770   31.4766   37.6810 H   0  0  0  0  0  0  0  0  0  0  0  0
   44.1093   33.0281   39.6117 H   0  0  0  0  0  0  0  0  0  0  0  0
   42.6435   32.3757   40.4523 H   0  0  0  0  0  0  0  0  0  0  0  0
   44.9897   35.6340   41.1987 H   0  0  0  0  0  0  0  0  0  0  0  0
   43.9512   36.6937   42.1883 H   0  0  0  0  0  0  0  0  0  0  0  0
   43.4689   35.9059   44.6690 H   0  0  0  0  0  0  0  0  0  0  0  0
   46.6176   33.5900   46.3090 H   0  0  0  0  0  0  0  0  0  0  0  0
   48.0179   35.7084   42.0973 H   0  0  0  0  0  0  0  0  0  0  0  0
   47.2512   33.0762   38.8526 H   0  0  0  0  0  0  0  0  0  0  0  0
  1 13  1  0
  2  3  1  0
  2  1  1  0
  4  3  1  0
  5  6  1  0
  5  4  1  0
  6  2  1  0
  7 12  1  0
  7  6  1  0
  8  7  1  0
  8  9  1  0
 10  9  1  0
 11 10  1  0
 11 12  1  0
 13 15  1  0
 14 15  1  0
 14 19  2  0
 15 16  2  0
 16 17  1  0
 18 17  2  0
 19 18  1  0
 20 14  1  0
 21 20  1  0
 22 21  2  0
 23 22  1  0
 23 24  2  0
 24 20  1  0
  1 25  1  0
  1 26  1  0
  2 27  1  6
  3 28  1  0
  3 29  1  0
  4 30  1  0
  4 31  1  0
  5 32  1  0
  5 33  1  0
  6 34  1  1
  7 35  1  0
  8 36  1  0
  8 37  1  0
  9 38  1  0
  9 39  1  0
 10 40  1  0
 10 41  1  0
 11 42  1  0
 11 43  1  0
 12 44  1  0
 12 45  1  0
 13 46  1  0
 13 47  1  0
 16 48  1  0
 18 49  1  0
 21 50  1  0
 23 51  1  0
M  ISO  8  25   8  26   8  27  13  28  13  29  13  30  13  31  13  32  13
M  ISO  8  33  13  34  13  35  13  36  13  37  13  38  13  39  13  40  13
M  ISO  8  41  13  42  13  43  13  44  13  45  13  46   8  47   8  48  14
M  ISO  3  49  14  50  14  51  14
M  END
>  <minimizedAffinity>  (1) 
-5.65301371

>  <minimizedRMSD>  (1) 
1.4617275

$$$$
