
     RDKit          3D

 38 40  0  0  1  0  0  0  0  0999 V2000
   44.2300   35.6930   42.0930 C   0  0  0  0  0  0  0  0  0  0  0  0
   45.9630   34.3260   43.1500 C   0  0  0  0  0  0  0  0  0  0  0  0
   44.8380   35.1270   43.2800 C   0  0  0  0  0  0  0  0  0  0  0  0
   44.3660   35.3320   44.5670 C   0  0  0  0  0  0  0  0  0  0  0  0
   45.0030   34.7590   45.6220 N   0  0  0  0  0  0  0  0  0  0  0  0
   46.0900   33.9900   45.4620 C   0  0  0  0  0  0  0  0  0  0  0  0
   46.5570   33.7820   44.2320 N   0  0  0  0  0  0  0  0  0  0  0  0
   46.4730   34.0960   41.8400 N   0  0  0  0  0  0  0  0  0  0  0  0
   47.5140   34.8880   41.4900 C   0  0  0  0  0  0  0  0  0  0  0  0
   47.9140   34.5840   40.2380 N   0  0  0  0  0  0  0  0  0  0  0  0
   47.0710   33.5750   39.8440 C   0  0  0  0  0  0  0  0  0  0  0  0
   46.2000   33.2900   40.8320 N   0  0  0  0  0  0  0  0  0  0  0  0
   42.9670   34.9270   41.7760 C   0  0  0  0  0  0  0  0  0  0  0  0
   42.1640   35.5330   40.6580 C   0  0  2  0  0  0  0  0  0  0  0  0
   40.9260   36.2030   41.1240 C   0  0  0  0  0  0  0  0  0  0  0  0
   39.7860   35.5220   40.3860 C   0  0  0  0  0  0  0  0  0  0  0  0
   40.4550   35.1500   39.0880 C   0  0  0  0  0  0  0  0  0  0  0  0
   41.7710   34.5800   39.5940 C   0  0  1  0  0  0  0  0  0  0  0  0
   42.7900   34.6720   38.4500 C   0  0  0  0  0  0  0  0  0  0  0  0
   43.9852   36.7503   42.2721 H   0  0  0  0  0  0  0  0  0  0  0  0
   44.9297   35.6234   41.2471 H   0  0  0  0  0  0  0  0  0  0  0  0
   43.4769   35.9577   44.7343 H   0  0  0  0  0  0  0  0  0  0  0  0
   46.5880   33.5382   46.3326 H   0  0  0  0  0  0  0  0  0  0  0  0
   47.9648   35.6614   42.1292 H   0  0  0  0  0  0  0  0  0  0  0  0
   47.1018   33.0729   38.8658 H   0  0  0  0  0  0  0  0  0  0  0  0
   43.2439   33.9016   41.4900 H   0  0  0  0  0  0  0  0  0  0  0  0
   42.3376   34.9523   42.6778 H   0  0  0  0  0  0  0  0  0  0  0  0
   42.8652   36.2690   40.2377 H   0  0  0  0  0  0  0  0  0  0  0  0
   40.8082   36.0780   42.2105 H   0  0  0  0  0  0  0  0  0  0  0  0
   40.9501   37.2844   40.9238 H   0  0  0  0  0  0  0  0  0  0  0  0
   39.4317   34.6316   40.9260 H   0  0  0  0  0  0  0  0  0  0  0  0
   38.8889   36.1474   40.2674 H   0  0  0  0  0  0  0  0  0  0  0  0
   40.6152   36.0309   38.4489 H   0  0  0  0  0  0  0  0  0  0  0  0
   39.8734   34.4599   38.4591 H   0  0  0  0  0  0  0  0  0  0  0  0
   41.7093   33.5383   39.9418 H   0  0  0  0  0  0  0  0  0  0  0  0
   43.8033   34.7635   38.8681 H   0  0  0  0  0  0  0  0  0  0  0  0
   42.7293   33.7647   37.8310 H   0  0  0  0  0  0  0  0  0  0  0  0
   42.5677   35.5537   37.8310 H   0  0  0  0  0  0  0  0  0  0  0  0
  1  3  1  0
  2  3  1  0
  2  7  2  0
  3  4  2  0
  4  5  1  0
  6  5  2  0
  7  6  1  0
  8  2  1  0
  9  8  1  0
 10  9  2  0
 11 10  1  0
 11 12  2  0
 12  8  1  0
 13  1  1  0
 14 15  1  0
 14 13  1  0
 16 15  1  0
 17 18  1  0
 17 16  1  0
 18 14  1  0
 19 18  1  0
  1 20  1  0
  1 21  1  0
  4 22  1  0
  6 23  1  0
  9 24  1  0
 11 25  1  0
 13 26  1  0
 13 27  1  0
 14 28  1  6
 15 29  1  0
 15 30  1  0
 16 31  1  0
 16 32  1  0
 17 33  1  0
 17 34  1  0
 18 35  1  1
 19 36  1  0
 19 37  1  0
 19 38  1  0
M  ISO  8  20   8  21   8  22  14  23  14  24  14  25  14  26   8  27   8
M  ISO  8  28  13  29  13  30  13  31  13  32  13  33  13  34  13  35  13
M  ISO  3  36   8  37   8  38   8
M  END
>  <minimizedAffinity>  (1) 
-5.38080359

>  <minimizedRMSD>  (1) 
0.742968321

$$$$
