
     RDKit          3D

 50 53  0  0  1  0  0  0  0  0999 V2000
   42.7710   33.5460   40.3500 C   0  0  0  0  0  0  0  0  0  0  0  0
   41.5270   34.0670   39.6920 C   0  0  2  0  0  0  0  0  0  0  0  0
   41.5690   35.5670   39.5100 C   0  0  0  0  0  0  0  0  0  0  0  0
   40.3160   36.0790   40.2420 C   0  0  0  0  0  0  0  0  0  0  0  0
   39.3850   34.9290   39.9620 C   0  0  0  0  0  0  0  0  0  0  0  0
   40.2890   33.7630   40.4050 C   0  0  1  0  0  0  0  0  0  0  0  0
   39.6120   32.5480   40.2650 N   0  0  0  0  0  0  0  0  0  0  0  0
   39.1210   31.8460   41.3660 C   0  0  0  0  0  0  0  0  0  0  0  0
   37.8460   31.0660   41.0700 C   0  0  0  0  0  0  0  0  0  0  0  0
   38.0250   30.1730   39.8830 C   0  0  0  0  0  0  0  0  0  0  0  0
   38.4210   31.0410   38.7100 C   0  0  0  0  0  0  0  0  0  0  0  0
   39.6480   31.8550   39.0260 C   0  0  0  0  0  0  0  0  0  0  0  0
   43.9400   34.5200   40.2760 C   0  0  0  0  0  0  0  0  0  0  0  0
   45.6400   34.2970   42.0320 C   0  0  0  0  0  0  0  0  0  0  0  0
   44.3950   34.7680   41.6400 C   0  0  0  0  0  0  0  0  0  0  0  0
   43.6660   35.4530   42.5980 C   0  0  0  0  0  0  0  0  0  0  0  0
   44.1920   35.6260   43.8380 N   0  0  0  0  0  0  0  0  0  0  0  0
   45.3840   35.1640   44.1790 C   0  0  0  0  0  0  0  0  0  0  0  0
   46.1120   34.5000   43.2830 N   0  0  0  0  0  0  0  0  0  0  0  0
   46.4210   33.5830   41.0650 N   0  0  0  0  0  0  0  0  0  0  0  0
   47.3630   34.3430   40.4340 C   0  0  0  0  0  0  0  0  0  0  0  0
   48.0270   33.5480   39.5550 N   0  0  0  0  0  0  0  0  0  0  0  0
   47.4520   32.3080   39.6860 C   0  0  0  0  0  0  0  0  0  0  0  0
   46.4810   32.3560   40.6070 N   0  0  0  0  0  0  0  0  0  0  0  0
   42.5492   33.3454   41.4086 H   0  0  0  0  0  0  0  0  0  0  0  0
   43.0694   32.6345   39.8113 H   0  0  0  0  0  0  0  0  0  0  0  0
   41.5160   33.5428   38.7250 H   0  0  0  0  0  0  0  0  0  0  0  0
   42.4808   35.9878   39.9590 H   0  0  0  0  0  0  0  0  0  0  0  0
   41.5829   35.8595   38.4497 H   0  0  0  0  0  0  0  0  0  0  0  0
   40.4942   36.2111   41.3194 H   0  0  0  0  0  0  0  0  0  0  0  0
   39.9538   37.0667   39.9205 H   0  0  0  0  0  0  0  0  0  0  0  0
   38.4659   34.9882   40.5635 H   0  0  0  0  0  0  0  0  0  0  0  0
   39.0110   34.8677   38.9294 H   0  0  0  0  0  0  0  0  0  0  0  0
   40.5595   33.6470   41.4649 H   0  0  0  0  0  0  0  0  0  0  0  0
   39.8932   31.1373   41.6997 H   0  0  0  0  0  0  0  0  0  0  0  0
   38.8741   32.5884   42.1392 H   0  0  0  0  0  0  0  0  0  0  0  0
   37.5886   30.4523   41.9459 H   0  0  0  0  0  0  0  0  0  0  0  0
   37.0408   31.7825   40.8503 H   0  0  0  0  0  0  0  0  0  0  0  0
   38.8144   29.4342   40.0857 H   0  0  0  0  0  0  0  0  0  0  0  0
   37.0928   29.6317   39.6642 H   0  0  0  0  0  0  0  0  0  0  0  0
   37.5906   31.7215   38.4705 H   0  0  0  0  0  0  0  0  0  0  0  0
   38.6464   30.3885   37.8536 H   0  0  0  0  0  0  0  0  0  0  0  0
   40.5126   31.1751   39.0415 H   0  0  0  0  0  0  0  0  0  0  0  0
   39.7104   32.6280   38.2459 H   0  0  0  0  0  0  0  0  0  0  0  0
   44.7559   34.0822   39.6822 H   0  0  0  0  0  0  0  0  0  0  0  0
   43.6299   35.4597   39.7955 H   0  0  0  0  0  0  0  0  0  0  0  0
   42.6702   35.8532   42.3567 H   0  0  0  0  0  0  0  0  0  0  0  0
   45.7711   35.3272   45.1956 H   0  0  0  0  0  0  0  0  0  0  0  0
   47.5516   35.4128   40.6071 H   0  0  0  0  0  0  0  0  0  0  0  0
   47.7446   31.4112   39.1202 H   0  0  0  0  0  0  0  0  0  0  0  0
  2  1  1  0
  2  6  1  0
  3  2  1  0
  3  4  1  0
  5  4  1  0
  5  6  1  0
  7  6  1  0
  7  8  1  0
  9  8  1  0
 10  9  1  0
 11 12  1  0
 11 10  1  0
 12  7  1  0
 13  1  1  0
 13 15  1  0
 14 19  2  0
 15 14  1  0
 15 16  2  0
 16 17  1  0
 17 18  2  0
 19 18  1  0
 20 14  1  0
 21 20  1  0
 22 23  1  0
 22 21  2  0
 23 24  2  0
 24 20  1  0
  1 25  1  0
  1 26  1  0
  2 27  1  6
  3 28  1  0
  3 29  1  0
  4 30  1  0
  4 31  1  0
  5 32  1  0
  5 33  1  0
  6 34  1  1
  8 35  1  0
  8 36  1  0
  9 37  1  0
  9 38  1  0
 10 39  1  0
 10 40  1  0
 11 41  1  0
 11 42  1  0
 12 43  1  0
 12 44  1  0
 13 45  1  0
 13 46  1  0
 16 47  1  0
 18 48  1  0
 21 49  1  0
 23 50  1  0
M  ISO  8  25   8  26   8  27  13  28  13  29  13  30  13  31  13  32  13
M  ISO  8  33  13  34  13  35  13  36  13  37  13  38  13  39  13  40  13
M  ISO  8  41  13  42  13  43  13  44  13  45   8  46   8  47  14  48  14
M  ISO  2  49  14  50  14
M  END
>  <minimizedAffinity>  (1) 
-5.69102287

>  <minimizedRMSD>  (1) 
4.14837885

$$$$
