
     RDKit          3D

 36 38  0  0  1  0  0  0  0  0999 V2000
   44.6120   35.7400   42.4340 C   0  0  0  0  0  0  0  0  0  0  0  0
   46.3780   34.3070   43.3520 C   0  0  0  0  0  0  0  0  0  0  0  0
   45.1980   35.0100   43.5420 C   0  0  0  0  0  0  0  0  0  0  0  0
   44.6410   34.9660   44.8150 C   0  0  0  0  0  0  0  0  0  0  0  0
   45.2710   34.2510   45.7850 N   0  0  0  0  0  0  0  0  0  0  0  0
   46.4080   33.5850   45.5670 C   0  0  0  0  0  0  0  0  0  0  0  0
   46.9480   33.6210   44.3550 N   0  0  0  0  0  0  0  0  0  0  0  0
   46.9680   34.3370   42.0540 N   0  0  0  0  0  0  0  0  0  0  0  0
   47.9730   35.2490   41.9160 C   0  0  0  0  0  0  0  0  0  0  0  0
   48.4630   35.1950   40.6520 N   0  0  0  0  0  0  0  0  0  0  0  0
   47.7210   34.2230   40.0350 C   0  0  0  0  0  0  0  0  0  0  0  0
   46.8190   33.7170   40.9090 N   0  0  0  0  0  0  0  0  0  0  0  0
   43.4750   34.9050   41.8480 C   0  0  0  0  0  0  0  0  0  0  0  0
   42.5870   35.6890   40.9220 C   0  0  2  0  0  0  0  0  0  0  0  0
   41.2000   35.8430   41.4420 C   0  0  0  0  0  0  0  0  0  0  0  0
   40.2950   35.3030   40.3560 C   0  0  0  0  0  0  0  0  0  0  0  0
   41.1000   35.5880   39.1070 C   0  0  0  0  0  0  0  0  0  0  0  0
   42.4860   35.1080   39.5570 C   0  0  2  0  0  0  0  0  0  0  0  0
   42.5130   33.7300   39.5240 O   0  0  0  0  0  0  0  0  0  0  0  0
   44.2186   36.7031   42.7913 H   0  0  0  0  0  0  0  0  0  0  0  0
   45.3742   35.9304   41.6641 H   0  0  0  0  0  0  0  0  0  0  0  0
   43.7053   35.5012   45.0341 H   0  0  0  0  0  0  0  0  0  0  0  0
   46.8883   33.0169   46.3773 H   0  0  0  0  0  0  0  0  0  0  0  0
   48.3309   35.9240   42.7074 H   0  0  0  0  0  0  0  0  0  0  0  0
   47.8397   33.9025   38.9894 H   0  0  0  0  0  0  0  0  0  0  0  0
   43.9102   34.0642   41.2879 H   0  0  0  0  0  0  0  0  0  0  0  0
   42.8529   34.5611   42.6875 H   0  0  0  0  0  0  0  0  0  0  0  0
   43.0824   36.6695   40.8650 H   0  0  0  0  0  0  0  0  0  0  0  0
   41.0719   35.2667   42.3702 H   0  0  0  0  0  0  0  0  0  0  0  0
   40.9689   36.8919   41.6797 H   0  0  0  0  0  0  0  0  0  0  0  0
   40.1196   34.2243   40.4813 H   0  0  0  0  0  0  0  0  0  0  0  0
   39.2914   35.7532   40.3498 H   0  0  0  0  0  0  0  0  0  0  0  0
   41.1012   36.6598   38.8596 H   0  0  0  0  0  0  0  0  0  0  0  0
   40.7199   35.1051   38.1947 H   0  0  0  0  0  0  0  0  0  0  0  0
   43.3363   35.4164   38.9309 H   0  0  0  0  0  0  0  0  0  0  0  0
   42.5199   33.3778   40.4492 H   0  0  0  0  0  0  0  0  0  0  0  0
  1  3  1  0
  2  3  1  0
  2  7  2  0
  3  4  2  0
  4  5  1  0
  6  5  2  0
  7  6  1  0
  8  2  1  0
  9  8  1  0
 10  9  2  0
 11 10  1  0
 11 12  2  0
 12  8  1  0
 13  1  1  0
 14 15  1  0
 14 13  1  0
 16 15  1  0
 17 18  1  0
 17 16  1  0
 18 14  1  0
 19 18  1  0
  1 20  1  0
  1 21  1  0
  4 22  1  0
  6 23  1  0
  9 24  1  0
 11 25  1  0
 13 26  1  0
 13 27  1  0
 14 28  1  6
 15 29  1  0
 15 30  1  0
 16 31  1  0
 16 32  1  0
 17 33  1  0
 17 34  1  0
 18 35  1  6
 19 36  1  0
M  ISO  8  20   8  21   8  22  14  23  14  24  14  25  14  26   8  27   8
M  ISO  8  28  13  29  13  30  13  31  13  32  13  33  13  34  13  35  13
M  ISO  1  36   3
M  END
>  <minimizedAffinity>  (1) 
-5.51648474

>  <minimizedRMSD>  (1) 
0.0446430221

$$$$
