
     RDKit          3D

 31 34  0  0  1  0  0  0  0  0999 V2000
   45.7420   34.0330   41.3680 N   0  0  0  0  0  0  0  0  0  0  0  0
   44.9590   33.5800   40.3540 C   0  0  0  0  0  0  0  0  0  0  0  0
   45.7140   33.3360   39.2780 N   0  0  0  0  0  0  0  0  0  0  0  0
   46.9970   33.6370   39.6100 C   0  0  0  0  0  0  0  0  0  0  0  0
   46.9590   34.0520   40.8790 N   0  0  0  0  0  0  0  0  0  0  0  0
   44.9980   35.7700   42.8640 C   0  0  0  0  0  0  0  0  0  0  0  0
   45.4350   34.4280   42.6960 C   0  0  0  0  0  0  0  0  0  0  0  0
   45.5250   33.6320   43.8140 C   0  0  0  0  0  0  0  0  0  0  0  0
   45.1920   34.1710   45.0110 N   0  0  0  0  0  0  0  0  0  0  0  0
   44.7830   35.4400   45.1440 C   0  0  0  0  0  0  0  0  0  0  0  0
   44.6880   36.2310   44.0740 N   0  0  0  0  0  0  0  0  0  0  0  0
   48.2410   33.5590   38.7990 C   0  0  2  0  0  0  0  0  0  0  0  0
   48.3840   34.5970   37.6660 C   0  0  0  0  0  0  0  0  0  0  0  0
   48.1440   33.1140   37.3640 C   0  0  1  0  0  0  0  0  0  0  0  0
   49.3000   32.2740   36.9550 C   0  0  0  0  0  0  0  0  0  0  0  0
   49.3640   31.6410   35.7300 C   0  0  0  0  0  0  0  0  0  0  0  0
   50.4320   30.8510   35.3250 C   0  0  0  0  0  0  0  0  0  0  0  0
   51.4470   30.7300   36.2280 N   0  0  0  0  0  0  0  0  0  0  0  0
   51.3660   31.3550   37.4140 C   0  0  0  0  0  0  0  0  0  0  0  0
   50.3410   32.1160   37.8130 N   0  0  0  0  0  0  0  0  0  0  0  0
   43.8699   33.4360   40.4100 H   0  0  0  0  0  0  0  0  0  0  0  0
   44.9154   36.4317   41.9891 H   0  0  0  0  0  0  0  0  0  0  0  0
   45.8582   32.5864   43.7380 H   0  0  0  0  0  0  0  0  0  0  0  0
   44.5246   35.8310   46.1392 H   0  0  0  0  0  0  0  0  0  0  0  0
   48.8485   33.2362   39.6573 H   0  0  0  0  0  0  0  0  0  0  0  0
   47.5878   35.3346   37.4869 H   0  0  0  0  0  0  0  0  0  0  0  0
   49.1357   35.3462   37.3769 H   0  0  0  0  0  0  0  0  0  0  0  0
   47.4117   32.6021   36.7224 H   0  0  0  0  0  0  0  0  0  0  0  0
   48.5211   31.7696   35.0350 H   0  0  0  0  0  0  0  0  0  0  0  0
   50.4576   30.3565   34.3428 H   0  0  0  0  0  0  0  0  0  0  0  0
   52.2078   31.2315   38.1112 H   0  0  0  0  0  0  0  0  0  0  0  0
  1  7  1  0
  2  1  1  0
  3  4  1  0
  3  2  2  0
  4  5  2  0
  5  1  1  0
  6 11  2  0
  7  6  1  0
  7  8  2  0
  8  9  1  0
  9 10  2  0
 11 10  1  0
 12  4  1  0
 13 12  1  0
 14 13  1  0
 14 12  1  0
 15 14  1  0
 15 20  1  0
 16 15  2  0
 17 16  1  0
 17 18  2  0
 18 19  1  0
 19 20  2  0
  2 21  1  0
  6 22  1  0
  8 23  1  0
 10 24  1  0
 12 25  1  1
 13 26  1  0
 13 27  1  0
 14 28  1  1
 16 29  1  0
 17 30  1  0
 19 31  1  0
M  ISO  8  21  14  22  14  23  14  24  14  25  13  26  13  27  13  28  13
M  ISO  3  29  14  30  14  31  14
M  END
>  <minimizedAffinity>  (1) 
-4.65923691

>  <minimizedRMSD>  (1) 
0.380131096

$$$$
