
     RDKit          3D

 37 40  0  0  0  0  0  0  0  0999 V2000
   44.6380   35.9100   45.0690 C   0  0  0  0  0  0  0  0  0  0  0  0
   44.0850   35.9280   43.7520 C   0  0  0  0  0  0  0  0  0  0  0  0
   44.2280   34.7870   42.9770 C   0  0  0  0  0  0  0  0  0  0  0  0
   44.8800   33.7380   43.5240 N   0  0  0  0  0  0  0  0  0  0  0  0
   45.3990   33.7260   44.7620 C   0  0  0  0  0  0  0  0  0  0  0  0
   45.2750   34.8240   45.5390 N   0  0  0  0  0  0  0  0  0  0  0  0
   46.0940   32.5630   45.3020 C   0  0  0  0  0  0  0  0  0  0  0  0
   46.9260   31.6880   44.6010 C   0  0  0  0  0  0  0  0  0  0  0  0
   47.3440   30.7720   45.4900 N   0  0  0  0  0  0  0  0  0  0  0  0
   46.8170   31.0310   46.7080 C   0  0  0  0  0  0  0  0  0  0  0  0
   46.9670   30.3560   47.9260 C   0  0  0  0  0  0  0  0  0  0  0  0
   46.3260   30.8010   49.0610 C   0  0  0  0  0  0  0  0  0  0  0  0
   45.5420   31.9120   48.9770 C   0  0  0  0  0  0  0  0  0  0  0  0
   45.3680   32.6100   47.7830 C   0  0  0  0  0  0  0  0  0  0  0  0
   46.0140   32.1600   46.6420 C   0  0  0  0  0  0  0  0  0  0  0  0
   43.6900   34.7670   41.6600 N   0  0  0  0  0  0  0  0  0  0  0  0
   42.3630   35.0630   41.5370 C   0  0  0  0  0  0  0  0  0  0  0  0
   41.7360   35.0720   40.3030 C   0  0  0  0  0  0  0  0  0  0  0  0
   40.2920   35.3940   40.1700 C   0  0  0  0  0  0  0  0  0  0  0  0
   42.5070   34.7710   39.1990 C   0  0  0  0  0  0  0  0  0  0  0  0
   41.9970   34.7630   38.0490 O   0  0  0  0  0  0  0  0  0  0  0  0
   43.8170   34.4790   39.3270 N   0  0  0  0  0  0  0  0  0  0  0  0
   44.3940   34.4790   40.5470 C   0  0  0  0  0  0  0  0  0  0  0  0
   45.6030   34.2250   40.7990 O   0  0  0  0  0  0  0  0  0  0  0  0
   44.5409   36.7995   45.7088 H   0  0  0  0  0  0  0  0  0  0  0  0
   43.5637   36.8164   43.3659 H   0  0  0  0  0  0  0  0  0  0  0  0
   47.1871   31.7387   43.5336 H   0  0  0  0  0  0  0  0  0  0  0  0
   47.9745   29.9863   45.2751 H   0  0  0  0  0  0  0  0  0  0  0  0
   47.6038   29.4605   47.9767 H   0  0  0  0  0  0  0  0  0  0  0  0
   46.4448   30.2696   50.0168 H   0  0  0  0  0  0  0  0  0  0  0  0
   45.0291   32.2703   49.8817 H   0  0  0  0  0  0  0  0  0  0  0  0
   44.7281   33.5040   47.7467 H   0  0  0  0  0  0  0  0  0  0  0  0
   41.7790   35.2996   42.4386 H   0  0  0  0  0  0  0  0  0  0  0  0
   39.8449   35.4937   41.1701 H   0  0  0  0  0  0  0  0  0  0  0  0
   40.1764   36.3400   39.6207 H   0  0  0  0  0  0  0  0  0  0  0  0
   39.7854   34.5868   39.6207 H   0  0  0  0  0  0  0  0  0  0  0  0
   44.3781   34.2556   38.4926 H   0  0  0  0  0  0  0  0  0  0  0  0
  1  6  2  0
  2  1  1  0
  3  4  1  0
  3  2  2  0
  4  5  2  0
  5  7  1  0
  5  6  1  0
  7 15  1  0
  8  7  2  0
  8  9  1  0
  9 10  1  0
 10 11  2  0
 11 12  1  0
 13 12  2  0
 14 13  1  0
 15 10  1  0
 15 14  2  0
 16  3  1  0
 17 16  1  0
 18 17  2  0
 19 18  1  0
 20 22  1  0
 20 18  1  0
 21 20  2  0
 22 23  1  0
 23 24  2  0
 23 16  1  0
  1 25  1  0
  2 26  1  0
  8 27  1  0
  9 28  1  0
 11 29  1  0
 12 30  1  0
 13 31  1  0
 14 32  1  0
 17 33  1  0
 19 34  1  0
 19 35  1  0
 19 36  1  0
 22 37  1  0
M  ISO  8  25  14  26  14  27  14  28   9  29  14  30  14  31  14  32  14
M  ISO  5  33  14  34   8  35   8  36   8  37   9
M  END
>  <minimizedAffinity>  (1) 
-6.66638565

>  <minimizedRMSD>  (1) 
0.714740753

$$$$
