
     RDKit          3D

 37 41  0  0  0  0  0  0  0  0999 V2000
   44.6530   35.8190   44.9370 C   0  0  0  0  0  0  0  0  0  0  0  0
   44.1600   35.7720   43.5950 C   0  0  0  0  0  0  0  0  0  0  0  0
   44.3700   34.6050   42.8760 C   0  0  0  0  0  0  0  0  0  0  0  0
   45.0250   33.5860   43.4810 N   0  0  0  0  0  0  0  0  0  0  0  0
   45.4860   33.6360   44.7430 C   0  0  0  0  0  0  0  0  0  0  0  0
   45.2940   34.7700   45.4720 N   0  0  0  0  0  0  0  0  0  0  0  0
   46.1890   32.5250   45.3720 C   0  0  0  0  0  0  0  0  0  0  0  0
   47.1040   31.6720   44.7490 C   0  0  0  0  0  0  0  0  0  0  0  0
   47.5030   30.8000   45.6900 N   0  0  0  0  0  0  0  0  0  0  0  0
   46.8930   31.0590   46.8530 C   0  0  0  0  0  0  0  0  0  0  0  0
   46.9760   30.4410   48.1080 C   0  0  0  0  0  0  0  0  0  0  0  0
   46.2440   30.8850   49.1830 C   0  0  0  0  0  0  0  0  0  0  0  0
   45.4200   31.9530   49.0170 C   0  0  0  0  0  0  0  0  0  0  0  0
   45.3000   32.6050   47.7880 C   0  0  0  0  0  0  0  0  0  0  0  0
   46.0350   32.1610   46.7050 C   0  0  0  0  0  0  0  0  0  0  0  0
   43.9330   34.4240   41.5320 N   0  0  0  0  0  0  0  0  0  0  0  0
   44.5970   33.8140   40.5160 C   0  0  0  0  0  0  0  0  0  0  0  0
   43.8220   33.8570   39.3920 N   0  0  0  0  0  0  0  0  0  0  0  0
   42.6900   34.4980   39.7390 C   0  0  0  0  0  0  0  0  0  0  0  0
   41.5340   34.8560   39.0730 C   0  0  0  0  0  0  0  0  0  0  0  0
   40.5310   35.5110   39.6860 N   0  0  0  0  0  0  0  0  0  0  0  0
   40.6160   35.8530   41.0040 C   0  0  0  0  0  0  0  0  0  0  0  0
   41.7280   35.5140   41.6640 N   0  0  0  0  0  0  0  0  0  0  0  0
   42.7340   34.8620   41.0670 C   0  0  0  0  0  0  0  0  0  0  0  0
   41.3720   34.5340   37.6970 N   0  0  0  0  0  0  0  0  0  0  0  0
   44.5042   36.7281   45.5382 H   0  0  0  0  0  0  0  0  0  0  0  0
   43.6340   36.6295   43.1500 H   0  0  0  0  0  0  0  0  0  0  0  0
   47.4316   31.7074   43.6995 H   0  0  0  0  0  0  0  0  0  0  0  0
   48.1817   30.0403   45.5381 H   0  0  0  0  0  0  0  0  0  0  0  0
   47.6450   29.5773   48.2361 H   0  0  0  0  0  0  0  0  0  0  0  0
   46.3235   30.3853   50.1597 H   0  0  0  0  0  0  0  0  0  0  0  0
   44.8318   32.3135   49.8738 H   0  0  0  0  0  0  0  0  0  0  0  0
   44.6246   33.4668   47.6824 H   0  0  0  0  0  0  0  0  0  0  0  0
   45.5962   33.3594   40.5869 H   0  0  0  0  0  0  0  0  0  0  0  0
   39.7975   36.3893   41.5064 H   0  0  0  0  0  0  0  0  0  0  0  0
   42.1183   34.0330   37.1940 H   0  0  0  0  0  0  0  0  0  0  0  0
   40.5084   34.8018   37.2036 H   0  0  0  0  0  0  0  0  0  0  0  0
  1  6  2  0
  2  1  1  0
  3  4  1  0
  3  2  2  0
  4  5  2  0
  5  7  1  0
  5  6  1  0
  7 15  1  0
  8  7  2  0
  8  9  1  0
  9 10  1  0
 10 11  2  0
 11 12  1  0
 13 12  2  0
 14 13  1  0
 15 10  1  0
 15 14  2  0
 16  3  1  0
 17 16  1  0
 18 19  1  0
 18 17  2  0
 19 24  2  0
 20 21  2  0
 20 19  1  0
 21 22  1  0
 22 23  2  0
 24 16  1  0
 24 23  1  0
 25 20  1  0
  1 26  1  0
  2 27  1  0
  8 28  1  0
  9 29  1  0
 11 30  1  0
 12 31  1  0
 13 32  1  0
 14 33  1  0
 17 34  1  0
 22 35  1  0
 25 36  1  0
 25 37  1  0
M  ISO  8  26  14  27  14  28  14  29   9  30  14  31  14  32  14  33  14
M  ISO  2  34  14  35  14
M  END
>  <minimizedAffinity>  (1) 
-7.10941362

>  <minimizedRMSD>  (1) 
0.679207563

$$$$
