
     RDKit          3D

 40 43  0  0  0  0  0  0  0  0999 V2000
   46.2340   32.5140   45.3960 C   0  0  0  0  0  0  0  0  0  0  0  0
   47.1640   31.6620   44.7920 C   0  0  0  0  0  0  0  0  0  0  0  0
   47.5460   30.7970   45.7450 N   0  0  0  0  0  0  0  0  0  0  0  0
   46.9100   31.0670   46.8910 C   0  0  0  0  0  0  0  0  0  0  0  0
   46.9880   30.4390   48.1370 C   0  0  0  0  0  0  0  0  0  0  0  0
   46.2340   30.8850   49.2040 C   0  0  0  0  0  0  0  0  0  0  0  0
   45.3940   31.9620   49.0320 C   0  0  0  0  0  0  0  0  0  0  0  0
   45.2950   32.6090   47.7940 C   0  0  0  0  0  0  0  0  0  0  0  0
   46.0580   32.1550   46.7250 C   0  0  0  0  0  0  0  0  0  0  0  0
   44.6290   35.7820   44.9260 C   0  0  0  0  0  0  0  0  0  0  0  0
   44.2130   35.7340   43.5760 C   0  0  0  0  0  0  0  0  0  0  0  0
   44.4880   34.5860   42.8530 C   0  0  0  0  0  0  0  0  0  0  0  0
   45.1390   33.5620   43.4550 N   0  0  0  0  0  0  0  0  0  0  0  0
   45.5330   33.6240   44.7580 C   0  0  0  0  0  0  0  0  0  0  0  0
   45.2690   34.7470   45.4820 N   0  0  0  0  0  0  0  0  0  0  0  0
   44.1250   34.3630   41.4250 C   0  0  0  0  0  0  0  0  0  0  0  0
   43.3050   35.5210   40.9690 C   0  0  0  0  0  0  0  0  0  0  0  0
   41.8370   35.3490   41.3000 C   0  0  0  0  0  0  0  0  0  0  0  0
   41.4080   34.1530   40.4500 C   0  0  0  0  0  0  0  0  0  0  0  0
   42.0580   32.9470   41.0600 C   0  0  0  0  0  0  0  0  0  0  0  0
   43.5370   33.0160   41.1850 C   0  0  0  0  0  0  0  0  0  0  0  0
   47.5116   31.6940   43.7489 H   0  0  0  0  0  0  0  0  0  0  0  0
   48.2286   30.0369   45.6134 H   0  0  0  0  0  0  0  0  0  0  0  0
   47.6593   29.5777   48.2694 H   0  0  0  0  0  0  0  0  0  0  0  0
   46.3037   30.3850   50.1813 H   0  0  0  0  0  0  0  0  0  0  0  0
   44.7914   32.3198   49.8799 H   0  0  0  0  0  0  0  0  0  0  0  0
   44.6198   33.4683   47.6690 H   0  0  0  0  0  0  0  0  0  0  0  0
   44.4242   36.6807   45.5264 H   0  0  0  0  0  0  0  0  0  0  0  0
   43.6870   36.5826   43.1142 H   0  0  0  0  0  0  0  0  0  0  0  0
   45.0258   34.3346   40.7943 H   0  0  0  0  0  0  0  0  0  0  0  0
   43.4126   35.6238   39.8791 H   0  0  0  0  0  0  0  0  0  0  0  0
   43.6664   36.4178   41.4936 H   0  0  0  0  0  0  0  0  0  0  0  0
   41.6990   35.1381   42.3707 H   0  0  0  0  0  0  0  0  0  0  0  0
   41.2456   36.2527   41.0912 H   0  0  0  0  0  0  0  0  0  0  0  0
   41.7461   34.2833   39.4114 H   0  0  0  0  0  0  0  0  0  0  0  0
   40.3131   34.0494   40.4301 H   0  0  0  0  0  0  0  0  0  0  0  0
   41.6382   32.8080   42.0672 H   0  0  0  0  0  0  0  0  0  0  0  0
   41.8499   32.1113   40.3757 H   0  0  0  0  0  0  0  0  0  0  0  0
   43.8312   32.3693   42.0247 H   0  0  0  0  0  0  0  0  0  0  0  0
   43.9253   32.7011   40.2052 H   0  0  0  0  0  0  0  0  0  0  0  0
  1  9  1  0
  2  1  2  0
  2  3  1  0
  3  4  1  0
  4  5  2  0
  5  6  1  0
  7  6  2  0
  8  7  1  0
  9  4  1  0
  9  8  2  0
 10 15  2  0
 11 10  1  0
 12 13  1  0
 12 11  2  0
 13 14  2  0
 14  1  1  0
 14 15  1  0
 16 12  1  0
 17 18  1  0
 17 16  1  0
 19 20  1  0
 19 18  1  0
 20 21  1  0
 21 16  1  0
  2 22  1  0
  3 23  1  0
  5 24  1  0
  6 25  1  0
  7 26  1  0
  8 27  1  0
 10 28  1  0
 11 29  1  0
 16 30  1  0
 17 31  1  0
 17 32  1  0
 18 33  1  0
 18 34  1  0
 19 35  1  0
 19 36  1  0
 20 37  1  0
 20 38  1  0
 21 39  1  0
 21 40  1  0
M  ISO  8  22  14  23   9  24  14  25  14  26  14  27  14  28  14  29  14
M  ISO  8  30  13  31  13  32  13  33  13  34  13  35  13  36  13  37  13
M  ISO  3  38  13  39  13  40  13
M  END
>  <minimizedAffinity>  (1) 
-6.07752228

>  <minimizedRMSD>  (1) 
1.25459087

$$$$
