
     RDKit          3D

 35 39  0  0  0  0  0  0  0  0999 V2000
   44.6710   35.7800   44.8320 C   0  0  0  0  0  0  0  0  0  0  0  0
   44.1780   35.7010   43.5140 C   0  0  0  0  0  0  0  0  0  0  0  0
   44.3870   34.5150   42.8280 C   0  0  0  0  0  0  0  0  0  0  0  0
   45.0450   33.5030   43.4410 N   0  0  0  0  0  0  0  0  0  0  0  0
   45.5130   33.5860   44.6990 C   0  0  0  0  0  0  0  0  0  0  0  0
   45.3190   34.7430   45.3970 N   0  0  0  0  0  0  0  0  0  0  0  0
   46.2160   32.5020   45.3560 C   0  0  0  0  0  0  0  0  0  0  0  0
   47.1530   31.6490   44.7750 C   0  0  0  0  0  0  0  0  0  0  0  0
   47.5460   30.8030   45.7350 N   0  0  0  0  0  0  0  0  0  0  0  0
   46.9020   31.0810   46.8940 C   0  0  0  0  0  0  0  0  0  0  0  0
   46.9870   30.4750   48.1500 C   0  0  0  0  0  0  0  0  0  0  0  0
   46.2310   30.9250   49.2050 C   0  0  0  0  0  0  0  0  0  0  0  0
   45.3880   31.9830   49.0100 C   0  0  0  0  0  0  0  0  0  0  0  0
   45.2810   32.6110   47.7680 C   0  0  0  0  0  0  0  0  0  0  0  0
   46.0430   32.1560   46.7050 C   0  0  0  0  0  0  0  0  0  0  0  0
   43.8930   34.4270   41.4970 N   0  0  0  0  0  0  0  0  0  0  0  0
   44.5660   33.8620   40.4750 C   0  0  0  0  0  0  0  0  0  0  0  0
   43.7720   33.9750   39.3960 N   0  0  0  0  0  0  0  0  0  0  0  0
   42.6170   34.6030   39.7480 C   0  0  0  0  0  0  0  0  0  0  0  0
   41.5060   34.9360   38.9630 C   0  0  0  0  0  0  0  0  0  0  0  0
   40.4750   35.5710   39.5760 N   0  0  0  0  0  0  0  0  0  0  0  0
   40.5930   35.8300   40.8790 C   0  0  0  0  0  0  0  0  0  0  0  0
   41.6470   35.5240   41.6650 N   0  0  0  0  0  0  0  0  0  0  0  0
   42.6940   34.8950   41.1010 C   0  0  0  0  0  0  0  0  0  0  0  0
   44.5240   36.7047   45.4094 H   0  0  0  0  0  0  0  0  0  0  0  0
   43.6491   36.5459   43.0489 H   0  0  0  0  0  0  0  0  0  0  0  0
   47.5013   31.6675   43.7318 H   0  0  0  0  0  0  0  0  0  0  0  0
   48.2376   30.0500   45.6106 H   0  0  0  0  0  0  0  0  0  0  0  0
   47.6695   29.6248   48.2963 H   0  0  0  0  0  0  0  0  0  0  0  0
   46.3029   30.4418   50.1906 H   0  0  0  0  0  0  0  0  0  0  0  0
   44.7800   32.3479   49.8510 H   0  0  0  0  0  0  0  0  0  0  0  0
   44.5962   33.4614   47.6346 H   0  0  0  0  0  0  0  0  0  0  0  0
   45.5640   33.4012   40.5156 H   0  0  0  0  0  0  0  0  0  0  0  0
   41.4704   34.6923   37.8909 H   0  0  0  0  0  0  0  0  0  0  0  0
   39.7480   36.3437   41.3608 H   0  0  0  0  0  0  0  0  0  0  0  0
  1  6  2  0
  2  1  1  0
  3  4  1  0
  3  2  2  0
  4  5  2  0
  5  7  1  0
  5  6  1  0
  7 15  1  0
  8  7  2  0
  8  9  1  0
  9 10  1  0
 10 11  2  0
 11 12  1  0
 13 12  2  0
 14 13  1  0
 15 10  1  0
 15 14  2  0
 16  3  1  0
 17 16  1  0
 18 19  1  0
 18 17  2  0
 19 24  2  0
 20 21  2  0
 20 19  1  0
 21 22  1  0
 22 23  2  0
 24 16  1  0
 24 23  1  0
  1 25  1  0
  2 26  1  0
  8 27  1  0
  9 28  1  0
 11 29  1  0
 12 30  1  0
 13 31  1  0
 14 32  1  0
 17 33  1  0
 20 34  1  0
 22 35  1  0
M  ISO  8  25  14  26  14  27  14  28   9  29  14  30  14  31  14  32  14
M  ISO  3  33  14  34  14  35  14
M  END
>  <minimizedAffinity>  (1) 
-6.76037216

>  <minimizedRMSD>  (1) 
0.383311093

$$$$
