
     RDKit          3D

 39 42  0  0  0  0  0  0  0  0999 V2000
   46.2410   32.5260   45.3890 C   0  0  0  0  0  0  0  0  0  0  0  0
   47.1700   31.6830   44.7950 C   0  0  0  0  0  0  0  0  0  0  0  0
   47.5580   30.8210   45.7410 N   0  0  0  0  0  0  0  0  0  0  0  0
   46.9210   31.0760   46.8960 C   0  0  0  0  0  0  0  0  0  0  0  0
   46.9900   30.4530   48.1560 C   0  0  0  0  0  0  0  0  0  0  0  0
   46.2330   30.8900   49.2160 C   0  0  0  0  0  0  0  0  0  0  0  0
   45.4050   31.9500   49.0240 C   0  0  0  0  0  0  0  0  0  0  0  0
   45.2950   32.6060   47.7990 C   0  0  0  0  0  0  0  0  0  0  0  0
   46.0610   32.1610   46.7320 C   0  0  0  0  0  0  0  0  0  0  0  0
   44.6050   35.7800   44.9340 C   0  0  0  0  0  0  0  0  0  0  0  0
   44.1920   35.7380   43.5850 C   0  0  0  0  0  0  0  0  0  0  0  0
   44.4740   34.6000   42.8440 C   0  0  0  0  0  0  0  0  0  0  0  0
   45.1360   33.5980   43.4770 N   0  0  0  0  0  0  0  0  0  0  0  0
   45.5340   33.6300   44.7600 C   0  0  0  0  0  0  0  0  0  0  0  0
   45.2590   34.7400   45.4860 N   0  0  0  0  0  0  0  0  0  0  0  0
   44.0830   34.4960   41.4780 N   0  0  0  0  0  0  0  0  0  0  0  0
   42.7520   34.9160   41.1330 C   0  0  0  0  0  0  0  0  0  0  0  0
   42.6980   35.0840   39.6500 C   0  0  0  0  0  0  0  0  0  0  0  0
   43.1140   33.8390   38.9160 C   0  0  0  0  0  0  0  0  0  0  0  0
   44.4280   33.2820   39.3640 C   0  0  0  0  0  0  0  0  0  0  0  0
   45.0400   33.9780   40.5360 C   0  0  0  0  0  0  0  0  0  0  0  0
   47.5183   31.7172   43.7522 H   0  0  0  0  0  0  0  0  0  0  0  0
   48.2475   30.0683   45.6035 H   0  0  0  0  0  0  0  0  0  0  0  0
   47.6657   29.5963   48.2954 H   0  0  0  0  0  0  0  0  0  0  0  0
   46.2957   30.3940   50.1958 H   0  0  0  0  0  0  0  0  0  0  0  0
   44.7970   32.3048   49.8693 H   0  0  0  0  0  0  0  0  0  0  0  0
   44.6131   33.4610   47.6808 H   0  0  0  0  0  0  0  0  0  0  0  0
   44.3904   36.6718   45.5411 H   0  0  0  0  0  0  0  0  0  0  0  0
   43.6593   36.5873   43.1323 H   0  0  0  0  0  0  0  0  0  0  0  0
   42.0248   34.1541   41.4503 H   0  0  0  0  0  0  0  0  0  0  0  0
   42.5042   35.8619   41.6368 H   0  0  0  0  0  0  0  0  0  0  0  0
   41.6674   35.3369   39.3605 H   0  0  0  0  0  0  0  0  0  0  0  0
   43.4014   35.8846   39.3775 H   0  0  0  0  0  0  0  0  0  0  0  0
   43.1857   34.0764   37.8443 H   0  0  0  0  0  0  0  0  0  0  0  0
   42.3533   33.0735   39.1289 H   0  0  0  0  0  0  0  0  0  0  0  0
   44.2774   32.2264   39.6340 H   0  0  0  0  0  0  0  0  0  0  0  0
   45.1246   33.4217   38.5242 H   0  0  0  0  0  0  0  0  0  0  0  0
   45.6897   33.2628   41.0617 H   0  0  0  0  0  0  0  0  0  0  0  0
   45.5928   34.8419   40.1384 H   0  0  0  0  0  0  0  0  0  0  0  0
  1  9  1  0
  2  1  2  0
  2  3  1  0
  3  4  1  0
  4  5  2  0
  5  6  1  0
  7  6  2  0
  8  7  1  0
  9  4  1  0
  9  8  2  0
 10 15  2  0
 11 10  1  0
 12 13  1  0
 12 11  2  0
 13 14  2  0
 14  1  1  0
 14 15  1  0
 16 12  1  0
 17 16  1  0
 18 17  1  0
 19 20  1  0
 19 18  1  0
 20 21  1  0
 21 16  1  0
  2 22  1  0
  3 23  1  0
  5 24  1  0
  6 25  1  0
  7 26  1  0
  8 27  1  0
 10 28  1  0
 11 29  1  0
 17 30  1  0
 17 31  1  0
 18 32  1  0
 18 33  1  0
 19 34  1  0
 19 35  1  0
 20 36  1  0
 20 37  1  0
 21 38  1  0
 21 39  1  0
M  ISO  8  22  14  23   9  24  14  25  14  26  14  27  14  28  14  29  14
M  ISO  8  30  13  31  13  32  13  33  13  34  13  35  13  36  13  37  13
M  ISO  2  38  13  39  13
M  END
>  <minimizedAffinity>  (1) 
-5.90963888

>  <minimizedRMSD>  (1) 
0.398377895

$$$$
