
     RDKit          3D

 34 37  0  0  0  0  0  0  0  0999 V2000
   44.6320   35.8030   44.9170 C   0  0  0  0  0  0  0  0  0  0  0  0
   44.1670   35.7470   43.5840 C   0  0  0  0  0  0  0  0  0  0  0  0
   44.4040   34.5800   42.8450 C   0  0  0  0  0  0  0  0  0  0  0  0
   45.0680   33.5770   43.4650 N   0  0  0  0  0  0  0  0  0  0  0  0
   45.5100   33.6420   44.7440 C   0  0  0  0  0  0  0  0  0  0  0  0
   45.2820   34.7650   45.4590 N   0  0  0  0  0  0  0  0  0  0  0  0
   46.2210   32.5380   45.3720 C   0  0  0  0  0  0  0  0  0  0  0  0
   47.1540   31.6900   44.7710 C   0  0  0  0  0  0  0  0  0  0  0  0
   47.5440   30.8300   45.7150 N   0  0  0  0  0  0  0  0  0  0  0  0
   46.9110   31.0890   46.8730 C   0  0  0  0  0  0  0  0  0  0  0  0
   47.0010   30.4550   48.1200 C   0  0  0  0  0  0  0  0  0  0  0  0
   46.2370   30.9020   49.1950 C   0  0  0  0  0  0  0  0  0  0  0  0
   45.3970   31.9680   49.0200 C   0  0  0  0  0  0  0  0  0  0  0  0
   45.2960   32.6100   47.7810 C   0  0  0  0  0  0  0  0  0  0  0  0
   46.0550   32.1680   46.7110 C   0  0  0  0  0  0  0  0  0  0  0  0
   43.9770   34.4120   41.4840 C   0  0  0  0  0  0  0  0  0  0  0  0
   42.9410   35.2040   41.0460 C   0  0  0  0  0  0  0  0  0  0  0  0
   42.4920   35.0800   39.7400 C   0  0  0  0  0  0  0  0  0  0  0  0
   43.0350   34.1900   38.8310 C   0  0  0  0  0  0  0  0  0  0  0  0
   44.0840   33.4030   39.3100 C   0  0  0  0  0  0  0  0  0  0  0  0
   44.5270   33.5310   40.6100 C   0  0  0  0  0  0  0  0  0  0  0  0
   44.4583   36.7090   45.5162 H   0  0  0  0  0  0  0  0  0  0  0  0
   43.6323   36.5982   43.1373 H   0  0  0  0  0  0  0  0  0  0  0  0
   47.4991   31.7239   43.7271 H   0  0  0  0  0  0  0  0  0  0  0  0
   48.2316   30.0758   45.5761 H   0  0  0  0  0  0  0  0  0  0  0  0
   47.6794   29.5990   48.2502 H   0  0  0  0  0  0  0  0  0  0  0  0
   46.3079   30.4041   50.1733 H   0  0  0  0  0  0  0  0  0  0  0  0
   44.7920   32.3256   49.8663 H   0  0  0  0  0  0  0  0  0  0  0  0
   44.6146   33.4646   47.6573 H   0  0  0  0  0  0  0  0  0  0  0  0
   42.4724   35.9301   41.7266 H   0  0  0  0  0  0  0  0  0  0  0  0
   41.6619   35.7219   39.4101 H   0  0  0  0  0  0  0  0  0  0  0  0
   42.6646   34.1077   37.7985 H   0  0  0  0  0  0  0  0  0  0  0  0
   44.5632   32.6718   38.6424 H   0  0  0  0  0  0  0  0  0  0  0  0
   45.3572   32.8952   40.9513 H   0  0  0  0  0  0  0  0  0  0  0  0
  1  6  2  0
  2  1  1  0
  3  4  1  0
  3  2  2  0
  4  5  2  0
  5  7  1  0
  5  6  1  0
  7 15  1  0
  8  7  2  0
  8  9  1  0
  9 10  1  0
 10 11  2  0
 11 12  1  0
 13 12  2  0
 14 13  1  0
 15 10  1  0
 15 14  2  0
 16  3  1  0
 17 16  2  0
 18 17  1  0
 19 20  1  0
 19 18  2  0
 20 21  2  0
 21 16  1  0
  1 22  1  0
  2 23  1  0
  8 24  1  0
  9 25  1  0
 11 26  1  0
 12 27  1  0
 13 28  1  0
 14 29  1  0
 17 30  1  0
 18 31  1  0
 19 32  1  0
 20 33  1  0
 21 34  1  0
M  ISO  8  22  14  23  14  24  14  25   9  26  14  27  14  28  14  29  14
M  ISO  5  30  14  31  14  32  14  33  14  34  14
M  END
>  <minimizedAffinity>  (1) 
-5.96084023

>  <minimizedRMSD>  (1) 
0.330266207

$$$$
