
     RDKit          3D

 31 33  0  0  0  0  0  0  0  0999 V2000
   44.5900   35.7240   44.9320 C   0  0  0  0  0  0  0  0  0  0  0  0
   44.2860   35.7120   43.5360 C   0  0  0  0  0  0  0  0  0  0  0  0
   44.6660   34.6070   42.8010 C   0  0  0  0  0  0  0  0  0  0  0  0
   45.2980   33.6140   43.4540 N   0  0  0  0  0  0  0  0  0  0  0  0
   45.5860   33.6190   44.7630 C   0  0  0  0  0  0  0  0  0  0  0  0
   45.2260   34.6870   45.5060 N   0  0  0  0  0  0  0  0  0  0  0  0
   46.2740   32.5130   45.4150 C   0  0  0  0  0  0  0  0  0  0  0  0
   47.2140   31.6550   44.8350 C   0  0  0  0  0  0  0  0  0  0  0  0
   47.5810   30.7950   45.8020 N   0  0  0  0  0  0  0  0  0  0  0  0
   46.9260   31.0670   46.9390 C   0  0  0  0  0  0  0  0  0  0  0  0
   46.9720   30.4530   48.2020 C   0  0  0  0  0  0  0  0  0  0  0  0
   46.2020   30.9010   49.2470 C   0  0  0  0  0  0  0  0  0  0  0  0
   45.3850   31.9640   49.0320 C   0  0  0  0  0  0  0  0  0  0  0  0
   45.2980   32.6130   47.7980 C   0  0  0  0  0  0  0  0  0  0  0  0
   46.0690   32.1600   46.7600 C   0  0  0  0  0  0  0  0  0  0  0  0
   44.4210   34.4670   41.4190 N   0  0  0  0  0  0  0  0  0  0  0  0
   43.1310   34.5270   40.8260 C   0  0  0  0  0  0  0  0  0  0  0  0
   42.2010   33.8740   41.4430 N   0  0  0  0  0  0  0  0  0  0  0  0
   42.9510   35.2850   39.6130 N   0  0  0  0  0  0  0  0  0  0  0  0
   41.2550   33.9070   41.0250 H   0  0  0  0  0  0  0  0  0  0  0  0
   44.3007   36.5909   45.5442 H   0  0  0  0  0  0  0  0  0  0  0  0
   43.7654   36.5570   43.0617 H   0  0  0  0  0  0  0  0  0  0  0  0
   47.5793   31.6787   43.7977 H   0  0  0  0  0  0  0  0  0  0  0  0
   48.2673   30.0359   45.6852 H   0  0  0  0  0  0  0  0  0  0  0  0
   47.6405   29.5933   48.3573 H   0  0  0  0  0  0  0  0  0  0  0  0
   46.2459   30.4121   50.2314 H   0  0  0  0  0  0  0  0  0  0  0  0
   44.7657   32.3294   49.8644 H   0  0  0  0  0  0  0  0  0  0  0  0
   44.6234   33.4712   47.6623 H   0  0  0  0  0  0  0  0  0  0  0  0
   45.2292   34.3112   40.7997 H   0  0  0  0  0  0  0  0  0  0  0  0
   42.0218   35.3376   39.1717 H   0  0  0  0  0  0  0  0  0  0  0  0
   43.7516   35.7739   39.1877 H   0  0  0  0  0  0  0  0  0  0  0  0
  1  6  2  0
  2  1  1  0
  3  4  1  0
  3  2  2  0
  4  5  2  0
  5  7  1  0
  5  6  1  0
  7 15  1  0
  8  7  2  0
  8  9  1  0
  9 10  1  0
 10 11  2  0
 11 12  1  0
 13 12  2  0
 14 13  1  0
 15 10  1  0
 15 14  2  0
 16  3  1  0
 17 16  1  0
 17 18  2  0
 19 17  1  0
 20 18  1  0
  1 21  1  0
  2 22  1  0
  8 23  1  0
  9 24  1  0
 11 25  1  0
 12 26  1  0
 13 27  1  0
 14 28  1  0
 16 29  1  0
 19 30  1  0
 19 31  1  0
M  ISO  8  21  14  22  14  23  14  24   9  25  14  26  14  27  14  28  14
M  END
>  <minimizedAffinity>  (1) 
-5.80286312

>  <minimizedRMSD>  (1) 
0.445316166

$$$$
