
     RDKit          3D

 31 34  0  0  0  0  0  0  0  0999 V2000
   46.2150   32.5570   45.3850 C   0  0  0  0  0  0  0  0  0  0  0  0
   47.1350   31.7180   44.7620 C   0  0  0  0  0  0  0  0  0  0  0  0
   47.5230   30.8370   45.6970 N   0  0  0  0  0  0  0  0  0  0  0  0
   46.9020   31.0800   46.8540 C   0  0  0  0  0  0  0  0  0  0  0  0
   46.9980   30.4250   48.0810 C   0  0  0  0  0  0  0  0  0  0  0  0
   46.2460   30.8520   49.1740 C   0  0  0  0  0  0  0  0  0  0  0  0
   45.4060   31.9340   49.0270 C   0  0  0  0  0  0  0  0  0  0  0  0
   45.2990   32.6040   47.8000 C   0  0  0  0  0  0  0  0  0  0  0  0
   46.0420   32.1780   46.7250 C   0  0  0  0  0  0  0  0  0  0  0  0
   44.5870   35.8130   45.0130 C   0  0  0  0  0  0  0  0  0  0  0  0
   44.1680   35.8230   43.6560 C   0  0  0  0  0  0  0  0  0  0  0  0
   44.4560   34.7000   42.8930 C   0  0  0  0  0  0  0  0  0  0  0  0
   45.1170   33.6750   43.4930 N   0  0  0  0  0  0  0  0  0  0  0  0
   45.5070   33.6810   44.7790 C   0  0  0  0  0  0  0  0  0  0  0  0
   45.2320   34.7650   45.5280 N   0  0  0  0  0  0  0  0  0  0  0  0
   44.0920   34.5730   41.5080 C   0  0  0  0  0  0  0  0  0  0  0  0
   42.9000   35.0410   40.9630 C   0  0  0  0  0  0  0  0  0  0  0  0
   42.8160   34.7800   39.5960 C   0  0  0  0  0  0  0  0  0  0  0  0
   43.9850   34.1470   39.3490 N   0  0  0  0  0  0  0  0  0  0  0  0
   44.7090   34.0320   40.4430 N   0  0  0  0  0  0  0  0  0  0  0  0
   47.4745   31.7672   43.7169 H   0  0  0  0  0  0  0  0  0  0  0  0
   48.2041   30.0797   45.5438 H   0  0  0  0  0  0  0  0  0  0  0  0
   47.6734   29.5633   48.1874 H   0  0  0  0  0  0  0  0  0  0  0  0
   46.3221   30.3323   50.1405 H   0  0  0  0  0  0  0  0  0  0  0  0
   44.8101   32.2776   49.8854 H   0  0  0  0  0  0  0  0  0  0  0  0
   44.6237   33.4664   47.6982 H   0  0  0  0  0  0  0  0  0  0  0  0
   44.3760   36.6844   45.6503 H   0  0  0  0  0  0  0  0  0  0  0  0
   43.6369   36.6856   43.2272 H   0  0  0  0  0  0  0  0  0  0  0  0
   42.1181   35.5550   41.5413 H   0  0  0  0  0  0  0  0  0  0  0  0
   42.0043   35.0266   38.8958 H   0  0  0  0  0  0  0  0  0  0  0  0
   44.2726   33.7991   38.4232 H   0  0  0  0  0  0  0  0  0  0  0  0
  1  9  1  0
  2  1  2  0
  2  3  1  0
  3  4  1  0
  4  5  2  0
  5  6  1  0
  7  6  2  0
  8  7  1  0
  9  4  1  0
  9  8  2  0
 10 15  2  0
 11 10  1  0
 12 13  1  0
 12 11  2  0
 13 14  2  0
 14  1  1  0
 14 15  1  0
 16 12  1  0
 17 16  1  0
 18 17  2  0
 19 18  1  0
 19 20  1  0
 20 16  2  0
  2 21  1  0
  3 22  1  0
  5 23  1  0
  6 24  1  0
  7 25  1  0
  8 26  1  0
 10 27  1  0
 11 28  1  0
 17 29  1  0
 18 30  1  0
 19 31  1  0
M  ISO  8  21  14  22   9  23  14  24  14  25  14  26  14  27  14  28  14
M  ISO  3  29  14  30  14  31   9
M  END
>  <minimizedAffinity>  (1) 
-5.86382675

>  <minimizedRMSD>  (1) 
0.292423904

$$$$
