
     RDKit          3D

 37 40  0  0  0  0  0  0  0  0999 V2000
   45.3690   35.9700   43.3200 C   0  0  0  0  0  0  0  0  0  0  0  0
   44.3230   35.7630   42.3810 C   0  0  0  0  0  0  0  0  0  0  0  0
   43.9300   34.4580   42.1330 C   0  0  0  0  0  0  0  0  0  0  0  0
   44.5610   33.4690   42.7950 N   0  0  0  0  0  0  0  0  0  0  0  0
   45.5490   33.6700   43.6820 C   0  0  0  0  0  0  0  0  0  0  0  0
   45.9560   34.9350   43.9460 N   0  0  0  0  0  0  0  0  0  0  0  0
   46.2000   32.5590   44.3750 C   0  0  0  0  0  0  0  0  0  0  0  0
   46.9770   31.5540   43.8140 C   0  0  0  0  0  0  0  0  0  0  0  0
   47.3660   30.7580   44.8170 N   0  0  0  0  0  0  0  0  0  0  0  0
   46.8720   31.2160   45.9710 C   0  0  0  0  0  0  0  0  0  0  0  0
   47.0050   30.7230   47.2850 C   0  0  0  0  0  0  0  0  0  0  0  0
   46.4070   31.3540   48.3510 C   0  0  0  0  0  0  0  0  0  0  0  0
   45.6670   32.4880   48.1220 C   0  0  0  0  0  0  0  0  0  0  0  0
   45.5140   33.0050   46.8290 C   0  0  0  0  0  0  0  0  0  0  0  0
   46.1160   32.3670   45.7650 C   0  0  0  0  0  0  0  0  0  0  0  0
   40.8380   33.6060   39.3130 C   0  0  0  0  0  0  0  0  0  0  0  0
   41.1020   32.7200   40.3370 C   0  0  0  0  0  0  0  0  0  0  0  0
   42.1040   33.0020   41.2450 C   0  0  0  0  0  0  0  0  0  0  0  0
   42.8800   34.1390   41.1990 C   0  0  0  0  0  0  0  0  0  0  0  0
   42.5790   34.9930   40.1590 C   0  0  0  0  0  0  0  0  0  0  0  0
   41.5820   34.7640   39.2120 C   0  0  0  0  0  0  0  0  0  0  0  0
   39.5850   33.3040   38.1350 S   0  0  0  0  0  0  0  0  0  0  0  0
   38.3010   32.8760   38.8290 O   0  0  0  0  0  0  0  0  0  0  0  0
   39.2300   34.5510   37.3700 O   0  0  0  0  0  0  0  0  0  0  0  0
   45.7043   36.9946   43.5386 H   0  0  0  0  0  0  0  0  0  0  0  0
   43.8421   36.6094   41.8689 H   0  0  0  0  0  0  0  0  0  0  0  0
   47.2252   31.4350   42.7490 H   0  0  0  0  0  0  0  0  0  0  0  0
   47.9562   29.9201   44.7150 H   0  0  0  0  0  0  0  0  0  0  0  0
   47.5996   29.8145   47.4616 H   0  0  0  0  0  0  0  0  0  0  0  0
   46.5197   30.9567   49.3705 H   0  0  0  0  0  0  0  0  0  0  0  0
   45.1859   32.9994   48.9688 H   0  0  0  0  0  0  0  0  0  0  0  0
   44.9174   33.9142   46.6635 H   0  0  0  0  0  0  0  0  0  0  0  0
   40.5171   31.7930   40.4300 H   0  0  0  0  0  0  0  0  0  0  0  0
   42.2929   32.2773   42.0507 H   0  0  0  0  0  0  0  0  0  0  0  0
   43.1662   35.9189   40.0705 H   0  0  0  0  0  0  0  0  0  0  0  0
   41.3932   35.4875   38.4052 H   0  0  0  0  0  0  0  0  0  0  0  0
   40.0724   32.3357   37.2974 H   0  0  0  0  0  0  0  0  0  0  0  0
  1  6  2  0
  2  1  1  0
  3  2  2  0
  3  4  1  0
  4  5  2  0
  5  6  1  0
  5  7  1  0
  7 15  1  0
  8  7  2  0
  8  9  1  0
  9 10  1  0
 10 11  2  0
 11 12  1  0
 13 12  2  0
 14 13  1  0
 15 10  1  0
 15 14  2  0
 16 17  2  0
 17 18  1  0
 19 18  2  0
 19  3  1  0
 20 19  1  0
 21 16  1  0
 21 20  2  0
 22 23  2  0
 22 16  1  0
 24 22  2  0
  1 25  1  0
  2 26  1  0
  8 27  1  0
  9 28  1  0
 11 29  1  0
 12 30  1  0
 13 31  1  0
 14 32  1  0
 17 33  1  0
 18 34  1  0
 20 35  1  0
 21 36  1  0
 22 37  1  0
M  ISO  8  25  14  26  14  27  14  28   9  29  14  30  14  31  14  32  14
M  ISO  5  33  14  34  14  35  14  36  14  37  11
M  END
>  <minimizedAffinity>  (1) 
-5.64083195

>  <minimizedRMSD>  (1) 
2.15165591

$$$$
