
     RDKit          3D

 31 34  0  0  0  0  0  0  0  0999 V2000
   46.1970   32.5240   45.3020 C   0  0  0  0  0  0  0  0  0  0  0  0
   47.1400   31.6820   44.7160 C   0  0  0  0  0  0  0  0  0  0  0  0
   47.5510   30.8380   45.6780 N   0  0  0  0  0  0  0  0  0  0  0  0
   46.9100   31.1150   46.8330 C   0  0  0  0  0  0  0  0  0  0  0  0
   47.0100   30.5080   48.0910 C   0  0  0  0  0  0  0  0  0  0  0  0
   46.2460   30.9600   49.1540 C   0  0  0  0  0  0  0  0  0  0  0  0
   45.3940   32.0030   48.9630 C   0  0  0  0  0  0  0  0  0  0  0  0
   45.2830   32.6190   47.7130 C   0  0  0  0  0  0  0  0  0  0  0  0
   46.0400   32.1770   46.6420 C   0  0  0  0  0  0  0  0  0  0  0  0
   44.6900   35.8080   44.7390 C   0  0  0  0  0  0  0  0  0  0  0  0
   44.0880   35.6670   43.4500 C   0  0  0  0  0  0  0  0  0  0  0  0
   44.2160   34.4470   42.8060 C   0  0  0  0  0  0  0  0  0  0  0  0
   44.9040   33.4700   43.4480 N   0  0  0  0  0  0  0  0  0  0  0  0
   45.4710   33.6010   44.6590 C   0  0  0  0  0  0  0  0  0  0  0  0
   45.3550   34.7860   45.2990 N   0  0  0  0  0  0  0  0  0  0  0  0
   43.6420   34.2250   41.5080 C   0  0  0  0  0  0  0  0  0  0  0  0
   42.6560   33.3070   41.2070 C   0  0  0  0  0  0  0  0  0  0  0  0
   42.3760   33.3950   39.8770 N   0  0  0  0  0  0  0  0  0  0  0  0
   43.1800   34.3590   39.3550 C   0  0  0  0  0  0  0  0  0  0  0  0
   43.9310   34.8410   40.3560 N   0  0  0  0  0  0  0  0  0  0  0  0
   47.4813   31.7038   43.6705 H   0  0  0  0  0  0  0  0  0  0  0  0
   48.2500   30.0920   45.5526 H   0  0  0  0  0  0  0  0  0  0  0  0
   47.7014   29.6648   48.2361 H   0  0  0  0  0  0  0  0  0  0  0  0
   46.3272   30.4813   50.1410 H   0  0  0  0  0  0  0  0  0  0  0  0
   44.7843   32.3666   49.8033 H   0  0  0  0  0  0  0  0  0  0  0  0
   44.5886   33.4616   47.5796 H   0  0  0  0  0  0  0  0  0  0  0  0
   44.6072   36.7638   45.2771 H   0  0  0  0  0  0  0  0  0  0  0  0
   43.5409   36.5001   42.9846 H   0  0  0  0  0  0  0  0  0  0  0  0
   42.1773   32.6204   41.9207 H   0  0  0  0  0  0  0  0  0  0  0  0
   43.2092   34.6839   38.3045 H   0  0  0  0  0  0  0  0  0  0  0  0
   44.6354   35.5852   40.2520 H   0  0  0  0  0  0  0  0  0  0  0  0
  1  9  1  0
  2  1  2  0
  2  3  1  0
  3  4  1  0
  4  5  2  0
  5  6  1  0
  7  6  2  0
  8  7  1  0
  9  4  1  0
  9  8  2  0
 10 15  2  0
 11 10  1  0
 12 13  1  0
 12 11  2  0
 13 14  2  0
 14 15  1  0
 14  1  1  0
 16 12  1  0
 17 16  2  0
 18 17  1  0
 19 18  2  0
 19 20  1  0
 20 16  1  0
  2 21  1  0
  3 22  1  0
  5 23  1  0
  6 24  1  0
  7 25  1  0
  8 26  1  0
 10 27  1  0
 11 28  1  0
 17 29  1  0
 19 30  1  0
 20 31  1  0
M  ISO  8  21  14  22   9  23  14  24  14  25  14  26  14  27  14  28  14
M  ISO  3  29  14  30  14  31   9
M  END
>  <minimizedAffinity>  (1) 
-5.53952503

>  <minimizedRMSD>  (1) 
0.558044195

$$$$
