
     RDKit          3D

 30 33  0  0  0  0  0  0  0  0999 V2000
   46.2550   32.5070   45.3650 C   0  0  0  0  0  0  0  0  0  0  0  0
   47.1830   31.6610   44.7870 C   0  0  0  0  0  0  0  0  0  0  0  0
   47.5650   30.8060   45.7510 N   0  0  0  0  0  0  0  0  0  0  0  0
   46.9230   31.0770   46.8890 C   0  0  0  0  0  0  0  0  0  0  0  0
   46.9990   30.4620   48.1320 C   0  0  0  0  0  0  0  0  0  0  0  0
   46.2280   30.9140   49.2000 C   0  0  0  0  0  0  0  0  0  0  0  0
   45.3830   31.9870   49.0130 C   0  0  0  0  0  0  0  0  0  0  0  0
   45.2910   32.6200   47.7730 C   0  0  0  0  0  0  0  0  0  0  0  0
   46.0650   32.1600   46.7140 C   0  0  0  0  0  0  0  0  0  0  0  0
   44.6370   35.7620   44.8510 C   0  0  0  0  0  0  0  0  0  0  0  0
   44.1820   35.6810   43.5160 C   0  0  0  0  0  0  0  0  0  0  0  0
   44.4380   34.5120   42.8170 C   0  0  0  0  0  0  0  0  0  0  0  0
   45.1040   33.5210   43.4410 N   0  0  0  0  0  0  0  0  0  0  0  0
   45.5380   33.6140   44.7300 C   0  0  0  0  0  0  0  0  0  0  0  0
   45.2980   34.7410   45.4230 N   0  0  0  0  0  0  0  0  0  0  0  0
   44.0050   34.3270   41.4190 C   0  0  0  0  0  0  0  0  0  0  0  0
   44.5700   33.2640   40.6460 C   0  0  0  0  0  0  0  0  0  0  0  0
   43.7470   33.4240   39.0120 S   0  0  0  0  0  0  0  0  0  0  0  0
   42.7650   34.9190   39.6530 C   0  0  0  0  0  0  0  0  0  0  0  0
   43.1330   35.0110   40.7070 N   0  0  0  0  0  0  0  0  0  0  0  0
   47.5379   31.6832   43.7461 H   0  0  0  0  0  0  0  0  0  0  0  0
   48.2541   30.0503   45.6290 H   0  0  0  0  0  0  0  0  0  0  0  0
   47.6766   29.6073   48.2746 H   0  0  0  0  0  0  0  0  0  0  0  0
   46.2925   30.4207   50.1811 H   0  0  0  0  0  0  0  0  0  0  0  0
   44.7726   32.3493   49.8533 H   0  0  0  0  0  0  0  0  0  0  0  0
   44.6126   33.4748   47.6348 H   0  0  0  0  0  0  0  0  0  0  0  0
   44.4471   36.6763   45.4323 H   0  0  0  0  0  0  0  0  0  0  0  0
   43.6428   36.5174   43.0472 H   0  0  0  0  0  0  0  0  0  0  0  0
   45.3217   32.5238   40.9575 H   0  0  0  0  0  0  0  0  0  0  0  0
   42.0242   35.5366   39.1241 H   0  0  0  0  0  0  0  0  0  0  0  0
  1  9  1  0
  2  1  2  0
  2  3  1  0
  3  4  1  0
  4  5  2  0
  5  6  1  0
  7  6  2  0
  8  7  1  0
  9  4  1  0
  9  8  2  0
 10 15  2  0
 11 10  1  0
 12 13  1  0
 12 11  2  0
 13 14  2  0
 14  1  1  0
 14 15  1  0
 16 12  1  0
 17 16  2  0
 18 19  1  0
 18 17  1  0
 19 20  2  0
 20 16  1  0
  2 21  1  0
  3 22  1  0
  5 23  1  0
  6 24  1  0
  7 25  1  0
  8 26  1  0
 10 27  1  0
 11 28  1  0
 17 29  1  0
 19 30  1  0
M  ISO  8  21  14  22   9  23  14  24  14  25  14  26  14  27  14  28  14
M  ISO  2  29  14  30  14
M  END
>  <minimizedAffinity>  (1) 
-5.50969839

>  <minimizedRMSD>  (1) 
0.325842083

$$$$
