
     RDKit          3D

 30 32  0  0  0  0  0  0  0  0999 V2000
   46.2870   32.5190   45.3960 C   0  0  0  0  0  0  0  0  0  0  0  0
   47.2240   31.6510   44.8150 C   0  0  0  0  0  0  0  0  0  0  0  0
   47.5790   30.7930   45.7860 N   0  0  0  0  0  0  0  0  0  0  0  0
   46.9170   31.0790   46.9320 C   0  0  0  0  0  0  0  0  0  0  0  0
   46.9630   30.4670   48.1850 C   0  0  0  0  0  0  0  0  0  0  0  0
   46.1960   30.9240   49.2290 C   0  0  0  0  0  0  0  0  0  0  0  0
   45.3860   31.9930   49.0150 C   0  0  0  0  0  0  0  0  0  0  0  0
   45.3140   32.6310   47.7730 C   0  0  0  0  0  0  0  0  0  0  0  0
   46.0790   32.1750   46.7310 C   0  0  0  0  0  0  0  0  0  0  0  0
   44.5540   35.7090   44.9250 C   0  0  0  0  0  0  0  0  0  0  0  0
   44.3410   35.7480   43.5140 C   0  0  0  0  0  0  0  0  0  0  0  0
   44.7980   34.6720   42.7470 C   0  0  0  0  0  0  0  0  0  0  0  0
   45.4130   33.6670   43.4060 N   0  0  0  0  0  0  0  0  0  0  0  0
   45.6200   33.6200   44.7320 C   0  0  0  0  0  0  0  0  0  0  0  0
   45.1770   34.6620   45.4790 N   0  0  0  0  0  0  0  0  0  0  0  0
   44.5760   34.7190   41.2980 C   0  0  0  0  0  0  0  0  0  0  0  0
   43.2890   35.4370   40.9700 C   0  0  0  0  0  0  0  0  0  0  0  0
   47.5919   31.6693   43.7785 H   0  0  0  0  0  0  0  0  0  0  0  0
   48.2581   30.0267   45.6745 H   0  0  0  0  0  0  0  0  0  0  0  0
   47.6256   29.6027   48.3397 H   0  0  0  0  0  0  0  0  0  0  0  0
   46.2368   30.4362   50.2141 H   0  0  0  0  0  0  0  0  0  0  0  0
   44.7679   32.3682   49.8440 H   0  0  0  0  0  0  0  0  0  0  0  0
   44.6470   33.4944   47.6328 H   0  0  0  0  0  0  0  0  0  0  0  0
   44.2061   36.5394   45.5569 H   0  0  0  0  0  0  0  0  0  0  0  0
   43.8312   36.6014   43.0430 H   0  0  0  0  0  0  0  0  0  0  0  0
   45.4146   35.2490   40.8228 H   0  0  0  0  0  0  0  0  0  0  0  0
   44.5077   33.6880   40.9207 H   0  0  0  0  0  0  0  0  0  0  0  0
   42.7797   35.7211   41.9027 H   0  0  0  0  0  0  0  0  0  0  0  0
   43.5124   36.3408   40.3842 H   0  0  0  0  0  0  0  0  0  0  0  0
   42.6372   34.7721   40.3842 H   0  0  0  0  0  0  0  0  0  0  0  0
  1  9  1  0
  2  1  2  0
  2  3  1  0
  3  4  1  0
  4  5  2  0
  5  6  1  0
  7  6  2  0
  8  7  1  0
  9  4  1  0
  9  8  2  0
 10 15  2  0
 11 10  1  0
 12 13  1  0
 12 11  2  0
 13 14  2  0
 14  1  1  0
 14 15  1  0
 16 12  1  0
 17 16  1  0
  2 18  1  0
  3 19  1  0
  5 20  1  0
  6 21  1  0
  7 22  1  0
  8 23  1  0
 10 24  1  0
 11 25  1  0
 16 26  1  0
 16 27  1  0
 17 28  1  0
 17 29  1  0
 17 30  1  0
M  ISO  8  18  14  19   9  20  14  21  14  22  14  23  14  24  14  25  14
M  ISO  5  26   8  27   8  28   8  29   8  30   8
M  END
>  <minimizedAffinity>  (1) 
-5.29295921

>  <minimizedRMSD>  (1) 
0.185296103

$$$$
