
     RDKit          3D

 29 32  0  0  0  0  0  0  0  0999 V2000
   46.2240   32.5300   45.3800 C   0  0  0  0  0  0  0  0  0  0  0  0
   47.1580   31.6810   44.7800 C   0  0  0  0  0  0  0  0  0  0  0  0
   47.5460   30.8170   45.7330 N   0  0  0  0  0  0  0  0  0  0  0  0
   46.9050   31.0840   46.8870 C   0  0  0  0  0  0  0  0  0  0  0  0
   47.0030   30.4460   48.1180 C   0  0  0  0  0  0  0  0  0  0  0  0
   46.2390   30.8900   49.1950 C   0  0  0  0  0  0  0  0  0  0  0  0
   45.3960   31.9610   49.0250 C   0  0  0  0  0  0  0  0  0  0  0  0
   45.2960   32.6030   47.7960 C   0  0  0  0  0  0  0  0  0  0  0  0
   46.0530   32.1630   46.7210 C   0  0  0  0  0  0  0  0  0  0  0  0
   44.6270   35.8010   44.9280 C   0  0  0  0  0  0  0  0  0  0  0  0
   44.1670   35.7430   43.5930 C   0  0  0  0  0  0  0  0  0  0  0  0
   44.4100   34.5800   42.8610 C   0  0  0  0  0  0  0  0  0  0  0  0
   45.0760   33.5630   43.4680 N   0  0  0  0  0  0  0  0  0  0  0  0
   45.5110   33.6410   44.7550 C   0  0  0  0  0  0  0  0  0  0  0  0
   45.2790   34.7630   45.4680 N   0  0  0  0  0  0  0  0  0  0  0  0
   43.9850   34.4010   41.4820 C   0  0  0  0  0  0  0  0  0  0  0  0
   43.2100   35.3280   40.8990 N   0  0  0  0  0  0  0  0  0  0  0  0
   42.9730   34.9400   39.6800 O   0  0  0  0  0  0  0  0  0  0  0  0
   43.5470   33.8040   39.4170 C   0  0  0  0  0  0  0  0  0  0  0  0
   44.1890   33.4570   40.5480 N   0  0  0  0  0  0  0  0  0  0  0  0
   47.5057   31.7136   43.7369 H   0  0  0  0  0  0  0  0  0  0  0  0
   48.2330   30.0612   45.6004 H   0  0  0  0  0  0  0  0  0  0  0  0
   47.6836   29.5908   48.2418 H   0  0  0  0  0  0  0  0  0  0  0  0
   46.3101   30.3882   50.1713 H   0  0  0  0  0  0  0  0  0  0  0  0
   44.7917   32.3156   49.8730 H   0  0  0  0  0  0  0  0  0  0  0  0
   44.6165   33.4598   47.6765 H   0  0  0  0  0  0  0  0  0  0  0  0
   44.4483   36.7054   45.5282 H   0  0  0  0  0  0  0  0  0  0  0  0
   43.6317   36.5920   43.1429 H   0  0  0  0  0  0  0  0  0  0  0  0
   43.5149   33.2445   38.4705 H   0  0  0  0  0  0  0  0  0  0  0  0
  1  9  1  0
  2  1  2  0
  2  3  1  0
  3  4  1  0
  4  5  2  0
  5  6  1  0
  7  6  2  0
  8  7  1  0
  9  4  1  0
  9  8  2  0
 10 15  2  0
 11 10  1  0
 12 13  1  0
 12 11  2  0
 13 14  2  0
 14  1  1  0
 14 15  1  0
 16 12  1  0
 17 16  2  0
 18 17  1  0
 19 18  1  0
 19 20  2  0
 20 16  1  0
  2 21  1  0
  3 22  1  0
  5 23  1  0
  6 24  1  0
  7 25  1  0
  8 26  1  0
 10 27  1  0
 11 28  1  0
 19 29  1  0
M  ISO  8  21  14  22   9  23  14  24  14  25  14  26  14  27  14  28  14
M  ISO  1  29  14
M  END
>  <minimizedAffinity>  (1) 
-5.54429483

>  <minimizedRMSD>  (1) 
0.531963229

$$$$
