
     RDKit          3D

 46 50  0  0  0  0  0  0  0  0999 V2000
   44.7170   35.8510   44.7140 C   0  0  0  0  0  0  0  0  0  0  0  0
   44.0140   35.7660   43.4960 C   0  0  0  0  0  0  0  0  0  0  0  0
   44.0370   34.5380   42.8610 C   0  0  0  0  0  0  0  0  0  0  0  0
   44.7060   33.5020   43.4040 N   0  0  0  0  0  0  0  0  0  0  0  0
   45.3810   33.6190   44.5900 C   0  0  0  0  0  0  0  0  0  0  0  0
   45.3780   34.8120   45.2400 N   0  0  0  0  0  0  0  0  0  0  0  0
   46.1020   32.5060   45.1730 C   0  0  0  0  0  0  0  0  0  0  0  0
   46.9540   31.6240   44.5130 C   0  0  0  0  0  0  0  0  0  0  0  0
   47.4070   30.7540   45.4170 N   0  0  0  0  0  0  0  0  0  0  0  0
   46.8820   31.0450   46.6200 C   0  0  0  0  0  0  0  0  0  0  0  0
   47.0520   30.4280   47.8720 C   0  0  0  0  0  0  0  0  0  0  0  0
   46.4010   30.9060   48.9890 C   0  0  0  0  0  0  0  0  0  0  0  0
   45.5760   31.9980   48.8760 C   0  0  0  0  0  0  0  0  0  0  0  0
   45.3920   32.6310   47.6370 C   0  0  0  0  0  0  0  0  0  0  0  0
   46.0410   32.1550   46.5190 C   0  0  0  0  0  0  0  0  0  0  0  0
   43.3310   34.4470   41.6480 C   0  0  0  0  0  0  0  0  0  0  0  0
   43.4990   35.2750   40.5800 C   0  0  0  0  0  0  0  0  0  0  0  0
   42.8390   35.1940   39.3940 C   0  0  0  0  0  0  0  0  0  0  0  0
   41.8860   34.0360   39.4460 C   0  0  0  0  0  0  0  0  0  0  0  0
   42.1190   33.2830   41.1940 S   0  0  0  0  0  0  0  0  0  0  0  0
   40.9430   33.4070   38.6210 N   0  0  0  0  0  0  0  0  0  0  0  0
   40.7020   31.9760   38.5600 C   0  0  0  0  0  0  0  0  0  0  0  0
   39.2590   31.7550   38.9810 C   0  0  0  0  0  0  0  0  0  0  0  0
   38.3810   32.5390   37.9980 C   0  0  0  0  0  0  0  0  0  0  0  0
   38.6970   34.0180   38.0900 C   0  0  0  0  0  0  0  0  0  0  0  0
   40.1760   34.2920   37.7810 C   0  0  0  0  0  0  0  0  0  0  0  0
   44.7231   36.8091   45.2544 H   0  0  0  0  0  0  0  0  0  0  0  0
   43.4770   36.6282   43.0739 H   0  0  0  0  0  0  0  0  0  0  0  0
   47.2070   31.6416   43.4426 H   0  0  0  0  0  0  0  0  0  0  0  0
   48.0579   29.9796   45.2235 H   0  0  0  0  0  0  0  0  0  0  0  0
   47.7127   29.5530   47.9612 H   0  0  0  0  0  0  0  0  0  0  0  0
   46.5413   30.4163   49.9639 H   0  0  0  0  0  0  0  0  0  0  0  0
   45.0541   32.3804   49.7656 H   0  0  0  0  0  0  0  0  0  0  0  0
   44.7303   33.5062   47.5587 H   0  0  0  0  0  0  0  0  0  0  0  0
   44.2367   36.0840   40.6866 H   0  0  0  0  0  0  0  0  0  0  0  0
   42.9806   35.8677   38.5360 H   0  0  0  0  0  0  0  0  0  0  0  0
   40.8577   31.6092   37.5347 H   0  0  0  0  0  0  0  0  0  0  0  0
   41.3933   31.4311   39.2197 H   0  0  0  0  0  0  0  0  0  0  0  0
   39.0122   30.6840   38.9368 H   0  0  0  0  0  0  0  0  0  0  0  0
   39.0942   32.0966   40.0136 H   0  0  0  0  0  0  0  0  0  0  0  0
   37.3216   32.3764   38.2456 H   0  0  0  0  0  0  0  0  0  0  0  0
   38.5819   32.1889   36.9747 H   0  0  0  0  0  0  0  0  0  0  0  0
   38.0727   34.5636   37.3671 H   0  0  0  0  0  0  0  0  0  0  0  0
   38.4882   34.3548   39.1161 H   0  0  0  0  0  0  0  0  0  0  0  0
   40.3867   34.0866   36.7211 H   0  0  0  0  0  0  0  0  0  0  0  0
   40.4333   35.3440   37.9738 H   0  0  0  0  0  0  0  0  0  0  0  0
  1  6  2  0
  2  1  1  0
  3  4  1  0
  3  2  2  0
  4  5  2  0
  5  7  1  0
  5  6  1  0
  7 15  1  0
  8  7  2  0
  8  9  1  0
  9 10  1  0
 10 11  2  0
 11 12  1  0
 13 12  2  0
 14 13  1  0
 15 10  1  0
 15 14  2  0
 16  3  1  0
 17 16  2  0
 18 19  2  0
 18 17  1  0
 19 20  1  0
 20 16  1  0
 21 19  1  0
 22 21  1  0
 22 23  1  0
 24 25  1  0
 24 23  1  0
 26 25  1  0
 26 21  1  0
  1 27  1  0
  2 28  1  0
  8 29  1  0
  9 30  1  0
 11 31  1  0
 12 32  1  0
 13 33  1  0
 14 34  1  0
 17 35  1  0
 18 36  1  0
 22 37  1  0
 22 38  1  0
 23 39  1  0
 23 40  1  0
 24 41  1  0
 24 42  1  0
 25 43  1  0
 25 44  1  0
 26 45  1  0
 26 46  1  0
M  ISO  8  27  14  28  14  29  14  30   9  31  14  32  14  33  14  34  14
M  ISO  8  35  14  36  14  37  13  38  13  39  13  40  13  41  13  42  13
M  ISO  4  43  13  44  13  45  13  46  13
M  END
>  <minimizedAffinity>  (1) 
-6.6628418

>  <minimizedRMSD>  (1) 
2.20307612

$$$$
