
     RDKit          3D

 41 45  0  0  0  0  0  0  0  0999 V2000
   44.7760   35.3190   44.3470 C   0  0  0  0  0  0  0  0  0  0  0  0
   44.4440   35.0770   42.9980 C   0  0  0  0  0  0  0  0  0  0  0  0
   44.7920   33.8520   42.4950 C   0  0  0  0  0  0  0  0  0  0  0  0
   45.4170   32.9400   43.2600 N   0  0  0  0  0  0  0  0  0  0  0  0
   45.7340   33.1860   44.5660 C   0  0  0  0  0  0  0  0  0  0  0  0
   45.3990   34.4050   45.1040 N   0  0  0  0  0  0  0  0  0  0  0  0
   46.4090   32.2140   45.3970 C   0  0  0  0  0  0  0  0  0  0  0  0
   47.4210   31.3410   45.0200 C   0  0  0  0  0  0  0  0  0  0  0  0
   47.7520   30.6290   46.0850 N   0  0  0  0  0  0  0  0  0  0  0  0
   46.9990   31.0060   47.1270 C   0  0  0  0  0  0  0  0  0  0  0  0
   46.9750   30.5500   48.4660 C   0  0  0  0  0  0  0  0  0  0  0  0
   46.1000   31.0930   49.3830 C   0  0  0  0  0  0  0  0  0  0  0  0
   45.2540   32.0800   48.9850 C   0  0  0  0  0  0  0  0  0  0  0  0
   45.2490   32.5560   47.6710 C   0  0  0  0  0  0  0  0  0  0  0  0
   46.1190   32.0180   46.7490 C   0  0  0  0  0  0  0  0  0  0  0  0
   44.4720   33.6220   41.1480 C   0  0  0  0  0  0  0  0  0  0  0  0
   43.5370   34.3090   40.4250 C   0  0  0  0  0  0  0  0  0  0  0  0
   43.2240   34.1380   39.1380 C   0  0  0  0  0  0  0  0  0  0  0  0
   44.0960   33.0160   38.5750 C   0  0  0  0  0  0  0  0  0  0  0  0
   45.1690   32.4690   40.0360 S   0  0  0  0  0  0  0  0  0  0  0  0
   44.1950   32.4220   37.3090 N   0  0  0  0  0  0  0  0  0  0  0  0
   45.2960   32.7990   36.6280 C   0  0  0  0  0  0  0  0  0  0  0  0
   45.5260   32.2840   35.3470 C   0  0  0  0  0  0  0  0  0  0  0  0
   44.5640   31.4060   34.8920 C   0  0  0  0  0  0  0  0  0  0  0  0
   44.7060   30.8950   33.7310 O   0  0  0  0  0  0  0  0  0  0  0  0
   43.4610   31.0210   35.5610 N   0  0  0  0  0  0  0  0  0  0  0  0
   43.3000   31.5580   36.7970 C   0  0  0  0  0  0  0  0  0  0  0  0
   42.2950   31.2480   37.4850 O   0  0  0  0  0  0  0  0  0  0  0  0
   44.5150   36.2901   44.7928 H   0  0  0  0  0  0  0  0  0  0  0  0
   43.9328   35.8320   42.3827 H   0  0  0  0  0  0  0  0  0  0  0  0
   47.8666   31.2567   44.0178 H   0  0  0  0  0  0  0  0  0  0  0  0
   48.4769   29.8976   46.1092 H   0  0  0  0  0  0  0  0  0  0  0  0
   47.6636   29.7516   48.7798 H   0  0  0  0  0  0  0  0  0  0  0  0
   46.0867   30.7326   50.4222 H   0  0  0  0  0  0  0  0  0  0  0  0
   44.5559   32.5148   49.7155 H   0  0  0  0  0  0  0  0  0  0  0  0
   44.5542   33.3557   47.3750 H   0  0  0  0  0  0  0  0  0  0  0  0
   42.9802   35.0900   40.9635 H   0  0  0  0  0  0  0  0  0  0  0  0
   42.4675   34.7076   38.5784 H   0  0  0  0  0  0  0  0  0  0  0  0
   46.0088   33.5067   37.0763 H   0  0  0  0  0  0  0  0  0  0  0  0
   46.4071   32.5585   34.7484 H   0  0  0  0  0  0  0  0  0  0  0  0
   42.7811   30.3596   35.1595 H   0  0  0  0  0  0  0  0  0  0  0  0
  1  6  2  0
  2  1  1  0
  3  2  2  0
  3  4  1  0
  4  5  2  0
  5  6  1  0
  5  7  1  0
  7 15  1  0
  8  7  2  0
  8  9  1  0
  9 10  1  0
 10 11  2  0
 11 12  1  0
 13 12  2  0
 14 13  1  0
 15 10  1  0
 15 14  2  0
 16  3  1  0
 17 16  2  0
 18 17  1  0
 19 18  2  0
 19 20  1  0
 20 16  1  0
 21 19  1  0
 22 21  1  0
 23 22  2  0
 24 23  1  0
 24 26  1  0
 25 24  2  0
 26 27  1  0
 27 21  1  0
 27 28  2  0
  1 29  1  0
  2 30  1  0
  8 31  1  0
  9 32  1  0
 11 33  1  0
 12 34  1  0
 13 35  1  0
 14 36  1  0
 17 37  1  0
 18 38  1  0
 22 39  1  0
 23 40  1  0
 26 41  1  0
M  ISO  8  29  14  30  14  31  14  32   9  33  14  34  14  35  14  36  14
M  ISO  5  37  14  38  14  39  14  40  14  41   9
M  END
>  <minimizedAffinity>  (1) 
-6.04888153

>  <minimizedRMSD>  (1) 
1.07151055

$$$$
