
     RDKit          3D

 30 33  0  0  1  0  0  0  0  0999 V2000
   45.7640   34.1110   41.6830 N   0  0  0  0  0  0  0  0  0  0  0  0
   44.9620   33.7600   40.6190 C   0  0  0  0  0  0  0  0  0  0  0  0
   45.7260   33.5270   39.5430 N   0  0  0  0  0  0  0  0  0  0  0  0
   47.0130   33.7300   39.9260 C   0  0  0  0  0  0  0  0  0  0  0  0
   46.9900   34.0780   41.2150 N   0  0  0  0  0  0  0  0  0  0  0  0
   44.8200   35.7160   43.2140 C   0  0  0  0  0  0  0  0  0  0  0  0
   45.4320   34.4490   43.0100 C   0  0  0  0  0  0  0  0  0  0  0  0
   45.6570   33.6480   44.1060 C   0  0  0  0  0  0  0  0  0  0  0  0
   45.2740   34.1240   45.3290 N   0  0  0  0  0  0  0  0  0  0  0  0
   44.7010   35.3140   45.4940 C   0  0  0  0  0  0  0  0  0  0  0  0
   44.4770   36.1050   44.4390 N   0  0  0  0  0  0  0  0  0  0  0  0
   48.2750   33.6250   39.1360 C   0  0  2  0  0  0  0  0  0  0  0  0
   48.3210   34.4350   37.8210 C   0  0  0  0  0  0  0  0  0  0  0  0
   48.2680   32.8970   37.8240 C   0  0  1  0  0  0  0  0  0  0  0  0
   49.4840   32.1620   37.4010 C   0  0  0  0  0  0  0  0  0  0  0  0
   49.6120   31.4890   36.2020 C   0  0  0  0  0  0  0  0  0  0  0  0
   50.8860   30.9200   36.1520 C   0  0  0  0  0  0  0  0  0  0  0  0
   51.4610   31.3010   37.3640 C   0  0  0  0  0  0  0  0  0  0  0  0
   50.6230   32.0150   38.0570 O   0  0  0  0  0  0  0  0  0  0  0  0
   43.8651   33.6830   40.6483 H   0  0  0  0  0  0  0  0  0  0  0  0
   44.6294   36.3770   42.3557 H   0  0  0  0  0  0  0  0  0  0  0  0
   46.1284   32.6596   44.0018 H   0  0  0  0  0  0  0  0  0  0  0  0
   44.4108   35.6479   46.5011 H   0  0  0  0  0  0  0  0  0  0  0  0
   48.8954   33.5423   40.0406 H   0  0  0  0  0  0  0  0  0  0  0  0
   49.2419   34.9579   37.5233 H   0  0  0  0  0  0  0  0  0  0  0  0
   47.7251   35.2432   37.3720 H   0  0  0  0  0  0  0  0  0  0  0  0
   47.6095   32.1393   37.3741 H   0  0  0  0  0  0  0  0  0  0  0  0
   48.8420   31.4140   35.4201 H   0  0  0  0  0  0  0  0  0  0  0  0
   51.3304   30.3151   35.3479 H   0  0  0  0  0  0  0  0  0  0  0  0
   52.4782   31.0356   37.6879 H   0  0  0  0  0  0  0  0  0  0  0  0
  1  7  1  0
  2  1  1  0
  3  4  1  0
  3  2  2  0
  4  5  2  0
  5  1  1  0
  6 11  2  0
  7  6  1  0
  7  8  2  0
  8  9  1  0
  9 10  2  0
 11 10  1  0
 12  4  1  0
 13 14  1  0
 13 12  1  0
 14 12  1  0
 15 14  1  0
 15 19  1  0
 16 15  2  0
 17 16  1  0
 17 18  2  0
 18 19  1  0
  2 20  1  0
  6 21  1  0
  8 22  1  0
 10 23  1  0
 12 24  1  1
 13 25  1  0
 13 26  1  0
 14 27  1  6
 16 28  1  0
 17 29  1  0
 18 30  1  0
M  ISO  8  20  14  21  14  22  14  23  14  24  13  25  13  26  13  27  13
M  ISO  3  28  14  29  14  30  14
M  END
>  <minimizedAffinity>  (1) 
-4.54051495

>  <minimizedRMSD>  (1) 
0.277720571

$$$$
