
     RDKit          3D

 38 42  0  0  0  0  0  0  0  0999 V2000
   45.1110   36.0040   43.1160 C   0  0  0  0  0  0  0  0  0  0  0  0
   43.8750   35.7970   42.4690 C   0  0  0  0  0  0  0  0  0  0  0  0
   43.8970   34.9450   41.3900 C   0  0  0  0  0  0  0  0  0  0  0  0
   45.0330   34.3620   40.9970 N   0  0  0  0  0  0  0  0  0  0  0  0
   46.2200   34.5720   41.6330 C   0  0  0  0  0  0  0  0  0  0  0  0
   46.2430   35.4100   42.7100 N   0  0  0  0  0  0  0  0  0  0  0  0
   47.4490   33.9440   41.2090 C   0  0  0  0  0  0  0  0  0  0  0  0
   48.2360   34.2770   40.1090 C   0  0  0  0  0  0  0  0  0  0  0  0
   49.2670   33.4490   40.0940 N   0  0  0  0  0  0  0  0  0  0  0  0
   49.1820   32.6020   41.1290 C   0  0  0  0  0  0  0  0  0  0  0  0
   50.0410   31.5570   41.5180 C   0  0  0  0  0  0  0  0  0  0  0  0
   49.7510   30.7970   42.6430 C   0  0  0  0  0  0  0  0  0  0  0  0
   48.6350   31.0720   43.3600 C   0  0  0  0  0  0  0  0  0  0  0  0
   47.7640   32.1080   42.9920 C   0  0  0  0  0  0  0  0  0  0  0  0
   48.0450   32.8660   41.8770 C   0  0  0  0  0  0  0  0  0  0  0  0
   42.6570   34.7440   40.7400 C   0  0  0  0  0  0  0  0  0  0  0  0
   41.5490   35.5250   40.8890 C   0  0  0  0  0  0  0  0  0  0  0  0
   40.3610   35.3600   40.2760 C   0  0  0  0  0  0  0  0  0  0  0  0
   40.4440   34.1510   39.3830 C   0  0  0  0  0  0  0  0  0  0  0  0
   42.2200   33.4840   39.5940 S   0  0  0  0  0  0  0  0  0  0  0  0
   39.5280   33.5160   38.5230 N   0  0  0  0  0  0  0  0  0  0  0  0
   39.4400   32.2010   38.3790 C   0  0  0  0  0  0  0  0  0  0  0  0
   38.4160   32.0140   37.4440 C   0  0  0  0  0  0  0  0  0  0  0  0
   37.9390   33.2350   37.0720 N   0  0  0  0  0  0  0  0  0  0  0  0
   38.6330   34.1590   37.7450 C   0  0  0  0  0  0  0  0  0  0  0  0
   45.1480   36.6771   43.9852 H   0  0  0  0  0  0  0  0  0  0  0  0
   42.9500   36.2871   42.8069 H   0  0  0  0  0  0  0  0  0  0  0  0
   48.0365   35.0812   39.3855 H   0  0  0  0  0  0  0  0  0  0  0  0
   50.0214   33.4543   39.3927 H   0  0  0  0  0  0  0  0  0  0  0  0
   50.9447   31.3419   40.9289 H   0  0  0  0  0  0  0  0  0  0  0  0
   50.4206   29.9798   42.9491 H   0  0  0  0  0  0  0  0  0  0  0  0
   48.4067   30.4690   44.2512 H   0  0  0  0  0  0  0  0  0  0  0  0
   46.8635   32.3135   43.5893 H   0  0  0  0  0  0  0  0  0  0  0  0
   41.6341   36.3765   41.5802 H   0  0  0  0  0  0  0  0  0  0  0  0
   39.4773   36.0019   40.4063 H   0  0  0  0  0  0  0  0  0  0  0  0
   40.0392   31.4283   38.8829 H   0  0  0  0  0  0  0  0  0  0  0  0
   38.0562   31.0435   37.0715 H   0  0  0  0  0  0  0  0  0  0  0  0
   38.4982   35.2485   37.6764 H   0  0  0  0  0  0  0  0  0  0  0  0
  2  1  2  0
  3  2  1  0
  4  3  2  0
  4  5  1  0
  5  6  2  0
  6  1  1  0
  7  5  1  0
  7 15  1  0
  8  7  2  0
  9  8  1  0
  9 10  1  0
 10 11  2  0
 10 15  1  0
 11 12  1  0
 12 13  2  0
 14 13  1  0
 15 14  2  0
 16 17  2  0
 16  3  1  0
 18 17  1  0
 19 20  1  0
 19 18  2  0
 20 16  1  0
 21 19  1  0
 22 21  1  0
 23 22  2  0
 24 23  1  0
 24 25  2  0
 25 21  1  0
  1 26  1  0
  2 27  1  0
  8 28  1  0
  9 29  1  0
 11 30  1  0
 12 31  1  0
 13 32  1  0
 14 33  1  0
 17 34  1  0
 18 35  1  0
 22 36  1  0
 23 37  1  0
 25 38  1  0
M  ISO  8  26  14  27  14  28  14  29   9  30  14  31  14  32  14  33  14
M  ISO  5  34  14  35  14  36  14  37  14  38  14
M  END
>  <minimizedAffinity>  (1) 
-6.06063986

>  <minimizedRMSD>  (1) 
4.49778414

$$$$
