
     RDKit          3D

 44 48  0  0  0  0  0  0  0  0999 V2000
   44.8060   35.3150   44.3570 C   0  0  0  0  0  0  0  0  0  0  0  0
   44.4330   35.0700   43.0210 C   0  0  0  0  0  0  0  0  0  0  0  0
   44.7520   33.8270   42.5250 C   0  0  0  0  0  0  0  0  0  0  0  0
   45.3790   32.9290   43.2900 N   0  0  0  0  0  0  0  0  0  0  0  0
   45.7340   33.1810   44.5820 C   0  0  0  0  0  0  0  0  0  0  0  0
   45.4330   34.4050   45.1090 N   0  0  0  0  0  0  0  0  0  0  0  0
   46.4140   32.2100   45.4070 C   0  0  0  0  0  0  0  0  0  0  0  0
   47.4240   31.3350   45.0190 C   0  0  0  0  0  0  0  0  0  0  0  0
   47.7600   30.6220   46.0850 N   0  0  0  0  0  0  0  0  0  0  0  0
   47.0170   30.9960   47.1380 C   0  0  0  0  0  0  0  0  0  0  0  0
   47.0030   30.5420   48.4590 C   0  0  0  0  0  0  0  0  0  0  0  0
   46.1420   31.0730   49.3960 C   0  0  0  0  0  0  0  0  0  0  0  0
   45.2900   32.0680   49.0020 C   0  0  0  0  0  0  0  0  0  0  0  0
   45.2620   32.5560   47.7000 C   0  0  0  0  0  0  0  0  0  0  0  0
   46.1330   32.0120   46.7680 C   0  0  0  0  0  0  0  0  0  0  0  0
   44.3820   33.5860   41.1860 C   0  0  0  0  0  0  0  0  0  0  0  0
   43.4970   34.3260   40.4610 C   0  0  0  0  0  0  0  0  0  0  0  0
   43.1390   34.1260   39.1860 C   0  0  0  0  0  0  0  0  0  0  0  0
   43.8960   32.9080   38.6610 C   0  0  0  0  0  0  0  0  0  0  0  0
   44.9560   32.3180   40.1130 S   0  0  0  0  0  0  0  0  0  0  0  0
   43.9070   32.2580   37.4140 N   0  0  0  0  0  0  0  0  0  0  0  0
   42.9200   31.3600   37.2280 C   0  0  0  0  0  0  0  0  0  0  0  0
   42.8470   30.6720   36.0360 C   0  0  0  0  0  0  0  0  0  0  0  0
   41.8010   29.6530   35.7140 C   0  0  0  0  0  0  0  0  0  0  0  0
   43.8220   30.9750   35.1120 C   0  0  0  0  0  0  0  0  0  0  0  0
   43.7710   30.3500   34.0060 O   0  0  0  0  0  0  0  0  0  0  0  0
   44.8120   31.8700   35.2830 N   0  0  0  0  0  0  0  0  0  0  0  0
   44.8400   32.5250   36.4810 C   0  0  0  0  0  0  0  0  0  0  0  0
   45.7480   33.3710   36.6890 O   0  0  0  0  0  0  0  0  0  0  0  0
   44.5719   36.2946   44.7993 H   0  0  0  0  0  0  0  0  0  0  0  0
   43.9178   35.8267   42.4111 H   0  0  0  0  0  0  0  0  0  0  0  0
   47.8625   31.2505   44.0137 H   0  0  0  0  0  0  0  0  0  0  0  0
   48.4840   29.8896   46.1024 H   0  0  0  0  0  0  0  0  0  0  0  0
   47.6955   29.7417   48.7589 H   0  0  0  0  0  0  0  0  0  0  0  0
   46.1403   30.7061   50.4330 H   0  0  0  0  0  0  0  0  0  0  0  0
   44.6007   32.4986   49.7433 H   0  0  0  0  0  0  0  0  0  0  0  0
   44.5636   33.3567   47.4154 H   0  0  0  0  0  0  0  0  0  0  0  0
   43.0275   35.1766   40.9768 H   0  0  0  0  0  0  0  0  0  0  0  0
   42.4225   34.7347   38.6149 H   0  0  0  0  0  0  0  0  0  0  0  0
   42.1791   31.1776   38.0203 H   0  0  0  0  0  0  0  0  0  0  0  0
   41.3846   29.2473   36.6478 H   0  0  0  0  0  0  0  0  0  0  0  0
   40.9978   30.1244   35.1287 H   0  0  0  0  0  0  0  0  0  0  0  0
   42.2512   28.8377   35.1287 H   0  0  0  0  0  0  0  0  0  0  0  0
   45.5117   32.0515   34.5492 H   0  0  0  0  0  0  0  0  0  0  0  0
  1  6  2  0
  2  1  1  0
  3  2  2  0
  3  4  1  0
  4  5  2  0
  5  6  1  0
  5  7  1  0
  7 15  1  0
  8  7  2  0
  8  9  1  0
  9 10  1  0
 10 11  2  0
 11 12  1  0
 13 12  2  0
 14 13  1  0
 15 10  1  0
 15 14  2  0
 16  3  1  0
 17 16  2  0
 18 17  1  0
 19 18  2  0
 19 20  1  0
 20 16  1  0
 21 19  1  0
 22 21  1  0
 23 22  2  0
 24 23  1  0
 25 27  1  0
 25 23  1  0
 26 25  2  0
 27 28  1  0
 28 29  2  0
 28 21  1  0
  1 30  1  0
  2 31  1  0
  8 32  1  0
  9 33  1  0
 11 34  1  0
 12 35  1  0
 13 36  1  0
 14 37  1  0
 17 38  1  0
 18 39  1  0
 22 40  1  0
 24 41  1  0
 24 42  1  0
 24 43  1  0
 27 44  1  0
M  ISO  8  30  14  31  14  32  14  33   9  34  14  35  14  36  14  37  14
M  ISO  7  38  14  39  14  40  14  41   8  42   8  43   8  44   9
M  END
>  <minimizedAffinity>  (1) 
-6.17358446

>  <minimizedRMSD>  (1) 
1.0496105

$$$$
