
     RDKit          3D

 37 41  0  0  0  0  0  0  0  0999 V2000
   44.9910   35.9790   43.7830 C   0  0  0  0  0  0  0  0  0  0  0  0
   44.0860   35.8290   42.7130 C   0  0  0  0  0  0  0  0  0  0  0  0
   43.8660   34.5300   42.2820 C   0  0  0  0  0  0  0  0  0  0  0  0
   44.4930   33.5050   42.8690 N   0  0  0  0  0  0  0  0  0  0  0  0
   45.3670   33.6800   43.9070 C   0  0  0  0  0  0  0  0  0  0  0  0
   45.6070   34.9410   44.3570 N   0  0  0  0  0  0  0  0  0  0  0  0
   46.0490   32.5690   44.5360 C   0  0  0  0  0  0  0  0  0  0  0  0
   46.8010   31.5830   43.9050 C   0  0  0  0  0  0  0  0  0  0  0  0
   47.2480   30.7530   44.8540 N   0  0  0  0  0  0  0  0  0  0  0  0
   46.8120   31.1720   46.0550 C   0  0  0  0  0  0  0  0  0  0  0  0
   47.0080   30.6450   47.3320 C   0  0  0  0  0  0  0  0  0  0  0  0
   46.4560   31.2480   48.4430 C   0  0  0  0  0  0  0  0  0  0  0  0
   45.7090   32.3700   48.2850 C   0  0  0  0  0  0  0  0  0  0  0  0
   45.4850   32.9350   47.0260 C   0  0  0  0  0  0  0  0  0  0  0  0
   46.0370   32.3320   45.9170 C   0  0  0  0  0  0  0  0  0  0  0  0
   42.9710   34.3970   41.2070 C   0  0  0  0  0  0  0  0  0  0  0  0
   43.0420   35.0580   40.0180 C   0  0  0  0  0  0  0  0  0  0  0  0
   42.2120   34.9150   38.9690 C   0  0  0  0  0  0  0  0  0  0  0  0
   41.1750   33.8970   39.3170 C   0  0  0  0  0  0  0  0  0  0  0  0
   41.5840   33.3260   41.1110 S   0  0  0  0  0  0  0  0  0  0  0  0
   40.0790   33.3570   38.6240 N   0  0  0  0  0  0  0  0  0  0  0  0
   39.6640   32.0980   38.3900 C   0  0  0  0  0  0  0  0  0  0  0  0
   38.5180   32.1480   37.6480 N   0  0  0  0  0  0  0  0  0  0  0  0
   38.2460   33.4520   37.4370 C   0  0  0  0  0  0  0  0  0  0  0  0
   39.1910   34.1680   38.0280 N   0  0  0  0  0  0  0  0  0  0  0  0
   45.1987   36.9910   44.1609 H   0  0  0  0  0  0  0  0  0  0  0  0
   43.5846   36.6906   42.2480 H   0  0  0  0  0  0  0  0  0  0  0  0
   46.9926   31.5011   42.8249 H   0  0  0  0  0  0  0  0  0  0  0  0
   47.8347   29.9224   44.6903 H   0  0  0  0  0  0  0  0  0  0  0  0
   47.6124   29.7341   47.4547 H   0  0  0  0  0  0  0  0  0  0  0  0
   46.6193   30.8246   49.4450 H   0  0  0  0  0  0  0  0  0  0  0  0
   45.2676   32.8480   49.1720 H   0  0  0  0  0  0  0  0  0  0  0  0
   44.8778   33.8464   46.9225 H   0  0  0  0  0  0  0  0  0  0  0  0
   43.8617   35.7827   39.9040 H   0  0  0  0  0  0  0  0  0  0  0  0
   42.2846   35.4569   38.0145 H   0  0  0  0  0  0  0  0  0  0  0  0
   40.1640   31.1821   38.7380 H   0  0  0  0  0  0  0  0  0  0  0  0
   37.3899   33.8510   36.8732 H   0  0  0  0  0  0  0  0  0  0  0  0
  1  6  2  0
  2  1  1  0
  3  2  2  0
  3  4  1  0
  4  5  2  0
  5  6  1  0
  5  7  1  0
  7 15  1  0
  8  7  2  0
  8  9  1  0
  9 10  1  0
 10 11  2  0
 11 12  1  0
 13 12  2  0
 14 13  1  0
 15 10  1  0
 15 14  2  0
 16  3  1  0
 17 16  2  0
 18 19  2  0
 18 17  1  0
 19 20  1  0
 20 16  1  0
 21 19  1  0
 22 21  1  0
 23 22  2  0
 24 23  1  0
 24 25  2  0
 25 21  1  0
  1 26  1  0
  2 27  1  0
  8 28  1  0
  9 29  1  0
 11 30  1  0
 12 31  1  0
 13 32  1  0
 14 33  1  0
 17 34  1  0
 18 35  1  0
 22 36  1  0
 24 37  1  0
M  ISO  8  26  14  27  14  28  14  29   9  30  14  31  14  32  14  33  14
M  ISO  4  34  14  35  14  36  14  37  14
M  END
>  <minimizedAffinity>  (1) 
-5.97928858

>  <minimizedRMSD>  (1) 
2.2254796

$$$$
