
     RDKit          3D

 34 37  0  0  0  0  0  0  0  0999 V2000
   44.7430   35.7540   44.6000 C   0  0  0  0  0  0  0  0  0  0  0  0
   44.0840   35.5950   43.3650 C   0  0  0  0  0  0  0  0  0  0  0  0
   44.1750   34.3580   42.7960 C   0  0  0  0  0  0  0  0  0  0  0  0
   44.8530   33.3790   43.3970 N   0  0  0  0  0  0  0  0  0  0  0  0
   45.4870   33.5420   44.5900 C   0  0  0  0  0  0  0  0  0  0  0  0
   45.4180   34.7670   45.1910 N   0  0  0  0  0  0  0  0  0  0  0  0
   46.2240   32.4790   45.2400 C   0  0  0  0  0  0  0  0  0  0  0  0
   47.1520   31.6260   44.6550 C   0  0  0  0  0  0  0  0  0  0  0  0
   47.5860   30.8060   45.6130 N   0  0  0  0  0  0  0  0  0  0  0  0
   46.9840   31.0950   46.7640 C   0  0  0  0  0  0  0  0  0  0  0  0
   47.1070   30.5150   48.0510 C   0  0  0  0  0  0  0  0  0  0  0  0
   46.3680   30.9890   49.1120 C   0  0  0  0  0  0  0  0  0  0  0  0
   45.5100   32.0300   48.9140 C   0  0  0  0  0  0  0  0  0  0  0  0
   45.3610   32.6280   47.6640 C   0  0  0  0  0  0  0  0  0  0  0  0
   46.0960   32.1580   46.5980 C   0  0  0  0  0  0  0  0  0  0  0  0
   43.5140   34.1950   41.5550 C   0  0  0  0  0  0  0  0  0  0  0  0
   43.2380   35.1950   40.6670 C   0  0  0  0  0  0  0  0  0  0  0  0
   42.6040   35.0460   39.4780 C   0  0  0  0  0  0  0  0  0  0  0  0
   42.2500   33.6090   39.2880 C   0  0  0  0  0  0  0  0  0  0  0  0
   42.8840   32.7130   40.8400 S   0  0  0  0  0  0  0  0  0  0  0  0
   41.5850   32.9060   38.2340 C   0  0  0  0  0  0  0  0  0  0  0  0
   40.3500   33.0390   38.2250 O   0  0  0  0  0  0  0  0  0  0  0  0
   42.2910   32.1660   37.3420 O   0  0  0  0  0  0  0  0  0  0  0  0
   44.6990   36.7338   45.0981 H   0  0  0  0  0  0  0  0  0  0  0  0
   43.5302   36.4174   42.8887 H   0  0  0  0  0  0  0  0  0  0  0  0
   47.4686   31.6270   43.6015 H   0  0  0  0  0  0  0  0  0  0  0  0
   48.2836   30.0597   45.4815 H   0  0  0  0  0  0  0  0  0  0  0  0
   47.8014   29.6758   48.2045 H   0  0  0  0  0  0  0  0  0  0  0  0
   46.4688   30.5329   50.1079 H   0  0  0  0  0  0  0  0  0  0  0  0
   44.9204   32.4075   49.7625 H   0  0  0  0  0  0  0  0  0  0  0  0
   44.6630   33.4675   47.5299 H   0  0  0  0  0  0  0  0  0  0  0  0
   43.5584   36.2111   40.9406 H   0  0  0  0  0  0  0  0  0  0  0  0
   42.3853   35.8558   38.7664 H   0  0  0  0  0  0  0  0  0  0  0  0
   41.8205   31.6837   36.6167 H   0  0  0  0  0  0  0  0  0  0  0  0
  1  6  2  0
  2  1  1  0
  3  2  2  0
  3  4  1  0
  4  5  2  0
  5  6  1  0
  5  7  1  0
  7 15  1  0
  8  7  2  0
  8  9  1  0
  9 10  1  0
 10 11  2  0
 11 12  1  0
 13 12  2  0
 14 13  1  0
 15 10  1  0
 15 14  2  0
 16  3  1  0
 17 16  2  0
 18 17  1  0
 19 18  2  0
 19 20  1  0
 20 16  1  0
 21 19  1  0
 22 21  2  0
 23 21  1  0
  1 24  1  0
  2 25  1  0
  8 26  1  0
  9 27  1  0
 11 28  1  0
 12 29  1  0
 13 30  1  0
 14 31  1  0
 17 32  1  0
 18 33  1  0
 23 34  1  0
M  ISO  8  24  14  25  14  26  14  27   9  28  14  29  14  30  14  31  14
M  ISO  3  32  14  33  14  34   3
M  END
>  <minimizedAffinity>  (1) 
-5.99823046

>  <minimizedRMSD>  (1) 
0.837062836

$$$$
