
     RDKit          3D

 34 37  0  0  0  0  0  0  0  0999 V2000
   44.7640   35.7710   44.6500 C   0  0  0  0  0  0  0  0  0  0  0  0
   44.1060   35.5980   43.4150 C   0  0  0  0  0  0  0  0  0  0  0  0
   44.1870   34.3540   42.8600 C   0  0  0  0  0  0  0  0  0  0  0  0
   44.8590   33.3690   43.4730 N   0  0  0  0  0  0  0  0  0  0  0  0
   45.4920   33.5470   44.6670 C   0  0  0  0  0  0  0  0  0  0  0  0
   45.4320   34.7840   45.2530 N   0  0  0  0  0  0  0  0  0  0  0  0
   46.2190   32.4850   45.3270 C   0  0  0  0  0  0  0  0  0  0  0  0
   47.1710   31.6460   44.7750 C   0  0  0  0  0  0  0  0  0  0  0  0
   47.5800   30.8230   45.7320 N   0  0  0  0  0  0  0  0  0  0  0  0
   46.9440   31.0920   46.8620 C   0  0  0  0  0  0  0  0  0  0  0  0
   47.0340   30.4990   48.1340 C   0  0  0  0  0  0  0  0  0  0  0  0
   46.2500   30.9590   49.1930 C   0  0  0  0  0  0  0  0  0  0  0  0
   45.3880   31.9930   48.9840 C   0  0  0  0  0  0  0  0  0  0  0  0
   45.2750   32.6040   47.7250 C   0  0  0  0  0  0  0  0  0  0  0  0
   46.0500   32.1520   46.6740 C   0  0  0  0  0  0  0  0  0  0  0  0
   43.5280   34.1780   41.6210 C   0  0  0  0  0  0  0  0  0  0  0  0
   43.2820   35.1660   40.7140 C   0  0  0  0  0  0  0  0  0  0  0  0
   42.6600   35.0220   39.5210 C   0  0  0  0  0  0  0  0  0  0  0  0
   42.2780   33.5800   39.3520 C   0  0  0  0  0  0  0  0  0  0  0  0
   42.8780   32.6990   40.9260 S   0  0  0  0  0  0  0  0  0  0  0  0
   41.5960   32.8960   38.2580 C   0  0  0  0  0  0  0  0  0  0  0  0
   44.7257   36.7572   45.1358 H   0  0  0  0  0  0  0  0  0  0  0  0
   43.5591   36.4183   42.9272 H   0  0  0  0  0  0  0  0  0  0  0  0
   47.5241   31.6590   43.7333 H   0  0  0  0  0  0  0  0  0  0  0  0
   48.2877   30.0840   45.6135 H   0  0  0  0  0  0  0  0  0  0  0  0
   47.7303   29.6630   48.2961 H   0  0  0  0  0  0  0  0  0  0  0  0
   46.3273   30.4917   50.1858 H   0  0  0  0  0  0  0  0  0  0  0  0
   44.7687   32.3561   49.8175 H   0  0  0  0  0  0  0  0  0  0  0  0
   44.5734   33.4380   47.5760 H   0  0  0  0  0  0  0  0  0  0  0  0
   43.6222   36.1783   40.9777 H   0  0  0  0  0  0  0  0  0  0  0  0
   42.4666   35.8267   38.7964 H   0  0  0  0  0  0  0  0  0  0  0  0
   40.8757   32.1736   38.6695 H   0  0  0  0  0  0  0  0  0  0  0  0
   41.0631   33.6336   37.6399 H   0  0  0  0  0  0  0  0  0  0  0  0
   42.3351   32.3653   37.6399 H   0  0  0  0  0  0  0  0  0  0  0  0
  1  6  2  0
  2  1  1  0
  3  2  2  0
  3  4  1  0
  4  5  2  0
  5  6  1  0
  5  7  1  0
  7 15  1  0
  8  7  2  0
  8  9  1  0
  9 10  1  0
 10 11  2  0
 11 12  1  0
 13 12  2  0
 14 13  1  0
 15 10  1  0
 15 14  2  0
 16  3  1  0
 17 16  2  0
 18 17  1  0
 19 18  2  0
 19 20  1  0
 20 16  1  0
 21 19  1  0
  1 22  1  0
  2 23  1  0
  8 24  1  0
  9 25  1  0
 11 26  1  0
 12 27  1  0
 13 28  1  0
 14 29  1  0
 17 30  1  0
 18 31  1  0
 21 32  1  0
 21 33  1  0
 21 34  1  0
M  ISO  8  22  14  23  14  24  14  25   9  26  14  27  14  28  14  29  14
M  ISO  5  30  14  31  14  32   8  33   8  34   8
M  END
>  <minimizedAffinity>  (1) 
-5.70513725

>  <minimizedRMSD>  (1) 
0.613753796

$$$$
