
     RDKit          3D

 39 42  0  0  1  0  0  0  0  0999 V2000
   45.1440   33.9860   41.5200 N   0  0  0  0  0  0  0  0  0  0  0  0
   44.1970   33.9440   40.5400 C   0  0  0  0  0  0  0  0  0  0  0  0
   44.7670   33.5700   39.3850 N   0  0  0  0  0  0  0  0  0  0  0  0
   46.0840   33.3730   39.6390 C   0  0  0  0  0  0  0  0  0  0  0  0
   46.2790   33.6310   40.9330 N   0  0  0  0  0  0  0  0  0  0  0  0
   44.5380   35.6030   43.1990 C   0  0  0  0  0  0  0  0  0  0  0  0
   45.0590   34.3170   42.8920 C   0  0  0  0  0  0  0  0  0  0  0  0
   45.4370   33.5060   43.9380 C   0  0  0  0  0  0  0  0  0  0  0  0
   45.2830   33.9950   45.1940 N   0  0  0  0  0  0  0  0  0  0  0  0
   44.7920   35.2040   45.4650 C   0  0  0  0  0  0  0  0  0  0  0  0
   44.4210   36.0030   44.4600 N   0  0  0  0  0  0  0  0  0  0  0  0
   47.1720   32.9530   38.7160 C   0  0  2  0  0  0  0  0  0  0  0  0
   47.9430   34.0740   37.9960 C   0  0  0  0  0  0  0  0  0  0  0  0
   47.0030   33.1690   37.2370 C   0  0  1  0  0  0  0  0  0  0  0  0
   47.5050   32.0690   36.3700 C   0  0  0  0  0  0  0  0  0  0  0  0
   46.3790   31.7780   35.3640 C   0  0  0  0  0  0  0  0  0  0  0  0
   46.9640   31.1250   34.1150 C   0  0  0  0  0  0  0  0  0  0  0  0
   47.7260   32.2280   33.4260 C   0  0  0  0  0  0  0  0  0  0  0  0
   48.7750   32.8030   34.3060 C   0  0  0  0  0  0  0  0  0  0  0  0
   48.8040   32.2910   35.7160 C   0  0  0  0  0  0  0  0  0  0  0  0
   43.1312   34.1801   40.6756 H   0  0  0  0  0  0  0  0  0  0  0  0
   44.2285   36.2739   42.3840 H   0  0  0  0  0  0  0  0  0  0  0  0
   45.8478   32.5008   43.7624 H   0  0  0  0  0  0  0  0  0  0  0  0
   44.6929   35.5414   46.5073 H   0  0  0  0  0  0  0  0  0  0  0  0
   47.4300   32.0850   39.3405 H   0  0  0  0  0  0  0  0  0  0  0  0
   47.6765   35.1271   38.1691 H   0  0  0  0  0  0  0  0  0  0  0  0
   49.0007   34.3608   37.9013 H   0  0  0  0  0  0  0  0  0  0  0  0
   46.1783   33.3869   36.5424 H   0  0  0  0  0  0  0  0  0  0  0  0
   47.7357   31.2028   37.0076 H   0  0  0  0  0  0  0  0  0  0  0  0
   45.6451   31.0989   35.8225 H   0  0  0  0  0  0  0  0  0  0  0  0
   45.8852   32.7208   35.0859 H   0  0  0  0  0  0  0  0  0  0  0  0
   47.6384   30.3002   34.3885 H   0  0  0  0  0  0  0  0  0  0  0  0
   46.1860   30.6913   33.4695 H   0  0  0  0  0  0  0  0  0  0  0  0
   48.2026   31.8212   32.5219 H   0  0  0  0  0  0  0  0  0  0  0  0
   47.0157   33.0282   33.1709 H   0  0  0  0  0  0  0  0  0  0  0  0
   49.7524   32.5876   33.8496 H   0  0  0  0  0  0  0  0  0  0  0  0
   48.5413   33.8750   34.3845 H   0  0  0  0  0  0  0  0  0  0  0  0
   49.3415   31.3313   35.7101 H   0  0  0  0  0  0  0  0  0  0  0  0
   49.2871   33.0877   36.3007 H   0  0  0  0  0  0  0  0  0  0  0  0
  1  7  1  0
  2  1  1  0
  3  4  1  0
  3  2  2  0
  4  5  2  0
  5  1  1  0
  6 11  2  0
  7  6  1  0
  7  8  2  0
  8  9  1  0
  9 10  2  0
 11 10  1  0
 12  4  1  0
 13 12  1  0
 14 13  1  0
 14 12  1  0
 15 14  1  0
 16 15  1  0
 17 16  1  0
 18 17  1  0
 18 19  1  0
 19 20  1  0
 20 15  1  0
  2 21  1  0
  6 22  1  0
  8 23  1  0
 10 24  1  0
 12 25  1  6
 13 26  1  0
 13 27  1  0
 14 28  1  1
 15 29  1  0
 16 30  1  0
 16 31  1  0
 17 32  1  0
 17 33  1  0
 18 34  1  0
 18 35  1  0
 19 36  1  0
 19 37  1  0
 20 38  1  0
 20 39  1  0
M  ISO  8  21  14  22  14  23  14  24  14  25  13  26  13  27  13  28  13
M  ISO  8  29  13  30  13  31  13  32  13  33  13  34  13  35  13  36  13
M  ISO  3  37  13  38  13  39  13
M  END
>  <minimizedAffinity>  (1) 
-4.53409815

>  <minimizedRMSD>  (1) 
1.52724671

$$$$
