
     RDKit          3D

 41 45  0  0  0  0  0  0  0  0999 V2000
   44.8270   35.2640   44.2960 C   0  0  0  0  0  0  0  0  0  0  0  0
   44.5270   35.0130   42.9400 C   0  0  0  0  0  0  0  0  0  0  0  0
   44.8930   33.7820   42.4540 C   0  0  0  0  0  0  0  0  0  0  0  0
   45.4960   32.8860   43.2330 N   0  0  0  0  0  0  0  0  0  0  0  0
   45.7850   33.1330   44.5430 C   0  0  0  0  0  0  0  0  0  0  0  0
   45.4360   34.3520   45.0690 N   0  0  0  0  0  0  0  0  0  0  0  0
   46.4440   32.1640   45.3920 C   0  0  0  0  0  0  0  0  0  0  0  0
   47.4500   31.2770   45.0320 C   0  0  0  0  0  0  0  0  0  0  0  0
   47.7710   30.5700   46.1010 N   0  0  0  0  0  0  0  0  0  0  0  0
   47.0230   30.9590   47.1290 C   0  0  0  0  0  0  0  0  0  0  0  0
   46.9730   30.5320   48.4710 C   0  0  0  0  0  0  0  0  0  0  0  0
   46.0980   31.0890   49.3890 C   0  0  0  0  0  0  0  0  0  0  0  0
   45.2600   32.0850   48.9700 C   0  0  0  0  0  0  0  0  0  0  0  0
   45.2690   32.5450   47.6500 C   0  0  0  0  0  0  0  0  0  0  0  0
   46.1430   31.9860   46.7420 C   0  0  0  0  0  0  0  0  0  0  0  0
   44.5930   33.5620   41.0980 C   0  0  0  0  0  0  0  0  0  0  0  0
   43.5870   34.1460   40.3840 C   0  0  0  0  0  0  0  0  0  0  0  0
   43.3140   33.9450   39.0780 C   0  0  0  0  0  0  0  0  0  0  0  0
   44.2900   32.9670   38.5060 C   0  0  0  0  0  0  0  0  0  0  0  0
   45.4320   32.5140   39.9620 S   0  0  0  0  0  0  0  0  0  0  0  0
   44.4570   32.4090   37.2110 C   0  0  0  0  0  0  0  0  0  0  0  0
   43.6000   31.4190   36.9020 C   0  0  0  0  0  0  0  0  0  0  0  0
   43.6850   30.8050   35.6450 C   0  0  0  0  0  0  0  0  0  0  0  0
   44.6690   31.2550   34.7630 C   0  0  0  0  0  0  0  0  0  0  0  0
   45.5190   32.2750   35.1380 C   0  0  0  0  0  0  0  0  0  0  0  0
   45.4390   32.8920   36.3930 C   0  0  0  0  0  0  0  0  0  0  0  0
   44.5534   36.2361   44.7321 H   0  0  0  0  0  0  0  0  0  0  0  0
   44.0277   35.7619   42.3076 H   0  0  0  0  0  0  0  0  0  0  0  0
   47.9002   31.1801   44.0330 H   0  0  0  0  0  0  0  0  0  0  0  0
   48.4890   29.8322   46.1330 H   0  0  0  0  0  0  0  0  0  0  0  0
   47.6507   29.7305   48.8001 H   0  0  0  0  0  0  0  0  0  0  0  0
   46.0777   30.7381   50.4313 H   0  0  0  0  0  0  0  0  0  0  0  0
   44.5610   32.5357   49.6899 H   0  0  0  0  0  0  0  0  0  0  0  0
   44.5838   33.3470   47.3381 H   0  0  0  0  0  0  0  0  0  0  0  0
   42.9361   34.8482   40.9255 H   0  0  0  0  0  0  0  0  0  0  0  0
   42.4981   34.4269   38.5194 H   0  0  0  0  0  0  0  0  0  0  0  0
   42.8403   31.0948   37.6285 H   0  0  0  0  0  0  0  0  0  0  0  0
   42.9978   29.9939   35.3623 H   0  0  0  0  0  0  0  0  0  0  0  0
   44.7668   30.7960   33.7681 H   0  0  0  0  0  0  0  0  0  0  0  0
   46.2860   32.6155   34.4269 H   0  0  0  0  0  0  0  0  0  0  0  0
   46.1157   33.7041   36.6970 H   0  0  0  0  0  0  0  0  0  0  0  0
  1  6  2  0
  2  1  1  0
  3  2  2  0
  3  4  1  0
  4  5  2  0
  5  6  1  0
  5  7  1  0
  7 15  1  0
  8  7  2  0
  8  9  1  0
  9 10  1  0
 10 11  2  0
 11 12  1  0
 13 12  2  0
 14 13  1  0
 15 10  1  0
 15 14  2  0
 16  3  1  0
 17 16  2  0
 18 17  1  0
 19 18  2  0
 19 20  1  0
 20 16  1  0
 21 19  1  0
 22 21  2  0
 23 22  1  0
 24 25  1  0
 24 23  2  0
 25 26  2  0
 26 21  1  0
  1 27  1  0
  2 28  1  0
  8 29  1  0
  9 30  1  0
 11 31  1  0
 12 32  1  0
 13 33  1  0
 14 34  1  0
 17 35  1  0
 18 36  1  0
 22 37  1  0
 23 38  1  0
 24 39  1  0
 25 40  1  0
 26 41  1  0
M  ISO  8  27  14  28  14  29  14  30   9  31  14  32  14  33  14  34  14
M  ISO  7  35  14  36  14  37  14  38  14  39  14  40  14  41  14
M  END
>  <minimizedAffinity>  (1) 
-5.67877579

>  <minimizedRMSD>  (1) 
1.15216076

$$$$
