
     RDKit          3D

 32 33  0  0  0  0  0  0  0  0999 V2000
   47.3440   33.3930   42.8490 C   0  0  0  0  0  0  0  0  0  0  0  0
   48.0870   32.3490   42.2450 C   0  0  0  0  0  0  0  0  0  0  0  0
   48.3620   31.1970   43.0280 C   0  0  0  0  0  0  0  0  0  0  0  0
   47.8990   31.1590   44.3070 N   0  0  0  0  0  0  0  0  0  0  0  0
   47.1880   32.1930   44.8370 C   0  0  0  0  0  0  0  0  0  0  0  0
   46.9160   33.2960   44.1150 N   0  0  0  0  0  0  0  0  0  0  0  0
   46.6920   32.1790   46.1770 N   0  0  0  0  0  0  0  0  0  0  0  0
   47.2110   31.2550   47.0020 C   0  0  0  0  0  0  0  0  0  0  0  0
   46.8260   31.1270   48.3170 C   0  0  0  0  0  0  0  0  0  0  0  0
   45.8580   31.9940   48.8100 C   0  0  0  0  0  0  0  0  0  0  0  0
   45.4220   31.9810   49.9880 O   0  0  0  0  0  0  0  0  0  0  0  0
   45.3560   32.9080   47.9620 N   0  0  0  0  0  0  0  0  0  0  0  0
   45.7500   33.0110   46.6830 C   0  0  0  0  0  0  0  0  0  0  0  0
   45.2800   33.8600   45.9030 O   0  0  0  0  0  0  0  0  0  0  0  0
   47.0510   34.6050   42.0440 C   0  0  0  0  0  0  0  0  0  0  0  0
   46.0440   35.4090   42.8640 C   0  0  0  0  0  0  0  0  0  0  0  0
   46.4130   34.2600   40.7180 C   0  0  0  0  0  0  0  0  0  0  0  0
   48.2900   35.4220   41.9150 C   0  0  0  0  0  0  0  0  0  0  0  0
   48.4386   32.4281   41.2057 H   0  0  0  0  0  0  0  0  0  0  0  0
   48.9352   30.3559   42.6110 H   0  0  0  0  0  0  0  0  0  0  0  0
   47.9774   30.5705   46.6094 H   0  0  0  0  0  0  0  0  0  0  0  0
   47.2737   30.3570   48.9625 H   0  0  0  0  0  0  0  0  0  0  0  0
   44.6368   33.5585   48.3091 H   0  0  0  0  0  0  0  0  0  0  0  0
   46.2374   35.2546   43.9358 H   0  0  0  0  0  0  0  0  0  0  0  0
   46.1451   36.4776   42.6234 H   0  0  0  0  0  0  0  0  0  0  0  0
   45.0243   35.0738   42.6234 H   0  0  0  0  0  0  0  0  0  0  0  0
   45.4579   33.7435   40.8940 H   0  0  0  0  0  0  0  0  0  0  0  0
   46.2312   35.1827   40.1475 H   0  0  0  0  0  0  0  0  0  0  0  0
   47.0856   33.6027   40.1475 H   0  0  0  0  0  0  0  0  0  0  0  0
   48.6699   35.6725   42.9164 H   0  0  0  0  0  0  0  0  0  0  0  0
   49.0519   34.8486   41.3667 H   0  0  0  0  0  0  0  0  0  0  0  0
   48.0630   36.3482   41.3667 H   0  0  0  0  0  0  0  0  0  0  0  0
  1  6  2  0
  2  1  1  0
  2  3  2  0
  3  4  1  0
  4  5  2  0
  5  7  1  0
  6  5  1  0
  7 13  1  0
  7  8  1  0
  8  9  2  0
  9 10  1  0
 10 11  2  0
 12 10  1  0
 13 12  1  0
 14 13  2  0
 15  1  1  0
 15 16  1  0
 17 15  1  0
 18 15  1  0
  2 19  1  0
  3 20  1  0
  8 21  1  0
  9 22  1  0
 12 23  1  0
 16 24  1  0
 16 25  1  0
 16 26  1  0
 17 27  1  0
 17 28  1  0
 17 29  1  0
 18 30  1  0
 18 31  1  0
 18 32  1  0
M  ISO  8  19  14  20  14  21  14  22  14  23   9  24   8  25   8  26   8
M  ISO  6  27   8  28   8  29   8  30   8  31   8  32   8
M  END
>  <minimizedAffinity>  (1) 
-5.47334146

>  <minimizedRMSD>  (1) 
3.30375051

$$$$
