
     RDKit          3D

 23 24  0  0  0  0  0  0  0  0999 V2000
   45.6690   35.3380   43.2710 C   0  0  0  0  0  0  0  0  0  0  0  0
   46.4250   34.7270   42.2610 C   0  0  0  0  0  0  0  0  0  0  0  0
   47.1040   33.5340   42.5990 C   0  0  0  0  0  0  0  0  0  0  0  0
   46.9930   33.0460   43.8600 N   0  0  0  0  0  0  0  0  0  0  0  0
   46.2360   33.6920   44.7980 C   0  0  0  0  0  0  0  0  0  0  0  0
   45.5810   34.8270   44.5050 N   0  0  0  0  0  0  0  0  0  0  0  0
   46.0950   33.2100   46.1320 N   0  0  0  0  0  0  0  0  0  0  0  0
   46.9760   32.2630   46.5250 C   0  0  0  0  0  0  0  0  0  0  0  0
   46.9540   31.7080   47.7950 C   0  0  0  0  0  0  0  0  0  0  0  0
   46.0040   32.1290   48.6910 C   0  0  0  0  0  0  0  0  0  0  0  0
   45.8950   31.6920   49.8630 O   0  0  0  0  0  0  0  0  0  0  0  0
   45.1460   33.0740   48.2600 N   0  0  0  0  0  0  0  0  0  0  0  0
   45.1830   33.6010   47.0260 C   0  0  0  0  0  0  0  0  0  0  0  0
   44.3680   34.4810   46.6560 O   0  0  0  0  0  0  0  0  0  0  0  0
   44.9710   36.5650   42.9250 C   0  0  0  0  0  0  0  0  0  0  0  0
   45.3430   37.6690   43.4020 O   0  0  0  0  0  0  0  0  0  0  0  0
   43.8860   36.5300   42.0660 O   0  0  0  0  0  0  0  0  0  0  0  0
   46.4872   35.1567   41.2503 H   0  0  0  0  0  0  0  0  0  0  0  0
   47.7141   33.0085   41.8496 H   0  0  0  0  0  0  0  0  0  0  0  0
   47.7387   31.9201   45.8104 H   0  0  0  0  0  0  0  0  0  0  0  0
   47.6883   30.9404   48.0806 H   0  0  0  0  0  0  0  0  0  0  0  0
   44.4230   33.4101   48.9122 H   0  0  0  0  0  0  0  0  0  0  0  0
   43.4126   37.3674   41.8322 H   0  0  0  0  0  0  0  0  0  0  0  0
  1  6  2  0
  2  3  2  0
  2  1  1  0
  3  4  1  0
  4  5  2  0
  5  7  1  0
  6  5  1  0
  7  8  1  0
  7 13  1  0
  8  9  2  0
  9 10  1  0
 10 11  2  0
 12 10  1  0
 13 12  1  0
 14 13  2  0
 15  1  1  0
 15 16  2  0
 17 15  1  0
  2 18  1  0
  3 19  1  0
  8 20  1  0
  9 21  1  0
 12 22  1  0
 17 23  1  0
M  ISO  6  18  14  19  14  20  14  21  14  22   9  23   3
M  END
>  <minimizedAffinity>  (1) 
-5.14612961

>  <minimizedRMSD>  (1) 
1.26525652

$$$$
