
     RDKit          3D

 27 29  0  0  0  0  0  0  0  0999 V2000
   46.5610   34.3850   43.0750 C   0  0  0  0  0  0  0  0  0  0  0  0
   47.3930   33.5610   42.2690 C   0  0  0  0  0  0  0  0  0  0  0  0
   47.9020   32.3930   42.8740 C   0  0  0  0  0  0  0  0  0  0  0  0
   47.5730   32.1310   44.1610 N   0  0  0  0  0  0  0  0  0  0  0  0
   46.7720   32.9550   44.8900 C   0  0  0  0  0  0  0  0  0  0  0  0
   46.2820   34.0600   44.3370 N   0  0  0  0  0  0  0  0  0  0  0  0
   46.4170   32.6950   46.2420 N   0  0  0  0  0  0  0  0  0  0  0  0
   47.1310   31.7590   46.8890 C   0  0  0  0  0  0  0  0  0  0  0  0
   46.8870   31.4130   48.2040 C   0  0  0  0  0  0  0  0  0  0  0  0
   45.8760   32.0480   48.8870 C   0  0  0  0  0  0  0  0  0  0  0  0
   45.5570   31.8260   50.0770 O   0  0  0  0  0  0  0  0  0  0  0  0
   45.1740   32.9840   48.2140 N   0  0  0  0  0  0  0  0  0  0  0  0
   45.4240   33.3090   46.9310 C   0  0  0  0  0  0  0  0  0  0  0  0
   44.7650   34.1790   46.3230 O   0  0  0  0  0  0  0  0  0  0  0  0
   46.0240   35.6160   42.4400 C   0  0  0  0  0  0  0  0  0  0  0  0
   44.5750   35.7670   42.1540 C   0  0  0  0  0  0  0  0  0  0  0  0
   45.1360   36.4440   43.3640 C   0  0  0  0  0  0  0  0  0  0  0  0
   47.6279   33.8211   41.2263 H   0  0  0  0  0  0  0  0  0  0  0  0
   48.5535   31.7083   42.3112 H   0  0  0  0  0  0  0  0  0  0  0  0
   47.9423   31.2476   46.3502 H   0  0  0  0  0  0  0  0  0  0  0  0
   47.4933   30.6397   48.6984 H   0  0  0  0  0  0  0  0  0  0  0  0
   44.4114   33.4726   48.7045 H   0  0  0  0  0  0  0  0  0  0  0  0
   46.9171   35.7535   41.8127 H   0  0  0  0  0  0  0  0  0  0  0  0
   44.2486   36.3698   41.2937 H   0  0  0  0  0  0  0  0  0  0  0  0
   43.7482   35.0621   41.9819 H   0  0  0  0  0  0  0  0  0  0  0  0
   44.8875   36.0744   44.3698 H   0  0  0  0  0  0  0  0  0  0  0  0
   45.1507   37.4736   43.7509 H   0  0  0  0  0  0  0  0  0  0  0  0
  1  6  2  0
  2  3  2  0
  2  1  1  0
  3  4  1  0
  4  5  2  0
  5  7  1  0
  6  5  1  0
  7  8  1  0
  7 13  1  0
  8  9  2  0
  9 10  1  0
 10 11  2  0
 12 10  1  0
 13 12  1  0
 14 13  2  0
 15  1  1  0
 15 17  1  0
 16 15  1  0
 16 17  1  0
  2 18  1  0
  3 19  1  0
  8 20  1  0
  9 21  1  0
 12 22  1  0
 15 23  1  0
 16 24  1  0
 16 25  1  0
 17 26  1  0
 17 27  1  0
M  ISO  8  18  14  19  14  20  14  21  14  22   9  23  13  24  13  25  13
M  ISO  2  26  13  27  13
M  END
>  <minimizedAffinity>  (1) 
-5.17604113

>  <minimizedRMSD>  (1) 
2.10688949

$$$$
