
     RDKit          3D

 30 33  0  0  1  0  0  0  0  0999 V2000
   45.7470   34.0970   41.6640 N   0  0  0  0  0  0  0  0  0  0  0  0
   44.9610   33.7550   40.6080 C   0  0  0  0  0  0  0  0  0  0  0  0
   45.7230   33.5260   39.5320 N   0  0  0  0  0  0  0  0  0  0  0  0
   47.0100   33.7300   39.9200 C   0  0  0  0  0  0  0  0  0  0  0  0
   46.9890   34.0730   41.2090 N   0  0  0  0  0  0  0  0  0  0  0  0
   44.8080   35.6960   43.2110 C   0  0  0  0  0  0  0  0  0  0  0  0
   45.4240   34.4320   43.0040 C   0  0  0  0  0  0  0  0  0  0  0  0
   45.6570   33.6420   44.1060 C   0  0  0  0  0  0  0  0  0  0  0  0
   45.2800   34.1280   45.3210 N   0  0  0  0  0  0  0  0  0  0  0  0
   44.7030   35.3150   45.4920 C   0  0  0  0  0  0  0  0  0  0  0  0
   44.4720   36.0900   44.4380 N   0  0  0  0  0  0  0  0  0  0  0  0
   48.2770   33.6280   39.1290 C   0  0  2  0  0  0  0  0  0  0  0  0
   48.3150   34.4220   37.8050 C   0  0  0  0  0  0  0  0  0  0  0  0
   48.2700   32.8840   37.8260 C   0  0  1  0  0  0  0  0  0  0  0  0
   49.4470   32.1560   37.4090 N   0  0  0  0  0  0  0  0  0  0  0  0
   50.5610   31.9660   38.1120 N   0  0  0  0  0  0  0  0  0  0  0  0
   51.4220   31.2410   37.3830 C   0  0  0  0  0  0  0  0  0  0  0  0
   50.8280   30.9620   36.1710 C   0  0  0  0  0  0  0  0  0  0  0  0
   49.5660   31.5580   36.2130 C   0  0  0  0  0  0  0  0  0  0  0  0
   43.8640   33.6782   40.6344 H   0  0  0  0  0  0  0  0  0  0  0  0
   44.6074   36.3532   42.3520 H   0  0  0  0  0  0  0  0  0  0  0  0
   46.1305   32.6539   44.0092 H   0  0  0  0  0  0  0  0  0  0  0  0
   44.4191   35.6523   46.4998 H   0  0  0  0  0  0  0  0  0  0  0  0
   48.9007   33.5628   40.0327 H   0  0  0  0  0  0  0  0  0  0  0  0
   49.2323   34.9461   37.4985 H   0  0  0  0  0  0  0  0  0  0  0  0
   47.7135   35.2218   37.3483 H   0  0  0  0  0  0  0  0  0  0  0  0
   47.6141   32.1172   37.3881 H   0  0  0  0  0  0  0  0  0  0  0  0
   52.4273   30.9241   37.6976 H   0  0  0  0  0  0  0  0  0  0  0  0
   51.2604   30.3865   35.3393 H   0  0  0  0  0  0  0  0  0  0  0  0
   48.8097   31.5407   35.4144 H   0  0  0  0  0  0  0  0  0  0  0  0
  1  7  1  0
  2  1  1  0
  3  4  1  0
  3  2  2  0
  4  5  2  0
  5  1  1  0
  6 11  2  0
  7  6  1  0
  7  8  2  0
  8  9  1  0
  9 10  2  0
 11 10  1  0
 12  4  1  0
 13 14  1  0
 13 12  1  0
 14 12  1  0
 15 14  1  0
 15 16  1  0
 17 16  2  0
 18 19  2  0
 18 17  1  0
 19 15  1  0
  2 20  1  0
  6 21  1  0
  8 22  1  0
 10 23  1  0
 12 24  1  1
 13 25  1  0
 13 26  1  0
 14 27  1  6
 17 28  1  0
 18 29  1  0
 19 30  1  0
M  ISO  8  20  14  21  14  22  14  23  14  24  13  25  13  26  13  27  13
M  ISO  3  28  14  29  14  30  14
M  END
>  <minimizedAffinity>  (1) 
-4.4921484

>  <minimizedRMSD>  (1) 
0.239220098

$$$$
