
     RDKit          3D

 35 38  0  0  1  0  0  0  0  0999 V2000
   45.8150   34.1170   41.6140 N   0  0  0  0  0  0  0  0  0  0  0  0
   45.0620   33.6480   40.5710 C   0  0  0  0  0  0  0  0  0  0  0  0
   45.8480   33.4560   39.5010 N   0  0  0  0  0  0  0  0  0  0  0  0
   47.1070   33.8040   39.8700 C   0  0  0  0  0  0  0  0  0  0  0  0
   47.0380   34.1930   41.1430 N   0  0  0  0  0  0  0  0  0  0  0  0
   44.8880   35.7570   43.1150 C   0  0  0  0  0  0  0  0  0  0  0  0
   45.4620   34.4690   42.9330 C   0  0  0  0  0  0  0  0  0  0  0  0
   45.6260   33.6800   44.0480 C   0  0  0  0  0  0  0  0  0  0  0  0
   45.2260   34.1850   45.2480 N   0  0  0  0  0  0  0  0  0  0  0  0
   44.6920   35.3940   45.3920 C   0  0  0  0  0  0  0  0  0  0  0  0
   44.5260   36.1740   44.3220 N   0  0  0  0  0  0  0  0  0  0  0  0
   48.3660   33.7910   39.0740 C   0  0  2  0  0  0  0  0  0  0  0  0
   48.3310   34.5280   37.7210 C   0  0  0  0  0  0  0  0  0  0  0  0
   48.4080   33.0070   37.7930 C   0  0  1  0  0  0  0  0  0  0  0  0
   49.6000   32.3220   37.4840 N   0  0  0  0  0  0  0  0  0  0  0  0
   50.2130   31.6100   38.5690 C   0  0  0  0  0  0  0  0  0  0  0  0
   51.2590   30.7740   37.8620 C   0  0  0  0  0  0  0  0  0  0  0  0
   51.0080   30.9080   36.3930 C   0  0  0  0  0  0  0  0  0  0  0  0
   49.5880   31.4840   36.3410 C   0  0  0  0  0  0  0  0  0  0  0  0
   43.9791   33.4579   40.6052 H   0  0  0  0  0  0  0  0  0  0  0  0
   44.7423   36.4152   42.2458 H   0  0  0  0  0  0  0  0  0  0  0  0
   46.0657   32.6745   43.9728 H   0  0  0  0  0  0  0  0  0  0  0  0
   44.3886   35.7495   46.3878 H   0  0  0  0  0  0  0  0  0  0  0  0
   48.9980   33.8172   39.9740 H   0  0  0  0  0  0  0  0  0  0  0  0
   49.2013   35.1111   37.3855 H   0  0  0  0  0  0  0  0  0  0  0  0
   47.6630   35.2588   37.2417 H   0  0  0  0  0  0  0  0  0  0  0  0
   47.8111   32.2033   37.3372 H   0  0  0  0  0  0  0  0  0  0  0  0
   50.6762   32.3022   39.2875 H   0  0  0  0  0  0  0  0  0  0  0  0
   49.5019   31.0147   39.1606 H   0  0  0  0  0  0  0  0  0  0  0  0
   52.2660   31.1419   38.1081 H   0  0  0  0  0  0  0  0  0  0  0  0
   51.1976   29.7215   38.1759 H   0  0  0  0  0  0  0  0  0  0  0  0
   51.7311   31.5946   35.9287 H   0  0  0  0  0  0  0  0  0  0  0  0
   51.1132   29.9598   35.8454 H   0  0  0  0  0  0  0  0  0  0  0  0
   49.4179   32.0592   35.4189 H   0  0  0  0  0  0  0  0  0  0  0  0
   48.7893   30.7277   36.3388 H   0  0  0  0  0  0  0  0  0  0  0  0
  1  7  1  0
  2  1  1  0
  3  4  1  0
  3  2  2  0
  4  5  2  0
  5  1  1  0
  6 11  2  0
  7  6  1  0
  7  8  2  0
  8  9  1  0
  9 10  2  0
 11 10  1  0
 12  4  1  0
 13 14  1  0
 13 12  1  0
 14 12  1  0
 15 14  1  0
 15 16  1  0
 17 16  1  0
 18 17  1  0
 19 18  1  0
 19 15  1  0
  2 20  1  0
  6 21  1  0
  8 22  1  0
 10 23  1  0
 12 24  1  1
 13 25  1  0
 13 26  1  0
 14 27  1  6
 16 28  1  0
 16 29  1  0
 17 30  1  0
 17 31  1  0
 18 32  1  0
 18 33  1  0
 19 34  1  0
 19 35  1  0
M  ISO  8  20  14  21  14  22  14  23  14  24  13  25  13  26  13  27  13
M  ISO  8  28  13  29  13  30  13  31  13  32  13  33  13  34  13  35  13
M  END
>  <minimizedAffinity>  (1) 
-4.4795866

>  <minimizedRMSD>  (1) 
0.504429996

$$$$
