
     RDKit          3D

 43 46  0  0  1  0  0  0  0  0999 V2000
   47.6030   32.8720   43.0170 C   0  0  0  0  0  0  0  0  0  0  0  0
   48.2700   31.7680   42.4890 C   0  0  0  0  0  0  0  0  0  0  0  0
   48.4380   30.6420   43.3210 C   0  0  0  0  0  0  0  0  0  0  0  0
   47.9450   30.6820   44.5950 N   0  0  0  0  0  0  0  0  0  0  0  0
   47.2920   31.8040   45.0640 C   0  0  0  0  0  0  0  0  0  0  0  0
   47.1340   32.8700   44.2770 N   0  0  0  0  0  0  0  0  0  0  0  0
   46.7610   31.8460   46.3740 N   0  0  0  0  0  0  0  0  0  0  0  0
   47.1720   30.9370   47.2570 C   0  0  0  0  0  0  0  0  0  0  0  0
   46.7010   30.8890   48.5560 C   0  0  0  0  0  0  0  0  0  0  0  0
   45.7690   31.8130   48.9720 C   0  0  0  0  0  0  0  0  0  0  0  0
   45.2840   31.8470   50.1300 O   0  0  0  0  0  0  0  0  0  0  0  0
   45.3620   32.7340   48.0530 N   0  0  0  0  0  0  0  0  0  0  0  0
   45.8350   32.7540   46.8070 C   0  0  0  0  0  0  0  0  0  0  0  0
   45.4510   33.6090   45.9720 O   0  0  0  0  0  0  0  0  0  0  0  0
   47.4400   33.9940   42.1000 C   0  0  2  0  0  0  0  0  0  0  0  0
   48.6600   34.1710   41.1850 C   0  0  0  0  0  0  0  0  0  0  0  0
   47.0290   35.2980   42.6760 C   0  0  0  0  0  0  0  0  0  0  0  0
   45.5790   35.4360   42.8440 C   0  0  0  0  0  0  0  0  0  0  0  0
   44.7470   35.9490   43.8160 C   0  0  0  0  0  0  0  0  0  0  0  0
   43.4540   35.8270   43.4730 N   0  0  0  0  0  0  0  0  0  0  0  0
   43.4280   35.2280   42.2640 C   0  0  0  0  0  0  0  0  0  0  0  0
   42.3160   34.8930   41.5050 C   0  0  0  0  0  0  0  0  0  0  0  0
   42.5380   34.2780   40.2840 C   0  0  0  0  0  0  0  0  0  0  0  0
   43.8020   34.0080   39.8350 C   0  0  0  0  0  0  0  0  0  0  0  0
   44.8840   34.3520   40.6100 C   0  0  0  0  0  0  0  0  0  0  0  0
   44.7190   34.9710   41.8430 C   0  0  0  0  0  0  0  0  0  0  0  0
   48.6526   31.7748   41.4577 H   0  0  0  0  0  0  0  0  0  0  0  0
   48.9575   29.7459   42.9506 H   0  0  0  0  0  0  0  0  0  0  0  0
   47.9175   30.1933   46.9392 H   0  0  0  0  0  0  0  0  0  0  0  0
   47.0677   30.1193   49.2510 H   0  0  0  0  0  0  0  0  0  0  0  0
   44.6646   33.4391   48.3312 H   0  0  0  0  0  0  0  0  0  0  0  0
   46.5635   33.6810   41.5136 H   0  0  0  0  0  0  0  0  0  0  0  0
   49.5631   34.3020   41.7992 H   0  0  0  0  0  0  0  0  0  0  0  0
   48.7745   33.2801   40.5501 H   0  0  0  0  0  0  0  0  0  0  0  0
   48.5166   35.0577   40.5501 H   0  0  0  0  0  0  0  0  0  0  0  0
   47.5051   35.4081   43.6615 H   0  0  0  0  0  0  0  0  0  0  0  0
   47.3467   36.0774   41.9677 H   0  0  0  0  0  0  0  0  0  0  0  0
   45.0980   36.4017   44.7551 H   0  0  0  0  0  0  0  0  0  0  0  0
   42.6400   36.1316   44.0257 H   0  0  0  0  0  0  0  0  0  0  0  0
   41.2970   35.1076   41.8594 H   0  0  0  0  0  0  0  0  0  0  0  0
   41.6764   33.9996   39.6595 H   0  0  0  0  0  0  0  0  0  0  0  0
   43.9513   33.5192   38.8609 H   0  0  0  0  0  0  0  0  0  0  0  0
   45.8992   34.1332   40.2473 H   0  0  0  0  0  0  0  0  0  0  0  0
  1  6  1  0
  2  1  2  0
  2  3  1  0
  3  4  2  0
  4  5  1  0
  5  7  1  0
  6  5  2  0
  7 13  1  0
  7  8  1  0
  8  9  2  0
  9 10  1  0
 10 11  2  0
 12 10  1  0
 13 12  1  0
 14 13  2  0
 15 17  1  0
 15  1  1  0
 16 15  1  0
 17 18  1  0
 18 19  2  0
 20 19  1  0
 21 20  1  0
 22 21  2  0
 23 22  1  0
 24 23  2  0
 24 25  1  0
 25 26  2  0
 26 21  1  0
 26 18  1  0
  2 27  1  0
  3 28  1  0
  8 29  1  0
  9 30  1  0
 12 31  1  0
 15 32  1  6
 16 33  1  0
 16 34  1  0
 16 35  1  0
 17 36  1  0
 17 37  1  0
 19 38  1  0
 20 39  1  0
 22 40  1  0
 23 41  1  0
 24 42  1  0
 25 43  1  0
M  ISO  8  27  14  28  14  29  14  30  14  31   9  32   8  33   8  34   8
M  ISO  8  35   8  36   8  37   8  38  14  39   9  40  14  41  14  42  14
M  ISO  1  43  14
M  END
>  <minimizedAffinity>  (1) 
-7.03088903

>  <minimizedRMSD>  (1) 
1.23224211

$$$$
