
     RDKit          3D

 39 41  0  0  1  0  0  0  0  0999 V2000
   47.4850   33.0850   42.8820 C   0  0  0  0  0  0  0  0  0  0  0  0
   48.1840   32.0300   42.3200 C   0  0  0  0  0  0  0  0  0  0  0  0
   48.4120   30.8970   43.1240 C   0  0  0  0  0  0  0  0  0  0  0  0
   47.9380   30.8960   44.3930 N   0  0  0  0  0  0  0  0  0  0  0  0
   47.2450   31.9770   44.9020 C   0  0  0  0  0  0  0  0  0  0  0  0
   47.0330   33.0390   44.1480 N   0  0  0  0  0  0  0  0  0  0  0  0
   46.7300   31.9940   46.2310 N   0  0  0  0  0  0  0  0  0  0  0  0
   47.1540   31.0490   47.0550 C   0  0  0  0  0  0  0  0  0  0  0  0
   46.7110   30.9300   48.3590 C   0  0  0  0  0  0  0  0  0  0  0  0
   45.7890   31.8260   48.8350 C   0  0  0  0  0  0  0  0  0  0  0  0
   45.3220   31.8020   50.0000 O   0  0  0  0  0  0  0  0  0  0  0  0
   45.3700   32.7850   47.9740 N   0  0  0  0  0  0  0  0  0  0  0  0
   45.8280   32.8610   46.7230 C   0  0  0  0  0  0  0  0  0  0  0  0
   45.4340   33.7590   45.9400 O   0  0  0  0  0  0  0  0  0  0  0  0
   47.3310   34.2890   42.0390 C   0  0  2  0  0  0  0  0  0  0  0  0
   48.3950   34.4970   41.0330 C   0  0  0  0  0  0  0  0  0  0  0  0
   46.7730   35.4950   42.7040 C   0  0  0  0  0  0  0  0  0  0  0  0
   45.3390   35.5290   42.7380 N   0  0  0  0  0  0  0  0  0  0  0  0
   45.0040   35.0320   41.4930 C   0  0  0  0  0  0  0  0  0  0  0  0
   43.7210   34.8220   40.9460 C   0  0  0  0  0  0  0  0  0  0  0  0
   42.6270   35.1530   41.7530 C   0  0  0  0  0  0  0  0  0  0  0  0
   41.4150   35.0650   41.5140 O   0  0  0  0  0  0  0  0  0  0  0  0
   42.9340   35.6370   42.9660 N   0  0  0  0  0  0  0  0  0  0  0  0
   44.1940   35.7810   43.3470 C   0  0  0  0  0  0  0  0  0  0  0  0
   44.4920   36.2270   44.4670 O   0  0  0  0  0  0  0  0  0  0  0  0
   48.5479   32.0755   41.2829 H   0  0  0  0  0  0  0  0  0  0  0  0
   48.9635   30.0307   42.7300 H   0  0  0  0  0  0  0  0  0  0  0  0
   47.8938   30.3241   46.6847 H   0  0  0  0  0  0  0  0  0  0  0  0
   47.0932   30.1269   49.0063 H   0  0  0  0  0  0  0  0  0  0  0  0
   44.6770   33.4761   48.2950 H   0  0  0  0  0  0  0  0  0  0  0  0
   46.4778   34.0271   41.3959 H   0  0  0  0  0  0  0  0  0  0  0  0
   49.3511   34.6839   41.5438 H   0  0  0  0  0  0  0  0  0  0  0  0
   48.4849   33.5994   40.4035 H   0  0  0  0  0  0  0  0  0  0  0  0
   48.1403   35.3624   40.4035 H   0  0  0  0  0  0  0  0  0  0  0  0
   47.1448   35.5231   43.7389 H   0  0  0  0  0  0  0  0  0  0  0  0
   47.0991   36.3645   42.1144 H   0  0  0  0  0  0  0  0  0  0  0  0
   45.8498   34.7648   40.8424 H   0  0  0  0  0  0  0  0  0  0  0  0
   43.5867   34.4169   39.9322 H   0  0  0  0  0  0  0  0  0  0  0  0
   42.1766   35.9011   43.6121 H   0  0  0  0  0  0  0  0  0  0  0  0
  1  6  1  0
  2  1  2  0
  2  3  1  0
  3  4  2  0
  4  5  1  0
  5  7  1  0
  6  5  2  0
  7 13  1  0
  7  8  1  0
  8  9  2  0
  9 10  1  0
 10 11  2  0
 12 10  1  0
 13 12  1  0
 14 13  2  0
 15 17  1  0
 15  1  1  0
 16 15  1  0
 17 18  1  0
 18 24  1  0
 19 18  1  0
 20 19  2  0
 20 21  1  0
 21 23  1  0
 22 21  2  0
 23 24  1  0
 24 25  2  0
  2 26  1  0
  3 27  1  0
  8 28  1  0
  9 29  1  0
 12 30  1  0
 15 31  1  6
 16 32  1  0
 16 33  1  0
 16 34  1  0
 17 35  1  0
 17 36  1  0
 19 37  1  0
 20 38  1  0
 23 39  1  0
M  ISO  8  26  14  27  14  28  14  29  14  30   9  31   8  32   8  33   8
M  ISO  6  34   8  35   8  36   8  37  14  38  14  39   9
M  END
>  <minimizedAffinity>  (1) 
-6.72233152

>  <minimizedRMSD>  (1) 
0.992896795

$$$$
