
     RDKit          3D

 42 45  0  0  1  0  0  0  0  0999 V2000
   46.9900   34.5530   42.0570 C   0  0  2  0  0  0  0  0  0  0  0  0
   47.2570   33.3670   42.8880 C   0  0  0  0  0  0  0  0  0  0  0  0
   47.9990   32.3620   42.2880 C   0  0  0  0  0  0  0  0  0  0  0  0
   48.3160   31.2280   43.0680 C   0  0  0  0  0  0  0  0  0  0  0  0
   47.8800   31.1820   44.3500 N   0  0  0  0  0  0  0  0  0  0  0  0
   47.1420   32.2140   44.8960 C   0  0  0  0  0  0  0  0  0  0  0  0
   46.8470   33.2750   44.1650 N   0  0  0  0  0  0  0  0  0  0  0  0
   46.6720   32.1760   46.2420 N   0  0  0  0  0  0  0  0  0  0  0  0
   47.1990   31.2570   47.0440 C   0  0  0  0  0  0  0  0  0  0  0  0
   46.8080   31.1070   48.3600 C   0  0  0  0  0  0  0  0  0  0  0  0
   45.8450   31.9240   48.8700 C   0  0  0  0  0  0  0  0  0  0  0  0
   45.3920   31.8980   50.0510 O   0  0  0  0  0  0  0  0  0  0  0  0
   45.3340   32.8410   48.0380 N   0  0  0  0  0  0  0  0  0  0  0  0
   45.7170   32.9850   46.7610 C   0  0  0  0  0  0  0  0  0  0  0  0
   45.2400   33.8410   46.0010 O   0  0  0  0  0  0  0  0  0  0  0  0
   48.1760   35.3880   41.7550 C   0  0  0  0  0  0  0  0  0  0  0  0
   45.7050   35.2720   42.3250 C   0  0  0  0  0  0  0  0  0  0  0  0
   44.6660   34.9200   41.4000 N   0  0  0  0  0  0  0  0  0  0  0  0
   45.2590   34.0720   40.4620 C   0  0  0  0  0  0  0  0  0  0  0  0
   44.4050   33.6270   39.4960 N   0  0  0  0  0  0  0  0  0  0  0  0
   43.2010   34.1740   39.7680 C   0  0  0  0  0  0  0  0  0  0  0  0
   41.8950   34.2350   39.3250 C   0  0  0  0  0  0  0  0  0  0  0  0
   40.9670   34.9680   39.9680 N   0  0  0  0  0  0  0  0  0  0  0  0
   41.2410   35.6820   41.0710 C   0  0  0  0  0  0  0  0  0  0  0  0
   42.5010   35.6080   41.4780 N   0  0  0  0  0  0  0  0  0  0  0  0
   43.4430   34.9030   40.8790 C   0  0  0  0  0  0  0  0  0  0  0  0
   41.6410   33.4570   38.1380 N   0  0  0  0  0  0  0  0  0  0  0  0
   46.7651   34.1175   41.0722 H   0  0  0  0  0  0  0  0  0  0  0  0
   48.3292   32.4445   41.2420 H   0  0  0  0  0  0  0  0  0  0  0  0
   48.9038   30.4005   42.6441 H   0  0  0  0  0  0  0  0  0  0  0  0
   47.9769   30.5898   46.6443 H   0  0  0  0  0  0  0  0  0  0  0  0
   47.2706   30.3339   48.9912 H   0  0  0  0  0  0  0  0  0  0  0  0
   44.6048   33.4719   48.4000 H   0  0  0  0  0  0  0  0  0  0  0  0
   48.6424   35.7163   42.6956 H   0  0  0  0  0  0  0  0  0  0  0  0
   48.9001   34.7994   41.1726 H   0  0  0  0  0  0  0  0  0  0  0  0
   47.8660   36.2682   41.1726 H   0  0  0  0  0  0  0  0  0  0  0  0
   45.3687   35.0229   43.3423 H   0  0  0  0  0  0  0  0  0  0  0  0
   45.8986   36.3488   42.2106 H   0  0  0  0  0  0  0  0  0  0  0  0
   46.3211   33.7880   40.4990 H   0  0  0  0  0  0  0  0  0  0  0  0
   40.4814   36.2805   41.5953 H   0  0  0  0  0  0  0  0  0  0  0  0
   40.6964   33.4367   37.7279 H   0  0  0  0  0  0  0  0  0  0  0  0
   42.4041   32.9215   37.7002 H   0  0  0  0  0  0  0  0  0  0  0  0
  1 17  1  0
  1  2  1  0
  2  7  1  0
  3  2  2  0
  3  4  1  0
  4  5  2  0
  5  6  1  0
  6  8  1  0
  7  6  2  0
  8 14  1  0
  8  9  1  0
  9 10  2  0
 10 11  1  0
 11 12  2  0
 13 11  1  0
 14 13  1  0
 15 14  2  0
 16  1  1  0
 18 17  1  0
 19 18  1  0
 20 21  1  0
 20 19  2  0
 21 26  2  0
 22 21  1  0
 22 23  2  0
 23 24  1  0
 24 25  2  0
 26 18  1  0
 26 25  1  0
 27 22  1  0
  1 28  1  6
  3 29  1  0
  4 30  1  0
  9 31  1  0
 10 32  1  0
 13 33  1  0
 16 34  1  0
 16 35  1  0
 16 36  1  0
 17 37  1  0
 17 38  1  0
 19 39  1  0
 24 40  1  0
 27 41  1  0
 27 42  1  0
M  ISO  8  28   8  29  14  30  14  31  14  32  14  33   9  34   8  35   8
M  ISO  5  36   8  37   8  38   8  39  14  40  14
M  END
>  <minimizedAffinity>  (1) 
-6.88860798

>  <minimizedRMSD>  (1) 
1.24781501

$$$$
