
     RDKit          3D

 35 37  0  0  1  0  0  0  0  0999 V2000
   47.5400   33.3060   42.9830 C   0  0  0  0  0  0  0  0  0  0  0  0
   48.2350   32.2580   42.3890 C   0  0  0  0  0  0  0  0  0  0  0  0
   48.4330   31.0830   43.1580 C   0  0  0  0  0  0  0  0  0  0  0  0
   47.9350   31.0410   44.4260 N   0  0  0  0  0  0  0  0  0  0  0  0
   47.2540   32.1170   44.9560 C   0  0  0  0  0  0  0  0  0  0  0  0
   47.0720   33.2100   44.2390 N   0  0  0  0  0  0  0  0  0  0  0  0
   46.7220   32.0710   46.2620 N   0  0  0  0  0  0  0  0  0  0  0  0
   47.1420   31.1170   47.0940 C   0  0  0  0  0  0  0  0  0  0  0  0
   46.6930   30.9580   48.3870 C   0  0  0  0  0  0  0  0  0  0  0  0
   45.7440   31.8480   48.8600 C   0  0  0  0  0  0  0  0  0  0  0  0
   45.2530   31.8140   50.0190 O   0  0  0  0  0  0  0  0  0  0  0  0
   45.3240   32.8120   48.0140 N   0  0  0  0  0  0  0  0  0  0  0  0
   45.7850   32.9370   46.7550 C   0  0  0  0  0  0  0  0  0  0  0  0
   45.3890   33.8360   45.9770 O   0  0  0  0  0  0  0  0  0  0  0  0
   47.3510   34.4760   42.1280 C   0  0  2  0  0  0  0  0  0  0  0  0
   48.6480   35.2770   41.9550 C   0  0  0  0  0  0  0  0  0  0  0  0
   46.2310   35.3920   42.4610 C   0  0  0  0  0  0  0  0  0  0  0  0
   44.9470   35.0320   41.8030 C   0  0  0  0  0  0  0  0  0  0  0  0
   44.9450   34.1770   40.6620 C   0  0  0  0  0  0  0  0  0  0  0  0
   43.1990   34.0480   40.2300 S   0  0  0  0  0  0  0  0  0  0  0  0
   42.7120   35.1940   41.6880 C   0  0  0  0  0  0  0  0  0  0  0  0
   43.9210   35.6140   42.4290 N   0  0  0  0  0  0  0  0  0  0  0  0
   48.6171   32.3376   41.3606 H   0  0  0  0  0  0  0  0  0  0  0  0
   48.9772   30.2234   42.7398 H   0  0  0  0  0  0  0  0  0  0  0  0
   47.8979   30.4093   46.7229 H   0  0  0  0  0  0  0  0  0  0  0  0
   47.0772   30.1480   49.0244 H   0  0  0  0  0  0  0  0  0  0  0  0
   44.6177   33.4836   48.3470 H   0  0  0  0  0  0  0  0  0  0  0  0
   47.0500   34.0136   41.1764 H   0  0  0  0  0  0  0  0  0  0  0  0
   49.0575   35.5299   42.9441 H   0  0  0  0  0  0  0  0  0  0  0  0
   49.3802   34.6735   41.3984 H   0  0  0  0  0  0  0  0  0  0  0  0
   48.4363   36.2019   41.3984 H   0  0  0  0  0  0  0  0  0  0  0  0
   46.0798   35.3736   43.5504 H   0  0  0  0  0  0  0  0  0  0  0  0
   46.5119   36.3896   42.0924 H   0  0  0  0  0  0  0  0  0  0  0  0
   45.8054   33.7070   40.1631 H   0  0  0  0  0  0  0  0  0  0  0  0
   41.6837   35.4951   41.9369 H   0  0  0  0  0  0  0  0  0  0  0  0
  1  6  1  0
  2  1  2  0
  2  3  1  0
  3  4  2  0
  4  5  1  0
  5  7  1  0
  6  5  2  0
  7 13  1  0
  7  8  1  0
  8  9  2  0
  9 10  1  0
 10 11  2  0
 12 10  1  0
 13 12  1  0
 14 13  2  0
 15 17  1  0
 15  1  1  0
 16 15  1  0
 18 22  1  0
 18 17  1  0
 19 18  2  0
 20 19  1  0
 20 21  1  0
 21 22  2  0
  2 23  1  0
  3 24  1  0
  8 25  1  0
  9 26  1  0
 12 27  1  0
 15 28  1  6
 16 29  1  0
 16 30  1  0
 16 31  1  0
 17 32  1  0
 17 33  1  0
 19 34  1  0
 21 35  1  0
M  ISO  8  23  14  24  14  25  14  26  14  27   9  28   8  29   8  30   8
M  ISO  5  31   8  32   8  33   8  34  14  35  14
M  END
>  <minimizedAffinity>  (1) 
-5.81025553

>  <minimizedRMSD>  (1) 
0.943241894

$$$$
