
     RDKit          3D

 30 33  0  0  1  0  0  0  0  0999 V2000
   45.7080   34.1130   41.4720 N   0  0  0  0  0  0  0  0  0  0  0  0
   44.9090   33.7060   40.4320 C   0  0  0  0  0  0  0  0  0  0  0  0
   45.6650   33.4310   39.3600 N   0  0  0  0  0  0  0  0  0  0  0  0
   46.9530   33.6680   39.7220 C   0  0  0  0  0  0  0  0  0  0  0  0
   46.9310   34.0740   40.9930 N   0  0  0  0  0  0  0  0  0  0  0  0
   44.9110   35.8200   42.9650 C   0  0  0  0  0  0  0  0  0  0  0  0
   45.3910   34.5080   42.7880 C   0  0  0  0  0  0  0  0  0  0  0  0
   45.5160   33.7090   43.9040 C   0  0  0  0  0  0  0  0  0  0  0  0
   45.1650   34.2400   45.1090 N   0  0  0  0  0  0  0  0  0  0  0  0
   44.7140   35.4850   45.2460 C   0  0  0  0  0  0  0  0  0  0  0  0
   44.5900   36.2640   44.1770 N   0  0  0  0  0  0  0  0  0  0  0  0
   48.2110   33.5390   38.9310 C   0  0  2  0  0  0  0  0  0  0  0  0
   48.3450   34.4790   37.7140 C   0  0  0  0  0  0  0  0  0  0  0  0
   48.1560   32.9650   37.5450 C   0  0  1  0  0  0  0  0  0  0  0  0
   49.2820   32.1790   37.0720 N   0  0  0  0  0  0  0  0  0  0  0  0
   50.4000   31.8760   37.7650 C   0  0  0  0  0  0  0  0  0  0  0  0
   51.1610   31.1140   36.8850 C   0  0  0  0  0  0  0  0  0  0  0  0
   50.5190   30.9710   35.7120 N   0  0  0  0  0  0  0  0  0  0  0  0
   49.3520   31.6370   35.8410 C   0  0  0  0  0  0  0  0  0  0  0  0
   43.8132   33.6188   40.4726 H   0  0  0  0  0  0  0  0  0  0  0  0
   44.8007   36.4828   42.0941 H   0  0  0  0  0  0  0  0  0  0  0  0
   45.8869   32.6765   43.8247 H   0  0  0  0  0  0  0  0  0  0  0  0
   44.4448   35.8677   46.2415 H   0  0  0  0  0  0  0  0  0  0  0  0
   48.8098   33.3026   39.8229 H   0  0  0  0  0  0  0  0  0  0  0  0
   47.5304   35.1717   37.4561 H   0  0  0  0  0  0  0  0  0  0  0  0
   49.0784   35.2239   37.3716 H   0  0  0  0  0  0  0  0  0  0  0  0
   47.4393   32.3308   37.0026 H   0  0  0  0  0  0  0  0  0  0  0  0
   50.6527   32.1668   38.7953 H   0  0  0  0  0  0  0  0  0  0  0  0
   52.1487   30.6883   37.1159 H   0  0  0  0  0  0  0  0  0  0  0  0
   48.5794   31.7235   35.0628 H   0  0  0  0  0  0  0  0  0  0  0  0
  1  7  1  0
  2  1  1  0
  3  4  1  0
  3  2  2  0
  4  5  2  0
  5  1  1  0
  6 11  2  0
  7  6  1  0
  7  8  2  0
  8  9  1  0
  9 10  2  0
 11 10  1  0
 12  4  1  0
 13 12  1  0
 14 13  1  0
 14 12  1  0
 15 14  1  0
 15 16  1  0
 17 16  2  0
 18 19  2  0
 18 17  1  0
 19 15  1  0
  2 20  1  0
  6 21  1  0
  8 22  1  0
 10 23  1  0
 12 24  1  1
 13 25  1  0
 13 26  1  0
 14 27  1  6
 16 28  1  0
 17 29  1  0
 19 30  1  0
M  ISO  8  20  14  21  14  22  14  23  14  24  13  25  13  26  13  27  13
M  ISO  3  28  14  29  14  30  14
M  END
>  <minimizedAffinity>  (1) 
-4.47856903

>  <minimizedRMSD>  (1) 
0.208307728

$$$$
