
     RDKit          3D

 38 40  0  0  1  0  0  0  0  0999 V2000
   47.5420   33.3180   42.9620 C   0  0  0  0  0  0  0  0  0  0  0  0
   48.2340   32.2640   42.3730 C   0  0  0  0  0  0  0  0  0  0  0  0
   48.4350   31.0910   43.1380 C   0  0  0  0  0  0  0  0  0  0  0  0
   47.9440   31.0550   44.4010 N   0  0  0  0  0  0  0  0  0  0  0  0
   47.2620   32.1280   44.9390 C   0  0  0  0  0  0  0  0  0  0  0  0
   47.0760   33.2300   44.2180 N   0  0  0  0  0  0  0  0  0  0  0  0
   46.7320   32.0770   46.2480 N   0  0  0  0  0  0  0  0  0  0  0  0
   47.1470   31.1160   47.0640 C   0  0  0  0  0  0  0  0  0  0  0  0
   46.6930   30.9520   48.3580 C   0  0  0  0  0  0  0  0  0  0  0  0
   45.7580   31.8310   48.8310 C   0  0  0  0  0  0  0  0  0  0  0  0
   45.2420   31.8150   49.9920 O   0  0  0  0  0  0  0  0  0  0  0  0
   45.3380   32.8060   48.0010 N   0  0  0  0  0  0  0  0  0  0  0  0
   45.7970   32.9450   46.7410 C   0  0  0  0  0  0  0  0  0  0  0  0
   45.4080   33.8490   45.9700 O   0  0  0  0  0  0  0  0  0  0  0  0
   47.3520   34.4810   42.1040 C   0  0  2  0  0  0  0  0  0  0  0  0
   48.6260   35.3310   41.9920 C   0  0  0  0  0  0  0  0  0  0  0  0
   46.1850   35.3540   42.3910 C   0  0  0  0  0  0  0  0  0  0  0  0
   44.9870   35.0100   41.6180 C   0  0  0  0  0  0  0  0  0  0  0  0
   43.7880   35.6130   41.9250 C   0  0  0  0  0  0  0  0  0  0  0  0
   42.5980   35.4020   41.3070 C   0  0  0  0  0  0  0  0  0  0  0  0
   42.5750   34.4950   40.2630 C   0  0  0  0  0  0  0  0  0  0  0  0
   43.7730   33.8950   39.9590 C   0  0  0  0  0  0  0  0  0  0  0  0
   44.9470   34.1190   40.5870 N   0  0  0  0  0  0  0  0  0  0  0  0
   48.6134   32.3406   41.3433 H   0  0  0  0  0  0  0  0  0  0  0  0
   48.9760   30.2300   42.7185 H   0  0  0  0  0  0  0  0  0  0  0  0
   47.8984   30.4068   46.6866 H   0  0  0  0  0  0  0  0  0  0  0  0
   47.0731   30.1366   48.9910 H   0  0  0  0  0  0  0  0  0  0  0  0
   44.6345   33.4753   48.3447 H   0  0  0  0  0  0  0  0  0  0  0  0
   47.1143   34.0128   41.1374 H   0  0  0  0  0  0  0  0  0  0  0  0
   48.9931   35.5759   42.9996 H   0  0  0  0  0  0  0  0  0  0  0  0
   49.3972   34.7658   41.4481 H   0  0  0  0  0  0  0  0  0  0  0  0
   48.4003   36.2601   41.4481 H   0  0  0  0  0  0  0  0  0  0  0  0
   45.9437   35.2705   43.4610 H   0  0  0  0  0  0  0  0  0  0  0  0
   46.4703   36.3767   42.1036 H   0  0  0  0  0  0  0  0  0  0  0  0
   43.7951   36.3373   42.7529 H   0  0  0  0  0  0  0  0  0  0  0  0
   41.6875   35.9316   41.6241 H   0  0  0  0  0  0  0  0  0  0  0  0
   41.6523   34.2676   39.7090 H   0  0  0  0  0  0  0  0  0  0  0  0
   43.7759   33.1693   39.1324 H   0  0  0  0  0  0  0  0  0  0  0  0
  1  6  1  0
  2  1  2  0
  2  3  1  0
  3  4  2  0
  4  5  1  0
  5  7  1  0
  6  5  2  0
  7 13  1  0
  7  8  1  0
  8  9  2  0
  9 10  1  0
 10 11  2  0
 12 10  1  0
 13 12  1  0
 14 13  2  0
 15 17  1  0
 15  1  1  0
 16 15  1  0
 18 19  2  0
 18 17  1  0
 20 19  1  0
 21 20  2  0
 22 21  1  0
 22 23  2  0
 23 18  1  0
  2 24  1  0
  3 25  1  0
  8 26  1  0
  9 27  1  0
 12 28  1  0
 15 29  1  6
 16 30  1  0
 16 31  1  0
 16 32  1  0
 17 33  1  0
 17 34  1  0
 19 35  1  0
 20 36  1  0
 21 37  1  0
 22 38  1  0
M  ISO  8  24  14  25  14  26  14  27  14  28   9  29   8  30   8  31   8
M  ISO  7  32   8  33   8  34   8  35  14  36  14  37  14  38  14
M  END
>  <minimizedAffinity>  (1) 
-6.15423822

>  <minimizedRMSD>  (1) 
1.14967692

$$$$
