
     RDKit          3D

 36 38  0  0  1  0  0  0  0  0999 V2000
   47.4050   33.5090   42.9310 C   0  0  0  0  0  0  0  0  0  0  0  0
   48.1190   32.4810   42.3080 C   0  0  0  0  0  0  0  0  0  0  0  0
   48.3660   31.3000   43.0510 C   0  0  0  0  0  0  0  0  0  0  0  0
   47.8990   31.2250   44.3230 N   0  0  0  0  0  0  0  0  0  0  0  0
   47.1990   32.2700   44.8930 C   0  0  0  0  0  0  0  0  0  0  0  0
   46.9680   33.3770   44.1960 N   0  0  0  0  0  0  0  0  0  0  0  0
   46.6960   32.1760   46.2090 N   0  0  0  0  0  0  0  0  0  0  0  0
   47.1460   31.2110   47.0030 C   0  0  0  0  0  0  0  0  0  0  0  0
   46.7190   31.0100   48.3030 C   0  0  0  0  0  0  0  0  0  0  0  0
   45.7710   31.8610   48.8110 C   0  0  0  0  0  0  0  0  0  0  0  0
   45.2940   31.7910   49.9800 O   0  0  0  0  0  0  0  0  0  0  0  0
   45.3080   32.8550   47.9950 N   0  0  0  0  0  0  0  0  0  0  0  0
   45.7520   33.0080   46.7430 C   0  0  0  0  0  0  0  0  0  0  0  0
   45.3250   33.9210   45.9980 O   0  0  0  0  0  0  0  0  0  0  0  0
   47.1650   34.6790   42.1060 C   0  0  2  0  0  0  0  0  0  0  0  0
   48.4590   35.4640   41.8350 C   0  0  0  0  0  0  0  0  0  0  0  0
   46.0760   35.5970   42.5320 C   0  0  0  0  0  0  0  0  0  0  0  0
   44.7770   35.2380   41.9070 C   0  0  0  0  0  0  0  0  0  0  0  0
   43.4480   35.4360   42.2160 C   0  0  0  0  0  0  0  0  0  0  0  0
   42.7010   34.8490   41.2160 C   0  0  0  0  0  0  0  0  0  0  0  0
   43.6320   34.3200   40.3450 C   0  0  0  0  0  0  0  0  0  0  0  0
   44.8420   34.5700   40.7870 O   0  0  0  0  0  0  0  0  0  0  0  0
   48.4778   32.5857   41.2734 H   0  0  0  0  0  0  0  0  0  0  0  0
   48.9239   30.4626   42.6066 H   0  0  0  0  0  0  0  0  0  0  0  0
   47.9078   30.5272   46.6004 H   0  0  0  0  0  0  0  0  0  0  0  0
   47.1282   30.1907   48.9123 H   0  0  0  0  0  0  0  0  0  0  0  0
   44.5956   33.5058   48.3553 H   0  0  0  0  0  0  0  0  0  0  0  0
   46.7876   34.2360   41.1725 H   0  0  0  0  0  0  0  0  0  0  0  0
   48.9239   35.7460   42.7912 H   0  0  0  0  0  0  0  0  0  0  0  0
   49.1553   34.8359   41.2599 H   0  0  0  0  0  0  0  0  0  0  0  0
   48.2236   36.3717   41.2599 H   0  0  0  0  0  0  0  0  0  0  0  0
   45.9721   35.5430   43.6257 H   0  0  0  0  0  0  0  0  0  0  0  0
   46.3410   36.6150   42.2103 H   0  0  0  0  0  0  0  0  0  0  0  0
   43.0558   35.9646   43.0974 H   0  0  0  0  0  0  0  0  0  0  0  0
   41.6049   34.8109   41.1313 H   0  0  0  0  0  0  0  0  0  0  0  0
   43.3956   33.7722   39.4209 H   0  0  0  0  0  0  0  0  0  0  0  0
  1  6  1  0
  2  1  2  0
  2  3  1  0
  3  4  2  0
  4  5  1  0
  5  7  1  0
  6  5  2  0
  7 13  1  0
  7  8  1  0
  8  9  2  0
  9 10  1  0
 10 11  2  0
 12 10  1  0
 13 12  1  0
 14 13  2  0
 15 17  1  0
 15  1  1  0
 16 15  1  0
 18 19  2  0
 18 17  1  0
 20 19  1  0
 21 22  1  0
 21 20  2  0
 22 18  1  0
  2 23  1  0
  3 24  1  0
  8 25  1  0
  9 26  1  0
 12 27  1  0
 15 28  1  6
 16 29  1  0
 16 30  1  0
 16 31  1  0
 17 32  1  0
 17 33  1  0
 19 34  1  0
 20 35  1  0
 21 36  1  0
M  ISO  8  23  14  24  14  25  14  26  14  27   9  28   8  29   8  30   8
M  ISO  6  31   8  32   8  33   8  34  14  35  14  36  14
M  END
>  <minimizedAffinity>  (1) 
-6.00879955

>  <minimizedRMSD>  (1) 
0.760578811

$$$$
