
     RDKit          3D

 42 44  0  0  1  0  0  0  0  0999 V2000
   47.3740   33.3400   42.8820 C   0  0  0  0  0  0  0  0  0  0  0  0
   48.1120   32.3070   42.2980 C   0  0  0  0  0  0  0  0  0  0  0  0
   48.4010   31.1710   43.0820 C   0  0  0  0  0  0  0  0  0  0  0  0
   47.9480   31.1380   44.3590 N   0  0  0  0  0  0  0  0  0  0  0  0
   47.2200   32.1820   44.8940 C   0  0  0  0  0  0  0  0  0  0  0  0
   46.9510   33.2510   44.1520 N   0  0  0  0  0  0  0  0  0  0  0  0
   46.7260   32.1400   46.2250 N   0  0  0  0  0  0  0  0  0  0  0  0
   47.2090   31.2100   47.0410 C   0  0  0  0  0  0  0  0  0  0  0  0
   46.7870   31.0730   48.3510 C   0  0  0  0  0  0  0  0  0  0  0  0
   45.8240   31.9330   48.8450 C   0  0  0  0  0  0  0  0  0  0  0  0
   45.3740   31.8920   50.0180 O   0  0  0  0  0  0  0  0  0  0  0  0
   45.3460   32.8740   47.9950 N   0  0  0  0  0  0  0  0  0  0  0  0
   45.7750   32.9800   46.7320 C   0  0  0  0  0  0  0  0  0  0  0  0
   45.3300   33.8520   45.9530 O   0  0  0  0  0  0  0  0  0  0  0  0
   47.1010   34.4710   42.0100 C   0  0  2  0  0  0  0  0  0  0  0  0
   48.3220   35.3830   41.8540 C   0  0  0  0  0  0  0  0  0  0  0  0
   45.8840   35.2730   42.2970 C   0  0  0  0  0  0  0  0  0  0  0  0
   44.6410   34.4270   42.4590 C   0  0  0  0  0  0  0  0  0  0  0  0
   43.4540   35.3540   42.3800 C   0  0  0  0  0  0  0  0  0  0  0  0
   43.0940   35.4580   40.9130 C   0  0  0  0  0  0  0  0  0  0  0  0
   43.9600   34.4850   40.1610 C   0  0  0  0  0  0  0  0  0  0  0  0
   44.4190   33.5450   41.2420 C   0  0  0  0  0  0  0  0  0  0  0  0
   48.4577   32.3780   41.2562 H   0  0  0  0  0  0  0  0  0  0  0  0
   48.9797   30.3324   42.6674 H   0  0  0  0  0  0  0  0  0  0  0  0
   47.9762   30.5203   46.6592 H   0  0  0  0  0  0  0  0  0  0  0  0
   47.2132   30.2880   48.9930 H   0  0  0  0  0  0  0  0  0  0  0  0
   44.6276   33.5303   48.3328 H   0  0  0  0  0  0  0  0  0  0  0  0
   46.8721   33.9768   41.0543 H   0  0  0  0  0  0  0  0  0  0  0  0
   48.6988   35.6645   42.8484 H   0  0  0  0  0  0  0  0  0  0  0  0
   49.1094   34.8501   41.3008 H   0  0  0  0  0  0  0  0  0  0  0  0
   48.0345   36.2893   41.3008 H   0  0  0  0  0  0  0  0  0  0  0  0
   46.0475   35.8368   43.2273 H   0  0  0  0  0  0  0  0  0  0  0  0
   45.7186   35.9378   41.4364 H   0  0  0  0  0  0  0  0  0  0  0  0
   44.7488   33.8515   43.3902 H   0  0  0  0  0  0  0  0  0  0  0  0
   42.6095   34.9412   42.9512 H   0  0  0  0  0  0  0  0  0  0  0  0
   43.6881   36.3410   42.8055 H   0  0  0  0  0  0  0  0  0  0  0  0
   42.0333   35.2051   40.7684 H   0  0  0  0  0  0  0  0  0  0  0  0
   43.2574   36.4825   40.5473 H   0  0  0  0  0  0  0  0  0  0  0  0
   43.3819   33.9523   39.3916 H   0  0  0  0  0  0  0  0  0  0  0  0
   44.7887   34.9661   39.6207 H   0  0  0  0  0  0  0  0  0  0  0  0
   43.6489   32.7872   41.4486 H   0  0  0  0  0  0  0  0  0  0  0  0
   45.3293   32.9977   40.9557 H   0  0  0  0  0  0  0  0  0  0  0  0
  1  6  1  0
  2  1  2  0
  2  3  1  0
  3  4  2  0
  4  5  1  0
  5  7  1  0
  6  5  2  0
  7 13  1  0
  7  8  1  0
  8  9  2  0
  9 10  1  0
 10 11  2  0
 12 10  1  0
 13 12  1  0
 14 13  2  0
 15 17  1  0
 15  1  1  0
 16 15  1  0
 17 18  1  0
 19 18  1  0
 20 19  1  0
 21 20  1  0
 21 22  1  0
 22 18  1  0
  2 23  1  0
  3 24  1  0
  8 25  1  0
  9 26  1  0
 12 27  1  0
 15 28  1  6
 16 29  1  0
 16 30  1  0
 16 31  1  0
 17 32  1  0
 17 33  1  0
 18 34  1  0
 19 35  1  0
 19 36  1  0
 20 37  1  0
 20 38  1  0
 21 39  1  0
 21 40  1  0
 22 41  1  0
 22 42  1  0
M  ISO  8  23  14  24  14  25  14  26  14  27   9  28   8  29   8  30   8
M  ISO  8  31   8  32   8  33   8  34  13  35  13  36  13  37  13  38  13
M  ISO  4  39  13  40  13  41  13  42  13
M  END
>  <minimizedAffinity>  (1) 
-5.75093365

>  <minimizedRMSD>  (1) 
0.572971165

$$$$
