
     RDKit          3D

 40 42  0  0  1  0  0  0  0  0999 V2000
   47.1530   34.6520   42.1450 C   0  0  2  0  0  0  0  0  0  0  0  0
   47.3840   33.4580   42.9750 C   0  0  0  0  0  0  0  0  0  0  0  0
   48.1340   32.4530   42.3530 C   0  0  0  0  0  0  0  0  0  0  0  0
   48.3870   31.2770   43.0960 C   0  0  0  0  0  0  0  0  0  0  0  0
   47.8950   31.1920   44.3540 N   0  0  0  0  0  0  0  0  0  0  0  0
   47.1620   32.2220   44.9090 C   0  0  0  0  0  0  0  0  0  0  0  0
   46.9190   33.3350   44.2140 N   0  0  0  0  0  0  0  0  0  0  0  0
   46.6510   32.1510   46.2410 N   0  0  0  0  0  0  0  0  0  0  0  0
   47.1220   31.1770   47.0240 C   0  0  0  0  0  0  0  0  0  0  0  0
   46.7140   30.9960   48.3230 C   0  0  0  0  0  0  0  0  0  0  0  0
   45.7750   31.8610   48.8420 C   0  0  0  0  0  0  0  0  0  0  0  0
   45.3110   31.8150   50.0140 O   0  0  0  0  0  0  0  0  0  0  0  0
   45.3000   32.8510   48.0360 N   0  0  0  0  0  0  0  0  0  0  0  0
   45.7360   32.9810   46.7740 C   0  0  0  0  0  0  0  0  0  0  0  0
   45.3080   33.8860   46.0310 O   0  0  0  0  0  0  0  0  0  0  0  0
   48.4110   35.4010   41.7860 C   0  0  0  0  0  0  0  0  0  0  0  0
   46.0510   35.5410   42.5750 C   0  0  0  0  0  0  0  0  0  0  0  0
   44.7700   35.1680   42.0010 C   0  0  0  0  0  0  0  0  0  0  0  0
   45.0020   34.5190   40.7510 C   0  0  0  0  0  0  0  0  0  0  0  0
   43.9850   34.0080   40.0180 C   0  0  0  0  0  0  0  0  0  0  0  0
   42.6520   34.0820   40.4150 C   0  0  0  0  0  0  0  0  0  0  0  0
   42.3930   34.7010   41.5930 C   0  0  0  0  0  0  0  0  0  0  0  0
   43.4370   35.2080   42.3290 C   0  0  0  0  0  0  0  0  0  0  0  0
   43.3530   35.8780   43.5750 O   0  0  0  0  0  0  0  0  0  0  0  0
   46.7777   34.2158   41.2075 H   0  0  0  0  0  0  0  0  0  0  0  0
   48.5116   32.5734   41.3269 H   0  0  0  0  0  0  0  0  0  0  0  0
   48.9697   30.4510   42.6621 H   0  0  0  0  0  0  0  0  0  0  0  0
   47.8719   30.4874   46.6092 H   0  0  0  0  0  0  0  0  0  0  0  0
   47.1269   30.1801   48.9344 H   0  0  0  0  0  0  0  0  0  0  0  0
   44.5963   33.5089   48.4005 H   0  0  0  0  0  0  0  0  0  0  0  0
   48.9292   35.7095   42.7059 H   0  0  0  0  0  0  0  0  0  0  0  0
   49.0704   34.7483   41.1951 H   0  0  0  0  0  0  0  0  0  0  0  0
   48.1514   36.2917   41.1951 H   0  0  0  0  0  0  0  0  0  0  0  0
   45.9711   35.4967   43.6712 H   0  0  0  0  0  0  0  0  0  0  0  0
   46.2882   36.5560   42.2237 H   0  0  0  0  0  0  0  0  0  0  0  0
   46.0318   34.4320   40.3743 H   0  0  0  0  0  0  0  0  0  0  0  0
   44.2222   33.5117   39.0654 H   0  0  0  0  0  0  0  0  0  0  0  0
   41.8451   33.6570   39.7999 H   0  0  0  0  0  0  0  0  0  0  0  0
   41.3589   34.7964   41.9556 H   0  0  0  0  0  0  0  0  0  0  0  0
   42.4714   36.0192   44.0026 H   0  0  0  0  0  0  0  0  0  0  0  0
  1 17  1  0
  1  2  1  0
  2  7  1  0
  3  2  2  0
  3  4  1  0
  4  5  2  0
  5  6  1  0
  6  8  1  0
  7  6  2  0
  8 14  1  0
  8  9  1  0
  9 10  2  0
 10 11  1  0
 11 12  2  0
 13 11  1  0
 14 13  1  0
 15 14  2  0
 16  1  1  0
 18 23  1  0
 18 17  1  0
 19 18  2  0
 20 21  2  0
 20 19  1  0
 21 22  1  0
 22 23  2  0
 23 24  1  0
  1 25  1  6
  3 26  1  0
  4 27  1  0
  9 28  1  0
 10 29  1  0
 13 30  1  0
 16 31  1  0
 16 32  1  0
 16 33  1  0
 17 34  1  0
 17 35  1  0
 19 36  1  0
 20 37  1  0
 21 38  1  0
 22 39  1  0
 24 40  1  0
M  ISO  8  25   8  26  14  27  14  28  14  29  14  30   9  31   8  32   8
M  ISO  8  33   8  34   8  35   8  36  14  37  14  38  14  39  14  40   3
M  END
>  <minimizedAffinity>  (1) 
-6.86283064

>  <minimizedRMSD>  (1) 
0.152416512

$$$$
