
     RDKit          3D

 39 41  0  0  1  0  0  0  0  0999 V2000
   47.3660   33.5330   42.9610 C   0  0  0  0  0  0  0  0  0  0  0  0
   48.1110   32.5420   42.3380 C   0  0  0  0  0  0  0  0  0  0  0  0
   48.3820   31.3670   43.0660 C   0  0  0  0  0  0  0  0  0  0  0  0
   47.9010   31.2630   44.3300 N   0  0  0  0  0  0  0  0  0  0  0  0
   47.1650   32.2770   44.9000 C   0  0  0  0  0  0  0  0  0  0  0  0
   46.9110   33.3820   44.2180 N   0  0  0  0  0  0  0  0  0  0  0  0
   46.6510   32.1850   46.2280 N   0  0  0  0  0  0  0  0  0  0  0  0
   47.1180   31.2040   46.9980 C   0  0  0  0  0  0  0  0  0  0  0  0
   46.7020   31.0030   48.2960 C   0  0  0  0  0  0  0  0  0  0  0  0
   45.7650   31.8480   48.8240 C   0  0  0  0  0  0  0  0  0  0  0  0
   45.2850   31.7890   49.9980 O   0  0  0  0  0  0  0  0  0  0  0  0
   45.2970   32.8380   48.0360 N   0  0  0  0  0  0  0  0  0  0  0  0
   45.7240   33.0080   46.7760 C   0  0  0  0  0  0  0  0  0  0  0  0
   45.2940   33.9250   46.0500 O   0  0  0  0  0  0  0  0  0  0  0  0
   47.1470   34.7630   42.1800 C   0  0  2  0  0  0  0  0  0  0  0  0
   48.3950   35.4330   41.7180 C   0  0  0  0  0  0  0  0  0  0  0  0
   46.0470   35.6540   42.6380 C   0  0  0  0  0  0  0  0  0  0  0  0
   44.7340   35.3110   42.0590 C   0  0  0  0  0  0  0  0  0  0  0  0
   44.9990   34.4990   40.9220 C   0  0  0  0  0  0  0  0  0  0  0  0
   44.0290   33.9520   40.0780 C   0  0  0  0  0  0  0  0  0  0  0  0
   42.6990   34.1960   40.3360 C   0  0  0  0  0  0  0  0  0  0  0  0
   42.4020   34.9720   41.4200 C   0  0  0  0  0  0  0  0  0  0  0  0
   43.3940   35.4760   42.2030 C   0  0  0  0  0  0  0  0  0  0  0  0
   48.4781   32.6698   41.3090 H   0  0  0  0  0  0  0  0  0  0  0  0
   48.9705   30.5520   42.6195 H   0  0  0  0  0  0  0  0  0  0  0  0
   47.8716   30.5218   46.5778 H   0  0  0  0  0  0  0  0  0  0  0  0
   47.1154   30.1789   48.8960 H   0  0  0  0  0  0  0  0  0  0  0  0
   44.5893   33.4838   48.4140 H   0  0  0  0  0  0  0  0  0  0  0  0
   46.7094   34.3842   41.2446 H   0  0  0  0  0  0  0  0  0  0  0  0
   48.9855   35.7500   42.5903 H   0  0  0  0  0  0  0  0  0  0  0  0
   48.9853   34.7305   41.1113 H   0  0  0  0  0  0  0  0  0  0  0  0
   48.1356   36.3132   41.1113 H   0  0  0  0  0  0  0  0  0  0  0  0
   45.9741   35.5829   43.7333 H   0  0  0  0  0  0  0  0  0  0  0  0
   46.2934   36.6721   42.3023 H   0  0  0  0  0  0  0  0  0  0  0  0
   46.0522   34.2843   40.6882 H   0  0  0  0  0  0  0  0  0  0  0  0
   44.3247   33.3337   39.2176 H   0  0  0  0  0  0  0  0  0  0  0  0
   41.9068   33.7824   39.6946 H   0  0  0  0  0  0  0  0  0  0  0  0
   41.3516   35.1914   41.6621 H   0  0  0  0  0  0  0  0  0  0  0  0
   43.0715   36.0915   43.0557 H   0  0  0  0  0  0  0  0  0  0  0  0
  1  6  1  0
  2  1  2  0
  2  3  1  0
  3  4  2  0
  4  5  1  0
  5  7  1  0
  6  5  2  0
  7 13  1  0
  7  8  1  0
  8  9  2  0
  9 10  1  0
 10 11  2  0
 12 10  1  0
 13 12  1  0
 14 13  2  0
 15 17  1  0
 15  1  1  0
 16 15  1  0
 18 23  1  0
 18 17  1  0
 19 18  2  0
 20 21  2  0
 20 19  1  0
 21 22  1  0
 22 23  2  0
  2 24  1  0
  3 25  1  0
  8 26  1  0
  9 27  1  0
 12 28  1  0
 15 29  1  6
 16 30  1  0
 16 31  1  0
 16 32  1  0
 17 33  1  0
 17 34  1  0
 19 35  1  0
 20 36  1  0
 21 37  1  0
 22 38  1  0
 23 39  1  0
M  ISO  8  24  14  25  14  26  14  27  14  28   9  29   8  30   8  31   8
M  ISO  8  32   8  33   8  34   8  35  14  36  14  37  14  38  14  39  14
M  END
>  <minimizedAffinity>  (1) 
-6.42020226

>  <minimizedRMSD>  (1) 
0.415044129

$$$$
