
     RDKit          3D

 41 43  0  0  1  0  0  0  0  0999 V2000
   47.2400   34.6310   42.1280 C   0  0  2  0  0  0  0  0  0  0  0  0
   47.4510   33.4320   42.9580 C   0  0  0  0  0  0  0  0  0  0  0  0
   48.1950   32.4190   42.3390 C   0  0  0  0  0  0  0  0  0  0  0  0
   48.4270   31.2390   43.0820 C   0  0  0  0  0  0  0  0  0  0  0  0
   47.9220   31.1590   44.3360 N   0  0  0  0  0  0  0  0  0  0  0  0
   47.1960   32.1980   44.8870 C   0  0  0  0  0  0  0  0  0  0  0  0
   46.9710   33.3160   44.1930 N   0  0  0  0  0  0  0  0  0  0  0  0
   46.6730   32.1330   46.2130 N   0  0  0  0  0  0  0  0  0  0  0  0
   47.1320   31.1450   46.9940 C   0  0  0  0  0  0  0  0  0  0  0  0
   46.7100   30.9720   48.2910 C   0  0  0  0  0  0  0  0  0  0  0  0
   45.7870   31.8400   48.8030 C   0  0  0  0  0  0  0  0  0  0  0  0
   45.2910   31.8230   49.9790 O   0  0  0  0  0  0  0  0  0  0  0  0
   45.3330   32.8350   48.0010 N   0  0  0  0  0  0  0  0  0  0  0  0
   45.7650   32.9770   46.7390 C   0  0  0  0  0  0  0  0  0  0  0  0
   45.3530   33.8890   45.9950 O   0  0  0  0  0  0  0  0  0  0  0  0
   48.5080   35.3820   41.8020 C   0  0  0  0  0  0  0  0  0  0  0  0
   46.1260   35.5200   42.5300 C   0  0  0  0  0  0  0  0  0  0  0  0
   44.8510   35.1140   41.9690 C   0  0  0  0  0  0  0  0  0  0  0  0
   45.0880   34.4640   40.7170 C   0  0  0  0  0  0  0  0  0  0  0  0
   44.0780   33.9270   39.9960 C   0  0  0  0  0  0  0  0  0  0  0  0
   42.7480   33.9730   40.4010 C   0  0  0  0  0  0  0  0  0  0  0  0
   42.4840   34.5910   41.5780 C   0  0  0  0  0  0  0  0  0  0  0  0
   43.5180   35.1230   42.3020 C   0  0  0  0  0  0  0  0  0  0  0  0
   43.4230   35.8130   43.5760 N   0  0  0  0  0  0  0  0  0  0  0  0
   46.8866   34.1963   41.1814 H   0  0  0  0  0  0  0  0  0  0  0  0
   48.5828   32.5371   41.3164 H   0  0  0  0  0  0  0  0  0  0  0  0
   49.0034   30.4065   42.6523 H   0  0  0  0  0  0  0  0  0  0  0  0
   47.8745   30.4461   46.5815 H   0  0  0  0  0  0  0  0  0  0  0  0
   47.1078   30.1505   48.9049 H   0  0  0  0  0  0  0  0  0  0  0  0
   44.6381   33.4993   48.3707 H   0  0  0  0  0  0  0  0  0  0  0  0
   49.0088   35.6786   42.7354 H   0  0  0  0  0  0  0  0  0  0  0  0
   49.1774   34.7346   41.2165 H   0  0  0  0  0  0  0  0  0  0  0  0
   48.2620   36.2801   41.2165 H   0  0  0  0  0  0  0  0  0  0  0  0
   46.0464   35.5094   43.6271 H   0  0  0  0  0  0  0  0  0  0  0  0
   46.3508   36.5262   42.1464 H   0  0  0  0  0  0  0  0  0  0  0  0
   46.1163   34.3995   40.3316 H   0  0  0  0  0  0  0  0  0  0  0  0
   44.3194   33.4305   39.0446 H   0  0  0  0  0  0  0  0  0  0  0  0
   41.9465   33.5278   39.7933 H   0  0  0  0  0  0  0  0  0  0  0  0
   41.4506   34.6646   41.9478 H   0  0  0  0  0  0  0  0  0  0  0  0
   42.5050   35.9405   44.0254 H   0  0  0  0  0  0  0  0  0  0  0  0
   44.2736   36.1749   44.0303 H   0  0  0  0  0  0  0  0  0  0  0  0
  1 17  1  0
  1  2  1  0
  2  7  1  0
  3  2  2  0
  3  4  1  0
  4  5  2  0
  5  6  1  0
  6  8  1  0
  7  6  2  0
  8 14  1  0
  8  9  1  0
  9 10  2  0
 10 11  1  0
 11 12  2  0
 13 11  1  0
 14 13  1  0
 15 14  2  0
 16  1  1  0
 18 23  1  0
 18 17  1  0
 19 18  2  0
 20 21  2  0
 20 19  1  0
 21 22  1  0
 22 23  2  0
 23 24  1  0
  1 25  1  6
  3 26  1  0
  4 27  1  0
  9 28  1  0
 10 29  1  0
 13 30  1  0
 16 31  1  0
 16 32  1  0
 16 33  1  0
 17 34  1  0
 17 35  1  0
 19 36  1  0
 20 37  1  0
 21 38  1  0
 22 39  1  0
 24 40  1  0
 24 41  1  0
M  ISO  8  25   8  26  14  27  14  28  14  29  14  30   9  31   8  32   8
M  ISO  7  33   8  34   8  35   8  36  14  37  14  38  14  39  14
M  END
>  <minimizedAffinity>  (1) 
-6.80103636

>  <minimizedRMSD>  (1) 
0.200410083

$$$$
