
     RDKit          3D

 36 39  0  0  1  0  0  0  0  0999 V2000
   45.8230   34.1280   41.6630 N   0  0  0  0  0  0  0  0  0  0  0  0
   45.0690   33.6370   40.6260 C   0  0  0  0  0  0  0  0  0  0  0  0
   45.8440   33.4720   39.5460 N   0  0  0  0  0  0  0  0  0  0  0  0
   47.0960   33.8610   39.9070 C   0  0  0  0  0  0  0  0  0  0  0  0
   47.0390   34.2470   41.1830 N   0  0  0  0  0  0  0  0  0  0  0  0
   44.8710   35.7410   43.1810 C   0  0  0  0  0  0  0  0  0  0  0  0
   45.4680   34.4640   42.9920 C   0  0  0  0  0  0  0  0  0  0  0  0
   45.6540   33.6610   44.0930 C   0  0  0  0  0  0  0  0  0  0  0  0
   45.2500   34.1500   45.2950 N   0  0  0  0  0  0  0  0  0  0  0  0
   44.6920   35.3470   45.4570 C   0  0  0  0  0  0  0  0  0  0  0  0
   44.5060   36.1350   44.3960 N   0  0  0  0  0  0  0  0  0  0  0  0
   48.3600   33.9020   39.1100 C   0  0  2  0  0  0  0  0  0  0  0  0
   48.2510   34.5270   37.7010 C   0  0  0  0  0  0  0  0  0  0  0  0
   48.4800   33.0420   37.8840 C   0  0  1  0  0  0  0  0  0  0  0  0
   49.7670   32.3800   37.5520 C   0  0  0  0  0  0  0  0  0  0  0  0
   49.7260   31.4670   36.3750 C   0  0  0  0  0  0  0  0  0  0  0  0
   50.8060   30.4250   36.6790 C   0  0  0  0  0  0  0  0  0  0  0  0
   50.5930   30.1870   38.1460 C   0  0  0  0  0  0  0  0  0  0  0  0
   50.2280   31.5140   38.7290 C   0  0  0  0  0  0  0  0  0  0  0  0
   43.9931   33.4133   40.6746 H   0  0  0  0  0  0  0  0  0  0  0  0
   44.7110   36.4045   42.3183 H   0  0  0  0  0  0  0  0  0  0  0  0
   46.1108   32.6643   44.0044 H   0  0  0  0  0  0  0  0  0  0  0  0
   44.3862   35.6847   46.4582 H   0  0  0  0  0  0  0  0  0  0  0  0
   48.9852   34.0481   40.0032 H   0  0  0  0  0  0  0  0  0  0  0  0
   49.0579   35.1679   37.3161 H   0  0  0  0  0  0  0  0  0  0  0  0
   47.5122   35.1478   37.1730 H   0  0  0  0  0  0  0  0  0  0  0  0
   47.9664   32.1470   37.5030 H   0  0  0  0  0  0  0  0  0  0  0  0
   50.4443   33.2156   37.3216 H   0  0  0  0  0  0  0  0  0  0  0  0
   49.9583   32.0124   35.4484 H   0  0  0  0  0  0  0  0  0  0  0  0
   48.7340   31.0172   36.2215 H   0  0  0  0  0  0  0  0  0  0  0  0
   50.6510   29.5048   36.0966 H   0  0  0  0  0  0  0  0  0  0  0  0
   51.8252   30.7494   36.4221 H   0  0  0  0  0  0  0  0  0  0  0  0
   49.7788   29.4639   38.3018 H   0  0  0  0  0  0  0  0  0  0  0  0
   51.4933   29.7713   38.6220 H   0  0  0  0  0  0  0  0  0  0  0  0
   51.1011   31.9692   39.2195 H   0  0  0  0  0  0  0  0  0  0  0  0
   49.4401   31.4166   39.4904 H   0  0  0  0  0  0  0  0  0  0  0  0
  1  7  1  0
  2  1  1  0
  3  4  1  0
  3  2  2  0
  4  5  2  0
  5  1  1  0
  6 11  2  0
  7  6  1  0
  7  8  2  0
  8  9  1  0
  9 10  2  0
 11 10  1  0
 12  4  1  0
 13 14  1  0
 13 12  1  0
 14 12  1  0
 15 14  1  0
 15 19  1  0
 16 17  1  0
 16 15  1  0
 17 18  1  0
 18 19  1  0
  2 20  1  0
  6 21  1  0
  8 22  1  0
 10 23  1  0
 12 24  1  1
 13 25  1  0
 13 26  1  0
 14 27  1  1
 15 28  1  0
 16 29  1  0
 16 30  1  0
 17 31  1  0
 17 32  1  0
 18 33  1  0
 18 34  1  0
 19 35  1  0
 19 36  1  0
M  ISO  8  20  14  21  14  22  14  23  14  24  13  25  13  26  13  27  13
M  ISO  8  28  13  29  13  30  13  31  13  32  13  33  13  34  13  35  13
M  ISO  1  36  13
M  END
>  <minimizedAffinity>  (1) 
-4.40258169

>  <minimizedRMSD>  (1) 
0.538780332

$$$$
