
     RDKit          3D

 42 44  0  0  1  0  0  0  0  0999 V2000
   48.2800   34.1930   42.2830 C   0  0  2  0  0  0  0  0  0  0  0  0
   48.1350   32.9510   43.0630 C   0  0  0  0  0  0  0  0  0  0  0  0
   48.6680   31.8060   42.4560 C   0  0  0  0  0  0  0  0  0  0  0  0
   48.5530   30.5820   43.1510 C   0  0  0  0  0  0  0  0  0  0  0  0
   47.9380   30.5830   44.3570 N   0  0  0  0  0  0  0  0  0  0  0  0
   47.4340   31.7410   44.9010 C   0  0  0  0  0  0  0  0  0  0  0  0
   47.5400   32.9000   44.2470 N   0  0  0  0  0  0  0  0  0  0  0  0
   46.7960   31.7670   46.1860 N   0  0  0  0  0  0  0  0  0  0  0  0
   46.9370   30.6800   46.9430 C   0  0  0  0  0  0  0  0  0  0  0  0
   46.3920   30.5720   48.2060 C   0  0  0  0  0  0  0  0  0  0  0  0
   45.6720   31.6410   48.6970 C   0  0  0  0  0  0  0  0  0  0  0  0
   45.1290   31.6650   49.8360 O   0  0  0  0  0  0  0  0  0  0  0  0
   45.5340   32.7430   47.9120 N   0  0  0  0  0  0  0  0  0  0  0  0
   46.0870   32.7920   46.6920 C   0  0  0  0  0  0  0  0  0  0  0  0
   45.9720   33.7880   45.9660 O   0  0  0  0  0  0  0  0  0  0  0  0
   49.5690   34.9270   42.5360 C   0  0  0  0  0  0  0  0  0  0  0  0
   47.0920   35.0760   42.2390 C   0  0  0  0  0  0  0  0  0  0  0  0
   46.0720   34.5940   41.3310 C   0  0  0  0  0  0  0  0  0  0  0  0
   46.6980   33.9220   40.2300 C   0  0  0  0  0  0  0  0  0  0  0  0
   45.9820   33.3170   39.2610 C   0  0  0  0  0  0  0  0  0  0  0  0
   44.5890   33.3060   39.2430 C   0  0  0  0  0  0  0  0  0  0  0  0
   43.9600   33.9410   40.2650 C   0  0  0  0  0  0  0  0  0  0  0  0
   44.7030   34.5470   41.2470 C   0  0  0  0  0  0  0  0  0  0  0  0
   44.1340   35.3100   42.4030 C   0  0  0  0  0  0  0  0  0  0  0  0
   42.7680   35.4030   42.3520 F   0  0  0  0  0  0  0  0  0  0  0  0
   44.8200   36.4520   42.5610 F   0  0  0  0  0  0  0  0  0  0  0  0
   44.4360   34.5170   43.5220 F   0  0  0  0  0  0  0  0  0  0  0  0
   48.3480   33.8198   41.2505 H   0  0  0  0  0  0  0  0  0  0  0  0
   49.1586   31.8587   41.4729 H   0  0  0  0  0  0  0  0  0  0  0  0
   48.9532   29.6510   42.7231 H   0  0  0  0  0  0  0  0  0  0  0  0
   47.5128   29.8319   46.5440 H   0  0  0  0  0  0  0  0  0  0  0  0
   46.5279   29.6591   48.8044 H   0  0  0  0  0  0  0  0  0  0  0  0
   44.9975   33.5506   48.2596 H   0  0  0  0  0  0  0  0  0  0  0  0
   49.7316   35.0196   43.6200 H   0  0  0  0  0  0  0  0  0  0  0  0
   50.4033   34.3685   42.0865 H   0  0  0  0  0  0  0  0  0  0  0  0
   49.5144   35.9295   42.0865 H   0  0  0  0  0  0  0  0  0  0  0  0
   46.6624   35.1390   43.2497 H   0  0  0  0  0  0  0  0  0  0  0  0
   47.4224   36.0604   41.8760 H   0  0  0  0  0  0  0  0  0  0  0  0
   47.7963   33.8994   40.1742 H   0  0  0  0  0  0  0  0  0  0  0  0
   46.5219   32.8093   38.4481 H   0  0  0  0  0  0  0  0  0  0  0  0
   44.0263   32.8073   38.4401 H   0  0  0  0  0  0  0  0  0  0  0  0
   42.8611   33.9696   40.3057 H   0  0  0  0  0  0  0  0  0  0  0  0
  1 16  1  0
  1  2  1  0
  2  7  1  0
  3  2  2  0
  3  4  1  0
  4  5  2  0
  5  6  1  0
  6  8  1  0
  7  6  2  0
  8 14  1  0
  8  9  1  0
  9 10  2  0
 10 11  1  0
 11 12  2  0
 13 11  1  0
 14 13  1  0
 15 14  2  0
 17  1  1  0
 18 17  1  0
 19 18  2  0
 20 19  1  0
 21 20  2  0
 21 22  1  0
 22 23  2  0
 23 18  1  0
 23 24  1  0
 24 26  1  0
 24 27  1  0
 25 24  1  0
  1 28  1  6
  3 29  1  0
  4 30  1  0
  9 31  1  0
 10 32  1  0
 13 33  1  0
 16 34  1  0
 16 35  1  0
 16 36  1  0
 17 37  1  0
 17 38  1  0
 19 39  1  0
 20 40  1  0
 21 41  1  0
 22 42  1  0
M  ISO  8  28   8  29  14  30  14  31  14  32  14  33   9  34   8  35   8
M  ISO  7  36   8  37   8  38   8  39  14  40  14  41  14  42  14
M  END
>  <minimizedAffinity>  (1) 
-6.73929644

>  <minimizedRMSD>  (1) 
1.35460949

$$$$
