
     RDKit          3D

 42 44  0  0  1  0  0  0  0  0999 V2000
   48.0830   34.0010   42.3970 C   0  0  2  0  0  0  0  0  0  0  0  0
   47.9700   32.7870   43.2260 C   0  0  0  0  0  0  0  0  0  0  0  0
   48.5230   31.6360   42.6550 C   0  0  0  0  0  0  0  0  0  0  0  0
   48.4390   30.4380   43.4030 C   0  0  0  0  0  0  0  0  0  0  0  0
   47.8360   30.4740   44.6130 N   0  0  0  0  0  0  0  0  0  0  0  0
   47.3100   31.6480   45.1190 C   0  0  0  0  0  0  0  0  0  0  0  0
   47.3840   32.7820   44.4210 N   0  0  0  0  0  0  0  0  0  0  0  0
   46.6850   31.7030   46.4000 N   0  0  0  0  0  0  0  0  0  0  0  0
   46.8530   30.6460   47.2040 C   0  0  0  0  0  0  0  0  0  0  0  0
   46.3060   30.5800   48.4630 C   0  0  0  0  0  0  0  0  0  0  0  0
   45.5600   31.6300   48.9150 C   0  0  0  0  0  0  0  0  0  0  0  0
   44.9900   31.7160   50.0490 O   0  0  0  0  0  0  0  0  0  0  0  0
   45.4020   32.6850   48.0920 N   0  0  0  0  0  0  0  0  0  0  0  0
   45.9430   32.7330   46.8690 C   0  0  0  0  0  0  0  0  0  0  0  0
   45.7970   33.7080   46.1060 O   0  0  0  0  0  0  0  0  0  0  0  0
   49.5060   34.4050   42.1010 C   0  0  0  0  0  0  0  0  0  0  0  0
   47.2250   35.1430   42.7800 C   0  0  0  0  0  0  0  0  0  0  0  0
   45.8870   35.0450   42.2340 C   0  0  0  0  0  0  0  0  0  0  0  0
   45.9410   34.3090   41.0090 C   0  0  0  0  0  0  0  0  0  0  0  0
   44.8210   34.0160   40.3080 C   0  0  0  0  0  0  0  0  0  0  0  0
   43.5490   34.4130   40.7110 C   0  0  0  0  0  0  0  0  0  0  0  0
   43.4620   35.1210   41.8630 C   0  0  0  0  0  0  0  0  0  0  0  0
   44.6030   35.4040   42.5650 C   0  0  0  0  0  0  0  0  0  0  0  0
   44.6920   36.1760   43.8670 C   0  0  0  0  0  0  0  0  0  0  0  0
   47.6459   33.6704   41.4432 H   0  0  0  0  0  0  0  0  0  0  0  0
   49.0032   31.6612   41.6657 H   0  0  0  0  0  0  0  0  0  0  0  0
   48.8547   29.4987   43.0094 H   0  0  0  0  0  0  0  0  0  0  0  0
   47.4522   29.7972   46.8429 H   0  0  0  0  0  0  0  0  0  0  0  0
   46.4668   29.6951   49.0964 H   0  0  0  0  0  0  0  0  0  0  0  0
   44.8426   33.4864   48.4171 H   0  0  0  0  0  0  0  0  0  0  0  0
   50.0476   34.5588   43.0460 H   0  0  0  0  0  0  0  0  0  0  0  0
   49.9993   33.6114   41.5206 H   0  0  0  0  0  0  0  0  0  0  0  0
   49.5087   35.3394   41.5206 H   0  0  0  0  0  0  0  0  0  0  0  0
   47.1556   35.1785   43.8772 H   0  0  0  0  0  0  0  0  0  0  0  0
   47.6844   36.0552   42.3716 H   0  0  0  0  0  0  0  0  0  0  0  0
   46.9164   33.9729   40.6273 H   0  0  0  0  0  0  0  0  0  0  0  0
   44.9203   33.4379   39.3775 H   0  0  0  0  0  0  0  0  0  0  0  0
   42.6549   34.1632   40.1209 H   0  0  0  0  0  0  0  0  0  0  0  0
   42.4841   35.4651   42.2307 H   0  0  0  0  0  0  0  0  0  0  0  0
   44.6115   35.4780   44.7134 H   0  0  0  0  0  0  0  0  0  0  0  0
   45.6568   36.7022   43.9161 H   0  0  0  0  0  0  0  0  0  0  0  0
   43.8723   36.9079   43.9161 H   0  0  0  0  0  0  0  0  0  0  0  0
  1 17  1  0
  1  2  1  0
  2  7  1  0
  3  2  2  0
  3  4  1  0
  4  5  2  0
  5  6  1  0
  6  8  1  0
  7  6  2  0
  8 14  1  0
  8  9  1  0
  9 10  2  0
 10 11  1  0
 11 12  2  0
 13 11  1  0
 14 13  1  0
 15 14  2  0
 16  1  1  0
 18 23  1  0
 18 17  1  0
 19 18  2  0
 20 21  2  0
 20 19  1  0
 21 22  1  0
 22 23  2  0
 23 24  1  0
  1 25  1  6
  3 26  1  0
  4 27  1  0
  9 28  1  0
 10 29  1  0
 13 30  1  0
 16 31  1  0
 16 32  1  0
 16 33  1  0
 17 34  1  0
 17 35  1  0
 19 36  1  0
 20 37  1  0
 21 38  1  0
 22 39  1  0
 24 40  1  0
 24 41  1  0
 24 42  1  0
M  ISO  8  25   8  26  14  27  14  28  14  29  14  30   9  31   8  32   8
M  ISO  8  33   8  34   8  35   8  36  14  37  14  38  14  39  14  40   8
M  ISO  2  41   8  42   8
M  END
>  <minimizedAffinity>  (1) 
-6.33438921

>  <minimizedRMSD>  (1) 
0.935940146

$$$$
