
     RDKit          3D

 46 49  0  0  1  0  0  0  0  0999 V2000
   48.2880   34.1880   42.2190 C   0  0  2  0  0  0  0  0  0  0  0  0
   48.1560   32.9560   43.0090 C   0  0  0  0  0  0  0  0  0  0  0  0
   48.6970   31.8130   42.4080 C   0  0  0  0  0  0  0  0  0  0  0  0
   48.6020   30.5930   43.1070 C   0  0  0  0  0  0  0  0  0  0  0  0
   47.9940   30.5930   44.3170 N   0  0  0  0  0  0  0  0  0  0  0  0
   47.4790   31.7530   44.8600 C   0  0  0  0  0  0  0  0  0  0  0  0
   47.5690   32.9070   44.1980 N   0  0  0  0  0  0  0  0  0  0  0  0
   46.8450   31.7800   46.1460 N   0  0  0  0  0  0  0  0  0  0  0  0
   46.9910   30.6930   46.9100 C   0  0  0  0  0  0  0  0  0  0  0  0
   46.4370   30.5840   48.1610 C   0  0  0  0  0  0  0  0  0  0  0  0
   45.7090   31.6240   48.6450 C   0  0  0  0  0  0  0  0  0  0  0  0
   45.1180   31.7080   49.7790 O   0  0  0  0  0  0  0  0  0  0  0  0
   45.5740   32.7130   47.8610 N   0  0  0  0  0  0  0  0  0  0  0  0
   46.1230   32.8000   46.6420 C   0  0  0  0  0  0  0  0  0  0  0  0
   45.9960   33.8090   45.9160 O   0  0  0  0  0  0  0  0  0  0  0  0
   49.6070   34.8950   42.4030 C   0  0  0  0  0  0  0  0  0  0  0  0
   47.1300   35.1080   42.2560 C   0  0  0  0  0  0  0  0  0  0  0  0
   46.0420   34.6850   41.3850 C   0  0  0  0  0  0  0  0  0  0  0  0
   46.5660   33.7720   40.4290 C   0  0  0  0  0  0  0  0  0  0  0  0
   45.7700   33.1580   39.5180 C   0  0  0  0  0  0  0  0  0  0  0  0
   44.3960   33.3830   39.4460 C   0  0  0  0  0  0  0  0  0  0  0  0
   43.8640   34.2600   40.3430 C   0  0  0  0  0  0  0  0  0  0  0  0
   44.6860   34.8700   41.2670 C   0  0  0  0  0  0  0  0  0  0  0  0
   44.2950   35.8630   42.3440 C   0  0  0  0  0  0  0  0  0  0  0  0
   43.8390   35.4150   43.6600 C   0  0  0  0  0  0  0  0  0  0  0  0
   45.2210   35.9810   43.5110 C   0  0  0  0  0  0  0  0  0  0  0  0
   48.2846   33.8076   41.1869 H   0  0  0  0  0  0  0  0  0  0  0  0
   49.1808   31.8656   41.4215 H   0  0  0  0  0  0  0  0  0  0  0  0
   49.0110   29.6650   42.6809 H   0  0  0  0  0  0  0  0  0  0  0  0
   47.5801   29.8501   46.5196 H   0  0  0  0  0  0  0  0  0  0  0  0
   46.5796   29.6725   48.7600 H   0  0  0  0  0  0  0  0  0  0  0  0
   45.0263   33.5107   48.2139 H   0  0  0  0  0  0  0  0  0  0  0  0
   49.8162   35.0071   43.4771 H   0  0  0  0  0  0  0  0  0  0  0  0
   50.4078   34.3052   41.9331 H   0  0  0  0  0  0  0  0  0  0  0  0
   49.5592   35.8884   41.9331 H   0  0  0  0  0  0  0  0  0  0  0  0
   46.7540   35.1576   43.2885 H   0  0  0  0  0  0  0  0  0  0  0  0
   47.4763   36.0891   41.8989 H   0  0  0  0  0  0  0  0  0  0  0  0
   47.6450   33.5580   40.4281 H   0  0  0  0  0  0  0  0  0  0  0  0
   46.2273   32.4540   38.8072 H   0  0  0  0  0  0  0  0  0  0  0  0
   43.7692   32.8751   38.6983 H   0  0  0  0  0  0  0  0  0  0  0  0
   42.7863   34.4799   40.3301 H   0  0  0  0  0  0  0  0  0  0  0  0
   43.8592   36.5425   41.5968 H   0  0  0  0  0  0  0  0  0  0  0  0
   43.0673   35.9862   44.1968 H   0  0  0  0  0  0  0  0  0  0  0  0
   43.4249   34.4770   44.0584 H   0  0  0  0  0  0  0  0  0  0  0  0
   46.1001   35.3245   43.5894 H   0  0  0  0  0  0  0  0  0  0  0  0
   45.7932   36.7938   43.9821 H   0  0  0  0  0  0  0  0  0  0  0  0
  1 17  1  0
  1 16  1  0
  1  2  1  0
  2  7  1  0
  3  2  2  0
  3  4  1  0
  4  5  2  0
  5  6  1  0
  6  8  1  0
  7  6  2  0
  8 14  1  0
  8  9  1  0
  9 10  2  0
 10 11  1  0
 11 12  2  0
 13 11  1  0
 14 13  1  0
 15 14  2  0
 18 17  1  0
 19 18  2  0
 20 19  1  0
 21 20  2  0
 21 22  1  0
 22 23  2  0
 23 18  1  0
 23 24  1  0
 24 26  1  0
 24 25  1  0
 26 25  1  0
  1 27  1  6
  3 28  1  0
  4 29  1  0
  9 30  1  0
 10 31  1  0
 13 32  1  0
 16 33  1  0
 16 34  1  0
 16 35  1  0
 17 36  1  0
 17 37  1  0
 19 38  1  0
 20 39  1  0
 21 40  1  0
 22 41  1  0
 24 42  1  0
 25 43  1  0
 25 44  1  0
 26 45  1  0
 26 46  1  0
M  ISO  8  27   8  28  14  29  14  30  14  31  14  32   9  33   8  34   8
M  ISO  8  35   8  36   8  37   8  38  14  39  14  40  14  41  14  42  13
M  ISO  4  43  13  44  13  45  13  46  13
M  END
>  <minimizedAffinity>  (1) 
-6.33707142

>  <minimizedRMSD>  (1) 
1.19665825

$$$$
