
     RDKit          3D

 48 50  0  0  1  0  0  0  0  0999 V2000
   48.5030   34.0760   42.1270 C   0  0  2  0  0  0  0  0  0  0  0  0
   48.3240   32.8500   42.9270 C   0  0  0  0  0  0  0  0  0  0  0  0
   48.8330   31.6830   42.3440 C   0  0  0  0  0  0  0  0  0  0  0  0
   48.6840   30.4790   43.0620 C   0  0  0  0  0  0  0  0  0  0  0  0
   48.0630   30.5160   44.2640 N   0  0  0  0  0  0  0  0  0  0  0  0
   47.5830   31.6960   44.7850 C   0  0  0  0  0  0  0  0  0  0  0  0
   47.7210   32.8400   44.1100 N   0  0  0  0  0  0  0  0  0  0  0  0
   46.9390   31.7580   46.0630 N   0  0  0  0  0  0  0  0  0  0  0  0
   47.0320   30.6790   46.8350 C   0  0  0  0  0  0  0  0  0  0  0  0
   46.4640   30.6170   48.0960 C   0  0  0  0  0  0  0  0  0  0  0  0
   45.7830   31.7030   48.5640 C   0  0  0  0  0  0  0  0  0  0  0  0
   45.2190   31.7820   49.6940 O   0  0  0  0  0  0  0  0  0  0  0  0
   45.6950   32.7990   47.7650 N   0  0  0  0  0  0  0  0  0  0  0  0
   46.2610   32.8190   46.5460 C   0  0  0  0  0  0  0  0  0  0  0  0
   46.1920   33.8030   45.8100 O   0  0  0  0  0  0  0  0  0  0  0  0
   49.5800   34.9910   42.6590 C   0  0  0  0  0  0  0  0  0  0  0  0
   47.2680   34.7990   41.7270 C   0  0  0  0  0  0  0  0  0  0  0  0
   46.6170   34.1930   40.5950 C   0  0  0  0  0  0  0  0  0  0  0  0
   47.5660   34.0470   39.5200 C   0  0  0  0  0  0  0  0  0  0  0  0
   47.2510   33.4570   38.3480 C   0  0  0  0  0  0  0  0  0  0  0  0
   45.9830   32.9540   38.0860 C   0  0  0  0  0  0  0  0  0  0  0  0
   45.0550   33.0810   39.0660 C   0  0  0  0  0  0  0  0  0  0  0  0
   45.3870   33.6770   40.2470 C   0  0  0  0  0  0  0  0  0  0  0  0
   44.4210   33.9410   41.3490 C   0  0  0  0  0  0  0  0  0  0  0  0
   43.9990   35.3820   41.4940 C   0  0  0  0  0  0  0  0  0  0  0  0
   44.5710   33.1820   42.5920 C   0  0  0  0  0  0  0  0  0  0  0  0
   48.8691   33.6763   41.1698 H   0  0  0  0  0  0  0  0  0  0  0  0
   49.3302   31.7049   41.3630 H   0  0  0  0  0  0  0  0  0  0  0  0
   49.0640   29.5306   42.6544 H   0  0  0  0  0  0  0  0  0  0  0  0
   47.5805   29.8034   46.4576 H   0  0  0  0  0  0  0  0  0  0  0  0
   46.5599   29.7090   48.7094 H   0  0  0  0  0  0  0  0  0  0  0  0
   45.1854   33.6292   48.0996 H   0  0  0  0  0  0  0  0  0  0  0  0
   49.5631   34.9766   43.7588 H   0  0  0  0  0  0  0  0  0  0  0  0
   50.5623   34.6470   42.3029 H   0  0  0  0  0  0  0  0  0  0  0  0
   49.3992   36.0159   42.3029 H   0  0  0  0  0  0  0  0  0  0  0  0
   46.5693   34.8007   42.5766 H   0  0  0  0  0  0  0  0  0  0  0  0
   47.5570   35.8206   41.4392 H   0  0  0  0  0  0  0  0  0  0  0  0
   48.5870   34.4316   39.6605 H   0  0  0  0  0  0  0  0  0  0  0  0
   48.0262   33.3713   37.5723 H   0  0  0  0  0  0  0  0  0  0  0  0
   45.7426   32.4739   37.1259 H   0  0  0  0  0  0  0  0  0  0  0  0
   44.0339   32.7033   38.9087 H   0  0  0  0  0  0  0  0  0  0  0  0
   43.5205   33.4452   40.9574 H   0  0  0  0  0  0  0  0  0  0  0  0
   43.9244   35.6366   42.5615 H   0  0  0  0  0  0  0  0  0  0  0  0
   44.7444   36.0325   41.0131 H   0  0  0  0  0  0  0  0  0  0  0  0
   43.0205   35.5277   41.0131 H   0  0  0  0  0  0  0  0  0  0  0  0
   44.4379   33.8557   43.4513 H   0  0  0  0  0  0  0  0  0  0  0  0
   43.8128   32.3859   42.6293 H   0  0  0  0  0  0  0  0  0  0  0  0
   45.5750   32.7342   42.6293 H   0  0  0  0  0  0  0  0  0  0  0  0
  1 16  1  0
  1  2  1  0
  2  7  1  0
  3  2  2  0
  3  4  1  0
  4  5  2  0
  5  6  1  0
  6  8  1  0
  7  6  2  0
  8 14  1  0
  8  9  1  0
  9 10  2  0
 10 11  1  0
 11 12  2  0
 13 11  1  0
 14 13  1  0
 15 14  2  0
 17  1  1  0
 18 17  1  0
 19 18  2  0
 20 19  1  0
 21 20  2  0
 21 22  1  0
 22 23  2  0
 23 18  1  0
 23 24  1  0
 24 25  1  0
 24 26  1  0
  1 27  1  6
  3 28  1  0
  4 29  1  0
  9 30  1  0
 10 31  1  0
 13 32  1  0
 16 33  1  0
 16 34  1  0
 16 35  1  0
 17 36  1  0
 17 37  1  0
 19 38  1  0
 20 39  1  0
 21 40  1  0
 22 41  1  0
 24 42  1  0
 25 43  1  0
 25 44  1  0
 25 45  1  0
 26 46  1  0
 26 47  1  0
 26 48  1  0
M  ISO  8  27   8  28  14  29  14  30  14  31  14  32   9  33   8  34   8
M  ISO  8  35   8  36   8  37   8  38  14  39  14  40  14  41  14  42   8
M  ISO  6  43   8  44   8  45   8  46   8  47   8  48   8
M  END
>  <minimizedAffinity>  (1) 
-6.13018703

>  <minimizedRMSD>  (1) 
2.19667888

$$$$
