
     RDKit          3D

 26 27  0  0  1  0  0  0  0  0999 V2000
   44.5240   36.1070   44.5170 C   0  0  0  0  0  0  0  0  0  0  0  0
   45.2890   35.8050   43.3810 C   0  0  0  0  0  0  0  0  0  0  0  0
   46.0960   34.6680   43.3990 C   0  0  0  0  0  0  0  0  0  0  0  0
   46.0990   33.9080   44.5210 N   0  0  0  0  0  0  0  0  0  0  0  0
   45.3470   34.2310   45.5990 C   0  0  0  0  0  0  0  0  0  0  0  0
   44.5580   35.3240   45.6100 N   0  0  0  0  0  0  0  0  0  0  0  0
   45.4030   33.3990   46.7180 N   0  0  0  0  0  0  0  0  0  0  0  0
   46.9380   34.2760   42.2380 C   0  0  2  0  0  0  0  0  0  0  0  0
   48.0870   35.1990   42.0070 C   0  0  0  0  0  0  0  0  0  0  0  0
   48.5960   35.2750   40.6240 C   0  0  0  0  0  0  0  0  0  0  0  0
   48.0720   34.3570   39.6040 C   0  0  0  0  0  0  0  0  0  0  0  0
   46.7820   33.6690   39.9270 C   0  0  0  0  0  0  0  0  0  0  0  0
   46.0090   34.3390   41.0240 C   0  0  0  0  0  0  0  0  0  0  0  0
   43.8838   37.0015   44.5140 H   0  0  0  0  0  0  0  0  0  0  0  0
   45.2531   36.4528   42.4927 H   0  0  0  0  0  0  0  0  0  0  0  0
   44.8415   33.6201   47.5527 H   0  0  0  0  0  0  0  0  0  0  0  0
   46.0058   32.5639   46.7092 H   0  0  0  0  0  0  0  0  0  0  0  0
   47.3723   33.2816   42.4183 H   0  0  0  0  0  0  0  0  0  0  0  0
   48.5301   35.7900   42.8221 H   0  0  0  0  0  0  0  0  0  0  0  0
   49.3644   36.0158   40.3581 H   0  0  0  0  0  0  0  0  0  0  0  0
   48.8314   33.5802   39.4311 H   0  0  0  0  0  0  0  0  0  0  0  0
   47.8561   34.9862   38.7279 H   0  0  0  0  0  0  0  0  0  0  0  0
   46.1588   33.6529   39.0207 H   0  0  0  0  0  0  0  0  0  0  0  0
   47.0322   32.6566   40.2770 H   0  0  0  0  0  0  0  0  0  0  0  0
   45.7839   35.3828   40.7600 H   0  0  0  0  0  0  0  0  0  0  0  0
   45.0405   33.8525   41.2117 H   0  0  0  0  0  0  0  0  0  0  0  0
  1  6  2  0
  2  3  2  0
  2  1  1  0
  3  4  1  0
  4  5  2  0
  5  6  1  0
  5  7  1  0
  8  3  1  0
  9  8  1  0
 10  9  2  0
 11 12  1  0
 11 10  1  0
 12 13  1  0
 13  8  1  0
  1 14  1  0
  2 15  1  0
  7 16  1  0
  7 17  1  0
  8 18  1  1
  9 19  1  0
 10 20  1  0
 11 21  1  0
 11 22  1  0
 12 23  1  0
 12 24  1  0
 13 25  1  0
 13 26  1  0
M  ISO  8  14  14  15  14  18  13  19  13  20  13  21  13  22  13  23  13
M  ISO  3  24  13  25  13  26  13
M  END
>  <minimizedAffinity>  (1) 
-5.55857086

>  <minimizedRMSD>  (1) 
1.2139262

$$$$
