
     RDKit          3D

 22 23  0  0  0  0  0  0  0  0999 V2000
   44.4470   36.2690   44.7570 C   0  0  0  0  0  0  0  0  0  0  0  0
   45.0190   36.0550   43.4900 C   0  0  0  0  0  0  0  0  0  0  0  0
   45.7560   34.8910   43.2600 C   0  0  0  0  0  0  0  0  0  0  0  0
   45.8840   34.0100   44.2890 N   0  0  0  0  0  0  0  0  0  0  0  0
   45.3220   34.2530   45.4850 C   0  0  0  0  0  0  0  0  0  0  0  0
   44.6110   35.3540   45.7420 N   0  0  0  0  0  0  0  0  0  0  0  0
   45.5010   33.2950   46.4920 N   0  0  0  0  0  0  0  0  0  0  0  0
   46.3470   34.6530   41.9730 N   0  0  0  0  0  0  0  0  0  0  0  0
   47.6390   35.0600   41.9300 C   0  0  0  0  0  0  0  0  0  0  0  0
   48.3700   34.9120   40.7790 C   0  0  0  0  0  0  0  0  0  0  0  0
   47.8020   34.3530   39.6620 C   0  0  0  0  0  0  0  0  0  0  0  0
   48.4700   34.2220   38.6220 O   0  0  0  0  0  0  0  0  0  0  0  0
   46.5230   33.9760   39.7790 N   0  0  0  0  0  0  0  0  0  0  0  0
   45.7780   34.1040   40.8840 C   0  0  0  0  0  0  0  0  0  0  0  0
   44.5950   33.7700   41.0360 O   0  0  0  0  0  0  0  0  0  0  0  0
   43.8646   37.1823   44.9485 H   0  0  0  0  0  0  0  0  0  0  0  0
   44.8873   36.7967   42.6884 H   0  0  0  0  0  0  0  0  0  0  0  0
   45.0865   33.4431   47.4232 H   0  0  0  0  0  0  0  0  0  0  0  0
   46.0471   32.4428   46.3009 H   0  0  0  0  0  0  0  0  0  0  0  0
   48.1024   35.5101   42.8203 H   0  0  0  0  0  0  0  0  0  0  0  0
   49.4185   35.2436   40.7511 H   0  0  0  0  0  0  0  0  0  0  0  0
   46.0762   33.5536   38.9527 H   0  0  0  0  0  0  0  0  0  0  0  0
  1  6  2  0
  2  1  1  0
  3  2  2  0
  3  4  1  0
  4  5  2  0
  5  6  1  0
  5  7  1  0
  8  3  1  0
  9  8  1  0
 10  9  2  0
 11 13  1  0
 11 10  1  0
 12 11  2  0
 13 14  1  0
 14 15  2  0
 14  8  1  0
  1 16  1  0
  2 17  1  0
  7 18  1  0
  7 19  1  0
  9 20  1  0
 10 21  1  0
 13 22  1  0
M  ISO  5  16  14  17  14  20  14  21  14  22   9
M  END
>  <minimizedAffinity>  (1) 
-5.42030382

>  <minimizedRMSD>  (1) 
1.73927319

$$$$
