
     RDKit          3D

 23 25  0  0  0  0  0  0  0  0999 V2000
   44.8450   36.0140   43.8800 C   0  0  0  0  0  0  0  0  0  0  0  0
   45.7740   35.1170   43.3140 C   0  0  0  0  0  0  0  0  0  0  0  0
   46.1890   34.0270   44.0790 C   0  0  0  0  0  0  0  0  0  0  0  0
   45.6820   33.8840   45.3210 N   0  0  0  0  0  0  0  0  0  0  0  0
   44.7960   34.7600   45.8320 C   0  0  0  0  0  0  0  0  0  0  0  0
   44.3650   35.8230   45.1400 N   0  0  0  0  0  0  0  0  0  0  0  0
   44.3140   34.5520   47.1200 N   0  0  0  0  0  0  0  0  0  0  0  0
   47.1240   33.0850   43.5670 N   0  0  0  0  0  0  0  0  0  0  0  0
   46.8920   31.7640   43.4580 C   0  0  0  0  0  0  0  0  0  0  0  0
   47.9900   31.1580   42.9330 N   0  0  0  0  0  0  0  0  0  0  0  0
   48.9070   32.1030   42.7140 C   0  0  0  0  0  0  0  0  0  0  0  0
   50.1960   31.9930   42.1880 C   0  0  0  0  0  0  0  0  0  0  0  0
   50.8860   33.1440   42.0900 N   0  0  0  0  0  0  0  0  0  0  0  0
   50.3630   34.3160   42.4740 C   0  0  0  0  0  0  0  0  0  0  0  0
   49.1110   34.4110   42.9830 N   0  0  0  0  0  0  0  0  0  0  0  0
   48.3580   33.3060   43.1130 C   0  0  0  0  0  0  0  0  0  0  0  0
   44.5030   36.8807   43.2953 H   0  0  0  0  0  0  0  0  0  0  0  0
   46.1612   35.2727   42.2962 H   0  0  0  0  0  0  0  0  0  0  0  0
   43.6358   35.2107   47.5287 H   0  0  0  0  0  0  0  0  0  0  0  0
   44.6353   33.7393   47.6651 H   0  0  0  0  0  0  0  0  0  0  0  0
   45.9610   31.2548   43.7479 H   0  0  0  0  0  0  0  0  0  0  0  0
   50.6199   31.0277   41.8741 H   0  0  0  0  0  0  0  0  0  0  0  0
   50.9684   35.2289   42.3730 H   0  0  0  0  0  0  0  0  0  0  0  0
  1  6  2  0
  2  1  1  0
  2  3  2  0
  3  4  1  0
  4  5  2  0
  5  7  1  0
  6  5  1  0
  8  3  1  0
  9  8  1  0
 10  9  2  0
 11 10  1  0
 11 16  2  0
 12 11  1  0
 13 12  2  0
 13 14  1  0
 14 15  2  0
 15 16  1  0
 16  8  1  0
  1 17  1  0
  2 18  1  0
  7 19  1  0
  7 20  1  0
  9 21  1  0
 12 22  1  0
 14 23  1  0
M  ISO  5  17  14  18  14  21  14  22  14  23  14
M  END
>  <minimizedAffinity>  (1) 
-5.34646273

>  <minimizedRMSD>  (1) 
1.54320335

$$$$
