
     RDKit          3D

 27 28  0  0  0  0  0  0  0  0999 V2000
   44.4790   36.1030   44.6250 C   0  0  0  0  0  0  0  0  0  0  0  0
   45.2420   35.8540   43.4710 C   0  0  0  0  0  0  0  0  0  0  0  0
   46.0700   34.7350   43.4440 C   0  0  0  0  0  0  0  0  0  0  0  0
   46.1100   33.9310   44.5250 N   0  0  0  0  0  0  0  0  0  0  0  0
   45.3650   34.1910   45.6260 C   0  0  0  0  0  0  0  0  0  0  0  0
   44.5570   35.2580   45.6900 N   0  0  0  0  0  0  0  0  0  0  0  0
   45.4510   33.3240   46.7070 N   0  0  0  0  0  0  0  0  0  0  0  0
   46.8540   34.4570   42.2900 N   0  0  0  0  0  0  0  0  0  0  0  0
   47.9530   35.3040   41.9350 C   0  0  0  0  0  0  0  0  0  0  0  0
   48.8220   34.4850   40.9710 C   0  0  0  0  0  0  0  0  0  0  0  0
   47.9980   34.3300   39.7110 C   0  0  0  0  0  0  0  0  0  0  0  0
   46.6550   33.7510   40.0340 C   0  0  0  0  0  0  0  0  0  0  0  0
   46.5240   33.3040   41.4800 C   0  0  0  0  0  0  0  0  0  0  0  0
   43.8182   36.9814   44.6678 H   0  0  0  0  0  0  0  0  0  0  0  0
   45.1860   36.5306   42.6055 H   0  0  0  0  0  0  0  0  0  0  0  0
   44.8939   33.5013   47.5550 H   0  0  0  0  0  0  0  0  0  0  0  0
   46.0719   32.5035   46.6610 H   0  0  0  0  0  0  0  0  0  0  0  0
   47.5885   36.2163   41.4402 H   0  0  0  0  0  0  0  0  0  0  0  0
   48.5219   35.6199   42.8219 H   0  0  0  0  0  0  0  0  0  0  0  0
   49.7599   35.0170   40.7533 H   0  0  0  0  0  0  0  0  0  0  0  0
   49.0970   33.5100   41.3997 H   0  0  0  0  0  0  0  0  0  0  0  0
   48.5235   33.6603   39.0143 H   0  0  0  0  0  0  0  0  0  0  0  0
   47.8590   35.3196   39.2513 H   0  0  0  0  0  0  0  0  0  0  0  0
   45.8887   34.5144   39.8340 H   0  0  0  0  0  0  0  0  0  0  0  0
   46.5258   32.8582   39.4046 H   0  0  0  0  0  0  0  0  0  0  0  0
   45.4946   32.9753   41.6858 H   0  0  0  0  0  0  0  0  0  0  0  0
   47.1894   32.4560   41.6995 H   0  0  0  0  0  0  0  0  0  0  0  0
  1  6  2  0
  2  1  1  0
  3  2  2  0
  3  4  1  0
  4  5  2  0
  5  6  1  0
  5  7  1  0
  8  3  1  0
  9  8  1  0
 10  9  1  0
 11 12  1  0
 11 10  1  0
 12 13  1  0
 13  8  1  0
  1 14  1  0
  2 15  1  0
  7 16  1  0
  7 17  1  0
  9 18  1  0
  9 19  1  0
 10 20  1  0
 10 21  1  0
 11 22  1  0
 11 23  1  0
 12 24  1  0
 12 25  1  0
 13 26  1  0
 13 27  1  0
M  ISO  8  14  14  15  14  18  13  19  13  20  13  21  13  22  13  23  13
M  ISO  4  24  13  25  13  26  13  27  13
M  END
>  <minimizedAffinity>  (1) 
-4.82247496

>  <minimizedRMSD>  (1) 
0.855577409

$$$$
