
     RDKit          3D

 25 26  0  0  0  0  0  0  0  0999 V2000
   44.6200   36.1120   44.3540 C   0  0  0  0  0  0  0  0  0  0  0  0
   45.4510   35.6910   43.3040 C   0  0  0  0  0  0  0  0  0  0  0  0
   46.2030   34.5290   43.4670 C   0  0  0  0  0  0  0  0  0  0  0  0
   46.0870   33.8590   44.6490 N   0  0  0  0  0  0  0  0  0  0  0  0
   45.2830   34.2920   45.6280 C   0  0  0  0  0  0  0  0  0  0  0  0
   44.5460   35.4090   45.5010 N   0  0  0  0  0  0  0  0  0  0  0  0
   45.2200   33.5530   46.8050 N   0  0  0  0  0  0  0  0  0  0  0  0
   47.0830   33.9940   42.4810 N   0  0  0  0  0  0  0  0  0  0  0  0
   47.1510   34.4800   41.2190 C   0  0  0  0  0  0  0  0  0  0  0  0
   48.0420   33.8640   40.3940 C   0  0  0  0  0  0  0  0  0  0  0  0
   48.1790   34.3440   38.9770 C   0  0  0  0  0  0  0  0  0  0  0  0
   48.8470   32.7980   40.7900 C   0  0  0  0  0  0  0  0  0  0  0  0
   49.6590   32.2550   39.9930 O   0  0  0  0  0  0  0  0  0  0  0  0
   48.7420   32.3430   42.0720 N   0  0  0  0  0  0  0  0  0  0  0  0
   47.8630   32.9500   42.8910 C   0  0  0  0  0  0  0  0  0  0  0  0
   47.7760   32.5150   44.0830 O   0  0  0  0  0  0  0  0  0  0  0  0
   44.0215   37.0277   44.2389 H   0  0  0  0  0  0  0  0  0  0  0  0
   45.5077   36.2679   42.3692 H   0  0  0  0  0  0  0  0  0  0  0  0
   44.6100   33.8622   47.5752 H   0  0  0  0  0  0  0  0  0  0  0  0
   45.7833   32.6967   46.9062 H   0  0  0  0  0  0  0  0  0  0  0  0
   46.5257   35.3197   40.8815 H   0  0  0  0  0  0  0  0  0  0  0  0
   48.4809   35.4018   38.9758 H   0  0  0  0  0  0  0  0  0  0  0  0
   48.9419   33.7443   38.4589 H   0  0  0  0  0  0  0  0  0  0  0  0
   47.2145   34.2373   38.4589 H   0  0  0  0  0  0  0  0  0  0  0  0
   49.3192   31.5571   42.4038 H   0  0  0  0  0  0  0  0  0  0  0  0
  1  6  2  0
  2  3  2  0
  2  1  1  0
  3  4  1  0
  4  5  2  0
  5  7  1  0
  6  5  1  0
  8 15  1  0
  8  3  1  0
  9  8  1  0
 10 12  1  0
 10  9  2  0
 11 10  1  0
 12 14  1  0
 13 12  2  0
 14 15  1  0
 15 16  2  0
  1 17  1  0
  2 18  1  0
  7 19  1  0
  7 20  1  0
  9 21  1  0
 11 22  1  0
 11 23  1  0
 11 24  1  0
 14 25  1  0
M  ISO  7  17  14  18  14  21  14  22   8  23   8  24   8  25   9
M  END
>  <minimizedAffinity>  (1) 
-5.30475187

>  <minimizedRMSD>  (1) 
0.376665115

$$$$
