
     RDKit          3D

 19 20  0  0  0  0  0  0  0  0999 V2000
   44.5090   36.1480   44.6370 C   0  0  0  0  0  0  0  0  0  0  0  0
   45.2070   36.0720   43.4160 C   0  0  0  0  0  0  0  0  0  0  0  0
   46.0210   34.9610   43.1920 C   0  0  0  0  0  0  0  0  0  0  0  0
   46.0960   34.0120   44.1660 N   0  0  0  0  0  0  0  0  0  0  0  0
   45.4160   34.1230   45.3110 C   0  0  0  0  0  0  0  0  0  0  0  0
   44.6260   35.1750   45.5590 N   0  0  0  0  0  0  0  0  0  0  0  0
   45.5520   33.1030   46.2550 N   0  0  0  0  0  0  0  0  0  0  0  0
   46.7910   34.7770   41.9620 C   0  0  0  0  0  0  0  0  0  0  0  0
   48.0640   35.3250   41.7960 C   0  0  0  0  0  0  0  0  0  0  0  0
   48.5110   34.9720   40.5450 C   0  0  0  0  0  0  0  0  0  0  0  0
   47.4770   34.2130   39.9940 C   0  0  0  0  0  0  0  0  0  0  0  0
   46.5100   34.1340   40.8570 O   0  0  0  0  0  0  0  0  0  0  0  0
   43.8605   37.0132   44.8393 H   0  0  0  0  0  0  0  0  0  0  0  0
   45.1131   36.8659   42.6604 H   0  0  0  0  0  0  0  0  0  0  0  0
   45.0421   33.1567   47.1483 H   0  0  0  0  0  0  0  0  0  0  0  0
   46.1622   32.2970   46.0580 H   0  0  0  0  0  0  0  0  0  0  0  0
   48.6111   35.9305   42.5336 H   0  0  0  0  0  0  0  0  0  0  0  0
   49.4734   35.2310   40.0796 H   0  0  0  0  0  0  0  0  0  0  0  0
   47.4808   33.7568   38.9931 H   0  0  0  0  0  0  0  0  0  0  0  0
  1  6  2  0
  2  1  1  0
  3  2  2  0
  3  4  1  0
  4  5  2  0
  5  6  1  0
  5  7  1  0
  8  3  1  0
  9  8  2  0
 10  9  1  0
 11 10  2  0
 11 12  1  0
 12  8  1  0
  1 13  1  0
  2 14  1  0
  7 15  1  0
  7 16  1  0
  9 17  1  0
 10 18  1  0
 11 19  1  0
M  ISO  5  13  14  14  14  17  14  18  14  19  14
M  END
>  <minimizedAffinity>  (1) 
-4.8157649

>  <minimizedRMSD>  (1) 
1.19516766

$$$$
