
     RDKit          3D

 19 20  0  0  0  0  0  0  0  0999 V2000
   44.5070   36.1400   44.6180 C   0  0  0  0  0  0  0  0  0  0  0  0
   45.2310   36.0560   43.3980 C   0  0  0  0  0  0  0  0  0  0  0  0
   46.0520   34.9460   43.2030 C   0  0  0  0  0  0  0  0  0  0  0  0
   46.1270   34.0030   44.1710 N   0  0  0  0  0  0  0  0  0  0  0  0
   45.4190   34.1210   45.3210 C   0  0  0  0  0  0  0  0  0  0  0  0
   44.6190   35.1660   45.5550 N   0  0  0  0  0  0  0  0  0  0  0  0
   45.5440   33.1130   46.2730 N   0  0  0  0  0  0  0  0  0  0  0  0
   46.8240   34.7950   41.9730 C   0  0  0  0  0  0  0  0  0  0  0  0
   46.3970   34.1270   40.8490 C   0  0  0  0  0  0  0  0  0  0  0  0
   47.4430   34.2630   40.0010 N   0  0  0  0  0  0  0  0  0  0  0  0
   48.4140   34.9570   40.5750 C   0  0  0  0  0  0  0  0  0  0  0  0
   48.0590   35.3100   41.8200 N   0  0  0  0  0  0  0  0  0  0  0  0
   43.8501   37.0025   44.8039 H   0  0  0  0  0  0  0  0  0  0  0  0
   45.1464   36.8412   42.6323 H   0  0  0  0  0  0  0  0  0  0  0  0
   45.0197   33.1722   47.1576 H   0  0  0  0  0  0  0  0  0  0  0  0
   46.1608   32.3080   46.0928 H   0  0  0  0  0  0  0  0  0  0  0  0
   45.4409   33.6097   40.6808 H   0  0  0  0  0  0  0  0  0  0  0  0
   49.3736   35.2080   40.0995 H   0  0  0  0  0  0  0  0  0  0  0  0
   48.6067   35.8519   42.5035 H   0  0  0  0  0  0  0  0  0  0  0  0
  1  6  2  0
  2  1  1  0
  3  2  2  0
  3  4  1  0
  4  5  2  0
  5  6  1  0
  5  7  1  0
  8  3  1  0
  9  8  2  0
 10 11  2  0
 10  9  1  0
 11 12  1  0
 12  8  1  0
  1 13  1  0
  2 14  1  0
  7 15  1  0
  7 16  1  0
  9 17  1  0
 11 18  1  0
 12 19  1  0
M  ISO  5  13  14  14  14  17  14  18  14  19   9
M  END
>  <minimizedAffinity>  (1) 
-4.5115943

>  <minimizedRMSD>  (1) 
1.12771678

$$$$
