
     RDKit          3D

 24 25  0  0  0  0  0  0  0  0999 V2000
   44.4210   36.1950   44.6900 C   0  0  0  0  0  0  0  0  0  0  0  0
   45.1090   36.0860   43.4720 C   0  0  0  0  0  0  0  0  0  0  0  0
   45.9680   35.0040   43.2770 C   0  0  0  0  0  0  0  0  0  0  0  0
   46.1000   34.1020   44.2790 N   0  0  0  0  0  0  0  0  0  0  0  0
   45.4230   34.2370   45.4400 C   0  0  0  0  0  0  0  0  0  0  0  0
   44.5880   35.2660   45.6600 N   0  0  0  0  0  0  0  0  0  0  0  0
   45.5940   33.2790   46.4420 N   0  0  0  0  0  0  0  0  0  0  0  0
   46.7180   34.7880   42.0850 N   0  0  0  0  0  0  0  0  0  0  0  0
   46.3280   34.1920   40.8200 C   0  0  0  0  0  0  0  0  0  0  0  0
   47.6550   33.7910   40.2110 C   0  0  0  0  0  0  0  0  0  0  0  0
   48.4620   35.0440   40.5060 C   0  0  0  0  0  0  0  0  0  0  0  0
   48.1290   35.1900   41.9940 C   0  0  0  0  0  0  0  0  0  0  0  0
   43.7402   37.0426   44.8579 H   0  0  0  0  0  0  0  0  0  0  0  0
   44.9734   36.8412   42.6838 H   0  0  0  0  0  0  0  0  0  0  0  0
   45.0844   33.3687   47.3326 H   0  0  0  0  0  0  0  0  0  0  0  0
   46.2297   32.4829   46.2903 H   0  0  0  0  0  0  0  0  0  0  0  0
   45.6839   33.3144   40.9780 H   0  0  0  0  0  0  0  0  0  0  0  0
   45.7448   34.8717   40.1813 H   0  0  0  0  0  0  0  0  0  0  0  0
   47.5697   33.6040   39.1304 H   0  0  0  0  0  0  0  0  0  0  0  0
   48.0844   32.8572   40.6030 H   0  0  0  0  0  0  0  0  0  0  0  0
   49.5382   34.8924   40.3359 H   0  0  0  0  0  0  0  0  0  0  0  0
   48.2306   35.9175   39.8788 H   0  0  0  0  0  0  0  0  0  0  0  0
   48.7636   34.5295   42.6031 H   0  0  0  0  0  0  0  0  0  0  0  0
   48.3032   36.2096   42.3683 H   0  0  0  0  0  0  0  0  0  0  0  0
  1  6  2  0
  2  1  1  0
  3  2  2  0
  3  4  1  0
  4  5  2  0
  5  6  1  0
  5  7  1  0
  8  3  1  0
  9  8  1  0
 10 11  1  0
 10  9  1  0
 11 12  1  0
 12  8  1  0
  1 13  1  0
  2 14  1  0
  7 15  1  0
  7 16  1  0
  9 17  1  0
  9 18  1  0
 10 19  1  0
 10 20  1  0
 11 21  1  0
 11 22  1  0
 12 23  1  0
 12 24  1  0
M  ISO  8  13  14  14  14  17  13  18  13  19  13  20  13  21  13  22  13
M  ISO  2  23  13  24  13
M  END
>  <minimizedAffinity>  (1) 
-4.64528513

>  <minimizedRMSD>  (1) 
1.24939466

$$$$
