
     RDKit          3D

 18 18  0  0  0  0  0  0  0  0999 V2000
   44.6280   36.0870   44.2880 C   0  0  0  0  0  0  0  0  0  0  0  0
   45.4850   35.7450   43.2260 C   0  0  0  0  0  0  0  0  0  0  0  0
   46.3050   34.6200   43.3390 C   0  0  0  0  0  0  0  0  0  0  0  0
   46.2290   33.9010   44.4960 N   0  0  0  0  0  0  0  0  0  0  0  0
   45.3980   34.2520   45.4990 C   0  0  0  0  0  0  0  0  0  0  0  0
   44.5960   35.3300   45.4170 N   0  0  0  0  0  0  0  0  0  0  0  0
   45.3840   33.4590   46.6470 N   0  0  0  0  0  0  0  0  0  0  0  0
   47.2400   34.1790   42.2740 C   0  0  0  0  0  0  0  0  0  0  0  0
   48.1430   35.2910   41.7820 C   0  0  0  0  0  0  0  0  0  0  0  0
   43.9800   36.9720   44.2045 H   0  0  0  0  0  0  0  0  0  0  0  0
   45.5091   36.3589   42.3136 H   0  0  0  0  0  0  0  0  0  0  0  0
   44.7611   33.6992   47.4313 H   0  0  0  0  0  0  0  0  0  0  0  0
   45.9966   32.6334   46.7101 H   0  0  0  0  0  0  0  0  0  0  0  0
   47.8675   33.3680   42.6722 H   0  0  0  0  0  0  0  0  0  0  0  0
   46.6324   33.8461   41.4196 H   0  0  0  0  0  0  0  0  0  0  0  0
   48.5740   35.8217   42.6437 H   0  0  0  0  0  0  0  0  0  0  0  0
   48.9526   34.8633   41.1725 H   0  0  0  0  0  0  0  0  0  0  0  0
   47.5582   35.9956   41.1725 H   0  0  0  0  0  0  0  0  0  0  0  0
  1  6  2  0
  2  3  2  0
  2  1  1  0
  3  4  1  0
  4  5  2  0
  5  7  1  0
  6  5  1  0
  8  3  1  0
  9  8  1  0
  1 10  1  0
  2 11  1  0
  7 12  1  0
  7 13  1  0
  8 14  1  0
  8 15  1  0
  9 16  1  0
  9 17  1  0
  9 18  1  0
M  ISO  7  10  14  11  14  14   8  15   8  16   8  17   8  18   8
M  END
>  <minimizedAffinity>  (1) 
-3.90434885

>  <minimizedRMSD>  (1) 
0.450681001

$$$$
