
     RDKit          3D

 19 20  0  0  0  0  0  0  0  0999 V2000
   44.4600   36.1270   44.6470 C   0  0  0  0  0  0  0  0  0  0  0  0
   45.2120   35.9680   43.4660 C   0  0  0  0  0  0  0  0  0  0  0  0
   46.0700   34.8730   43.3740 C   0  0  0  0  0  0  0  0  0  0  0  0
   46.1280   34.0270   44.4260 N   0  0  0  0  0  0  0  0  0  0  0  0
   45.4060   34.1980   45.5360 C   0  0  0  0  0  0  0  0  0  0  0  0
   44.5620   35.2480   45.6650 N   0  0  0  0  0  0  0  0  0  0  0  0
   45.5300   33.2730   46.5760 N   0  0  0  0  0  0  0  0  0  0  0  0
   46.8870   34.5880   42.2430 N   0  0  0  0  0  0  0  0  0  0  0  0
   46.4970   34.2770   40.9950 C   0  0  0  0  0  0  0  0  0  0  0  0
   47.6850   34.1010   40.3110 C   0  0  0  0  0  0  0  0  0  0  0  0
   48.7380   34.3060   41.1470 N   0  0  0  0  0  0  0  0  0  0  0  0
   48.2170   34.6120   42.3660 C   0  0  0  0  0  0  0  0  0  0  0  0
   43.7769   36.9841   44.7405 H   0  0  0  0  0  0  0  0  0  0  0  0
   45.1245   36.6882   42.6392 H   0  0  0  0  0  0  0  0  0  0  0  0
   44.9798   33.3912   47.4387 H   0  0  0  0  0  0  0  0  0  0  0  0
   46.1716   32.4730   46.4799 H   0  0  0  0  0  0  0  0  0  0  0  0
   45.4715   34.1842   40.6082 H   0  0  0  0  0  0  0  0  0  0  0  0
   47.7668   33.8343   39.2470 H   0  0  0  0  0  0  0  0  0  0  0  0
   48.7844   34.8369   43.2811 H   0  0  0  0  0  0  0  0  0  0  0  0
  1  6  2  0
  2  1  1  0
  3  2  2  0
  3  4  1  0
  4  5  2  0
  5  6  1  0
  5  7  1  0
  8 12  1  0
  8  3  1  0
  9  8  1  0
 10  9  2  0
 10 11  1  0
 11 12  2  0
  1 13  1  0
  2 14  1  0
  7 15  1  0
  7 16  1  0
  9 17  1  0
 10 18  1  0
 12 19  1  0
M  ISO  5  13  14  14  14  17  14  18  14  19  14
M  END
>  <minimizedAffinity>  (1) 
-4.33407259

>  <minimizedRMSD>  (1) 
0.890611708

$$$$
