
     RDKit          3D

 29 31  0  0  0  0  0  0  0  0999 V2000
   47.3460   33.2720   43.5030 C   0  0  0  0  0  0  0  0  0  0  0  0
   47.4170   32.0350   43.8350 O   0  0  0  0  0  0  0  0  0  0  0  0
   44.7630   35.9380   44.1540 C   0  0  0  0  0  0  0  0  0  0  0  0
   45.7530   35.1740   43.4990 C   0  0  0  0  0  0  0  0  0  0  0  0
   46.3300   34.0710   44.1520 C   0  0  0  0  0  0  0  0  0  0  0  0
   45.8780   33.8210   45.3930 N   0  0  0  0  0  0  0  0  0  0  0  0
   44.9380   34.5560   45.9980 C   0  0  0  0  0  0  0  0  0  0  0  0
   44.3680   35.6220   45.3910 N   0  0  0  0  0  0  0  0  0  0  0  0
   44.5380   34.2060   47.2990 N   0  0  0  0  0  0  0  0  0  0  0  0
   48.1760   33.8330   42.5820 O   0  0  0  0  0  0  0  0  0  0  0  0
   48.1370   33.4570   41.2460 C   0  0  0  0  0  0  0  0  0  0  0  0
   47.0990   33.7370   40.4110 N   0  0  0  0  0  0  0  0  0  0  0  0
   47.1310   33.3360   39.1140 C   0  0  0  0  0  0  0  0  0  0  0  0
   48.1970   32.6500   38.6310 N   0  0  0  0  0  0  0  0  0  0  0  0
   49.2600   32.3390   39.4050 C   0  0  0  0  0  0  0  0  0  0  0  0
   50.3050   31.6430   38.8490 C   0  0  0  0  0  0  0  0  0  0  0  0
   51.3560   31.3600   39.7000 C   0  0  0  0  0  0  0  0  0  0  0  0
   51.3280   31.7640   41.0160 C   0  0  0  0  0  0  0  0  0  0  0  0
   50.2800   32.4590   41.5590 C   0  0  0  0  0  0  0  0  0  0  0  0
   49.2030   32.7580   40.7190 C   0  0  0  0  0  0  0  0  0  0  0  0
   44.3127   36.8010   43.6417 H   0  0  0  0  0  0  0  0  0  0  0  0
   46.0719   35.4410   42.4807 H   0  0  0  0  0  0  0  0  0  0  0  0
   43.8158   34.7591   47.7821 H   0  0  0  0  0  0  0  0  0  0  0  0
   44.9671   33.3964   47.7694 H   0  0  0  0  0  0  0  0  0  0  0  0
   46.2858   33.5693   38.4497 H   0  0  0  0  0  0  0  0  0  0  0  0
   50.3053   31.3309   37.7942 H   0  0  0  0  0  0  0  0  0  0  0  0
   52.2266   30.8046   39.3212 H   0  0  0  0  0  0  0  0  0  0  0  0
   52.1852   31.5177   41.6598 H   0  0  0  0  0  0  0  0  0  0  0  0
   50.2855   32.7696   42.6142 H   0  0  0  0  0  0  0  0  0  0  0  0
  1  2  2  0
  1  5  1  0
  3  8  2  0
  4  5  2  0
  4  3  1  0
  5  6  1  0
  6  7  2  0
  7  9  1  0
  8  7  1  0
 10  1  1  0
 11 10  1  0
 12 11  2  0
 13 12  1  0
 14 13  2  0
 14 15  1  0
 15 20  2  0
 16 15  1  0
 16 17  2  0
 17 18  1  0
 18 19  2  0
 20 11  1  0
 20 19  1  0
  3 21  1  0
  4 22  1  0
  9 23  1  0
  9 24  1  0
 13 25  1  0
 16 26  1  0
 17 27  1  0
 18 28  1  0
 19 29  1  0
M  ISO  7  21  14  22  14  25  14  26  14  27  14  28  14  29  14
M  END
>  <minimizedAffinity>  (1) 
-5.25721741

>  <minimizedRMSD>  (1) 
1.59584236

$$$$
