
     RDKit          3D

 26 28  0  0  1  0  0  0  0  0999 V2000
   45.7870   34.1220   41.6780 N   0  0  0  0  0  0  0  0  0  0  0  0
   45.0280   33.7280   40.6190 C   0  0  0  0  0  0  0  0  0  0  0  0
   45.8140   33.5410   39.5460 N   0  0  0  0  0  0  0  0  0  0  0  0
   47.0840   33.8230   39.9390 C   0  0  0  0  0  0  0  0  0  0  0  0
   47.0410   34.1700   41.2260 N   0  0  0  0  0  0  0  0  0  0  0  0
   44.8350   35.7110   43.2180 C   0  0  0  0  0  0  0  0  0  0  0  0
   45.4480   34.4460   43.0100 C   0  0  0  0  0  0  0  0  0  0  0  0
   45.6620   33.6510   44.1120 C   0  0  0  0  0  0  0  0  0  0  0  0
   45.2720   34.1310   45.3150 N   0  0  0  0  0  0  0  0  0  0  0  0
   44.6980   35.3190   45.4950 C   0  0  0  0  0  0  0  0  0  0  0  0
   44.4790   36.1120   44.4330 N   0  0  0  0  0  0  0  0  0  0  0  0
   48.3390   33.7890   39.1460 C   0  0  2  0  0  0  0  0  0  0  0  0
   48.3050   34.4970   37.7710 C   0  0  0  0  0  0  0  0  0  0  0  0
   48.4210   32.9700   37.8950 C   0  0  1  0  0  0  0  0  0  0  0  0
   49.7020   32.3100   37.4680 C   0  0  0  0  0  0  0  0  0  0  0  0
   43.9376   33.5846   40.6389 H   0  0  0  0  0  0  0  0  0  0  0  0
   44.6520   36.3703   42.3567 H   0  0  0  0  0  0  0  0  0  0  0  0
   46.1330   32.6613   44.0184 H   0  0  0  0  0  0  0  0  0  0  0  0
   44.4061   35.6478   46.5033 H   0  0  0  0  0  0  0  0  0  0  0  0
   48.9585   33.8396   40.0536 H   0  0  0  0  0  0  0  0  0  0  0  0
   49.1650   35.0934   37.4322 H   0  0  0  0  0  0  0  0  0  0  0  0
   47.6275   35.1977   37.2612 H   0  0  0  0  0  0  0  0  0  0  0  0
   47.8532   32.1036   37.5249 H   0  0  0  0  0  0  0  0  0  0  0  0
   50.2764   32.0140   38.3582 H   0  0  0  0  0  0  0  0  0  0  0  0
   49.4722   31.4181   36.8666 H   0  0  0  0  0  0  0  0  0  0  0  0
   50.2949   33.0149   36.8666 H   0  0  0  0  0  0  0  0  0  0  0  0
  1  7  1  0
  2  1  1  0
  3  4  1  0
  3  2  2  0
  4  5  2  0
  5  1  1  0
  6 11  2  0
  7  6  1  0
  7  8  2  0
  8  9  1  0
  9 10  2  0
 11 10  1  0
 12  4  1  0
 13 14  1  0
 13 12  1  0
 14 12  1  0
 15 14  1  0
  2 16  1  0
  6 17  1  0
  8 18  1  0
 10 19  1  0
 12 20  1  1
 13 21  1  0
 13 22  1  0
 14 23  1  6
 15 24  1  0
 15 25  1  0
 15 26  1  0
M  ISO  8  16  14  17  14  18  14  19  14  20  13  21  13  22  13  23  13
M  ISO  3  24   8  25   8  26   8
M  END
>  <minimizedAffinity>  (1) 
-4.12866449

>  <minimizedRMSD>  (1) 
0.203523234

$$$$
