
     RDKit          3D

 13 13  0  0  0  0  0  0  0  0999 V2000
   44.6580   36.0390   44.3110 C   0  0  0  0  0  0  0  0  0  0  0  0
   45.4760   35.5640   43.2730 C   0  0  0  0  0  0  0  0  0  0  0  0
   46.2070   34.3940   43.4730 C   0  0  0  0  0  0  0  0  0  0  0  0
   46.0890   33.7680   44.6780 N   0  0  0  0  0  0  0  0  0  0  0  0
   45.3010   34.2490   45.6430 C   0  0  0  0  0  0  0  0  0  0  0  0
   44.5780   35.3800   45.4810 N   0  0  0  0  0  0  0  0  0  0  0  0
   45.2280   33.5580   46.8470 N   0  0  0  0  0  0  0  0  0  0  0  0
   47.2860   33.6750   42.2440 S   0  0  0  0  0  0  0  0  0  0  0  0
   44.0758   36.9609   44.1656 H   0  0  0  0  0  0  0  0  0  0  0  0
   45.5389   36.1062   42.3180 H   0  0  0  0  0  0  0  0  0  0  0  0
   44.6273   33.9089   47.6066 H   0  0  0  0  0  0  0  0  0  0  0  0
   45.7746   32.6951   46.9795 H   0  0  0  0  0  0  0  0  0  0  0  0
   48.3012   32.9985   42.8673 H   0  0  0  0  0  0  0  0  0  0  0  0
  1  6  2  0
  2  3  2  0
  2  1  1  0
  3  4  1  0
  4  5  2  0
  5  7  1  0
  6  5  1  0
  8  3  1  0
  1  9  1  0
  2 10  1  0
  7 11  1  0
  7 12  1  0
  8 13  1  0
M  ISO  3   9  14  10  14  13  11
M  END
>  <minimizedAffinity>  (1) 
-3.51303244

>  <minimizedRMSD>  (1) 
0.0720692873

$$$$
