
     RDKit          3D

 13 13  0  0  0  0  0  0  0  0999 V2000
   44.6440   36.0520   44.3230 C   0  0  0  0  0  0  0  0  0  0  0  0
   45.4850   35.5900   43.2850 C   0  0  0  0  0  0  0  0  0  0  0  0
   46.2380   34.4270   43.4710 C   0  0  0  0  0  0  0  0  0  0  0  0
   46.1180   33.7990   44.6590 N   0  0  0  0  0  0  0  0  0  0  0  0
   45.3170   34.2480   45.6360 C   0  0  0  0  0  0  0  0  0  0  0  0
   44.5750   35.3650   45.4920 N   0  0  0  0  0  0  0  0  0  0  0  0
   45.2580   33.5310   46.8300 N   0  0  0  0  0  0  0  0  0  0  0  0
   47.0490   34.0010   42.4410 O   0  0  0  0  0  0  0  0  0  0  0  0
   44.0472   36.9655   44.1840 H   0  0  0  0  0  0  0  0  0  0  0  0
   45.5466   36.1427   42.3359 H   0  0  0  0  0  0  0  0  0  0  0  0
   44.6503   33.8551   47.5959 H   0  0  0  0  0  0  0  0  0  0  0  0
   45.8221   32.6771   46.9464 H   0  0  0  0  0  0  0  0  0  0  0  0
   47.5929   33.1805   42.5462 H   0  0  0  0  0  0  0  0  0  0  0  0
  1  6  2  0
  2  3  2  0
  2  1  1  0
  3  4  1  0
  4  5  2  0
  5  7  1  0
  6  5  1  0
  8  3  1  0
  1  9  1  0
  2 10  1  0
  7 11  1  0
  7 12  1  0
  8 13  1  0
M  ISO  3   9  14  10  14  13   3
M  END
>  <minimizedAffinity>  (1) 
-3.52030182

>  <minimizedRMSD>  (1) 
0.104371078

$$$$
