
     RDKit          3D

 30 31  0  0  0  0  0  0  0  0999 V2000
   45.0520   36.4960   43.2840 C   0  0  0  0  0  0  0  0  0  0  0  0
   45.5100   35.3580   42.5920 C   0  0  0  0  0  0  0  0  0  0  0  0
   45.5390   34.1300   43.2580 C   0  0  0  0  0  0  0  0  0  0  0  0
   45.1190   34.0990   44.5490 N   0  0  0  0  0  0  0  0  0  0  0  0
   44.6860   35.2100   45.1770 C   0  0  0  0  0  0  0  0  0  0  0  0
   44.6480   36.4130   44.5560 N   0  0  0  0  0  0  0  0  0  0  0  0
   44.2740   35.0920   46.4970 N   0  0  0  0  0  0  0  0  0  0  0  0
   46.0030   32.9260   42.5920 C   0  0  0  0  0  0  0  0  0  0  0  0
   45.3290   31.8650   42.7130 O   0  0  0  0  0  0  0  0  0  0  0  0
   47.1400   32.9370   41.8540 O   0  0  0  0  0  0  0  0  0  0  0  0
   51.2330   33.4890   42.4890 N   0  0  0  0  0  0  0  0  0  0  0  0
   50.7030   32.1840   42.1980 C   0  0  0  0  0  0  0  0  0  0  0  0
   49.4060   32.3860   41.4050 C   0  0  0  0  0  0  0  0  0  0  0  0
   48.3980   32.8510   42.4630 C   0  0  0  0  0  0  0  0  0  0  0  0
   48.9090   34.1390   43.0150 C   0  0  0  0  0  0  0  0  0  0  0  0
   50.2640   34.5350   42.4880 C   0  0  0  0  0  0  0  0  0  0  0  0
   45.0262   37.4682   42.7701 H   0  0  0  0  0  0  0  0  0  0  0  0
   45.8392   35.4346   41.5452 H   0  0  0  0  0  0  0  0  0  0  0  0
   43.9371   35.9208   47.0074 H   0  0  0  0  0  0  0  0  0  0  0  0
   44.3051   34.1756   46.9662 H   0  0  0  0  0  0  0  0  0  0  0  0
   51.6714   33.4577   43.4205 H   0  0  0  0  0  0  0  0  0  0  0  0
   51.4249   31.6093   41.5992 H   0  0  0  0  0  0  0  0  0  0  0  0
   50.5096   31.6260   43.1260 H   0  0  0  0  0  0  0  0  0  0  0  0
   49.5381   33.1518   40.6265 H   0  0  0  0  0  0  0  0  0  0  0  0
   49.0821   31.4748   40.8807 H   0  0  0  0  0  0  0  0  0  0  0  0
   48.2844   32.1554   43.3075 H   0  0  0  0  0  0  0  0  0  0  0  0
   48.1925   34.9336   42.7598 H   0  0  0  0  0  0  0  0  0  0  0  0
   49.0171   34.0002   44.1008 H   0  0  0  0  0  0  0  0  0  0  0  0
   50.6468   35.3572   43.1105 H   0  0  0  0  0  0  0  0  0  0  0  0
   50.1167   34.8208   41.4360 H   0  0  0  0  0  0  0  0  0  0  0  0
  1  6  2  0
  2  3  2  0
  2  1  1  0
  3  4  1  0
  4  5  2  0
  5  7  1  0
  6  5  1  0
  8  9  2  0
  8  3  1  0
 10 14  1  0
 10  8  1  0
 12 11  1  0
 13 12  1  0
 13 14  1  0
 14 15  1  0
 16 11  1  0
 16 15  1  0
  1 17  1  0
  2 18  1  0
  7 19  1  0
  7 20  1  0
 11 21  1  0
 12 22  1  0
 12 23  1  0
 13 24  1  0
 13 25  1  0
 14 26  1  0
 15 27  1  0
 15 28  1  0
 16 29  1  0
 16 30  1  0
M  ISO  8  17  14  18  14  21   5  22  13  23  13  24  13  25  13  26  13
M  ISO  4  27  13  28  13  29  13  30  13
M  END
>  <minimizedAffinity>  (1) 
-5.1641593

>  <minimizedRMSD>  (1) 
2.65378118

$$$$
