
     RDKit          3D

 24 24  0  0  0  0  0  0  0  0999 V2000
   44.9250   36.0240   43.2240 C   0  0  0  0  0  0  0  0  0  0  0  0
   45.9640   35.1450   42.8710 C   0  0  0  0  0  0  0  0  0  0  0  0
   46.4040   34.2210   43.8190 C   0  0  0  0  0  0  0  0  0  0  0  0
   45.8150   34.2130   45.0260 N   0  0  0  0  0  0  0  0  0  0  0  0
   44.8240   35.0640   45.3390 C   0  0  0  0  0  0  0  0  0  0  0  0
   44.3620   35.9790   44.4540 N   0  0  0  0  0  0  0  0  0  0  0  0
   44.2560   35.0050   46.6070 N   0  0  0  0  0  0  0  0  0  0  0  0
   47.4800   33.2860   43.5010 C   0  0  0  0  0  0  0  0  0  0  0  0
   47.5910   32.2220   44.2090 O   0  0  0  0  0  0  0  0  0  0  0  0
   48.3420   33.5530   42.4720 O   0  0  0  0  0  0  0  0  0  0  0  0
   49.4520   34.3840   42.7210 C   0  0  0  0  0  0  0  0  0  0  0  0
   50.6870   33.5630   42.3430 C   0  0  0  0  0  0  0  0  0  0  0  0
   49.4500   35.6620   41.9230 C   0  0  0  0  0  0  0  0  0  0  0  0
   44.5643   36.7592   42.4896 H   0  0  0  0  0  0  0  0  0  0  0  0
   46.4194   35.1850   41.8705 H   0  0  0  0  0  0  0  0  0  0  0  0
   43.4953   35.6513   46.8611 H   0  0  0  0  0  0  0  0  0  0  0  0
   44.5960   34.3150   47.2920 H   0  0  0  0  0  0  0  0  0  0  0  0
   49.4324   34.6920   43.7768 H   0  0  0  0  0  0  0  0  0  0  0  0
   51.1962   33.2245   43.2574 H   0  0  0  0  0  0  0  0  0  0  0  0
   50.3790   32.6892   41.7500 H   0  0  0  0  0  0  0  0  0  0  0  0
   51.3735   34.1852   41.7500 H   0  0  0  0  0  0  0  0  0  0  0  0
   49.4487   36.5223   42.6085 H   0  0  0  0  0  0  0  0  0  0  0  0
   50.3481   35.6998   41.2890 H   0  0  0  0  0  0  0  0  0  0  0  0
   48.5518   35.6970   41.2890 H   0  0  0  0  0  0  0  0  0  0  0  0
  1  6  2  0
  2  1  1  0
  2  3  2  0
  3  4  1  0
  4  5  2  0
  5  7  1  0
  6  5  1  0
  8  3  1  0
  8  9  2  0
 10 11  1  0
 10  8  1  0
 12 11  1  0
 13 11  1  0
  1 14  1  0
  2 15  1  0
  7 16  1  0
  7 17  1  0
 11 18  1  0
 12 19  1  0
 12 20  1  0
 12 21  1  0
 13 22  1  0
 13 23  1  0
 13 24  1  0
M  ISO  8  14  14  15  14  18   8  19   8  20   8  21   8  22   8  23   8
M  ISO  1  24   8
M  END
>  <minimizedAffinity>  (1) 
-4.9016366

>  <minimizedRMSD>  (1) 
1.88978112

$$$$
