
     RDKit          3D

 23 24  0  0  0  0  0  0  0  0999 V2000
   44.7950   35.8130   44.1140 C   0  0  0  0  0  0  0  0  0  0  0  0
   45.8270   35.0660   43.5110 C   0  0  0  0  0  0  0  0  0  0  0  0
   46.4160   34.0180   44.2250 C   0  0  0  0  0  0  0  0  0  0  0  0
   45.9620   33.7760   45.4620 N   0  0  0  0  0  0  0  0  0  0  0  0
   44.9760   34.4970   46.0250 C   0  0  0  0  0  0  0  0  0  0  0  0
   44.3790   35.5230   45.3620 N   0  0  0  0  0  0  0  0  0  0  0  0
   44.5660   34.1770   47.3130 N   0  0  0  0  0  0  0  0  0  0  0  0
   47.4840   33.2310   43.6250 C   0  0  0  0  0  0  0  0  0  0  0  0
   47.4410   31.9570   43.7850 O   0  0  0  0  0  0  0  0  0  0  0  0
   48.4880   33.8480   42.9200 O   0  0  0  0  0  0  0  0  0  0  0  0
   48.5680   33.5400   41.5490 C   0  0  0  0  0  0  0  0  0  0  0  0
   47.9920   34.4890   40.7000 C   0  0  0  0  0  0  0  0  0  0  0  0
   48.0310   34.2530   39.3300 C   0  0  0  0  0  0  0  0  0  0  0  0
   48.6250   33.1170   38.8760 N   0  0  0  0  0  0  0  0  0  0  0  0
   49.1690   32.2270   39.7240 C   0  0  0  0  0  0  0  0  0  0  0  0
   49.1450   32.4300   41.0510 N   0  0  0  0  0  0  0  0  0  0  0  0
   44.3253   36.6397   43.5609 H   0  0  0  0  0  0  0  0  0  0  0  0
   46.1647   35.3045   42.4917 H   0  0  0  0  0  0  0  0  0  0  0  0
   43.8126   34.7165   47.7626 H   0  0  0  0  0  0  0  0  0  0  0  0
   45.0154   33.4002   47.8185 H   0  0  0  0  0  0  0  0  0  0  0  0
   47.5210   35.3972   41.1041 H   0  0  0  0  0  0  0  0  0  0  0  0
   47.5889   34.9730   38.6256 H   0  0  0  0  0  0  0  0  0  0  0  0
   49.6415   31.3176   39.3242 H   0  0  0  0  0  0  0  0  0  0  0  0
  1  6  2  0
  2  1  1  0
  2  3  2  0
  3  4  1  0
  4  5  2  0
  5  7  1  0
  6  5  1  0
  8  9  2  0
  8  3  1  0
 10  8  1  0
 11 10  1  0
 12 11  2  0
 13 12  1  0
 14 13  2  0
 14 15  1  0
 15 16  2  0
 16 11  1  0
  1 17  1  0
  2 18  1  0
  7 19  1  0
  7 20  1  0
 12 21  1  0
 13 22  1  0
 15 23  1  0
M  ISO  5  17  14  18  14  21  14  22  14  23  14
M  END
>  <minimizedAffinity>  (1) 
-4.84487772

>  <minimizedRMSD>  (1) 
1.36115062

$$$$
