
     RDKit          3D

 19 19  0  0  0  0  0  0  0  0999 V2000
   44.6600   36.0450   44.2540 C   0  0  0  0  0  0  0  0  0  0  0  0
   45.5600   35.6420   43.2330 C   0  0  0  0  0  0  0  0  0  0  0  0
   46.3470   34.5040   43.4700 C   0  0  0  0  0  0  0  0  0  0  0  0
   46.1950   33.8730   44.6420 N   0  0  0  0  0  0  0  0  0  0  0  0
   45.3400   34.2720   45.5870 C   0  0  0  0  0  0  0  0  0  0  0  0
   44.5690   35.3540   45.4070 N   0  0  0  0  0  0  0  0  0  0  0  0
   45.2410   33.5650   46.7770 N   0  0  0  0  0  0  0  0  0  0  0  0
   47.2820   34.0490   42.4590 C   0  0  0  0  0  0  0  0  0  0  0  0
   48.3370   33.4400   42.8640 O   0  0  0  0  0  0  0  0  0  0  0  0
   47.0700   34.2470   41.1370 O   0  0  0  0  0  0  0  0  0  0  0  0
   48.0940   34.7420   40.3420 C   0  0  0  0  0  0  0  0  0  0  0  0
   49.0140   35.6610   40.9450 N   0  0  0  0  0  0  0  0  0  0  0  0
   48.2150   34.3970   39.1240 O   0  0  0  0  0  0  0  0  0  0  0  0
   44.0287   36.9329   44.1019 H   0  0  0  0  0  0  0  0  0  0  0  0
   45.6380   36.2017   42.2893 H   0  0  0  0  0  0  0  0  0  0  0  0
   44.5814   33.8730   47.5057 H   0  0  0  0  0  0  0  0  0  0  0  0
   45.8271   32.7322   46.9316 H   0  0  0  0  0  0  0  0  0  0  0  0
   49.7888   36.0525   40.3905 H   0  0  0  0  0  0  0  0  0  0  0  0
   48.9003   35.9299   41.9328 H   0  0  0  0  0  0  0  0  0  0  0  0
  1  6  2  0
  2  3  2  0
  2  1  1  0
  3  4  1  0
  4  5  2  0
  5  7  1  0
  6  5  1  0
  8  9  2  0
  8  3  1  0
 10  8  1  0
 11 12  1  0
 11 10  1  0
 13 11  2  0
  1 14  1  0
  2 15  1  0
  7 16  1  0
  7 17  1  0
 12 18  1  0
 12 19  1  0
M  ISO  2  14  14  15  14
M  END
>  <minimizedAffinity>  (1) 
-4.62963533

>  <minimizedRMSD>  (1) 
0.697227418

$$$$
