
     RDKit          3D

 22 23  0  0  0  0  0  0  0  0999 V2000
   44.8320   35.9640   43.9150 C   0  0  0  0  0  0  0  0  0  0  0  0
   45.8540   35.1520   43.3880 C   0  0  0  0  0  0  0  0  0  0  0  0
   46.3540   34.1070   44.1550 C   0  0  0  0  0  0  0  0  0  0  0  0
   45.8190   33.9320   45.3820 N   0  0  0  0  0  0  0  0  0  0  0  0
   44.8480   34.7090   45.8730 C   0  0  0  0  0  0  0  0  0  0  0  0
   44.3390   35.7320   45.1560 N   0  0  0  0  0  0  0  0  0  0  0  0
   44.3570   34.4550   47.1460 N   0  0  0  0  0  0  0  0  0  0  0  0
   47.4170   33.2390   43.6460 C   0  0  0  0  0  0  0  0  0  0  0  0
   47.3780   32.0040   43.9800 O   0  0  0  0  0  0  0  0  0  0  0  0
   48.3890   33.7530   42.8520 O   0  0  0  0  0  0  0  0  0  0  0  0
   48.3870   33.7210   41.5020 C   0  0  0  0  0  0  0  0  0  0  0  0
   48.1480   34.7060   40.5260 C   0  0  0  0  0  0  0  0  0  0  0  0
   48.2190   34.3610   39.2230 C   0  0  0  0  0  0  0  0  0  0  0  0
   48.5200   33.0640   38.8750 C   0  0  0  0  0  0  0  0  0  0  0  0
   48.7430   32.1700   40.4730 S   0  0  0  0  0  0  0  0  0  0  0  0
   44.4302   36.7936   43.3147 H   0  0  0  0  0  0  0  0  0  0  0  0
   46.2522   35.3427   42.3805 H   0  0  0  0  0  0  0  0  0  0  0  0
   43.6091   35.0456   47.5368 H   0  0  0  0  0  0  0  0  0  0  0  0
   44.7405   33.6759   47.7000 H   0  0  0  0  0  0  0  0  0  0  0  0
   47.9077   35.7385   40.8196 H   0  0  0  0  0  0  0  0  0  0  0  0
   48.0369   35.1139   38.4420 H   0  0  0  0  0  0  0  0  0  0  0  0
   48.6087   32.6489   37.8602 H   0  0  0  0  0  0  0  0  0  0  0  0
  1  6  2  0
  2  1  1  0
  2  3  2  0
  3  4  1  0
  4  5  2  0
  5  7  1  0
  6  5  1  0
  8  9  2  0
  8  3  1  0
 10  8  1  0
 11 10  1  0
 12 11  2  0
 13 12  1  0
 14 13  2  0
 14 15  1  0
 15 11  1  0
  1 16  1  0
  2 17  1  0
  7 18  1  0
  7 19  1  0
 12 20  1  0
 13 21  1  0
 14 22  1  0
M  ISO  5  16  14  17  14  20  14  21  14  22  14
M  END
>  <minimizedAffinity>  (1) 
-4.8704567

>  <minimizedRMSD>  (1) 
1.42144036

$$$$
