
     RDKit          3D

 20 21  0  0  0  0  0  0  0  0999 V2000
   44.8140   35.7620   44.1410 C   0  0  0  0  0  0  0  0  0  0  0  0
   45.8390   35.0360   43.5080 C   0  0  0  0  0  0  0  0  0  0  0  0
   46.4230   33.9860   44.2430 C   0  0  0  0  0  0  0  0  0  0  0  0
   45.9660   33.7520   45.4830 N   0  0  0  0  0  0  0  0  0  0  0  0
   44.9890   34.4690   46.0400 C   0  0  0  0  0  0  0  0  0  0  0  0
   44.3890   35.4930   45.3800 N   0  0  0  0  0  0  0  0  0  0  0  0
   44.5750   34.1610   47.3330 N   0  0  0  0  0  0  0  0  0  0  0  0
   47.4850   33.2020   43.6270 C   0  0  0  0  0  0  0  0  0  0  0  0
   47.4380   31.9330   43.8020 O   0  0  0  0  0  0  0  0  0  0  0  0
   48.4790   33.7650   42.9030 O   0  0  0  0  0  0  0  0  0  0  0  0
   48.3880   33.8380   41.5190 C   0  0  0  0  0  0  0  0  0  0  0  0
   48.2790   34.9670   40.8140 N   0  0  0  0  0  0  0  0  0  0  0  0
   48.2170   34.6720   39.5690 O   0  0  0  0  0  0  0  0  0  0  0  0
   48.2800   33.3810   39.4170 C   0  0  0  0  0  0  0  0  0  0  0  0
   48.3920   32.7930   40.6430 N   0  0  0  0  0  0  0  0  0  0  0  0
   44.3403   36.5889   43.5917 H   0  0  0  0  0  0  0  0  0  0  0  0
   46.1691   35.2770   42.4867 H   0  0  0  0  0  0  0  0  0  0  0  0
   43.8216   34.7060   47.7761 H   0  0  0  0  0  0  0  0  0  0  0  0
   45.0221   33.3881   47.8465 H   0  0  0  0  0  0  0  0  0  0  0  0
   48.2481   32.8493   38.4546 H   0  0  0  0  0  0  0  0  0  0  0  0
  1  6  2  0
  2  1  1  0
  2  3  2  0
  3  4  1  0
  4  5  2  0
  5  7  1  0
  6  5  1  0
  8  9  2  0
  8  3  1  0
 10  8  1  0
 11 10  1  0
 12 11  2  0
 13 12  1  0
 14 13  1  0
 14 15  2  0
 15 11  1  0
  1 16  1  0
  2 17  1  0
  7 18  1  0
  7 19  1  0
 14 20  1  0
M  ISO  3  16  14  17  14  20  14
M  END
>  <minimizedAffinity>  (1) 
-4.6141839

>  <minimizedRMSD>  (1) 
1.38262641

$$$$
