
     RDKit          3D

 34 35  0  0  1  0  0  0  0  0999 V2000
   48.0970   33.4410   41.5810 C   0  0  2  0  0  0  0  0  0  0  0  0
   49.0210   32.6300   41.0460 C   0  0  0  0  0  0  0  0  0  0  0  0
   48.7080   32.9570   39.6020 C   0  0  0  0  0  0  0  0  0  0  0  0
   48.1120   34.3140   39.5160 C   0  0  0  0  0  0  0  0  0  0  0  0
   47.8440   34.7340   40.9820 C   0  0  2  0  0  0  0  0  0  0  0  0
   48.2470   33.6750   42.9530 O   0  0  0  0  0  0  0  0  0  0  0  0
   47.0950   33.2300   43.4710 C   0  0  0  0  0  0  0  0  0  0  0  0
   46.8400   32.0250   43.2380 O   0  0  0  0  0  0  0  0  0  0  0  0
   44.6990   35.9250   44.3800 C   0  0  0  0  0  0  0  0  0  0  0  0
   45.6300   35.1490   43.6540 C   0  0  0  0  0  0  0  0  0  0  0  0
   46.1840   34.0290   44.2350 C   0  0  0  0  0  0  0  0  0  0  0  0
   45.8130   33.7270   45.4660 N   0  0  0  0  0  0  0  0  0  0  0  0
   44.9290   34.4590   46.1640 C   0  0  0  0  0  0  0  0  0  0  0  0
   44.3630   35.5530   45.6440 N   0  0  0  0  0  0  0  0  0  0  0  0
   44.6050   34.0510   47.4620 N   0  0  0  0  0  0  0  0  0  0  0  0
   48.9470   35.7060   41.3250 C   0  0  0  0  0  0  0  0  0  0  0  0
   49.7060   35.0590   42.4900 C   0  0  0  0  0  0  0  0  0  0  0  0
   47.2301   32.8054   41.3478 H   0  0  0  0  0  0  0  0  0  0  0  0
   50.0462   32.9084   41.3314 H   0  0  0  0  0  0  0  0  0  0  0  0
   48.9854   31.5700   41.3379 H   0  0  0  0  0  0  0  0  0  0  0  0
   49.6350   32.9262   39.0106 H   0  0  0  0  0  0  0  0  0  0  0  0
   47.9942   32.2191   39.2070 H   0  0  0  0  0  0  0  0  0  0  0  0
   48.8128   35.0133   39.0365 H   0  0  0  0  0  0  0  0  0  0  0  0
   47.1928   34.3215   38.9118 H   0  0  0  0  0  0  0  0  0  0  0  0
   46.8842   35.1975   41.2541 H   0  0  0  0  0  0  0  0  0  0  0  0
   44.2503   36.8214   43.9271 H   0  0  0  0  0  0  0  0  0  0  0  0
   45.9111   35.4373   42.6304 H   0  0  0  0  0  0  0  0  0  0  0  0
   43.9301   34.5941   48.0192 H   0  0  0  0  0  0  0  0  0  0  0  0
   45.0413   33.2074   47.8607 H   0  0  0  0  0  0  0  0  0  0  0  0
   49.6148   35.8514   40.4630 H   0  0  0  0  0  0  0  0  0  0  0  0
   48.5526   36.6976   41.5918 H   0  0  0  0  0  0  0  0  0  0  0  0
   49.2879   35.4154   43.4430 H   0  0  0  0  0  0  0  0  0  0  0  0
   49.6046   33.9653   42.4313 H   0  0  0  0  0  0  0  0  0  0  0  0
   50.7699   35.3323   42.4313 H   0  0  0  0  0  0  0  0  0  0  0  0
  1  6  1  0
  2  1  1  0
  3  2  1  0
  4  3  1  0
  4  5  1  0
  5 16  1  0
  5  1  1  0
  6  7  1  0
  7 11  1  0
  8  7  2  0
  9 14  2  0
 10 11  2  0
 10  9  1  0
 11 12  1  0
 12 13  2  0
 13 15  1  0
 14 13  1  0
 16 17  1  0
  1 18  1  1
  2 19  1  0
  2 20  1  0
  3 21  1  0
  3 22  1  0
  4 23  1  0
  4 24  1  0
  5 25  1  6
  9 26  1  0
 10 27  1  0
 15 28  1  0
 15 29  1  0
 16 30  1  0
 16 31  1  0
 17 32  1  0
 17 33  1  0
 17 34  1  0
M  ISO  8  18  13  19  13  20  13  21  13  22  13  23  13  24  13  25  13
M  ISO  7  26  14  27  14  30   8  31   8  32   8  33   8  34   8
M  END
>  <minimizedAffinity>  (1) 
-5.67337036

>  <minimizedRMSD>  (1) 
0.382640392

$$$$
