
     RDKit          3D

 36 38  0  0  1  0  0  0  0  0999 V2000
   48.5020   34.1790   41.8840 C   0  0  2  0  0  0  0  0  0  0  0  0
   49.6830   34.7740   42.1100 C   0  0  0  0  0  0  0  0  0  0  0  0
   50.4590   33.5030   42.3730 C   0  0  0  0  0  0  0  0  0  0  0  0
   49.7910   32.3570   41.7130 C   0  0  0  0  0  0  0  0  0  0  0  0
   48.4490   32.9250   41.1680 C   0  0  2  0  0  0  0  0  0  0  0  0
   48.6770   33.0790   39.7100 C   0  0  0  0  0  0  0  0  0  0  0  0
   49.3610   32.2070   38.8840 C   0  0  0  0  0  0  0  0  0  0  0  0
   49.5070   32.4590   37.5340 C   0  0  0  0  0  0  0  0  0  0  0  0
   48.9550   33.5990   37.0280 N   0  0  0  0  0  0  0  0  0  0  0  0
   48.2920   34.4370   37.8500 C   0  0  0  0  0  0  0  0  0  0  0  0
   48.1500   34.1900   39.1660 N   0  0  0  0  0  0  0  0  0  0  0  0
   47.5330   35.0050   41.3030 O   0  0  0  0  0  0  0  0  0  0  0  0
   46.4640   34.8300   42.0910 C   0  0  0  0  0  0  0  0  0  0  0  0
   46.7060   34.7820   43.3200 O   0  0  0  0  0  0  0  0  0  0  0  0
   43.5560   33.7640   40.0280 C   0  0  0  0  0  0  0  0  0  0  0  0
   44.8830   33.9380   40.4860 C   0  0  0  0  0  0  0  0  0  0  0  0
   45.1200   34.6980   41.6090 C   0  0  0  0  0  0  0  0  0  0  0  0
   44.0760   35.2380   42.2110 N   0  0  0  0  0  0  0  0  0  0  0  0
   42.8180   35.0830   41.7880 C   0  0  0  0  0  0  0  0  0  0  0  0
   42.5340   34.3530   40.7020 N   0  0  0  0  0  0  0  0  0  0  0  0
   41.7870   35.7020   42.5040 N   0  0  0  0  0  0  0  0  0  0  0  0
   48.2874   33.9437   42.9369 H   0  0  0  0  0  0  0  0  0  0  0  0
   50.0552   35.3244   41.2333 H   0  0  0  0  0  0  0  0  0  0  0  0
   49.7114   35.5477   42.8914 H   0  0  0  0  0  0  0  0  0  0  0  0
   51.4787   33.6094   41.9744 H   0  0  0  0  0  0  0  0  0  0  0  0
   50.4999   33.3222   43.4573 H   0  0  0  0  0  0  0  0  0  0  0  0
   50.4099   31.9722   40.8890 H   0  0  0  0  0  0  0  0  0  0  0  0
   49.6307   31.5192   42.4075 H   0  0  0  0  0  0  0  0  0  0  0  0
   47.5018   32.3794   41.2911 H   0  0  0  0  0  0  0  0  0  0  0  0
   49.7985   31.2926   39.3111 H   0  0  0  0  0  0  0  0  0  0  0  0
   50.0536   31.7594   36.8845 H   0  0  0  0  0  0  0  0  0  0  0  0
   47.8519   35.3540   37.4312 H   0  0  0  0  0  0  0  0  0  0  0  0
   43.3532   33.1568   39.1335 H   0  0  0  0  0  0  0  0  0  0  0  0
   45.7202   33.4690   39.9482 H   0  0  0  0  0  0  0  0  0  0  0  0
   40.8100   35.5958   42.1957 H   0  0  0  0  0  0  0  0  0  0  0  0
   42.0052   36.2638   43.3393 H   0  0  0  0  0  0  0  0  0  0  0  0
  1  2  1  0
  2  3  1  0
  4  3  1  0
  5  4  1  0
  5  1  1  0
  6  5  1  0
  7  6  2  0
  8  7  1  0
  9  8  2  0
  9 10  1  0
 10 11  2  0
 11  6  1  0
 12  1  1  0
 12 13  1  0
 13 14  2  0
 15 16  2  0
 15 20  1  0
 16 17  1  0
 17 13  1  0
 17 18  2  0
 19 18  1  0
 19 21  1  0
 20 19  2  0
  1 22  1  1
  2 23  1  0
  2 24  1  0
  3 25  1  0
  3 26  1  0
  4 27  1  0
  4 28  1  0
  5 29  1  6
  7 30  1  0
  8 31  1  0
 10 32  1  0
 15 33  1  0
 16 34  1  0
 21 35  1  0
 21 36  1  0
M  ISO  8  22  13  23  13  24  13  25  13  26  13  27  13  28  13  29  13
M  ISO  5  30  14  31  14  32  14  33  14  34  14
M  END
>  <minimizedAffinity>  (1) 
-5.4340744

>  <minimizedRMSD>  (1) 
3.89986873

$$$$
