
     RDKit          3D

 35 37  0  0  1  0  0  0  0  0999 V2000
   48.5280   34.3910   42.0650 C   0  0  2  0  0  0  0  0  0  0  0  0
   49.7240   34.9500   42.3190 C   0  0  0  0  0  0  0  0  0  0  0  0
   50.5010   33.6550   42.3770 C   0  0  0  0  0  0  0  0  0  0  0  0
   49.7820   32.5880   41.6370 C   0  0  0  0  0  0  0  0  0  0  0  0
   48.4240   33.2220   41.2290 C   0  0  2  0  0  0  0  0  0  0  0  0
   48.5130   33.3980   39.7590 C   0  0  0  0  0  0  0  0  0  0  0  0
   48.9140   32.5600   38.7420 C   0  0  0  0  0  0  0  0  0  0  0  0
   48.8190   33.1890   37.5160 C   0  0  0  0  0  0  0  0  0  0  0  0
   48.3440   34.4370   37.8670 C   0  0  0  0  0  0  0  0  0  0  0  0
   48.1840   34.5130   39.1470 O   0  0  0  0  0  0  0  0  0  0  0  0
   47.5320   35.2800   41.6390 O   0  0  0  0  0  0  0  0  0  0  0  0
   46.4510   34.8920   42.3290 C   0  0  0  0  0  0  0  0  0  0  0  0
   46.6520   34.6200   43.5360 O   0  0  0  0  0  0  0  0  0  0  0  0
   43.6700   33.9230   40.0590 C   0  0  0  0  0  0  0  0  0  0  0  0
   44.9680   34.0820   40.5950 C   0  0  0  0  0  0  0  0  0  0  0  0
   45.1350   34.7750   41.7720 C   0  0  0  0  0  0  0  0  0  0  0  0
   44.0630   35.2730   42.3620 N   0  0  0  0  0  0  0  0  0  0  0  0
   42.8190   35.1200   41.8450 C   0  0  0  0  0  0  0  0  0  0  0  0
   42.6070   34.4560   40.7100 N   0  0  0  0  0  0  0  0  0  0  0  0
   41.7540   35.6880   42.5530 N   0  0  0  0  0  0  0  0  0  0  0  0
   48.3700   34.0372   43.0945 H   0  0  0  0  0  0  0  0  0  0  0  0
   50.0633   35.6122   41.5088 H   0  0  0  0  0  0  0  0  0  0  0  0
   49.7902   35.6122   43.1949 H   0  0  0  0  0  0  0  0  0  0  0  0
   51.4919   33.8060   41.9239 H   0  0  0  0  0  0  0  0  0  0  0  0
   50.6093   33.3500   43.4283 H   0  0  0  0  0  0  0  0  0  0  0  0
   50.3507   32.2864   40.7450 H   0  0  0  0  0  0  0  0  0  0  0  0
   49.6471   31.6828   42.2473 H   0  0  0  0  0  0  0  0  0  0  0  0
   47.4557   32.7200   41.3716 H   0  0  0  0  0  0  0  0  0  0  0  0
   49.2635   31.5271   38.8870 H   0  0  0  0  0  0  0  0  0  0  0  0
   49.0598   32.7966   36.5170 H   0  0  0  0  0  0  0  0  0  0  0  0
   48.1319   35.2508   37.1579 H   0  0  0  0  0  0  0  0  0  0  0  0
   43.5232   33.3702   39.1194 H   0  0  0  0  0  0  0  0  0  0  0  0
   45.8383   33.6550   40.0752 H   0  0  0  0  0  0  0  0  0  0  0  0
   40.7918   35.5963   42.1970 H   0  0  0  0  0  0  0  0  0  0  0  0
   41.9323   36.1977   43.4301 H   0  0  0  0  0  0  0  0  0  0  0  0
  1  2  1  0
  2  3  1  0
  4  3  1  0
  5  4  1  0
  5  1  1  0
  6  5  1  0
  7  6  2  0
  8  9  2  0
  8  7  1  0
  9 10  1  0
 10  6  1  0
 11  1  1  0
 11 12  1  0
 12 13  2  0
 14 15  2  0
 14 19  1  0
 15 16  1  0
 16 12  1  0
 16 17  2  0
 18 17  1  0
 18 20  1  0
 19 18  2  0
  1 21  1  1
  2 22  1  0
  2 23  1  0
  3 24  1  0
  3 25  1  0
  4 26  1  0
  4 27  1  0
  5 28  1  6
  7 29  1  0
  8 30  1  0
  9 31  1  0
 14 32  1  0
 15 33  1  0
 20 34  1  0
 20 35  1  0
M  ISO  8  21  13  22  13  23  13  24  13  25  13  26  13  27  13  28  13
M  ISO  5  29  14  30  14  31  14  32  14  33  14
M  END
>  <minimizedAffinity>  (1) 
-5.40554094

>  <minimizedRMSD>  (1) 
3.65144682

$$$$
