
     RDKit          3D

 31 32  0  0  1  0  0  0  0  0999 V2000
   46.8620   33.9570   43.9640 C   0  0  1  0  0  0  0  0  0  0  0  0
   47.1710   33.5120   42.5250 C   0  0  0  0  0  0  0  0  0  0  0  0
   46.3750   34.4760   41.7280 C   0  0  0  0  0  0  0  0  0  0  0  0
   45.1260   34.6330   42.4610 C   0  0  0  0  0  0  0  0  0  0  0  0
   45.6090   34.5110   43.9900 C   0  0  2  0  0  0  0  0  0  0  0  0
   44.6140   35.2010   44.7160 C   0  0  0  0  0  0  0  0  0  0  0  0
   44.5430   35.3330   45.9950 O   0  0  0  0  0  0  0  0  0  0  0  0
   43.5290   35.8630   44.1530 O   0  0  0  0  0  0  0  0  0  0  0  0
   47.1230   33.0810   45.0100 O   0  0  0  0  0  0  0  0  0  0  0  0
   46.2180   32.0710   45.2120 C   0  0  0  0  0  0  0  0  0  0  0  0
   45.6000   31.4290   44.3610 O   0  0  0  0  0  0  0  0  0  0  0  0
   45.8090   32.2660   48.9100 C   0  0  0  0  0  0  0  0  0  0  0  0
   46.0200   32.6240   47.5870 C   0  0  0  0  0  0  0  0  0  0  0  0
   45.9420   31.6960   46.5860 C   0  0  0  0  0  0  0  0  0  0  0  0
   45.6460   30.4190   46.9360 N   0  0  0  0  0  0  0  0  0  0  0  0
   45.4400   30.0830   48.2340 C   0  0  0  0  0  0  0  0  0  0  0  0
   45.5200   30.9950   49.2310 N   0  0  0  0  0  0  0  0  0  0  0  0
   45.1090   28.7470   48.5100 N   0  0  0  0  0  0  0  0  0  0  0  0
   47.6284   34.7090   44.2030 H   0  0  0  0  0  0  0  0  0  0  0  0
   48.2446   33.5986   42.3014 H   0  0  0  0  0  0  0  0  0  0  0  0
   46.9248   32.4590   42.3233 H   0  0  0  0  0  0  0  0  0  0  0  0
   46.1841   34.0792   40.7200 H   0  0  0  0  0  0  0  0  0  0  0  0
   46.8991   35.4341   41.5960 H   0  0  0  0  0  0  0  0  0  0  0  0
   44.6693   35.6142   42.2645 H   0  0  0  0  0  0  0  0  0  0  0  0
   44.3561   33.8985   42.1821 H   0  0  0  0  0  0  0  0  0  0  0  0
   45.8120   34.1522   45.0098 H   0  0  0  0  0  0  0  0  0  0  0  0
   42.8741   36.3241   44.7350 H   0  0  0  0  0  0  0  0  0  0  0  0
   45.8788   33.0276   49.7006 H   0  0  0  0  0  0  0  0  0  0  0  0
   46.2536   33.6700   47.3393 H   0  0  0  0  0  0  0  0  0  0  0  0
   44.9439   28.4475   49.4816 H   0  0  0  0  0  0  0  0  0  0  0  0
   45.0312   28.0663   47.7409 H   0  0  0  0  0  0  0  0  0  0  0  0
  1  5  1  0
  1  9  1  0
  2  1  1  0
  3  4  1  0
  3  2  1  0
  4  5  1  0
  5  6  1  0
  6  7  2  0
  8  6  1  0
  9 10  1  0
 10 14  1  0
 11 10  2  0
 12 17  2  0
 13 12  1  0
 14 15  1  0
 14 13  2  0
 15 16  2  0
 16 18  1  0
 16 17  1  0
  1 19  1  1
  2 20  1  0
  2 21  1  0
  3 22  1  0
  3 23  1  0
  4 24  1  0
  4 25  1  0
  5 26  1  6
  8 27  1  0
 12 28  1  0
 13 29  1  0
 18 30  1  0
 18 31  1  0
M  ISO  8  19  13  20  13  21  13  22  13  23  13  24  13  25  13  26  13
M  ISO  3  27   3  28  14  29  14
M  END
>  <minimizedAffinity>  (1) 
-5.41679859

>  <minimizedRMSD>  (1) 
4.52781582

$$$$
