
     RDKit          3D

 35 37  0  0  1  0  0  0  0  0999 V2000
   48.0550   31.6830   42.3560 C   0  0  2  0  0  0  0  0  0  0  0  0
   49.1290   30.9010   42.1470 C   0  0  0  0  0  0  0  0  0  0  0  0
   49.1520   31.0480   40.6410 C   0  0  0  0  0  0  0  0  0  0  0  0
   48.4310   32.2770   40.2330 C   0  0  0  0  0  0  0  0  0  0  0  0
   47.8280   32.8520   41.5500 C   0  0  2  0  0  0  0  0  0  0  0  0
   48.6210   34.0720   41.8220 C   0  0  0  0  0  0  0  0  0  0  0  0
   48.5980   35.3110   41.2600 C   0  0  0  0  0  0  0  0  0  0  0  0
   49.5350   36.1220   41.8590 C   0  0  0  0  0  0  0  0  0  0  0  0
   50.1180   35.3600   42.7810 N   0  0  0  0  0  0  0  0  0  0  0  0
   49.5920   34.1510   42.7730 N   0  0  0  0  0  0  0  0  0  0  0  0
   47.8230   32.0520   43.6880 O   0  0  0  0  0  0  0  0  0  0  0  0
   46.4970   32.2180   43.7430 C   0  0  0  0  0  0  0  0  0  0  0  0
   45.8190   31.3450   43.1590 O   0  0  0  0  0  0  0  0  0  0  0  0
   44.8180   35.4930   44.3140 C   0  0  0  0  0  0  0  0  0  0  0  0
   45.5040   34.4270   43.6800 C   0  0  0  0  0  0  0  0  0  0  0  0
   45.8450   33.3090   44.4070 C   0  0  0  0  0  0  0  0  0  0  0  0
   45.5110   33.2880   45.6810 N   0  0  0  0  0  0  0  0  0  0  0  0
   44.8640   34.2850   46.2940 C   0  0  0  0  0  0  0  0  0  0  0  0
   44.5100   35.3930   45.6280 N   0  0  0  0  0  0  0  0  0  0  0  0
   44.5620   34.1480   47.6530 N   0  0  0  0  0  0  0  0  0  0  0  0
   47.3340   30.9323   42.0002 H   0  0  0  0  0  0  0  0  0  0  0  0
   50.0385   31.2939   42.6249 H   0  0  0  0  0  0  0  0  0  0  0  0
   49.0861   29.8774   42.5475 H   0  0  0  0  0  0  0  0  0  0  0  0
   50.1955   31.1088   40.2982 H   0  0  0  0  0  0  0  0  0  0  0  0
   48.6570   30.1760   40.1888 H   0  0  0  0  0  0  0  0  0  0  0  0
   49.1256   32.9992   39.7791 H   0  0  0  0  0  0  0  0  0  0  0  0
   47.6550   32.0686   39.4817 H   0  0  0  0  0  0  0  0  0  0  0  0
   46.7878   33.1964   41.6471 H   0  0  0  0  0  0  0  0  0  0  0  0
   47.9274   35.6199   40.4446 H   0  0  0  0  0  0  0  0  0  0  0  0
   49.7547   37.1743   41.6256 H   0  0  0  0  0  0  0  0  0  0  0  0
   50.8719   35.6701   43.4105 H   0  0  0  0  0  0  0  0  0  0  0  0
   44.5390   36.3917   43.7443 H   0  0  0  0  0  0  0  0  0  0  0  0
   45.7625   34.4928   42.6128 H   0  0  0  0  0  0  0  0  0  0  0  0
   44.0643   34.9015   48.1485 H   0  0  0  0  0  0  0  0  0  0  0  0
   44.8373   33.2937   48.1582 H   0  0  0  0  0  0  0  0  0  0  0  0
  1 11  1  0
  2  1  1  0
  3  2  1  0
  4  3  1  0
  4  5  1  0
  5  6  1  0
  5  1  1  0
  6 10  2  0
  7  6  1  0
  7  8  2  0
  8  9  1  0
 10  9  1  0
 11 12  1  0
 12 16  1  0
 13 12  2  0
 14 19  2  0
 15 14  1  0
 15 16  2  0
 16 17  1  0
 17 18  2  0
 18 20  1  0
 19 18  1  0
  1 21  1  6
  2 22  1  0
  2 23  1  0
  3 24  1  0
  3 25  1  0
  4 26  1  0
  4 27  1  0
  5 28  1  6
  7 29  1  0
  8 30  1  0
  9 31  1  0
 14 32  1  0
 15 33  1  0
 20 34  1  0
 20 35  1  0
M  ISO  8  21  13  22  13  23  13  24  13  25  13  26  13  27  13  28  13
M  ISO  5  29  14  30  14  31   9  32  14  33  14
M  END
>  <minimizedAffinity>  (1) 
-5.45868158

>  <minimizedRMSD>  (1) 
1.82725918

$$$$
