
     RDKit          3D

 36 38  0  0  1  0  0  0  0  0999 V2000
   48.5990   34.2760   42.1750 C   0  0  2  0  0  0  0  0  0  0  0  0
   49.7430   34.9290   42.4430 C   0  0  0  0  0  0  0  0  0  0  0  0
   50.6380   33.7090   42.4200 C   0  0  0  0  0  0  0  0  0  0  0  0
   50.0030   32.6210   41.6300 C   0  0  0  0  0  0  0  0  0  0  0  0
   48.5840   33.1460   41.2860 C   0  0  2  0  0  0  0  0  0  0  0  0
   48.6130   33.3670   39.8240 C   0  0  0  0  0  0  0  0  0  0  0  0
   48.1580   34.3840   39.0630 C   0  0  0  0  0  0  0  0  0  0  0  0
   48.2860   34.4240   37.6920 C   0  0  0  0  0  0  0  0  0  0  0  0
   48.8790   33.4370   37.0080 N   0  0  0  0  0  0  0  0  0  0  0  0
   49.3400   32.4110   37.7610 C   0  0  0  0  0  0  0  0  0  0  0  0
   49.2140   32.3740   39.0980 N   0  0  0  0  0  0  0  0  0  0  0  0
   47.5120   35.0880   41.8270 O   0  0  0  0  0  0  0  0  0  0  0  0
   46.4940   34.5600   42.5220 C   0  0  0  0  0  0  0  0  0  0  0  0
   46.6770   34.4590   43.7580 O   0  0  0  0  0  0  0  0  0  0  0  0
   43.4040   32.5870   41.8930 C   0  0  0  0  0  0  0  0  0  0  0  0
   44.6420   32.9980   42.4340 C   0  0  0  0  0  0  0  0  0  0  0  0
   45.2590   34.1220   41.9360 C   0  0  0  0  0  0  0  0  0  0  0  0
   44.6500   34.7620   40.9600 N   0  0  0  0  0  0  0  0  0  0  0  0
   43.4760   34.3850   40.4350 C   0  0  0  0  0  0  0  0  0  0  0  0
   42.8410   33.3060   40.8860 N   0  0  0  0  0  0  0  0  0  0  0  0
   42.9360   35.1600   39.4140 N   0  0  0  0  0  0  0  0  0  0  0  0
   48.5012   33.8526   43.1855 H   0  0  0  0  0  0  0  0  0  0  0  0
   50.0050   35.6618   41.6656 H   0  0  0  0  0  0  0  0  0  0  0  0
   49.7641   35.5470   43.3528 H   0  0  0  0  0  0  0  0  0  0  0  0
   51.6026   33.9746   41.9628 H   0  0  0  0  0  0  0  0  0  0  0  0
   50.7947   33.3593   43.4511 H   0  0  0  0  0  0  0  0  0  0  0  0
   50.5758   32.4260   40.7113 H   0  0  0  0  0  0  0  0  0  0  0  0
   49.9677   31.6735   42.1877 H   0  0  0  0  0  0  0  0  0  0  0  0
   47.6623   32.5635   41.4310 H   0  0  0  0  0  0  0  0  0  0  0  0
   47.6582   35.2261   39.5641 H   0  0  0  0  0  0  0  0  0  0  0  0
   47.8899   35.2913   37.1434 H   0  0  0  0  0  0  0  0  0  0  0  0
   49.8395   31.5710   37.2562 H   0  0  0  0  0  0  0  0  0  0  0  0
   42.8988   31.6914   42.2837 H   0  0  0  0  0  0  0  0  0  0  0  0
   45.1094   32.4237   43.2475 H   0  0  0  0  0  0  0  0  0  0  0  0
   43.4409   35.9920   39.0769 H   0  0  0  0  0  0  0  0  0  0  0  0
   42.0312   34.9019   38.9950 H   0  0  0  0  0  0  0  0  0  0  0  0
  1  2  1  0
  3  2  1  0
  4  3  1  0
  5  4  1  0
  5  1  1  0
  6  5  1  0
  7  6  2  0
  8  7  1  0
  9  8  2  0
  9 10  1  0
 10 11  2  0
 11  6  1  0
 12  1  1  0
 12 13  1  0
 13 14  2  0
 15 16  2  0
 17 16  1  0
 17 13  1  0
 18 17  2  0
 19 20  2  0
 19 18  1  0
 20 15  1  0
 21 19  1  0
  1 22  1  1
  2 23  1  0
  2 24  1  0
  3 25  1  0
  3 26  1  0
  4 27  1  0
  4 28  1  0
  5 29  1  6
  7 30  1  0
  8 31  1  0
 10 32  1  0
 15 33  1  0
 16 34  1  0
 21 35  1  0
 21 36  1  0
M  ISO  8  22  13  23  13  24  13  25  13  26  13  27  13  28  13  29  13
M  ISO  5  30  14  31  14  32  14  33  14  34  14
M  END
>  <minimizedAffinity>  (1) 
-5.26155806

>  <minimizedRMSD>  (1) 
4.09559488

$$$$
