
     RDKit          3D

 34 36  0  0  1  0  0  0  0  0999 V2000
   48.5590   34.2450   41.8670 C   0  0  2  0  0  0  0  0  0  0  0  0
   49.6940   34.8960   42.1650 C   0  0  0  0  0  0  0  0  0  0  0  0
   50.5220   33.6500   42.4460 C   0  0  0  0  0  0  0  0  0  0  0  0
   49.9700   32.5210   41.6390 C   0  0  0  0  0  0  0  0  0  0  0  0
   48.5900   32.9900   41.1630 C   0  0  2  0  0  0  0  0  0  0  0  0
   48.6730   33.1060   39.6920 C   0  0  0  0  0  0  0  0  0  0  0  0
   49.2610   32.1330   38.8790 C   0  0  0  0  0  0  0  0  0  0  0  0
   49.0520   32.8230   37.1700 S   0  0  0  0  0  0  0  0  0  0  0  0
   48.1780   34.3500   37.8890 C   0  0  0  0  0  0  0  0  0  0  0  0
   48.1920   34.1370   38.9900 N   0  0  0  0  0  0  0  0  0  0  0  0
   47.5570   35.0170   41.2680 O   0  0  0  0  0  0  0  0  0  0  0  0
   46.4940   34.8200   42.0610 C   0  0  0  0  0  0  0  0  0  0  0  0
   46.7430   34.7480   43.2890 O   0  0  0  0  0  0  0  0  0  0  0  0
   43.5710   33.7440   40.0310 C   0  0  0  0  0  0  0  0  0  0  0  0
   44.9000   33.9170   40.4750 C   0  0  0  0  0  0  0  0  0  0  0  0
   45.1460   34.6860   41.5880 C   0  0  0  0  0  0  0  0  0  0  0  0
   44.1080   35.2330   42.1910 N   0  0  0  0  0  0  0  0  0  0  0  0
   42.8420   35.0770   41.7790 C   0  0  0  0  0  0  0  0  0  0  0  0
   42.5540   34.3400   40.7100 N   0  0  0  0  0  0  0  0  0  0  0  0
   41.8280   35.6940   42.5020 N   0  0  0  0  0  0  0  0  0  0  0  0
   48.3309   33.9968   42.9141 H   0  0  0  0  0  0  0  0  0  0  0  0
   50.0822   35.4826   41.3193 H   0  0  0  0  0  0  0  0  0  0  0  0
   49.6437   35.6551   42.9595 H   0  0  0  0  0  0  0  0  0  0  0  0
   51.5700   33.8297   42.1641 H   0  0  0  0  0  0  0  0  0  0  0  0
   50.4793   33.4033   43.5171 H   0  0  0  0  0  0  0  0  0  0  0  0
   50.6216   32.3097   40.7783 H   0  0  0  0  0  0  0  0  0  0  0  0
   49.9040   31.5942   42.2278 H   0  0  0  0  0  0  0  0  0  0  0  0
   47.6976   32.3746   41.3499 H   0  0  0  0  0  0  0  0  0  0  0  0
   49.7337   31.1864   39.1800 H   0  0  0  0  0  0  0  0  0  0  0  0
   47.7639   35.2210   37.3599 H   0  0  0  0  0  0  0  0  0  0  0  0
   43.3594   33.1315   39.1421 H   0  0  0  0  0  0  0  0  0  0  0  0
   45.7316   33.4406   39.9351 H   0  0  0  0  0  0  0  0  0  0  0  0
   40.8471   35.5893   42.2057 H   0  0  0  0  0  0  0  0  0  0  0  0
   42.0574   36.2560   43.3341 H   0  0  0  0  0  0  0  0  0  0  0  0
  1  2  1  0
  2  3  1  0
  4  3  1  0
  5  4  1  0
  5  1  1  0
  6  5  1  0
  7  6  2  0
  8  9  1  0
  8  7  1  0
  9 10  2  0
 10  6  1  0
 11  1  1  0
 11 12  1  0
 12 13  2  0
 14 15  2  0
 14 19  1  0
 15 16  1  0
 16 12  1  0
 16 17  2  0
 18 17  1  0
 18 20  1  0
 19 18  2  0
  1 21  1  1
  2 22  1  0
  2 23  1  0
  3 24  1  0
  3 25  1  0
  4 26  1  0
  4 27  1  0
  5 28  1  6
  7 29  1  0
  9 30  1  0
 14 31  1  0
 15 32  1  0
 20 33  1  0
 20 34  1  0
M  ISO  8  21  13  22  13  23  13  24  13  25  13  26  13  27  13  28  13
M  ISO  4  29  14  30  14  31  14  32  14
M  END
>  <minimizedAffinity>  (1) 
-5.25915289

>  <minimizedRMSD>  (1) 
3.85296202

$$$$
