
     RDKit          3D

 35 37  0  0  1  0  0  0  0  0999 V2000
   46.9670   33.5140   40.4630 C   0  0  2  0  0  0  0  0  0  0  0  0
   47.1300   32.7100   39.4010 C   0  0  0  0  0  0  0  0  0  0  0  0
   47.7320   33.7630   38.4930 C   0  0  0  0  0  0  0  0  0  0  0  0
   48.3440   34.8460   39.3040 C   0  0  0  0  0  0  0  0  0  0  0  0
   47.9300   34.5430   40.7620 C   0  0  2  0  0  0  0  0  0  0  0  0
   49.1460   34.0160   41.4090 C   0  0  0  0  0  0  0  0  0  0  0  0
   49.9700   34.3230   42.4510 C   0  0  0  0  0  0  0  0  0  0  0  0
   50.9600   33.4390   42.5820 N   0  0  0  0  0  0  0  0  0  0  0  0
   50.8130   32.4980   41.6040 C   0  0  0  0  0  0  0  0  0  0  0  0
   49.7200   32.8750   40.9230 N   0  0  0  0  0  0  0  0  0  0  0  0
   46.6980   32.8530   41.6670 O   0  0  0  0  0  0  0  0  0  0  0  0
   45.4990   33.3350   42.0250 C   0  0  0  0  0  0  0  0  0  0  0  0
   44.5610   33.0960   41.2280 O   0  0  0  0  0  0  0  0  0  0  0  0
   44.5540   36.1200   44.3000 C   0  0  0  0  0  0  0  0  0  0  0  0
   44.8380   35.3900   43.1250 C   0  0  0  0  0  0  0  0  0  0  0  0
   45.2580   34.0830   43.2240 C   0  0  0  0  0  0  0  0  0  0  0  0
   45.3760   33.5690   44.4340 N   0  0  0  0  0  0  0  0  0  0  0  0
   45.1100   34.2480   45.5540 C   0  0  0  0  0  0  0  0  0  0  0  0
   44.6970   35.5270   45.5100 N   0  0  0  0  0  0  0  0  0  0  0  0
   45.2710   33.5980   46.7810 N   0  0  0  0  0  0  0  0  0  0  0  0
   46.0894   34.0385   40.0572 H   0  0  0  0  0  0  0  0  0  0  0  0
   47.8201   31.8770   39.6010 H   0  0  0  0  0  0  0  0  0  0  0  0
   46.2392   32.1805   39.0322 H   0  0  0  0  0  0  0  0  0  0  0  0
   46.9429   34.1877   37.8551 H   0  0  0  0  0  0  0  0  0  0  0  0
   48.5087   33.2983   37.8679 H   0  0  0  0  0  0  0  0  0  0  0  0
   49.4393   34.8317   39.2030 H   0  0  0  0  0  0  0  0  0  0  0  0
   48.0088   35.8423   38.9798 H   0  0  0  0  0  0  0  0  0  0  0  0
   47.5432   35.3419   41.4118 H   0  0  0  0  0  0  0  0  0  0  0  0
   49.8343   35.1963   43.1060 H   0  0  0  0  0  0  0  0  0  0  0  0
   51.4511   31.6221   41.4154 H   0  0  0  0  0  0  0  0  0  0  0  0
   49.3502   32.3558   40.1140 H   0  0  0  0  0  0  0  0  0  0  0  0
   44.2182   37.1654   44.2333 H   0  0  0  0  0  0  0  0  0  0  0  0
   44.7244   35.8623   42.1381 H   0  0  0  0  0  0  0  0  0  0  0  0
   45.0727   34.0987   47.6590 H   0  0  0  0  0  0  0  0  0  0  0  0
   45.5879   32.6183   46.8071 H   0  0  0  0  0  0  0  0  0  0  0  0
  1  5  1  0
  1 11  1  0
  2  1  1  0
  3  4  1  0
  3  2  1  0
  4  5  1  0
  5  6  1  0
  6  7  2  0
  7  8  1  0
  9  8  2  0
 10  6  1  0
 10  9  1  0
 11 12  1  0
 12 16  1  0
 13 12  2  0
 14 19  2  0
 15 16  2  0
 15 14  1  0
 16 17  1  0
 17 18  2  0
 18 20  1  0
 19 18  1  0
  1 21  1  6
  2 22  1  0
  2 23  1  0
  3 24  1  0
  3 25  1  0
  4 26  1  0
  4 27  1  0
  5 28  1  1
  7 29  1  0
  9 30  1  0
 10 31  1  0
 14 32  1  0
 15 33  1  0
 20 34  1  0
 20 35  1  0
M  ISO  8  21  13  22  13  23  13  24  13  25  13  26  13  27  13  28  13
M  ISO  5  29  14  30  14  31   9  32  14  33  14
M  END
>  <minimizedAffinity>  (1) 
-5.37762976

>  <minimizedRMSD>  (1) 
2.39134192

$$$$
