
     RDKit          3D

 44 46  0  0  1  0  0  0  0  0999 V2000
   48.1480   30.8170   42.5960 C   0  0  2  0  0  0  0  0  0  0  0  0
   49.0240   30.1710   41.8010 C   0  0  0  0  0  0  0  0  0  0  0  0
   48.2760   30.4140   40.5100 C   0  0  0  0  0  0  0  0  0  0  0  0
   47.3250   31.5480   40.6630 C   0  0  0  0  0  0  0  0  0  0  0  0
   47.4440   31.9800   42.1400 C   0  0  2  0  0  0  0  0  0  0  0  0
   48.0490   33.3220   42.1680 C   0  0  0  0  0  0  0  0  0  0  0  0
   47.4460   34.2530   41.0970 C   0  0  0  0  0  0  0  0  0  0  0  0
   48.4010   35.2840   40.6100 C   0  0  0  0  0  0  0  0  0  0  0  0
   49.2660   35.8850   41.6850 C   0  0  0  0  0  0  0  0  0  0  0  0
   49.8330   34.8750   42.6310 C   0  0  0  0  0  0  0  0  0  0  0  0
   49.5040   33.4920   42.0300 C   0  0  0  0  0  0  0  0  0  0  0  0
   48.6090   31.1050   43.8870 O   0  0  0  0  0  0  0  0  0  0  0  0
   47.6600   30.5920   44.6810 C   0  0  0  0  0  0  0  0  0  0  0  0
   47.2420   29.4540   44.3610 O   0  0  0  0  0  0  0  0  0  0  0  0
   45.7300   32.9930   46.7590 C   0  0  0  0  0  0  0  0  0  0  0  0
   46.3230   32.3640   45.6410 C   0  0  0  0  0  0  0  0  0  0  0  0
   47.1150   31.2520   45.8290 C   0  0  0  0  0  0  0  0  0  0  0  0
   47.2820   30.8300   47.0650 N   0  0  0  0  0  0  0  0  0  0  0  0
   46.7290   31.4130   48.1330 C   0  0  0  0  0  0  0  0  0  0  0  0
   45.9540   32.4870   47.9990 N   0  0  0  0  0  0  0  0  0  0  0  0
   46.9820   30.8640   49.3910 N   0  0  0  0  0  0  0  0  0  0  0  0
   47.4086   30.0029   42.5751 H   0  0  0  0  0  0  0  0  0  0  0  0
   50.0227   30.6320   41.8066 H   0  0  0  0  0  0  0  0  0  0  0  0
   49.2575   29.1269   42.0564 H   0  0  0  0  0  0  0  0  0  0  0  0
   47.7163   29.5064   40.2398 H   0  0  0  0  0  0  0  0  0  0  0  0
   49.0009   30.6622   39.7207 H   0  0  0  0  0  0  0  0  0  0  0  0
   47.6025   32.3769   39.9952 H   0  0  0  0  0  0  0  0  0  0  0  0
   46.2963   31.2599   40.4007 H   0  0  0  0  0  0  0  0  0  0  0  0
   46.5777   32.1685   42.7911 H   0  0  0  0  0  0  0  0  0  0  0  0
   47.8074   33.5704   43.2120 H   0  0  0  0  0  0  0  0  0  0  0  0
   47.1270   33.6402   40.2410 H   0  0  0  0  0  0  0  0  0  0  0  0
   46.6028   34.7836   41.5633 H   0  0  0  0  0  0  0  0  0  0  0  0
   49.0574   34.8185   39.8600 H   0  0  0  0  0  0  0  0  0  0  0  0
   47.7952   36.1046   40.1981 H   0  0  0  0  0  0  0  0  0  0  0  0
   50.0997   36.4172   41.2036 H   0  0  0  0  0  0  0  0  0  0  0  0
   48.6264   36.5572   42.2758 H   0  0  0  0  0  0  0  0  0  0  0  0
   50.9219   35.0036   42.7189 H   0  0  0  0  0  0  0  0  0  0  0  0
   49.4075   34.9861   43.6393 H   0  0  0  0  0  0  0  0  0  0  0  0
   50.0345   32.7008   42.5801 H   0  0  0  0  0  0  0  0  0  0  0  0
   49.8180   33.4264   40.9778 H   0  0  0  0  0  0  0  0  0  0  0  0
   45.0950   33.8813   46.6264 H   0  0  0  0  0  0  0  0  0  0  0  0
   46.1537   32.7590   44.6284 H   0  0  0  0  0  0  0  0  0  0  0  0
   46.5693   31.2919   50.2321 H   0  0  0  0  0  0  0  0  0  0  0  0
   47.5814   30.0309   49.4783 H   0  0  0  0  0  0  0  0  0  0  0  0
  1 12  1  0
  2  1  1  0
  3  4  1  0
  3  2  1  0
  4  5  1  0
  5  6  1  0
  5  1  1  0
  7  6  1  0
  8  7  1  0
  8  9  1  0
  9 10  1  0
 11  6  1  0
 11 10  1  0
 12 13  1  0
 13 17  1  0
 14 13  2  0
 15 20  2  0
 16 17  2  0
 16 15  1  0
 17 18  1  0
 18 19  2  0
 19 21  1  0
 20 19  1  0
  1 22  1  1
  2 23  1  0
  2 24  1  0
  3 25  1  0
  3 26  1  0
  4 27  1  0
  4 28  1  0
  5 29  1  1
  6 30  1  0
  7 31  1  0
  7 32  1  0
  8 33  1  0
  8 34  1  0
  9 35  1  0
  9 36  1  0
 10 37  1  0
 10 38  1  0
 11 39  1  0
 11 40  1  0
 15 41  1  0
 16 42  1  0
 21 43  1  0
 21 44  1  0
M  ISO  8  22  13  23  13  24  13  25  13  26  13  27  13  28  13  29  13
M  ISO  8  30  13  31  13  32  13  33  13  34  13  35  13  36  13  37  13
M  ISO  5  38  13  39  13  40  13  41  14  42  14
M  END
>  <minimizedAffinity>  (1) 
-4.95032787

>  <minimizedRMSD>  (1) 
3.46033192

$$$$
