
     RDKit          3D

 42 45  0  0  1  0  0  0  0  0999 V2000
   46.3590   30.0540   44.5910 C   0  0  2  0  0  0  0  0  0  0  0  0
   45.1660   30.0140   45.2130 C   0  0  0  0  0  0  0  0  0  0  0  0
   45.0980   28.5060   45.3420 C   0  0  0  0  0  0  0  0  0  0  0  0
   46.4720   27.9370   45.3090 C   0  0  0  0  0  0  0  0  0  0  0  0
   47.3940   29.1150   44.9060 C   0  0  2  0  0  0  0  0  0  0  0  0
   48.2630   29.3280   46.0120 N   0  0  0  0  0  0  0  0  0  0  0  0
   49.5630   28.9720   45.9920 C   0  0  0  0  0  0  0  0  0  0  0  0
   50.0720   29.3170   47.1870 N   0  0  0  0  0  0  0  0  0  0  0  0
   49.1280   29.8750   47.9420 C   0  0  0  0  0  0  0  0  0  0  0  0
   49.0870   30.3990   49.2110 C   0  0  0  0  0  0  0  0  0  0  0  0
   50.1580   30.3810   49.8770 O   0  0  0  0  0  0  0  0  0  0  0  0
   47.9710   30.9250   49.7730 N   0  0  0  0  0  0  0  0  0  0  0  0
   46.8500   30.9120   48.9970 C   0  0  0  0  0  0  0  0  0  0  0  0
   45.6700   31.4710   49.5950 N   0  0  0  0  0  0  0  0  0  0  0  0
   46.8900   30.4010   47.7580 N   0  0  0  0  0  0  0  0  0  0  0  0
   47.9780   29.8820   47.1940 C   0  0  0  0  0  0  0  0  0  0  0  0
   46.9600   31.3220   44.5020 O   0  0  0  0  0  0  0  0  0  0  0  0
   47.0870   31.5100   43.1790 C   0  0  0  0  0  0  0  0  0  0  0  0
   46.0220   31.4970   42.5210 O   0  0  0  0  0  0  0  0  0  0  0  0
   49.8750   31.1490   40.7460 C   0  0  0  0  0  0  0  0  0  0  0  0
   48.6640   30.9180   41.4350 C   0  0  0  0  0  0  0  0  0  0  0  0
   48.3400   31.7130   42.5100 C   0  0  0  0  0  0  0  0  0  0  0  0
   49.1940   32.6600   42.8430 N   0  0  0  0  0  0  0  0  0  0  0  0
   50.3450   32.8900   42.1990 C   0  0  0  0  0  0  0  0  0  0  0  0
   50.7030   32.1500   41.1530 N   0  0  0  0  0  0  0  0  0  0  0  0
   51.1510   33.9280   42.6500 N   0  0  0  0  0  0  0  0  0  0  0  0
   45.9486   29.7167   43.6278 H   0  0  0  0  0  0  0  0  0  0  0  0
   45.1790   30.5228   46.1882 H   0  0  0  0  0  0  0  0  0  0  0  0
   44.3234   30.5108   44.7098 H   0  0  0  0  0  0  0  0  0  0  0  0
   44.6158   28.2420   46.2948 H   0  0  0  0  0  0  0  0  0  0  0  0
   44.5136   28.0950   44.5056 H   0  0  0  0  0  0  0  0  0  0  0  0
   46.7524   27.5500   46.2997 H   0  0  0  0  0  0  0  0  0  0  0  0
   46.5503   27.0959   44.6044 H   0  0  0  0  0  0  0  0  0  0  0  0
   48.1127   29.0694   44.0745 H   0  0  0  0  0  0  0  0  0  0  0  0
   50.1014   28.4932   45.1608 H   0  0  0  0  0  0  0  0  0  0  0  0
   47.9700   31.3109   50.7280 H   0  0  0  0  0  0  0  0  0  0  0  0
   44.7863   31.4944   49.0663 H   0  0  0  0  0  0  0  0  0  0  0  0
   45.7074   31.8486   50.5526 H   0  0  0  0  0  0  0  0  0  0  0  0
   50.1481   30.5226   39.8840 H   0  0  0  0  0  0  0  0  0  0  0  0
   47.9875   30.1115   41.1157 H   0  0  0  0  0  0  0  0  0  0  0  0
   52.0428   34.1307   42.1762 H   0  0  0  0  0  0  0  0  0  0  0  0
   50.8567   34.4948   43.4581 H   0  0  0  0  0  0  0  0  0  0  0  0
  1  5  1  0
  1  2  1  0
  2  3  1  0
  4  3  1  0
  5  4  1  0
  5  6  1  0
  6 16  1  0
  7  6  1  0
  7  8  2  0
  8  9  1  0
  9 10  1  0
 10 12  1  0
 10 11  2  0
 13 14  1  0
 13 12  1  0
 15 13  2  0
 16 15  1  0
 16  9  2  0
 17  1  1  0
 18 17  1  0
 19 18  2  0
 20 25  2  0
 20 21  1  0
 21 22  2  0
 22 23  1  0
 22 18  1  0
 24 26  1  0
 24 23  2  0
 25 24  1  0
  1 27  1  6
  2 28  1  0
  2 29  1  0
  3 30  1  0
  3 31  1  0
  4 32  1  0
  4 33  1  0
  5 34  1  6
  7 35  1  0
 12 36  1  0
 14 37  1  0
 14 38  1  0
 20 39  1  0
 21 40  1  0
 26 41  1  0
 26 42  1  0
M  ISO  8  27  13  28  13  29  13  30  13  31  13  32  13  33  13  34  13
M  ISO  4  35  14  36   9  39  14  40  14
M  END
>  <minimizedAffinity>  (1) 
-4.80739212

>  <minimizedRMSD>  (1) 
8.00127029

$$$$
