
     RDKit          3D

 39 42  0  0  1  0  0  0  0  0999 V2000
   47.1490   31.9030   41.3760 C   0  0  2  0  0  0  0  0  0  0  0  0
   47.0820   30.5710   41.5310 C   0  0  0  0  0  0  0  0  0  0  0  0
   48.4310   30.4220   42.2060 C   0  0  0  0  0  0  0  0  0  0  0  0
   48.7590   31.6970   42.9190 C   0  0  0  0  0  0  0  0  0  0  0  0
   47.7480   32.7280   42.3900 C   0  0  2  0  0  0  0  0  0  0  0  0
   46.9550   33.1390   43.5220 N   0  0  0  0  0  0  0  0  0  0  0  0
   46.9190   32.3630   44.6450 C   0  0  0  0  0  0  0  0  0  0  0  0
   46.1110   32.9970   45.5080 N   0  0  0  0  0  0  0  0  0  0  0  0
   45.6250   34.1370   44.9990 C   0  0  0  0  0  0  0  0  0  0  0  0
   44.7890   35.1580   45.3980 C   0  0  0  0  0  0  0  0  0  0  0  0
   44.5430   36.1790   44.5410 N   0  0  0  0  0  0  0  0  0  0  0  0
   45.0750   36.2490   43.3160 C   0  0  0  0  0  0  0  0  0  0  0  0
   45.8860   35.2390   42.9580 N   0  0  0  0  0  0  0  0  0  0  0  0
   46.1740   34.2030   43.7460 C   0  0  0  0  0  0  0  0  0  0  0  0
   45.9410   32.5180   41.0170 O   0  0  0  0  0  0  0  0  0  0  0  0
   45.8100   32.2100   39.7190 C   0  0  0  0  0  0  0  0  0  0  0  0
   44.7840   31.5540   39.4190 O   0  0  0  0  0  0  0  0  0  0  0  0
   47.8120   32.1490   36.5820 C   0  0  0  0  0  0  0  0  0  0  0  0
   46.9150   31.7700   37.6070 C   0  0  0  0  0  0  0  0  0  0  0  0
   46.7600   32.5820   38.7090 C   0  0  0  0  0  0  0  0  0  0  0  0
   47.4640   33.6970   38.7700 N   0  0  0  0  0  0  0  0  0  0  0  0
   48.3220   34.0610   37.7900 C   0  0  0  0  0  0  0  0  0  0  0  0
   48.5070   33.3120   36.7050 N   0  0  0  0  0  0  0  0  0  0  0  0
   49.0350   35.2510   37.9410 N   0  0  0  0  0  0  0  0  0  0  0  0
   47.8737   31.8733   40.5490 H   0  0  0  0  0  0  0  0  0  0  0  0
   46.2473   30.2597   42.1762 H   0  0  0  0  0  0  0  0  0  0  0  0
   46.9036   29.9690   40.6278 H   0  0  0  0  0  0  0  0  0  0  0  0
   48.3929   29.5938   42.9289 H   0  0  0  0  0  0  0  0  0  0  0  0
   49.2032   30.2064   41.4529 H   0  0  0  0  0  0  0  0  0  0  0  0
   48.6476   31.5705   44.0060 H   0  0  0  0  0  0  0  0  0  0  0  0
   49.7978   32.0117   42.7405 H   0  0  0  0  0  0  0  0  0  0  0  0
   48.0590   33.6931   41.9635 H   0  0  0  0  0  0  0  0  0  0  0  0
   47.4456   31.4112   44.8088 H   0  0  0  0  0  0  0  0  0  0  0  0
   44.3285   35.1443   46.3969 H   0  0  0  0  0  0  0  0  0  0  0  0
   44.8603   37.0881   42.6379 H   0  0  0  0  0  0  0  0  0  0  0  0
   47.9463   31.5113   35.6959 H   0  0  0  0  0  0  0  0  0  0  0  0
   46.3447   30.8330   37.5251 H   0  0  0  0  0  0  0  0  0  0  0  0
   49.6951   35.5522   37.2099 H   0  0  0  0  0  0  0  0  0  0  0  0
   48.9011   35.8282   38.7835 H   0  0  0  0  0  0  0  0  0  0  0  0
  1  2  1  0
  1  5  1  0
  2  3  1  0
  3  4  1  0
  5  4  1  0
  5  6  1  0
  6 14  1  0
  6  7  1  0
  7  8  2  0
  9 10  2  0
  9  8  1  0
 11 10  1  0
 12 11  2  0
 13 12  1  0
 13 14  2  0
 14  9  1  0
 15  1  1  0
 16 15  1  0
 17 16  2  0
 18 23  2  0
 18 19  1  0
 19 20  2  0
 20 21  1  0
 20 16  1  0
 22 24  1  0
 22 21  2  0
 23 22  1  0
  1 25  1  6
  2 26  1  0
  2 27  1  0
  3 28  1  0
  3 29  1  0
  4 30  1  0
  4 31  1  0
  5 32  1  6
  7 33  1  0
 10 34  1  0
 12 35  1  0
 18 36  1  0
 19 37  1  0
 24 38  1  0
 24 39  1  0
M  ISO  8  25  13  26  13  27  13  28  13  29  13  30  13  31  13  32  13
M  ISO  5  33  14  34  14  35  14  36  14  37  14
M  END
>  <minimizedAffinity>  (1) 
-5.029603

>  <minimizedRMSD>  (1) 
6.31689453

$$$$
