
     RDKit          3D

 30 33  0  0  0  0  0  0  0  0999 V2000
   44.3530   35.3470   41.9920 C   0  0  0  0  0  0  0  0  0  0  0  0
   44.0180   34.5470   40.8890 C   0  0  0  0  0  0  0  0  0  0  0  0
   45.0170   33.7170   40.3400 C   0  0  0  0  0  0  0  0  0  0  0  0
   46.2490   33.7330   40.9060 N   0  0  0  0  0  0  0  0  0  0  0  0
   46.5370   34.5230   41.9770 C   0  0  0  0  0  0  0  0  0  0  0  0
   45.5830   35.3170   42.5030 N   0  0  0  0  0  0  0  0  0  0  0  0
   42.7240   34.5180   40.2820 N   0  0  0  0  0  0  0  0  0  0  0  0
   42.1340   35.1880   39.2790 C   0  0  0  0  0  0  0  0  0  0  0  0
   40.8690   34.7450   39.1280 N   0  0  0  0  0  0  0  0  0  0  0  0
   40.6720   33.7850   40.0520 C   0  0  0  0  0  0  0  0  0  0  0  0
   39.5460   33.0140   40.3170 C   0  0  0  0  0  0  0  0  0  0  0  0
   38.5000   33.1700   39.6360 O   0  0  0  0  0  0  0  0  0  0  0  0
   39.5450   32.0930   41.2950 N   0  0  0  0  0  0  0  0  0  0  0  0
   40.6850   31.9620   41.9970 C   0  0  0  0  0  0  0  0  0  0  0  0
   40.8550   31.0260   43.0760 N   0  0  0  0  0  0  0  0  0  0  0  0
   41.7880   32.6940   41.7600 N   0  0  0  0  0  0  0  0  0  0  0  0
   41.8420   33.6330   40.7890 C   0  0  0  0  0  0  0  0  0  0  0  0
   44.8020   32.8620   39.2230 N   0  0  0  0  0  0  0  0  0  0  0  0
   44.3760   31.6050   39.0540 C   0  0  0  0  0  0  0  0  0  0  0  0
   44.3540   31.2750   37.7520 N   0  0  0  0  0  0  0  0  0  0  0  0
   44.7830   32.3740   37.1060 C   0  0  0  0  0  0  0  0  0  0  0  0
   45.0700   33.3790   38.0030 N   0  0  0  0  0  0  0  0  0  0  0  0
   43.5931   36.0049   42.4389 H   0  0  0  0  0  0  0  0  0  0  0  0
   47.5471   34.5133   42.4125 H   0  0  0  0  0  0  0  0  0  0  0  0
   42.6083   35.9753   38.6747 H   0  0  0  0  0  0  0  0  0  0  0  0
   38.7150   31.5174   41.4967 H   0  0  0  0  0  0  0  0  0  0  0  0
   41.7542   30.9737   43.5755 H   0  0  0  0  0  0  0  0  0  0  0  0
   40.0775   30.4081   43.3491 H   0  0  0  0  0  0  0  0  0  0  0  0
   44.0827   30.9312   39.8725 H   0  0  0  0  0  0  0  0  0  0  0  0
   44.8897   32.4583   36.0144 H   0  0  0  0  0  0  0  0  0  0  0  0
  1  6  2  0
  2  1  1  0
  3  2  2  0
  3  4  1  0
  4  5  2  0
  5  6  1  0
  7 17  1  0
  7  2  1  0
  8  7  1  0
  9  8  2  0
  9 10  1  0
 10 11  1  0
 10 17  2  0
 11 13  1  0
 12 11  2  0
 13 14  1  0
 14 15  1  0
 16 14  2  0
 17 16  1  0
 18  3  1  0
 19 18  1  0
 20 19  2  0
 21 20  1  0
 21 22  2  0
 22 18  1  0
  1 23  1  0
  5 24  1  0
  8 25  1  0
 13 26  1  0
 15 27  1  0
 15 28  1  0
 19 29  1  0
 21 30  1  0
M  ISO  6  23  14  24  14  25  14  26   9  29  14  30  14
M  END
>  <minimizedAffinity>  (1) 
-4.77284336

>  <minimizedRMSD>  (1) 
4.88213444

$$$$
