
     RDKit          3D

 26 28  0  0  0  0  0  0  0  0999 V2000
   45.5900   33.1330   47.1200 C   0  0  0  0  0  0  0  0  0  0  0  0
   45.9410   32.8470   45.7920 C   0  0  0  0  0  0  0  0  0  0  0  0
   46.4030   31.5720   45.4830 C   0  0  0  0  0  0  0  0  0  0  0  0
   46.4820   30.6800   46.5050 N   0  0  0  0  0  0  0  0  0  0  0  0
   46.1380   30.9750   47.7750 C   0  0  0  0  0  0  0  0  0  0  0  0
   45.6970   32.2000   48.0670 N   0  0  0  0  0  0  0  0  0  0  0  0
   45.8030   33.9130   44.8150 C   0  0  0  0  0  0  0  0  0  0  0  0
   44.8600   34.8560   45.2370 C   0  0  0  0  0  0  0  0  0  0  0  0
   44.5290   35.9830   44.5130 C   0  0  0  0  0  0  0  0  0  0  0  0
   45.1400   36.2260   43.3060 C   0  0  0  0  0  0  0  0  0  0  0  0
   46.0690   35.3040   42.8830 C   0  0  0  0  0  0  0  0  0  0  0  0
   46.3970   34.1840   43.6040 C   0  0  0  0  0  0  0  0  0  0  0  0
   46.7850   31.1570   44.1900 N   0  0  0  0  0  0  0  0  0  0  0  0
   46.1400   30.6710   43.1090 C   0  0  0  0  0  0  0  0  0  0  0  0
   46.9920   30.4300   42.1080 N   0  0  0  0  0  0  0  0  0  0  0  0
   48.2040   30.7760   42.5800 C   0  0  0  0  0  0  0  0  0  0  0  0
   48.0710   31.2200   43.8550 N   0  0  0  0  0  0  0  0  0  0  0  0
   45.2231   34.1362   47.3826 H   0  0  0  0  0  0  0  0  0  0  0  0
   46.2202   30.2124   48.5635 H   0  0  0  0  0  0  0  0  0  0  0  0
   44.3542   34.6899   46.1996 H   0  0  0  0  0  0  0  0  0  0  0  0
   43.7772   36.6860   44.9012 H   0  0  0  0  0  0  0  0  0  0  0  0
   44.8975   37.1159   42.7066 H   0  0  0  0  0  0  0  0  0  0  0  0
   46.5733   35.4729   41.9201 H   0  0  0  0  0  0  0  0  0  0  0  0
   47.1503   33.4884   43.2058 H   0  0  0  0  0  0  0  0  0  0  0  0
   45.0552   30.4961   43.0583 H   0  0  0  0  0  0  0  0  0  0  0  0
   49.1497   30.7095   42.0221 H   0  0  0  0  0  0  0  0  0  0  0  0
  1  6  2  0
  2  1  1  0
  3  2  2  0
  3  4  1  0
  4  5  2  0
  5  6  1  0
  7  8  2  0
  7  2  1  0
  9  8  1  0
 10  9  2  0
 11 10  1  0
 11 12  2  0
 12  7  1  0
 13  3  1  0
 14 13  1  0
 15 16  1  0
 15 14  2  0
 16 17  2  0
 17 13  1  0
  1 18  1  0
  5 19  1  0
  8 20  1  0
  9 21  1  0
 10 22  1  0
 11 23  1  0
 12 24  1  0
 14 25  1  0
 16 26  1  0
M  ISO  8  18  14  19  14  20  14  21  14  22  14  23  14  24  14  25  14
M  ISO  1  26  14
M  END
>  <minimizedAffinity>  (1) 
-4.42537832

>  <minimizedRMSD>  (1) 
4.20096636

$$$$
