
     RDKit          3D

 18 19  0  0  0  0  0  0  0  0999 V2000
   44.5150   35.6650   45.0430 C   0  0  0  0  0  0  0  0  0  0  0  0
   45.1250   35.7290   43.7700 C   0  0  0  0  0  0  0  0  0  0  0  0
   46.0680   34.7320   43.4420 C   0  0  0  0  0  0  0  0  0  0  0  0
   46.3280   33.7780   44.3700 N   0  0  0  0  0  0  0  0  0  0  0  0
   45.7310   33.7420   45.5790 C   0  0  0  0  0  0  0  0  0  0  0  0
   44.8340   34.6810   45.9010 N   0  0  0  0  0  0  0  0  0  0  0  0
   46.7510   34.6790   42.2010 N   0  0  0  0  0  0  0  0  0  0  0  0
   46.5160   34.0890   41.0160 C   0  0  0  0  0  0  0  0  0  0  0  0
   47.4930   34.3590   40.1450 N   0  0  0  0  0  0  0  0  0  0  0  0
   48.3610   35.1450   40.8240 C   0  0  0  0  0  0  0  0  0  0  0  0
   47.8980   35.3400   42.0900 N   0  0  0  0  0  0  0  0  0  0  0  0
   44.8450   36.7220   42.8210 N   0  0  0  0  0  0  0  0  0  0  0  0
   43.7747   36.4250   45.3334 H   0  0  0  0  0  0  0  0  0  0  0  0
   45.9801   32.9456   46.2957 H   0  0  0  0  0  0  0  0  0  0  0  0
   45.6367   33.4669   40.7930 H   0  0  0  0  0  0  0  0  0  0  0  0
   49.2943   35.5612   40.4170 H   0  0  0  0  0  0  0  0  0  0  0  0
   45.3244   36.7130   41.9094 H   0  0  0  0  0  0  0  0  0  0  0  0
   44.1598   37.4606   43.0353 H   0  0  0  0  0  0  0  0  0  0  0  0
  1  6  2  0
  2  1  1  0
  3  2  2  0
  3  4  1  0
  4  5  2  0
  5  6  1  0
  7  3  1  0
  8  7  1  0
  9 10  1  0
  9  8  2  0
 10 11  2  0
 11  7  1  0
 12  2  1  0
  1 13  1  0
  5 14  1  0
  8 15  1  0
 10 16  1  0
 12 17  1  0
 12 18  1  0
M  ISO  4  13  14  14  14  15  14  16  14
M  END
>  <minimizedAffinity>  (1) 
-4.27749538

>  <minimizedRMSD>  (1) 
0.39685756

$$$$
