
     RDKit          3D

 32 35  0  0  0  0  0  0  0  0999 V2000
   44.7030   34.7560   43.1380 C   0  0  0  0  0  0  0  0  0  0  0  0
   44.6450   34.1120   41.9010 C   0  0  0  0  0  0  0  0  0  0  0  0
   45.7930   33.5170   41.3850 C   0  0  0  0  0  0  0  0  0  0  0  0
   46.9380   33.5900   42.1230 N   0  0  0  0  0  0  0  0  0  0  0  0
   46.9700   34.2270   43.3320 C   0  0  0  0  0  0  0  0  0  0  0  0
   45.8630   34.7940   43.8180 N   0  0  0  0  0  0  0  0  0  0  0  0
   43.4170   34.0340   41.1110 C   0  0  0  0  0  0  0  0  0  0  0  0
   43.2130   35.1000   40.2280 C   0  0  0  0  0  0  0  0  0  0  0  0
   42.1070   35.1680   39.4200 C   0  0  0  0  0  0  0  0  0  0  0  0
   41.1620   34.1760   39.4620 C   0  0  0  0  0  0  0  0  0  0  0  0
   41.3550   33.1200   40.3300 C   0  0  0  0  0  0  0  0  0  0  0  0
   40.4460   32.0820   40.4250 C   0  0  0  0  0  0  0  0  0  0  0  0
   40.6690   31.0260   41.3140 C   0  0  0  0  0  0  0  0  0  0  0  0
   41.8040   30.9880   42.1230 C   0  0  0  0  0  0  0  0  0  0  0  0
   42.7210   32.0230   42.0310 C   0  0  0  0  0  0  0  0  0  0  0  0
   42.4540   33.0440   41.1380 C   0  0  0  0  0  0  0  0  0  0  0  0
   45.8510   32.8380   40.1430 N   0  0  0  0  0  0  0  0  0  0  0  0
   45.5460   31.5890   39.7220 C   0  0  0  0  0  0  0  0  0  0  0  0
   45.7970   31.4640   38.4080 N   0  0  0  0  0  0  0  0  0  0  0  0
   46.2680   32.6670   38.0120 C   0  0  0  0  0  0  0  0  0  0  0  0
   46.3050   33.5230   39.0740 N   0  0  0  0  0  0  0  0  0  0  0  0
   43.8029   35.2310   43.5555 H   0  0  0  0  0  0  0  0  0  0  0  0
   47.9080   34.2726   43.9048 H   0  0  0  0  0  0  0  0  0  0  0  0
   43.9603   35.9057   40.1806 H   0  0  0  0  0  0  0  0  0  0  0  0
   41.9780   36.0204   38.7368 H   0  0  0  0  0  0  0  0  0  0  0  0
   40.2706   34.2203   38.8190 H   0  0  0  0  0  0  0  0  0  0  0  0
   39.5425   32.0872   39.7976 H   0  0  0  0  0  0  0  0  0  0  0  0
   39.9347   30.2093   41.3763 H   0  0  0  0  0  0  0  0  0  0  0  0
   41.9683   30.1532   42.8203 H   0  0  0  0  0  0  0  0  0  0  0  0
   43.6314   32.0318   42.6483 H   0  0  0  0  0  0  0  0  0  0  0  0
   45.1488   30.7892   40.3644 H   0  0  0  0  0  0  0  0  0  0  0  0
   46.5757   32.9187   36.9864 H   0  0  0  0  0  0  0  0  0  0  0  0
  1  6  2  0
  2  1  1  0
  3  2  2  0
  3  4  1  0
  4  5  2  0
  5  6  1  0
  7 16  1  0
  7  2  1  0
  8  7  2  0
  9 10  2  0
  9  8  1  0
 10 11  1  0
 11 12  1  0
 11 16  2  0
 12 13  2  0
 13 14  1  0
 15 14  2  0
 16 15  1  0
 17  3  1  0
 18 17  1  0
 19 18  2  0
 20 19  1  0
 20 21  2  0
 21 17  1  0
  1 22  1  0
  5 23  1  0
  8 24  1  0
  9 25  1  0
 10 26  1  0
 12 27  1  0
 13 28  1  0
 14 29  1  0
 15 30  1  0
 18 31  1  0
 20 32  1  0
M  ISO  8  22  14  23  14  24  14  25  14  26  14  27  14  28  14  29  14
M  ISO  3  30  14  31  14  32  14
M  END
>  <minimizedAffinity>  (1) 
-4.16202307

>  <minimizedRMSD>  (1) 
4.26699734

$$$$
