
     RDKit          3D

 22 24  0  0  0  0  0  0  0  0999 V2000
   45.3730   36.2050   43.1480 C   0  0  0  0  0  0  0  0  0  0  0  0
   45.9580   34.9590   42.8970 C   0  0  0  0  0  0  0  0  0  0  0  0
   45.8530   33.9550   43.8550 C   0  0  0  0  0  0  0  0  0  0  0  0
   45.1740   34.2560   44.9990 N   0  0  0  0  0  0  0  0  0  0  0  0
   44.6130   35.4700   45.2270 C   0  0  0  0  0  0  0  0  0  0  0  0
   44.7190   36.4250   44.3020 N   0  0  0  0  0  0  0  0  0  0  0  0
   46.3980   32.6550   43.7260 N   0  0  0  0  0  0  0  0  0  0  0  0
   45.9520   31.4700   43.2880 C   0  0  0  0  0  0  0  0  0  0  0  0
   46.9200   30.5380   43.3910 N   0  0  0  0  0  0  0  0  0  0  0  0
   47.9910   31.1740   43.9080 C   0  0  0  0  0  0  0  0  0  0  0  0
   47.6780   32.4810   44.1190 N   0  0  0  0  0  0  0  0  0  0  0  0
   46.6650   34.6570   41.6990 N   0  0  0  0  0  0  0  0  0  0  0  0
   47.9330   34.8910   41.3200 C   0  0  0  0  0  0  0  0  0  0  0  0
   48.1610   34.4200   40.0800 N   0  0  0  0  0  0  0  0  0  0  0  0
   46.9970   33.8790   39.6800 C   0  0  0  0  0  0  0  0  0  0  0  0
   46.0930   34.0230   40.6620 N   0  0  0  0  0  0  0  0  0  0  0  0
   45.4484   37.0070   42.3989 H   0  0  0  0  0  0  0  0  0  0  0  0
   44.0754   35.6650   46.1666 H   0  0  0  0  0  0  0  0  0  0  0  0
   44.9398   31.2842   42.8996 H   0  0  0  0  0  0  0  0  0  0  0  0
   48.9641   30.7092   44.1249 H   0  0  0  0  0  0  0  0  0  0  0  0
   48.6849   35.4000   41.9410 H   0  0  0  0  0  0  0  0  0  0  0  0
   46.8152   33.3975   38.7078 H   0  0  0  0  0  0  0  0  0  0  0  0
  1  6  2  0
  2  1  1  0
  2  3  2  0
  3  4  1  0
  4  5  2  0
  6  5  1  0
  7  3  1  0
  7 11  1  0
  8  9  2  0
  8  7  1  0
  9 10  1  0
 10 11  2  0
 12  2  1  0
 13 12  1  0
 14 13  2  0
 15 14  1  0
 15 16  2  0
 16 12  1  0
  1 17  1  0
  5 18  1  0
  8 19  1  0
 10 20  1  0
 13 21  1  0
 15 22  1  0
M  ISO  6  17  14  18  14  19  14  20  14  21  14  22  14
M  END
>  <minimizedAffinity>  (1) 
-4.11041021

>  <minimizedRMSD>  (1) 
3.48764682

$$$$
