
     RDKit          3D

 25 26  0  0  0  0  0  0  0  0999 V2000
   45.9360   34.9760   43.3800 C   0  0  0  0  0  0  0  0  0  0  0  0
   47.0600   34.5630   42.6350 C   0  0  0  0  0  0  0  0  0  0  0  0
   47.7990   33.4830   43.1180 C   0  0  0  0  0  0  0  0  0  0  0  0
   47.4010   32.8780   44.2850 N   0  0  0  0  0  0  0  0  0  0  0  0
   46.3170   33.3070   44.9670 C   0  0  0  0  0  0  0  0  0  0  0  0
   45.5900   34.3520   44.5120 N   0  0  0  0  0  0  0  0  0  0  0  0
   48.9550   32.9630   42.4640 N   0  0  0  0  0  0  0  0  0  0  0  0
   49.1790   32.0080   41.5360 C   0  0  0  0  0  0  0  0  0  0  0  0
   50.5030   31.9320   41.2740 N   0  0  0  0  0  0  0  0  0  0  0  0
   51.0910   32.8440   42.0490 C   0  0  0  0  0  0  0  0  0  0  0  0
   50.1470   33.4950   42.7950 N   0  0  0  0  0  0  0  0  0  0  0  0
   47.4880   35.2050   41.3920 C   0  0  0  0  0  0  0  0  0  0  0  0
   48.9080   35.7560   41.4980 C   0  0  0  0  0  0  0  0  0  0  0  0
   47.4230   34.1730   40.2740 C   0  0  0  0  0  0  0  0  0  0  0  0
   45.3338   35.8251   43.0246 H   0  0  0  0  0  0  0  0  0  0  0  0
   46.0236   32.8025   45.8994 H   0  0  0  0  0  0  0  0  0  0  0  0
   48.4028   31.3868   41.0652 H   0  0  0  0  0  0  0  0  0  0  0  0
   52.1723   33.0429   42.0833 H   0  0  0  0  0  0  0  0  0  0  0  0
   46.8199   36.0538   41.1843 H   0  0  0  0  0  0  0  0  0  0  0  0
   49.1819   35.8623   42.5580 H   0  0  0  0  0  0  0  0  0  0  0  0
   49.6075   35.0640   41.0062 H   0  0  0  0  0  0  0  0  0  0  0  0
   48.9577   36.7387   41.0062 H   0  0  0  0  0  0  0  0  0  0  0  0
   47.3595   33.1647   40.7090 H   0  0  0  0  0  0  0  0  0  0  0  0
   46.5349   34.3609   39.6527 H   0  0  0  0  0  0  0  0  0  0  0  0
   48.3276   34.2480   39.6527 H   0  0  0  0  0  0  0  0  0  0  0  0
  1  6  2  0
  2  3  2  0
  2  1  1  0
  3  4  1  0
  4  5  2  0
  6  5  1  0
  7 11  1  0
  7  3  1  0
  8  7  1  0
  9  8  2  0
  9 10  1  0
 10 11  2  0
 12 13  1  0
 12  2  1  0
 14 12  1  0
  1 15  1  0
  5 16  1  0
  8 17  1  0
 10 18  1  0
 12 19  1  0
 13 20  1  0
 13 21  1  0
 13 22  1  0
 14 23  1  0
 14 24  1  0
 14 25  1  0
M  ISO  8  15  14  16  14  17  14  18  14  19   8  20   8  21   8  22   8
M  ISO  3  23   8  24   8  25   8
M  END
>  <minimizedAffinity>  (1) 
-4.03804445

>  <minimizedRMSD>  (1) 
3.02901578

$$$$
