
     RDKit          3D

 22 24  0  0  0  0  0  0  0  0999 V2000
   45.2370   36.1480   43.1700 C   0  0  0  0  0  0  0  0  0  0  0  0
   45.7880   34.8800   42.9340 C   0  0  0  0  0  0  0  0  0  0  0  0
   45.7260   33.9340   43.9810 C   0  0  0  0  0  0  0  0  0  0  0  0
   45.1380   34.2880   45.1670 N   0  0  0  0  0  0  0  0  0  0  0  0
   44.6210   35.5370   45.3340 C   0  0  0  0  0  0  0  0  0  0  0  0
   44.6750   36.4500   44.3370 N   0  0  0  0  0  0  0  0  0  0  0  0
   46.2480   32.6210   43.8670 N   0  0  0  0  0  0  0  0  0  0  0  0
   45.7780   31.4360   43.4470 C   0  0  0  0  0  0  0  0  0  0  0  0
   46.7190   30.4800   43.5620 N   0  0  0  0  0  0  0  0  0  0  0  0
   47.7920   31.0950   44.0640 C   0  0  0  0  0  0  0  0  0  0  0  0
   47.5210   32.4220   44.2600 N   0  0  0  0  0  0  0  0  0  0  0  0
   46.4230   34.4950   41.6550 C   0  0  0  0  0  0  0  0  0  0  0  0
   47.7480   34.8740   41.4410 C   0  0  0  0  0  0  0  0  0  0  0  0
   48.0810   34.1870   39.7630 S   0  0  0  0  0  0  0  0  0  0  0  0
   46.3130   33.4960   39.6610 C   0  0  0  0  0  0  0  0  0  0  0  0
   45.8820   33.8200   40.6580 N   0  0  0  0  0  0  0  0  0  0  0  0
   45.2703   36.9072   42.3747 H   0  0  0  0  0  0  0  0  0  0  0  0
   44.1533   35.8070   46.2923 H   0  0  0  0  0  0  0  0  0  0  0  0
   44.7616   31.2686   43.0611 H   0  0  0  0  0  0  0  0  0  0  0  0
   48.7523   30.6072   44.2872 H   0  0  0  0  0  0  0  0  0  0  0  0
   48.4213   35.4379   42.1033 H   0  0  0  0  0  0  0  0  0  0  0  0
   45.8341   32.9304   38.8481 H   0  0  0  0  0  0  0  0  0  0  0  0
  1  6  2  0
  2  1  1  0
  2  3  2  0
  3  4  1  0
  4  5  2  0
  6  5  1  0
  7  3  1  0
  7 11  1  0
  8  9  2  0
  8  7  1  0
  9 10  1  0
 10 11  2  0
 12  2  1  0
 13 12  2  0
 14 13  1  0
 15 14  1  0
 15 16  2  0
 16 12  1  0
  1 17  1  0
  5 18  1  0
  8 19  1  0
 10 20  1  0
 13 21  1  0
 15 22  1  0
M  ISO  6  17  14  18  14  19  14  20  14  21  14  22  14
M  END
>  <minimizedAffinity>  (1) 
-4.13809347

>  <minimizedRMSD>  (1) 
3.61485791

$$$$
