
     RDKit          3D

 21 23  0  0  0  0  0  0  0  0999 V2000
   45.0710   33.9700   46.0700 C   0  0  0  0  0  0  0  0  0  0  0  0
   45.6470   33.9910   44.8030 C   0  0  0  0  0  0  0  0  0  0  0  0
   46.7650   33.2130   44.5430 C   0  0  0  0  0  0  0  0  0  0  0  0
   47.2630   32.4400   45.5710 N   0  0  0  0  0  0  0  0  0  0  0  0
   46.6780   32.4350   46.8080 C   0  0  0  0  0  0  0  0  0  0  0  0
   45.5930   33.2000   47.0350 N   0  0  0  0  0  0  0  0  0  0  0  0
   47.4330   33.1600   43.2980 N   0  0  0  0  0  0  0  0  0  0  0  0
   47.3610   32.3880   42.2090 C   0  0  0  0  0  0  0  0  0  0  0  0
   48.2560   32.7770   41.2840 N   0  0  0  0  0  0  0  0  0  0  0  0
   48.8960   33.8190   41.8230 C   0  0  0  0  0  0  0  0  0  0  0  0
   48.4000   34.0740   43.0740 N   0  0  0  0  0  0  0  0  0  0  0  0
   45.1020   34.8140   43.7470 C   0  0  0  0  0  0  0  0  0  0  0  0
   45.2610   36.1360   43.5650 N   0  0  0  0  0  0  0  0  0  0  0  0
   44.6120   36.5090   42.4990 O   0  0  0  0  0  0  0  0  0  0  0  0
   44.0090   35.4780   41.9390 C   0  0  0  0  0  0  0  0  0  0  0  0
   44.3200   34.4120   42.7280 N   0  0  0  0  0  0  0  0  0  0  0  0
   44.1849   34.5871   46.2799 H   0  0  0  0  0  0  0  0  0  0  0  0
   47.0917   31.8095   47.6127 H   0  0  0  0  0  0  0  0  0  0  0  0
   46.6628   31.5469   42.0861 H   0  0  0  0  0  0  0  0  0  0  0  0
   49.7013   34.3873   41.3347 H   0  0  0  0  0  0  0  0  0  0  0  0
   43.3887   35.4789   41.0306 H   0  0  0  0  0  0  0  0  0  0  0  0
  1  6  2  0
  2  1  1  0
  3  2  2  0
  3  4  1  0
  4  5  2  0
  5  6  1  0
  7  3  1  0
  8  7  1  0
  9 10  1  0
  9  8  2  0
 10 11  2  0
 11  7  1  0
 12  2  1  0
 13 12  2  0
 14 13  1  0
 15 14  1  0
 15 16  2  0
 16 12  1  0
  1 17  1  0
  5 18  1  0
  8 19  1  0
 10 20  1  0
 15 21  1  0
M  ISO  5  17  14  18  14  19  14  20  14  21  14
M  END
>  <minimizedAffinity>  (1) 
-3.76539564

>  <minimizedRMSD>  (1) 
2.43810153

$$$$
