
     RDKit          3D

 25 27  0  0  0  0  0  0  0  0999 V2000
   45.3490   33.3860   46.4010 C   0  0  0  0  0  0  0  0  0  0  0  0
   45.8440   33.3750   45.1000 C   0  0  0  0  0  0  0  0  0  0  0  0
   46.9910   32.6380   44.8230 C   0  0  0  0  0  0  0  0  0  0  0  0
   47.5820   31.9530   45.8540 N   0  0  0  0  0  0  0  0  0  0  0  0
   47.0740   31.9850   47.1130 C   0  0  0  0  0  0  0  0  0  0  0  0
   45.9570   32.7050   47.3710 N   0  0  0  0  0  0  0  0  0  0  0  0
   47.6010   32.5430   43.5370 N   0  0  0  0  0  0  0  0  0  0  0  0
   47.5520   31.6570   42.5260 C   0  0  0  0  0  0  0  0  0  0  0  0
   48.3460   32.0670   41.5150 N   0  0  0  0  0  0  0  0  0  0  0  0
   48.8820   33.2180   41.9230 C   0  0  0  0  0  0  0  0  0  0  0  0
   48.4300   33.5280   43.1740 N   0  0  0  0  0  0  0  0  0  0  0  0
   45.2370   34.0940   43.9850 C   0  0  0  0  0  0  0  0  0  0  0  0
   45.3370   35.4580   43.8150 C   0  0  0  0  0  0  0  0  0  0  0  0
   44.7790   36.1720   42.7790 C   0  0  0  0  0  0  0  0  0  0  0  0
   44.0590   35.4890   41.8230 C   0  0  0  0  0  0  0  0  0  0  0  0
   43.9620   34.1270   41.9960 C   0  0  0  0  0  0  0  0  0  0  0  0
   44.5240   33.4760   43.0250 N   0  0  0  0  0  0  0  0  0  0  0  0
   44.4428   33.9654   46.6313 H   0  0  0  0  0  0  0  0  0  0  0  0
   47.5691   31.4271   47.9215 H   0  0  0  0  0  0  0  0  0  0  0  0
   46.9530   30.7344   42.5238 H   0  0  0  0  0  0  0  0  0  0  0  0
   49.5853   33.8284   41.3376 H   0  0  0  0  0  0  0  0  0  0  0  0
   45.9085   36.0211   44.5675 H   0  0  0  0  0  0  0  0  0  0  0  0
   44.9049   37.2629   42.7156 H   0  0  0  0  0  0  0  0  0  0  0  0
   43.5891   36.0024   40.9712 H   0  0  0  0  0  0  0  0  0  0  0  0
   43.3961   33.5442   41.2543 H   0  0  0  0  0  0  0  0  0  0  0  0
  1  6  2  0
  2  1  1  0
  3  2  2  0
  3  4  1  0
  4  5  2  0
  5  6  1  0
  7  3  1  0
  8  7  1  0
  9 10  1  0
  9  8  2  0
 10 11  2  0
 11  7  1  0
 12  2  1  0
 13 12  2  0
 14 13  1  0
 15 16  1  0
 15 14  2  0
 16 17  2  0
 17 12  1  0
  1 18  1  0
  5 19  1  0
  8 20  1  0
 10 21  1  0
 13 22  1  0
 14 23  1  0
 15 24  1  0
 16 25  1  0
M  ISO  8  18  14  19  14  20  14  21  14  22  14  23  14  24  14  25  14
M  END
>  <minimizedAffinity>  (1) 
-3.94489646

>  <minimizedRMSD>  (1) 
3.19228697

$$$$
