
     RDKit          3D

 24 26  0  0  0  0  0  0  0  0999 V2000
   45.2460   33.4810   46.4750 C   0  0  0  0  0  0  0  0  0  0  0  0
   45.7820   33.4330   45.1910 C   0  0  0  0  0  0  0  0  0  0  0  0
   46.9280   32.6790   44.9500 C   0  0  0  0  0  0  0  0  0  0  0  0
   47.4810   32.0140   45.9950 N   0  0  0  0  0  0  0  0  0  0  0  0
   46.9480   32.0680   47.2440 C   0  0  0  0  0  0  0  0  0  0  0  0
   45.8340   32.8060   47.4620 N   0  0  0  0  0  0  0  0  0  0  0  0
   47.5550   32.5630   43.6750 N   0  0  0  0  0  0  0  0  0  0  0  0
   47.5380   31.6290   42.6970 C   0  0  0  0  0  0  0  0  0  0  0  0
   48.3260   32.0240   41.6770 N   0  0  0  0  0  0  0  0  0  0  0  0
   48.8270   33.2100   42.0370 C   0  0  0  0  0  0  0  0  0  0  0  0
   48.3540   33.5430   43.2650 N   0  0  0  0  0  0  0  0  0  0  0  0
   45.2170   34.1320   44.0470 C   0  0  0  0  0  0  0  0  0  0  0  0
   45.3150   35.4950   43.8570 C   0  0  0  0  0  0  0  0  0  0  0  0
   44.7920   36.1870   42.7850 C   0  0  0  0  0  0  0  0  0  0  0  0
   44.1290   35.4790   41.8420 N   0  0  0  0  0  0  0  0  0  0  0  0
   44.0200   34.1310   42.0090 C   0  0  0  0  0  0  0  0  0  0  0  0
   44.5380   33.5040   43.0560 N   0  0  0  0  0  0  0  0  0  0  0  0
   44.3409   34.0737   46.6739 H   0  0  0  0  0  0  0  0  0  0  0  0
   47.4181   31.5163   48.0715 H   0  0  0  0  0  0  0  0  0  0  0  0
   46.9674   30.6891   42.7290 H   0  0  0  0  0  0  0  0  0  0  0  0
   49.5146   33.8202   41.4329 H   0  0  0  0  0  0  0  0  0  0  0  0
   45.8528   36.0756   44.6210 H   0  0  0  0  0  0  0  0  0  0  0  0
   44.9099   37.2773   42.6996 H   0  0  0  0  0  0  0  0  0  0  0  0
   43.4840   33.5431   41.2493 H   0  0  0  0  0  0  0  0  0  0  0  0
  1  6  2  0
  2  1  1  0
  3  2  2  0
  3  4  1  0
  4  5  2  0
  5  6  1  0
  7  3  1  0
  8  7  1  0
  9 10  1  0
  9  8  2  0
 10 11  2  0
 11  7  1  0
 12  2  1  0
 13 12  2  0
 14 13  1  0
 15 16  1  0
 15 14  2  0
 16 17  2  0
 17 12  1  0
  1 18  1  0
  5 19  1  0
  8 20  1  0
 10 21  1  0
 13 22  1  0
 14 23  1  0
 16 24  1  0
M  ISO  7  18  14  19  14  20  14  21  14  22  14  23  14  24  14
M  END
>  <minimizedAffinity>  (1) 
-3.75665736

>  <minimizedRMSD>  (1) 
3.2046814

$$$$
