
     RDKit          3D

 29 31  0  0  0  0  0  0  0  0999 V2000
   45.2440   34.0220   45.6780 C   0  0  0  0  0  0  0  0  0  0  0  0
   45.8970   33.8880   44.4350 C   0  0  0  0  0  0  0  0  0  0  0  0
   46.9820   32.9970   44.3840 C   0  0  0  0  0  0  0  0  0  0  0  0
   47.3450   32.3170   45.5220 N   0  0  0  0  0  0  0  0  0  0  0  0
   46.6740   32.4950   46.6850 C   0  0  0  0  0  0  0  0  0  0  0  0
   45.6370   33.3370   46.7590 N   0  0  0  0  0  0  0  0  0  0  0  0
   47.7380   32.7560   43.1980 N   0  0  0  0  0  0  0  0  0  0  0  0
   47.6800   31.8880   42.1800 C   0  0  0  0  0  0  0  0  0  0  0  0
   48.6780   32.1240   41.3080 N   0  0  0  0  0  0  0  0  0  0  0  0
   49.3650   33.1650   41.8060 C   0  0  0  0  0  0  0  0  0  0  0  0
   48.7850   33.5520   42.9700 N   0  0  0  0  0  0  0  0  0  0  0  0
   45.5270   34.6000   43.2150 C   0  0  0  0  0  0  0  0  0  0  0  0
   44.4930   33.8790   42.3670 C   0  0  0  0  0  0  0  0  0  0  0  0
   43.5670   34.9750   41.9030 C   0  0  0  0  0  0  0  0  0  0  0  0
   44.3140   36.2750   42.1070 C   0  0  0  0  0  0  0  0  0  0  0  0
   45.0190   36.0040   43.4250 C   0  0  0  0  0  0  0  0  0  0  0  0
   44.3883   34.7082   45.7615 H   0  0  0  0  0  0  0  0  0  0  0  0
   46.9862   31.9393   47.5815 H   0  0  0  0  0  0  0  0  0  0  0  0
   46.9249   31.0955   42.0718 H   0  0  0  0  0  0  0  0  0  0  0  0
   50.2510   33.6273   41.3464 H   0  0  0  0  0  0  0  0  0  0  0  0
   46.4922   34.6392   42.6888 H   0  0  0  0  0  0  0  0  0  0  0  0
   44.9697   33.3817   41.5094 H   0  0  0  0  0  0  0  0  0  0  0  0
   43.9666   33.0900   42.9242 H   0  0  0  0  0  0  0  0  0  0  0  0
   42.6419   34.9696   42.4980 H   0  0  0  0  0  0  0  0  0  0  0  0
   43.2813   34.8385   40.8496 H   0  0  0  0  0  0  0  0  0  0  0  0
   45.0331   36.4588   41.2951 H   0  0  0  0  0  0  0  0  0  0  0  0
   43.6730   37.1689   42.1124 H   0  0  0  0  0  0  0  0  0  0  0  0
   44.3193   36.0550   44.2722 H   0  0  0  0  0  0  0  0  0  0  0  0
   45.8062   36.7325   43.6691 H   0  0  0  0  0  0  0  0  0  0  0  0
  1  6  2  0
  2  1  1  0
  3  2  2  0
  3  4  1  0
  4  5  2  0
  5  6  1  0
  7  3  1  0
  8  7  1  0
  9 10  1  0
  9  8  2  0
 10 11  2  0
 11  7  1  0
 12 16  1  0
 12  2  1  0
 13 12  1  0
 14 15  1  0
 14 13  1  0
 15 16  1  0
  1 17  1  0
  5 18  1  0
  8 19  1  0
 10 20  1  0
 12 21  1  0
 13 22  1  0
 13 23  1  0
 14 24  1  0
 14 25  1  0
 15 26  1  0
 15 27  1  0
 16 28  1  0
 16 29  1  0
M  ISO  8  17  14  18  14  19  14  20  14  21  13  22  13  23  13  24  13
M  ISO  5  25  13  26  13  27  13  28  13  29  13
M  END
>  <minimizedAffinity>  (1) 
-3.84511447

>  <minimizedRMSD>  (1) 
2.69841743

$$$$
