
     RDKit          3D

 37 40  0  0  0  0  0  0  0  0999 V2000
   45.4700   33.9330   43.2270 C   0  0  0  0  0  0  0  0  0  0  0  0
   45.8240   35.2350   43.4930 C   0  0  0  0  0  0  0  0  0  0  0  0
   45.1140   36.3450   43.0940 C   0  0  0  0  0  0  0  0  0  0  0  0
   43.9790   36.1590   42.3840 N   0  0  0  0  0  0  0  0  0  0  0  0
   43.6220   34.8740   42.1150 C   0  0  0  0  0  0  0  0  0  0  0  0
   44.3410   33.8140   42.5230 N   0  0  0  0  0  0  0  0  0  0  0  0
   46.1360   32.1860   44.9200 C   0  0  0  0  0  0  0  0  0  0  0  0
   46.2480   32.7870   43.6670 C   0  0  0  0  0  0  0  0  0  0  0  0
   47.1640   32.2610   42.7680 C   0  0  0  0  0  0  0  0  0  0  0  0
   47.9160   31.1780   43.1510 N   0  0  0  0  0  0  0  0  0  0  0  0
   47.7680   30.6290   44.3850 C   0  0  0  0  0  0  0  0  0  0  0  0
   46.8910   31.1310   45.2510 N   0  0  0  0  0  0  0  0  0  0  0  0
   47.3830   32.7740   41.4530 N   0  0  0  0  0  0  0  0  0  0  0  0
   46.8950   32.5130   40.2350 C   0  0  0  0  0  0  0  0  0  0  0  0
   47.4590   33.3070   39.3130 N   0  0  0  0  0  0  0  0  0  0  0  0
   48.3180   34.0770   39.9900 C   0  0  0  0  0  0  0  0  0  0  0  0
   48.2770   33.7530   41.3060 N   0  0  0  0  0  0  0  0  0  0  0  0
   40.0990   34.0870   39.9000 C   0  0  0  0  0  0  0  0  0  0  0  0
   40.2070   35.1990   40.7090 C   0  0  0  0  0  0  0  0  0  0  0  0
   41.3220   35.4890   41.4370 C   0  0  0  0  0  0  0  0  0  0  0  0
   42.4000   34.6040   41.3500 C   0  0  0  0  0  0  0  0  0  0  0  0
   42.2710   33.4990   40.5350 C   0  0  0  0  0  0  0  0  0  0  0  0
   41.1530   33.1930   39.7930 C   0  0  0  0  0  0  0  0  0  0  0  0
   38.6510   33.7740   38.9960 S   0  0  0  0  0  0  0  0  0  0  0  0
   38.7300   34.3160   37.5900 O   0  0  0  0  0  0  0  0  0  0  0  0
   38.3040   32.3080   38.9920 O   0  0  0  0  0  0  0  0  0  0  0  0
   46.7459   35.4025   44.0692 H   0  0  0  0  0  0  0  0  0  0  0  0
   45.4616   37.3576   43.3466 H   0  0  0  0  0  0  0  0  0  0  0  0
   45.4153   32.5853   45.6488 H   0  0  0  0  0  0  0  0  0  0  0  0
   48.3794   29.7605   44.6712 H   0  0  0  0  0  0  0  0  0  0  0  0
   46.1332   31.7495   40.0187 H   0  0  0  0  0  0  0  0  0  0  0  0
   48.9590   34.8536   39.5473 H   0  0  0  0  0  0  0  0  0  0  0  0
   39.3502   35.8862   40.7696 H   0  0  0  0  0  0  0  0  0  0  0  0
   41.3716   36.3871   42.0701 H   0  0  0  0  0  0  0  0  0  0  0  0
   43.1264   32.8101   40.4733 H   0  0  0  0  0  0  0  0  0  0  0  0
   41.0993   32.2974   39.1566 H   0  0  0  0  0  0  0  0  0  0  0  0
   37.6392   34.4423   39.6335 H   0  0  0  0  0  0  0  0  0  0  0  0
  1  2  2  0
  1  8  1  0
  3  2  1  0
  4  3  2  0
  5  4  1  0
  5  6  2  0
  6  1  1  0
  7 12  2  0
  8  7  1  0
  9 10  1  0
  9  8  2  0
 10 11  2  0
 11 12  1  0
 13  9  1  0
 14 13  1  0
 15 16  1  0
 15 14  2  0
 16 17  2  0
 17 13  1  0
 18 19  2  0
 19 20  1  0
 21 20  2  0
 21  5  1  0
 22 21  1  0
 23 18  1  0
 23 22  2  0
 24 18  1  0
 25 24  2  0
 26 24  2  0
  2 27  1  0
  3 28  1  0
  7 29  1  0
 11 30  1  0
 14 31  1  0
 16 32  1  0
 19 33  1  0
 20 34  1  0
 22 35  1  0
 23 36  1  0
 24 37  1  0
M  ISO  8  27  14  28  14  29  14  30  14  31  14  32  14  33  14  34  14
M  ISO  3  35  14  36  14  37  11
M  END
>  <minimizedAffinity>  (1) 
-5.16792154

>  <minimizedRMSD>  (1) 
2.49208283

$$$$
