
     RDKit          3D

 35 38  0  0  0  0  0  0  0  0999 V2000
   45.2280   34.2780   43.9450 C   0  0  0  0  0  0  0  0  0  0  0  0
   45.4630   35.6190   43.7770 C   0  0  0  0  0  0  0  0  0  0  0  0
   44.9290   36.3980   42.7720 C   0  0  0  0  0  0  0  0  0  0  0  0
   44.1100   35.8130   41.8730 N   0  0  0  0  0  0  0  0  0  0  0  0
   43.8720   34.4840   42.0320 C   0  0  0  0  0  0  0  0  0  0  0  0
   44.4080   33.7490   43.0250 N   0  0  0  0  0  0  0  0  0  0  0  0
   43.0320   33.6600   41.1930 N   0  0  0  0  0  0  0  0  0  0  0  0
   42.8970   32.3970   41.6930 C   0  0  0  0  0  0  0  0  0  0  0  0
   42.1150   31.4770   40.9950 C   0  0  0  0  0  0  0  0  0  0  0  0
   41.5000   31.8920   39.8110 C   0  0  0  0  0  0  0  0  0  0  0  0
   40.7030   30.9560   39.0990 N   0  0  0  0  0  0  0  0  0  0  0  0
   41.6790   33.1680   39.3720 N   0  0  0  0  0  0  0  0  0  0  0  0
   42.4430   34.0410   40.0650 C   0  0  0  0  0  0  0  0  0  0  0  0
   42.6410   35.2310   39.7040 O   0  0  0  0  0  0  0  0  0  0  0  0
   45.3420   33.4680   46.3250 C   0  0  0  0  0  0  0  0  0  0  0  0
   45.8190   33.4910   45.0290 C   0  0  0  0  0  0  0  0  0  0  0  0
   46.9340   32.7230   44.7040 C   0  0  0  0  0  0  0  0  0  0  0  0
   47.5140   31.9700   45.7030 N   0  0  0  0  0  0  0  0  0  0  0  0
   47.0100   31.9810   46.9580 C   0  0  0  0  0  0  0  0  0  0  0  0
   45.9350   32.7220   47.2680 N   0  0  0  0  0  0  0  0  0  0  0  0
   47.5210   32.6610   43.4030 N   0  0  0  0  0  0  0  0  0  0  0  0
   47.3540   31.8660   42.3280 C   0  0  0  0  0  0  0  0  0  0  0  0
   48.1770   32.2470   41.3370 N   0  0  0  0  0  0  0  0  0  0  0  0
   48.8620   33.2990   41.8230 C   0  0  0  0  0  0  0  0  0  0  0  0
   48.4540   33.5520   43.1000 N   0  0  0  0  0  0  0  0  0  0  0  0
   46.1294   36.1115   44.5004 H   0  0  0  0  0  0  0  0  0  0  0  0
   45.1650   37.4703   42.7048 H   0  0  0  0  0  0  0  0  0  0  0  0
   43.3963   32.1099   42.6301 H   0  0  0  0  0  0  0  0  0  0  0  0
   41.9856   30.4501   41.3674 H   0  0  0  0  0  0  0  0  0  0  0  0
   40.2385   31.2360   38.2234 H   0  0  0  0  0  0  0  0  0  0  0  0
   40.5897   29.9974   39.4584 H   0  0  0  0  0  0  0  0  0  0  0  0
   44.4609   34.0718   46.5878 H   0  0  0  0  0  0  0  0  0  0  0  0
   47.4897   31.3719   47.7383 H   0  0  0  0  0  0  0  0  0  0  0  0
   46.6459   31.0262   42.2702 H   0  0  0  0  0  0  0  0  0  0  0  0
   49.6301   33.8657   41.2763 H   0  0  0  0  0  0  0  0  0  0  0  0
  1 16  1  0
  2  1  2  0
  3  2  1  0
  4  5  1  0
  4  3  2  0
  5  6  2  0
  6  1  1  0
  7  8  1  0
  7  5  1  0
  9  8  2  0
 10  9  1  0
 11 10  1  0
 12 10  2  0
 12 13  1  0
 13  7  1  0
 14 13  2  0
 15 20  2  0
 16 15  1  0
 17 16  2  0
 17 18  1  0
 18 19  2  0
 19 20  1  0
 21 17  1  0
 22 21  1  0
 23 24  1  0
 23 22  2  0
 24 25  2  0
 25 21  1  0
  2 26  1  0
  3 27  1  0
  8 28  1  0
  9 29  1  0
 11 30  1  0
 11 31  1  0
 15 32  1  0
 19 33  1  0
 22 34  1  0
 24 35  1  0
M  ISO  8  26  14  27  14  28  14  29  14  32  14  33  14  34  14  35  14
M  END
>  <minimizedAffinity>  (1) 
-5.08467007

>  <minimizedRMSD>  (1) 
0.497157395

$$$$
