
     RDKit          3D

 37 40  0  0  0  0  0  0  0  0999 V2000
   45.3390   33.4580   46.3290 C   0  0  0  0  0  0  0  0  0  0  0  0
   45.8160   33.4850   45.0200 C   0  0  0  0  0  0  0  0  0  0  0  0
   46.9440   32.7200   44.7180 C   0  0  0  0  0  0  0  0  0  0  0  0
   47.5290   31.9830   45.7190 N   0  0  0  0  0  0  0  0  0  0  0  0
   47.0220   31.9960   46.9750 C   0  0  0  0  0  0  0  0  0  0  0  0
   45.9370   32.7280   47.2730 N   0  0  0  0  0  0  0  0  0  0  0  0
   45.2220   34.2520   43.9380 C   0  0  0  0  0  0  0  0  0  0  0  0
   45.4630   35.6060   43.7640 C   0  0  0  0  0  0  0  0  0  0  0  0
   44.9190   36.3670   42.7520 C   0  0  0  0  0  0  0  0  0  0  0  0
   44.0940   35.7680   41.8610 N   0  0  0  0  0  0  0  0  0  0  0  0
   43.8620   34.4400   42.0360 C   0  0  0  0  0  0  0  0  0  0  0  0
   44.4020   33.7100   43.0320 N   0  0  0  0  0  0  0  0  0  0  0  0
   42.9960   33.7960   41.1080 N   0  0  0  0  0  0  0  0  0  0  0  0
   42.4670   32.4880   41.4420 C   0  0  0  0  0  0  0  0  0  0  0  0
   41.0870   32.3950   40.8390 C   0  0  0  0  0  0  0  0  0  0  0  0
   41.0380   32.5920   39.4840 O   0  0  0  0  0  0  0  0  0  0  0  0
   42.0650   33.3180   38.9520 C   0  0  0  0  0  0  0  0  0  0  0  0
   42.6240   34.3860   39.8540 C   0  0  0  0  0  0  0  0  0  0  0  0
   47.5350   32.6570   43.4170 N   0  0  0  0  0  0  0  0  0  0  0  0
   47.3850   31.8560   42.3490 C   0  0  0  0  0  0  0  0  0  0  0  0
   48.2080   32.2470   41.3550 N   0  0  0  0  0  0  0  0  0  0  0  0
   48.8710   33.3140   41.8380 C   0  0  0  0  0  0  0  0  0  0  0  0
   48.4510   33.5610   43.1070 N   0  0  0  0  0  0  0  0  0  0  0  0
   44.4502   34.0512   46.5901 H   0  0  0  0  0  0  0  0  0  0  0  0
   47.5060   31.3985   47.7616 H   0  0  0  0  0  0  0  0  0  0  0  0
   46.1319   36.1055   44.4803 H   0  0  0  0  0  0  0  0  0  0  0  0
   45.1503   37.4393   42.6698 H   0  0  0  0  0  0  0  0  0  0  0  0
   43.1140   31.7024   41.0245 H   0  0  0  0  0  0  0  0  0  0  0  0
   42.4255   32.3515   42.5327 H   0  0  0  0  0  0  0  0  0  0  0  0
   40.6863   31.3934   41.0540 H   0  0  0  0  0  0  0  0  0  0  0  0
   40.4960   33.2049   41.2914 H   0  0  0  0  0  0  0  0  0  0  0  0
   42.8797   32.6230   38.7006 H   0  0  0  0  0  0  0  0  0  0  0  0
   41.6508   33.8406   38.0772 H   0  0  0  0  0  0  0  0  0  0  0  0
   43.5090   34.8391   39.3834 H   0  0  0  0  0  0  0  0  0  0  0  0
   41.8642   35.1635   40.0218 H   0  0  0  0  0  0  0  0  0  0  0  0
   46.6911   31.0043   42.2934 H   0  0  0  0  0  0  0  0  0  0  0  0
   49.6310   33.8933   41.2932 H   0  0  0  0  0  0  0  0  0  0  0  0
  1  6  2  0
  2  1  1  0
  3  2  2  0
  3  4  1  0
  4  5  2  0
  5  6  1  0
  7  2  1  0
  8  7  2  0
  9  8  1  0
 10 11  1  0
 10  9  2  0
 11 12  2  0
 12  7  1  0
 13 14  1  0
 13 11  1  0
 15 14  1  0
 16 15  1  0
 17 16  1  0
 17 18  1  0
 18 13  1  0
 19  3  1  0
 20 19  1  0
 21 22  1  0
 21 20  2  0
 22 23  2  0
 23 19  1  0
  1 24  1  0
  5 25  1  0
  8 26  1  0
  9 27  1  0
 14 28  1  0
 14 29  1  0
 15 30  1  0
 15 31  1  0
 17 32  1  0
 17 33  1  0
 18 34  1  0
 18 35  1  0
 20 36  1  0
 22 37  1  0
M  ISO  8  24  14  25  14  26  14  27  14  28  13  29  13  30  13  31  13
M  ISO  6  32  13  33  13  34  13  35  13  36  14  37  14
M  END
>  <minimizedAffinity>  (1) 
-4.79785395

>  <minimizedRMSD>  (1) 
0.434795052

$$$$
