
     RDKit          3D

 40 43  0  0  0  0  0  0  0  0999 V2000
   45.3270   33.5010   46.2860 C   0  0  0  0  0  0  0  0  0  0  0  0
   45.8090   33.5280   44.9800 C   0  0  0  0  0  0  0  0  0  0  0  0
   46.9170   32.7660   44.6570 C   0  0  0  0  0  0  0  0  0  0  0  0
   47.5010   32.0090   45.6510 N   0  0  0  0  0  0  0  0  0  0  0  0
   46.9940   32.0170   46.9100 C   0  0  0  0  0  0  0  0  0  0  0  0
   45.9280   32.7490   47.2200 N   0  0  0  0  0  0  0  0  0  0  0  0
   45.2120   34.3200   43.9050 C   0  0  0  0  0  0  0  0  0  0  0  0
   45.4560   35.6650   43.7430 C   0  0  0  0  0  0  0  0  0  0  0  0
   44.9190   36.4540   42.7480 C   0  0  0  0  0  0  0  0  0  0  0  0
   44.0840   35.8730   41.8500 N   0  0  0  0  0  0  0  0  0  0  0  0
   43.8390   34.5330   42.0100 C   0  0  0  0  0  0  0  0  0  0  0  0
   44.3860   33.8010   42.9980 N   0  0  0  0  0  0  0  0  0  0  0  0
   42.9250   33.8680   41.0400 C   0  0  0  0  0  0  0  0  0  0  0  0
   43.2970   34.1450   39.6000 C   0  0  0  0  0  0  0  0  0  0  0  0
   42.0590   33.8100   38.7650 C   0  0  0  0  0  0  0  0  0  0  0  0
   41.2480   32.7100   39.4480 C   0  0  0  0  0  0  0  0  0  0  0  0
   40.6050   33.2210   40.7180 C   0  0  0  0  0  0  0  0  0  0  0  0
   41.4910   34.3610   41.2240 C   0  0  0  0  0  0  0  0  0  0  0  0
   47.5020   32.7100   43.3610 N   0  0  0  0  0  0  0  0  0  0  0  0
   47.3360   31.9070   42.2850 C   0  0  0  0  0  0  0  0  0  0  0  0
   48.1670   32.3080   41.2900 N   0  0  0  0  0  0  0  0  0  0  0  0
   48.8260   33.3510   41.7750 C   0  0  0  0  0  0  0  0  0  0  0  0
   48.4310   33.6170   43.0510 N   0  0  0  0  0  0  0  0  0  0  0  0
   44.4454   34.1018   46.5542 H   0  0  0  0  0  0  0  0  0  0  0  0
   47.4741   31.4063   47.6888 H   0  0  0  0  0  0  0  0  0  0  0  0
   46.1322   36.1481   44.4637 H   0  0  0  0  0  0  0  0  0  0  0  0
   45.1609   37.5252   42.6839 H   0  0  0  0  0  0  0  0  0  0  0  0
   43.0146   32.7908   41.2438 H   0  0  0  0  0  0  0  0  0  0  0  0
   43.5670   35.2038   39.4732 H   0  0  0  0  0  0  0  0  0  0  0  0
   44.1642   33.5444   39.2883 H   0  0  0  0  0  0  0  0  0  0  0  0
   42.3741   33.4649   37.7692 H   0  0  0  0  0  0  0  0  0  0  0  0
   41.4349   34.7107   38.6684 H   0  0  0  0  0  0  0  0  0  0  0  0
   40.4620   32.3631   38.7611 H   0  0  0  0  0  0  0  0  0  0  0  0
   41.9260   31.8832   39.7062 H   0  0  0  0  0  0  0  0  0  0  0  0
   39.5910   33.5921   40.5081 H   0  0  0  0  0  0  0  0  0  0  0  0
   40.5166   32.4220   41.4689 H   0  0  0  0  0  0  0  0  0  0  0  0
   41.2870   34.5657   42.2854 H   0  0  0  0  0  0  0  0  0  0  0  0
   41.3059   35.2979   40.6782 H   0  0  0  0  0  0  0  0  0  0  0  0
   46.6361   31.0605   42.2258 H   0  0  0  0  0  0  0  0  0  0  0  0
   49.5867   33.9226   41.2231 H   0  0  0  0  0  0  0  0  0  0  0  0
  1  6  2  0
  2  1  1  0
  3  2  2  0
  3  4  1  0
  4  5  2  0
  5  6  1  0
  7  2  1  0
  8  7  2  0
  9  8  1  0
 10 11  1  0
 10  9  2  0
 11 12  2  0
 12  7  1  0
 13 18  1  0
 13 11  1  0
 14 13  1  0
 15 16  1  0
 15 14  1  0
 16 17  1  0
 17 18  1  0
 19  3  1  0
 20 19  1  0
 21 22  1  0
 21 20  2  0
 22 23  2  0
 23 19  1  0
  1 24  1  0
  5 25  1  0
  8 26  1  0
  9 27  1  0
 13 28  1  0
 14 29  1  0
 14 30  1  0
 15 31  1  0
 15 32  1  0
 16 33  1  0
 16 34  1  0
 17 35  1  0
 17 36  1  0
 18 37  1  0
 18 38  1  0
 20 39  1  0
 22 40  1  0
M  ISO  8  24  14  25  14  26  14  27  14  28  13  29  13  30  13  31  13
M  ISO  8  32  13  33  13  34  13  35  13  36  13  37  13  38  13  39  14
M  ISO  1  40  14
M  END
>  <minimizedAffinity>  (1) 
-4.75216389

>  <minimizedRMSD>  (1) 
0.559892714

$$$$
