
     RDKit          3D

 32 35  0  0  0  0  0  0  0  0999 V2000
   45.3140   33.5010   46.2690 C   0  0  0  0  0  0  0  0  0  0  0  0
   45.8010   33.5630   44.9600 C   0  0  0  0  0  0  0  0  0  0  0  0
   46.9270   32.8150   44.6530 C   0  0  0  0  0  0  0  0  0  0  0  0
   47.5090   32.0550   45.6330 N   0  0  0  0  0  0  0  0  0  0  0  0
   46.9900   32.0340   46.8910 C   0  0  0  0  0  0  0  0  0  0  0  0
   45.9070   32.7520   47.1910 N   0  0  0  0  0  0  0  0  0  0  0  0
   45.2130   34.3540   43.8960 C   0  0  0  0  0  0  0  0  0  0  0  0
   45.4650   35.6980   43.7260 C   0  0  0  0  0  0  0  0  0  0  0  0
   44.9190   36.4730   42.7210 C   0  0  0  0  0  0  0  0  0  0  0  0
   44.0830   35.9030   41.8390 N   0  0  0  0  0  0  0  0  0  0  0  0
   43.8290   34.5720   42.0020 C   0  0  0  0  0  0  0  0  0  0  0  0
   44.3750   33.8450   42.9860 N   0  0  0  0  0  0  0  0  0  0  0  0
   42.9280   33.8760   41.0790 C   0  0  0  0  0  0  0  0  0  0  0  0
   42.7400   34.4100   39.7990 C   0  0  0  0  0  0  0  0  0  0  0  0
   41.8720   33.7130   38.9530 C   0  0  0  0  0  0  0  0  0  0  0  0
   41.2170   32.5740   39.2970 N   0  0  0  0  0  0  0  0  0  0  0  0
   41.4440   32.1160   40.5410 C   0  0  0  0  0  0  0  0  0  0  0  0
   42.2730   32.7330   41.4260 N   0  0  0  0  0  0  0  0  0  0  0  0
   47.5340   32.7820   43.3550 N   0  0  0  0  0  0  0  0  0  0  0  0
   47.3900   32.0190   42.2610 C   0  0  0  0  0  0  0  0  0  0  0  0
   48.2340   32.4330   41.2970 N   0  0  0  0  0  0  0  0  0  0  0  0
   48.8960   33.4600   41.8130 C   0  0  0  0  0  0  0  0  0  0  0  0
   48.4700   33.6800   43.0810 N   0  0  0  0  0  0  0  0  0  0  0  0
   44.4218   34.0844   46.5404 H   0  0  0  0  0  0  0  0  0  0  0  0
   47.4683   31.4190   47.6675 H   0  0  0  0  0  0  0  0  0  0  0  0
   46.1464   36.1865   44.4381 H   0  0  0  0  0  0  0  0  0  0  0  0
   45.1659   37.5422   42.6447 H   0  0  0  0  0  0  0  0  0  0  0  0
   43.2486   35.3301   39.4754 H   0  0  0  0  0  0  0  0  0  0  0  0
   41.7088   34.1137   37.9417 H   0  0  0  0  0  0  0  0  0  0  0  0
   40.9332   31.1953   40.8593 H   0  0  0  0  0  0  0  0  0  0  0  0
   46.6862   31.1790   42.1656 H   0  0  0  0  0  0  0  0  0  0  0  0
   49.6705   34.0427   41.2928 H   0  0  0  0  0  0  0  0  0  0  0  0
  1  6  2  0
  2  1  1  0
  3  2  2  0
  3  4  1  0
  4  5  2  0
  5  6  1  0
  7  2  1  0
  8  7  2  0
  9  8  1  0
 10 11  1  0
 10  9  2  0
 11 12  2  0
 12  7  1  0
 13 18  1  0
 13 11  1  0
 14 13  2  0
 15 16  2  0
 15 14  1  0
 16 17  1  0
 17 18  2  0
 19  3  1  0
 20 19  1  0
 21 22  1  0
 21 20  2  0
 22 23  2  0
 23 19  1  0
  1 24  1  0
  5 25  1  0
  8 26  1  0
  9 27  1  0
 14 28  1  0
 15 29  1  0
 17 30  1  0
 20 31  1  0
 22 32  1  0
M  ISO  8  24  14  25  14  26  14  27  14  28  14  29  14  30  14  31  14
M  ISO  1  32  14
M  END
>  <minimizedAffinity>  (1) 
-4.58768129

>  <minimizedRMSD>  (1) 
0.558861911

$$$$
