
     RDKit          3D

 34 37  0  0  0  0  0  0  0  0999 V2000
   45.2180   34.3870   43.8970 C   0  0  0  0  0  0  0  0  0  0  0  0
   45.4430   35.7340   43.7620 C   0  0  0  0  0  0  0  0  0  0  0  0
   44.9030   36.5260   42.7650 C   0  0  0  0  0  0  0  0  0  0  0  0
   44.0980   35.9650   41.8490 N   0  0  0  0  0  0  0  0  0  0  0  0
   43.8680   34.6240   41.9750 C   0  0  0  0  0  0  0  0  0  0  0  0
   44.4090   33.8790   42.9590 N   0  0  0  0  0  0  0  0  0  0  0  0
   43.0020   33.9240   41.0210 C   0  0  0  0  0  0  0  0  0  0  0  0
   42.7600   34.4960   39.7850 C   0  0  0  0  0  0  0  0  0  0  0  0
   41.9570   33.8990   38.8380 C   0  0  0  0  0  0  0  0  0  0  0  0
   41.3720   32.6890   39.1270 C   0  0  0  0  0  0  0  0  0  0  0  0
   41.5940   32.0830   40.3610 C   0  0  0  0  0  0  0  0  0  0  0  0
   42.4070   32.6990   41.3080 C   0  0  0  0  0  0  0  0  0  0  0  0
   45.2980   33.5180   46.2550 C   0  0  0  0  0  0  0  0  0  0  0  0
   45.7980   33.5820   44.9540 C   0  0  0  0  0  0  0  0  0  0  0  0
   46.9210   32.8310   44.6370 C   0  0  0  0  0  0  0  0  0  0  0  0
   47.4940   32.0560   45.6190 N   0  0  0  0  0  0  0  0  0  0  0  0
   46.9760   32.0240   46.8690 C   0  0  0  0  0  0  0  0  0  0  0  0
   45.8950   32.7450   47.1780 N   0  0  0  0  0  0  0  0  0  0  0  0
   47.5310   32.8080   43.3430 N   0  0  0  0  0  0  0  0  0  0  0  0
   47.4140   32.0530   42.2500 C   0  0  0  0  0  0  0  0  0  0  0  0
   48.2480   32.4760   41.2880 N   0  0  0  0  0  0  0  0  0  0  0  0
   48.8980   33.5270   41.8100 C   0  0  0  0  0  0  0  0  0  0  0  0
   48.4570   33.7330   43.0780 N   0  0  0  0  0  0  0  0  0  0  0  0
   46.0998   36.2185   44.4995 H   0  0  0  0  0  0  0  0  0  0  0  0
   45.1302   37.6015   42.7232 H   0  0  0  0  0  0  0  0  0  0  0  0
   43.2263   35.4640   39.5494 H   0  0  0  0  0  0  0  0  0  0  0  0
   41.7865   34.3833   37.8652 H   0  0  0  0  0  0  0  0  0  0  0  0
   40.7276   32.1988   38.3824 H   0  0  0  0  0  0  0  0  0  0  0  0
   41.1252   31.1141   40.5881 H   0  0  0  0  0  0  0  0  0  0  0  0
   42.5791   32.2181   42.2823 H   0  0  0  0  0  0  0  0  0  0  0  0
   44.4083   34.1048   46.5273 H   0  0  0  0  0  0  0  0  0  0  0  0
   47.4504   31.3975   47.6387 H   0  0  0  0  0  0  0  0  0  0  0  0
   46.7272   31.1995   42.1507 H   0  0  0  0  0  0  0  0  0  0  0  0
   49.6640   34.1250   41.2946 H   0  0  0  0  0  0  0  0  0  0  0  0
  1 14  1  0
  2  1  2  0
  3  2  1  0
  4  5  1  0
  4  3  2  0
  5  6  2  0
  6  1  1  0
  7 12  1  0
  7  5  1  0
  8  7  2  0
  9 10  2  0
  9  8  1  0
 10 11  1  0
 11 12  2  0
 13 18  2  0
 14 13  1  0
 15 14  2  0
 15 16  1  0
 16 17  2  0
 17 18  1  0
 19 15  1  0
 20 19  1  0
 21 22  1  0
 21 20  2  0
 22 23  2  0
 23 19  1  0
  2 24  1  0
  3 25  1  0
  8 26  1  0
  9 27  1  0
 10 28  1  0
 11 29  1  0
 12 30  1  0
 13 31  1  0
 17 32  1  0
 20 33  1  0
 22 34  1  0
M  ISO  8  24  14  25  14  26  14  27  14  28  14  29  14  30  14  31  14
M  ISO  3  32  14  33  14  34  14
M  END
>  <minimizedAffinity>  (1) 
-4.6200285

>  <minimizedRMSD>  (1) 
0.606884956

$$$$
