
     RDKit          3D

 30 33  0  0  0  0  0  0  0  0999 V2000
   45.3390   33.4750   46.3060 C   0  0  0  0  0  0  0  0  0  0  0  0
   45.8110   33.5010   45.0060 C   0  0  0  0  0  0  0  0  0  0  0  0
   46.9290   32.7400   44.6940 C   0  0  0  0  0  0  0  0  0  0  0  0
   47.5120   31.9990   45.6910 N   0  0  0  0  0  0  0  0  0  0  0  0
   47.0120   32.0080   46.9490 C   0  0  0  0  0  0  0  0  0  0  0  0
   45.9320   32.7460   47.2440 N   0  0  0  0  0  0  0  0  0  0  0  0
   45.2130   34.2780   43.9220 C   0  0  0  0  0  0  0  0  0  0  0  0
   45.4770   35.6250   43.7350 C   0  0  0  0  0  0  0  0  0  0  0  0
   44.9280   36.3880   42.7210 C   0  0  0  0  0  0  0  0  0  0  0  0
   44.0730   35.7920   41.8460 N   0  0  0  0  0  0  0  0  0  0  0  0
   43.8250   34.4770   42.0380 C   0  0  0  0  0  0  0  0  0  0  0  0
   44.3720   33.7600   43.0330 N   0  0  0  0  0  0  0  0  0  0  0  0
   42.9540   33.6840   41.2190 N   0  0  0  0  0  0  0  0  0  0  0  0
   42.4780   34.0120   40.0120 C   0  0  0  0  0  0  0  0  0  0  0  0
   41.7020   33.0170   39.5660 N   0  0  0  0  0  0  0  0  0  0  0  0
   41.6750   32.0430   40.4860 C   0  0  0  0  0  0  0  0  0  0  0  0
   42.4570   32.4910   41.4860 N   0  0  0  0  0  0  0  0  0  0  0  0
   47.5170   32.6760   43.3940 N   0  0  0  0  0  0  0  0  0  0  0  0
   47.3670   31.9060   42.3060 C   0  0  0  0  0  0  0  0  0  0  0  0
   48.1930   32.2830   41.3250 N   0  0  0  0  0  0  0  0  0  0  0  0
   48.8760   33.3220   41.8190 C   0  0  0  0  0  0  0  0  0  0  0  0
   48.4650   33.5690   43.0920 N   0  0  0  0  0  0  0  0  0  0  0  0
   44.4528   34.0715   46.5685 H   0  0  0  0  0  0  0  0  0  0  0  0
   47.4944   31.4065   47.7336 H   0  0  0  0  0  0  0  0  0  0  0  0
   46.1660   36.1180   44.4366 H   0  0  0  0  0  0  0  0  0  0  0  0
   45.1773   37.4549   42.6236 H   0  0  0  0  0  0  0  0  0  0  0  0
   42.6901   34.9476   39.4738 H   0  0  0  0  0  0  0  0  0  0  0  0
   41.1329   31.0872   40.4352 H   0  0  0  0  0  0  0  0  0  0  0  0
   46.6551   31.0708   42.2306 H   0  0  0  0  0  0  0  0  0  0  0  0
   49.6495   33.8884   41.2797 H   0  0  0  0  0  0  0  0  0  0  0  0
  1  6  2  0
  2  1  1  0
  3  2  2  0
  3  4  1  0
  4  5  2  0
  5  6  1  0
  7  2  1  0
  8  7  2  0
  9  8  1  0
 10 11  1  0
 10  9  2  0
 11 12  2  0
 12  7  1  0
 13 17  1  0
 13 11  1  0
 14 13  1  0
 15 14  2  0
 15 16  1  0
 16 17  2  0
 18  3  1  0
 19 18  1  0
 20 21  1  0
 20 19  2  0
 21 22  2  0
 22 18  1  0
  1 23  1  0
  5 24  1  0
  8 25  1  0
  9 26  1  0
 14 27  1  0
 16 28  1  0
 19 29  1  0
 21 30  1  0
M  ISO  8  23  14  24  14  25  14  26  14  27  14  28  14  29  14  30  14
M  END
>  <minimizedAffinity>  (1) 
-4.55351686

>  <minimizedRMSD>  (1) 
0.46555692

$$$$
