
     RDKit          3D

 27 29  0  0  0  0  0  0  0  0999 V2000
   45.3470   33.4310   46.3810 C   0  0  0  0  0  0  0  0  0  0  0  0
   45.8340   33.4510   45.0780 C   0  0  0  0  0  0  0  0  0  0  0  0
   46.9620   32.6840   44.7900 C   0  0  0  0  0  0  0  0  0  0  0  0
   47.5350   31.9500   45.7930 N   0  0  0  0  0  0  0  0  0  0  0  0
   47.0130   31.9680   47.0550 C   0  0  0  0  0  0  0  0  0  0  0  0
   45.9300   32.7040   47.3380 N   0  0  0  0  0  0  0  0  0  0  0  0
   45.2490   34.2210   43.9850 C   0  0  0  0  0  0  0  0  0  0  0  0
   45.4020   35.5750   43.8640 C   0  0  0  0  0  0  0  0  0  0  0  0
   44.8660   36.3390   42.8470 C   0  0  0  0  0  0  0  0  0  0  0  0
   44.1330   35.7140   41.8950 N   0  0  0  0  0  0  0  0  0  0  0  0
   43.9840   34.3660   42.0200 C   0  0  0  0  0  0  0  0  0  0  0  0
   44.5220   33.6610   43.0260 N   0  0  0  0  0  0  0  0  0  0  0  0
   43.1900   33.5900   41.0140 C   0  0  0  0  0  0  0  0  0  0  0  0
   41.8870   33.4960   41.4400 F   0  0  0  0  0  0  0  0  0  0  0  0
   43.1900   34.2870   39.8010 F   0  0  0  0  0  0  0  0  0  0  0  0
   43.7290   32.3420   40.8550 F   0  0  0  0  0  0  0  0  0  0  0  0
   47.5660   32.6100   43.5010 N   0  0  0  0  0  0  0  0  0  0  0  0
   47.4930   31.7780   42.4580 C   0  0  0  0  0  0  0  0  0  0  0  0
   48.3000   32.1880   41.4640 N   0  0  0  0  0  0  0  0  0  0  0  0
   48.8790   33.2980   41.9050 C   0  0  0  0  0  0  0  0  0  0  0  0
   48.4340   33.5710   43.1660 N   0  0  0  0  0  0  0  0  0  0  0  0
   44.4584   34.0297   46.6298 H   0  0  0  0  0  0  0  0  0  0  0  0
   47.4873   31.3713   47.8481 H   0  0  0  0  0  0  0  0  0  0  0  0
   45.9950   36.0923   44.6327 H   0  0  0  0  0  0  0  0  0  0  0  0
   45.0298   37.4261   42.8107 H   0  0  0  0  0  0  0  0  0  0  0  0
   46.8590   30.8800   42.4181 H   0  0  0  0  0  0  0  0  0  0  0  0
   49.6044   33.9035   41.3419 H   0  0  0  0  0  0  0  0  0  0  0  0
  1  6  2  0
  2  1  1  0
  3  2  2  0
  3  4  1  0
  4  5  2  0
  5  6  1  0
  7  2  1  0
  8  7  2  0
  9  8  1  0
 10 11  1  0
 10  9  2  0
 11 12  2  0
 12  7  1  0
 13 14  1  0
 13 11  1  0
 15 13  1  0
 16 13  1  0
 17  3  1  0
 18 17  1  0
 19 20  1  0
 19 18  2  0
 20 21  2  0
 21 17  1  0
  1 22  1  0
  5 23  1  0
  8 24  1  0
  9 25  1  0
 18 26  1  0
 20 27  1  0
M  ISO  6  22  14  23  14  24  14  25  14  26  14  27  14
M  END
>  <minimizedAffinity>  (1) 
-4.22914314

>  <minimizedRMSD>  (1) 
0.227924049

$$$$
