
     RDKit          3D

 29 32  0  0  0  0  0  0  0  0999 V2000
   45.3390   33.4530   46.3280 C   0  0  0  0  0  0  0  0  0  0  0  0
   45.8170   33.4950   45.0320 C   0  0  0  0  0  0  0  0  0  0  0  0
   46.9380   32.7410   44.7130 C   0  0  0  0  0  0  0  0  0  0  0  0
   47.5220   31.9860   45.7030 N   0  0  0  0  0  0  0  0  0  0  0  0
   47.0120   31.9790   46.9650 C   0  0  0  0  0  0  0  0  0  0  0  0
   45.9380   32.7030   47.2650 N   0  0  0  0  0  0  0  0  0  0  0  0
   45.2240   34.2870   43.9480 C   0  0  0  0  0  0  0  0  0  0  0  0
   45.4700   35.6340   43.8020 C   0  0  0  0  0  0  0  0  0  0  0  0
   44.9360   36.4180   42.8020 C   0  0  0  0  0  0  0  0  0  0  0  0
   44.1160   35.8430   41.8960 N   0  0  0  0  0  0  0  0  0  0  0  0
   43.8760   34.5090   42.0450 C   0  0  0  0  0  0  0  0  0  0  0  0
   44.4130   33.7670   43.0340 N   0  0  0  0  0  0  0  0  0  0  0  0
   42.9960   33.8360   41.0920 C   0  0  0  0  0  0  0  0  0  0  0  0
   42.2440   32.7150   41.1580 N   0  0  0  0  0  0  0  0  0  0  0  0
   41.6260   32.5290   40.0290 O   0  0  0  0  0  0  0  0  0  0  0  0
   41.9360   33.4960   39.1860 C   0  0  0  0  0  0  0  0  0  0  0  0
   42.7870   34.3060   39.8450 N   0  0  0  0  0  0  0  0  0  0  0  0
   47.5340   32.6930   43.4180 N   0  0  0  0  0  0  0  0  0  0  0  0
   47.4000   31.9040   42.3360 C   0  0  0  0  0  0  0  0  0  0  0  0
   48.2350   32.3210   41.3550 N   0  0  0  0  0  0  0  0  0  0  0  0
   48.8800   33.3720   41.8520 C   0  0  0  0  0  0  0  0  0  0  0  0
   48.4590   33.6070   43.1110 N   0  0  0  0  0  0  0  0  0  0  0  0
   44.4515   34.0451   46.5959 H   0  0  0  0  0  0  0  0  0  0  0  0
   47.4928   31.3688   47.7437 H   0  0  0  0  0  0  0  0  0  0  0  0
   46.1369   36.1163   44.5318 H   0  0  0  0  0  0  0  0  0  0  0  0
   45.1730   37.4905   42.7431 H   0  0  0  0  0  0  0  0  0  0  0  0
   41.5731   33.6161   38.1546 H   0  0  0  0  0  0  0  0  0  0  0  0
   46.7140   31.0475   42.2599 H   0  0  0  0  0  0  0  0  0  0  0  0
   49.6408   33.9599   41.3177 H   0  0  0  0  0  0  0  0  0  0  0  0
  1  6  2  0
  2  1  1  0
  3  2  2  0
  3  4  1  0
  4  5  2  0
  5  6  1  0
  7  2  1  0
  8  7  2  0
  9  8  1  0
 10 11  1  0
 10  9  2  0
 11 12  2  0
 12  7  1  0
 13 14  2  0
 13 11  1  0
 15 14  1  0
 16 17  2  0
 16 15  1  0
 17 13  1  0
 18  3  1  0
 19 18  1  0
 20 21  1  0
 20 19  2  0
 21 22  2  0
 22 18  1  0
  1 23  1  0
  5 24  1  0
  8 25  1  0
  9 26  1  0
 16 27  1  0
 19 28  1  0
 21 29  1  0
M  ISO  7  23  14  24  14  25  14  26  14  27  14  28  14  29  14
M  END
>  <minimizedAffinity>  (1) 
-4.38421869

>  <minimizedRMSD>  (1) 
0.443674326

$$$$
