
     RDKit          3D

 31 34  0  0  0  0  0  0  0  0999 V2000
   45.3380   33.4280   46.3940 C   0  0  0  0  0  0  0  0  0  0  0  0
   45.8260   33.4650   45.0940 C   0  0  0  0  0  0  0  0  0  0  0  0
   46.9430   32.6960   44.7970 C   0  0  0  0  0  0  0  0  0  0  0  0
   47.5080   31.9380   45.7940 N   0  0  0  0  0  0  0  0  0  0  0  0
   46.9850   31.9410   47.0540 C   0  0  0  0  0  0  0  0  0  0  0  0
   45.9050   32.6870   47.3390 N   0  0  0  0  0  0  0  0  0  0  0  0
   45.2570   34.2510   44.0160 C   0  0  0  0  0  0  0  0  0  0  0  0
   45.4330   35.6220   43.9120 C   0  0  0  0  0  0  0  0  0  0  0  0
   44.9010   36.3990   42.8950 C   0  0  0  0  0  0  0  0  0  0  0  0
   44.1630   35.8110   41.9380 N   0  0  0  0  0  0  0  0  0  0  0  0
   43.9920   34.4550   42.0470 C   0  0  0  0  0  0  0  0  0  0  0  0
   44.5110   33.7170   43.0330 N   0  0  0  0  0  0  0  0  0  0  0  0
   43.1710   33.8510   40.9670 C   0  0  0  0  0  0  0  0  0  0  0  0
   43.6280   33.7830   39.5790 C   0  0  0  0  0  0  0  0  0  0  0  0
   42.7200   34.9040   39.9440 C   0  0  0  0  0  0  0  0  0  0  0  0
   47.5540   32.6370   43.4990 N   0  0  0  0  0  0  0  0  0  0  0  0
   47.4610   31.7900   42.4550 C   0  0  0  0  0  0  0  0  0  0  0  0
   48.2750   32.2140   41.4570 N   0  0  0  0  0  0  0  0  0  0  0  0
   48.8590   33.3210   41.9130 C   0  0  0  0  0  0  0  0  0  0  0  0
   48.4150   33.5820   43.1710 N   0  0  0  0  0  0  0  0  0  0  0  0
   44.4542   34.0314   46.6487 H   0  0  0  0  0  0  0  0  0  0  0  0
   47.4503   31.3291   47.8408 H   0  0  0  0  0  0  0  0  0  0  0  0
   46.0325   36.1249   44.6851 H   0  0  0  0  0  0  0  0  0  0  0  0
   45.0807   37.4840   42.8714 H   0  0  0  0  0  0  0  0  0  0  0  0
   42.7479   33.0769   41.6240 H   0  0  0  0  0  0  0  0  0  0  0  0
   43.2603   32.9779   38.9258 H   0  0  0  0  0  0  0  0  0  0  0  0
   44.6194   33.7294   39.1055 H   0  0  0  0  0  0  0  0  0  0  0  0
   43.1029   35.9337   40.0005 H   0  0  0  0  0  0  0  0  0  0  0  0
   41.7566   35.2910   39.5806 H   0  0  0  0  0  0  0  0  0  0  0  0
   46.8239   30.8941   42.4182 H   0  0  0  0  0  0  0  0  0  0  0  0
   49.5877   33.9297   41.3576 H   0  0  0  0  0  0  0  0  0  0  0  0
  1  6  2  0
  2  1  1  0
  3  2  2  0
  3  4  1  0
  4  5  2  0
  5  6  1  0
  7  2  1  0
  8  7  2  0
  9  8  1  0
 10 11  1  0
 10  9  2  0
 11 12  2  0
 12  7  1  0
 13 11  1  0
 14 15  1  0
 14 13  1  0
 15 13  1  0
 16  3  1  0
 17 16  1  0
 18 19  1  0
 18 17  2  0
 19 20  2  0
 20 16  1  0
  1 21  1  0
  5 22  1  0
  8 23  1  0
  9 24  1  0
 13 25  1  0
 14 26  1  0
 14 27  1  0
 15 28  1  0
 15 29  1  0
 17 30  1  0
 19 31  1  0
M  ISO  8  21  14  22  14  23  14  24  14  25  13  26  13  27  13  28  13
M  ISO  3  29  13  30  14  31  14
M  END
>  <minimizedAffinity>  (1) 
-4.21849918

>  <minimizedRMSD>  (1) 
0.305399597

$$$$
