
     RDKit          3D

 33 35  0  0  0  0  0  0  0  0999 V2000
   45.3280   33.4260   46.3720 C   0  0  0  0  0  0  0  0  0  0  0  0
   45.8270   33.4310   45.0820 C   0  0  0  0  0  0  0  0  0  0  0  0
   46.9670   32.6740   44.7960 C   0  0  0  0  0  0  0  0  0  0  0  0
   47.5350   31.9550   45.8330 N   0  0  0  0  0  0  0  0  0  0  0  0
   47.0030   31.9860   47.0800 C   0  0  0  0  0  0  0  0  0  0  0  0
   45.9170   32.7130   47.3360 N   0  0  0  0  0  0  0  0  0  0  0  0
   45.2500   34.1810   43.9650 C   0  0  0  0  0  0  0  0  0  0  0  0
   45.3220   35.5510   43.8730 C   0  0  0  0  0  0  0  0  0  0  0  0
   44.7940   36.2950   42.8420 C   0  0  0  0  0  0  0  0  0  0  0  0
   44.1520   35.6400   41.8360 N   0  0  0  0  0  0  0  0  0  0  0  0
   44.0800   34.2810   41.9280 C   0  0  0  0  0  0  0  0  0  0  0  0
   44.6110   33.5900   42.9540 N   0  0  0  0  0  0  0  0  0  0  0  0
   43.3770   33.5760   40.8250 C   0  0  0  0  0  0  0  0  0  0  0  0
   42.7790   34.5800   39.8560 C   0  0  0  0  0  0  0  0  0  0  0  0
   42.2450   32.7520   41.3820 C   0  0  0  0  0  0  0  0  0  0  0  0
   47.5890   32.5870   43.5150 N   0  0  0  0  0  0  0  0  0  0  0  0
   47.5600   31.7110   42.5080 C   0  0  0  0  0  0  0  0  0  0  0  0
   48.3570   32.1250   41.5030 N   0  0  0  0  0  0  0  0  0  0  0  0
   48.8810   33.2850   41.9180 C   0  0  0  0  0  0  0  0  0  0  0  0
   48.4110   33.5790   43.1600 N   0  0  0  0  0  0  0  0  0  0  0  0
   44.4318   34.0186   46.6079 H   0  0  0  0  0  0  0  0  0  0  0  0
   47.4728   31.4053   47.8875 H   0  0  0  0  0  0  0  0  0  0  0  0
   45.8381   36.0909   44.6805 H   0  0  0  0  0  0  0  0  0  0  0  0
   44.8885   37.3909   42.8314 H   0  0  0  0  0  0  0  0  0  0  0  0
   44.1079   32.9354   40.3098 H   0  0  0  0  0  0  0  0  0  0  0  0
   42.2958   35.3912   40.4203 H   0  0  0  0  0  0  0  0  0  0  0  0
   43.5756   34.9977   39.2228 H   0  0  0  0  0  0  0  0  0  0  0  0
   42.0323   34.0785   39.2228 H   0  0  0  0  0  0  0  0  0  0  0  0
   42.2795   32.7771   42.4812 H   0  0  0  0  0  0  0  0  0  0  0  0
   41.2860   33.1648   41.0357 H   0  0  0  0  0  0  0  0  0  0  0  0
   42.3431   31.7126   41.0357 H   0  0  0  0  0  0  0  0  0  0  0  0
   46.9694   30.7830   42.4997 H   0  0  0  0  0  0  0  0  0  0  0  0
   49.5840   33.9053   41.3426 H   0  0  0  0  0  0  0  0  0  0  0  0
  1  6  2  0
  2  1  1  0
  3  2  2  0
  3  4  1  0
  4  5  2  0
  5  6  1  0
  7  2  1  0
  8  7  2  0
  9  8  1  0
 10 11  1  0
 10  9  2  0
 11 12  2  0
 12  7  1  0
 13 15  1  0
 13 11  1  0
 14 13  1  0
 16  3  1  0
 17 16  1  0
 18 19  1  0
 18 17  2  0
 19 20  2  0
 20 16  1  0
  1 21  1  0
  5 22  1  0
  8 23  1  0
  9 24  1  0
 13 25  1  0
 14 26  1  0
 14 27  1  0
 14 28  1  0
 15 29  1  0
 15 30  1  0
 15 31  1  0
 17 32  1  0
 19 33  1  0
M  ISO  8  21  14  22  14  23  14  24  14  25   8  26   8  27   8  28   8
M  ISO  5  29   8  30   8  31   8  32  14  33  14
M  END
>  <minimizedAffinity>  (1) 
-4.22508812

>  <minimizedRMSD>  (1) 
0.169627577

$$$$
