
     RDKit          3D

 30 32  0  0  0  0  0  0  0  0999 V2000
   45.3450   33.4170   46.3890 C   0  0  0  0  0  0  0  0  0  0  0  0
   45.8350   33.4290   45.0870 C   0  0  0  0  0  0  0  0  0  0  0  0
   46.9650   32.6780   44.8060 C   0  0  0  0  0  0  0  0  0  0  0  0
   47.5450   31.9630   45.8150 N   0  0  0  0  0  0  0  0  0  0  0  0
   47.0320   31.9800   47.0710 C   0  0  0  0  0  0  0  0  0  0  0  0
   45.9390   32.7060   47.3460 N   0  0  0  0  0  0  0  0  0  0  0  0
   45.2400   34.1840   43.9790 C   0  0  0  0  0  0  0  0  0  0  0  0
   45.4050   35.5480   43.8430 C   0  0  0  0  0  0  0  0  0  0  0  0
   44.8590   36.2920   42.8120 C   0  0  0  0  0  0  0  0  0  0  0  0
   44.1190   35.6460   41.8780 N   0  0  0  0  0  0  0  0  0  0  0  0
   43.9620   34.3070   42.0170 C   0  0  0  0  0  0  0  0  0  0  0  0
   44.5060   33.6130   43.0310 N   0  0  0  0  0  0  0  0  0  0  0  0
   43.1760   33.4800   41.0620 C   0  0  0  0  0  0  0  0  0  0  0  0
   42.6820   34.2460   39.8720 C   0  0  0  0  0  0  0  0  0  0  0  0
   47.5760   32.6000   43.5070 N   0  0  0  0  0  0  0  0  0  0  0  0
   47.4960   31.7410   42.4760 C   0  0  0  0  0  0  0  0  0  0  0  0
   48.2950   32.1440   41.4780 N   0  0  0  0  0  0  0  0  0  0  0  0
   48.8750   33.2770   41.9110 C   0  0  0  0  0  0  0  0  0  0  0  0
   48.4240   33.5460   43.1610 N   0  0  0  0  0  0  0  0  0  0  0  0
   44.4490   34.0066   46.6331 H   0  0  0  0  0  0  0  0  0  0  0  0
   47.5153   31.3952   47.8675 H   0  0  0  0  0  0  0  0  0  0  0  0
   46.0061   36.0744   44.5990 H   0  0  0  0  0  0  0  0  0  0  0  0
   45.0211   37.3783   42.7520 H   0  0  0  0  0  0  0  0  0  0  0  0
   43.8145   32.6580   40.7061 H   0  0  0  0  0  0  0  0  0  0  0  0
   42.2898   33.1165   41.6028 H   0  0  0  0  0  0  0  0  0  0  0  0
   42.1149   35.1253   40.2115 H   0  0  0  0  0  0  0  0  0  0  0  0
   43.5391   34.5742   39.2656 H   0  0  0  0  0  0  0  0  0  0  0  0
   42.0295   33.6006   39.2656 H   0  0  0  0  0  0  0  0  0  0  0  0
   46.8667   30.8390   42.4545 H   0  0  0  0  0  0  0  0  0  0  0  0
   49.5960   33.8850   41.3449 H   0  0  0  0  0  0  0  0  0  0  0  0
  1  6  2  0
  2  1  1  0
  3  2  2  0
  3  4  1  0
  4  5  2  0
  5  6  1  0
  7  2  1  0
  8  7  2  0
  9  8  1  0
 10 11  1  0
 10  9  2  0
 11 12  2  0
 12  7  1  0
 13 11  1  0
 14 13  1  0
 15  3  1  0
 16 15  1  0
 17 18  1  0
 17 16  2  0
 18 19  2  0
 19 15  1  0
  1 20  1  0
  5 21  1  0
  8 22  1  0
  9 23  1  0
 13 24  1  0
 13 25  1  0
 14 26  1  0
 14 27  1  0
 14 28  1  0
 16 29  1  0
 18 30  1  0
M  ISO  8  20  14  21  14  22  14  23  14  24   8  25   8  26   8  27   8
M  ISO  3  28   8  29  14  30  14
M  END
>  <minimizedAffinity>  (1) 
-3.95721173

>  <minimizedRMSD>  (1) 
0.519860566

$$$$
