
     RDKit          3D

 40 43  0  0  0  0  0  0  0  0999 V2000
   45.3960   32.9560   47.1300 C   0  0  0  0  0  0  0  0  0  0  0  0
   45.8470   33.0480   45.8070 C   0  0  0  0  0  0  0  0  0  0  0  0
   46.9100   32.2490   45.4160 C   0  0  0  0  0  0  0  0  0  0  0  0
   47.4810   31.4010   46.3240 N   0  0  0  0  0  0  0  0  0  0  0  0
   47.0070   31.3420   47.6100 C   0  0  0  0  0  0  0  0  0  0  0  0
   45.9820   32.1130   47.9890 N   0  0  0  0  0  0  0  0  0  0  0  0
   45.2680   33.9360   44.8130 C   0  0  0  0  0  0  0  0  0  0  0  0
   45.1770   35.3000   44.9840 C   0  0  0  0  0  0  0  0  0  0  0  0
   44.6350   36.1640   44.0640 C   0  0  0  0  0  0  0  0  0  0  0  0
   44.1500   35.6690   42.9000 N   0  0  0  0  0  0  0  0  0  0  0  0
   44.2400   34.3300   42.7320 C   0  0  0  0  0  0  0  0  0  0  0  0
   44.7760   33.4880   43.6470 N   0  0  0  0  0  0  0  0  0  0  0  0
   43.7200   33.7780   41.4800 C   0  0  0  0  0  0  0  0  0  0  0  0
   43.5580   34.4610   40.2700 C   0  0  0  0  0  0  0  0  0  0  0  0
   43.0460   33.5590   39.3820 C   0  0  0  0  0  0  0  0  0  0  0  0
   42.8930   32.3730   39.9980 N   0  0  0  0  0  0  0  0  0  0  0  0
   43.2960   32.5130   41.2460 N   0  0  0  0  0  0  0  0  0  0  0  0
   47.4600   32.2520   44.1010 N   0  0  0  0  0  0  0  0  0  0  0  0
   47.5710   31.3480   43.1110 C   0  0  0  0  0  0  0  0  0  0  0  0
   48.2000   31.8940   42.0410 N   0  0  0  0  0  0  0  0  0  0  0  0
   48.4720   33.1510   42.3950 C   0  0  0  0  0  0  0  0  0  0  0  0
   48.0240   33.3810   43.6520 N   0  0  0  0  0  0  0  0  0  0  0  0
   49.1610   34.1240   41.5220 C   0  0  0  0  0  0  0  0  0  0  0  0
   49.8310   35.1440   42.4340 C   0  0  0  0  0  0  0  0  0  0  0  0
   48.2360   34.7570   40.5180 C   0  0  0  0  0  0  0  0  0  0  0  0
   44.5548   33.5805   47.4652 H   0  0  0  0  0  0  0  0  0  0  0  0
   47.4726   30.6567   48.3336 H   0  0  0  0  0  0  0  0  0  0  0  0
   45.5648   35.7261   45.9210 H   0  0  0  0  0  0  0  0  0  0  0  0
   44.5953   37.2439   44.2697 H   0  0  0  0  0  0  0  0  0  0  0  0
   43.7961   35.5166   40.0728 H   0  0  0  0  0  0  0  0  0  0  0  0
   42.7983   33.7686   38.3310 H   0  0  0  0  0  0  0  0  0  0  0  0
   42.5267   31.5100   39.5714 H   0  0  0  0  0  0  0  0  0  0  0  0
   47.2035   30.3125   43.1622 H   0  0  0  0  0  0  0  0  0  0  0  0
   49.9171   33.6149   40.9062 H   0  0  0  0  0  0  0  0  0  0  0  0
   49.6514   34.8706   43.4842 H   0  0  0  0  0  0  0  0  0  0  0  0
   50.9134   35.1558   42.2381 H   0  0  0  0  0  0  0  0  0  0  0  0
   49.4120   36.1420   42.2381 H   0  0  0  0  0  0  0  0  0  0  0  0
   47.4396   35.3020   41.0459 H   0  0  0  0  0  0  0  0  0  0  0  0
   48.8034   35.4571   39.8871 H   0  0  0  0  0  0  0  0  0  0  0  0
   47.7889   33.9746   39.8871 H   0  0  0  0  0  0  0  0  0  0  0  0
  1  6  2  0
  2  1  1  0
  3  2  2  0
  3  4  1  0
  4  5  2  0
  5  6  1  0
  7  8  2  0
  7  2  1  0
  9  8  1  0
 10  9  2  0
 11 10  1  0
 11 12  2  0
 12  7  1  0
 13 11  1  0
 14 13  1  0
 15 16  1  0
 15 14  2  0
 16 17  1  0
 17 13  2  0
 18  3  1  0
 19 18  1  0
 20 21  1  0
 20 19  2  0
 21 22  2  0
 22 18  1  0
 23 21  1  0
 23 24  1  0
 25 23  1  0
  1 26  1  0
  5 27  1  0
  8 28  1  0
  9 29  1  0
 14 30  1  0
 15 31  1  0
 16 32  1  0
 19 33  1  0
 23 34  1  0
 24 35  1  0
 24 36  1  0
 24 37  1  0
 25 38  1  0
 25 39  1  0
 25 40  1  0
M  ISO  8  26  14  27  14  28  14  29  14  30  14  31  14  32   9  33  14
M  ISO  7  34   8  35   8  36   8  37   8  38   8  39   8  40   8
M  END
>  <minimizedAffinity>  (1) 
-5.47974825

>  <minimizedRMSD>  (1) 
1.07623386

$$$$
