
     RDKit          3D

 38 41  0  0  1  0  0  0  0  0999 V2000
   45.9150   33.5590   45.8110 C   0  0  2  0  0  0  0  0  0  0  0  0
   44.8690   34.6120   46.0910 C   0  0  0  0  0  0  0  0  0  0  0  0
   44.5200   35.5210   45.0230 C   0  0  0  0  0  0  0  0  0  0  0  0
   45.1710   35.4010   43.7250 C   0  0  0  0  0  0  0  0  0  0  0  0
   46.3120   34.4760   43.6420 C   0  0  1  0  0  0  0  0  0  0  0  0
   45.9660   33.1960   44.3630 C   0  0  0  0  0  0  0  0  0  0  0  0
   46.6840   34.1330   42.3060 N   0  0  0  0  0  0  0  0  0  0  0  0
   45.8280   34.2330   41.2650 C   0  0  0  0  0  0  0  0  0  0  0  0
   46.4410   33.8480   40.1320 N   0  0  0  0  0  0  0  0  0  0  0  0
   47.6930   33.5070   40.4820 C   0  0  0  0  0  0  0  0  0  0  0  0
   48.7750   33.0370   39.7470 C   0  0  0  0  0  0  0  0  0  0  0  0
   48.6070   32.8840   38.5040 O   0  0  0  0  0  0  0  0  0  0  0  0
   49.9270   32.7740   40.3760 N   0  0  0  0  0  0  0  0  0  0  0  0
   50.0760   32.9510   41.7170 C   0  0  0  0  0  0  0  0  0  0  0  0
   51.3740   32.6180   42.2040 N   0  0  0  0  0  0  0  0  0  0  0  0
   49.0390   33.4090   42.4740 N   0  0  0  0  0  0  0  0  0  0  0  0
   47.8730   33.6760   41.8430 C   0  0  0  0  0  0  0  0  0  0  0  0
   45.3690   32.6780   48.0590 C   0  0  0  0  0  0  0  0  0  0  0  0
   45.7400   32.4340   46.7370 C   0  0  0  0  0  0  0  0  0  0  0  0
   45.9450   31.0830   46.3470 C   0  0  0  0  0  0  0  0  0  0  0  0
   45.7760   30.0980   47.2640 N   0  0  0  0  0  0  0  0  0  0  0  0
   45.4140   30.3820   48.5400 C   0  0  0  0  0  0  0  0  0  0  0  0
   45.2140   31.6620   48.9310 N   0  0  0  0  0  0  0  0  0  0  0  0
   46.9191   33.9624   46.0086 H   0  0  0  0  0  0  0  0  0  0  0  0
   44.3877   34.6848   47.0774 H   0  0  0  0  0  0  0  0  0  0  0  0
   43.7639   36.3024   45.1898 H   0  0  0  0  0  0  0  0  0  0  0  0
   44.4140   35.0625   43.0023 H   0  0  0  0  0  0  0  0  0  0  0  0
   45.5900   36.3968   43.5182 H   0  0  0  0  0  0  0  0  0  0  0  0
   47.1629   35.0012   44.1004 H   0  0  0  0  0  0  0  0  0  0  0  0
   44.9899   32.8163   44.0266 H   0  0  0  0  0  0  0  0  0  0  0  0
   46.7021   32.4028   44.1653 H   0  0  0  0  0  0  0  0  0  0  0  0
   44.7857   34.5778   41.3343 H   0  0  0  0  0  0  0  0  0  0  0  0
   50.7264   32.4265   39.8273 H   0  0  0  0  0  0  0  0  0  0  0  0
   51.5891   32.7172   43.2064 H   0  0  0  0  0  0  0  0  0  0  0  0
   52.0966   32.2782   41.5534 H   0  0  0  0  0  0  0  0  0  0  0  0
   45.2008   33.7121   48.3941 H   0  0  0  0  0  0  0  0  0  0  0  0
   46.2369   30.8392   45.3148 H   0  0  0  0  0  0  0  0  0  0  0  0
   45.2818   29.5642   49.2637 H   0  0  0  0  0  0  0  0  0  0  0  0
  1  2  1  0
  1 19  1  0
  3  2  2  0
  4  3  1  0
  5  4  1  0
  5  6  1  0
  6  1  1  0
  7  5  1  0
  8  7  1  0
  9 10  1  0
  9  8  2  0
 10 17  2  0
 11 13  1  0
 11 10  1  0
 12 11  2  0
 13 14  1  0
 14 15  1  0
 14 16  2  0
 17  7  1  0
 17 16  1  0
 18 23  2  0
 19 18  1  0
 20 19  2  0
 20 21  1  0
 21 22  2  0
 22 23  1  0
  1 24  1  1
  2 25  1  0
  3 26  1  0
  4 27  1  0
  4 28  1  0
  5 29  1  1
  6 30  1  0
  6 31  1  0
  8 32  1  0
 13 33  1  0
 15 34  1  0
 15 35  1  0
 18 36  1  0
 20 37  1  0
 22 38  1  0
M  ISO  8  24  13  25  13  26  13  27  13  28  13  29  13  30  13  31  13
M  ISO  5  32  14  33   9  36  14  37  14  38  14
M  END
>  <minimizedAffinity>  (1) 
-6.50553894

>  <minimizedRMSD>  (1) 
1.43526983

$$$$
