
     RDKit          3D

 37 40  0  0  0  0  0  0  0  0999 V2000
   45.0020   33.6050   46.7460 C   0  0  0  0  0  0  0  0  0  0  0  0
   45.6070   33.6000   45.4900 C   0  0  0  0  0  0  0  0  0  0  0  0
   46.7370   32.8240   45.3210 C   0  0  0  0  0  0  0  0  0  0  0  0
   47.2240   32.0920   46.3770 N   0  0  0  0  0  0  0  0  0  0  0  0
   46.5910   32.1350   47.5840 C   0  0  0  0  0  0  0  0  0  0  0  0
   45.4960   32.8850   47.7560 N   0  0  0  0  0  0  0  0  0  0  0  0
   45.1300   34.3600   44.3350 C   0  0  0  0  0  0  0  0  0  0  0  0
   45.2630   35.7110   44.2350 C   0  0  0  0  0  0  0  0  0  0  0  0
   44.8250   36.4620   43.1610 C   0  0  0  0  0  0  0  0  0  0  0  0
   44.2220   35.8210   42.1310 N   0  0  0  0  0  0  0  0  0  0  0  0
   44.0910   34.4720   42.2330 C   0  0  0  0  0  0  0  0  0  0  0  0
   44.5280   33.7580   43.2960 N   0  0  0  0  0  0  0  0  0  0  0  0
   43.4430   33.7870   41.1260 C   0  0  0  0  0  0  0  0  0  0  0  0
   43.2580   34.2600   39.8340 C   0  0  0  0  0  0  0  0  0  0  0  0
   42.6030   33.2720   39.1460 C   0  0  0  0  0  0  0  0  0  0  0  0
   42.3880   32.2350   39.9590 N   0  0  0  0  0  0  0  0  0  0  0  0
   42.8960   32.5550   41.1430 N   0  0  0  0  0  0  0  0  0  0  0  0
   47.4630   32.7220   44.0880 N   0  0  0  0  0  0  0  0  0  0  0  0
   47.6410   31.7670   43.1650 C   0  0  0  0  0  0  0  0  0  0  0  0
   48.4430   32.2070   42.1720 N   0  0  0  0  0  0  0  0  0  0  0  0
   48.7570   33.4590   42.5040 C   0  0  0  0  0  0  0  0  0  0  0  0
   48.1600   33.7810   43.6760 N   0  0  0  0  0  0  0  0  0  0  0  0
   49.6250   34.3940   41.7340 C   0  0  0  0  0  0  0  0  0  0  0  0
   48.8910   35.7040   41.5240 C   0  0  0  0  0  0  0  0  0  0  0  0
   44.1003   34.2139   46.9080 H   0  0  0  0  0  0  0  0  0  0  0  0
   46.9848   31.5466   48.4258 H   0  0  0  0  0  0  0  0  0  0  0  0
   45.7524   36.2409   45.0655 H   0  0  0  0  0  0  0  0  0  0  0  0
   44.9625   37.5532   43.1428 H   0  0  0  0  0  0  0  0  0  0  0  0
   43.5751   35.2367   39.4396 H   0  0  0  0  0  0  0  0  0  0  0  0
   42.3016   33.3251   38.0894 H   0  0  0  0  0  0  0  0  0  0  0  0
   41.9166   31.3527   39.7137 H   0  0  0  0  0  0  0  0  0  0  0  0
   47.1950   30.7625   43.2102 H   0  0  0  0  0  0  0  0  0  0  0  0
   50.5532   34.5790   42.2945 H   0  0  0  0  0  0  0  0  0  0  0  0
   49.8698   33.9492   40.7582 H   0  0  0  0  0  0  0  0  0  0  0  0
   48.6433   36.1461   42.5003 H   0  0  0  0  0  0  0  0  0  0  0  0
   49.5321   36.3972   40.9597 H   0  0  0  0  0  0  0  0  0  0  0  0
   47.9651   35.5191   40.9597 H   0  0  0  0  0  0  0  0  0  0  0  0
  1  6  2  0
  2  1  1  0
  3  2  2  0
  3  4  1  0
  4  5  2  0
  5  6  1  0
  7  2  1  0
  8  7  2  0
  9  8  1  0
 10 11  1  0
 10  9  2  0
 11 12  2  0
 12  7  1  0
 13 17  2  0
 13 11  1  0
 14 13  1  0
 15 14  2  0
 15 16  1  0
 16 17  1  0
 18  3  1  0
 19 18  1  0
 20 21  1  0
 20 19  2  0
 21 22  2  0
 22 18  1  0
 23 21  1  0
 24 23  1  0
  1 25  1  0
  5 26  1  0
  8 27  1  0
  9 28  1  0
 14 29  1  0
 15 30  1  0
 16 31  1  0
 19 32  1  0
 23 33  1  0
 23 34  1  0
 24 35  1  0
 24 36  1  0
 24 37  1  0
M  ISO  8  25  14  26  14  27  14  28  14  29  14  30  14  31   9  32  14
M  ISO  5  33   8  34   8  35   8  36   8  37   8
M  END
>  <minimizedAffinity>  (1) 
-4.93550158

>  <minimizedRMSD>  (1) 
0.696601391

$$$$
