
     RDKit          3D

 36 39  0  0  1  0  0  0  0  0999 V2000
   47.5780   33.8410   42.9310 C   0  0  2  0  0  0  0  0  0  0  0  0
   46.7530   35.0970   42.5430 C   0  0  0  0  0  0  0  0  0  0  0  0
   47.1990   34.0480   41.5080 C   0  0  1  0  0  0  0  0  0  0  0  0
   46.0840   31.8290   45.5460 N   0  0  0  0  0  0  0  0  0  0  0  0
   45.7160   31.1260   44.4550 C   0  0  0  0  0  0  0  0  0  0  0  0
   46.1780   31.7080   43.3340 N   0  0  0  0  0  0  0  0  0  0  0  0
   46.8630   32.8200   43.7470 C   0  0  0  0  0  0  0  0  0  0  0  0
   46.7780   32.8480   45.0720 N   0  0  0  0  0  0  0  0  0  0  0  0
   45.3420   30.3620   47.3090 C   0  0  0  0  0  0  0  0  0  0  0  0
   45.8490   31.6350   46.9230 C   0  0  0  0  0  0  0  0  0  0  0  0
   46.0580   32.5480   47.9170 C   0  0  0  0  0  0  0  0  0  0  0  0
   45.7750   32.1910   49.1870 N   0  0  0  0  0  0  0  0  0  0  0  0
   45.2980   30.9830   49.5260 C   0  0  0  0  0  0  0  0  0  0  0  0
   45.0840   30.0720   48.5740 N   0  0  0  0  0  0  0  0  0  0  0  0
   48.2500   34.3330   40.5560 C   0  0  0  0  0  0  0  0  0  0  0  0
   48.6290   35.5610   40.4630 O   0  0  0  0  0  0  0  0  0  0  0  0
   48.8270   33.3470   39.7790 O   0  0  0  0  0  0  0  0  0  0  0  0
   48.4050   33.1240   38.4740 C   0  0  0  0  0  0  0  0  0  0  0  0
   47.0560   33.2930   38.2180 C   0  0  0  0  0  0  0  0  0  0  0  0
   46.5520   33.0930   36.9520 C   0  0  0  0  0  0  0  0  0  0  0  0
   47.4380   32.7230   35.9630 C   0  0  0  0  0  0  0  0  0  0  0  0
   48.8040   32.5370   36.1540 C   0  0  0  0  0  0  0  0  0  0  0  0
   49.2770   32.7500   37.4540 C   0  0  0  0  0  0  0  0  0  0  0  0
   48.5376   33.6416   43.4305 H   0  0  0  0  0  0  0  0  0  0  0  0
   45.6948   35.1792   42.8320 H   0  0  0  0  0  0  0  0  0  0  0  0
   46.8611   36.1848   42.6656 H   0  0  0  0  0  0  0  0  0  0  0  0
   46.6565   33.4684   40.7466 H   0  0  0  0  0  0  0  0  0  0  0  0
   45.1192   30.2023   44.4790 H   0  0  0  0  0  0  0  0  0  0  0  0
   45.1602   29.6004   46.5364 H   0  0  0  0  0  0  0  0  0  0  0  0
   46.4478   33.5507   47.6876 H   0  0  0  0  0  0  0  0  0  0  0  0
   45.0853   30.7458   50.5789 H   0  0  0  0  0  0  0  0  0  0  0  0
   46.3797   33.5899   39.0331 H   0  0  0  0  0  0  0  0  0  0  0  0
   45.4810   33.2238   36.7378 H   0  0  0  0  0  0  0  0  0  0  0  0
   47.0370   32.5634   34.9512 H   0  0  0  0  0  0  0  0  0  0  0  0
   49.4722   32.2402   35.3321 H   0  0  0  0  0  0  0  0  0  0  0  0
   50.3474   32.6209   37.6723 H   0  0  0  0  0  0  0  0  0  0  0  0
  1  7  1  0
  2  1  1  0
  3  2  1  0
  3  1  1  0
  4 10  1  0
  5  4  1  0
  6  7  1  0
  6  5  2  0
  7  8  2  0
  8  4  1  0
  9 14  2  0
 10  9  1  0
 10 11  2  0
 11 12  1  0
 12 13  2  0
 14 13  1  0
 15  3  1  0
 16 15  2  0
 17 15  1  0
 18 17  1  0
 19 18  2  0
 20 19  1  0
 21 22  1  0
 21 20  2  0
 22 23  2  0
 23 18  1  0
  1 24  1  6
  2 25  1  0
  2 26  1  0
  3 27  1  6
  5 28  1  0
  9 29  1  0
 11 30  1  0
 13 31  1  0
 19 32  1  0
 20 33  1  0
 21 34  1  0
 22 35  1  0
 23 36  1  0
M  ISO  8  24  13  25  13  26  13  27  13  28  14  29  14  30  14  31  14
M  ISO  5  32  14  33  14  34  14  35  14  36  14
M  END
>  <minimizedAffinity>  (1) 
-4.95989227

>  <minimizedRMSD>  (1) 
5.2652483

$$$$
