
     RDKit          3D

 33 36  0  0  0  0  0  0  0  0999 V2000
   45.7000   33.4080   46.0810 C   0  0  0  0  0  0  0  0  0  0  0  0
   45.8650   33.3050   44.6970 C   0  0  0  0  0  0  0  0  0  0  0  0
   46.7010   32.3230   44.2040 C   0  0  0  0  0  0  0  0  0  0  0  0
   47.3400   31.4830   45.0860 N   0  0  0  0  0  0  0  0  0  0  0  0
   47.1490   31.6200   46.4310 C   0  0  0  0  0  0  0  0  0  0  0  0
   46.3450   32.5630   46.9060 N   0  0  0  0  0  0  0  0  0  0  0  0
   45.2080   34.1720   43.7330 C   0  0  0  0  0  0  0  0  0  0  0  0
   45.5030   35.5100   43.6100 C   0  0  0  0  0  0  0  0  0  0  0  0
   44.9020   36.3620   42.7100 C   0  0  0  0  0  0  0  0  0  0  0  0
   43.9510   35.8660   41.8780 N   0  0  0  0  0  0  0  0  0  0  0  0
   43.6660   34.5570   42.0020 C   0  0  0  0  0  0  0  0  0  0  0  0
   44.2610   33.7220   42.8920 N   0  0  0  0  0  0  0  0  0  0  0  0
   42.6460   34.0080   41.1150 C   0  0  0  0  0  0  0  0  0  0  0  0
   42.2680   34.5270   39.8700 C   0  0  0  0  0  0  0  0  0  0  0  0
   41.2770   33.6880   39.3960 C   0  0  0  0  0  0  0  0  0  0  0  0
   41.0590   32.7200   40.2860 N   0  0  0  0  0  0  0  0  0  0  0  0
   41.8790   32.9150   41.3100 N   0  0  0  0  0  0  0  0  0  0  0  0
   46.9570   32.1120   42.8170 N   0  0  0  0  0  0  0  0  0  0  0  0
   46.6240   31.1730   41.9210 C   0  0  0  0  0  0  0  0  0  0  0  0
   47.1470   31.4730   40.7110 N   0  0  0  0  0  0  0  0  0  0  0  0
   47.8140   32.6210   40.8810 C   0  0  0  0  0  0  0  0  0  0  0  0
   47.6960   33.0090   42.1660 N   0  0  0  0  0  0  0  0  0  0  0  0
   48.5300   33.2920   39.8070 C   0  0  0  0  0  0  0  0  0  0  0  0
   48.1860   34.4600   39.4900 O   0  0  0  0  0  0  0  0  0  0  0  0
   45.0400   34.1831   46.4977 H   0  0  0  0  0  0  0  0  0  0  0  0
   47.6660   30.9429   47.1269 H   0  0  0  0  0  0  0  0  0  0  0  0
   46.2718   35.9283   44.2763 H   0  0  0  0  0  0  0  0  0  0  0  0
   45.1871   37.4235   42.6663 H   0  0  0  0  0  0  0  0  0  0  0  0
   42.6760   35.4189   39.3719 H   0  0  0  0  0  0  0  0  0  0  0  0
   40.7515   33.8013   38.4363 H   0  0  0  0  0  0  0  0  0  0  0  0
   40.3747   31.9556   40.1946 H   0  0  0  0  0  0  0  0  0  0  0  0
   46.0125   30.2850   42.1388 H   0  0  0  0  0  0  0  0  0  0  0  0
   49.3555   32.7884   39.2826 H   0  0  0  0  0  0  0  0  0  0  0  0
  1  6  2  0
  2  1  1  0
  3  2  2  0
  3  4  1  0
  4  5  2  0
  5  6  1  0
  7  2  1  0
  8  7  2  0
  9  8  1  0
 10 11  1  0
 10  9  2  0
 11 12  2  0
 12  7  1  0
 13 17  2  0
 13 11  1  0
 14 13  1  0
 15 14  2  0
 15 16  1  0
 16 17  1  0
 18  3  1  0
 19 18  1  0
 20 21  1  0
 20 19  2  0
 21 22  2  0
 22 18  1  0
 23 21  1  0
 24 23  2  0
  1 25  1  0
  5 26  1  0
  8 27  1  0
  9 28  1  0
 14 29  1  0
 15 30  1  0
 16 31  1  0
 19 32  1  0
 23 33  1  0
M  ISO  8  25  14  26  14  27  14  28  14  29  14  30  14  31   9  32  14
M  ISO  1  33   6
M  END
>  <minimizedAffinity>  (1) 
-4.61363745

>  <minimizedRMSD>  (1) 
0.922587752

$$$$
