
     RDKit          3D

 34 37  0  0  0  0  0  0  0  0999 V2000
   45.0320   33.7000   46.8450 C   0  0  0  0  0  0  0  0  0  0  0  0
   45.5760   33.5700   45.5670 C   0  0  0  0  0  0  0  0  0  0  0  0
   46.6050   32.6660   45.3790 C   0  0  0  0  0  0  0  0  0  0  0  0
   47.0540   31.9340   46.4480 N   0  0  0  0  0  0  0  0  0  0  0  0
   46.4880   32.0950   47.6860 C   0  0  0  0  0  0  0  0  0  0  0  0
   45.4960   32.9680   47.8640 N   0  0  0  0  0  0  0  0  0  0  0  0
   45.1290   34.3300   44.3980 C   0  0  0  0  0  0  0  0  0  0  0  0
   45.3230   35.6690   44.2660 C   0  0  0  0  0  0  0  0  0  0  0  0
   44.9130   36.4160   43.1760 C   0  0  0  0  0  0  0  0  0  0  0  0
   44.2780   35.7890   42.1660 N   0  0  0  0  0  0  0  0  0  0  0  0
   44.0860   34.4480   42.3000 C   0  0  0  0  0  0  0  0  0  0  0  0
   44.4930   33.7400   43.3730 N   0  0  0  0  0  0  0  0  0  0  0  0
   43.3940   33.7590   41.2040 C   0  0  0  0  0  0  0  0  0  0  0  0
   43.2680   34.2100   39.8950 C   0  0  0  0  0  0  0  0  0  0  0  0
   42.5500   33.2510   39.2210 C   0  0  0  0  0  0  0  0  0  0  0  0
   42.2480   32.2610   40.0690 N   0  0  0  0  0  0  0  0  0  0  0  0
   42.7580   32.5780   41.2470 N   0  0  0  0  0  0  0  0  0  0  0  0
   47.2580   32.4290   44.1170 N   0  0  0  0  0  0  0  0  0  0  0  0
   47.2590   31.4520   43.2180 C   0  0  0  0  0  0  0  0  0  0  0  0
   48.0750   31.7550   42.1880 N   0  0  0  0  0  0  0  0  0  0  0  0
   48.5770   32.9500   42.4830 C   0  0  0  0  0  0  0  0  0  0  0  0
   48.0790   33.3800   43.6770 N   0  0  0  0  0  0  0  0  0  0  0  0
   49.5510   33.7390   41.6480 C   0  0  0  0  0  0  0  0  0  0  0  0
   50.6450   34.1070   42.4250 F   0  0  0  0  0  0  0  0  0  0  0  0
   50.0880   32.9030   40.6590 F   0  0  0  0  0  0  0  0  0  0  0  0
   48.9560   34.7810   41.0070 F   0  0  0  0  0  0  0  0  0  0  0  0
   44.2119   34.4127   47.0168 H   0  0  0  0  0  0  0  0  0  0  0  0
   46.8539   31.5012   48.5366 H   0  0  0  0  0  0  0  0  0  0  0  0
   45.8414   36.1945   45.0815 H   0  0  0  0  0  0  0  0  0  0  0  0
   45.1013   37.4990   43.1346 H   0  0  0  0  0  0  0  0  0  0  0  0
   43.6645   35.1487   39.4806 H   0  0  0  0  0  0  0  0  0  0  0  0
   42.2695   33.2909   38.1581 H   0  0  0  0  0  0  0  0  0  0  0  0
   41.7157   31.4081   39.8451 H   0  0  0  0  0  0  0  0  0  0  0  0
   46.6749   30.5237   43.3018 H   0  0  0  0  0  0  0  0  0  0  0  0
  1  6  2  0
  2  1  1  0
  3  2  2  0
  3  4  1  0
  4  5  2  0
  5  6  1  0
  7  2  1  0
  8  7  2  0
  9  8  1  0
 10 11  1  0
 10  9  2  0
 11 12  2  0
 12  7  1  0
 13 17  2  0
 13 11  1  0
 14 13  1  0
 15 14  2  0
 15 16  1  0
 16 17  1  0
 18  3  1  0
 19 18  1  0
 20 21  1  0
 20 19  2  0
 21 22  2  0
 22 18  1  0
 23 24  1  0
 23 21  1  0
 25 23  1  0
 26 23  1  0
  1 27  1  0
  5 28  1  0
  8 29  1  0
  9 30  1  0
 14 31  1  0
 15 32  1  0
 16 33  1  0
 19 34  1  0
M  ISO  8  27  14  28  14  29  14  30  14  31  14  32  14  33   9  34  14
M  END
>  <minimizedAffinity>  (1) 
-5.03864431

>  <minimizedRMSD>  (1) 
0.872886419

$$$$
