
     RDKit          3D

 34 36  0  0  1  0  0  0  0  0999 V2000
   45.9950   33.9870   45.2910 C   0  0  2  0  0  0  0  0  0  0  0  0
   44.8270   34.9280   45.4740 C   0  0  0  0  0  0  0  0  0  0  0  0
   44.5260   35.8360   44.3900 C   0  0  0  0  0  0  0  0  0  0  0  0
   45.3310   35.8350   43.1650 C   0  0  0  0  0  0  0  0  0  0  0  0
   46.5100   34.9340   43.1400 C   0  0  1  0  0  0  0  0  0  0  0  0
   46.1930   33.6500   43.8510 C   0  0  0  0  0  0  0  0  0  0  0  0
   45.2650   32.9870   47.4330 C   0  0  0  0  0  0  0  0  0  0  0  0
   45.8060   32.7970   46.1580 C   0  0  0  0  0  0  0  0  0  0  0  0
   46.1570   31.4820   45.7570 C   0  0  0  0  0  0  0  0  0  0  0  0
   45.9480   30.4740   46.6330 N   0  0  0  0  0  0  0  0  0  0  0  0
   45.4220   30.6870   47.8640 C   0  0  0  0  0  0  0  0  0  0  0  0
   45.0820   31.9370   48.2600 N   0  0  0  0  0  0  0  0  0  0  0  0
   46.8050   34.5420   41.7330 C   0  0  0  0  0  0  0  0  0  0  0  0
   45.9540   33.7800   40.9580 C   0  0  0  0  0  0  0  0  0  0  0  0
   46.2200   33.4150   39.6580 C   0  0  0  0  0  0  0  0  0  0  0  0
   47.4200   33.8320   39.0720 C   0  0  0  0  0  0  0  0  0  0  0  0
   48.3200   34.6050   39.8040 C   0  0  0  0  0  0  0  0  0  0  0  0
   47.9960   34.9420   41.1130 C   0  0  0  0  0  0  0  0  0  0  0  0
   46.9271   34.4785   45.6066 H   0  0  0  0  0  0  0  0  0  0  0  0
   44.2285   34.9224   46.3969 H   0  0  0  0  0  0  0  0  0  0  0  0
   43.6828   36.5360   44.4856 H   0  0  0  0  0  0  0  0  0  0  0  0
   44.6719   35.5438   42.3339 H   0  0  0  0  0  0  0  0  0  0  0  0
   45.7441   36.8518   43.0911 H   0  0  0  0  0  0  0  0  0  0  0  0
   47.3496   35.4654   43.6119 H   0  0  0  0  0  0  0  0  0  0  0  0
   45.2758   33.2055   43.4373 H   0  0  0  0  0  0  0  0  0  0  0  0
   47.0070   32.9207   43.7265 H   0  0  0  0  0  0  0  0  0  0  0  0
   44.9869   33.9985   47.7638 H   0  0  0  0  0  0  0  0  0  0  0  0
   46.5864   31.2886   44.7629 H   0  0  0  0  0  0  0  0  0  0  0  0
   45.2700   29.8381   48.5468 H   0  0  0  0  0  0  0  0  0  0  0  0
   45.0070   33.4446   41.4061 H   0  0  0  0  0  0  0  0  0  0  0  0
   45.5016   32.8060   39.0896 H   0  0  0  0  0  0  0  0  0  0  0  0
   47.6531   33.5502   38.0346 H   0  0  0  0  0  0  0  0  0  0  0  0
   49.2664   34.9411   39.3552 H   0  0  0  0  0  0  0  0  0  0  0  0
   48.7080   35.5513   41.6891 H   0  0  0  0  0  0  0  0  0  0  0  0
  1  2  1  0
  1  8  1  0
  3  2  2  0
  4  3  1  0
  5  4  1  0
  5  6  1  0
  6  1  1  0
  7 12  2  0
  8  7  1  0
  9  8  2  0
  9 10  1  0
 10 11  2  0
 11 12  1  0
 13  5  1  0
 14 13  2  0
 15 14  1  0
 16 15  2  0
 16 17  1  0
 17 18  2  0
 18 13  1  0
  1 19  1  1
  2 20  1  0
  3 21  1  0
  4 22  1  0
  4 23  1  0
  5 24  1  1
  6 25  1  0
  6 26  1  0
  7 27  1  0
  9 28  1  0
 11 29  1  0
 14 30  1  0
 15 31  1  0
 16 32  1  0
 17 33  1  0
 18 34  1  0
M  ISO  8  19  13  20  13  21  13  22  13  23  13  24  13  25  13  26  13
M  ISO  8  27  14  28  14  29  14  30  14  31  14  32  14  33  14  34  14
M  END
>  <minimizedAffinity>  (1) 
-5.85184383

>  <minimizedRMSD>  (1) 
0.260680825

$$$$
