
     RDKit          3D

 34 36  0  0  1  0  0  0  0  0999 V2000
   46.1130   33.8970   45.0700 C   0  0  2  0  0  0  0  0  0  0  0  0
   44.9930   34.8930   45.2570 C   0  0  0  0  0  0  0  0  0  0  0  0
   44.7130   35.7960   44.1610 C   0  0  0  0  0  0  0  0  0  0  0  0
   45.5000   35.7240   42.9320 C   0  0  0  0  0  0  0  0  0  0  0  0
   46.6510   34.8040   42.9220 C   0  0  1  0  0  0  0  0  0  0  0  0
   46.2740   33.5220   43.6270 C   0  0  0  0  0  0  0  0  0  0  0  0
   45.4050   33.0070   47.2550 C   0  0  0  0  0  0  0  0  0  0  0  0
   45.9390   32.7670   45.9880 C   0  0  0  0  0  0  0  0  0  0  0  0
   46.3000   31.4520   45.6640 C   0  0  0  0  0  0  0  0  0  0  0  0
   46.1100   30.4790   46.6030 N   0  0  0  0  0  0  0  0  0  0  0  0
   45.5970   30.7350   47.8090 C   0  0  0  0  0  0  0  0  0  0  0  0
   45.2420   31.9990   48.1410 N   0  0  0  0  0  0  0  0  0  0  0  0
   47.1060   34.5860   41.5720 N   0  0  0  0  0  0  0  0  0  0  0  0
   46.3910   33.8180   40.7360 C   0  0  0  0  0  0  0  0  0  0  0  0
   46.8780   33.6440   39.4480 C   0  0  0  0  0  0  0  0  0  0  0  0
   48.0580   34.2560   39.0820 C   0  0  0  0  0  0  0  0  0  0  0  0
   48.4760   34.0810   37.9050 O   0  0  0  0  0  0  0  0  0  0  0  0
   48.7370   35.0240   39.9770 N   0  0  0  0  0  0  0  0  0  0  0  0
   48.2700   35.2010   41.2380 C   0  0  0  0  0  0  0  0  0  0  0  0
   48.9010   35.9180   42.0780 O   0  0  0  0  0  0  0  0  0  0  0  0
   47.0741   34.3583   45.3411 H   0  0  0  0  0  0  0  0  0  0  0  0
   44.4123   34.9307   46.1905 H   0  0  0  0  0  0  0  0  0  0  0  0
   43.9061   36.5379   44.2535 H   0  0  0  0  0  0  0  0  0  0  0  0
   44.8222   35.4147   42.1227 H   0  0  0  0  0  0  0  0  0  0  0  0
   45.9376   36.7266   42.8165 H   0  0  0  0  0  0  0  0  0  0  0  0
   47.4957   35.2476   43.4694 H   0  0  0  0  0  0  0  0  0  0  0  0
   45.3307   33.1240   43.2247 H   0  0  0  0  0  0  0  0  0  0  0  0
   47.0342   32.7390   43.4889 H   0  0  0  0  0  0  0  0  0  0  0  0
   45.1130   34.0296   47.5363 H   0  0  0  0  0  0  0  0  0  0  0  0
   46.7253   31.2101   44.6788 H   0  0  0  0  0  0  0  0  0  0  0  0
   45.4626   29.9183   48.5335 H   0  0  0  0  0  0  0  0  0  0  0  0
   45.4529   33.3434   41.0596 H   0  0  0  0  0  0  0  0  0  0  0  0
   46.3275   33.0234   38.7257 H   0  0  0  0  0  0  0  0  0  0  0  0
   49.6174   35.4769   39.6930 H   0  0  0  0  0  0  0  0  0  0  0  0
  1  2  1  0
  1  8  1  0
  3  2  2  0
  4  3  1  0
  5  4  1  0
  5  6  1  0
  6  1  1  0
  7 12  2  0
  8  7  1  0
  9  8  2  0
  9 10  1  0
 10 11  2  0
 11 12  1  0
 13  5  1  0
 14 13  1  0
 15 14  2  0
 16 15  1  0
 16 18  1  0
 17 16  2  0
 18 19  1  0
 19 13  1  0
 19 20  2  0
  1 21  1  1
  2 22  1  0
  3 23  1  0
  4 24  1  0
  4 25  1  0
  5 26  1  1
  6 27  1  0
  6 28  1  0
  7 29  1  0
  9 30  1  0
 11 31  1  0
 14 32  1  0
 15 33  1  0
 18 34  1  0
M  ISO  8  21  13  22  13  23  13  24  13  25  13  26  13  27  13  28  13
M  ISO  6  29  14  30  14  31  14  32  14  33  14  34   9
M  END
>  <minimizedAffinity>  (1) 
-6.13105536

>  <minimizedRMSD>  (1) 
0.287261695

$$$$
