
     RDKit          3D

 37 39  0  0  1  0  0  0  0  0999 V2000
   45.9720   33.9280   45.1140 C   0  0  2  0  0  0  0  0  0  0  0  0
   44.9370   34.9780   45.4230 C   0  0  0  0  0  0  0  0  0  0  0  0
   44.5470   35.8830   44.3410 C   0  0  0  0  0  0  0  0  0  0  0  0
   45.1490   35.7440   43.0180 C   0  0  0  0  0  0  0  0  0  0  0  0
   46.3360   34.8870   42.9560 C   0  0  1  0  0  0  0  0  0  0  0  0
   45.9950   33.5830   43.6610 C   0  0  0  0  0  0  0  0  0  0  0  0
   46.9550   34.7050   41.7000 N   0  0  0  0  0  0  0  0  0  0  0  0
   46.3020   33.9420   40.7900 C   0  0  0  0  0  0  0  0  0  0  0  0
   46.8220   33.7060   39.5380 C   0  0  0  0  0  0  0  0  0  0  0  0
   46.1750   32.8840   38.4820 C   0  0  0  0  0  0  0  0  0  0  0  0
   48.0560   34.2640   39.1890 C   0  0  0  0  0  0  0  0  0  0  0  0
   48.5640   34.0620   38.0350 O   0  0  0  0  0  0  0  0  0  0  0  0
   48.7060   35.0200   40.0870 N   0  0  0  0  0  0  0  0  0  0  0  0
   48.1260   35.2000   41.2870 C   0  0  0  0  0  0  0  0  0  0  0  0
   48.7660   35.9120   42.0960 O   0  0  0  0  0  0  0  0  0  0  0  0
   45.3320   32.9930   47.3180 C   0  0  0  0  0  0  0  0  0  0  0  0
   45.8290   32.7900   46.0310 C   0  0  0  0  0  0  0  0  0  0  0  0
   46.1950   31.4680   45.6560 C   0  0  0  0  0  0  0  0  0  0  0  0
   46.0380   30.4810   46.5750 N   0  0  0  0  0  0  0  0  0  0  0  0
   45.5500   30.7150   47.8200 C   0  0  0  0  0  0  0  0  0  0  0  0
   45.2010   31.9740   48.1790 N   0  0  0  0  0  0  0  0  0  0  0  0
   46.9778   34.3320   45.3013 H   0  0  0  0  0  0  0  0  0  0  0  0
   44.4908   35.0614   46.4250 H   0  0  0  0  0  0  0  0  0  0  0  0
   43.7995   36.6688   44.5246 H   0  0  0  0  0  0  0  0  0  0  0  0
   44.3902   35.3227   42.3421 H   0  0  0  0  0  0  0  0  0  0  0  0
   45.4859   36.7508   42.7303 H   0  0  0  0  0  0  0  0  0  0  0  0
   47.1408   35.4290   43.4742 H   0  0  0  0  0  0  0  0  0  0  0  0
   45.0119   33.2123   43.3354 H   0  0  0  0  0  0  0  0  0  0  0  0
   46.7203   32.7875   43.4351 H   0  0  0  0  0  0  0  0  0  0  0  0
   45.3313   33.5000   41.0591 H   0  0  0  0  0  0  0  0  0  0  0  0
   45.5597   32.1023   38.9514 H   0  0  0  0  0  0  0  0  0  0  0  0
   45.5375   33.5262   37.8566 H   0  0  0  0  0  0  0  0  0  0  0  0
   46.9490   32.4152   37.8566 H   0  0  0  0  0  0  0  0  0  0  0  0
   49.6166   35.4472   39.8652 H   0  0  0  0  0  0  0  0  0  0  0  0
   45.0425   34.0067   47.6320 H   0  0  0  0  0  0  0  0  0  0  0  0
   46.5926   31.2520   44.6534 H   0  0  0  0  0  0  0  0  0  0  0  0
   45.4384   29.8860   48.5343 H   0  0  0  0  0  0  0  0  0  0  0  0
  1  2  1  0
  1 17  1  0
  3  2  2  0
  4  3  1  0
  5  4  1  0
  5  6  1  0
  6  1  1  0
  7  5  1  0
  8  7  1  0
  9  8  2  0
 10  9  1  0
 11  9  1  0
 11 13  1  0
 12 11  2  0
 13 14  1  0
 14  7  1  0
 14 15  2  0
 16 21  2  0
 17 16  1  0
 18 17  2  0
 18 19  1  0
 19 20  2  0
 20 21  1  0
  1 22  1  1
  2 23  1  0
  3 24  1  0
  4 25  1  0
  4 26  1  0
  5 27  1  1
  6 28  1  0
  6 29  1  0
  8 30  1  0
 10 31  1  0
 10 32  1  0
 10 33  1  0
 13 34  1  0
 16 35  1  0
 18 36  1  0
 20 37  1  0
M  ISO  8  22  13  23  13  24  13  25  13  26  13  27  13  28  13  29  13
M  ISO  8  30  14  31   8  32   8  33   8  34   9  35  14  36  14  37  14
M  END
>  <minimizedAffinity>  (1) 
-6.32123232

>  <minimizedRMSD>  (1) 
0.903152466

$$$$
