
     RDKit          3D

 39 41  0  0  1  0  0  0  0  0999 V2000
   45.8750   33.9100   45.3610 C   0  0  2  0  0  0  0  0  0  0  0  0
   44.8140   34.9260   45.7240 C   0  0  0  0  0  0  0  0  0  0  0  0
   44.4120   35.8860   44.7100 C   0  0  0  0  0  0  0  0  0  0  0  0
   45.0310   35.8410   43.3740 C   0  0  0  0  0  0  0  0  0  0  0  0
   46.1980   34.9550   43.2300 C   0  0  1  0  0  0  0  0  0  0  0  0
   45.8740   33.6250   43.8910 C   0  0  0  0  0  0  0  0  0  0  0  0
   45.2510   32.8870   47.5240 C   0  0  0  0  0  0  0  0  0  0  0  0
   45.7420   32.7360   46.2270 C   0  0  0  0  0  0  0  0  0  0  0  0
   46.1140   31.4340   45.7950 C   0  0  0  0  0  0  0  0  0  0  0  0
   45.9700   30.4070   46.6700 N   0  0  0  0  0  0  0  0  0  0  0  0
   45.4880   30.5850   47.9260 C   0  0  0  0  0  0  0  0  0  0  0  0
   45.1330   31.8170   48.3430 N   0  0  0  0  0  0  0  0  0  0  0  0
   46.6940   34.8260   41.9150 N   0  0  0  0  0  0  0  0  0  0  0  0
   46.3360   33.6150   41.2570 C   0  0  0  0  0  0  0  0  0  0  0  0
   46.7400   33.6510   39.7860 C   0  0  0  0  0  0  0  0  0  0  0  0
   48.2440   33.7780   39.7390 C   0  0  0  0  0  0  0  0  0  0  0  0
   48.5560   35.1310   40.3680 C   0  0  0  0  0  0  0  0  0  0  0  0
   48.0960   35.1360   41.8100 C   0  0  0  0  0  0  0  0  0  0  0  0
   46.8794   34.3159   45.5519 H   0  0  0  0  0  0  0  0  0  0  0  0
   44.3604   34.9375   46.7260 H   0  0  0  0  0  0  0  0  0  0  0  0
   43.6482   36.6437   44.9392 H   0  0  0  0  0  0  0  0  0  0  0  0
   44.2645   35.5059   42.6597 H   0  0  0  0  0  0  0  0  0  0  0  0
   45.4075   36.8578   43.1886 H   0  0  0  0  0  0  0  0  0  0  0  0
   47.0461   35.4275   43.7473 H   0  0  0  0  0  0  0  0  0  0  0  0
   44.8864   33.2637   43.5683 H   0  0  0  0  0  0  0  0  0  0  0  0
   46.5997   32.8433   43.6221 H   0  0  0  0  0  0  0  0  0  0  0  0
   44.9574   33.8843   47.8836 H   0  0  0  0  0  0  0  0  0  0  0  0
   46.5069   31.2640   44.7817 H   0  0  0  0  0  0  0  0  0  0  0  0
   45.3870   29.7244   48.6036 H   0  0  0  0  0  0  0  0  0  0  0  0
   46.8459   32.7739   41.7495 H   0  0  0  0  0  0  0  0  0  0  0  0
   45.2444   33.4931   41.3174 H   0  0  0  0  0  0  0  0  0  0  0  0
   46.4243   32.7237   39.2856 H   0  0  0  0  0  0  0  0  0  0  0  0
   46.2605   34.4958   39.2699 H   0  0  0  0  0  0  0  0  0  0  0  0
   48.7167   32.9681   40.3140 H   0  0  0  0  0  0  0  0  0  0  0  0
   48.6286   33.7065   38.7109 H   0  0  0  0  0  0  0  0  0  0  0  0
   49.6402   35.3123   40.3285 H   0  0  0  0  0  0  0  0  0  0  0  0
   48.0311   35.9227   39.8133 H   0  0  0  0  0  0  0  0  0  0  0  0
   48.6715   34.3857   42.3719 H   0  0  0  0  0  0  0  0  0  0  0  0
   48.2599   36.1426   42.2223 H   0  0  0  0  0  0  0  0  0  0  0  0
  1  2  1  0
  1  8  1  0
  3  2  2  0
  4  3  1  0
  5  4  1  0
  5  6  1  0
  6  1  1  0
  7 12  2  0
  8  7  1  0
  9  8  2  0
  9 10  1  0
 10 11  2  0
 11 12  1  0
 13  5  1  0
 14 13  1  0
 15 14  1  0
 16 15  1  0
 16 17  1  0
 17 18  1  0
 18 13  1  0
  1 19  1  1
  2 20  1  0
  3 21  1  0
  4 22  1  0
  4 23  1  0
  5 24  1  1
  6 25  1  0
  6 26  1  0
  7 27  1  0
  9 28  1  0
 11 29  1  0
 14 30  1  0
 14 31  1  0
 15 32  1  0
 15 33  1  0
 16 34  1  0
 16 35  1  0
 17 36  1  0
 17 37  1  0
 18 38  1  0
 18 39  1  0
M  ISO  8  19  13  20  13  21  13  22  13  23  13  24  13  25  13  26  13
M  ISO  8  27  14  28  14  29  14  30  13  31  13  32  13  33  13  34  13
M  ISO  5  35  13  36  13  37  13  38  13  39  13
M  END
>  <minimizedAffinity>  (1) 
-5.58420849

>  <minimizedRMSD>  (1) 
0.654666066

$$$$
