
     RDKit          3D

 37 39  0  0  1  0  0  0  0  0999 V2000
   46.2870   33.5450   45.4010 C   0  0  2  0  0  0  0  0  0  0  0  0
   45.1040   34.4830   45.2790 C   0  0  0  0  0  0  0  0  0  0  0  0
   45.0270   35.3020   44.0860 C   0  0  0  0  0  0  0  0  0  0  0  0
   46.0620   35.2170   43.0530 C   0  0  0  0  0  0  0  0  0  0  0  0
   47.2200   34.3270   43.3380 C   0  0  1  0  0  0  0  0  0  0  0  0
   46.7430   33.0870   44.0510 C   0  0  0  0  0  0  0  0  0  0  0  0
   45.3800   32.7290   47.5650 C   0  0  0  0  0  0  0  0  0  0  0  0
   45.9250   32.4240   46.3090 C   0  0  0  0  0  0  0  0  0  0  0  0
   46.1120   31.0570   45.9640 C   0  0  0  0  0  0  0  0  0  0  0  0
   45.7520   30.1210   46.8680 N   0  0  0  0  0  0  0  0  0  0  0  0
   45.2260   30.4640   48.0720 C   0  0  0  0  0  0  0  0  0  0  0  0
   45.0420   31.7550   48.4180 N   0  0  0  0  0  0  0  0  0  0  0  0
   47.7820   33.8330   42.0080 C   0  0  0  0  0  0  0  0  0  0  0  0
   46.7710   33.1470   41.1640 C   0  0  0  0  0  0  0  0  0  0  0  0
   46.9710   33.7000   39.7740 C   0  0  0  0  0  0  0  0  0  0  0  0
   48.1640   34.6040   39.7960 C   0  0  0  0  0  0  0  0  0  0  0  0
   48.3180   35.0060   41.2270 C   0  0  0  0  0  0  0  0  0  0  0  0
   47.1455   34.0703   45.8448 H   0  0  0  0  0  0  0  0  0  0  0  0
   44.3351   34.5402   46.0636 H   0  0  0  0  0  0  0  0  0  0  0  0
   44.1826   35.9947   43.9548 H   0  0  0  0  0  0  0  0  0  0  0  0
   46.4539   36.2318   42.8897 H   0  0  0  0  0  0  0  0  0  0  0  0
   45.5629   34.7709   42.1801 H   0  0  0  0  0  0  0  0  0  0  0  0
   47.9567   34.8828   43.9366 H   0  0  0  0  0  0  0  0  0  0  0  0
   45.9097   32.6252   43.5011 H   0  0  0  0  0  0  0  0  0  0  0  0
   47.5386   32.3312   44.1265 H   0  0  0  0  0  0  0  0  0  0  0  0
   45.2288   33.7801   47.8518 H   0  0  0  0  0  0  0  0  0  0  0  0
   46.5369   30.7711   44.9905 H   0  0  0  0  0  0  0  0  0  0  0  0
   44.9437   29.6717   48.7809 H   0  0  0  0  0  0  0  0  0  0  0  0
   48.5704   33.1058   42.2522 H   0  0  0  0  0  0  0  0  0  0  0  0
   46.9354   32.0594   41.1733 H   0  0  0  0  0  0  0  0  0  0  0  0
   45.7477   33.3174   41.5298 H   0  0  0  0  0  0  0  0  0  0  0  0
   46.0798   34.2673   39.4674 H   0  0  0  0  0  0  0  0  0  0  0  0
   47.1297   32.8797   39.0585 H   0  0  0  0  0  0  0  0  0  0  0  0
   49.0599   34.0705   39.4457 H   0  0  0  0  0  0  0  0  0  0  0  0
   48.0362   35.4732   39.1340 H   0  0  0  0  0  0  0  0  0  0  0  0
   49.3762   35.1837   41.4693 H   0  0  0  0  0  0  0  0  0  0  0  0
   47.7865   35.9408   41.4585 H   0  0  0  0  0  0  0  0  0  0  0  0
  1  8  1  0
  2  1  1  0
  3  2  2  0
  4  5  1  0
  4  3  1  0
  5  6  1  0
  6  1  1  0
  7 12  2  0
  8  7  1  0
  9  8  2  0
  9 10  1  0
 10 11  2  0
 11 12  1  0
 13  5  1  0
 14 13  1  0
 15 16  1  0
 15 14  1  0
 16 17  1  0
 17 13  1  0
  1 18  1  1
  2 19  1  0
  3 20  1  0
  4 21  1  0
  4 22  1  0
  5 23  1  1
  6 24  1  0
  6 25  1  0
  7 26  1  0
  9 27  1  0
 11 28  1  0
 13 29  1  0
 14 30  1  0
 14 31  1  0
 15 32  1  0
 15 33  1  0
 16 34  1  0
 16 35  1  0
 17 36  1  0
 17 37  1  0
M  ISO  8  18  13  19  13  20  13  21  13  22  13  23  13  24  13  25  13
M  ISO  8  26  14  27  14  28  14  29  13  30  13  31  13  32  13  33  13
M  ISO  4  34  13  35  13  36  13  37  13
M  END
>  <minimizedAffinity>  (1) 
-5.46041346

>  <minimizedRMSD>  (1) 
1.08975577

$$$$
