
     RDKit          3D

 41 44  0  0  1  0  0  0  0  0999 V2000
   47.4620   34.2650   41.5390 C   0  0  2  0  0  0  0  0  0  0  0  0
   48.4240   35.3020   40.8910 C   0  0  0  0  0  0  0  0  0  0  0  0
   48.7220   33.7890   40.9100 C   0  0  1  0  0  0  0  0  0  0  0  0
   44.0430   34.3500   40.3540 N   0  0  0  0  0  0  0  0  0  0  0  0
   44.5660   33.4250   39.5220 C   0  0  0  0  0  0  0  0  0  0  0  0
   45.8690   33.2240   39.7930 N   0  0  0  0  0  0  0  0  0  0  0  0
   46.1630   34.0610   40.8370 C   0  0  0  0  0  0  0  0  0  0  0  0
   45.0440   34.7110   41.1350 N   0  0  0  0  0  0  0  0  0  0  0  0
   42.0460   35.1220   39.2440 C   0  0  0  0  0  0  0  0  0  0  0  0
   42.7420   34.8970   40.4700 C   0  0  0  0  0  0  0  0  0  0  0  0
   42.1000   35.2260   41.6300 C   0  0  0  0  0  0  0  0  0  0  0  0
   40.8420   35.7440   41.5300 N   0  0  0  0  0  0  0  0  0  0  0  0
   40.2170   35.9440   40.3760 C   0  0  0  0  0  0  0  0  0  0  0  0
   40.8260   35.6280   39.2130 N   0  0  0  0  0  0  0  0  0  0  0  0
   49.7500   33.2440   41.7680 C   0  0  0  0  0  0  0  0  0  0  0  0
   50.2110   34.0110   42.6880 O   0  0  0  0  0  0  0  0  0  0  0  0
   50.2310   31.9650   41.6300 O   0  0  0  0  0  0  0  0  0  0  0  0
   53.1490   29.5810   39.9050 N   0  0  0  0  0  0  0  0  0  0  0  0
   53.2060   31.0130   39.6490 C   0  0  0  0  0  0  0  0  0  0  0  0
   51.7820   31.5170   39.7980 C   0  0  0  0  0  0  0  0  0  0  0  0
   51.5360   31.6480   41.2750 C   0  0  0  0  0  0  0  0  0  0  0  0
   51.9380   30.3390   41.9230 C   0  0  0  0  0  0  0  0  0  0  0  0
   52.1340   29.2600   40.8700 C   0  0  0  0  0  0  0  0  0  0  0  0
   47.0124   34.1066   42.5303 H   0  0  0  0  0  0  0  0  0  0  0  0
   49.0050   35.9923   41.5203 H   0  0  0  0  0  0  0  0  0  0  0  0
   48.3449   36.0851   40.1226 H   0  0  0  0  0  0  0  0  0  0  0  0
   48.9803   33.0649   40.1232 H   0  0  0  0  0  0  0  0  0  0  0  0
   44.0044   32.9065   38.7309 H   0  0  0  0  0  0  0  0  0  0  0  0
   42.5410   34.8661   38.2956 H   0  0  0  0  0  0  0  0  0  0  0  0
   42.5798   35.0786   42.6088 H   0  0  0  0  0  0  0  0  0  0  0  0
   39.2019   36.3676   40.3672 H   0  0  0  0  0  0  0  0  0  0  0  0
   54.0626   29.2681   40.2632 H   0  0  0  0  0  0  0  0  0  0  0  0
   53.5760   31.2057   38.6312 H   0  0  0  0  0  0  0  0  0  0  0  0
   53.8902   31.5215   40.3442 H   0  0  0  0  0  0  0  0  0  0  0  0
   51.6696   32.4937   39.3046 H   0  0  0  0  0  0  0  0  0  0  0  0
   51.0622   30.8285   39.3312 H   0  0  0  0  0  0  0  0  0  0  0  0
   52.1370   32.4992   41.6274 H   0  0  0  0  0  0  0  0  0  0  0  0
   52.8793   30.4821   42.4738 H   0  0  0  0  0  0  0  0  0  0  0  0
   51.1396   30.0233   42.6107 H   0  0  0  0  0  0  0  0  0  0  0  0
   51.1818   29.1142   40.3389 H   0  0  0  0  0  0  0  0  0  0  0  0
   52.4614   28.3503   41.3947 H   0  0  0  0  0  0  0  0  0  0  0  0
  2  3  1  0
  2  1  1  0
  3  1  1  0
  3 15  1  0
  4 10  1  0
  4  8  1  0
  5  6  2  0
  5  4  1  0
  6  7  1  0
  7  8  2  0
  7  1  1  0
  9 10  2  0
 10 11  1  0
 12 11  2  0
 13 12  1  0
 14  9  1  0
 14 13  2  0
 15 16  2  0
 17 15  1  0
 18 23  1  0
 19 20  1  0
 19 18  1  0
 20 21  1  0
 21 17  1  0
 21 22  1  0
 23 22  1  0
  1 24  1  1
  2 25  1  0
  2 26  1  0
  3 27  1  6
  5 28  1  0
  9 29  1  0
 11 30  1  0
 13 31  1  0
 18 32  1  0
 19 33  1  0
 19 34  1  0
 20 35  1  0
 20 36  1  0
 21 37  1  0
 22 38  1  0
 22 39  1  0
 23 40  1  0
 23 41  1  0
M  ISO  8  24  13  25  13  26  13  27  13  28  14  29  14  30  14  31  14
M  ISO  8  32   5  33  13  34  13  35  13  36  13  37  13  38  13  39  13
M  ISO  2  40  13  41  13
M  END
>  <minimizedAffinity>  (1) 
-4.89389658

>  <minimizedRMSD>  (1) 
4.17623425

$$$$
