
     RDKit          3D

 36 38  0  0  1  0  0  0  0  0999 V2000
   46.2840   33.5290   45.7390 C   0  0  2  0  0  0  0  0  0  0  0  0
   45.0500   34.4030   45.7370 C   0  0  0  0  0  0  0  0  0  0  0  0
   44.8290   35.2120   44.5590 C   0  0  0  0  0  0  0  0  0  0  0  0
   45.7640   35.1680   43.4380 C   0  0  0  0  0  0  0  0  0  0  0  0
   46.9500   34.3150   43.5760 C   0  0  1  0  0  0  0  0  0  0  0  0
   46.6270   33.0650   44.3550 C   0  0  0  0  0  0  0  0  0  0  0  0
   45.2700   32.6360   47.8100 C   0  0  0  0  0  0  0  0  0  0  0  0
   46.1240   32.4550   46.7210 C   0  0  0  0  0  0  0  0  0  0  0  0
   46.7990   31.2300   46.6410 C   0  0  0  0  0  0  0  0  0  0  0  0
   46.6050   30.2890   47.5970 N   0  0  0  0  0  0  0  0  0  0  0  0
   45.7670   30.5030   48.6390 C   0  0  0  0  0  0  0  0  0  0  0  0
   45.1040   31.6740   48.7400 N   0  0  0  0  0  0  0  0  0  0  0  0
   47.4260   33.9210   42.2610 N   0  0  0  0  0  0  0  0  0  0  0  0
   46.4360   34.1630   41.2340 C   0  0  0  0  0  0  0  0  0  0  0  0
   47.3040   34.1380   39.9680 C   0  0  0  0  0  0  0  0  0  0  0  0
   48.4750   34.9760   40.3930 C   0  0  0  0  0  0  0  0  0  0  0  0
   48.6200   34.6360   41.8540 C   0  0  0  0  0  0  0  0  0  0  0  0
   47.1596   34.1136   46.0577 H   0  0  0  0  0  0  0  0  0  0  0  0
   44.3549   34.4224   46.5894 H   0  0  0  0  0  0  0  0  0  0  0  0
   43.9472   35.8675   44.5067 H   0  0  0  0  0  0  0  0  0  0  0  0
   46.1160   36.1953   43.2625 H   0  0  0  0  0  0  0  0  0  0  0  0
   45.1909   34.7186   42.6136 H   0  0  0  0  0  0  0  0  0  0  0  0
   47.7202   34.8901   44.1108 H   0  0  0  0  0  0  0  0  0  0  0  0
   45.7720   32.5411   43.9028 H   0  0  0  0  0  0  0  0  0  0  0  0
   47.4708   32.3594   44.3600 H   0  0  0  0  0  0  0  0  0  0  0  0
   44.7207   33.5836   47.9117 H   0  0  0  0  0  0  0  0  0  0  0  0
   47.4850   31.0323   45.8041 H   0  0  0  0  0  0  0  0  0  0  0  0
   45.6269   29.7233   49.4021 H   0  0  0  0  0  0  0  0  0  0  0  0
   45.6733   33.3706   41.2151 H   0  0  0  0  0  0  0  0  0  0  0  0
   45.8639   35.0926   41.3698 H   0  0  0  0  0  0  0  0  0  0  0  0
   46.7788   34.5859   39.1115 H   0  0  0  0  0  0  0  0  0  0  0  0
   47.5747   33.1271   39.6291 H   0  0  0  0  0  0  0  0  0  0  0  0
   49.3809   34.7038   39.8316 H   0  0  0  0  0  0  0  0  0  0  0  0
   48.3293   36.0508   40.2096 H   0  0  0  0  0  0  0  0  0  0  0  0
   49.5061   34.0019   42.0049 H   0  0  0  0  0  0  0  0  0  0  0  0
   48.7437   35.5509   42.4520 H   0  0  0  0  0  0  0  0  0  0  0  0
  1  8  1  0
  2  1  1  0
  3  2  2  0
  4  5  1  0
  4  3  1  0
  5  6  1  0
  6  1  1  0
  7 12  2  0
  8  7  1  0
  9  8  2  0
  9 10  1  0
 10 11  2  0
 11 12  1  0
 13 14  1  0
 13  5  1  0
 15 16  1  0
 15 14  1  0
 16 17  1  0
 17 13  1  0
  1 18  1  1
  2 19  1  0
  3 20  1  0
  4 21  1  0
  4 22  1  0
  5 23  1  1
  6 24  1  0
  6 25  1  0
  7 26  1  0
  9 27  1  0
 11 28  1  0
 14 29  1  0
 14 30  1  0
 15 31  1  0
 15 32  1  0
 16 33  1  0
 16 34  1  0
 17 35  1  0
 17 36  1  0
M  ISO  8  18  13  19  13  20  13  21  13  22  13  23  13  24  13  25  13
M  ISO  8  26  14  27  14  28  14  29  13  30  13  31  13  32  13  33  13
M  ISO  3  34  13  35  13  36  13
M  END
>  <minimizedAffinity>  (1) 
-5.28911829

>  <minimizedRMSD>  (1) 
0.976097107

$$$$
