
     RDKit          3D

 31 33  0  0  1  0  0  0  0  0999 V2000
   45.9620   33.8870   45.3460 C   0  0  2  0  0  0  0  0  0  0  0  0
   44.8600   34.8860   45.5880 C   0  0  0  0  0  0  0  0  0  0  0  0
   44.5310   35.7910   44.4990 C   0  0  0  0  0  0  0  0  0  0  0  0
   45.2540   35.7090   43.2330 C   0  0  0  0  0  0  0  0  0  0  0  0
   46.4250   34.8170   43.1950 C   0  0  1  0  0  0  0  0  0  0  0  0
   46.0780   33.5280   43.8990 C   0  0  0  0  0  0  0  0  0  0  0  0
   45.2490   32.9590   47.5120 C   0  0  0  0  0  0  0  0  0  0  0  0
   45.8020   32.7430   46.2500 C   0  0  0  0  0  0  0  0  0  0  0  0
   46.1880   31.4290   45.9350 C   0  0  0  0  0  0  0  0  0  0  0  0
   46.0180   30.4370   46.8440 N   0  0  0  0  0  0  0  0  0  0  0  0
   45.4770   30.6890   48.0600 C   0  0  0  0  0  0  0  0  0  0  0  0
   45.0970   31.9440   48.3870 N   0  0  0  0  0  0  0  0  0  0  0  0
   46.8590   34.5570   41.8140 C   0  0  0  0  0  0  0  0  0  0  0  0
   46.2400   33.8920   40.7760 C   0  0  0  0  0  0  0  0  0  0  0  0
   47.0140   33.8920   39.6590 N   0  0  0  0  0  0  0  0  0  0  0  0
   48.1370   34.5630   39.9880 C   0  0  0  0  0  0  0  0  0  0  0  0
   48.0400   34.9550   41.2660 N   0  0  0  0  0  0  0  0  0  0  0  0
   46.9336   34.3418   45.5890 H   0  0  0  0  0  0  0  0  0  0  0  0
   44.3266   34.9286   46.5491 H   0  0  0  0  0  0  0  0  0  0  0  0
   43.7354   36.5394   44.6290 H   0  0  0  0  0  0  0  0  0  0  0  0
   44.5455   35.3612   42.4668 H   0  0  0  0  0  0  0  0  0  0  0  0
   45.6554   36.7191   43.0642 H   0  0  0  0  0  0  0  0  0  0  0  0
   47.2653   35.3064   43.7092 H   0  0  0  0  0  0  0  0  0  0  0  0
   45.1243   33.1287   43.5235 H   0  0  0  0  0  0  0  0  0  0  0  0
   46.8377   32.7508   43.7291 H   0  0  0  0  0  0  0  0  0  0  0  0
   44.9320   33.9727   47.7981 H   0  0  0  0  0  0  0  0  0  0  0  0
   46.6277   31.2052   44.9519 H   0  0  0  0  0  0  0  0  0  0  0  0
   45.3467   29.8703   48.7830 H   0  0  0  0  0  0  0  0  0  0  0  0
   45.2477   33.4222   40.8437 H   0  0  0  0  0  0  0  0  0  0  0  0
   48.9891   34.7560   39.3197 H   0  0  0  0  0  0  0  0  0  0  0  0
   48.7645   35.4879   41.7681 H   0  0  0  0  0  0  0  0  0  0  0  0
  1  2  1  0
  1  8  1  0
  3  2  2  0
  4  3  1  0
  5  4  1  0
  5  6  1  0
  6  1  1  0
  7 12  2  0
  8  7  1  0
  9  8  2  0
  9 10  1  0
 10 11  2  0
 11 12  1  0
 13  5  1  0
 14 13  2  0
 15 16  2  0
 15 14  1  0
 16 17  1  0
 17 13  1  0
  1 18  1  1
  2 19  1  0
  3 20  1  0
  4 21  1  0
  4 22  1  0
  5 23  1  1
  6 24  1  0
  6 25  1  0
  7 26  1  0
  9 27  1  0
 11 28  1  0
 14 29  1  0
 16 30  1  0
 17 31  1  0
M  ISO  8  18  13  19  13  20  13  21  13  22  13  23  13  24  13  25  13
M  ISO  6  26  14  27  14  28  14  29  14  30  14  31   9
M  END
>  <minimizedAffinity>  (1) 
-5.25998783

>  <minimizedRMSD>  (1) 
0.142977864

$$$$
