
     RDKit          3D

 36 37  0  0  1  0  0  0  0  0999 V2000
   46.4040   33.6820   44.9510 C   0  0  2  0  0  0  0  0  0  0  0  0
   45.1690   34.4850   44.5920 C   0  0  0  0  0  0  0  0  0  0  0  0
   45.2210   35.2480   43.3630 C   0  0  0  0  0  0  0  0  0  0  0  0
   46.4170   35.2380   42.5220 C   0  0  0  0  0  0  0  0  0  0  0  0
   47.6030   34.5210   43.0730 C   0  0  1  0  0  0  0  0  0  0  0  0
   47.1260   33.2410   43.7180 C   0  0  0  0  0  0  0  0  0  0  0  0
   45.5380   32.9300   47.1480 C   0  0  0  0  0  0  0  0  0  0  0  0
   46.0220   32.6140   45.8790 C   0  0  0  0  0  0  0  0  0  0  0  0
   46.1330   31.2350   45.5510 C   0  0  0  0  0  0  0  0  0  0  0  0
   45.7730   30.3010   46.4640 N   0  0  0  0  0  0  0  0  0  0  0  0
   45.3080   30.6600   47.6870 C   0  0  0  0  0  0  0  0  0  0  0  0
   45.1950   31.9690   48.0180 N   0  0  0  0  0  0  0  0  0  0  0  0
   48.6210   34.1770   42.0400 C   0  0  0  0  0  0  0  0  0  0  0  0
   50.0420   34.3510   42.5340 C   0  0  0  0  0  0  0  0  0  0  0  0
   48.4620   35.1540   40.8860 C   0  0  0  0  0  0  0  0  0  0  0  0
   48.4450   32.7860   41.4840 C   0  0  0  0  0  0  0  0  0  0  0  0
   47.1426   34.2980   45.4848 H   0  0  0  0  0  0  0  0  0  0  0  0
   44.2763   34.4876   45.2347 H   0  0  0  0  0  0  0  0  0  0  0  0
   44.3483   35.8438   43.0574 H   0  0  0  0  0  0  0  0  0  0  0  0
   46.7100   36.2830   42.3426 H   0  0  0  0  0  0  0  0  0  0  0  0
   46.1341   34.6850   41.6142 H   0  0  0  0  0  0  0  0  0  0  0  0
   48.0876   35.1973   43.7925 H   0  0  0  0  0  0  0  0  0  0  0  0
   46.4470   32.6972   43.0447 H   0  0  0  0  0  0  0  0  0  0  0  0
   47.9558   32.5555   43.9449 H   0  0  0  0  0  0  0  0  0  0  0  0
   45.4358   33.9855   47.4403 H   0  0  0  0  0  0  0  0  0  0  0  0
   46.5083   30.9288   44.5634 H   0  0  0  0  0  0  0  0  0  0  0  0
   45.0215   29.8849   48.4130 H   0  0  0  0  0  0  0  0  0  0  0  0
   50.0503   34.3520   43.6340 H   0  0  0  0  0  0  0  0  0  0  0  0
   50.6631   33.5222   42.1634 H   0  0  0  0  0  0  0  0  0  0  0  0
   50.4448   35.3052   42.1634 H   0  0  0  0  0  0  0  0  0  0  0  0
   48.2972   36.1666   41.2829 H   0  0  0  0  0  0  0  0  0  0  0  0
   49.3734   35.1454   40.2701 H   0  0  0  0  0  0  0  0  0  0  0  0
   47.6004   34.8569   40.2701 H   0  0  0  0  0  0  0  0  0  0  0  0
   48.3542   32.0686   42.3129 H   0  0  0  0  0  0  0  0  0  0  0  0
   47.5352   32.7502   40.8668 H   0  0  0  0  0  0  0  0  0  0  0  0
   49.3172   32.5247   40.8668 H   0  0  0  0  0  0  0  0  0  0  0  0
  1  8  1  0
  2  1  1  0
  3  2  2  0
  4  5  1  0
  4  3  1  0
  5  6  1  0
  6  1  1  0
  7 12  2  0
  8  7  1  0
  9  8  2  0
  9 10  1  0
 10 11  2  0
 11 12  1  0
 13 14  1  0
 13  5  1  0
 15 13  1  0
 16 13  1  0
  1 17  1  1
  2 18  1  0
  3 19  1  0
  4 20  1  0
  4 21  1  0
  5 22  1  1
  6 23  1  0
  6 24  1  0
  7 25  1  0
  9 26  1  0
 11 27  1  0
 14 28  1  0
 14 29  1  0
 14 30  1  0
 15 31  1  0
 15 32  1  0
 15 33  1  0
 16 34  1  0
 16 35  1  0
 16 36  1  0
M  ISO  8  17  13  18  13  19  13  20  13  21  13  22  13  23  13  24  13
M  ISO  8  25  14  26  14  27  14  28   8  29   8  30   8  31   8  32   8
M  ISO  4  33   8  34   8  35   8  36   8
M  END
>  <minimizedAffinity>  (1) 
-5.24901104

>  <minimizedRMSD>  (1) 
1.19207466

$$$$
