
     RDKit          3D

 38 41  0  0  1  0  0  0  0  0999 V2000
   48.3060   33.6140   38.8690 C   0  0  2  0  0  0  0  0  0  0  0  0
   48.3770   34.6060   37.6740 C   0  0  0  0  0  0  0  0  0  0  0  0
   48.2580   33.0820   37.4790 C   0  0  1  0  0  0  0  0  0  0  0  0
   45.7910   34.0520   41.4280 N   0  0  0  0  0  0  0  0  0  0  0  0
   45.0160   33.5820   40.4050 C   0  0  0  0  0  0  0  0  0  0  0  0
   45.7770   33.3420   39.3210 N   0  0  0  0  0  0  0  0  0  0  0  0
   47.0560   33.6710   39.6780 C   0  0  0  0  0  0  0  0  0  0  0  0
   46.9980   34.0860   40.9390 N   0  0  0  0  0  0  0  0  0  0  0  0
   45.0180   35.7900   42.9070 C   0  0  0  0  0  0  0  0  0  0  0  0
   45.4600   34.4430   42.7480 C   0  0  0  0  0  0  0  0  0  0  0  0
   45.5250   33.6530   43.8610 C   0  0  0  0  0  0  0  0  0  0  0  0
   45.1680   34.1970   45.0430 N   0  0  0  0  0  0  0  0  0  0  0  0
   44.7530   35.4670   45.1800 C   0  0  0  0  0  0  0  0  0  0  0  0
   44.6800   36.2680   44.0910 N   0  0  0  0  0  0  0  0  0  0  0  0
   49.3850   32.3060   37.0180 C   0  0  0  0  0  0  0  0  0  0  0  0
   49.3330   31.8470   35.8280 O   0  0  0  0  0  0  0  0  0  0  0  0
   50.4850   32.0460   37.7880 O   0  0  0  0  0  0  0  0  0  0  0  0
   52.7100   32.0590   38.2550 N   0  0  0  0  0  0  0  0  0  0  0  0
   52.4550   31.4110   39.5340 C   0  0  0  0  0  0  0  0  0  0  0  0
   51.9580   30.0220   39.2470 C   0  0  0  0  0  0  0  0  0  0  0  0
   51.8780   30.0240   37.7490 C   0  0  0  0  0  0  0  0  0  0  0  0
   51.6570   31.4500   37.4280 C   0  0  1  0  0  0  0  0  0  0  0  0
   48.9286   33.3733   39.7433 H   0  0  0  0  0  0  0  0  0  0  0  0
   47.5261   35.2647   37.4458 H   0  0  0  0  0  0  0  0  0  0  0  0
   49.0658   35.3960   37.3401 H   0  0  0  0  0  0  0  0  0  0  0  0
   47.5649   32.4521   36.9021 H   0  0  0  0  0  0  0  0  0  0  0  0
   43.9289   33.4231   40.4596 H   0  0  0  0  0  0  0  0  0  0  0  0
   44.9574   36.4444   42.0249 H   0  0  0  0  0  0  0  0  0  0  0  0
   45.8578   32.6066   43.7954 H   0  0  0  0  0  0  0  0  0  0  0  0
   44.4741   35.8540   46.1712 H   0  0  0  0  0  0  0  0  0  0  0  0
   52.5996   33.0811   38.3184 H   0  0  0  0  0  0  0  0  0  0  0  0
   53.3832   31.3634   40.1223 H   0  0  0  0  0  0  0  0  0  0  0  0
   51.7098   31.9767   40.1126 H   0  0  0  0  0  0  0  0  0  0  0  0
   52.6656   29.2614   39.6086 H   0  0  0  0  0  0  0  0  0  0  0  0
   51.0060   29.7799   39.7421 H   0  0  0  0  0  0  0  0  0  0  0  0
   52.8150   29.6592   37.3029 H   0  0  0  0  0  0  0  0  0  0  0  0
   51.0895   29.3648   37.3568 H   0  0  0  0  0  0  0  0  0  0  0  0
   51.6511   31.5688   36.3345 H   0  0  0  0  0  0  0  0  0  0  0  0
  1  7  1  0
  2  1  1  0
  3  2  1  0
  3  1  1  0
  4 10  1  0
  5  4  1  0
  6  7  1  0
  6  5  2  0
  7  8  2  0
  8  4  1  0
  9 14  2  0
 10  9  1  0
 10 11  2  0
 11 12  1  0
 12 13  2  0
 14 13  1  0
 15  3  1  0
 15 17  1  0
 16 15  2  0
 18 19  1  0
 20 19  1  0
 21 20  1  0
 22 21  1  0
 22 17  1  0
 22 18  1  0
  1 23  1  1
  2 24  1  0
  2 25  1  0
  3 26  1  1
  5 27  1  0
  9 28  1  0
 11 29  1  0
 13 30  1  0
 18 31  1  0
 19 32  1  0
 19 33  1  0
 20 34  1  0
 20 35  1  0
 21 36  1  0
 21 37  1  0
 22 38  1  6
M  ISO  8  23  13  24  13  25  13  26  13  27  14  28  14  29  14  30  14
M  ISO  8  31   5  32  13  33  13  34  13  35  13  36  13  37  13  38  13
M  END
>  <minimizedAffinity>  (1) 
-4.82306957

>  <minimizedRMSD>  (1) 
1.03258145

$$$$
