
     RDKit          3D

 33 34  0  0  1  0  0  0  0  0999 V2000
   46.3950   33.6730   44.9830 C   0  0  2  0  0  0  0  0  0  0  0  0
   45.1810   34.4610   44.5580 C   0  0  0  0  0  0  0  0  0  0  0  0
   45.2640   35.2020   43.3180 C   0  0  0  0  0  0  0  0  0  0  0  0
   46.4900   35.1680   42.5260 C   0  0  0  0  0  0  0  0  0  0  0  0
   47.6540   34.4740   43.1060 C   0  0  1  0  0  0  0  0  0  0  0  0
   47.2010   33.2230   43.8090 C   0  0  0  0  0  0  0  0  0  0  0  0
   45.5080   32.9670   47.1660 C   0  0  0  0  0  0  0  0  0  0  0  0
   46.0030   32.6060   45.9120 C   0  0  0  0  0  0  0  0  0  0  0  0
   46.1180   31.2440   45.6090 C   0  0  0  0  0  0  0  0  0  0  0  0
   45.7420   30.3310   46.5550 N   0  0  0  0  0  0  0  0  0  0  0  0
   45.2670   30.7090   47.7630 C   0  0  0  0  0  0  0  0  0  0  0  0
   45.1510   32.0220   48.0630 N   0  0  0  0  0  0  0  0  0  0  0  0
   48.6680   34.2010   42.0270 C   0  0  0  0  0  0  0  0  0  0  0  0
   48.4150   35.1020   40.8360 C   0  0  0  0  0  0  0  0  0  0  0  0
   50.0780   34.3460   42.4950 C   0  0  0  0  0  0  0  0  0  0  0  0
   47.0810   34.3249   45.5438 H   0  0  0  0  0  0  0  0  0  0  0  0
   44.2660   34.4719   45.1685 H   0  0  0  0  0  0  0  0  0  0  0  0
   44.4024   35.7916   42.9716 H   0  0  0  0  0  0  0  0  0  0  0  0
   46.7883   36.2094   42.3351 H   0  0  0  0  0  0  0  0  0  0  0  0
   46.2306   34.5824   41.6317 H   0  0  0  0  0  0  0  0  0  0  0  0
   48.1429   35.1090   43.8595 H   0  0  0  0  0  0  0  0  0  0  0  0
   46.5843   32.6094   43.1358 H   0  0  0  0  0  0  0  0  0  0  0  0
   48.0569   32.6074   44.1228 H   0  0  0  0  0  0  0  0  0  0  0  0
   45.4076   34.0310   47.4264 H   0  0  0  0  0  0  0  0  0  0  0  0
   46.5022   30.9157   44.6319 H   0  0  0  0  0  0  0  0  0  0  0  0
   44.9749   29.9481   48.5018 H   0  0  0  0  0  0  0  0  0  0  0  0
   48.5425   33.1484   41.7331 H   0  0  0  0  0  0  0  0  0  0  0  0
   48.1333   36.1052   41.1885 H   0  0  0  0  0  0  0  0  0  0  0  0
   49.3287   35.1704   40.2273 H   0  0  0  0  0  0  0  0  0  0  0  0
   47.5993   34.6848   40.2273 H   0  0  0  0  0  0  0  0  0  0  0  0
   50.1009   34.3484   43.5948 H   0  0  0  0  0  0  0  0  0  0  0  0
   50.6780   33.5048   42.1176 H   0  0  0  0  0  0  0  0  0  0  0  0
   50.4942   35.2917   42.1176 H   0  0  0  0  0  0  0  0  0  0  0  0
  1  8  1  0
  2  1  1  0
  3  2  2  0
  4  5  1  0
  4  3  1  0
  5  6  1  0
  6  1  1  0
  7 12  2  0
  8  7  1  0
  9  8  2  0
  9 10  1  0
 10 11  2  0
 11 12  1  0
 13 15  1  0
 13  5  1  0
 14 13  1  0
  1 16  1  1
  2 17  1  0
  3 18  1  0
  4 19  1  0
  4 20  1  0
  5 21  1  1
  6 22  1  0
  6 23  1  0
  7 24  1  0
  9 25  1  0
 11 26  1  0
 13 27  1  0
 14 28  1  0
 14 29  1  0
 14 30  1  0
 15 31  1  0
 15 32  1  0
 15 33  1  0
M  ISO  8  16  13  17  13  18  13  19  13  20  13  21  13  22  13  23  13
M  ISO  8  24  14  25  14  26  14  27   8  28   8  29   8  30   8  31   8
M  ISO  2  32   8  33   8
M  END
>  <minimizedAffinity>  (1) 
-5.08213425

>  <minimizedRMSD>  (1) 
1.15645218

$$$$
