
     RDKit          3D

 40 43  0  0  1  0  0  0  0  0999 V2000
   46.1110   32.6650   45.6990 C   0  0  2  0  0  0  0  0  0  0  0  0
   46.5910   33.0710   47.0720 C   0  0  0  0  0  0  0  0  0  0  0  0
   47.4120   32.1140   47.7850 C   0  0  0  0  0  0  0  0  0  0  0  0
   47.7520   30.8260   47.2090 C   0  0  0  0  0  0  0  0  0  0  0  0
   47.2240   30.5290   45.8420 C   0  0  2  0  0  0  0  0  0  0  0  0
   47.0820   31.7580   45.0370 C   0  0  0  0  0  0  0  0  0  0  0  0
   46.0590   29.6220   45.8990 C   0  0  0  0  0  0  0  0  0  0  0  0
   45.6650   29.1620   47.1620 C   0  0  0  0  0  0  0  0  0  0  0  0
   44.6180   28.2770   47.3160 C   0  0  0  0  0  0  0  0  0  0  0  0
   43.8980   27.7970   46.2160 C   0  0  0  0  0  0  0  0  0  0  0  0
   44.2690   28.2370   44.9640 C   0  0  0  0  0  0  0  0  0  0  0  0
   43.6020   27.8100   43.8350 C   0  0  0  0  0  0  0  0  0  0  0  0
   43.9440   28.2380   42.5480 C   0  0  0  0  0  0  0  0  0  0  0  0
   45.0130   29.1350   42.4600 C   0  0  0  0  0  0  0  0  0  0  0  0
   45.6590   29.5430   43.6060 C   0  0  0  0  0  0  0  0  0  0  0  0
   45.3170   29.1180   44.8550 C   0  0  0  0  0  0  0  0  0  0  0  0
   44.9030   34.8020   45.4630 C   0  0  0  0  0  0  0  0  0  0  0  0
   45.7880   33.8780   44.9090 C   0  0  0  0  0  0  0  0  0  0  0  0
   46.3170   34.1310   43.6190 C   0  0  0  0  0  0  0  0  0  0  0  0
   45.9400   35.2600   42.9760 N   0  0  0  0  0  0  0  0  0  0  0  0
   45.0750   36.1390   43.5430 C   0  0  0  0  0  0  0  0  0  0  0  0
   44.5600   35.9140   44.7750 N   0  0  0  0  0  0  0  0  0  0  0  0
   45.1834   32.0799   45.7843 H   0  0  0  0  0  0  0  0  0  0  0  0
   46.3299   34.0460   47.5094 H   0  0  0  0  0  0  0  0  0  0  0  0
   47.7868   32.3696   48.7871 H   0  0  0  0  0  0  0  0  0  0  0  0
   48.8492   30.7641   47.1608 H   0  0  0  0  0  0  0  0  0  0  0  0
   47.2720   30.0856   47.8658 H   0  0  0  0  0  0  0  0  0  0  0  0
   47.9649   29.9472   45.2741 H   0  0  0  0  0  0  0  0  0  0  0  0
   46.7178   31.4995   44.0318 H   0  0  0  0  0  0  0  0  0  0  0  0
   48.0575   32.2591   44.9520 H   0  0  0  0  0  0  0  0  0  0  0  0
   46.2040   29.5153   48.0535 H   0  0  0  0  0  0  0  0  0  0  0  0
   44.3427   27.9409   48.3266 H   0  0  0  0  0  0  0  0  0  0  0  0
   43.0638   27.0920   46.3466 H   0  0  0  0  0  0  0  0  0  0  0  0
   42.7667   27.1038   43.9514 H   0  0  0  0  0  0  0  0  0  0  0  0
   43.4029   27.8889   41.6562 H   0  0  0  0  0  0  0  0  0  0  0  0
   45.3368   29.5134   41.4792 H   0  0  0  0  0  0  0  0  0  0  0  0
   46.4960   30.2499   43.5079 H   0  0  0  0  0  0  0  0  0  0  0  0
   44.4822   34.6255   46.4639 H   0  0  0  0  0  0  0  0  0  0  0  0
   47.0187   33.4250   43.1508 H   0  0  0  0  0  0  0  0  0  0  0  0
   44.7881   37.0477   42.9935 H   0  0  0  0  0  0  0  0  0  0  0  0
  1  2  1  0
  2  3  2  0
  4  3  1  0
  5  7  1  0
  5  4  1  0
  6  1  1  0
  6  5  1  0
  7  8  2  0
  8  9  1  0
 10  9  2  0
 11 10  1  0
 12 11  2  0
 13 12  1  0
 14 13  2  0
 14 15  1  0
 15 16  2  0
 16 11  1  0
 16  7  1  0
 18 17  2  0
 18  1  1  0
 19 18  1  0
 20 21  1  0
 20 19  2  0
 21 22  2  0
 22 17  1  0
  1 23  1  1
  2 24  1  0
  3 25  1  0
  4 26  1  0
  4 27  1  0
  5 28  1  6
  6 29  1  0
  6 30  1  0
  8 31  1  0
  9 32  1  0
 10 33  1  0
 12 34  1  0
 13 35  1  0
 14 36  1  0
 15 37  1  0
 17 38  1  0
 19 39  1  0
 21 40  1  0
M  ISO  8  23  13  24  13  25  13  26  13  27  13  28  13  29  13  30  13
M  ISO  8  31  14  32  14  33  14  34  14  35  14  36  14  37  14  38  14
M  ISO  2  39  14  40  14
M  END
>  <minimizedAffinity>  (1) 
-4.90535784

>  <minimizedRMSD>  (1) 
7.24985695

$$$$
