
     RDKit          3D

 30 31  0  0  1  0  0  0  0  0999 V2000
   46.0050   33.9410   45.3130 C   0  0  2  0  0  0  0  0  0  0  0  0
   44.8480   34.8970   45.5160 C   0  0  0  0  0  0  0  0  0  0  0  0
   44.5510   35.8040   44.4280 C   0  0  0  0  0  0  0  0  0  0  0  0
   45.3440   35.7860   43.2020 C   0  0  0  0  0  0  0  0  0  0  0  0
   46.4620   34.8190   43.1210 C   0  0  1  0  0  0  0  0  0  0  0  0
   46.1330   33.5720   43.8690 C   0  0  0  0  0  0  0  0  0  0  0  0
   45.2380   32.9950   47.4570 C   0  0  0  0  0  0  0  0  0  0  0  0
   45.8580   32.7940   46.2230 C   0  0  0  0  0  0  0  0  0  0  0  0
   46.3290   31.4900   45.9160 C   0  0  0  0  0  0  0  0  0  0  0  0
   46.1510   30.5150   46.8340 N   0  0  0  0  0  0  0  0  0  0  0  0
   45.5460   30.7370   48.0270 C   0  0  0  0  0  0  0  0  0  0  0  0
   45.0910   31.9740   48.3330 N   0  0  0  0  0  0  0  0  0  0  0  0
   46.6710   34.5590   41.6310 C   0  0  0  0  0  0  0  0  0  0  0  0
   48.0540   34.9230   41.1880 C   0  0  0  0  0  0  0  0  0  0  0  0
   46.9580   34.4246   45.5737 H   0  0  0  0  0  0  0  0  0  0  0  0
   44.2612   34.9018   46.4464 H   0  0  0  0  0  0  0  0  0  0  0  0
   43.7178   36.5155   44.5258 H   0  0  0  0  0  0  0  0  0  0  0  0
   44.6585   35.5664   42.3703 H   0  0  0  0  0  0  0  0  0  0  0  0
   45.8270   36.7737   43.1682 H   0  0  0  0  0  0  0  0  0  0  0  0
   47.3827   35.2069   43.5813 H   0  0  0  0  0  0  0  0  0  0  0  0
   45.1848   33.1519   43.5022 H   0  0  0  0  0  0  0  0  0  0  0  0
   46.9182   32.8145   43.7284 H   0  0  0  0  0  0  0  0  0  0  0  0
   44.8643   33.9954   47.7208 H   0  0  0  0  0  0  0  0  0  0  0  0
   46.8251   31.2796   44.9571 H   0  0  0  0  0  0  0  0  0  0  0  0
   45.4252   29.9125   48.7451 H   0  0  0  0  0  0  0  0  0  0  0  0
   46.5030   33.4907   41.4297 H   0  0  0  0  0  0  0  0  0  0  0  0
   45.9591   35.1851   41.0732 H   0  0  0  0  0  0  0  0  0  0  0  0
   48.6895   35.0903   42.0702 H   0  0  0  0  0  0  0  0  0  0  0  0
   48.4729   34.1045   40.5842 H   0  0  0  0  0  0  0  0  0  0  0  0
   48.0157   35.8417   40.5842 H   0  0  0  0  0  0  0  0  0  0  0  0
  1  2  1  0
  1  8  1  0
  3  2  2  0
  4  3  1  0
  5  4  1  0
  5  6  1  0
  6  1  1  0
  7 12  2  0
  8  7  1  0
  9  8  2  0
  9 10  1  0
 10 11  2  0
 11 12  1  0
 13  5  1  0
 14 13  1  0
  1 15  1  1
  2 16  1  0
  3 17  1  0
  4 18  1  0
  4 19  1  0
  5 20  1  1
  6 21  1  0
  6 22  1  0
  7 23  1  0
  9 24  1  0
 11 25  1  0
 13 26  1  0
 13 27  1  0
 14 28  1  0
 14 29  1  0
 14 30  1  0
M  ISO  8  15  13  16  13  17  13  18  13  19  13  20  13  21  13  22  13
M  ISO  8  23  14  24  14  25  14  26   8  27   8  28   8  29   8  30   8
M  END
>  <minimizedAffinity>  (1) 
-4.76076794

>  <minimizedRMSD>  (1) 
0.389693469

$$$$
