
     RDKit          3D

 33 36  0  0  1  0  0  0  0  0999 V2000
   45.7290   34.0660   41.4110 N   0  0  0  0  0  0  0  0  0  0  0  0
   44.9440   33.6670   40.3870 C   0  0  0  0  0  0  0  0  0  0  0  0
   45.7000   33.4030   39.3120 N   0  0  0  0  0  0  0  0  0  0  0  0
   46.9970   33.6440   39.6770 C   0  0  0  0  0  0  0  0  0  0  0  0
   46.9520   34.0390   40.9450 N   0  0  0  0  0  0  0  0  0  0  0  0
   44.9660   35.8060   42.9180 C   0  0  0  0  0  0  0  0  0  0  0  0
   45.4130   34.4610   42.7430 C   0  0  0  0  0  0  0  0  0  0  0  0
   45.5010   33.6790   43.8570 C   0  0  0  0  0  0  0  0  0  0  0  0
   45.1610   34.2230   45.0540 N   0  0  0  0  0  0  0  0  0  0  0  0
   44.7500   35.4740   45.1850 C   0  0  0  0  0  0  0  0  0  0  0  0
   44.6520   36.2700   44.1090 N   0  0  0  0  0  0  0  0  0  0  0  0
   48.2410   33.5230   38.8720 C   0  0  2  0  0  0  0  0  0  0  0  0
   48.3380   34.4560   37.6340 C   0  0  0  0  0  0  0  0  0  0  0  0
   48.1820   32.9320   37.5090 C   0  0  1  0  0  0  0  0  0  0  0  0
   49.2880   32.0960   37.0860 C   0  0  0  0  0  0  0  0  0  0  0  0
   50.3980   32.2370   37.7200 O   0  0  0  0  0  0  0  0  0  0  0  0
   49.1580   31.1820   36.0400 O   0  0  0  0  0  0  0  0  0  0  0  0
   49.1780   31.6270   34.7100 C   0  0  0  0  0  0  0  0  0  0  0  0
   50.2290   31.6940   33.8000 C   0  0  0  0  0  0  0  0  0  0  0  0
   49.9860   32.1720   32.5530 C   0  0  0  0  0  0  0  0  0  0  0  0
   48.6270   32.6130   32.1760 C   0  0  0  0  0  0  0  0  0  0  0  0
   47.7040   32.2940   33.7470 S   0  0  0  0  0  0  0  0  0  0  0  0
   43.8488   33.5728   40.4288 H   0  0  0  0  0  0  0  0  0  0  0  0
   44.8826   36.4659   42.0419 H   0  0  0  0  0  0  0  0  0  0  0  0
   45.8387   32.6344   43.7877 H   0  0  0  0  0  0  0  0  0  0  0  0
   44.4876   35.8630   46.1799 H   0  0  0  0  0  0  0  0  0  0  0  0
   48.8563   33.3079   39.7581 H   0  0  0  0  0  0  0  0  0  0  0  0
   47.5039   35.1243   37.3737 H   0  0  0  0  0  0  0  0  0  0  0  0
   49.0466   35.2126   37.2659 H   0  0  0  0  0  0  0  0  0  0  0  0
   47.4745   32.2964   36.9564 H   0  0  0  0  0  0  0  0  0  0  0  0
   51.2389   31.3653   34.0863 H   0  0  0  0  0  0  0  0  0  0  0  0
   50.8041   32.2313   31.8201 H   0  0  0  0  0  0  0  0  0  0  0  0
   48.2632   33.0202   31.2211 H   0  0  0  0  0  0  0  0  0  0  0  0
  1  7  1  0
  2  1  1  0
  3  4  1  0
  3  2  2  0
  4  5  2  0
  5  1  1  0
  6 11  2  0
  7  6  1  0
  7  8  2  0
  8  9  1  0
  9 10  2  0
 11 10  1  0
 12  4  1  0
 13 12  1  0
 14 13  1  0
 14 12  1  0
 15 14  1  0
 15 16  2  0
 17 15  1  0
 18 17  1  0
 19 18  2  0
 20 19  1  0
 21 20  2  0
 21 22  1  0
 22 18  1  0
  2 23  1  0
  6 24  1  0
  8 25  1  0
 10 26  1  0
 12 27  1  1
 13 28  1  0
 13 29  1  0
 14 30  1  6
 19 31  1  0
 20 32  1  0
 21 33  1  0
M  ISO  8  23  14  24  14  25  14  26  14  27  13  28  13  29  13  30  13
M  ISO  3  31  14  32  14  33  14
M  END
>  <minimizedAffinity>  (1) 
-4.78413248

>  <minimizedRMSD>  (1) 
2.74309587

$$$$
