
     RDKit          3D

 49 54  0  0  1  0  0  0  0  0999 V2000
   46.2230   33.6270   44.6280 C   0  0  2  0  0  0  0  0  0  0  0  0
   44.9790   34.4980   44.7570 C   0  0  0  0  0  0  0  0  0  0  0  0
   44.9190   35.6470   43.8870 C   0  0  0  0  0  0  0  0  0  0  0  0
   45.9970   35.9570   42.9330 C   0  0  0  0  0  0  0  0  0  0  0  0
   47.1220   35.0080   42.9020 C   0  0  1  0  0  0  0  0  0  0  0  0
   46.7520   33.6290   43.2380 C   0  0  0  0  0  0  0  0  0  0  0  0
   46.0930   32.0650   46.5380 C   0  0  0  0  0  0  0  0  0  0  0  0
   45.9210   32.2890   45.1720 C   0  0  0  0  0  0  0  0  0  0  0  0
   45.4860   31.2050   44.3410 C   0  0  0  0  0  0  0  0  0  0  0  0
   45.2610   30.0050   44.9340 N   0  0  0  0  0  0  0  0  0  0  0  0
   45.4380   29.8200   46.2650 C   0  0  0  0  0  0  0  0  0  0  0  0
   45.8460   30.8360   47.0450 N   0  0  0  0  0  0  0  0  0  0  0  0
   45.1870   28.5370   46.8280 N   0  0  0  0  0  0  0  0  0  0  0  0
   45.9770   27.9150   47.7220 C   0  0  0  0  0  0  0  0  0  0  0  0
   45.4180   26.7080   48.0310 N   0  0  0  0  0  0  0  0  0  0  0  0
   44.2790   26.6150   47.3090 C   0  0  0  0  0  0  0  0  0  0  0  0
   43.2660   25.6930   47.1470 C   0  0  0  0  0  0  0  0  0  0  0  0
   42.2170   25.8830   46.3240 N   0  0  0  0  0  0  0  0  0  0  0  0
   42.1210   27.0330   45.6010 C   0  0  0  0  0  0  0  0  0  0  0  0
   43.0830   27.9880   45.7100 N   0  0  0  0  0  0  0  0  0  0  0  0
   44.1120   27.7530   46.5450 C   0  0  0  0  0  0  0  0  0  0  0  0
   47.7290   35.0020   41.5460 C   0  0  0  0  0  0  0  0  0  0  0  0
   48.8810   35.6720   41.1420 C   0  0  0  0  0  0  0  0  0  0  0  0
   49.0110   35.3470   39.8510 N   0  0  0  0  0  0  0  0  0  0  0  0
   48.0300   34.5320   39.4220 C   0  0  0  0  0  0  0  0  0  0  0  0
   47.8400   33.9850   38.1470 C   0  0  0  0  0  0  0  0  0  0  0  0
   46.7390   33.1820   38.0310 C   0  0  0  0  0  0  0  0  0  0  0  0
   45.8560   32.8960   39.0510 C   0  0  0  0  0  0  0  0  0  0  0  0
   46.1320   33.4850   40.2740 C   0  0  0  0  0  0  0  0  0  0  0  0
   47.2050   34.3090   40.5140 C   0  0  0  0  0  0  0  0  0  0  0  0
   47.0485   34.0414   45.2253 H   0  0  0  0  0  0  0  0  0  0  0  0
   44.1752   34.2645   45.4707 H   0  0  0  0  0  0  0  0  0  0  0  0
   44.0431   36.3105   43.9376 H   0  0  0  0  0  0  0  0  0  0  0  0
   45.5562   35.9899   41.9257 H   0  0  0  0  0  0  0  0  0  0  0  0
   46.4243   36.9137   43.2679 H   0  0  0  0  0  0  0  0  0  0  0  0
   47.8275   35.3557   43.6710 H   0  0  0  0  0  0  0  0  0  0  0  0
   45.9793   33.2688   42.5429 H   0  0  0  0  0  0  0  0  0  0  0  0
   47.6261   32.9659   43.1582 H   0  0  0  0  0  0  0  0  0  0  0  0
   46.4264   32.8805   47.1966 H   0  0  0  0  0  0  0  0  0  0  0  0
   45.3395   31.3411   43.2593 H   0  0  0  0  0  0  0  0  0  0  0  0
   46.9160   28.3122   48.1349 H   0  0  0  0  0  0  0  0  0  0  0  0
   43.3175   24.7549   47.7191 H   0  0  0  0  0  0  0  0  0  0  0  0
   41.2648   27.1895   44.9284 H   0  0  0  0  0  0  0  0  0  0  0  0
   49.5339   36.3195   41.7457 H   0  0  0  0  0  0  0  0  0  0  0  0
   49.7777   35.6836   39.2512 H   0  0  0  0  0  0  0  0  0  0  0  0
   48.5212   34.1850   37.3067 H   0  0  0  0  0  0  0  0  0  0  0  0
   46.5426   32.7292   37.0480 H   0  0  0  0  0  0  0  0  0  0  0  0
   44.9855   32.2401   38.9024 H   0  0  0  0  0  0  0  0  0  0  0  0
   45.4462   33.2793   41.1090 H   0  0  0  0  0  0  0  0  0  0  0  0
  1  2  1  0
  1  8  1  0
  3  2  2  0
  4  3  1  0
  5  4  1  0
  5  6  1  0
  6  1  1  0
  7 12  2  0
  8  7  1  0
  9 10  1  0
  9  8  2  0
 10 11  2  0
 11 13  1  0
 11 12  1  0
 13 14  1  0
 14 15  2  0
 16 15  1  0
 17 16  2  0
 18 17  1  0
 19 20  1  0
 19 18  2  0
 20 21  2  0
 21 13  1  0
 21 16  1  0
 22  5  1  0
 23 22  2  0
 24 23  1  0
 25 24  1  0
 25 30  2  0
 26 25  1  0
 27 26  2  0
 27 28  1  0
 28 29  2  0
 29 30  1  0
 30 22  1  0
  1 31  1  1
  2 32  1  0
  3 33  1  0
  4 34  1  0
  4 35  1  0
  5 36  1  1
  6 37  1  0
  6 38  1  0
  7 39  1  0
  9 40  1  0
 14 41  1  0
 17 42  1  0
 19 43  1  0
 23 44  1  0
 24 45  1  0
 26 46  1  0
 27 47  1  0
 28 48  1  0
 29 49  1  0
M  ISO  8  31  13  32  13  33  13  34  13  35  13  36  13  37  13  38  13
M  ISO  8  39  14  40  14  41  14  42  14  43  14  44  14  45   9  46  14
M  ISO  3  47  14  48  14  49  14
M  END
>  <minimizedAffinity>  (1) 
-7.06637478

>  <minimizedRMSD>  (1) 
1.48133516

$$$$
