
     RDKit          3D

 45 49  0  0  1  0  0  0  0  0999 V2000
   46.4450   33.6020   44.8840 C   0  0  2  0  0  0  0  0  0  0  0  0
   45.0690   34.2700   44.9700 C   0  0  0  0  0  0  0  0  0  0  0  0
   44.8240   35.3270   44.0130 C   0  0  0  0  0  0  0  0  0  0  0  0
   45.8310   35.7300   43.0320 C   0  0  0  0  0  0  0  0  0  0  0  0
   47.0940   34.9730   43.0440 C   0  0  1  0  0  0  0  0  0  0  0  0
   46.9510   33.5800   43.4840 C   0  0  0  0  0  0  0  0  0  0  0  0
   47.6750   34.9630   41.6830 C   0  0  0  0  0  0  0  0  0  0  0  0
   48.8150   35.6430   41.2540 C   0  0  0  0  0  0  0  0  0  0  0  0
   48.9250   35.3140   39.9690 N   0  0  0  0  0  0  0  0  0  0  0  0
   47.9540   34.4860   39.5490 C   0  0  0  0  0  0  0  0  0  0  0  0
   47.7490   33.9360   38.2850 C   0  0  0  0  0  0  0  0  0  0  0  0
   46.6570   33.1190   38.1840 C   0  0  0  0  0  0  0  0  0  0  0  0
   45.7880   32.8270   39.2220 C   0  0  0  0  0  0  0  0  0  0  0  0
   46.0770   33.4230   40.4380 C   0  0  0  0  0  0  0  0  0  0  0  0
   47.1470   34.2600   40.6590 C   0  0  0  0  0  0  0  0  0  0  0  0
   46.7460   32.1110   46.8530 C   0  0  0  0  0  0  0  0  0  0  0  0
   46.3430   32.2640   45.5260 C   0  0  0  0  0  0  0  0  0  0  0  0
   45.8520   31.1160   44.8170 C   0  0  0  0  0  0  0  0  0  0  0  0
   45.8110   29.9340   45.4940 N   0  0  0  0  0  0  0  0  0  0  0  0
   46.2070   29.8360   46.7640 C   0  0  0  0  0  0  0  0  0  0  0  0
   46.6740   30.9130   47.4510 N   0  0  0  0  0  0  0  0  0  0  0  0
   46.0680   28.5030   47.2500 N   0  0  0  0  0  0  0  0  0  0  0  0
   44.8880   28.1900   47.7670 N   0  0  0  0  0  0  0  0  0  0  0  0
   44.9030   26.9010   48.1840 C   0  0  0  0  0  0  0  0  0  0  0  0
   46.1780   26.4430   47.8850 C   0  0  0  0  0  0  0  0  0  0  0  0
   46.9190   27.4600   47.2910 C   0  0  0  0  0  0  0  0  0  0  0  0
   47.2035   34.1806   45.4317 H   0  0  0  0  0  0  0  0  0  0  0  0
   44.3158   33.9656   45.7116 H   0  0  0  0  0  0  0  0  0  0  0  0
   43.8523   35.8424   44.0235 H   0  0  0  0  0  0  0  0  0  0  0  0
   46.0725   36.7875   43.2149 H   0  0  0  0  0  0  0  0  0  0  0  0
   45.3790   35.5303   42.0492 H   0  0  0  0  0  0  0  0  0  0  0  0
   47.7441   35.4835   43.7698 H   0  0  0  0  0  0  0  0  0  0  0  0
   46.2366   33.0527   42.8348 H   0  0  0  0  0  0  0  0  0  0  0  0
   47.9165   33.0557   43.4294 H   0  0  0  0  0  0  0  0  0  0  0  0
   49.4721   36.3002   41.8425 H   0  0  0  0  0  0  0  0  0  0  0  0
   49.6788   35.6595   39.3580 H   0  0  0  0  0  0  0  0  0  0  0  0
   48.4144   34.1431   37.4339 H   0  0  0  0  0  0  0  0  0  0  0  0
   46.4537   32.6596   37.2054 H   0  0  0  0  0  0  0  0  0  0  0  0
   44.9216   32.1625   39.0887 H   0  0  0  0  0  0  0  0  0  0  0  0
   45.4063   33.2134   41.2843 H   0  0  0  0  0  0  0  0  0  0  0  0
   47.1253   32.9789   47.4123 H   0  0  0  0  0  0  0  0  0  0  0  0
   45.5224   31.1877   43.7700 H   0  0  0  0  0  0  0  0  0  0  0  0
   44.0832   26.3400   48.6565 H   0  0  0  0  0  0  0  0  0  0  0  0
   46.5481   25.4271   48.0874 H   0  0  0  0  0  0  0  0  0  0  0  0
   47.9597   27.4211   46.9367 H   0  0  0  0  0  0  0  0  0  0  0  0
  1  2  1  0
  1 17  1  0
  3  2  2  0
  4  5  1  0
  4  3  1  0
  5  6  1  0
  6  1  1  0
  7  5  1  0
  8  7  2  0
  9  8  1  0
 10  9  1  0
 10 15  2  0
 11 10  1  0
 12 11  2  0
 12 13  1  0
 13 14  2  0
 14 15  1  0
 15  7  1  0
 16 21  2  0
 17 16  1  0
 18 19  1  0
 18 17  2  0
 19 20  2  0
 20 22  1  0
 20 21  1  0
 22 26  1  0
 22 23  1  0
 23 24  2  0
 25 24  1  0
 26 25  2  0
  1 27  1  1
  2 28  1  0
  3 29  1  0
  4 30  1  0
  4 31  1  0
  5 32  1  1
  6 33  1  0
  6 34  1  0
  8 35  1  0
  9 36  1  0
 11 37  1  0
 12 38  1  0
 13 39  1  0
 14 40  1  0
 16 41  1  0
 18 42  1  0
 24 43  1  0
 25 44  1  0
 26 45  1  0
M  ISO  8  27  13  28  13  29  13  30  13  31  13  32  13  33  13  34  13
M  ISO  8  35  14  36   9  37  14  38  14  39  14  40  14  41  14  42  14
M  ISO  3  43  14  44  14  45  14
M  END
>  <minimizedAffinity>  (1) 
-6.78717184

>  <minimizedRMSD>  (1) 
1.04413676

$$$$
