
     RDKit          3D

 52 56  0  0  1  0  0  0  0  0999 V2000
   46.4810   33.5550   44.8340 C   0  0  2  0  0  0  0  0  0  0  0  0
   45.1030   34.2070   44.9310 C   0  0  0  0  0  0  0  0  0  0  0  0
   44.8470   35.2790   43.9990 C   0  0  0  0  0  0  0  0  0  0  0  0
   45.8590   35.7150   43.0250 C   0  0  0  0  0  0  0  0  0  0  0  0
   47.1280   34.9670   43.0270 C   0  0  1  0  0  0  0  0  0  0  0  0
   46.9930   33.5670   43.4390 C   0  0  0  0  0  0  0  0  0  0  0  0
   47.7230   34.9880   41.6660 C   0  0  0  0  0  0  0  0  0  0  0  0
   48.8500   35.6920   41.2560 C   0  0  0  0  0  0  0  0  0  0  0  0
   48.9770   35.3870   39.9630 N   0  0  0  0  0  0  0  0  0  0  0  0
   48.0180   34.5460   39.5330 C   0  0  0  0  0  0  0  0  0  0  0  0
   47.8320   34.0100   38.2550 C   0  0  0  0  0  0  0  0  0  0  0  0
   46.7460   33.1700   38.1420 C   0  0  0  0  0  0  0  0  0  0  0  0
   45.8810   32.8510   39.1710 C   0  0  0  0  0  0  0  0  0  0  0  0
   46.1520   33.4340   40.3970 C   0  0  0  0  0  0  0  0  0  0  0  0
   47.2090   34.2900   40.6330 C   0  0  0  0  0  0  0  0  0  0  0  0
   46.0140   32.1070   46.7870 C   0  0  0  0  0  0  0  0  0  0  0  0
   46.4030   32.2150   45.4540 C   0  0  0  0  0  0  0  0  0  0  0  0
   46.7380   31.0210   44.7350 C   0  0  0  0  0  0  0  0  0  0  0  0
   46.6530   29.8450   45.4140 N   0  0  0  0  0  0  0  0  0  0  0  0
   46.2760   29.7690   46.6960 C   0  0  0  0  0  0  0  0  0  0  0  0
   45.9620   30.8890   47.3700 N   0  0  0  0  0  0  0  0  0  0  0  0
   46.2160   28.4980   47.3310 N   0  0  0  0  0  0  0  0  0  0  0  0
   47.4340   27.7000   47.4470 C   0  0  0  0  0  0  0  0  0  0  0  0
   47.2260   26.2830   47.0350 C   0  0  0  0  0  0  0  0  0  0  0  0
   45.8370   25.8740   47.0740 N   0  0  0  0  0  0  0  0  0  0  0  0
   45.2070   26.4970   48.2170 C   0  0  0  0  0  0  0  0  0  0  0  0
   44.9850   27.9530   47.8720 C   0  0  0  0  0  0  0  0  0  0  0  0
   47.2304   34.1338   45.3938 H   0  0  0  0  0  0  0  0  0  0  0  0
   44.3524   33.8798   45.6655 H   0  0  0  0  0  0  0  0  0  0  0  0
   43.8694   35.7830   44.0177 H   0  0  0  0  0  0  0  0  0  0  0  0
   46.0910   36.7702   43.2316 H   0  0  0  0  0  0  0  0  0  0  0  0
   45.4126   35.5349   42.0359 H   0  0  0  0  0  0  0  0  0  0  0  0
   47.7698   35.4698   43.7655 H   0  0  0  0  0  0  0  0  0  0  0  0
   46.2857   33.0476   42.7757 H   0  0  0  0  0  0  0  0  0  0  0  0
   47.9633   33.0523   43.3798 H   0  0  0  0  0  0  0  0  0  0  0  0
   49.4912   36.3507   41.8602 H   0  0  0  0  0  0  0  0  0  0  0  0
   49.7267   35.7549   39.3601 H   0  0  0  0  0  0  0  0  0  0  0  0
   48.4976   34.2400   37.4100 H   0  0  0  0  0  0  0  0  0  0  0  0
   46.5528   32.7189   37.1575 H   0  0  0  0  0  0  0  0  0  0  0  0
   45.0269   32.1734   39.0246 H   0  0  0  0  0  0  0  0  0  0  0  0
   45.4818   33.2001   41.2373 H   0  0  0  0  0  0  0  0  0  0  0  0
   45.7508   33.0074   47.3615 H   0  0  0  0  0  0  0  0  0  0  0  0
   47.0501   31.0541   43.6807 H   0  0  0  0  0  0  0  0  0  0  0  0
   48.2097   28.1441   46.8059 H   0  0  0  0  0  0  0  0  0  0  0  0
   47.7362   27.7009   48.5047 H   0  0  0  0  0  0  0  0  0  0  0  0
   47.8003   25.6343   47.7127 H   0  0  0  0  0  0  0  0  0  0  0  0
   47.5632   26.1937   45.9918 H   0  0  0  0  0  0  0  0  0  0  0  0
   45.3625   26.1728   46.2100 H   0  0  0  0  0  0  0  0  0  0  0  0
   44.2438   26.0093   48.4279 H   0  0  0  0  0  0  0  0  0  0  0  0
   45.8413   26.4015   49.1106 H   0  0  0  0  0  0  0  0  0  0  0  0
   44.7014   28.5086   48.7780 H   0  0  0  0  0  0  0  0  0  0  0  0
   44.1784   28.0425   47.1294 H   0  0  0  0  0  0  0  0  0  0  0  0
  1  2  1  0
  1 17  1  0
  3  2  2  0
  4  5  1  0
  4  3  1  0
  5  6  1  0
  6  1  1  0
  7  5  1  0
  8  7  2  0
  9  8  1  0
 10  9  1  0
 10 15  2  0
 11 10  1  0
 12 11  2  0
 12 13  1  0
 13 14  2  0
 14 15  1  0
 15  7  1  0
 16 21  2  0
 17 16  1  0
 18 19  1  0
 18 17  2  0
 19 20  2  0
 20 22  1  0
 20 21  1  0
 22 23  1  0
 22 27  1  0
 24 25  1  0
 24 23  1  0
 25 26  1  0
 27 26  1  0
  1 28  1  1
  2 29  1  0
  3 30  1  0
  4 31  1  0
  4 32  1  0
  5 33  1  1
  6 34  1  0
  6 35  1  0
  8 36  1  0
  9 37  1  0
 11 38  1  0
 12 39  1  0
 13 40  1  0
 14 41  1  0
 16 42  1  0
 18 43  1  0
 23 44  1  0
 23 45  1  0
 24 46  1  0
 24 47  1  0
 25 48  1  0
 26 49  1  0
 26 50  1  0
 27 51  1  0
 27 52  1  0
M  ISO  8  28  13  29  13  30  13  31  13  32  13  33  13  34  13  35  13
M  ISO  8  36  14  37   9  38  14  39  14  40  14  41  14  42  14  43  14
M  ISO  8  44  13  45  13  46  13  47  13  48   5  49  13  50  13  51  13
M  ISO  1  52  13
M  END
>  <minimizedAffinity>  (1) 
-6.75546074

>  <minimizedRMSD>  (1) 
1.15402138

$$$$
