
     RDKit          3D

 51 55  0  0  1  0  0  0  0  0999 V2000
   46.2010   33.8680   44.9350 C   0  0  2  0  0  0  0  0  0  0  0  0
   44.8800   34.6360   44.9780 C   0  0  0  0  0  0  0  0  0  0  0  0
   44.7100   35.6520   43.9710 C   0  0  0  0  0  0  0  0  0  0  0  0
   45.7520   35.9300   42.9680 C   0  0  0  0  0  0  0  0  0  0  0  0
   46.9500   35.0870   43.0290 C   0  0  1  0  0  0  0  0  0  0  0  0
   46.7110   33.7320   43.5440 C   0  0  0  0  0  0  0  0  0  0  0  0
   47.5390   34.9560   41.6710 C   0  0  0  0  0  0  0  0  0  0  0  0
   48.7360   35.5110   41.2210 C   0  0  0  0  0  0  0  0  0  0  0  0
   48.8280   35.1110   39.9530 N   0  0  0  0  0  0  0  0  0  0  0  0
   47.7860   34.3500   39.5740 C   0  0  0  0  0  0  0  0  0  0  0  0
   47.5360   33.7500   38.3330 C   0  0  0  0  0  0  0  0  0  0  0  0
   46.3750   33.0270   38.2690 C   0  0  0  0  0  0  0  0  0  0  0  0
   45.4780   32.8640   39.3130 C   0  0  0  0  0  0  0  0  0  0  0  0
   45.8140   33.4970   40.4990 C   0  0  0  0  0  0  0  0  0  0  0  0
   46.9490   34.2490   40.6880 C   0  0  0  0  0  0  0  0  0  0  0  0
   45.8040   32.5860   47.0350 C   0  0  0  0  0  0  0  0  0  0  0  0
   46.0060   32.5780   45.6540 C   0  0  0  0  0  0  0  0  0  0  0  0
   46.0320   31.3180   44.9640 C   0  0  0  0  0  0  0  0  0  0  0  0
   45.8540   30.1950   45.7130 N   0  0  0  0  0  0  0  0  0  0  0  0
   45.6630   30.2500   47.0330 C   0  0  0  0  0  0  0  0  0  0  0  0
   45.6380   31.4220   47.6910 N   0  0  0  0  0  0  0  0  0  0  0  0
   45.4830   28.9490   47.7160 C   0  0  0  0  0  0  0  0  0  0  0  0
   46.7280   28.1030   47.5400 C   0  0  0  0  0  0  0  0  0  0  0  0
   46.3110   26.6840   47.3560 C   0  0  0  0  0  0  0  0  0  0  0  0
   44.8010   26.6670   47.3910 C   0  0  0  0  0  0  0  0  0  0  0  0
   44.3810   28.1140   47.1150 C   0  0  0  0  0  0  0  0  0  0  0  0
   46.9971   34.4233   45.4527 H   0  0  0  0  0  0  0  0  0  0  0  0
   44.1067   34.4258   45.7316 H   0  0  0  0  0  0  0  0  0  0  0  0
   43.7777   36.2354   43.9507 H   0  0  0  0  0  0  0  0  0  0  0  0
   46.0702   36.9752   43.0954 H   0  0  0  0  0  0  0  0  0  0  0  0
   45.2887   35.7134   41.9941 H   0  0  0  0  0  0  0  0  0  0  0  0
   47.6280   35.5931   43.7320 H   0  0  0  0  0  0  0  0  0  0  0  0
   45.9658   33.2183   42.9189 H   0  0  0  0  0  0  0  0  0  0  0  0
   47.6384   33.1408   43.5265 H   0  0  0  0  0  0  0  0  0  0  0  0
   49.4437   36.1368   41.7844 H   0  0  0  0  0  0  0  0  0  0  0  0
   49.6114   35.3577   39.3314 H   0  0  0  0  0  0  0  0  0  0  0  0
   48.2191   33.8518   37.4768 H   0  0  0  0  0  0  0  0  0  0  0  0
   46.1353   32.5369   37.3138 H   0  0  0  0  0  0  0  0  0  0  0  0
   44.5582   32.2701   39.2069 H   0  0  0  0  0  0  0  0  0  0  0  0
   45.1239   33.3902   41.3490 H   0  0  0  0  0  0  0  0  0  0  0  0
   45.7805   33.5385   47.5847 H   0  0  0  0  0  0  0  0  0  0  0  0
   46.1891   31.2630   43.8767 H   0  0  0  0  0  0  0  0  0  0  0  0
   45.2555   29.1991   48.7628 H   0  0  0  0  0  0  0  0  0  0  0  0
   47.2866   28.4436   46.6557 H   0  0  0  0  0  0  0  0  0  0  0  0
   47.3753   28.1948   48.4247 H   0  0  0  0  0  0  0  0  0  0  0  0
   46.7160   26.0616   48.1676 H   0  0  0  0  0  0  0  0  0  0  0  0
   46.6892   26.2807   46.4050 H   0  0  0  0  0  0  0  0  0  0  0  0
   44.4040   25.9948   46.6161 H   0  0  0  0  0  0  0  0  0  0  0  0
   44.4144   26.3013   48.3537 H   0  0  0  0  0  0  0  0  0  0  0  0
   44.3014   28.2960   46.0331 H   0  0  0  0  0  0  0  0  0  0  0  0
   43.3958   28.3520   47.5425 H   0  0  0  0  0  0  0  0  0  0  0  0
  1  2  1  0
  1 17  1  0
  3  2  2  0
  4  5  1  0
  4  3  1  0
  5  6  1  0
  6  1  1  0
  7  5  1  0
  8  7  2  0
  9  8  1  0
 10  9  1  0
 10 15  2  0
 11 10  1  0
 12 11  2  0
 12 13  1  0
 13 14  2  0
 14 15  1  0
 15  7  1  0
 16 21  2  0
 17 16  1  0
 18 17  2  0
 18 19  1  0
 19 20  2  0
 20 21  1  0
 20 22  1  0
 23 22  1  0
 24 25  1  0
 24 23  1  0
 26 25  1  0
 26 22  1  0
  1 27  1  1
  2 28  1  0
  3 29  1  0
  4 30  1  0
  4 31  1  0
  5 32  1  1
  6 33  1  0
  6 34  1  0
  8 35  1  0
  9 36  1  0
 11 37  1  0
 12 38  1  0
 13 39  1  0
 14 40  1  0
 16 41  1  0
 18 42  1  0
 22 43  1  0
 23 44  1  0
 23 45  1  0
 24 46  1  0
 24 47  1  0
 25 48  1  0
 25 49  1  0
 26 50  1  0
 26 51  1  0
M  ISO  8  27  13  28  13  29  13  30  13  31  13  32  13  33  13  34  13
M  ISO  8  35  14  36   9  37  14  38  14  39  14  40  14  41  14  42  14
M  ISO  8  43  13  44  13  45  13  46  13  47  13  48  13  49  13  50  13
M  ISO  1  51  13
M  END
>  <minimizedAffinity>  (1) 
-6.60860062

>  <minimizedRMSD>  (1) 
0.726253748

$$$$
