
     RDKit          3D

 45 49  0  0  1  0  0  0  0  0999 V2000
   46.4710   33.6070   44.8790 C   0  0  2  0  0  0  0  0  0  0  0  0
   45.0880   34.2580   44.9660 C   0  0  0  0  0  0  0  0  0  0  0  0
   44.8240   35.3070   44.0120 C   0  0  0  0  0  0  0  0  0  0  0  0
   45.8320   35.7220   43.0200 C   0  0  0  0  0  0  0  0  0  0  0  0
   47.0960   34.9740   43.0330 C   0  0  1  0  0  0  0  0  0  0  0  0
   46.9720   33.5860   43.4780 C   0  0  0  0  0  0  0  0  0  0  0  0
   47.6790   34.9640   41.6660 C   0  0  0  0  0  0  0  0  0  0  0  0
   48.8180   35.6460   41.2350 C   0  0  0  0  0  0  0  0  0  0  0  0
   48.9320   35.3180   39.9490 N   0  0  0  0  0  0  0  0  0  0  0  0
   47.9560   34.4880   39.5400 C   0  0  0  0  0  0  0  0  0  0  0  0
   47.7470   33.9310   38.2700 C   0  0  0  0  0  0  0  0  0  0  0  0
   46.6530   33.1120   38.1770 C   0  0  0  0  0  0  0  0  0  0  0  0
   45.7850   32.8200   39.2200 C   0  0  0  0  0  0  0  0  0  0  0  0
   46.0790   33.4220   40.4320 C   0  0  0  0  0  0  0  0  0  0  0  0
   47.1450   34.2600   40.6540 C   0  0  0  0  0  0  0  0  0  0  0  0
   46.8990   32.1220   46.8180 C   0  0  0  0  0  0  0  0  0  0  0  0
   46.3940   32.2740   45.5260 C   0  0  0  0  0  0  0  0  0  0  0  0
   45.8330   31.1310   44.8620 C   0  0  0  0  0  0  0  0  0  0  0  0
   45.8260   29.9510   45.5390 N   0  0  0  0  0  0  0  0  0  0  0  0
   46.3170   29.8420   46.7760 C   0  0  0  0  0  0  0  0  0  0  0  0
   46.8460   30.9020   47.4090 N   0  0  0  0  0  0  0  0  0  0  0  0
   46.2150   28.4950   47.3270 C   0  0  0  0  0  0  0  0  0  0  0  0
   44.9880   27.9450   47.6890 C   0  0  0  0  0  0  0  0  0  0  0  0
   45.2700   26.6620   48.1700 C   0  0  0  0  0  0  0  0  0  0  0  0
   46.6160   26.4730   48.0890 N   0  0  0  0  0  0  0  0  0  0  0  0
   47.1700   27.5800   47.5820 N   0  0  0  0  0  0  0  0  0  0  0  0
   47.2217   34.1985   45.4235 H   0  0  0  0  0  0  0  0  0  0  0  0
   44.3413   33.9448   45.7106 H   0  0  0  0  0  0  0  0  0  0  0  0
   43.8458   35.8099   44.0251 H   0  0  0  0  0  0  0  0  0  0  0  0
   46.0662   36.7813   43.2015 H   0  0  0  0  0  0  0  0  0  0  0  0
   45.3799   35.5222   42.0373 H   0  0  0  0  0  0  0  0  0  0  0  0
   47.7390   35.4929   43.7591 H   0  0  0  0  0  0  0  0  0  0  0  0
   46.2618   33.0473   42.8335 H   0  0  0  0  0  0  0  0  0  0  0  0
   47.9438   33.0737   43.4224 H   0  0  0  0  0  0  0  0  0  0  0  0
   49.4730   36.3050   41.8238 H   0  0  0  0  0  0  0  0  0  0  0  0
   49.6845   35.6620   39.3356 H   0  0  0  0  0  0  0  0  0  0  0  0
   48.4094   34.1357   37.4160 H   0  0  0  0  0  0  0  0  0  0  0  0
   46.4464   32.6500   37.2003 H   0  0  0  0  0  0  0  0  0  0  0  0
   44.9194   32.1534   39.0921 H   0  0  0  0  0  0  0  0  0  0  0  0
   45.4096   33.2139   41.2797 H   0  0  0  0  0  0  0  0  0  0  0  0
   47.3345   32.9804   47.3504 H   0  0  0  0  0  0  0  0  0  0  0  0
   45.4241   31.2067   43.8437 H   0  0  0  0  0  0  0  0  0  0  0  0
   43.9996   28.4217   47.6124 H   0  0  0  0  0  0  0  0  0  0  0  0
   44.5352   25.9352   48.5466 H   0  0  0  0  0  0  0  0  0  0  0  0
   47.1222   25.6213   48.3706 H   0  0  0  0  0  0  0  0  0  0  0  0
  1  2  1  0
  1 17  1  0
  3  2  2  0
  4  5  1  0
  4  3  1  0
  5  6  1  0
  6  1  1  0
  7  5  1  0
  8  7  2  0
  9  8  1  0
 10  9  1  0
 10 15  2  0
 11 10  1  0
 12 11  2  0
 12 13  1  0
 13 14  2  0
 14 15  1  0
 15  7  1  0
 16 21  2  0
 17 16  1  0
 18 17  2  0
 18 19  1  0
 19 20  2  0
 20 22  1  0
 20 21  1  0
 22 26  2  0
 22 23  1  0
 23 24  2  0
 25 24  1  0
 26 25  1  0
  1 27  1  1
  2 28  1  0
  3 29  1  0
  4 30  1  0
  4 31  1  0
  5 32  1  1
  6 33  1  0
  6 34  1  0
  8 35  1  0
  9 36  1  0
 11 37  1  0
 12 38  1  0
 13 39  1  0
 14 40  1  0
 16 41  1  0
 18 42  1  0
 23 43  1  0
 24 44  1  0
 25 45  1  0
M  ISO  8  27  13  28  13  29  13  30  13  31  13  32  13  33  13  34  13
M  ISO  8  35  14  36   9  37  14  38  14  39  14  40  14  41  14  42  14
M  ISO  3  43  14  44  14  45   9
M  END
>  <minimizedAffinity>  (1) 
-6.64182138

>  <minimizedRMSD>  (1) 
1.10846364

$$$$
