
     RDKit          3D

 41 44  0  0  1  0  0  0  0  0999 V2000
   46.1480   34.0010   44.9460 C   0  0  2  0  0  0  0  0  0  0  0  0
   44.8370   34.7870   44.9600 C   0  0  0  0  0  0  0  0  0  0  0  0
   44.6890   35.7800   43.9200 C   0  0  0  0  0  0  0  0  0  0  0  0
   45.7430   36.0120   42.9160 C   0  0  0  0  0  0  0  0  0  0  0  0
   46.9260   35.1440   43.0080 C   0  0  1  0  0  0  0  0  0  0  0  0
   46.6530   33.8140   43.5600 C   0  0  0  0  0  0  0  0  0  0  0  0
   47.5160   34.9650   41.6600 C   0  0  0  0  0  0  0  0  0  0  0  0
   48.7330   35.4710   41.2010 C   0  0  0  0  0  0  0  0  0  0  0  0
   48.8130   35.0350   39.9400 N   0  0  0  0  0  0  0  0  0  0  0  0
   47.7500   34.3010   39.5740 C   0  0  0  0  0  0  0  0  0  0  0  0
   47.4880   33.6800   38.3450 C   0  0  0  0  0  0  0  0  0  0  0  0
   46.3040   32.9960   38.2950 C   0  0  0  0  0  0  0  0  0  0  0  0
   45.4050   32.8910   39.3330 C   0  0  0  0  0  0  0  0  0  0  0  0
   45.7520   33.5370   40.5090 C   0  0  0  0  0  0  0  0  0  0  0  0
   46.9150   34.2570   40.6840 C   0  0  0  0  0  0  0  0  0  0  0  0
   45.6290   32.8120   47.0560 C   0  0  0  0  0  0  0  0  0  0  0  0
   45.9300   32.7370   45.6970 C   0  0  0  0  0  0  0  0  0  0  0  0
   46.0410   31.4450   45.0820 C   0  0  0  0  0  0  0  0  0  0  0  0
   45.8430   30.3560   45.8620 N   0  0  0  0  0  0  0  0  0  0  0  0
   45.5520   30.4580   47.1740 C   0  0  0  0  0  0  0  0  0  0  0  0
   45.4460   31.6800   47.7660 N   0  0  0  0  0  0  0  0  0  0  0  0
   45.3380   29.2880   48.0210 C   0  0  0  0  0  0  0  0  0  0  0  0
   45.4120   28.1120   47.5800 O   0  0  0  0  0  0  0  0  0  0  0  0
   45.0420   29.3700   49.3550 O   0  0  0  0  0  0  0  0  0  0  0  0
   46.9507   34.5589   45.4504 H   0  0  0  0  0  0  0  0  0  0  0  0
   44.0559   34.6083   45.7136 H   0  0  0  0  0  0  0  0  0  0  0  0
   43.7665   36.3776   43.8767 H   0  0  0  0  0  0  0  0  0  0  0  0
   46.0815   37.0536   43.0186 H   0  0  0  0  0  0  0  0  0  0  0  0
   45.2817   35.7809   41.9445 H   0  0  0  0  0  0  0  0  0  0  0  0
   47.6144   35.6523   43.6992 H   0  0  0  0  0  0  0  0  0  0  0  0
   45.8943   33.3024   42.9496 H   0  0  0  0  0  0  0  0  0  0  0  0
   47.5652   33.1993   43.5594 H   0  0  0  0  0  0  0  0  0  0  0  0
   49.4596   36.0872   41.7508 H   0  0  0  0  0  0  0  0  0  0  0  0
   49.6059   35.2403   39.3154 H   0  0  0  0  0  0  0  0  0  0  0  0
   48.1780   33.7378   37.4903 H   0  0  0  0  0  0  0  0  0  0  0  0
   46.0503   32.4903   37.3517 H   0  0  0  0  0  0  0  0  0  0  0  0
   44.4658   32.3270   39.2344 H   0  0  0  0  0  0  0  0  0  0  0  0
   45.0549   33.4712   41.3574 H   0  0  0  0  0  0  0  0  0  0  0  0
   45.5410   33.7919   47.5481 H   0  0  0  0  0  0  0  0  0  0  0  0
   46.2789   31.3429   44.0129 H   0  0  0  0  0  0  0  0  0  0  0  0
   44.9064   28.5440   49.8836 H   0  0  0  0  0  0  0  0  0  0  0  0
  1  2  1  0
  1 17  1  0
  3  2  2  0
  4  5  1  0
  4  3  1  0
  5  6  1  0
  6  1  1  0
  7  5  1  0
  8  7  2  0
  9  8  1  0
 10  9  1  0
 10 15  2  0
 11 10  1  0
 12 11  2  0
 12 13  1  0
 13 14  2  0
 14 15  1  0
 15  7  1  0
 16 21  2  0
 17 16  1  0
 18 17  2  0
 18 19  1  0
 19 20  2  0
 20 21  1  0
 20 22  1  0
 22 24  1  0
 23 22  2  0
  1 25  1  1
  2 26  1  0
  3 27  1  0
  4 28  1  0
  4 29  1  0
  5 30  1  1
  6 31  1  0
  6 32  1  0
  8 33  1  0
  9 34  1  0
 11 35  1  0
 12 36  1  0
 13 37  1  0
 14 38  1  0
 16 39  1  0
 18 40  1  0
 24 41  1  0
M  ISO  8  25  13  26  13  27  13  28  13  29  13  30  13  31  13  32  13
M  ISO  8  33  14  34   9  35  14  36  14  37  14  38  14  39  14  40  14
M  ISO  1  41   3
M  END
>  <minimizedAffinity>  (1) 
-6.61661816

>  <minimizedRMSD>  (1) 
0.417107135

$$$$
