
     RDKit          3D

 45 49  0  0  1  0  0  0  0  0999 V2000
   46.1330   33.9610   44.9550 C   0  0  2  0  0  0  0  0  0  0  0  0
   44.8420   34.7780   44.9860 C   0  0  0  0  0  0  0  0  0  0  0  0
   44.7160   35.7830   43.9620 C   0  0  0  0  0  0  0  0  0  0  0  0
   45.7570   36.0110   42.9550 C   0  0  0  0  0  0  0  0  0  0  0  0
   46.9260   35.1260   43.0330 C   0  0  1  0  0  0  0  0  0  0  0  0
   46.6350   33.7900   43.5660 C   0  0  0  0  0  0  0  0  0  0  0  0
   47.5210   34.9620   41.6830 C   0  0  0  0  0  0  0  0  0  0  0  0
   48.7340   35.4740   41.2320 C   0  0  0  0  0  0  0  0  0  0  0  0
   48.8190   35.0460   39.9650 N   0  0  0  0  0  0  0  0  0  0  0  0
   47.7570   34.3100   39.5960 C   0  0  0  0  0  0  0  0  0  0  0  0
   47.5090   33.7000   38.3640 C   0  0  0  0  0  0  0  0  0  0  0  0
   46.3190   33.0040   38.3100 C   0  0  0  0  0  0  0  0  0  0  0  0
   45.4200   32.8890   39.3450 C   0  0  0  0  0  0  0  0  0  0  0  0
   45.7630   33.5320   40.5240 C   0  0  0  0  0  0  0  0  0  0  0  0
   46.9190   34.2550   40.7030 C   0  0  0  0  0  0  0  0  0  0  0  0
   45.7230   32.7410   47.0720 C   0  0  0  0  0  0  0  0  0  0  0  0
   45.9050   32.7010   45.6900 C   0  0  0  0  0  0  0  0  0  0  0  0
   45.8880   31.4290   45.0310 C   0  0  0  0  0  0  0  0  0  0  0  0
   45.6990   30.3180   45.7880 N   0  0  0  0  0  0  0  0  0  0  0  0
   45.5260   30.3980   47.1320 C   0  0  0  0  0  0  0  0  0  0  0  0
   45.5390   31.5890   47.7510 N   0  0  0  0  0  0  0  0  0  0  0  0
   45.3240   29.1280   47.8800 C   0  0  0  0  0  0  0  0  0  0  0  0
   46.2900   27.9680   47.5290 C   0  0  0  0  0  0  0  0  0  0  0  0
   44.7730   27.9200   47.2600 C   0  0  0  0  0  0  0  0  0  0  0  0
   46.9472   34.4948   45.4670 H   0  0  0  0  0  0  0  0  0  0  0  0
   44.0600   34.6096   45.7411 H   0  0  0  0  0  0  0  0  0  0  0  0
   43.8067   36.4013   43.9345 H   0  0  0  0  0  0  0  0  0  0  0  0
   46.1102   37.0471   43.0633 H   0  0  0  0  0  0  0  0  0  0  0  0
   45.2854   35.7983   41.9842 H   0  0  0  0  0  0  0  0  0  0  0  0
   47.6195   35.6145   43.7333 H   0  0  0  0  0  0  0  0  0  0  0  0
   45.8694   33.2980   42.9481 H   0  0  0  0  0  0  0  0  0  0  0  0
   47.5395   33.1641   43.5559 H   0  0  0  0  0  0  0  0  0  0  0  0
   49.4570   36.0889   41.7880 H   0  0  0  0  0  0  0  0  0  0  0  0
   49.6115   35.2580   39.3422 H   0  0  0  0  0  0  0  0  0  0  0  0
   48.2014   33.7685   37.5121 H   0  0  0  0  0  0  0  0  0  0  0  0
   46.0692   32.5010   37.3642 H   0  0  0  0  0  0  0  0  0  0  0  0
   44.4840   32.3202   39.2429 H   0  0  0  0  0  0  0  0  0  0  0  0
   45.0654   33.4593   41.3714 H   0  0  0  0  0  0  0  0  0  0  0  0
   45.7293   33.7035   47.6045 H   0  0  0  0  0  0  0  0  0  0  0  0
   46.0243   31.3546   43.9420 H   0  0  0  0  0  0  0  0  0  0  0  0
   45.0254   29.6885   48.7782 H   0  0  0  0  0  0  0  0  0  0  0  0
   47.0027   28.0661   46.6968 H   0  0  0  0  0  0  0  0  0  0  0  0
   47.0241   27.3510   48.0680 H   0  0  0  0  0  0  0  0  0  0  0  0
   44.4021   27.9599   46.2252 H   0  0  0  0  0  0  0  0  0  0  0  0
   43.9691   27.2192   47.5296 H   0  0  0  0  0  0  0  0  0  0  0  0
  1  2  1  0
  1 17  1  0
  3  2  2  0
  4  5  1  0
  4  3  1  0
  5  6  1  0
  6  1  1  0
  7  5  1  0
  8  7  2  0
  9  8  1  0
 10  9  1  0
 10 15  2  0
 11 10  1  0
 12 11  2  0
 12 13  1  0
 13 14  2  0
 14 15  1  0
 15  7  1  0
 16 21  2  0
 17 16  1  0
 18 17  2  0
 18 19  1  0
 19 20  2  0
 20 21  1  0
 20 22  1  0
 23 22  1  0
 24 23  1  0
 24 22  1  0
  1 25  1  1
  2 26  1  0
  3 27  1  0
  4 28  1  0
  4 29  1  0
  5 30  1  1
  6 31  1  0
  6 32  1  0
  8 33  1  0
  9 34  1  0
 11 35  1  0
 12 36  1  0
 13 37  1  0
 14 38  1  0
 16 39  1  0
 18 40  1  0
 22 41  1  0
 23 42  1  0
 23 43  1  0
 24 44  1  0
 24 45  1  0
M  ISO  8  25  13  26  13  27  13  28  13  29  13  30  13  31  13  32  13
M  ISO  8  33  14  34   9  35  14  36  14  37  14  38  14  39  14  40  14
M  ISO  5  41  13  42  13  43  13  44  13  45  13
M  END
>  <minimizedAffinity>  (1) 
-6.46393728

>  <minimizedRMSD>  (1) 
0.628129601

$$$$
