
     RDKit          3D

 41 44  0  0  1  0  0  0  0  0999 V2000
   46.0560   34.1550   45.0310 C   0  0  2  0  0  0  0  0  0  0  0  0
   44.7600   34.9480   44.9970 C   0  0  0  0  0  0  0  0  0  0  0  0
   44.6210   35.8790   43.9000 C   0  0  0  0  0  0  0  0  0  0  0  0
   45.6670   36.0530   42.8940 C   0  0  0  0  0  0  0  0  0  0  0  0
   46.8670   35.2040   43.0450 C   0  0  1  0  0  0  0  0  0  0  0  0
   46.5940   33.9050   43.6660 C   0  0  0  0  0  0  0  0  0  0  0  0
   47.4720   34.9600   41.7150 C   0  0  0  0  0  0  0  0  0  0  0  0
   48.7210   35.3870   41.2750 C   0  0  0  0  0  0  0  0  0  0  0  0
   48.8050   34.9170   40.0270 N   0  0  0  0  0  0  0  0  0  0  0  0
   47.7110   34.2320   39.6520 C   0  0  0  0  0  0  0  0  0  0  0  0
   47.4470   33.6030   38.4350 C   0  0  0  0  0  0  0  0  0  0  0  0
   46.2240   32.9790   38.3720 C   0  0  0  0  0  0  0  0  0  0  0  0
   45.2970   32.9470   39.3920 C   0  0  0  0  0  0  0  0  0  0  0  0
   45.6550   33.6010   40.5590 C   0  0  0  0  0  0  0  0  0  0  0  0
   46.8470   34.2600   40.7490 C   0  0  0  0  0  0  0  0  0  0  0  0
   45.3910   33.0770   47.1530 C   0  0  0  0  0  0  0  0  0  0  0  0
   45.8480   32.9380   45.8430 C   0  0  0  0  0  0  0  0  0  0  0  0
   46.1250   31.6230   45.3440 C   0  0  0  0  0  0  0  0  0  0  0  0
   45.9240   30.5820   46.1860 N   0  0  0  0  0  0  0  0  0  0  0  0
   45.4830   30.7440   47.4490 C   0  0  0  0  0  0  0  0  0  0  0  0
   45.2200   31.9770   47.9240 N   0  0  0  0  0  0  0  0  0  0  0  0
   45.2820   29.5610   48.3300 C   0  0  0  0  0  0  0  0  0  0  0  0
   46.8472   34.7430   45.5192 H   0  0  0  0  0  0  0  0  0  0  0  0
   43.9770   34.8215   45.7592 H   0  0  0  0  0  0  0  0  0  0  0  0
   43.6998   36.4748   43.8198 H   0  0  0  0  0  0  0  0  0  0  0  0
   45.9928   37.1031   42.9272 H   0  0  0  0  0  0  0  0  0  0  0  0
   45.2106   35.7496   41.9402 H   0  0  0  0  0  0  0  0  0  0  0  0
   47.5483   35.7544   43.7105 H   0  0  0  0  0  0  0  0  0  0  0  0
   45.8541   33.3529   43.0679 H   0  0  0  0  0  0  0  0  0  0  0  0
   47.5145   33.3052   43.7207 H   0  0  0  0  0  0  0  0  0  0  0  0
   49.4677   35.9761   41.8276 H   0  0  0  0  0  0  0  0  0  0  0  0
   49.6217   35.0641   39.4169 H   0  0  0  0  0  0  0  0  0  0  0  0
   48.1583   33.6062   37.5959 H   0  0  0  0  0  0  0  0  0  0  0  0
   45.9646   32.4651   37.4347 H   0  0  0  0  0  0  0  0  0  0  0  0
   44.3306   32.4326   39.2852 H   0  0  0  0  0  0  0  0  0  0  0  0
   44.9362   33.5928   41.3916 H   0  0  0  0  0  0  0  0  0  0  0  0
   45.1704   34.0756   47.5582 H   0  0  0  0  0  0  0  0  0  0  0  0
   46.4867   31.4659   44.3171 H   0  0  0  0  0  0  0  0  0  0  0  0
   45.3353   29.8747   49.3830 H   0  0  0  0  0  0  0  0  0  0  0  0
   44.2956   29.1175   48.1290 H   0  0  0  0  0  0  0  0  0  0  0  0
   46.0665   28.8166   48.1290 H   0  0  0  0  0  0  0  0  0  0  0  0
  1 17  1  0
  2  1  1  0
  3  2  2  0
  4  5  1  0
  4  3  1  0
  5  6  1  0
  6  1  1  0
  7  5  1  0
  8  7  2  0
  9  8  1  0
 10  9  1  0
 10 15  2  0
 11 10  1  0
 12 11  2  0
 12 13  1  0
 13 14  2  0
 14 15  1  0
 15  7  1  0
 16 21  2  0
 17 16  1  0
 18 17  2  0
 18 19  1  0
 19 20  2  0
 20 21  1  0
 20 22  1  0
  1 23  1  1
  2 24  1  0
  3 25  1  0
  4 26  1  0
  4 27  1  0
  5 28  1  1
  6 29  1  0
  6 30  1  0
  8 31  1  0
  9 32  1  0
 11 33  1  0
 12 34  1  0
 13 35  1  0
 14 36  1  0
 16 37  1  0
 18 38  1  0
 22 39  1  0
 22 40  1  0
 22 41  1  0
M  ISO  8  23  13  24  13  25  13  26  13  27  13  28  13  29  13  30  13
M  ISO  8  31  14  32   9  33  14  34  14  35  14  36  14  37  14  38  14
M  ISO  3  39   8  40   8  41   8
M  END
>  <minimizedAffinity>  (1) 
-6.45529222

>  <minimizedRMSD>  (1) 
0.168183774

$$$$
