
     RDKit          3D

 44 47  0  0  1  0  0  0  0  0999 V2000
   46.0720   34.1750   45.0430 C   0  0  2  0  0  0  0  0  0  0  0  0
   44.7550   34.9480   45.0000 C   0  0  0  0  0  0  0  0  0  0  0  0
   44.6050   35.8670   43.8920 C   0  0  0  0  0  0  0  0  0  0  0  0
   45.6560   36.0420   42.8850 C   0  0  0  0  0  0  0  0  0  0  0  0
   46.8560   35.2070   43.0420 C   0  0  1  0  0  0  0  0  0  0  0  0
   46.5990   33.9070   43.6790 C   0  0  0  0  0  0  0  0  0  0  0  0
   47.4600   34.9470   41.7140 C   0  0  0  0  0  0  0  0  0  0  0  0
   48.7180   35.3560   41.2720 C   0  0  0  0  0  0  0  0  0  0  0  0
   48.7980   34.8790   40.0250 N   0  0  0  0  0  0  0  0  0  0  0  0
   47.6950   34.2080   39.6520 C   0  0  0  0  0  0  0  0  0  0  0  0
   47.4200   33.5730   38.4350 C   0  0  0  0  0  0  0  0  0  0  0  0
   46.1940   32.9700   38.3760 C   0  0  0  0  0  0  0  0  0  0  0  0
   45.2640   32.9530   39.3940 C   0  0  0  0  0  0  0  0  0  0  0  0
   45.6290   33.6090   40.5580 C   0  0  0  0  0  0  0  0  0  0  0  0
   46.8420   34.2580   40.7440 C   0  0  0  0  0  0  0  0  0  0  0  0
   45.3890   33.1090   47.1720 C   0  0  0  0  0  0  0  0  0  0  0  0
   45.8610   32.9570   45.8680 C   0  0  0  0  0  0  0  0  0  0  0  0
   46.1390   31.6340   45.3850 C   0  0  0  0  0  0  0  0  0  0  0  0
   45.9270   30.5960   46.2300 N   0  0  0  0  0  0  0  0  0  0  0  0
   45.4730   30.7760   47.4800 C   0  0  0  0  0  0  0  0  0  0  0  0
   45.2040   32.0190   47.9540 N   0  0  0  0  0  0  0  0  0  0  0  0
   45.2820   29.5550   48.3070 C   0  0  0  0  0  0  0  0  0  0  0  0
   44.9480   28.4420   47.3090 C   0  0  0  0  0  0  0  0  0  0  0  0
   46.8619   34.7755   45.5179 H   0  0  0  0  0  0  0  0  0  0  0  0
   43.9721   34.8149   45.7612 H   0  0  0  0  0  0  0  0  0  0  0  0
   43.6767   36.4503   43.8030 H   0  0  0  0  0  0  0  0  0  0  0  0
   45.9744   37.0945   42.9128 H   0  0  0  0  0  0  0  0  0  0  0  0
   45.2038   35.7284   41.9325 H   0  0  0  0  0  0  0  0  0  0  0  0
   47.5299   35.7751   43.7001 H   0  0  0  0  0  0  0  0  0  0  0  0
   45.8581   33.3420   43.0943 H   0  0  0  0  0  0  0  0  0  0  0  0
   47.5221   33.3110   43.7302 H   0  0  0  0  0  0  0  0  0  0  0  0
   49.4718   35.9377   41.8228 H   0  0  0  0  0  0  0  0  0  0  0  0
   49.6176   35.0118   39.4155 H   0  0  0  0  0  0  0  0  0  0  0  0
   48.1311   33.5602   37.5958 H   0  0  0  0  0  0  0  0  0  0  0  0
   45.9280   32.4567   37.4402 H   0  0  0  0  0  0  0  0  0  0  0  0
   44.2918   32.4493   39.2881 H   0  0  0  0  0  0  0  0  0  0  0  0
   44.9099   33.6162   41.3904 H   0  0  0  0  0  0  0  0  0  0  0  0
   45.1675   34.1125   47.5643 H   0  0  0  0  0  0  0  0  0  0  0  0
   46.5116   31.4684   44.3634 H   0  0  0  0  0  0  0  0  0  0  0  0
   46.2029   29.3148   48.8587 H   0  0  0  0  0  0  0  0  0  0  0  0
   44.4881   29.6865   49.0570 H   0  0  0  0  0  0  0  0  0  0  0  0
   44.6738   27.5284   47.8569 H   0  0  0  0  0  0  0  0  0  0  0  0
   44.1049   28.7573   46.6767 H   0  0  0  0  0  0  0  0  0  0  0  0
   45.8254   28.2410   46.6767 H   0  0  0  0  0  0  0  0  0  0  0  0
  1 17  1  0
  2  1  1  0
  3  2  2  0
  4  5  1  0
  4  3  1  0
  5  6  1  0
  6  1  1  0
  7  5  1  0
  8  7  2  0
  9  8  1  0
 10  9  1  0
 10 15  2  0
 11 10  1  0
 12 11  2  0
 12 13  1  0
 13 14  2  0
 14 15  1  0
 15  7  1  0
 16 21  2  0
 17 16  1  0
 18 17  2  0
 18 19  1  0
 19 20  2  0
 20 21  1  0
 20 22  1  0
 23 22  1  0
  1 24  1  1
  2 25  1  0
  3 26  1  0
  4 27  1  0
  4 28  1  0
  5 29  1  1
  6 30  1  0
  6 31  1  0
  8 32  1  0
  9 33  1  0
 11 34  1  0
 12 35  1  0
 13 36  1  0
 14 37  1  0
 16 38  1  0
 18 39  1  0
 22 40  1  0
 22 41  1  0
 23 42  1  0
 23 43  1  0
 23 44  1  0
M  ISO  8  24  13  25  13  26  13  27  13  28  13  29  13  30  13  31  13
M  ISO  8  32  14  33   9  34  14  35  14  36  14  37  14  38  14  39  14
M  ISO  5  40   8  41   8  42   8  43   8  44   8
M  END
>  <minimizedAffinity>  (1) 
-6.40659142

>  <minimizedRMSD>  (1) 
0.408953518

$$$$
