
     RDKit          3D

 45 49  0  0  1  0  0  0  0  0999 V2000
   46.2110   33.6480   44.8240 C   0  0  2  0  0  0  0  0  0  0  0  0
   44.9730   34.5240   44.9660 C   0  0  0  0  0  0  0  0  0  0  0  0
   44.8880   35.6330   44.0390 C   0  0  0  0  0  0  0  0  0  0  0  0
   45.9280   35.8980   43.0460 C   0  0  0  0  0  0  0  0  0  0  0  0
   47.0560   34.9530   43.0080 C   0  0  1  0  0  0  0  0  0  0  0  0
   46.6960   33.5850   43.4190 C   0  0  0  0  0  0  0  0  0  0  0  0
   47.6020   34.8820   41.6330 C   0  0  0  0  0  0  0  0  0  0  0  0
   48.7670   35.4870   41.1670 C   0  0  0  0  0  0  0  0  0  0  0  0
   48.8300   35.1320   39.8860 N   0  0  0  0  0  0  0  0  0  0  0  0
   47.8020   34.3530   39.5070 C   0  0  0  0  0  0  0  0  0  0  0  0
   47.5300   33.7880   38.2560 C   0  0  0  0  0  0  0  0  0  0  0  0
   46.3910   33.0350   38.2000 C   0  0  0  0  0  0  0  0  0  0  0  0
   45.5320   32.8110   39.2660 C   0  0  0  0  0  0  0  0  0  0  0  0
   45.8870   33.4130   40.4610 C   0  0  0  0  0  0  0  0  0  0  0  0
   47.0070   34.1910   40.6380 C   0  0  0  0  0  0  0  0  0  0  0  0
   45.8060   32.2460   46.8220 C   0  0  0  0  0  0  0  0  0  0  0  0
   45.9210   32.3300   45.4340 C   0  0  0  0  0  0  0  0  0  0  0  0
   45.7830   31.1350   44.6610 C   0  0  0  0  0  0  0  0  0  0  0  0
   45.5460   29.9740   45.3140 N   0  0  0  0  0  0  0  0  0  0  0  0
   45.4400   29.9230   46.6600 C   0  0  0  0  0  0  0  0  0  0  0  0
   45.5680   31.0390   47.3960 N   0  0  0  0  0  0  0  0  0  0  0  0
   45.1850   28.6360   47.2940 C   0  0  0  0  0  0  0  0  0  0  0  0
   45.1500   27.4020   46.6820 C   0  0  0  0  0  0  0  0  0  0  0  0
   44.8860   26.4430   47.5950 N   0  0  0  0  0  0  0  0  0  0  0  0
   44.7500   27.0450   48.7930 C   0  0  0  0  0  0  0  0  0  0  0  0
   44.9330   28.3790   48.6080 N   0  0  0  0  0  0  0  0  0  0  0  0
   47.0576   34.0911   45.3689 H   0  0  0  0  0  0  0  0  0  0  0  0
   44.1972   34.3277   45.7207 H   0  0  0  0  0  0  0  0  0  0  0  0
   44.0127   36.2977   44.0832 H   0  0  0  0  0  0  0  0  0  0  0  0
   45.4525   35.8909   42.0541 H   0  0  0  0  0  0  0  0  0  0  0  0
   46.3673   36.8641   43.3353 H   0  0  0  0  0  0  0  0  0  0  0  0
   47.7951   35.3382   43.7258 H   0  0  0  0  0  0  0  0  0  0  0  0
   45.9020   33.1942   42.7657 H   0  0  0  0  0  0  0  0  0  0  0  0
   47.5669   32.9175   43.3415 H   0  0  0  0  0  0  0  0  0  0  0  0
   49.4736   36.1149   41.7295 H   0  0  0  0  0  0  0  0  0  0  0  0
   49.5871   35.4235   39.2514 H   0  0  0  0  0  0  0  0  0  0  0  0
   48.1834   33.9386   37.3840 H   0  0  0  0  0  0  0  0  0  0  0  0
   46.1358   32.5710   37.2359 H   0  0  0  0  0  0  0  0  0  0  0  0
   44.6264   32.1943   39.1680 H   0  0  0  0  0  0  0  0  0  0  0  0
   45.2282   33.2584   41.3282 H   0  0  0  0  0  0  0  0  0  0  0  0
   45.9070   33.1475   47.4441 H   0  0  0  0  0  0  0  0  0  0  0  0
   45.8673   31.1590   43.5645 H   0  0  0  0  0  0  0  0  0  0  0  0
   45.3130   27.2245   45.6087 H   0  0  0  0  0  0  0  0  0  0  0  0
   44.5304   26.5464   49.7486 H   0  0  0  0  0  0  0  0  0  0  0  0
   44.8878   29.0905   49.3514 H   0  0  0  0  0  0  0  0  0  0  0  0
  1  2  1  0
  1 17  1  0
  3  2  2  0
  4  3  1  0
  5  4  1  0
  5  6  1  0
  6  1  1  0
  7  5  1  0
  8  7  2  0
  9  8  1  0
 10  9  1  0
 10 15  2  0
 11 10  1  0
 12 11  2  0
 12 13  1  0
 13 14  2  0
 14 15  1  0
 15  7  1  0
 16 21  2  0
 17 16  1  0
 18 19  1  0
 18 17  2  0
 19 20  2  0
 20 22  1  0
 20 21  1  0
 22 26  1  0
 23 22  2  0
 23 24  1  0
 24 25  2  0
 26 25  1  0
  1 27  1  1
  2 28  1  0
  3 29  1  0
  4 30  1  0
  4 31  1  0
  5 32  1  1
  6 33  1  0
  6 34  1  0
  8 35  1  0
  9 36  1  0
 11 37  1  0
 12 38  1  0
 13 39  1  0
 14 40  1  0
 16 41  1  0
 18 42  1  0
 23 43  1  0
 25 44  1  0
 26 45  1  0
M  ISO  8  27  13  28  13  29  13  30  13  31  13  32  13  33  13  34  13
M  ISO  8  35  14  36   9  37  14  38  14  39  14  40  14  41  14  42  14
M  ISO  3  43  14  44  14  45   9
M  END
>  <minimizedAffinity>  (1) 
-6.39586973

>  <minimizedRMSD>  (1) 
0.990925968

$$$$
