
     RDKit          3D

 53 57  0  0  0  0  0  0  0  0999 V2000
   46.8830   34.8720   41.7840 C   0  0  0  0  0  0  0  0  0  0  0  0
   48.1260   35.5150   41.7760 C   0  0  0  0  0  0  0  0  0  0  0  0
   49.0100   35.4950   40.7160 C   0  0  0  0  0  0  0  0  0  0  0  0
   48.6630   34.8030   39.5880 C   0  0  0  0  0  0  0  0  0  0  0  0
   47.4370   34.1370   39.5240 C   0  0  0  0  0  0  0  0  0  0  0  0
   47.0870   33.4570   38.3930 C   0  0  0  0  0  0  0  0  0  0  0  0
   45.8870   32.8060   38.2840 C   0  0  0  0  0  0  0  0  0  0  0  0
   45.0520   32.8850   39.4000 C   0  0  0  0  0  0  0  0  0  0  0  0
   45.4500   33.5790   40.5120 C   0  0  0  0  0  0  0  0  0  0  0  0
   46.6340   34.2150   40.6140 C   0  0  0  0  0  0  0  0  0  0  0  0
   44.5000   35.8320   44.5740 C   0  0  0  0  0  0  0  0  0  0  0  0
   45.1520   35.8760   43.3560 C   0  0  0  0  0  0  0  0  0  0  0  0
   46.1140   34.9700   42.9710 C   0  0  0  0  0  0  0  0  0  0  0  0
   46.3530   34.0170   43.9410 N   0  0  0  0  0  0  0  0  0  0  0  0
   45.7410   33.9490   45.1200 C   0  0  0  0  0  0  0  0  0  0  0  0
   44.8200   34.8640   45.4170 N   0  0  0  0  0  0  0  0  0  0  0  0
   46.0670   32.9000   46.0180 N   0  0  0  0  0  0  0  0  0  0  0  0
   45.3200   32.7280   47.1310 C   0  0  0  0  0  0  0  0  0  0  0  0
   45.6480   31.7030   47.9890 C   0  0  0  0  0  0  0  0  0  0  0  0
   46.7320   30.9070   47.6510 C   0  0  0  0  0  0  0  0  0  0  0  0
   47.0590   29.9530   48.4210 O   0  0  0  0  0  0  0  0  0  0  0  0
   47.4430   31.1180   46.5330 N   0  0  0  0  0  0  0  0  0  0  0  0
   47.0970   32.1230   45.7220 C   0  0  0  0  0  0  0  0  0  0  0  0
   47.7980   32.2740   44.6900 O   0  0  0  0  0  0  0  0  0  0  0  0
   44.8930   31.4390   49.2350 C   0  0  0  0  0  0  0  0  0  0  0  0
   44.3520   33.4290   41.4080 N   0  0  0  0  0  0  0  0  0  0  0  0
   43.9060   32.6100   42.5100 C   0  0  0  0  0  0  0  0  0  0  0  0
   42.6480   31.8170   42.1180 C   0  0  0  0  0  0  0  0  0  0  0  0
   41.7100   32.7070   41.5140 N   0  0  0  0  0  0  0  0  0  0  0  0
   42.0500   34.0850   41.7250 C   0  0  0  0  0  0  0  0  0  0  0  0
   43.3440   34.4550   41.0480 C   0  0  0  0  0  0  0  0  0  0  0  0
   48.4187   36.0749   42.6764 H   0  0  0  0  0  0  0  0  0  0  0  0
   49.9725   36.0240   40.7769 H   0  0  0  0  0  0  0  0  0  0  0  0
   49.3507   34.7711   38.7301 H   0  0  0  0  0  0  0  0  0  0  0  0
   47.7882   33.4313   37.5459 H   0  0  0  0  0  0  0  0  0  0  0  0
   45.5996   32.2563   37.3756 H   0  0  0  0  0  0  0  0  0  0  0  0
   44.0707   32.3881   39.3864 H   0  0  0  0  0  0  0  0  0  0  0  0
   43.7371   36.5803   44.8348 H   0  0  0  0  0  0  0  0  0  0  0  0
   44.8870   36.6808   42.6545 H   0  0  0  0  0  0  0  0  0  0  0  0
   44.4696   33.3917   47.3462 H   0  0  0  0  0  0  0  0  0  0  0  0
   48.2447   30.5138   46.3026 H   0  0  0  0  0  0  0  0  0  0  0  0
   45.5299   31.6617   50.1038 H   0  0  0  0  0  0  0  0  0  0  0  0
   43.9977   32.0774   49.2634 H   0  0  0  0  0  0  0  0  0  0  0  0
   44.5906   30.3818   49.2634 H   0  0  0  0  0  0  0  0  0  0  0  0
   44.7059   31.9068   42.7852 H   0  0  0  0  0  0  0  0  0  0  0  0
   43.6640   33.2620   43.3623 H   0  0  0  0  0  0  0  0  0  0  0  0
   42.9183   31.0252   41.4039 H   0  0  0  0  0  0  0  0  0  0  0  0
   42.2030   31.3578   43.0130 H   0  0  0  0  0  0  0  0  0  0  0  0
   40.7790   32.5304   41.9177 H   0  0  0  0  0  0  0  0  0  0  0  0
   41.2444   34.7158   41.3211 H   0  0  0  0  0  0  0  0  0  0  0  0
   42.1739   34.2436   42.8064 H   0  0  0  0  0  0  0  0  0  0  0  0
   43.6775   35.4448   41.3931 H   0  0  0  0  0  0  0  0  0  0  0  0
   43.2094   34.4960   39.9570 H   0  0  0  0  0  0  0  0  0  0  0  0
  1 13  1  0
  2  1  2  0
  3  2  1  0
  4  3  2  0
  5  4  1  0
  5 10  2  0
  6  5  1  0
  7  6  2  0
  7  8  1  0
  8  9  2  0
  9 10  1  0
  9 26  1  0
 10  1  1  0
 11 16  2  0
 12 11  1  0
 13 12  2  0
 13 14  1  0
 14 15  2  0
 15 16  1  0
 15 17  1  0
 17 18  1  0
 18 19  2  0
 19 25  1  0
 20 19  1  0
 20 21  2  0
 22 20  1  0
 23 17  1  0
 23 22  1  0
 24 23  2  0
 26 27  1  0
 28 27  1  0
 29 30  1  0
 29 28  1  0
 31 26  1  0
 31 30  1  0
  2 32  1  0
  3 33  1  0
  4 34  1  0
  6 35  1  0
  7 36  1  0
  8 37  1  0
 11 38  1  0
 12 39  1  0
 18 40  1  0
 22 41  1  0
 25 42  1  0
 25 43  1  0
 25 44  1  0
 27 45  1  0
 27 46  1  0
 28 47  1  0
 28 48  1  0
 29 49  1  0
 30 50  1  0
 30 51  1  0
 31 52  1  0
 31 53  1  0
M  ISO  8  32  14  33  14  34  14  35  14  36  14  37  14  38  14  39  14
M  ISO  8  40  14  41   9  42   8  43   8  44   8  45  13  46  13  47  13
M  ISO  6  48  13  49   5  50  13  51  13  52  13  53  13
M  END
>  <minimizedAffinity>  (1) 
-8.11871433

>  <minimizedRMSD>  (1) 
1.04657626

$$$$
