
     RDKit          3D

 52 56  0  0  0  0  0  0  0  0999 V2000
   44.5190   35.8040   44.5340 C   0  0  0  0  0  0  0  0  0  0  0  0
   45.1770   35.8710   43.3220 C   0  0  0  0  0  0  0  0  0  0  0  0
   46.1380   34.9560   42.9290 C   0  0  0  0  0  0  0  0  0  0  0  0
   46.3500   33.9930   43.8900 N   0  0  0  0  0  0  0  0  0  0  0  0
   45.7280   33.9110   45.0620 C   0  0  0  0  0  0  0  0  0  0  0  0
   44.8210   34.8180   45.3660 N   0  0  0  0  0  0  0  0  0  0  0  0
   46.0540   32.8490   45.9510 N   0  0  0  0  0  0  0  0  0  0  0  0
   45.3040   32.6510   47.0510 C   0  0  0  0  0  0  0  0  0  0  0  0
   45.6380   31.6210   47.8960 C   0  0  0  0  0  0  0  0  0  0  0  0
   46.7300   30.8380   47.5660 C   0  0  0  0  0  0  0  0  0  0  0  0
   47.0620   29.8750   48.3290 O   0  0  0  0  0  0  0  0  0  0  0  0
   47.4540   31.0700   46.4540 N   0  0  0  0  0  0  0  0  0  0  0  0
   47.0970   32.0760   45.6660 C   0  0  0  0  0  0  0  0  0  0  0  0
   47.8130   32.2500   44.6370 O   0  0  0  0  0  0  0  0  0  0  0  0
   46.9220   34.8740   41.7540 C   0  0  0  0  0  0  0  0  0  0  0  0
   48.1400   35.5590   41.7480 C   0  0  0  0  0  0  0  0  0  0  0  0
   49.0310   35.5750   40.6980 C   0  0  0  0  0  0  0  0  0  0  0  0
   48.7110   34.8700   39.5690 C   0  0  0  0  0  0  0  0  0  0  0  0
   47.5100   34.1610   39.5010 C   0  0  0  0  0  0  0  0  0  0  0  0
   47.2040   33.4490   38.3710 C   0  0  0  0  0  0  0  0  0  0  0  0
   46.0270   32.7260   38.2750 C   0  0  0  0  0  0  0  0  0  0  0  0
   45.1980   32.7760   39.3870 C   0  0  0  0  0  0  0  0  0  0  0  0
   45.5550   33.5040   40.4900 C   0  0  0  0  0  0  0  0  0  0  0  0
   46.6990   34.2070   40.5870 C   0  0  0  0  0  0  0  0  0  0  0  0
   44.4400   33.3070   41.3440 N   0  0  0  0  0  0  0  0  0  0  0  0
   43.2200   33.9300   41.8120 C   0  0  0  0  0  0  0  0  0  0  0  0
   41.9980   33.1760   41.2780 C   0  0  0  0  0  0  0  0  0  0  0  0
   42.0630   31.8330   41.6550 O   0  0  0  0  0  0  0  0  0  0  0  0
   43.1160   31.6080   42.5410 C   0  0  0  0  0  0  0  0  0  0  0  0
   44.4640   31.9750   41.9870 C   0  0  0  0  0  0  0  0  0  0  0  0
   44.8800   31.3450   49.1440 C   0  0  0  0  0  0  0  0  0  0  0  0
   43.7601   36.5534   44.8032 H   0  0  0  0  0  0  0  0  0  0  0  0
   44.9249   36.6922   42.6349 H   0  0  0  0  0  0  0  0  0  0  0  0
   44.4427   33.2997   47.2684 H   0  0  0  0  0  0  0  0  0  0  0  0
   48.2657   30.4803   46.2209 H   0  0  0  0  0  0  0  0  0  0  0  0
   48.4073   36.1286   42.6503 H   0  0  0  0  0  0  0  0  0  0  0  0
   49.9734   36.1385   40.7646 H   0  0  0  0  0  0  0  0  0  0  0  0
   49.4019   34.8620   38.7131 H   0  0  0  0  0  0  0  0  0  0  0  0
   47.9064   33.4518   37.5244 H   0  0  0  0  0  0  0  0  0  0  0  0
   45.7659   32.1492   37.3755 H   0  0  0  0  0  0  0  0  0  0  0  0
   44.2456   32.2257   39.3820 H   0  0  0  0  0  0  0  0  0  0  0  0
   43.2036   33.9145   42.9118 H   0  0  0  0  0  0  0  0  0  0  0  0
   43.1865   34.9677   41.4487 H   0  0  0  0  0  0  0  0  0  0  0  0
   41.9780   33.2457   40.1804 H   0  0  0  0  0  0  0  0  0  0  0  0
   41.0853   33.6248   41.6970 H   0  0  0  0  0  0  0  0  0  0  0  0
   42.9396   32.2049   43.4480 H   0  0  0  0  0  0  0  0  0  0  0  0
   43.1372   30.5274   42.7455 H   0  0  0  0  0  0  0  0  0  0  0  0
   44.7610   31.2230   41.2411 H   0  0  0  0  0  0  0  0  0  0  0  0
   45.1830   32.0056   42.8189 H   0  0  0  0  0  0  0  0  0  0  0  0
   45.5114   31.5749   50.0149 H   0  0  0  0  0  0  0  0  0  0  0  0
   43.9765   31.9718   49.1704 H   0  0  0  0  0  0  0  0  0  0  0  0
   44.5911   30.2840   49.1704 H   0  0  0  0  0  0  0  0  0  0  0  0
  1  6  2  0
  2  1  1  0
  3  2  2  0
  3  4  1  0
  4  5  2  0
  5  6  1  0
  5  7  1  0
  7  8  1  0
  8  9  2  0
  9 31  1  0
 10  9  1  0
 10 11  2  0
 12 10  1  0
 13  7  1  0
 13 12  1  0
 14 13  2  0
 15  3  1  0
 16 15  2  0
 17 16  1  0
 18 17  2  0
 19 18  1  0
 19 24  2  0
 20 19  1  0
 21 20  2  0
 21 22  1  0
 22 23  2  0
 23 24  1  0
 23 25  1  0
 24 15  1  0
 25 26  1  0
 25 30  1  0
 27 28  1  0
 27 26  1  0
 28 29  1  0
 30 29  1  0
  1 32  1  0
  2 33  1  0
  8 34  1  0
 12 35  1  0
 16 36  1  0
 17 37  1  0
 18 38  1  0
 20 39  1  0
 21 40  1  0
 22 41  1  0
 26 42  1  0
 26 43  1  0
 27 44  1  0
 27 45  1  0
 29 46  1  0
 29 47  1  0
 30 48  1  0
 30 49  1  0
 31 50  1  0
 31 51  1  0
 31 52  1  0
M  ISO  8  32  14  33  14  34  14  35   9  36  14  37  14  38  14  39  14
M  ISO  8  40  14  41  14  42  13  43  13  44  13  45  13  46  13  47  13
M  ISO  5  48  13  49  13  50   8  51   8  52   8
M  END
>  <minimizedAffinity>  (1) 
-7.80312538

>  <minimizedRMSD>  (1) 
0.560887218

$$$$
