
     RDKit          3D

 33 36  0  0  1  0  0  0  0  0999 V2000
   48.1860   33.3810   39.1830 C   0  0  2  0  0  0  0  0  0  0  0  0
   48.3130   34.2110   37.8740 C   0  0  0  0  0  0  0  0  0  0  0  0
   48.1150   32.6800   37.8750 C   0  0  1  0  0  0  0  0  0  0  0  0
   45.6930   34.0770   41.7200 N   0  0  0  0  0  0  0  0  0  0  0  0
   44.8910   33.8420   40.6360 C   0  0  0  0  0  0  0  0  0  0  0  0
   45.6340   33.5530   39.5500 N   0  0  0  0  0  0  0  0  0  0  0  0
   46.9370   33.6080   39.9650 C   0  0  0  0  0  0  0  0  0  0  0  0
   46.9020   33.9220   41.2560 N   0  0  0  0  0  0  0  0  0  0  0  0
   44.7880   35.6850   43.2550 C   0  0  0  0  0  0  0  0  0  0  0  0
   45.3920   34.4110   43.0520 C   0  0  0  0  0  0  0  0  0  0  0  0
   45.6290   33.6270   44.1470 C   0  0  0  0  0  0  0  0  0  0  0  0
   45.2630   34.1300   45.3650 N   0  0  0  0  0  0  0  0  0  0  0  0
   44.7030   35.3160   45.5340 C   0  0  0  0  0  0  0  0  0  0  0  0
   44.4630   36.0990   44.4690 N   0  0  0  0  0  0  0  0  0  0  0  0
   49.2010   31.7930   37.5240 C   0  0  0  0  0  0  0  0  0  0  0  0
   48.9120   30.5420   37.4030 O   0  0  0  0  0  0  0  0  0  0  0  0
   50.4910   32.2380   37.3250 O   0  0  0  0  0  0  0  0  0  0  0  0
   51.4540   31.8240   38.2440 C   0  0  0  0  0  0  0  0  0  0  0  0
   52.7780   31.6000   37.8660 C   0  0  0  0  0  0  0  0  0  0  0  0
   53.3940   31.2150   39.0280 C   0  0  0  0  0  0  0  0  0  0  0  0
   52.4830   31.2100   40.0500 C   0  0  0  0  0  0  0  0  0  0  0  0
   51.3210   31.5870   39.5210 O   0  0  0  0  0  0  0  0  0  0  0  0
   48.7924   33.2195   40.0864 H   0  0  0  0  0  0  0  0  0  0  0  0
   49.2796   34.6478   37.5826 H   0  0  0  0  0  0  0  0  0  0  0  0
   47.7997   35.0771   37.4308 H   0  0  0  0  0  0  0  0  0  0  0  0
   47.3915   32.0169   37.3781 H   0  0  0  0  0  0  0  0  0  0  0  0
   43.7919   33.8834   40.6497 H   0  0  0  0  0  0  0  0  0  0  0  0
   44.5888   36.3343   42.3897 H   0  0  0  0  0  0  0  0  0  0  0  0
   46.0940   32.6346   44.0523 H   0  0  0  0  0  0  0  0  0  0  0  0
   44.4345   35.6604   46.5436 H   0  0  0  0  0  0  0  0  0  0  0  0
   53.2243   31.7075   36.8664 H   0  0  0  0  0  0  0  0  0  0  0  0
   54.4573   30.9505   39.1248 H   0  0  0  0  0  0  0  0  0  0  0  0
   52.6736   30.9465   41.1008 H   0  0  0  0  0  0  0  0  0  0  0  0
  1  7  1  0
  2  3  1  0
  2  1  1  0
  3  1  1  0
  4 10  1  0
  5  4  1  0
  6  7  1  0
  6  5  2  0
  7  8  2  0
  8  4  1  0
  9 14  2  0
 10  9  1  0
 10 11  2  0
 11 12  1  0
 12 13  2  0
 14 13  1  0
 15  3  1  0
 16 15  2  0
 17 15  1  0
 17 18  1  0
 18 22  1  0
 19 18  2  0
 19 20  1  0
 20 21  2  0
 22 21  1  0
  1 23  1  1
  2 24  1  0
  2 25  1  0
  3 26  1  6
  5 27  1  0
  9 28  1  0
 11 29  1  0
 13 30  1  0
 19 31  1  0
 20 32  1  0
 21 33  1  0
M  ISO  8  23  13  24  13  25  13  26  13  27  14  28  14  29  14  30  14
M  ISO  3  31  14  32  14  33  14
M  END
>  <minimizedAffinity>  (1) 
-4.51752043

>  <minimizedRMSD>  (1) 
1.39306009

$$$$
