
     RDKit          3D

 30 32  0  0  1  0  0  0  0  0999 V2000
   42.7470   34.8330   40.9080 C   0  0  2  0  0  0  0  0  0  0  0  0
   43.1900   34.2870   39.5520 C   0  0  0  0  0  0  0  0  0  0  0  0
   42.0420   35.2710   39.7140 C   0  0  1  0  0  0  0  0  0  0  0  0
   40.6960   34.7210   39.3960 C   0  0  0  0  0  0  0  0  0  0  0  0
   40.2500   34.6810   38.0790 C   0  0  0  0  0  0  0  0  0  0  0  0
   39.0150   34.1790   37.7600 C   0  0  0  0  0  0  0  0  0  0  0  0
   38.2000   33.7020   38.7860 C   0  0  0  0  0  0  0  0  0  0  0  0
   38.5990   33.7200   40.1170 C   0  0  0  0  0  0  0  0  0  0  0  0
   39.8670   34.2400   40.4020 C   0  0  0  0  0  0  0  0  0  0  0  0
   43.7550   35.6880   41.6160 C   0  0  0  0  0  0  0  0  0  0  0  0
   44.3070   35.9070   44.0080 C   0  0  0  0  0  0  0  0  0  0  0  0
   44.2990   35.1230   42.8450 C   0  0  0  0  0  0  0  0  0  0  0  0
   44.8130   33.8320   42.9180 C   0  0  0  0  0  0  0  0  0  0  0  0
   45.3000   33.3840   44.1060 N   0  0  0  0  0  0  0  0  0  0  0  0
   45.2910   34.1710   45.2120 C   0  0  0  0  0  0  0  0  0  0  0  0
   44.8040   35.4200   45.1810 N   0  0  0  0  0  0  0  0  0  0  0  0
   42.3776   34.4354   41.8648 H   0  0  0  0  0  0  0  0  0  0  0  0
   42.9931   33.2393   39.2808 H   0  0  0  0  0  0  0  0  0  0  0  0
   44.1281   34.2471   38.9789 H   0  0  0  0  0  0  0  0  0  0  0  0
   41.7874   36.2713   39.3338 H   0  0  0  0  0  0  0  0  0  0  0  0
   40.9013   35.0598   37.2776 H   0  0  0  0  0  0  0  0  0  0  0  0
   38.6734   34.1529   36.7147 H   0  0  0  0  0  0  0  0  0  0  0  0
   37.2085   33.2981   38.5334 H   0  0  0  0  0  0  0  0  0  0  0  0
   37.9442   33.3405   40.9152 H   0  0  0  0  0  0  0  0  0  0  0  0
   40.2147   34.2685   41.4452 H   0  0  0  0  0  0  0  0  0  0  0  0
   44.5921   35.8686   40.9256 H   0  0  0  0  0  0  0  0  0  0  0  0
   43.2222   36.6036   41.9124 H   0  0  0  0  0  0  0  0  0  0  0  0
   43.9061   36.9308   43.9735 H   0  0  0  0  0  0  0  0  0  0  0  0
   44.8252   33.1842   42.0290 H   0  0  0  0  0  0  0  0  0  0  0  0
   45.6928   33.7747   46.1562 H   0  0  0  0  0  0  0  0  0  0  0  0
  1 10  1  0
  2  3  1  0
  2  1  1  0
  3  1  1  0
  4  3  1  0
  4  9  1  0
  5  4  2  0
  6  5  1  0
  6  7  2  0
  7  8  1  0
  8  9  2  0
 10 12  1  0
 11 16  2  0
 12 13  2  0
 12 11  1  0
 13 14  1  0
 14 15  2  0
 16 15  1  0
  1 17  1  1
  2 18  1  0
  2 19  1  0
  3 20  1  6
  5 21  1  0
  6 22  1  0
  7 23  1  0
  8 24  1  0
  9 25  1  0
 10 26  1  0
 10 27  1  0
 11 28  1  0
 13 29  1  0
 15 30  1  0
M  ISO  8  17  13  18  13  19  13  20  13  21  14  22  14  23  14  24  14
M  ISO  6  25  14  26   8  27   8  28  14  29  14  30  14
M  END
>  <minimizedAffinity>  (1) 
-5.57679844

>  <minimizedRMSD>  (1) 
1.38819444

$$$$
