
     RDKit          3D

 30 32  0  0  1  0  0  0  0  0999 V2000
   42.7510   34.7560   40.9470 C   0  0  2  0  0  0  0  0  0  0  0  0
   43.1890   34.2810   39.5710 C   0  0  0  0  0  0  0  0  0  0  0  0
   41.9990   35.2070   39.7810 C   0  0  1  0  0  0  0  0  0  0  0  0
   40.6740   34.6920   39.4060 C   0  0  0  0  0  0  0  0  0  0  0  0
   39.8060   34.1850   40.3550 C   0  0  0  0  0  0  0  0  0  0  0  0
   38.5510   33.6920   40.0400 C   0  0  0  0  0  0  0  0  0  0  0  0
   38.1550   33.7130   38.7060 C   0  0  0  0  0  0  0  0  0  0  0  0
   39.0160   34.2210   37.7310 C   0  0  0  0  0  0  0  0  0  0  0  0
   40.2600   34.7060   38.0700 C   0  0  0  0  0  0  0  0  0  0  0  0
   43.7140   35.6590   41.6630 C   0  0  0  0  0  0  0  0  0  0  0  0
   44.2860   35.8940   44.0650 C   0  0  0  0  0  0  0  0  0  0  0  0
   44.2760   35.1190   42.8910 C   0  0  0  0  0  0  0  0  0  0  0  0
   44.8210   33.8370   42.9600 C   0  0  0  0  0  0  0  0  0  0  0  0
   45.3370   33.3870   44.1520 N   0  0  0  0  0  0  0  0  0  0  0  0
   45.3170   34.1750   45.2400 C   0  0  0  0  0  0  0  0  0  0  0  0
   44.8010   35.4210   45.2200 N   0  0  0  0  0  0  0  0  0  0  0  0
   42.4319   34.2950   41.8934 H   0  0  0  0  0  0  0  0  0  0  0  0
   43.0345   33.2351   39.2672 H   0  0  0  0  0  0  0  0  0  0  0  0
   44.1179   34.3041   38.9823 H   0  0  0  0  0  0  0  0  0  0  0  0
   41.6854   36.2111   39.4593 H   0  0  0  0  0  0  0  0  0  0  0  0
   40.1266   34.1727   41.4072 H   0  0  0  0  0  0  0  0  0  0  0  0
   37.8863   33.2953   40.8215 H   0  0  0  0  0  0  0  0  0  0  0  0
   37.1645   33.3297   38.4198 H   0  0  0  0  0  0  0  0  0  0  0  0
   38.6967   34.2341   36.6784 H   0  0  0  0  0  0  0  0  0  0  0  0
   40.9270   35.1038   37.2910 H   0  0  0  0  0  0  0  0  0  0  0  0
   44.5452   35.8812   40.9777 H   0  0  0  0  0  0  0  0  0  0  0  0
   43.1364   36.5476   41.9576 H   0  0  0  0  0  0  0  0  0  0  0  0
   43.8642   36.9096   44.0414 H   0  0  0  0  0  0  0  0  0  0  0  0
   44.8378   33.1921   42.0690 H   0  0  0  0  0  0  0  0  0  0  0  0
   45.7366   33.7901   46.1811 H   0  0  0  0  0  0  0  0  0  0  0  0
  1 10  1  0
  2  3  1  0
  2  1  1  0
  3  1  1  0
  4  3  1  0
  4  5  2  0
  6  5  1  0
  7  6  2  0
  8  9  2  0
  8  7  1  0
  9  4  1  0
 10 12  1  0
 11 16  2  0
 12 13  2  0
 12 11  1  0
 13 14  1  0
 14 15  2  0
 16 15  1  0
  1 17  1  1
  2 18  1  0
  2 19  1  0
  3 20  1  6
  5 21  1  0
  6 22  1  0
  7 23  1  0
  8 24  1  0
  9 25  1  0
 10 26  1  0
 10 27  1  0
 11 28  1  0
 13 29  1  0
 15 30  1  0
M  ISO  8  17  13  18  13  19  13  20  13  21  14  22  14  23  14  24  14
M  ISO  6  25  14  26   8  27   8  28  14  29  14  30  14
M  END
>  <minimizedAffinity>  (1) 
-5.56292725

>  <minimizedRMSD>  (1) 
1.48015094

$$$$
