
     RDKit          3D

 31 34  0  0  1  0  0  0  0  0999 V2000
   42.7320   34.8030   41.0500 C   0  0  2  0  0  0  0  0  0  0  0  0
   42.5650   35.0990   39.5500 C   0  0  0  0  0  0  0  0  0  0  0  0
   41.4900   35.4050   40.5820 C   0  0  1  0  0  0  0  0  0  0  0  0
   40.3050   34.5730   40.4540 N   0  0  0  0  0  0  0  0  0  0  0  0
   39.1870   34.8890   39.7850 C   0  0  0  0  0  0  0  0  0  0  0  0
   38.3370   33.8590   39.9080 N   0  0  0  0  0  0  0  0  0  0  0  0
   38.8880   32.8750   40.6490 C   0  0  0  0  0  0  0  0  0  0  0  0
   38.3810   31.6390   41.0320 C   0  0  0  0  0  0  0  0  0  0  0  0
   39.2200   30.8830   41.7930 N   0  0  0  0  0  0  0  0  0  0  0  0
   40.4330   31.3390   42.1220 C   0  0  0  0  0  0  0  0  0  0  0  0
   40.9120   32.5340   41.7460 N   0  0  0  0  0  0  0  0  0  0  0  0
   40.1400   33.3520   40.9860 C   0  0  0  0  0  0  0  0  0  0  0  0
   43.8250   35.5930   41.6970 C   0  0  0  0  0  0  0  0  0  0  0  0
   44.3070   35.8340   44.1290 C   0  0  0  0  0  0  0  0  0  0  0  0
   44.3530   35.0600   42.9390 C   0  0  0  0  0  0  0  0  0  0  0  0
   44.9180   33.7770   42.9850 C   0  0  0  0  0  0  0  0  0  0  0  0
   45.4030   33.3230   44.1870 N   0  0  0  0  0  0  0  0  0  0  0  0
   45.3390   34.0890   45.2870 C   0  0  0  0  0  0  0  0  0  0  0  0
   44.8060   35.3130   45.2670 N   0  0  0  0  0  0  0  0  0  0  0  0
   42.9073   33.9392   41.7082 H   0  0  0  0  0  0  0  0  0  0  0  0
   42.4307   34.2780   38.8304 H   0  0  0  0  0  0  0  0  0  0  0  0
   43.1167   35.6641   38.7843 H   0  0  0  0  0  0  0  0  0  0  0  0
   40.9333   36.2933   40.9154 H   0  0  0  0  0  0  0  0  0  0  0  0
   39.0007   35.8233   39.2351 H   0  0  0  0  0  0  0  0  0  0  0  0
   37.3766   31.2968   40.7420 H   0  0  0  0  0  0  0  0  0  0  0  0
   41.0773   30.6949   42.7385 H   0  0  0  0  0  0  0  0  0  0  0  0
   44.6573   35.6627   40.9812 H   0  0  0  0  0  0  0  0  0  0  0  0
   43.3720   36.5600   41.9612 H   0  0  0  0  0  0  0  0  0  0  0  0
   43.8705   36.8437   44.1217 H   0  0  0  0  0  0  0  0  0  0  0  0
   44.9712   33.1509   42.0821 H   0  0  0  0  0  0  0  0  0  0  0  0
   45.7378   33.6965   46.2340 H   0  0  0  0  0  0  0  0  0  0  0  0
  1 13  1  0
  2  3  1  0
  2  1  1  0
  3  1  1  0
  4  3  1  0
  4 12  1  0
  5  6  2  0
  5  4  1  0
  6  7  1  0
  7 12  2  0
  7  8  1  0
  8  9  2  0
  9 10  1  0
 11 10  2  0
 12 11  1  0
 13 15  1  0
 14 19  2  0
 15 16  2  0
 15 14  1  0
 16 17  1  0
 17 18  2  0
 19 18  1  0
  1 20  1  6
  2 21  1  0
  2 22  1  0
  3 23  1  1
  5 24  1  0
  8 25  1  0
 10 26  1  0
 13 27  1  0
 13 28  1  0
 14 29  1  0
 16 30  1  0
 18 31  1  0
M  ISO  8  20  13  21  13  22  13  23  13  24  14  25  14  26  14  27   8
M  ISO  4  28   8  29  14  30  14  31  14
M  END
>  <minimizedAffinity>  (1) 
-5.53148746

>  <minimizedRMSD>  (1) 
0.660816252

$$$$
