
     RDKit          3D

 31 34  0  0  1  0  0  0  0  0999 V2000
   48.3210   33.7160   39.1730 C   0  0  2  0  0  0  0  0  0  0  0  0
   48.2930   34.4250   37.7920 C   0  0  0  0  0  0  0  0  0  0  0  0
   48.3650   32.8930   37.9360 C   0  0  1  0  0  0  0  0  0  0  0  0
   45.7760   34.1340   41.7030 N   0  0  0  0  0  0  0  0  0  0  0  0
   44.9950   33.7730   40.6360 C   0  0  0  0  0  0  0  0  0  0  0  0
   45.7700   33.5640   39.5650 N   0  0  0  0  0  0  0  0  0  0  0  0
   47.0570   33.7970   39.9620 C   0  0  0  0  0  0  0  0  0  0  0  0
   47.0040   34.1340   41.2450 N   0  0  0  0  0  0  0  0  0  0  0  0
   44.8280   35.7120   43.2500 C   0  0  0  0  0  0  0  0  0  0  0  0
   45.4370   34.4560   43.0390 C   0  0  0  0  0  0  0  0  0  0  0  0
   45.6490   33.6610   44.1320 C   0  0  0  0  0  0  0  0  0  0  0  0
   45.2520   34.1480   45.3460 N   0  0  0  0  0  0  0  0  0  0  0  0
   44.6810   35.3290   45.5180 C   0  0  0  0  0  0  0  0  0  0  0  0
   44.4710   36.1100   44.4570 N   0  0  0  0  0  0  0  0  0  0  0  0
   49.5820   32.1670   37.6400 C   0  0  0  0  0  0  0  0  0  0  0  0
   49.7780   31.8350   36.4120 O   0  0  0  0  0  0  0  0  0  0  0  0
   50.4950   31.8390   38.6170 O   0  0  0  0  0  0  0  0  0  0  0  0
   51.7230   31.3030   38.2530 C   0  0  0  0  0  0  0  0  0  0  0  0
   51.9930   29.9770   38.2180 N   0  0  0  0  0  0  0  0  0  0  0  0
   53.2280   29.8100   37.8380 O   0  0  0  0  0  0  0  0  0  0  0  0
   53.8080   30.9840   37.6140 C   0  0  0  0  0  0  0  0  0  0  0  0
   52.8560   31.9230   37.8780 N   0  0  0  0  0  0  0  0  0  0  0  0
   48.9518   33.7483   40.0736 H   0  0  0  0  0  0  0  0  0  0  0  0
   49.1667   34.9930   37.4397 H   0  0  0  0  0  0  0  0  0  0  0  0
   47.6332   35.1430   37.2830 H   0  0  0  0  0  0  0  0  0  0  0  0
   47.7653   32.0717   37.5168 H   0  0  0  0  0  0  0  0  0  0  0  0
   43.9000   33.6708   40.6567 H   0  0  0  0  0  0  0  0  0  0  0  0
   44.6470   36.3734   42.3899 H   0  0  0  0  0  0  0  0  0  0  0  0
   46.1193   32.6711   44.0378 H   0  0  0  0  0  0  0  0  0  0  0  0
   44.3832   35.6627   46.5230 H   0  0  0  0  0  0  0  0  0  0  0  0
   54.8422   31.1615   37.2839 H   0  0  0  0  0  0  0  0  0  0  0  0
  1  7  1  0
  2  3  1  0
  2  1  1  0
  3  1  1  0
  4 10  1  0
  5  4  1  0
  6  7  1  0
  6  5  2  0
  7  8  2  0
  8  4  1  0
  9 14  2  0
 10  9  1  0
 10 11  2  0
 11 12  1  0
 12 13  2  0
 14 13  1  0
 15  3  1  0
 15 17  1  0
 16 15  2  0
 18 17  1  0
 19 18  2  0
 20 19  1  0
 21 20  1  0
 21 22  2  0
 22 18  1  0
  1 23  1  1
  2 24  1  0
  2 25  1  0
  3 26  1  6
  5 27  1  0
  9 28  1  0
 11 29  1  0
 13 30  1  0
 21 31  1  0
M  ISO  8  23  13  24  13  25  13  26  13  27  14  28  14  29  14  30  14
M  ISO  1  31  14
M  END
>  <minimizedAffinity>  (1) 
-4.50023317

>  <minimizedRMSD>  (1) 
0.800500393

$$$$
