
     RDKit          3D

 36 39  0  0  1  0  0  0  0  0999 V2000
   43.2980   34.2960   41.2240 C   0  0  2  0  0  0  0  0  0  0  0  0
   42.9640   34.7460   39.7940 C   0  0  0  0  0  0  0  0  0  0  0  0
   41.9480   34.7440   40.9310 C   0  0  1  0  0  0  0  0  0  0  0  0
   40.7850   33.9240   40.6530 C   0  0  0  0  0  0  0  0  0  0  0  0
   40.5100   33.0720   41.7340 C   0  0  0  0  0  0  0  0  0  0  0  0
   39.4080   32.2090   41.7210 C   0  0  0  0  0  0  0  0  0  0  0  0
   38.5800   32.1850   40.6460 C   0  0  0  0  0  0  0  0  0  0  0  0
   38.8220   33.0090   39.5670 C   0  0  0  0  0  0  0  0  0  0  0  0
   38.0580   33.0620   38.4210 C   0  0  0  0  0  0  0  0  0  0  0  0
   38.3700   33.9100   37.3680 C   0  0  0  0  0  0  0  0  0  0  0  0
   39.4860   34.7530   37.4320 C   0  0  0  0  0  0  0  0  0  0  0  0
   40.2490   34.7020   38.5710 C   0  0  0  0  0  0  0  0  0  0  0  0
   39.9120   33.8500   39.6030 C   0  0  0  0  0  0  0  0  0  0  0  0
   44.2800   35.2300   41.9060 C   0  0  0  0  0  0  0  0  0  0  0  0
   44.3260   35.7090   44.3290 C   0  0  0  0  0  0  0  0  0  0  0  0
   44.6530   34.8410   43.2670 C   0  0  0  0  0  0  0  0  0  0  0  0
   45.3180   33.6480   43.5570 C   0  0  0  0  0  0  0  0  0  0  0  0
   45.6150   33.3910   44.8740 N   0  0  0  0  0  0  0  0  0  0  0  0
   45.2860   34.2430   45.8550 C   0  0  0  0  0  0  0  0  0  0  0  0
   44.6470   35.3990   45.6100 N   0  0  0  0  0  0  0  0  0  0  0  0
   43.6688   33.3930   41.7310 H   0  0  0  0  0  0  0  0  0  0  0  0
   42.8923   34.0108   38.9789 H   0  0  0  0  0  0  0  0  0  0  0  0
   43.3573   35.4826   39.0780 H   0  0  0  0  0  0  0  0  0  0  0  0
   41.3200   35.4345   41.5130 H   0  0  0  0  0  0  0  0  0  0  0  0
   41.1748   33.0827   42.6103 H   0  0  0  0  0  0  0  0  0  0  0  0
   39.2134   31.5512   42.5809 H   0  0  0  0  0  0  0  0  0  0  0  0
   37.7140   31.5068   40.6353 H   0  0  0  0  0  0  0  0  0  0  0  0
   37.1742   32.4123   38.3387 H   0  0  0  0  0  0  0  0  0  0  0  0
   37.7325   33.9201   36.4716 H   0  0  0  0  0  0  0  0  0  0  0  0
   39.7408   35.4290   36.6024 H   0  0  0  0  0  0  0  0  0  0  0  0
   41.1365   35.3454   38.6624 H   0  0  0  0  0  0  0  0  0  0  0  0
   45.1957   35.2673   41.2976 H   0  0  0  0  0  0  0  0  0  0  0  0
   43.7746   36.2034   41.9896 H   0  0  0  0  0  0  0  0  0  0  0  0
   43.8023   36.6525   44.1153 H   0  0  0  0  0  0  0  0  0  0  0  0
   45.5938   32.9404   42.7612 H   0  0  0  0  0  0  0  0  0  0  0  0
   45.5473   33.9878   46.8926 H   0  0  0  0  0  0  0  0  0  0  0  0
  1 14  1  0
  2  3  1  0
  2  1  1  0
  3  1  1  0
  4  3  1  0
  4  5  2  0
  6  5  1  0
  7  6  2  0
  8 13  2  0
  8  7  1  0
  9  8  1  0
 10 11  1  0
 10  9  2  0
 11 12  2  0
 12 13  1  0
 13  4  1  0
 14 16  1  0
 15 20  2  0
 16 17  2  0
 16 15  1  0
 17 18  1  0
 18 19  2  0
 20 19  1  0
  1 21  1  6
  2 22  1  0
  2 23  1  0
  3 24  1  1
  5 25  1  0
  6 26  1  0
  7 27  1  0
  9 28  1  0
 10 29  1  0
 11 30  1  0
 12 31  1  0
 14 32  1  0
 14 33  1  0
 15 34  1  0
 17 35  1  0
 19 36  1  0
M  ISO  8  21  13  22  13  23  13  24  13  25  14  26  14  27  14  28  14
M  ISO  8  29  14  30  14  31  14  32   8  33   8  34  14  35  14  36  14
M  END
>  <minimizedAffinity>  (1) 
-6.25438166

>  <minimizedRMSD>  (1) 
1.15937173

$$$$
