
     RDKit          3D

 33 35  0  0  1  0  0  0  0  0999 V2000
   42.9990   34.3680   41.0640 C   0  0  2  0  0  0  0  0  0  0  0  0
   42.4600   34.8070   39.7050 C   0  0  0  0  0  0  0  0  0  0  0  0
   41.5820   34.7440   40.9160 C   0  0  1  0  0  0  0  0  0  0  0  0
   40.5270   33.7640   40.9990 N   0  0  0  0  0  0  0  0  0  0  0  0
   40.8210   32.5610   41.5570 C   0  0  0  0  0  0  0  0  0  0  0  0
   39.8230   31.6130   41.6430 C   0  0  0  0  0  0  0  0  0  0  0  0
   39.9900   30.2600   42.2230 C   0  0  0  0  0  0  0  0  0  0  0  0
   38.5560   31.8860   41.1710 C   0  0  0  0  0  0  0  0  0  0  0  0
   37.5390   31.1520   41.1680 O   0  0  0  0  0  0  0  0  0  0  0  0
   38.2960   33.1040   40.6180 N   0  0  0  0  0  0  0  0  0  0  0  0
   39.2790   34.0270   40.5360 C   0  0  0  0  0  0  0  0  0  0  0  0
   39.1190   35.1680   40.0410 O   0  0  0  0  0  0  0  0  0  0  0  0
   44.0020   35.3140   41.6860 C   0  0  0  0  0  0  0  0  0  0  0  0
   44.2590   35.8390   44.0850 C   0  0  0  0  0  0  0  0  0  0  0  0
   44.4480   34.9490   43.0190 C   0  0  0  0  0  0  0  0  0  0  0  0
   45.0680   33.7360   43.2950 C   0  0  0  0  0  0  0  0  0  0  0  0
   45.4670   33.4460   44.5630 N   0  0  0  0  0  0  0  0  0  0  0  0
   45.2570   34.3490   45.5600 C   0  0  0  0  0  0  0  0  0  0  0  0
   44.6570   35.5420   45.3390 N   0  0  0  0  0  0  0  0  0  0  0  0
   43.4907   33.4865   41.5013 H   0  0  0  0  0  0  0  0  0  0  0  0
   42.3389   34.0744   38.8934 H   0  0  0  0  0  0  0  0  0  0  0  0
   42.7249   35.5750   38.9634 H   0  0  0  0  0  0  0  0  0  0  0  0
   40.9281   35.4587   41.4372 H   0  0  0  0  0  0  0  0  0  0  0  0
   41.8328   32.3476   41.9320 H   0  0  0  0  0  0  0  0  0  0  0  0
   39.9816   30.3281   43.3209 H   0  0  0  0  0  0  0  0  0  0  0  0
   39.1648   29.6136   41.8894 H   0  0  0  0  0  0  0  0  0  0  0  0
   40.9476   29.8337   41.8894 H   0  0  0  0  0  0  0  0  0  0  0  0
   37.3533   33.3201   40.2638 H   0  0  0  0  0  0  0  0  0  0  0  0
   44.8844   35.3544   41.0305 H   0  0  0  0  0  0  0  0  0  0  0  0
   43.4883   36.2812   41.7888 H   0  0  0  0  0  0  0  0  0  0  0  0
   43.7725   36.8068   43.8936 H   0  0  0  0  0  0  0  0  0  0  0  0
   45.2364   33.0091   42.4867 H   0  0  0  0  0  0  0  0  0  0  0  0
   45.5861   34.1006   46.5798 H   0  0  0  0  0  0  0  0  0  0  0  0
  1 13  1  0
  2  3  1  0
  2  1  1  0
  3  4  1  0
  3  1  1  0
  4  5  1  0
  5  6  2  0
  6  7  1  0
  8  6  1  0
  9  8  2  0
 10  8  1  0
 11 10  1  0
 11  4  1  0
 12 11  2  0
 13 15  1  0
 14 19  2  0
 15 16  2  0
 15 14  1  0
 16 17  1  0
 17 18  2  0
 19 18  1  0
  1 20  1  6
  2 21  1  0
  2 22  1  0
  3 23  1  1
  5 24  1  0
  7 25  1  0
  7 26  1  0
  7 27  1  0
 10 28  1  0
 13 29  1  0
 13 30  1  0
 14 31  1  0
 16 32  1  0
 18 33  1  0
M  ISO  8  20  13  21  13  22  13  23  13  24  14  25   8  26   8  27   8
M  ISO  6  28   9  29   8  30   8  31  14  32  14  33  14
M  END
>  <minimizedAffinity>  (1) 
-5.79806185

>  <minimizedRMSD>  (1) 
1.29649925

$$$$
