
     RDKit          3D

 27 29  0  0  1  0  0  0  0  0999 V2000
   43.8760   35.6260   41.8340 C   0  0  0  0  0  0  0  0  0  0  0  0
   44.3490   35.7900   44.2550 C   0  0  0  0  0  0  0  0  0  0  0  0
   44.4170   35.0280   43.0570 C   0  0  0  0  0  0  0  0  0  0  0  0
   44.9910   33.7470   43.0690 C   0  0  0  0  0  0  0  0  0  0  0  0
   45.4640   33.2900   44.2600 N   0  0  0  0  0  0  0  0  0  0  0  0
   45.3880   34.0310   45.3870 C   0  0  0  0  0  0  0  0  0  0  0  0
   44.8460   35.2540   45.4030 N   0  0  0  0  0  0  0  0  0  0  0  0
   42.8850   34.7800   41.0960 C   0  0  2  0  0  0  0  0  0  0  0  0
   42.7980   35.0850   39.5900 C   0  0  0  0  0  0  0  0  0  0  0  0
   41.6490   35.3650   40.5440 C   0  0  1  0  0  0  0  0  0  0  0  0
   40.4480   34.5640   40.4430 C   0  0  0  0  0  0  0  0  0  0  0  0
   39.2580   34.6790   39.6900 C   0  0  0  0  0  0  0  0  0  0  0  0
   38.3070   33.7170   39.8430 C   0  0  0  0  0  0  0  0  0  0  0  0
   38.5610   32.6360   40.7640 C   0  0  0  0  0  0  0  0  0  0  0  0
   40.2860   33.0760   41.4200 S   0  0  0  0  0  0  0  0  0  0  0  0
   43.3816   36.5701   42.1065 H   0  0  0  0  0  0  0  0  0  0  0  0
   44.7308   35.7584   41.1545 H   0  0  0  0  0  0  0  0  0  0  0  0
   43.9025   36.7953   44.2542 H   0  0  0  0  0  0  0  0  0  0  0  0
   45.0556   33.1388   42.1547 H   0  0  0  0  0  0  0  0  0  0  0  0
   45.7856   33.6143   46.3241 H   0  0  0  0  0  0  0  0  0  0  0  0
   43.0602   33.9077   41.7428 H   0  0  0  0  0  0  0  0  0  0  0  0
   42.7276   34.2656   38.8595 H   0  0  0  0  0  0  0  0  0  0  0  0
   43.3851   35.6684   38.8655 H   0  0  0  0  0  0  0  0  0  0  0  0
   41.0508   36.2528   40.7970 H   0  0  0  0  0  0  0  0  0  0  0  0
   39.1044   35.5217   38.9999 H   0  0  0  0  0  0  0  0  0  0  0  0
   37.3652   33.7629   39.2766 H   0  0  0  0  0  0  0  0  0  0  0  0
   37.9206   31.7789   41.0196 H   0  0  0  0  0  0  0  0  0  0  0  0
  1  3  1  0
  2  7  2  0
  3  4  2  0
  3  2  1  0
  4  5  1  0
  5  6  2  0
  6  7  1  0
  8  1  1  0
  9 10  1  0
  9  8  1  0
 10  8  1  0
 11 10  1  0
 11 15  1  0
 12 13  1  0
 12 11  2  0
 13 14  2  0
 14 15  1  0
  1 16  1  0
  1 17  1  0
  2 18  1  0
  4 19  1  0
  6 20  1  0
  8 21  1  6
  9 22  1  0
  9 23  1  0
 10 24  1  1
 12 25  1  0
 13 26  1  0
 14 27  1  0
M  ISO  8  16   8  17   8  18  14  19  14  20  14  21  13  22  13  23  13
M  ISO  4  24  13  25  14  26  14  27  14
M  END
>  <minimizedAffinity>  (1) 
-4.96315432

>  <minimizedRMSD>  (1) 
0.753157675

$$$$
