
     RDKit          3D

 34 36  0  0  1  0  0  0  0  0999 V2000
   43.1880   34.6370   41.3100 C   0  0  2  0  0  0  0  0  0  0  0  0
   42.8630   35.0870   39.8860 C   0  0  0  0  0  0  0  0  0  0  0  0
   41.9770   35.4170   41.0440 C   0  0  1  0  0  0  0  0  0  0  0  0
   40.6740   34.8710   41.2180 N   0  0  0  0  0  0  0  0  0  0  0  0
   39.6670   35.4950   40.4150 C   0  0  0  0  0  0  0  0  0  0  0  0
   39.0580   34.5090   39.4330 C   0  0  0  0  0  0  0  0  0  0  0  0
   38.3860   33.5140   40.2400 N   0  0  0  0  0  0  0  0  0  0  0  0
   39.1730   33.0040   41.3250 C   0  0  0  0  0  0  0  0  0  0  0  0
   40.6140   33.4540   41.3110 C   0  0  0  0  0  0  0  0  0  0  0  0
   44.4350   35.2300   41.8780 C   0  0  0  0  0  0  0  0  0  0  0  0
   44.3790   35.7270   44.3120 C   0  0  0  0  0  0  0  0  0  0  0  0
   44.7340   34.8430   43.2580 C   0  0  0  0  0  0  0  0  0  0  0  0
   45.3560   33.6290   43.5620 C   0  0  0  0  0  0  0  0  0  0  0  0
   45.5980   33.3490   44.8860 N   0  0  0  0  0  0  0  0  0  0  0  0
   45.2520   34.2040   45.8600 C   0  0  0  0  0  0  0  0  0  0  0  0
   44.6480   35.3860   45.5890 N   0  0  0  0  0  0  0  0  0  0  0  0
   43.3438   33.7027   41.8694 H   0  0  0  0  0  0  0  0  0  0  0  0
   42.5413   34.3541   39.1315 H   0  0  0  0  0  0  0  0  0  0  0  0
   43.3808   35.6568   39.1003 H   0  0  0  0  0  0  0  0  0  0  0  0
   41.5600   36.3575   41.4335 H   0  0  0  0  0  0  0  0  0  0  0  0
   38.8744   35.8835   41.0714 H   0  0  0  0  0  0  0  0  0  0  0  0
   40.1332   36.3117   39.8444 H   0  0  0  0  0  0  0  0  0  0  0  0
   39.8444   34.0403   38.8232 H   0  0  0  0  0  0  0  0  0  0  0  0
   38.3630   35.0049   38.7395 H   0  0  0  0  0  0  0  0  0  0  0  0
   37.5333   33.9387   40.6318 H   0  0  0  0  0  0  0  0  0  0  0  0
   38.7167   33.3380   42.2686 H   0  0  0  0  0  0  0  0  0  0  0  0
   39.1834   31.9091   41.2198 H   0  0  0  0  0  0  0  0  0  0  0  0
   41.1273   33.0090   40.4459 H   0  0  0  0  0  0  0  0  0  0  0  0
   41.1053   33.1294   42.2401 H   0  0  0  0  0  0  0  0  0  0  0  0
   45.2794   34.9178   41.2459 H   0  0  0  0  0  0  0  0  0  0  0  0
   44.2776   36.3186   41.8923 H   0  0  0  0  0  0  0  0  0  0  0  0
   43.8871   36.6850   44.0877 H   0  0  0  0  0  0  0  0  0  0  0  0
   45.6420   32.9220   42.7693 H   0  0  0  0  0  0  0  0  0  0  0  0
   45.4643   33.9384   46.9061 H   0  0  0  0  0  0  0  0  0  0  0  0
  1 10  1  0
  2  3  1  0
  2  1  1  0
  3  4  1  0
  3  1  1  0
  4  9  1  0
  5  4  1  0
  6  7  1  0
  6  5  1  0
  7  8  1  0
  9  8  1  0
 10 12  1  0
 11 16  2  0
 12 13  2  0
 12 11  1  0
 13 14  1  0
 14 15  2  0
 16 15  1  0
  1 17  1  6
  2 18  1  0
  2 19  1  0
  3 20  1  1
  5 21  1  0
  5 22  1  0
  6 23  1  0
  6 24  1  0
  7 25  1  0
  8 26  1  0
  8 27  1  0
  9 28  1  0
  9 29  1  0
 10 30  1  0
 10 31  1  0
 11 32  1  0
 13 33  1  0
 15 34  1  0
M  ISO  8  17  13  18  13  19  13  20  13  21  13  22  13  23  13  24  13
M  ISO  8  25   5  26  13  27  13  28  13  29  13  30   8  31   8  32  14
M  ISO  2  33  14  34  14
M  END
>  <minimizedAffinity>  (1) 
-5.03122568

>  <minimizedRMSD>  (1) 
0.422370225

$$$$
