
     RDKit          3D

 35 37  0  0  1  0  0  0  0  0999 V2000
   45.7610   34.0410   41.4090 N   0  0  0  0  0  0  0  0  0  0  0  0
   45.0070   33.5810   40.3890 C   0  0  0  0  0  0  0  0  0  0  0  0
   45.7690   33.3450   39.3090 N   0  0  0  0  0  0  0  0  0  0  0  0
   47.0490   33.6710   39.6710 C   0  0  0  0  0  0  0  0  0  0  0  0
   46.9950   34.0800   40.9330 N   0  0  0  0  0  0  0  0  0  0  0  0
   45.0030   35.7780   42.8950 C   0  0  0  0  0  0  0  0  0  0  0  0
   45.4400   34.4310   42.7320 C   0  0  0  0  0  0  0  0  0  0  0  0
   45.5120   33.6470   43.8480 C   0  0  0  0  0  0  0  0  0  0  0  0
   45.1620   34.2060   45.0420 N   0  0  0  0  0  0  0  0  0  0  0  0
   44.7600   35.4610   45.1640 C   0  0  0  0  0  0  0  0  0  0  0  0
   44.6760   36.2570   44.0960 N   0  0  0  0  0  0  0  0  0  0  0  0
   48.3000   33.6130   38.8630 C   0  0  2  0  0  0  0  0  0  0  0  0
   48.3820   34.6190   37.6800 C   0  0  0  0  0  0  0  0  0  0  0  0
   48.2540   33.1010   37.4680 C   0  0  1  0  0  0  0  0  0  0  0  0
   49.3740   32.3140   36.9960 C   0  0  0  0  0  0  0  0  0  0  0  0
   49.3320   31.9110   35.7760 O   0  0  0  0  0  0  0  0  0  0  0  0
   50.4440   31.9990   37.8030 O   0  0  0  0  0  0  0  0  0  0  0  0
   51.4940   31.1890   37.3170 C   0  0  0  0  0  0  0  0  0  0  0  0
   52.7770   31.7450   37.9260 C   0  0  0  0  0  0  0  0  0  0  0  0
   51.2960   29.8010   37.8920 C   0  0  0  0  0  0  0  0  0  0  0  0
   43.9196   33.4216   40.4357 H   0  0  0  0  0  0  0  0  0  0  0  0
   44.9343   36.4340   42.0147 H   0  0  0  0  0  0  0  0  0  0  0  0
   45.8414   32.5993   43.7860 H   0  0  0  0  0  0  0  0  0  0  0  0
   44.4922   35.8524   46.1565 H   0  0  0  0  0  0  0  0  0  0  0  0
   48.9172   33.3553   39.7363 H   0  0  0  0  0  0  0  0  0  0  0  0
   47.5362   35.2858   37.4564 H   0  0  0  0  0  0  0  0  0  0  0  0
   49.0770   35.4084   37.3577 H   0  0  0  0  0  0  0  0  0  0  0  0
   47.5586   32.4838   36.8803 H   0  0  0  0  0  0  0  0  0  0  0  0
   51.5262   31.1674   36.2177 H   0  0  0  0  0  0  0  0  0  0  0  0
   52.7055   31.7140   39.0232 H   0  0  0  0  0  0  0  0  0  0  0  0
   53.6326   31.1369   37.5970 H   0  0  0  0  0  0  0  0  0  0  0  0
   52.9183   32.7851   37.5970 H   0  0  0  0  0  0  0  0  0  0  0  0
   51.3037   29.8547   38.9907 H   0  0  0  0  0  0  0  0  0  0  0  0
   50.3312   29.3972   37.5514 H   0  0  0  0  0  0  0  0  0  0  0  0
   52.1094   29.1435   37.5514 H   0  0  0  0  0  0  0  0  0  0  0  0
  1  7  1  0
  2  1  1  0
  3  4  1  0
  3  2  2  0
  4  5  2  0
  5  1  1  0
  6 11  2  0
  7  6  1  0
  7  8  2  0
  8  9  1  0
  9 10  2  0
 11 10  1  0
 12  4  1  0
 13 12  1  0
 14 13  1  0
 14 12  1  0
 15 14  1  0
 15 17  1  0
 16 15  2  0
 18 17  1  0
 18 20  1  0
 18 19  1  0
  2 21  1  0
  6 22  1  0
  8 23  1  0
 10 24  1  0
 12 25  1  1
 13 26  1  0
 13 27  1  0
 14 28  1  1
 18 29  1  0
 19 30  1  0
 19 31  1  0
 19 32  1  0
 20 33  1  0
 20 34  1  0
 20 35  1  0
M  ISO  8  21  14  22  14  23  14  24  14  25  13  26  13  27  13  28  13
M  ISO  7  29   8  30   8  31   8  32   8  33   8  34   8  35   8
M  END
>  <minimizedAffinity>  (1) 
-4.27442408

>  <minimizedRMSD>  (1) 
0.710165858

$$$$
