
     RDKit          3D

 35 37  0  0  1  0  0  0  0  0999 V2000
   43.2750   34.8390   41.3050 C   0  0  2  0  0  0  0  0  0  0  0  0
   43.4600   33.9110   40.1010 C   0  0  0  0  0  0  0  0  0  0  0  0
   42.7670   35.2410   39.9950 C   0  0  1  0  0  0  0  0  0  0  0  0
   41.3510   35.3420   39.8440 N   0  0  0  0  0  0  0  0  0  0  0  0
   41.0210   35.6390   38.4860 C   0  0  0  0  0  0  0  0  0  0  0  0
   40.1940   34.6130   37.7820 C   0  0  0  0  0  0  0  0  0  0  0  0
   38.9560   34.2130   38.5330 C   0  0  0  0  0  0  0  0  0  0  0  0
   39.1260   34.5570   40.0010 C   0  0  0  0  0  0  0  0  0  0  0  0
   40.5890   34.2330   40.3240 C   0  0  0  0  0  0  0  0  0  0  0  0
   44.5340   35.3780   41.9110 C   0  0  0  0  0  0  0  0  0  0  0  0
   44.4030   35.7840   44.3580 C   0  0  0  0  0  0  0  0  0  0  0  0
   44.7850   34.9390   43.2820 C   0  0  0  0  0  0  0  0  0  0  0  0
   45.3860   33.7150   43.5690 C   0  0  0  0  0  0  0  0  0  0  0  0
   45.5890   33.3710   44.8810 N   0  0  0  0  0  0  0  0  0  0  0  0
   45.2120   34.2030   45.8680 C   0  0  0  0  0  0  0  0  0  0  0  0
   44.6310   35.3870   45.6380 N   0  0  0  0  0  0  0  0  0  0  0  0
   42.7988   34.8165   42.2963 H   0  0  0  0  0  0  0  0  0  0  0  0
   44.4564   33.7657   39.6582 H   0  0  0  0  0  0  0  0  0  0  0  0
   43.2110   32.8669   39.8603 H   0  0  0  0  0  0  0  0  0  0  0  0
   42.9110   36.0964   39.3186 H   0  0  0  0  0  0  0  0  0  0  0  0
   40.4654   36.5883   38.4729 H   0  0  0  0  0  0  0  0  0  0  0  0
   41.9783   35.6756   37.9454 H   0  0  0  0  0  0  0  0  0  0  0  0
   39.8912   35.0213   36.8065 H   0  0  0  0  0  0  0  0  0  0  0  0
   40.8160   33.7109   37.6859 H   0  0  0  0  0  0  0  0  0  0  0  0
   38.0889   34.7545   38.1269 H   0  0  0  0  0  0  0  0  0  0  0  0
   38.7935   33.1305   38.4250 H   0  0  0  0  0  0  0  0  0  0  0  0
   38.9202   35.6237   40.1734 H   0  0  0  0  0  0  0  0  0  0  0  0
   38.4299   33.9922   40.6385 H   0  0  0  0  0  0  0  0  0  0  0  0
   40.8974   33.3079   39.8149 H   0  0  0  0  0  0  0  0  0  0  0  0
   40.7393   34.0763   41.4024 H   0  0  0  0  0  0  0  0  0  0  0  0
   45.3806   35.0557   41.2870 H   0  0  0  0  0  0  0  0  0  0  0  0
   44.4185   36.4712   41.9497 H   0  0  0  0  0  0  0  0  0  0  0  0
   43.9253   36.7542   44.1566 H   0  0  0  0  0  0  0  0  0  0  0  0
   45.6919   33.0373   42.7583 H   0  0  0  0  0  0  0  0  0  0  0  0
   45.3887   33.8974   46.9098 H   0  0  0  0  0  0  0  0  0  0  0  0
  1 10  1  0
  2  1  1  0
  3  2  1  0
  3  1  1  0
  4  3  1  0
  4  9  1  0
  5  4  1  0
  6  5  1  0
  6  7  1  0
  7  8  1  0
  8  9  1  0
 10 12  1  0
 11 16  2  0
 12 13  2  0
 12 11  1  0
 13 14  1  0
 14 15  2  0
 16 15  1  0
  1 17  1  1
  2 18  1  0
  2 19  1  0
  3 20  1  6
  5 21  1  0
  5 22  1  0
  6 23  1  0
  6 24  1  0
  7 25  1  0
  7 26  1  0
  8 27  1  0
  8 28  1  0
  9 29  1  0
  9 30  1  0
 10 31  1  0
 10 32  1  0
 11 33  1  0
 13 34  1  0
 15 35  1  0
M  ISO  8  17  13  18  13  19  13  20  13  21  13  22  13  23  13  24  13
M  ISO  8  25  13  26  13  27  13  28  13  29  13  30  13  31   8  32   8
M  ISO  3  33  14  34  14  35  14
M  END
>  <minimizedAffinity>  (1) 
-5.21591711

>  <minimizedRMSD>  (1) 
1.77821958

$$$$
