
     RDKit          3D

 27 29  0  0  1  0  0  0  0  0999 V2000
   43.7780   35.6720   41.7450 C   0  0  0  0  0  0  0  0  0  0  0  0
   44.3060   35.8440   44.1580 C   0  0  0  0  0  0  0  0  0  0  0  0
   44.3320   35.0990   42.9720 C   0  0  0  0  0  0  0  0  0  0  0  0
   44.8900   33.8100   42.9790 C   0  0  0  0  0  0  0  0  0  0  0  0
   45.3850   33.3480   44.1620 N   0  0  0  0  0  0  0  0  0  0  0  0
   45.3490   34.0830   45.2880 C   0  0  0  0  0  0  0  0  0  0  0  0
   44.8210   35.3100   45.2980 N   0  0  0  0  0  0  0  0  0  0  0  0
   42.7850   34.8210   41.0210 C   0  0  2  0  0  0  0  0  0  0  0  0
   42.6730   35.0560   39.5260 C   0  0  0  0  0  0  0  0  0  0  0  0
   41.5570   35.3990   40.4650 C   0  0  1  0  0  0  0  0  0  0  0  0
   40.3530   34.5980   40.4690 N   0  0  0  0  0  0  0  0  0  0  0  0
   39.3560   34.7020   39.5730 C   0  0  0  0  0  0  0  0  0  0  0  0
   38.4340   33.7470   39.9760 C   0  0  0  0  0  0  0  0  0  0  0  0
   38.9190   33.1220   41.0850 N   0  0  0  0  0  0  0  0  0  0  0  0
   40.1220   33.6620   41.3870 C   0  0  0  0  0  0  0  0  0  0  0  0
   43.2833   36.6187   42.0078 H   0  0  0  0  0  0  0  0  0  0  0  0
   44.6294   35.7881   41.0582 H   0  0  0  0  0  0  0  0  0  0  0  0
   43.8718   36.8546   44.1673 H   0  0  0  0  0  0  0  0  0  0  0  0
   44.9261   33.1976   42.0659 H   0  0  0  0  0  0  0  0  0  0  0  0
   45.7622   33.6658   46.2182 H   0  0  0  0  0  0  0  0  0  0  0  0
   42.9730   33.9692   41.6912 H   0  0  0  0  0  0  0  0  0  0  0  0
   42.5760   34.2047   38.8362 H   0  0  0  0  0  0  0  0  0  0  0  0
   43.2583   35.5955   38.7668 H   0  0  0  0  0  0  0  0  0  0  0  0
   40.9750   36.3129   40.6551 H   0  0  0  0  0  0  0  0  0  0  0  0
   39.2871   35.3879   38.7158 H   0  0  0  0  0  0  0  0  0  0  0  0
   37.4743   33.5311   39.4837 H   0  0  0  0  0  0  0  0  0  0  0  0
   40.7786   33.3832   42.2244 H   0  0  0  0  0  0  0  0  0  0  0  0
  1  3  1  0
  2  7  2  0
  3  4  2  0
  3  2  1  0
  4  5  1  0
  5  6  2  0
  6  7  1  0
  8  1  1  0
  9 10  1  0
  9  8  1  0
 10 11  1  0
 10  8  1  0
 11 15  1  0
 12 13  2  0
 12 11  1  0
 13 14  1  0
 14 15  2  0
  1 16  1  0
  1 17  1  0
  2 18  1  0
  4 19  1  0
  6 20  1  0
  8 21  1  6
  9 22  1  0
  9 23  1  0
 10 24  1  1
 12 25  1  0
 13 26  1  0
 15 27  1  0
M  ISO  8  16   8  17   8  18  14  19  14  20  14  21  13  22  13  23  13
M  ISO  4  24  13  25  14  26  14  27  14
M  END
>  <minimizedAffinity>  (1) 
-4.61517048

>  <minimizedRMSD>  (1) 
0.76314503

$$$$
