
     RDKit          3D

 26 28  0  0  1  0  0  0  0  0999 V2000
   44.0230   35.5590   41.8230 C   0  0  0  0  0  0  0  0  0  0  0  0
   44.3050   35.8200   44.2490 C   0  0  0  0  0  0  0  0  0  0  0  0
   44.4760   35.0400   43.0950 C   0  0  0  0  0  0  0  0  0  0  0  0
   45.0810   33.7940   43.2210 C   0  0  0  0  0  0  0  0  0  0  0  0
   45.4840   33.3730   44.4600 N   0  0  0  0  0  0  0  0  0  0  0  0
   45.3010   34.1570   45.5550 C   0  0  0  0  0  0  0  0  0  0  0  0
   44.7140   35.3760   45.4620 N   0  0  0  0  0  0  0  0  0  0  0  0
   43.0040   34.7360   41.1050 C   0  0  2  0  0  0  0  0  0  0  0  0
   42.7060   35.1470   39.6690 C   0  0  0  0  0  0  0  0  0  0  0  0
   41.6840   35.2830   40.7620 C   0  0  1  0  0  0  0  0  0  0  0  0
   40.5810   34.3510   40.8400 N   0  0  0  0  0  0  0  0  0  0  0  0
   39.3890   34.4310   40.2240 C   0  0  0  0  0  0  0  0  0  0  0  0
   38.6240   33.3570   40.5520 N   0  0  0  0  0  0  0  0  0  0  0  0
   39.3650   32.6110   41.3830 C   0  0  0  0  0  0  0  0  0  0  0  0
   40.5520   33.2430   41.5370 N   0  0  0  0  0  0  0  0  0  0  0  0
   43.5876   36.5533   42.0011 H   0  0  0  0  0  0  0  0  0  0  0  0
   44.9102   35.5657   41.1727 H   0  0  0  0  0  0  0  0  0  0  0  0
   43.8306   36.8091   44.1673 H   0  0  0  0  0  0  0  0  0  0  0  0
   45.2335   33.1560   42.3380 H   0  0  0  0  0  0  0  0  0  0  0  0
   45.6363   33.7949   46.5381 H   0  0  0  0  0  0  0  0  0  0  0  0
   43.3183   33.8253   41.6359 H   0  0  0  0  0  0  0  0  0  0  0  0
   42.5841   34.3832   38.8869 H   0  0  0  0  0  0  0  0  0  0  0  0
   43.1648   35.8202   38.9299 H   0  0  0  0  0  0  0  0  0  0  0  0
   41.0626   36.1265   41.0972 H   0  0  0  0  0  0  0  0  0  0  0  0
   39.0786   35.2457   39.5533 H   0  0  0  0  0  0  0  0  0  0  0  0
   39.0647   31.6625   41.8522 H   0  0  0  0  0  0  0  0  0  0  0  0
  1  3  1  0
  2  7  2  0
  3  4  2  0
  3  2  1  0
  4  5  1  0
  5  6  2  0
  7  6  1  0
  8  1  1  0
  9 10  1  0
  9  8  1  0
 10 11  1  0
 10  8  1  0
 11 15  1  0
 12 13  2  0
 12 11  1  0
 13 14  1  0
 14 15  2  0
  1 16  1  0
  1 17  1  0
  2 18  1  0
  4 19  1  0
  6 20  1  0
  8 21  1  6
  9 22  1  0
  9 23  1  0
 10 24  1  1
 12 25  1  0
 14 26  1  0
M  ISO  8  16   8  17   8  18  14  19  14  20  14  21  13  22  13  23  13
M  ISO  3  24  13  25  14  26  14
M  END
>  <minimizedAffinity>  (1) 
-4.55247784

>  <minimizedRMSD>  (1) 
0.586322904

$$$$
