
     RDKit          3D

 29 30  0  0  1  0  0  0  0  0999 V2000
   44.2870   35.4000   41.8780 C   0  0  0  0  0  0  0  0  0  0  0  0
   44.3670   35.7490   44.3200 C   0  0  0  0  0  0  0  0  0  0  0  0
   44.6560   34.9310   43.2050 C   0  0  0  0  0  0  0  0  0  0  0  0
   45.2830   33.7060   43.4290 C   0  0  0  0  0  0  0  0  0  0  0  0
   45.5810   33.3690   44.7130 N   0  0  0  0  0  0  0  0  0  0  0  0
   45.2930   34.1710   45.7550 C   0  0  0  0  0  0  0  0  0  0  0  0
   44.6890   35.3560   45.5670 N   0  0  0  0  0  0  0  0  0  0  0  0
   43.0740   34.7330   41.2830 C   0  0  2  0  0  0  0  0  0  0  0  0
   43.3330   34.1020   39.9080 C   0  0  0  0  0  0  0  0  0  0  0  0
   42.4070   35.2900   40.1140 C   0  0  1  0  0  0  0  0  0  0  0  0
   40.9460   35.1280   39.8190 C   0  0  0  0  0  0  0  0  0  0  0  0
   40.1840   36.2630   40.5160 C   0  0  0  0  0  0  0  0  0  0  0  0
   40.6730   35.2870   38.3310 C   0  0  0  0  0  0  0  0  0  0  0  0
   44.0867   36.4798   41.9409 H   0  0  0  0  0  0  0  0  0  0  0  0
   45.1307   35.1509   41.2175 H   0  0  0  0  0  0  0  0  0  0  0  0
   43.8725   36.7197   44.1675 H   0  0  0  0  0  0  0  0  0  0  0  0
   45.5289   33.0333   42.5941 H   0  0  0  0  0  0  0  0  0  0  0  0
   45.5558   33.8517   46.7743 H   0  0  0  0  0  0  0  0  0  0  0  0
   42.6858   34.4215   42.2639 H   0  0  0  0  0  0  0  0  0  0  0  0
   42.9235   33.1110   39.6625 H   0  0  0  0  0  0  0  0  0  0  0  0
   44.2143   33.8785   39.2888 H   0  0  0  0  0  0  0  0  0  0  0  0
   42.3321   36.3193   39.7334 H   0  0  0  0  0  0  0  0  0  0  0  0
   40.6334   34.1306   40.1617 H   0  0  0  0  0  0  0  0  0  0  0  0
   40.2645   36.1431   41.6065 H   0  0  0  0  0  0  0  0  0  0  0  0
   40.6163   37.2304   40.2206 H   0  0  0  0  0  0  0  0  0  0  0  0
   39.1250   36.2291   40.2206 H   0  0  0  0  0  0  0  0  0  0  0  0
   39.7306   35.8359   38.1877 H   0  0  0  0  0  0  0  0  0  0  0  0
   41.4975   35.8462   37.8646 H   0  0  0  0  0  0  0  0  0  0  0  0
   40.5935   34.2939   37.8646 H   0  0  0  0  0  0  0  0  0  0  0  0
  1  3  1  0
  2  7  2  0
  3  4  2  0
  3  2  1  0
  4  5  1  0
  5  6  2  0
  7  6  1  0
  8  1  1  0
  9 10  1  0
  9  8  1  0
 10  8  1  0
 11 10  1  0
 11 12  1  0
 13 11  1  0
  1 14  1  0
  1 15  1  0
  2 16  1  0
  4 17  1  0
  6 18  1  0
  8 19  1  1
  9 20  1  0
  9 21  1  0
 10 22  1  6
 11 23  1  0
 12 24  1  0
 12 25  1  0
 12 26  1  0
 13 27  1  0
 13 28  1  0
 13 29  1  0
M  ISO  8  14   8  15   8  16  14  17  14  18  14  19  13  20  13  21  13
M  ISO  8  22  13  23   8  24   8  25   8  26   8  27   8  28   8  29   8
M  END
>  <minimizedAffinity>  (1) 
-4.46841145

>  <minimizedRMSD>  (1) 
0.907598197

$$$$
