
     RDKit          3D

 28 30  0  0  1  0  0  0  0  0999 V2000
   45.7470   34.0980   41.4880 N   0  0  0  0  0  0  0  0  0  0  0  0
   44.9930   33.6440   40.4580 C   0  0  0  0  0  0  0  0  0  0  0  0
   45.7650   33.4050   39.3870 N   0  0  0  0  0  0  0  0  0  0  0  0
   47.0450   33.7190   39.7580 C   0  0  0  0  0  0  0  0  0  0  0  0
   46.9780   34.1260   41.0200 N   0  0  0  0  0  0  0  0  0  0  0  0
   44.9210   35.8170   42.9710 C   0  0  0  0  0  0  0  0  0  0  0  0
   45.4150   34.4880   42.8160 C   0  0  0  0  0  0  0  0  0  0  0  0
   45.5310   33.6970   43.9250 C   0  0  0  0  0  0  0  0  0  0  0  0
   45.1590   34.2530   45.1190 N   0  0  0  0  0  0  0  0  0  0  0  0
   44.7030   35.4890   45.2430 C   0  0  0  0  0  0  0  0  0  0  0  0
   44.5890   36.2630   44.1620 N   0  0  0  0  0  0  0  0  0  0  0  0
   48.3050   33.6490   38.9640 C   0  0  2  0  0  0  0  0  0  0  0  0
   48.3400   34.5350   37.6900 C   0  0  0  0  0  0  0  0  0  0  0  0
   48.2980   32.9950   37.6300 C   0  0  1  0  0  0  0  0  0  0  0  0
   49.4620   32.2340   37.2360 C   0  0  0  0  0  0  0  0  0  0  0  0
   49.5280   31.8650   36.0040 O   0  0  0  0  0  0  0  0  0  0  0  0
   50.4620   31.9070   38.1220 O   0  0  0  0  0  0  0  0  0  0  0  0
   51.6610   31.4320   37.5680 C   0  0  0  0  0  0  0  0  0  0  0  0
   52.7760   31.9950   37.8190 O   0  0  0  0  0  0  0  0  0  0  0  0
   43.9040   33.4930   40.4946 H   0  0  0  0  0  0  0  0  0  0  0  0
   44.8176   36.4701   42.0919 H   0  0  0  0  0  0  0  0  0  0  0  0
   45.9049   32.6645   43.8608 H   0  0  0  0  0  0  0  0  0  0  0  0
   44.4192   35.8766   46.2326 H   0  0  0  0  0  0  0  0  0  0  0  0
   48.9296   33.5149   39.8595 H   0  0  0  0  0  0  0  0  0  0  0  0
   47.4603   35.1280   37.3995 H   0  0  0  0  0  0  0  0  0  0  0  0
   48.9924   35.3264   37.2924 H   0  0  0  0  0  0  0  0  0  0  0  0
   47.6427   32.2807   37.1101 H   0  0  0  0  0  0  0  0  0  0  0  0
   51.6375   30.5557   36.9035 H   0  0  0  0  0  0  0  0  0  0  0  0
  1  7  1  0
  2  1  1  0
  3  4  1  0
  3  2  2  0
  4  5  2  0
  5  1  1  0
  6 11  2  0
  7  6  1  0
  7  8  2  0
  8  9  1  0
  9 10  2  0
 11 10  1  0
 12  4  1  0
 13 12  1  0
 14 13  1  0
 14 12  1  0
 15 14  1  0
 15 17  1  0
 16 15  2  0
 18 19  2  0
 18 17  1  0
  2 20  1  0
  6 21  1  0
  8 22  1  0
 10 23  1  0
 12 24  1  1
 13 25  1  0
 13 26  1  0
 14 27  1  6
 18 28  1  0
M  ISO  8  20  14  21  14  22  14  23  14  24  13  25  13  26  13  27  13
M  ISO  1  28   6
M  END
>  <minimizedAffinity>  (1) 
-4.25852871

>  <minimizedRMSD>  (1) 
0.550921738

$$$$
