
     RDKit          3D

 23 24  0  0  1  0  0  0  0  0999 V2000
   43.9770   35.4690   41.9450 C   0  0  0  0  0  0  0  0  0  0  0  0
   44.2960   35.7410   44.3910 C   0  0  0  0  0  0  0  0  0  0  0  0
   44.4720   34.9650   43.2270 C   0  0  0  0  0  0  0  0  0  0  0  0
   45.1210   33.7190   43.3210 C   0  0  0  0  0  0  0  0  0  0  0  0
   45.5480   33.3290   44.5540 N   0  0  0  0  0  0  0  0  0  0  0  0
   45.3630   34.0950   45.6390 C   0  0  0  0  0  0  0  0  0  0  0  0
   44.7450   35.2920   45.5820 N   0  0  0  0  0  0  0  0  0  0  0  0
   42.8070   34.7360   41.3690 C   0  0  2  0  0  0  0  0  0  0  0  0
   42.3430   35.2330   40.0090 C   0  0  0  0  0  0  0  0  0  0  0  0
   41.4920   35.3870   41.2310 C   0  0  1  0  0  0  0  0  0  0  0  0
   40.2360   34.6070   41.3780 C   0  0  0  0  0  0  0  0  0  0  0  0
   39.4590   34.4990   40.3910 O   0  0  0  0  0  0  0  0  0  0  0  0
   39.8790   33.9830   42.5820 O   0  0  0  0  0  0  0  0  0  0  0  0
   43.6821   36.5193   42.0857 H   0  0  0  0  0  0  0  0  0  0  0  0
   44.8006   35.3296   41.2293 H   0  0  0  0  0  0  0  0  0  0  0  0
   43.7908   36.7161   44.3282 H   0  0  0  0  0  0  0  0  0  0  0  0
   45.2768   33.0864   42.4347 H   0  0  0  0  0  0  0  0  0  0  0  0
   45.7289   33.7335   46.6113 H   0  0  0  0  0  0  0  0  0  0  0  0
   43.1208   33.7852   41.8246 H   0  0  0  0  0  0  0  0  0  0  0  0
   42.0607   34.5162   39.2238 H   0  0  0  0  0  0  0  0  0  0  0  0
   42.7443   35.9089   39.2395 H   0  0  0  0  0  0  0  0  0  0  0  0
   41.0024   36.2379   41.7272 H   0  0  0  0  0  0  0  0  0  0  0  0
   39.0337   33.4713   42.6427 H   0  0  0  0  0  0  0  0  0  0  0  0
  1  3  1  0
  2  7  2  0
  3  4  2  0
  3  2  1  0
  4  5  1  0
  5  6  2  0
  7  6  1  0
  8  1  1  0
  9 10  1  0
  9  8  1  0
 10  8  1  0
 10 11  1  0
 11 13  1  0
 12 11  2  0
  1 14  1  0
  1 15  1  0
  2 16  1  0
  4 17  1  0
  6 18  1  0
  8 19  1  6
  9 20  1  0
  9 21  1  0
 10 22  1  1
 13 23  1  0
M  ISO  8  14   8  15   8  16  14  17  14  18  14  19  13  20  13  21  13
M  ISO  2  22  13  23   3
M  END
>  <minimizedAffinity>  (1) 
-4.51478004

>  <minimizedRMSD>  (1) 
0.622344375

$$$$
