
     RDKit          3D

 27 28  0  0  1  0  0  0  0  0999 V2000
   44.1210   35.3940   42.8670 C   0  0  2  0  0  0  0  0  0  0  0  0
   45.1630   36.4600   43.2410 C   0  0  0  0  0  0  0  0  0  0  0  0
   45.3130   35.0350   43.6560 C   0  0  1  0  0  0  0  0  0  0  0  0
   45.1960   34.6090   45.0200 N   0  0  0  0  0  0  0  0  0  0  0  0
   45.9450   33.4770   45.5100 C   0  0  0  0  0  0  0  0  0  0  0  0
   47.1520   33.3240   45.0330 N   0  0  0  0  0  0  0  0  0  0  0  0
   45.3250   32.6020   46.4770 N   0  0  0  0  0  0  0  0  0  0  0  0
   47.6780   32.5030   45.3970 H   0  0  0  0  0  0  0  0  0  0  0  0
   44.0030   35.1000   41.4060 C   0  0  0  0  0  0  0  0  0  0  0  0
   42.4840   35.0720   39.4610 C   0  0  0  0  0  0  0  0  0  0  0  0
   42.6650   35.1890   40.8590 C   0  0  0  0  0  0  0  0  0  0  0  0
   41.5390   35.3840   41.6500 C   0  0  0  0  0  0  0  0  0  0  0  0
   40.3140   35.4570   41.0620 N   0  0  0  0  0  0  0  0  0  0  0  0
   40.1880   35.3400   39.7160 C   0  0  0  0  0  0  0  0  0  0  0  0
   41.2440   35.1500   38.9020 N   0  0  0  0  0  0  0  0  0  0  0  0
   43.0487   35.2010   43.0183 H   0  0  0  0  0  0  0  0  0  0  0  0
   45.8224   36.8858   42.4703 H   0  0  0  0  0  0  0  0  0  0  0  0
   45.1461   37.4328   43.7543 H   0  0  0  0  0  0  0  0  0  0  0  0
   46.1223   34.2986   43.5434 H   0  0  0  0  0  0  0  0  0  0  0  0
   44.5687   35.1180   45.6590 H   0  0  0  0  0  0  0  0  0  0  0  0
   45.8411   31.7880   46.8404 H   0  0  0  0  0  0  0  0  0  0  0  0
   44.3667   32.7918   46.8034 H   0  0  0  0  0  0  0  0  0  0  0  0
   44.6392   35.8150   40.8638 H   0  0  0  0  0  0  0  0  0  0  0  0
   44.3109   34.0512   41.2828 H   0  0  0  0  0  0  0  0  0  0  0  0
   43.3596   34.9153   38.8139 H   0  0  0  0  0  0  0  0  0  0  0  0
   41.6372   35.4785   42.7415 H   0  0  0  0  0  0  0  0  0  0  0  0
   39.1835   35.4028   39.2721 H   0  0  0  0  0  0  0  0  0  0  0  0
  1  2  1  0
  1  3  1  0
  2  3  1  0
  3  4  1  0
  4  5  1  0
  5  7  1  0
  6  8  1  0
  6  5  2  0
  9  1  1  0
 10 11  2  0
 11  9  1  0
 11 12  1  0
 13 12  2  0
 14 13  1  0
 15 10  1  0
 15 14  2  0
  1 16  1  1
  2 17  1  0
  2 18  1  0
  3 19  1  6
  4 20  1  0
  7 21  1  0
  7 22  1  0
  9 23  1  0
  9 24  1  0
 10 25  1  0
 12 26  1  0
 14 27  1  0
M  ISO  8  16  13  17  13  18  13  19  13  23   8  24   8  25  14  26  14
M  ISO  1  27  14
M  END
>  <minimizedAffinity>  (1) 
-4.69151497

>  <minimizedRMSD>  (1) 
6.36898899

$$$$
