
     RDKit          3D

 32 34  0  0  1  0  0  0  0  0999 V2000
   45.7530   34.0520   41.4300 N   0  0  0  0  0  0  0  0  0  0  0  0
   44.9960   33.6040   40.4060 C   0  0  0  0  0  0  0  0  0  0  0  0
   45.7550   33.3630   39.3220 N   0  0  0  0  0  0  0  0  0  0  0  0
   47.0390   33.6730   39.6830 C   0  0  0  0  0  0  0  0  0  0  0  0
   46.9680   34.0770   40.9460 N   0  0  0  0  0  0  0  0  0  0  0  0
   44.9730   35.7790   42.9160 C   0  0  0  0  0  0  0  0  0  0  0  0
   45.4310   34.4400   42.7490 C   0  0  0  0  0  0  0  0  0  0  0  0
   45.5190   33.6630   43.8690 C   0  0  0  0  0  0  0  0  0  0  0  0
   45.1680   34.2100   45.0510 N   0  0  0  0  0  0  0  0  0  0  0  0
   44.7370   35.4740   45.1880 C   0  0  0  0  0  0  0  0  0  0  0  0
   44.6420   36.2600   44.1020 N   0  0  0  0  0  0  0  0  0  0  0  0
   48.2850   33.6070   38.8790 C   0  0  2  0  0  0  0  0  0  0  0  0
   48.3690   34.5980   37.6840 C   0  0  0  0  0  0  0  0  0  0  0  0
   48.2440   33.0760   37.4930 C   0  0  1  0  0  0  0  0  0  0  0  0
   49.3650   32.2840   37.0350 C   0  0  0  0  0  0  0  0  0  0  0  0
   49.3500   31.9210   35.7990 O   0  0  0  0  0  0  0  0  0  0  0  0
   50.4070   31.9260   37.8680 O   0  0  0  0  0  0  0  0  0  0  0  0
   51.4980   31.2390   37.2770 C   0  0  0  0  0  0  0  0  0  0  0  0
   52.7600   31.6950   37.9570 C   0  0  0  0  0  0  0  0  0  0  0  0
   43.9069   33.4562   40.4518 H   0  0  0  0  0  0  0  0  0  0  0  0
   44.8926   36.4306   42.0334 H   0  0  0  0  0  0  0  0  0  0  0  0
   45.8662   32.6210   43.8087 H   0  0  0  0  0  0  0  0  0  0  0  0
   44.4641   35.8629   46.1801 H   0  0  0  0  0  0  0  0  0  0  0  0
   48.9003   33.3616   39.7572 H   0  0  0  0  0  0  0  0  0  0  0  0
   47.5228   35.2604   37.4489 H   0  0  0  0  0  0  0  0  0  0  0  0
   49.0634   35.3843   37.3532 H   0  0  0  0  0  0  0  0  0  0  0  0
   47.5513   32.4494   36.9120 H   0  0  0  0  0  0  0  0  0  0  0  0
   51.3728   30.1545   37.4115 H   0  0  0  0  0  0  0  0  0  0  0  0
   51.5460   31.4548   36.1994 H   0  0  0  0  0  0  0  0  0  0  0  0
   52.6267   31.6468   39.0478 H   0  0  0  0  0  0  0  0  0  0  0  0
   53.5933   31.0411   37.6602 H   0  0  0  0  0  0  0  0  0  0  0  0
   52.9828   32.7305   37.6602 H   0  0  0  0  0  0  0  0  0  0  0  0
  1  7  1  0
  2  1  1  0
  3  4  1  0
  3  2  2  0
  4  5  2  0
  5  1  1  0
  6 11  2  0
  7  6  1  0
  7  8  2  0
  8  9  1  0
  9 10  2  0
 11 10  1  0
 12  4  1  0
 13 12  1  0
 14 13  1  0
 14 12  1  0
 15 14  1  0
 15 17  1  0
 16 15  2  0
 18 17  1  0
 18 19  1  0
  2 20  1  0
  6 21  1  0
  8 22  1  0
 10 23  1  0
 12 24  1  1
 13 25  1  0
 13 26  1  0
 14 27  1  6
 18 28  1  0
 18 29  1  0
 19 30  1  0
 19 31  1  0
 19 32  1  0
M  ISO  8  20  14  21  14  22  14  23  14  24  13  25  13  26  13  27  13
M  ISO  5  28   8  29   8  30   8  31   8  32   8
M  END
>  <minimizedAffinity>  (1) 
-4.2267437

>  <minimizedRMSD>  (1) 
0.677217782

$$$$
