
     RDKit          3D

 40 43  0  0  1  0  0  0  0  0999 V2000
   45.3520   33.8050   43.4040 C   0  0  2  0  0  0  0  0  0  0  0  0
   44.6510   32.6040   42.7580 C   0  0  0  0  0  0  0  0  0  0  0  0
   45.3230   33.6720   41.9380 C   0  0  1  0  0  0  0  0  0  0  0  0
   44.4770   34.5300   41.0740 C   0  0  2  0  0  0  0  0  0  0  0  0
   43.7560   35.7380   41.6260 C   0  0  0  0  0  0  0  0  0  0  0  0
   42.9820   34.4790   41.3390 C   0  0  1  0  0  0  0  0  0  0  0  0
   42.0690   34.5570   40.2430 N   0  0  0  0  0  0  0  0  0  0  0  0
   42.0650   35.4380   39.2250 C   0  0  0  0  0  0  0  0  0  0  0  0
   41.1230   35.4110   38.2180 C   0  0  0  0  0  0  0  0  0  0  0  0
   41.2640   36.4470   37.1810 C   0  0  0  0  0  0  0  0  0  0  0  0
   40.1270   34.4300   38.2490 C   0  0  0  0  0  0  0  0  0  0  0  0
   39.2900   34.4440   37.3100 O   0  0  0  0  0  0  0  0  0  0  0  0
   40.1510   33.5600   39.2760 N   0  0  0  0  0  0  0  0  0  0  0  0
   41.0850   33.6160   40.2420 C   0  0  0  0  0  0  0  0  0  0  0  0
   40.9560   32.7210   41.1280 O   0  0  0  0  0  0  0  0  0  0  0  0
   46.5640   33.4890   44.2130 C   0  0  0  0  0  0  0  0  0  0  0  0
   45.3260   33.7120   46.3380 C   0  0  0  0  0  0  0  0  0  0  0  0
   46.3130   33.0490   45.5650 C   0  0  0  0  0  0  0  0  0  0  0  0
   47.0050   31.9860   46.1520 C   0  0  0  0  0  0  0  0  0  0  0  0
   46.7130   31.6260   47.4380 N   0  0  0  0  0  0  0  0  0  0  0  0
   45.7650   32.2830   48.1430 C   0  0  0  0  0  0  0  0  0  0  0  0
   45.0780   33.3150   47.6010 N   0  0  0  0  0  0  0  0  0  0  0  0
   45.0943   34.6378   44.0749 H   0  0  0  0  0  0  0  0  0  0  0  0
   45.0919   31.5988   42.8297 H   0  0  0  0  0  0  0  0  0  0  0  0
   43.6465   32.1581   42.8030 H   0  0  0  0  0  0  0  0  0  0  0  0
   46.1160   33.7044   41.1764 H   0  0  0  0  0  0  0  0  0  0  0  0
   45.1550   34.3876   40.2196 H   0  0  0  0  0  0  0  0  0  0  0  0
   43.9276   36.0515   42.6663 H   0  0  0  0  0  0  0  0  0  0  0  0
   43.6632   36.7911   41.3220 H   0  0  0  0  0  0  0  0  0  0  0  0
   42.3385   33.7866   41.9015 H   0  0  0  0  0  0  0  0  0  0  0  0
   42.8460   36.2120   39.1951 H   0  0  0  0  0  0  0  0  0  0  0  0
   41.3976   37.4286   37.6591 H   0  0  0  0  0  0  0  0  0  0  0  0
   42.1398   36.2220   36.5546 H   0  0  0  0  0  0  0  0  0  0  0  0
   40.3599   36.4643   36.5546 H   0  0  0  0  0  0  0  0  0  0  0  0
   39.4295   32.8265   39.3236 H   0  0  0  0  0  0  0  0  0  0  0  0
   47.1186   32.6926   43.6952 H   0  0  0  0  0  0  0  0  0  0  0  0
   47.1216   34.4330   44.3019 H   0  0  0  0  0  0  0  0  0  0  0  0
   44.7622   34.5517   45.9055 H   0  0  0  0  0  0  0  0  0  0  0  0
   47.7767   31.4446   45.5850 H   0  0  0  0  0  0  0  0  0  0  0  0
   45.5482   31.9730   49.1759 H   0  0  0  0  0  0  0  0  0  0  0  0
  1 16  1  0
  2  1  1  0
  3  2  1  0
  3  1  1  0
  4  6  1  0
  4  5  1  0
  4  3  1  0
  6  5  1  0
  7  6  1  0
  8  7  1  0
  9 11  1  0
  9  8  2  0
 10  9  1  0
 11 13  1  0
 12 11  2  0
 13 14  1  0
 14  7  1  0
 14 15  2  0
 16 18  1  0
 17 22  2  0
 18 19  2  0
 18 17  1  0
 19 20  1  0
 20 21  2  0
 22 21  1  0
  1 23  1  6
  2 24  1  0
  2 25  1  0
  3 26  1  6
  4 27  1  6
  5 28  1  0
  5 29  1  0
  6 30  1  1
  8 31  1  0
 10 32  1  0
 10 33  1  0
 10 34  1  0
 13 35  1  0
 16 36  1  0
 16 37  1  0
 17 38  1  0
 19 39  1  0
 21 40  1  0
M  ISO  8  23  13  24  13  25  13  26  13  27  13  28  13  29  13  30  13
M  ISO  8  31  14  32   8  33   8  34   8  35   9  36   8  37   8  38  14
M  ISO  2  39  14  40  14
M  END
>  <minimizedAffinity>  (1) 
-5.60779715

>  <minimizedRMSD>  (1) 
4.08720446

$$$$
