
     RDKit          3D

 37 40  0  0  1  0  0  0  0  0999 V2000
   44.1430   34.8720   42.4260 C   0  0  2  0  0  0  0  0  0  0  0  0
   44.4370   34.0880   41.1250 C   0  0  0  0  0  0  0  0  0  0  0  0
   43.8210   35.4510   41.1050 C   0  0  1  0  0  0  0  0  0  0  0  0
   42.4060   35.5830   40.6420 C   0  0  2  0  0  0  0  0  0  0  0  0
   41.2580   35.3720   41.6100 C   0  0  0  0  0  0  0  0  0  0  0  0
   41.6020   34.3060   40.5870 C   0  0  1  0  0  0  0  0  0  0  0  0
   40.5720   34.1270   39.5880 N   0  0  0  0  0  0  0  0  0  0  0  0
   40.4680   34.8580   38.4820 C   0  0  0  0  0  0  0  0  0  0  0  0
   39.4300   34.5680   37.6230 C   0  0  0  0  0  0  0  0  0  0  0  0
   38.5650   33.5420   37.9560 C   0  0  0  0  0  0  0  0  0  0  0  0
   37.6320   33.3230   37.1270 O   0  0  0  0  0  0  0  0  0  0  0  0
   38.6890   32.8080   39.0890 N   0  0  0  0  0  0  0  0  0  0  0  0
   39.7160   33.1240   39.9010 C   0  0  0  0  0  0  0  0  0  0  0  0
   39.7890   32.4130   40.9420 O   0  0  0  0  0  0  0  0  0  0  0  0
   45.3620   35.2670   43.1970 C   0  0  0  0  0  0  0  0  0  0  0  0
   45.0000   34.5710   45.5370 C   0  0  0  0  0  0  0  0  0  0  0  0
   45.6860   34.4290   44.3240 C   0  0  0  0  0  0  0  0  0  0  0  0
   46.6920   33.4510   44.2460 C   0  0  0  0  0  0  0  0  0  0  0  0
   46.9640   32.6840   45.3360 N   0  0  0  0  0  0  0  0  0  0  0  0
   46.2590   32.8670   46.4990 C   0  0  0  0  0  0  0  0  0  0  0  0
   45.2910   33.7940   46.6060 N   0  0  0  0  0  0  0  0  0  0  0  0
   43.5494   34.7595   43.3452 H   0  0  0  0  0  0  0  0  0  0  0  0
   45.4735   33.9421   40.7868 H   0  0  0  0  0  0  0  0  0  0  0  0
   44.1747   33.0977   40.7243 H   0  0  0  0  0  0  0  0  0  0  0  0
   44.0718   36.4120   40.6323 H   0  0  0  0  0  0  0  0  0  0  0  0
   42.6662   36.3975   39.9500 H   0  0  0  0  0  0  0  0  0  0  0  0
   41.4620   35.1979   42.6768 H   0  0  0  0  0  0  0  0  0  0  0  0
   40.3499   35.9327   41.8763 H   0  0  0  0  0  0  0  0  0  0  0  0
   41.9039   33.2483   40.5722 H   0  0  0  0  0  0  0  0  0  0  0  0
   41.1835   35.6638   38.2611 H   0  0  0  0  0  0  0  0  0  0  0  0
   39.2928   35.1399   36.6934 H   0  0  0  0  0  0  0  0  0  0  0  0
   38.0320   32.0482   39.3170 H   0  0  0  0  0  0  0  0  0  0  0  0
   46.2184   35.2516   42.5068 H   0  0  0  0  0  0  0  0  0  0  0  0
   45.1443   36.2611   43.6146 H   0  0  0  0  0  0  0  0  0  0  0  0
   44.2083   35.3299   45.6224 H   0  0  0  0  0  0  0  0  0  0  0  0
   47.2546   33.3069   43.3118 H   0  0  0  0  0  0  0  0  0  0  0  0
   46.4928   32.2366   47.3696 H   0  0  0  0  0  0  0  0  0  0  0  0
  1 15  1  0
  2  1  1  0
  3  2  1  0
  3  1  1  0
  4  3  1  0
  4  5  1  0
  6  4  1  0
  6  5  1  0
  7 13  1  0
  7  6  1  0
  8  7  1  0
  9 10  1  0
  9  8  2  0
 10 12  1  0
 11 10  2  0
 12 13  1  0
 13 14  2  0
 15 17  1  0
 16 21  2  0
 17 16  1  0
 18 17  2  0
 18 19  1  0
 19 20  2  0
 20 21  1  0
  1 22  1  1
  2 23  1  0
  2 24  1  0
  3 25  1  6
  4 26  1  6
  5 27  1  0
  5 28  1  0
  6 29  1  1
  8 30  1  0
  9 31  1  0
 12 32  1  0
 15 33  1  0
 15 34  1  0
 16 35  1  0
 18 36  1  0
 20 37  1  0
M  ISO  8  22  13  23  13  24  13  25  13  26  13  27  13  28  13  29  13
M  ISO  8  30  14  31  14  32   9  33   8  34   8  35  14  36  14  37  14
M  END
>  <minimizedAffinity>  (1) 
-5.57563496

>  <minimizedRMSD>  (1) 
3.28020358

$$$$
