
     RDKit          3D

 37 40  0  0  1  0  0  0  0  0999 V2000
   43.2220   35.0480   41.2980 C   0  0  2  0  0  0  0  0  0  0  0  0
   43.6190   34.1280   40.1320 C   0  0  0  0  0  0  0  0  0  0  0  0
   42.8840   35.4180   39.9190 C   0  0  1  0  0  0  0  0  0  0  0  0
   41.4810   35.3570   39.4250 C   0  0  2  0  0  0  0  0  0  0  0  0
   40.3160   35.8170   40.2630 C   0  0  0  0  0  0  0  0  0  0  0  0
   40.5840   34.3440   40.1190 C   0  0  1  0  0  0  0  0  0  0  0  0
   39.7850   33.5360   39.1530 C   0  0  0  0  0  0  0  0  0  0  0  0
   39.9880   32.1660   39.0570 C   0  0  0  0  0  0  0  0  0  0  0  0
   39.2330   31.4350   38.1520 C   0  0  0  0  0  0  0  0  0  0  0  0
   38.3130   32.1280   37.3910 C   0  0  0  0  0  0  0  0  0  0  0  0
   38.0770   33.4810   37.4500 C   0  0  0  0  0  0  0  0  0  0  0  0
   38.8540   34.1890   38.3730 C   0  0  0  0  0  0  0  0  0  0  0  0
   44.3720   35.6730   42.0350 C   0  0  0  0  0  0  0  0  0  0  0  0
   44.3910   35.8090   44.4870 C   0  0  0  0  0  0  0  0  0  0  0  0
   44.7010   35.0800   43.3110 C   0  0  0  0  0  0  0  0  0  0  0  0
   45.3110   33.8260   43.4310 C   0  0  0  0  0  0  0  0  0  0  0  0
   45.5830   33.3500   44.6740 N   0  0  0  0  0  0  0  0  0  0  0  0
   45.2700   34.0800   45.7880 C   0  0  0  0  0  0  0  0  0  0  0  0
   44.6840   35.2900   45.6980 N   0  0  0  0  0  0  0  0  0  0  0  0
   42.6187   34.9949   42.2163 H   0  0  0  0  0  0  0  0  0  0  0  0
   44.6733   34.0327   39.8329 H   0  0  0  0  0  0  0  0  0  0  0  0
   43.4573   33.0727   39.8670 H   0  0  0  0  0  0  0  0  0  0  0  0
   43.0593   36.3283   39.3269 H   0  0  0  0  0  0  0  0  0  0  0  0
   41.8012   35.6007   38.4012 H   0  0  0  0  0  0  0  0  0  0  0  0
   40.4970   36.3154   41.2268 H   0  0  0  0  0  0  0  0  0  0  0  0
   39.4452   36.4659   40.0879 H   0  0  0  0  0  0  0  0  0  0  0  0
   40.6749   33.5347   40.8584 H   0  0  0  0  0  0  0  0  0  0  0  0
   40.7370   31.6674   39.6897 H   0  0  0  0  0  0  0  0  0  0  0  0
   39.3619   30.3478   38.0450 H   0  0  0  0  0  0  0  0  0  0  0  0
   37.7158   31.5459   36.6738 H   0  0  0  0  0  0  0  0  0  0  0  0
   37.3272   33.9740   36.8138 H   0  0  0  0  0  0  0  0  0  0  0  0
   38.7212   35.2759   38.4775 H   0  0  0  0  0  0  0  0  0  0  0  0
   45.2618   35.6041   41.3919 H   0  0  0  0  0  0  0  0  0  0  0  0
   44.0580   36.7034   42.2578 H   0  0  0  0  0  0  0  0  0  0  0  0
   43.9122   36.7965   44.4124 H   0  0  0  0  0  0  0  0  0  0  0  0
   45.5650   33.2378   42.5369 H   0  0  0  0  0  0  0  0  0  0  0  0
   45.5024   33.6690   46.7815 H   0  0  0  0  0  0  0  0  0  0  0  0
  1 13  1  0
  2  1  1  0
  3  2  1  0
  3  1  1  0
  4  3  1  0
  4  6  1  0
  4  5  1  0
  6  5  1  0
  7  6  1  0
  8  7  2  0
  9  8  1  0
 10 11  1  0
 10  9  2  0
 11 12  2  0
 12  7  1  0
 13 15  1  0
 14 19  2  0
 15 16  2  0
 15 14  1  0
 16 17  1  0
 17 18  2  0
 19 18  1  0
  1 20  1  1
  2 21  1  0
  2 22  1  0
  3 23  1  6
  4 24  1  6
  5 25  1  0
  5 26  1  0
  6 27  1  1
  8 28  1  0
  9 29  1  0
 10 30  1  0
 11 31  1  0
 12 32  1  0
 13 33  1  0
 13 34  1  0
 14 35  1  0
 16 36  1  0
 18 37  1  0
M  ISO  8  20  13  21  13  22  13  23  13  24  13  25  13  26  13  27  13
M  ISO  8  28  14  29  14  30  14  31  14  32  14  33   8  34   8  35  14
M  ISO  2  36  14  37  14
M  END
>  <minimizedAffinity>  (1) 
-5.8933754

>  <minimizedRMSD>  (1) 
3.25338364

$$$$
