
     RDKit          3D

 29 31  0  0  1  0  0  0  0  0999 V2000
   45.7120   34.0830   41.4500 N   0  0  0  0  0  0  0  0  0  0  0  0
   44.9330   33.6840   40.4200 C   0  0  0  0  0  0  0  0  0  0  0  0
   45.6940   33.4260   39.3500 N   0  0  0  0  0  0  0  0  0  0  0  0
   46.9890   33.6710   39.7220 C   0  0  0  0  0  0  0  0  0  0  0  0
   46.9540   34.0630   40.9910 N   0  0  0  0  0  0  0  0  0  0  0  0
   44.9250   35.8020   42.9540 C   0  0  0  0  0  0  0  0  0  0  0  0
   45.3970   34.4690   42.7810 C   0  0  0  0  0  0  0  0  0  0  0  0
   45.5080   33.6860   43.8950 C   0  0  0  0  0  0  0  0  0  0  0  0
   45.1550   34.2410   45.0910 N   0  0  0  0  0  0  0  0  0  0  0  0
   44.7190   35.4820   45.2270 C   0  0  0  0  0  0  0  0  0  0  0  0
   44.6020   36.2740   44.1410 N   0  0  0  0  0  0  0  0  0  0  0  0
   48.2400   33.5520   38.9190 C   0  0  2  0  0  0  0  0  0  0  0  0
   48.3450   34.5090   37.6990 C   0  0  0  0  0  0  0  0  0  0  0  0
   48.1830   32.9850   37.5450 C   0  0  1  0  0  0  0  0  0  0  0  0
   49.2830   32.1570   37.1030 C   0  0  0  0  0  0  0  0  0  0  0  0
   49.0400   31.3180   36.1580 O   0  0  0  0  0  0  0  0  0  0  0  0
   50.5400   32.2540   37.6580 O   0  0  0  0  0  0  0  0  0  0  0  0
   50.9700   31.2060   38.5130 C   0  0  0  0  0  0  0  0  0  0  0  0
   51.6360   30.2140   37.8300 F   0  0  0  0  0  0  0  0  0  0  0  0
   49.8800   30.6060   39.1420 F   0  0  0  0  0  0  0  0  0  0  0  0
   51.7310   31.7900   39.5050 F   0  0  0  0  0  0  0  0  0  0  0  0
   43.8380   33.5861   40.4559 H   0  0  0  0  0  0  0  0  0  0  0  0
   44.8277   36.4542   42.0736 H   0  0  0  0  0  0  0  0  0  0  0  0
   45.8679   32.6485   43.8306 H   0  0  0  0  0  0  0  0  0  0  0  0
   44.4526   35.8673   46.2223 H   0  0  0  0  0  0  0  0  0  0  0  0
   48.8511   33.3147   39.8023 H   0  0  0  0  0  0  0  0  0  0  0  0
   47.5145   35.1854   37.4487 H   0  0  0  0  0  0  0  0  0  0  0  0
   49.0577   35.2697   37.3476 H   0  0  0  0  0  0  0  0  0  0  0  0
   47.4743   32.3596   36.9823 H   0  0  0  0  0  0  0  0  0  0  0  0
  1  7  1  0
  2  1  1  0
  3  4  1  0
  3  2  2  0
  4  5  2  0
  5  1  1  0
  6 11  2  0
  7  6  1  0
  7  8  2  0
  8  9  1  0
  9 10  2  0
 11 10  1  0
 12  4  1  0
 13 12  1  0
 14 13  1  0
 14 12  1  0
 15 14  1  0
 15 17  1  0
 16 15  2  0
 17 18  1  0
 18 20  1  0
 18 21  1  0
 19 18  1  0
  2 22  1  0
  6 23  1  0
  8 24  1  0
 10 25  1  0
 12 26  1  1
 13 27  1  0
 13 28  1  0
 14 29  1  6
M  ISO  8  22  14  23  14  24  14  25  14  26  13  27  13  28  13  29  13
M  END
>  <minimizedAffinity>  (1) 
-4.21104479

>  <minimizedRMSD>  (1) 
1.04805982

$$$$
