
     RDKit          3D

 38 41  0  0  1  0  0  0  0  0999 V2000
   45.4460   33.6170   44.3980 C   0  0  2  0  0  0  0  0  0  0  0  0
   46.3860   34.4170   43.4800 C   0  0  0  0  0  0  0  0  0  0  0  0
   44.9040   34.5540   43.4010 C   0  0  1  0  0  0  0  0  0  0  0  0
   44.2060   34.0640   42.1790 C   0  0  2  0  0  0  0  0  0  0  0  0
   44.8290   34.1940   40.8090 C   0  0  0  0  0  0  0  0  0  0  0  0
   43.7340   35.1460   41.2090 C   0  0  1  0  0  0  0  0  0  0  0  0
   42.3800   34.9490   40.7420 N   0  0  0  0  0  0  0  0  0  0  0  0
   41.2450   35.0280   41.4580 C   0  0  0  0  0  0  0  0  0  0  0  0
   40.0260   34.8110   40.8510 C   0  0  0  0  0  0  0  0  0  0  0  0
   39.9340   34.5090   39.5090 C   0  0  0  0  0  0  0  0  0  0  0  0
   38.6380   34.2970   38.9570 N   0  0  0  0  0  0  0  0  0  0  0  0
   41.0870   34.4380   38.8260 N   0  0  0  0  0  0  0  0  0  0  0  0
   42.2750   34.6520   39.4230 C   0  0  0  0  0  0  0  0  0  0  0  0
   43.2570   34.5510   38.6530 O   0  0  0  0  0  0  0  0  0  0  0  0
   45.5420   33.9590   45.8530 C   0  0  0  0  0  0  0  0  0  0  0  0
   45.2110   32.6610   47.9310 C   0  0  0  0  0  0  0  0  0  0  0  0
   45.9260   32.8740   46.7220 C   0  0  0  0  0  0  0  0  0  0  0  0
   46.9930   32.0140   46.4090 C   0  0  0  0  0  0  0  0  0  0  0  0
   47.3010   31.0090   47.2780 N   0  0  0  0  0  0  0  0  0  0  0  0
   46.5970   30.8370   48.4200 C   0  0  0  0  0  0  0  0  0  0  0  0
   45.5670   31.6500   48.7440 N   0  0  0  0  0  0  0  0  0  0  0  0
   45.2133   32.5667   44.6276 H   0  0  0  0  0  0  0  0  0  0  0  0
   46.9981   35.2344   43.8889 H   0  0  0  0  0  0  0  0  0  0  0  0
   47.1944   34.1743   42.7746 H   0  0  0  0  0  0  0  0  0  0  0  0
   44.1952   35.3922   43.4720 H   0  0  0  0  0  0  0  0  0  0  0  0
   43.7728   33.2134   42.7257 H   0  0  0  0  0  0  0  0  0  0  0  0
   44.6356   33.4271   40.0445 H   0  0  0  0  0  0  0  0  0  0  0  0
   45.8570   34.3118   40.4358 H   0  0  0  0  0  0  0  0  0  0  0  0
   43.6598   36.2430   41.1748 H   0  0  0  0  0  0  0  0  0  0  0  0
   41.2888   35.2664   42.5310 H   0  0  0  0  0  0  0  0  0  0  0  0
   39.1066   34.8804   41.4509 H   0  0  0  0  0  0  0  0  0  0  0  0
   38.5347   34.0697   37.9577 H   0  0  0  0  0  0  0  0  0  0  0  0
   37.8042   34.3710   39.5572 H   0  0  0  0  0  0  0  0  0  0  0  0
   46.2859   34.7616   45.9641 H   0  0  0  0  0  0  0  0  0  0  0  0
   44.5271   34.2490   46.1626 H   0  0  0  0  0  0  0  0  0  0  0  0
   44.3715   33.3187   48.2007 H   0  0  0  0  0  0  0  0  0  0  0  0
   47.5683   32.1490   45.4812 H   0  0  0  0  0  0  0  0  0  0  0  0
   46.8689   30.0167   49.1006 H   0  0  0  0  0  0  0  0  0  0  0  0
  1 15  1  0
  2  1  1  0
  3  2  1  0
  3  1  1  0
  4  3  1  0
  5  6  1  0
  5  4  1  0
  6  4  1  0
  7  6  1  0
  7  8  1  0
  9  8  2  0
 10  9  1  0
 11 10  1  0
 12 13  1  0
 12 10  2  0
 13  7  1  0
 14 13  2  0
 15 17  1  0
 16 21  2  0
 17 16  1  0
 18 17  2  0
 18 19  1  0
 19 20  2  0
 20 21  1  0
  1 22  1  1
  2 23  1  0
  2 24  1  0
  3 25  1  1
  4 26  1  1
  5 27  1  0
  5 28  1  0
  6 29  1  1
  8 30  1  0
  9 31  1  0
 11 32  1  0
 11 33  1  0
 15 34  1  0
 15 35  1  0
 16 36  1  0
 18 37  1  0
 20 38  1  0
M  ISO  8  22  13  23  13  24  13  25  13  26  13  27  13  28  13  29  13
M  ISO  7  30  14  31  14  34   8  35   8  36  14  37  14  38  14
M  END
>  <minimizedAffinity>  (1) 
-5.28983593

>  <minimizedRMSD>  (1) 
4.85431433

$$$$
