
     RDKit          3D

 35 38  0  0  1  0  0  0  0  0999 V2000
   44.0190   34.9200   42.2120 C   0  0  2  0  0  0  0  0  0  0  0  0
   44.3110   34.3960   40.8000 C   0  0  0  0  0  0  0  0  0  0  0  0
   43.4900   35.6280   41.0300 C   0  0  1  0  0  0  0  0  0  0  0  0
   42.0500   35.6000   40.6810 C   0  0  2  0  0  0  0  0  0  0  0  0
   40.9780   35.4250   41.7370 C   0  0  0  0  0  0  0  0  0  0  0  0
   41.3470   34.2650   40.8270 C   0  0  1  0  0  0  0  0  0  0  0  0
   40.2500   33.9320   39.8800 C   0  0  0  0  0  0  0  0  0  0  0  0
   39.2310   33.0400   40.1480 C   0  0  0  0  0  0  0  0  0  0  0  0
   38.2530   32.7930   39.2040 C   0  0  0  0  0  0  0  0  0  0  0  0
   38.2870   33.4220   38.0140 N   0  0  0  0  0  0  0  0  0  0  0  0
   39.2880   34.3060   37.7390 C   0  0  0  0  0  0  0  0  0  0  0  0
   40.2550   34.5530   38.6640 N   0  0  0  0  0  0  0  0  0  0  0  0
   45.2210   35.4130   42.9660 C   0  0  0  0  0  0  0  0  0  0  0  0
   45.0380   34.5930   45.2750 C   0  0  0  0  0  0  0  0  0  0  0  0
   45.6850   34.5540   44.0250 C   0  0  0  0  0  0  0  0  0  0  0  0
   46.7700   33.6700   43.8580 C   0  0  0  0  0  0  0  0  0  0  0  0
   47.1410   32.8920   44.9170 N   0  0  0  0  0  0  0  0  0  0  0  0
   46.4830   32.9670   46.1060 C   0  0  0  0  0  0  0  0  0  0  0  0
   45.4330   33.8120   46.2940 N   0  0  0  0  0  0  0  0  0  0  0  0
   43.5396   34.5663   43.1367 H   0  0  0  0  0  0  0  0  0  0  0  0
   43.8352   33.4711   40.4420 H   0  0  0  0  0  0  0  0  0  0  0  0
   45.2137   34.1470   40.2229 H   0  0  0  0  0  0  0  0  0  0  0  0
   43.5418   36.6770   40.7029 H   0  0  0  0  0  0  0  0  0  0  0  0
   42.2033   36.3502   39.8912 H   0  0  0  0  0  0  0  0  0  0  0  0
   41.2536   35.3983   42.8016 H   0  0  0  0  0  0  0  0  0  0  0  0
   40.0442   35.9475   41.9920 H   0  0  0  0  0  0  0  0  0  0  0  0
   41.7217   33.2354   40.9245 H   0  0  0  0  0  0  0  0  0  0  0  0
   39.1976   32.5231   41.1184 H   0  0  0  0  0  0  0  0  0  0  0  0
   37.4445   32.0807   39.4251 H   0  0  0  0  0  0  0  0  0  0  0  0
   39.3139   34.8207   36.7672 H   0  0  0  0  0  0  0  0  0  0  0  0
   46.0438   35.5388   42.2469 H   0  0  0  0  0  0  0  0  0  0  0  0
   44.9091   36.3493   43.4519 H   0  0  0  0  0  0  0  0  0  0  0  0
   44.1900   35.2784   45.4203 H   0  0  0  0  0  0  0  0  0  0  0  0
   47.3045   33.6084   42.8986 H   0  0  0  0  0  0  0  0  0  0  0  0
   46.8092   32.3264   46.9386 H   0  0  0  0  0  0  0  0  0  0  0  0
  1 13  1  0
  2  3  1  0
  2  1  1  0
  3  1  1  0
  4  6  1  0
  4  3  1  0
  4  5  1  0
  6  5  1  0
  7  8  2  0
  7  6  1  0
  9  8  1  0
 10  9  2  0
 11 10  1  0
 11 12  2  0
 12  7  1  0
 13 15  1  0
 14 19  2  0
 15 14  1  0
 16 15  2  0
 16 17  1  0
 17 18  2  0
 18 19  1  0
  1 20  1  1
  2 21  1  0
  2 22  1  0
  3 23  1  6
  4 24  1  6
  5 25  1  0
  5 26  1  0
  6 27  1  1
  8 28  1  0
  9 29  1  0
 11 30  1  0
 13 31  1  0
 13 32  1  0
 14 33  1  0
 16 34  1  0
 18 35  1  0
M  ISO  8  20  13  21  13  22  13  23  13  24  13  25  13  26  13  27  13
M  ISO  8  28  14  29  14  30  14  31   8  32   8  33  14  34  14  35  14
M  END
>  <minimizedAffinity>  (1) 
-5.14907551

>  <minimizedRMSD>  (1) 
3.13333249

$$$$
