
     RDKit          3D

 42 45  0  0  1  0  0  0  0  0999 V2000
   45.7700   33.3640   41.2950 C   0  0  2  0  0  0  0  0  0  0  0  0
   46.2860   33.4970   39.8530 C   0  0  0  0  0  0  0  0  0  0  0  0
   44.9840   34.1040   40.2990 C   0  0  1  0  0  0  0  0  0  0  0  0
   43.7220   33.5550   39.7290 C   0  0  2  0  0  0  0  0  0  0  0  0
   43.5850   33.3170   38.2420 C   0  0  0  0  0  0  0  0  0  0  0  0
   42.9300   34.5140   38.8500 C   0  0  1  0  0  0  0  0  0  0  0  0
   41.5450   34.5580   39.1610 N   0  0  0  0  0  0  0  0  0  0  0  0
   40.6680   34.7650   38.0510 C   0  0  0  0  0  0  0  0  0  0  0  0
   39.3640   34.0240   38.3040 C   0  0  0  0  0  0  0  0  0  0  0  0
   38.8730   34.4330   39.6630 C   0  0  0  0  0  0  0  0  0  0  0  0
   39.6980   35.5250   40.2980 C   0  0  0  0  0  0  0  0  0  0  0  0
   41.1680   35.1760   40.3830 C   0  0  0  0  0  0  0  0  0  0  0  0
   46.6210   34.0500   42.3280 C   0  0  0  0  0  0  0  0  0  0  0  0
   45.2100   35.6600   43.5280 C   0  0  0  0  0  0  0  0  0  0  0  0
   45.9380   34.4410   43.5330 C   0  0  0  0  0  0  0  0  0  0  0  0
   45.9540   33.6860   44.7060 C   0  0  0  0  0  0  0  0  0  0  0  0
   45.2760   34.1430   45.7920 N   0  0  0  0  0  0  0  0  0  0  0  0
   44.5880   35.3180   45.7500 C   0  0  0  0  0  0  0  0  0  0  0  0
   44.5510   36.0780   44.6270 N   0  0  0  0  0  0  0  0  0  0  0  0
   45.4914   32.5683   42.0016 H   0  0  0  0  0  0  0  0  0  0  0  0
   46.2923   32.6254   39.1820 H   0  0  0  0  0  0  0  0  0  0  0  0
   47.2056   33.8626   39.3727 H   0  0  0  0  0  0  0  0  0  0  0  0
   44.5462   35.1131   40.2998 H   0  0  0  0  0  0  0  0  0  0  0  0
   43.5445   32.9243   40.6126 H   0  0  0  0  0  0  0  0  0  0  0  0
   42.9689   32.4827   37.8755 H   0  0  0  0  0  0  0  0  0  0  0  0
   44.2944   33.1606   37.4160 H   0  0  0  0  0  0  0  0  0  0  0  0
   42.9427   35.5738   38.5554 H   0  0  0  0  0  0  0  0  0  0  0  0
   41.1379   34.3814   37.1334 H   0  0  0  0  0  0  0  0  0  0  0  0
   40.4671   35.8399   37.9321 H   0  0  0  0  0  0  0  0  0  0  0  0
   38.6223   34.2957   37.5385 H   0  0  0  0  0  0  0  0  0  0  0  0
   39.5196   32.9360   38.2578 H   0  0  0  0  0  0  0  0  0  0  0  0
   37.8374   34.7910   39.5658 H   0  0  0  0  0  0  0  0  0  0  0  0
   38.9499   33.5496   40.3139 H   0  0  0  0  0  0  0  0  0  0  0  0
   39.5885   36.4413   39.6993 H   0  0  0  0  0  0  0  0  0  0  0  0
   39.3305   35.6623   41.3257 H   0  0  0  0  0  0  0  0  0  0  0  0
   41.3391   34.4829   41.2199 H   0  0  0  0  0  0  0  0  0  0  0  0
   41.7664   36.0833   40.5523 H   0  0  0  0  0  0  0  0  0  0  0  0
   47.4344   33.3640   42.6069 H   0  0  0  0  0  0  0  0  0  0  0  0
   46.9686   34.9835   41.8614 H   0  0  0  0  0  0  0  0  0  0  0  0
   45.1834   36.2719   42.6143 H   0  0  0  0  0  0  0  0  0  0  0  0
   46.5065   32.7359   44.7514 H   0  0  0  0  0  0  0  0  0  0  0  0
   44.0502   35.6583   46.6472 H   0  0  0  0  0  0  0  0  0  0  0  0
  1 13  1  0
  2  3  1  0
  2  1  1  0
  3  1  1  0
  4  3  1  0
  5  6  1  0
  5  4  1  0
  6  7  1  0
  6  4  1  0
  7 12  1  0
  8  9  1  0
  8  7  1  0
  9 10  1  0
 10 11  1  0
 11 12  1  0
 13 15  1  0
 14 15  2  0
 14 19  1  0
 15 16  1  0
 16 17  2  0
 18 17  1  0
 19 18  2  0
  1 20  1  1
  2 21  1  0
  2 22  1  0
  3 23  1  1
  4 24  1  1
  5 25  1  0
  5 26  1  0
  6 27  1  6
  8 28  1  0
  8 29  1  0
  9 30  1  0
  9 31  1  0
 10 32  1  0
 10 33  1  0
 11 34  1  0
 11 35  1  0
 12 36  1  0
 12 37  1  0
 13 38  1  0
 13 39  1  0
 14 40  1  0
 16 41  1  0
 18 42  1  0
M  ISO  8  20  13  21  13  22  13  23  13  24  13  25  13  26  13  27  13
M  ISO  8  28  13  29  13  30  13  31  13  32  13  33  13  34  13  35  13
M  ISO  7  36  13  37  13  38   8  39   8  40  14  41  14  42  14
M  END
>  <minimizedAffinity>  (1) 
-5.25701427

>  <minimizedRMSD>  (1) 
3.20819712

$$$$
