
     RDKit          3D

 30 32  0  0  1  0  0  0  0  0999 V2000
   43.5950   35.1970   42.0640 C   0  0  2  0  0  0  0  0  0  0  0  0
   43.4750   33.7750   41.5100 C   0  0  0  0  0  0  0  0  0  0  0  0
   43.3350   34.9680   40.6270 C   0  0  1  0  0  0  0  0  0  0  0  0
   42.0210   35.2790   40.0120 C   0  0  2  0  0  0  0  0  0  0  0  0
   41.0340   34.2160   39.6480 C   0  0  0  0  0  0  0  0  0  0  0  0
   41.8630   34.8560   38.5610 C   0  0  1  0  0  0  0  0  0  0  0  0
   41.2670   35.9270   37.6790 C   0  0  0  0  0  0  0  0  0  0  0  0
   42.1910   36.5200   36.8540 F   0  0  0  0  0  0  0  0  0  0  0  0
   40.7940   36.9140   38.5390 F   0  0  0  0  0  0  0  0  0  0  0  0
   40.1730   35.4570   36.9760 F   0  0  0  0  0  0  0  0  0  0  0  0
   44.9500   35.5890   42.5710 C   0  0  0  0  0  0  0  0  0  0  0  0
   44.7950   34.9550   44.9400 C   0  0  0  0  0  0  0  0  0  0  0  0
   45.4390   34.8350   43.6920 C   0  0  0  0  0  0  0  0  0  0  0  0
   46.5380   33.9740   43.6110 C   0  0  0  0  0  0  0  0  0  0  0  0
   46.9270   33.3010   44.7320 N   0  0  0  0  0  0  0  0  0  0  0  0
   46.2800   33.4470   45.9080 C   0  0  0  0  0  0  0  0  0  0  0  0
   45.2080   34.2760   46.0200 N   0  0  0  0  0  0  0  0  0  0  0  0
   43.1006   35.8227   42.8217 H   0  0  0  0  0  0  0  0  0  0  0  0
   44.3647   33.1324   41.4360 H   0  0  0  0  0  0  0  0  0  0  0  0
   42.8624   32.8908   41.7399 H   0  0  0  0  0  0  0  0  0  0  0  0
   43.8275   35.3165   39.7072 H   0  0  0  0  0  0  0  0  0  0  0  0
   41.9279   36.1964   40.6118 H   0  0  0  0  0  0  0  0  0  0  0  0
   41.2220   33.1715   39.9373 H   0  0  0  0  0  0  0  0  0  0  0  0
   39.9564   34.0714   39.8149 H   0  0  0  0  0  0  0  0  0  0  0  0
   42.4841   34.4393   37.7544 H   0  0  0  0  0  0  0  0  0  0  0  0
   45.6670   35.4700   41.7453 H   0  0  0  0  0  0  0  0  0  0  0  0
   44.8479   36.6244   42.9282 H   0  0  0  0  0  0  0  0  0  0  0  0
   43.9278   35.6256   45.0307 H   0  0  0  0  0  0  0  0  0  0  0  0
   47.0782   33.8420   42.6619 H   0  0  0  0  0  0  0  0  0  0  0  0
   46.6255   32.8866   46.7892 H   0  0  0  0  0  0  0  0  0  0  0  0
  1 11  1  0
  2  1  1  0
  3  2  1  0
  3  1  1  0
  4  3  1  0
  5  4  1  0
  6  5  1  0
  6  4  1  0
  7  9  1  0
  7  6  1  0
  8  7  1  0
 10  7  1  0
 11 13  1  0
 12 17  2  0
 13 12  1  0
 14 13  2  0
 14 15  1  0
 15 16  2  0
 16 17  1  0
  1 18  1  1
  2 19  1  0
  2 20  1  0
  3 21  1  6
  4 22  1  6
  5 23  1  0
  5 24  1  0
  6 25  1  6
 11 26  1  0
 11 27  1  0
 12 28  1  0
 14 29  1  0
 16 30  1  0
M  ISO  8  18  13  19  13  20  13  21  13  22  13  23  13  24  13  25  13
M  ISO  5  26   8  27   8  28  14  29  14  30  14
M  END
>  <minimizedAffinity>  (1) 
-5.04606771

>  <minimizedRMSD>  (1) 
1.43923676

$$$$
