
     RDKit          3D

 34 37  0  0  1  0  0  0  0  0999 V2000
   44.6630   34.4800   42.6740 C   0  0  2  0  0  0  0  0  0  0  0  0
   44.6150   33.4100   41.5770 C   0  0  0  0  0  0  0  0  0  0  0  0
   44.5090   34.8650   41.2560 C   0  0  1  0  0  0  0  0  0  0  0  0
   43.2030   35.3780   40.7390 C   0  0  2  0  0  0  0  0  0  0  0  0
   41.9490   35.3320   41.5650 C   0  0  0  0  0  0  0  0  0  0  0  0
   42.1540   34.3240   40.4450 C   0  0  1  0  0  0  0  0  0  0  0  0
   41.3150   34.6100   39.2320 C   0  0  0  0  0  0  0  0  0  0  0  0
   40.0520   34.0900   38.9410 C   0  0  0  0  0  0  0  0  0  0  0  0
   39.7340   34.6660   37.7270 C   0  0  0  0  0  0  0  0  0  0  0  0
   40.7320   35.4820   37.3030 N   0  0  0  0  0  0  0  0  0  0  0  0
   41.6840   35.4400   38.2240 N   0  0  0  0  0  0  0  0  0  0  0  0
   45.9740   34.6080   43.3930 C   0  0  0  0  0  0  0  0  0  0  0  0
   45.2220   34.2000   45.7110 C   0  0  0  0  0  0  0  0  0  0  0  0
   46.0740   33.8630   44.6380 C   0  0  0  0  0  0  0  0  0  0  0  0
   46.9860   32.8200   44.8120 C   0  0  0  0  0  0  0  0  0  0  0  0
   47.0180   32.1730   46.0060 N   0  0  0  0  0  0  0  0  0  0  0  0
   46.1820   32.5270   47.0170 C   0  0  0  0  0  0  0  0  0  0  0  0
   45.2910   33.5320   46.8710 N   0  0  0  0  0  0  0  0  0  0  0  0
   44.1027   34.7472   43.5821 H   0  0  0  0  0  0  0  0  0  0  0  0
   45.5224   32.8482   41.3105 H   0  0  0  0  0  0  0  0  0  0  0  0
   44.0090   32.5139   41.3776 H   0  0  0  0  0  0  0  0  0  0  0  0
   45.0562   35.5638   40.6063 H   0  0  0  0  0  0  0  0  0  0  0  0
   43.7035   36.1969   40.2015 H   0  0  0  0  0  0  0  0  0  0  0  0
   41.9938   35.0044   42.6141 H   0  0  0  0  0  0  0  0  0  0  0  0
   41.1625   36.0561   41.8239 H   0  0  0  0  0  0  0  0  0  0  0  0
   42.1549   33.2275   40.3579 H   0  0  0  0  0  0  0  0  0  0  0  0
   39.4521   33.3874   39.5380 H   0  0  0  0  0  0  0  0  0  0  0  0
   38.7979   34.4875   37.1776 H   0  0  0  0  0  0  0  0  0  0  0  0
   40.7468   36.0299   36.4310 H   0  0  0  0  0  0  0  0  0  0  0  0
   46.7675   34.2524   42.7193 H   0  0  0  0  0  0  0  0  0  0  0  0
   46.0702   35.6696   43.6646 H   0  0  0  0  0  0  0  0  0  0  0  0
   44.4953   35.0175   45.5946 H   0  0  0  0  0  0  0  0  0  0  0  0
   47.6655   32.5279   43.9978 H   0  0  0  0  0  0  0  0  0  0  0  0
   46.2316   31.9848   47.9728 H   0  0  0  0  0  0  0  0  0  0  0  0
  1 12  1  0
  2  1  1  0
  3  2  1  0
  3  1  1  0
  4  3  1  0
  4  5  1  0
  6  4  1  0
  6  5  1  0
  7  6  1  0
  8  7  1  0
  9  8  2  0
 10  9  1  0
 10 11  1  0
 11  7  2  0
 12 14  1  0
 13 18  2  0
 14 15  2  0
 14 13  1  0
 15 16  1  0
 16 17  2  0
 18 17  1  0
  1 19  1  1
  2 20  1  0
  2 21  1  0
  3 22  1  6
  4 23  1  6
  5 24  1  0
  5 25  1  0
  6 26  1  1
  8 27  1  0
  9 28  1  0
 10 29  1  0
 12 30  1  0
 12 31  1  0
 13 32  1  0
 15 33  1  0
 17 34  1  0
M  ISO  8  19  13  20  13  21  13  22  13  23  13  24  13  25  13  26  13
M  ISO  8  27  14  28  14  29   9  30   8  31   8  32  14  33  14  34  14
M  END
>  <minimizedAffinity>  (1) 
-4.88710165

>  <minimizedRMSD>  (1) 
2.84182119

$$$$
