
     RDKit          3D

 34 37  0  0  1  0  0  0  0  0999 V2000
   42.0020   34.7190   40.9790 C   0  0  2  0  0  0  0  0  0  0  0  0
   41.7490   33.3280   40.3670 C   0  0  0  0  0  0  0  0  0  0  0  0
   40.9270   34.5240   40.0040 C   0  0  1  0  0  0  0  0  0  0  0  0
   39.4960   34.5650   40.4130 C   0  0  2  0  0  0  0  0  0  0  0  0
   38.6840   33.2920   40.5410 C   0  0  0  0  0  0  0  0  0  0  0  0
   38.4770   34.1960   39.3550 C   0  0  2  0  0  0  0  0  0  0  0  0
   38.9050   33.6330   38.0480 C   0  0  0  0  0  0  0  0  0  0  0  0
   37.7390   33.3990   37.0650 C   0  0  0  0  0  0  0  0  0  0  0  0
   38.5660   32.2510   37.6420 C   0  0  0  0  0  0  0  0  0  0  0  0
   43.3280   35.3140   40.6320 C   0  0  0  0  0  0  0  0  0  0  0  0
   44.2690   35.4820   42.9050 C   0  0  0  0  0  0  0  0  0  0  0  0
   44.4030   35.0580   41.5670 C   0  0  0  0  0  0  0  0  0  0  0  0
   45.5880   34.3950   41.1830 C   0  0  0  0  0  0  0  0  0  0  0  0
   46.5600   34.1860   42.1130 N   0  0  0  0  0  0  0  0  0  0  0  0
   46.3880   34.6160   43.4040 C   0  0  0  0  0  0  0  0  0  0  0  0
   45.2650   35.2520   43.7920 N   0  0  0  0  0  0  0  0  0  0  0  0
   42.0103   35.2049   41.9658 H   0  0  0  0  0  0  0  0  0  0  0  0
   42.4593   32.9007   39.6439 H   0  0  0  0  0  0  0  0  0  0  0  0
   41.5488   32.3178   40.7536 H   0  0  0  0  0  0  0  0  0  0  0  0
   40.6705   35.0322   39.0627 H   0  0  0  0  0  0  0  0  0  0  0  0
   39.6845   35.4113   41.0899 H   0  0  0  0  0  0  0  0  0  0  0  0
   39.1704   32.3143   40.4084 H   0  0  0  0  0  0  0  0  0  0  0  0
   38.0296   32.8625   41.3139 H   0  0  0  0  0  0  0  0  0  0  0  0
   37.6464   34.7523   38.8961 H   0  0  0  0  0  0  0  0  0  0  0  0
   39.8665   34.1669   38.0722 H   0  0  0  0  0  0  0  0  0  0  0  0
   37.8390   33.6795   36.0061 H   0  0  0  0  0  0  0  0  0  0  0  0
   36.6721   33.6639   37.0250 H   0  0  0  0  0  0  0  0  0  0  0  0
   38.1114   31.5644   38.3714 H   0  0  0  0  0  0  0  0  0  0  0  0
   39.1351   31.4184   37.2028 H   0  0  0  0  0  0  0  0  0  0  0  0
   43.6308   34.9134   39.6533 H   0  0  0  0  0  0  0  0  0  0  0  0
   43.1766   36.4035   40.6454 H   0  0  0  0  0  0  0  0  0  0  0  0
   43.3541   36.0002   43.2282 H   0  0  0  0  0  0  0  0  0  0  0  0
   45.7244   34.0519   40.1468 H   0  0  0  0  0  0  0  0  0  0  0  0
   47.1856   34.4375   44.1402 H   0  0  0  0  0  0  0  0  0  0  0  0
  2  1  1  0
  3  2  1  0
  3  4  1  0
  3  1  1  0
  4  5  1  0
  6  4  1  0
  6  5  1  0
  7  6  1  0
  8  9  1  0
  8  7  1  0
  9  7  1  0
 10  1  1  0
 10 12  1  0
 11 16  2  0
 12 11  1  0
 13 12  2  0
 13 14  1  0
 14 15  2  0
 15 16  1  0
  1 17  1  1
  2 18  1  0
  2 19  1  0
  3 20  1  6
  4 21  1  1
  5 22  1  0
  5 23  1  0
  6 24  1  6
  7 25  1  0
  8 26  1  0
  8 27  1  0
  9 28  1  0
  9 29  1  0
 10 30  1  0
 10 31  1  0
 11 32  1  0
 13 33  1  0
 15 34  1  0
M  ISO  8  17  13  18  13  19  13  20  13  21  13  22  13  23  13  24  13
M  ISO  8  25  13  26  13  27  13  28  13  29  13  30   8  31   8  32  14
M  ISO  2  33  14  34  14
M  END
>  <minimizedAffinity>  (1) 
-5.00934267

>  <minimizedRMSD>  (1) 
2.56323886

$$$$
