
     RDKit          3D

 33 35  0  0  1  0  0  0  0  0999 V2000
   42.6570   35.0480   41.4960 C   0  0  2  0  0  0  0  0  0  0  0  0
   42.4080   33.6190   40.9970 C   0  0  0  0  0  0  0  0  0  0  0  0
   42.2170   34.8190   40.0990 C   0  0  1  0  0  0  0  0  0  0  0  0
   40.8390   35.1360   39.6740 C   0  0  2  0  0  0  0  0  0  0  0  0
   40.2090   34.3800   38.5070 C   0  0  0  0  0  0  0  0  0  0  0  0
   40.6140   35.8120   38.3560 C   0  0  2  0  0  0  0  0  0  0  0  0
   41.6840   36.2880   37.4570 C   0  0  0  0  0  0  0  0  0  0  0  0
   41.1170   37.0710   36.3040 C   0  0  0  0  0  0  0  0  0  0  0  0
   44.1010   35.3650   41.8050 C   0  0  0  0  0  0  0  0  0  0  0  0
   44.2600   35.7580   44.2470 C   0  0  0  0  0  0  0  0  0  0  0  0
   44.5480   34.9540   43.1170 C   0  0  0  0  0  0  0  0  0  0  0  0
   45.2690   33.7640   43.2990 C   0  0  0  0  0  0  0  0  0  0  0  0
   45.6610   33.4330   44.5610 N   0  0  0  0  0  0  0  0  0  0  0  0
   45.3610   34.2410   45.6280 C   0  0  0  0  0  0  0  0  0  0  0  0
   44.6620   35.4020   45.4770 N   0  0  0  0  0  0  0  0  0  0  0  0
   42.2837   35.7061   42.2945 H   0  0  0  0  0  0  0  0  0  0  0  0
   43.2525   32.9332   40.8343 H   0  0  0  0  0  0  0  0  0  0  0  0
   41.7883   32.7690   41.3185 H   0  0  0  0  0  0  0  0  0  0  0  0
   42.6137   35.1496   39.1277 H   0  0  0  0  0  0  0  0  0  0  0  0
   40.5540   35.3351   40.7176 H   0  0  0  0  0  0  0  0  0  0  0  0
   40.7747   33.5895   37.9921 H   0  0  0  0  0  0  0  0  0  0  0  0
   39.2800   33.8107   38.3554 H   0  0  0  0  0  0  0  0  0  0  0  0
   40.1017   36.7330   38.0408 H   0  0  0  0  0  0  0  0  0  0  0  0
   42.3702   36.9327   38.0257 H   0  0  0  0  0  0  0  0  0  0  0  0
   42.2169   35.4133   37.0558 H   0  0  0  0  0  0  0  0  0  0  0  0
   40.5127   37.9055   36.6894 H   0  0  0  0  0  0  0  0  0  0  0  0
   41.9393   37.4667   35.6899 H   0  0  0  0  0  0  0  0  0  0  0  0
   40.4844   36.4132   35.6899 H   0  0  0  0  0  0  0  0  0  0  0  0
   44.7293   34.8601   41.0564 H   0  0  0  0  0  0  0  0  0  0  0  0
   44.1881   36.4612   41.7792 H   0  0  0  0  0  0  0  0  0  0  0  0
   43.6956   36.6927   44.1138 H   0  0  0  0  0  0  0  0  0  0  0  0
   45.5115   33.1151   42.4446 H   0  0  0  0  0  0  0  0  0  0  0  0
   45.6936   33.9441   46.6336 H   0  0  0  0  0  0  0  0  0  0  0  0
  1  9  1  0
  2  1  1  0
  3  2  1  0
  3  1  1  0
  4  3  1  0
  5  4  1  0
  6  5  1  0
  6  4  1  0
  7  6  1  0
  8  7  1  0
  9 11  1  0
 10 15  2  0
 11 12  2  0
 11 10  1  0
 12 13  1  0
 13 14  2  0
 15 14  1  0
  1 16  1  1
  2 17  1  0
  2 18  1  0
  3 19  1  6
  4 20  1  1
  5 21  1  0
  5 22  1  0
  6 23  1  1
  7 24  1  0
  7 25  1  0
  8 26  1  0
  8 27  1  0
  8 28  1  0
  9 29  1  0
  9 30  1  0
 10 31  1  0
 12 32  1  0
 14 33  1  0
M  ISO  8  16  13  17  13  18  13  19  13  20  13  21  13  22  13  23  13
M  ISO  8  24   8  25   8  26   8  27   8  28   8  29   8  30   8  31  14
M  ISO  2  32  14  33  14
M  END
>  <minimizedAffinity>  (1) 
-4.80369425

>  <minimizedRMSD>  (1) 
0.830529511

$$$$
