
     RDKit          3D

 28 30  0  0  1  0  0  0  0  0999 V2000
   42.7560   35.3890   41.3980 C   0  0  2  0  0  0  0  0  0  0  0  0
   41.9530   34.0670   41.4060 C   0  0  0  0  0  0  0  0  0  0  0  0
   42.0980   34.9150   40.1800 C   0  0  1  0  0  0  0  0  0  0  0  0
   40.8960   35.5930   39.6300 C   0  0  2  0  0  0  0  0  0  0  0  0
   39.5140   35.0180   39.8370 C   0  0  0  0  0  0  0  0  0  0  0  0
   40.1960   34.8470   38.4850 C   0  0  2  0  0  0  0  0  0  0  0  0
   40.7460   33.1630   38.1500 S   0  0  0  0  0  0  0  0  0  0  0  0
   44.2200   35.2130   41.6580 C   0  0  0  0  0  0  0  0  0  0  0  0
   44.3090   35.8310   44.0420 C   0  0  0  0  0  0  0  0  0  0  0  0
   44.5810   34.8830   43.0230 C   0  0  0  0  0  0  0  0  0  0  0  0
   45.1880   33.6650   43.3800 C   0  0  0  0  0  0  0  0  0  0  0  0
   45.4930   33.4350   44.6800 N   0  0  0  0  0  0  0  0  0  0  0  0
   45.2160   34.3740   45.6340 C   0  0  0  0  0  0  0  0  0  0  0  0
   44.6290   35.5650   45.3220 N   0  0  0  0  0  0  0  0  0  0  0  0
   42.7492   36.3712   41.8932 H   0  0  0  0  0  0  0  0  0  0  0  0
   42.4725   33.1002   41.4792 H   0  0  0  0  0  0  0  0  0  0  0  0
   41.1172   33.6508   41.9876 H   0  0  0  0  0  0  0  0  0  0  0  0
   42.4626   34.7439   39.1564 H   0  0  0  0  0  0  0  0  0  0  0  0
   41.3199   36.5919   39.8101 H   0  0  0  0  0  0  0  0  0  0  0  0
   39.3758   34.1473   40.4949 H   0  0  0  0  0  0  0  0  0  0  0  0
   38.5484   35.4266   40.1697 H   0  0  0  0  0  0  0  0  0  0  0  0
   39.9689   35.0904   37.4366 H   0  0  0  0  0  0  0  0  0  0  0  0
   40.9598   32.5083   39.3343 H   0  0  0  0  0  0  0  0  0  0  0  0
   44.5840   34.4043   41.0072 H   0  0  0  0  0  0  0  0  0  0  0  0
   44.6804   36.1910   41.4542 H   0  0  0  0  0  0  0  0  0  0  0  0
   43.8338   36.7892   43.7849 H   0  0  0  0  0  0  0  0  0  0  0  0
   45.4122   32.9088   42.6132 H   0  0  0  0  0  0  0  0  0  0  0  0
   45.4737   34.1633   46.6824 H   0  0  0  0  0  0  0  0  0  0  0  0
  1  2  1  0
  1  8  1  0
  3  1  1  0
  3  2  1  0
  4  5  1  0
  4  3  1  0
  6  4  1  0
  6  5  1  0
  7  6  1  0
  8 10  1  0
  9 14  2  0
 10 11  2  0
 10  9  1  0
 11 12  1  0
 12 13  2  0
 14 13  1  0
  1 15  1  1
  2 16  1  0
  2 17  1  0
  3 18  1  6
  4 19  1  6
  5 20  1  0
  5 21  1  0
  6 22  1  6
  7 23  1  0
  8 24  1  0
  8 25  1  0
  9 26  1  0
 11 27  1  0
 13 28  1  0
M  ISO  8  15  13  16  13  17  13  18  13  19  13  20  13  21  13  22  13
M  ISO  6  23  11  24   8  25   8  26  14  27  14  28  14
M  END
>  <minimizedAffinity>  (1) 
-4.44571829

>  <minimizedRMSD>  (1) 
0.634397924

$$$$
