
     RDKit          3D

 32 35  0  0  1  0  0  0  0  0999 V2000
   44.0020   35.1140   42.4690 C   0  0  2  0  0  0  0  0  0  0  0  0
   43.8040   33.7100   41.8650 C   0  0  0  0  0  0  0  0  0  0  0  0
   43.7410   34.9500   41.0380 C   0  0  1  0  0  0  0  0  0  0  0  0
   42.4300   35.3290   40.4280 C   0  0  2  0  0  0  0  0  0  0  0  0
   41.2750   34.3790   40.4140 C   0  0  0  0  0  0  0  0  0  0  0  0
   42.0690   34.5600   39.1490 C   0  0  1  0  0  0  0  0  0  0  0  0
   41.4760   35.3610   38.0460 C   0  0  0  0  0  0  0  0  0  0  0  0
   40.2590   35.2720   37.4400 N   0  0  0  0  0  0  0  0  0  0  0  0
   40.2010   36.2050   36.5160 O   0  0  0  0  0  0  0  0  0  0  0  0
   41.3070   36.8890   36.4900 C   0  0  0  0  0  0  0  0  0  0  0  0
   42.1310   36.3920   37.4330 N   0  0  0  0  0  0  0  0  0  0  0  0
   45.3770   35.3810   43.0110 C   0  0  0  0  0  0  0  0  0  0  0  0
   45.1030   34.5370   45.3160 C   0  0  0  0  0  0  0  0  0  0  0  0
   45.7930   34.5170   44.0930 C   0  0  0  0  0  0  0  0  0  0  0  0
   46.8770   33.6460   43.9580 C   0  0  0  0  0  0  0  0  0  0  0  0
   47.2270   32.8500   45.0140 N   0  0  0  0  0  0  0  0  0  0  0  0
   46.5390   32.8980   46.1780 C   0  0  0  0  0  0  0  0  0  0  0  0
   45.4910   33.7280   46.3320 N   0  0  0  0  0  0  0  0  0  0  0  0
   43.5402   35.7553   43.2342 H   0  0  0  0  0  0  0  0  0  0  0  0
   44.6556   33.0203   41.7695 H   0  0  0  0  0  0  0  0  0  0  0  0
   43.1423   32.8524   42.0567 H   0  0  0  0  0  0  0  0  0  0  0  0
   44.2634   35.3205   40.1437 H   0  0  0  0  0  0  0  0  0  0  0  0
   42.5281   36.3747   40.7548 H   0  0  0  0  0  0  0  0  0  0  0  0
   41.3411   33.4315   40.9688 H   0  0  0  0  0  0  0  0  0  0  0  0
   40.2085   34.4620   40.6705 H   0  0  0  0  0  0  0  0  0  0  0  0
   42.5828   33.8769   38.4566 H   0  0  0  0  0  0  0  0  0  0  0  0
   41.5309   37.7281   35.8149 H   0  0  0  0  0  0  0  0  0  0  0  0
   46.0959   35.2636   42.1868 H   0  0  0  0  0  0  0  0  0  0  0  0
   45.3473   36.3983   43.4283 H   0  0  0  0  0  0  0  0  0  0  0  0
   44.2446   35.2116   45.4499 H   0  0  0  0  0  0  0  0  0  0  0  0
   47.4416   33.6009   43.0150 H   0  0  0  0  0  0  0  0  0  0  0  0
   46.8413   32.2479   47.0122 H   0  0  0  0  0  0  0  0  0  0  0  0
  1 12  1  0
  2  1  1  0
  3  2  1  0
  3  1  1  0
  4  3  1  0
  5  4  1  0
  6  5  1  0
  6  4  1  0
  7  6  1  0
  8  7  2  0
  9  8  1  0
 10  9  1  0
 10 11  2  0
 11  7  1  0
 12 14  1  0
 13 18  2  0
 14 13  1  0
 15 14  2  0
 15 16  1  0
 16 17  2  0
 17 18  1  0
  1 19  1  1
  2 20  1  0
  2 21  1  0
  3 22  1  6
  4 23  1  6
  5 24  1  0
  5 25  1  0
  6 26  1  6
 10 27  1  0
 12 28  1  0
 12 29  1  0
 13 30  1  0
 15 31  1  0
 17 32  1  0
M  ISO  8  19  13  20  13  21  13  22  13  23  13  24  13  25  13  26  13
M  ISO  6  27  14  28   8  29   8  30  14  31  14  32  14
M  END
>  <minimizedAffinity>  (1) 
-4.45118952

>  <minimizedRMSD>  (1) 
1.9345113

$$$$
