
     RDKit          3D

 33 36  0  0  1  0  0  0  0  0999 V2000
   42.7190   35.4630   41.2560 C   0  0  2  0  0  0  0  0  0  0  0  0
   41.7830   34.2630   41.5300 C   0  0  0  0  0  0  0  0  0  0  0  0
   41.9910   34.8250   40.1490 C   0  0  1  0  0  0  0  0  0  0  0  0
   40.8470   35.4850   39.4630 C   0  0  2  0  0  0  0  0  0  0  0  0
   39.4180   35.1470   39.8230 C   0  0  0  0  0  0  0  0  0  0  0  0
   40.0240   34.5760   38.5500 C   0  0  2  0  0  0  0  0  0  0  0  0
   40.3710   33.1770   38.5390 N   0  0  0  0  0  0  0  0  0  0  0  0
   39.8030   32.1370   39.1710 C   0  0  0  0  0  0  0  0  0  0  0  0
   40.4450   30.9820   38.8860 N   0  0  0  0  0  0  0  0  0  0  0  0
   41.4430   31.3260   38.0490 C   0  0  0  0  0  0  0  0  0  0  0  0
   41.3740   32.6710   37.8550 N   0  0  0  0  0  0  0  0  0  0  0  0
   44.1660   35.2230   41.5030 C   0  0  0  0  0  0  0  0  0  0  0  0
   44.3060   35.8630   43.8830 C   0  0  0  0  0  0  0  0  0  0  0  0
   44.5310   34.9270   42.8650 C   0  0  0  0  0  0  0  0  0  0  0  0
   45.1200   33.6890   43.2010 C   0  0  0  0  0  0  0  0  0  0  0  0
   45.4470   33.4560   44.5110 N   0  0  0  0  0  0  0  0  0  0  0  0
   45.2100   34.3920   45.4570 C   0  0  0  0  0  0  0  0  0  0  0  0
   44.6440   35.5960   45.1680 N   0  0  0  0  0  0  0  0  0  0  0  0
   42.8166   36.5128   41.5695 H   0  0  0  0  0  0  0  0  0  0  0  0
   42.2005   33.2819   41.8003 H   0  0  0  0  0  0  0  0  0  0  0  0
   40.9198   34.0651   42.1825 H   0  0  0  0  0  0  0  0  0  0  0  0
   42.3209   34.4213   39.1804 H   0  0  0  0  0  0  0  0  0  0  0  0
   41.3879   36.4397   39.3859 H   0  0  0  0  0  0  0  0  0  0  0  0
   39.2092   34.4847   40.6761 H   0  0  0  0  0  0  0  0  0  0  0  0
   38.5182   35.7350   40.0565 H   0  0  0  0  0  0  0  0  0  0  0  0
   39.7404   34.5764   37.4872 H   0  0  0  0  0  0  0  0  0  0  0  0
   38.9290   32.2149   39.8343 H   0  0  0  0  0  0  0  0  0  0  0  0
   42.1807   30.6428   37.6029 H   0  0  0  0  0  0  0  0  0  0  0  0
   44.4782   34.3733   40.8781 H   0  0  0  0  0  0  0  0  0  0  0  0
   44.6708   36.1692   41.2583 H   0  0  0  0  0  0  0  0  0  0  0  0
   43.8470   36.8314   43.6350 H   0  0  0  0  0  0  0  0  0  0  0  0
   45.3120   32.9291   42.4292 H   0  0  0  0  0  0  0  0  0  0  0  0
   45.4847   34.1727   46.4993 H   0  0  0  0  0  0  0  0  0  0  0  0
  1 12  1  0
  1  2  1  0
  3  1  1  0
  3  2  1  0
  4  5  1  0
  4  3  1  0
  6  4  1  0
  6  5  1  0
  7  6  1  0
  7  8  1  0
  9  8  2  0
 10  9  1  0
 11 10  2  0
 11  7  1  0
 12 14  1  0
 13 18  2  0
 14 15  2  0
 14 13  1  0
 15 16  1  0
 16 17  2  0
 18 17  1  0
  1 19  1  1
  2 20  1  0
  2 21  1  0
  3 22  1  6
  4 23  1  6
  5 24  1  0
  5 25  1  0
  6 26  1  6
  8 27  1  0
 10 28  1  0
 12 29  1  0
 12 30  1  0
 13 31  1  0
 15 32  1  0
 17 33  1  0
M  ISO  8  19  13  20  13  21  13  22  13  23  13  24  13  25  13  26  13
M  ISO  7  27  14  28  14  29   8  30   8  31  14  32  14  33  14
M  END
>  <minimizedAffinity>  (1) 
-4.67475986

>  <minimizedRMSD>  (1) 
1.66733444

$$$$
