
     RDKit          3D

 52 57  0  0  1  0  0  0  0  0999 V2000
   43.0380   34.7060   40.7750 C   0  0  2  0  0  0  0  0  0  0  0  0
   43.3080   34.2180   39.3390 C   0  0  0  0  0  0  0  0  0  0  0  0
   42.3590   35.2890   39.6150 C   0  0  1  0  0  0  0  0  0  0  0  0
   40.8930   35.0840   39.3840 C   0  0  2  0  0  0  0  0  0  0  0  0
   39.8980   35.5900   40.3670 C   0  0  0  0  0  0  0  0  0  0  0  0
   40.2580   34.1280   40.3330 C   0  0  1  0  0  0  0  0  0  0  0  0
   39.3940   33.1020   39.9180 N   0  0  0  0  0  0  0  0  0  0  0  0
   39.4840   32.6360   38.5960 C   0  0  0  0  0  0  0  0  0  0  0  0
   38.4230   31.6000   38.3320 C   0  0  0  0  0  0  0  0  0  0  0  0
   38.5350   30.5980   39.2980 O   0  0  0  0  0  0  0  0  0  0  0  0
   38.1290   31.1490   40.5050 C   0  0  0  0  0  0  0  0  0  0  0  0
   38.5700   32.4870   40.8490 C   0  0  0  0  0  0  0  0  0  0  0  0
   44.2170   35.3450   41.4440 C   0  0  0  0  0  0  0  0  0  0  0  0
   44.5320   33.2130   42.6590 C   0  0  0  0  0  0  0  0  0  0  0  0
   44.9420   34.5100   42.3690 C   0  0  0  0  0  0  0  0  0  0  0  0
   46.0910   34.9690   42.9960 C   0  0  0  0  0  0  0  0  0  0  0  0
   46.7710   34.1590   43.8570 N   0  0  0  0  0  0  0  0  0  0  0  0
   46.3410   32.9140   44.1070 C   0  0  0  0  0  0  0  0  0  0  0  0
   45.2310   32.4350   43.5190 N   0  0  0  0  0  0  0  0  0  0  0  0
   46.9020   31.8690   44.9850 C   0  0  0  0  0  0  0  0  0  0  0  0
   47.7610   30.9010   44.5940 N   0  0  0  0  0  0  0  0  0  0  0  0
   48.2700   29.9570   45.3790 C   0  0  0  0  0  0  0  0  0  0  0  0
   47.9530   29.8890   46.6810 N   0  0  0  0  0  0  0  0  0  0  0  0
   47.1040   30.8060   47.1740 C   0  0  0  0  0  0  0  0  0  0  0  0
   46.8020   30.7070   48.5130 C   0  0  0  0  0  0  0  0  0  0  0  0
   45.9370   31.6150   49.0860 C   0  0  0  0  0  0  0  0  0  0  0  0
   45.4000   32.6090   48.2620 C   0  0  0  0  0  0  0  0  0  0  0  0
   45.7540   32.6370   46.9340 C   0  0  0  0  0  0  0  0  0  0  0  0
   46.6030   31.7650   46.3230 C   0  0  0  0  0  0  0  0  0  0  0  0
   42.6630   34.3242   41.7360 H   0  0  0  0  0  0  0  0  0  0  0  0
   42.9498   33.2305   39.0126 H   0  0  0  0  0  0  0  0  0  0  0  0
   44.1972   34.0992   38.7024 H   0  0  0  0  0  0  0  0  0  0  0  0
   42.2484   36.3210   39.2507 H   0  0  0  0  0  0  0  0  0  0  0  0
   40.9806   35.2077   38.2945 H   0  0  0  0  0  0  0  0  0  0  0  0
   40.2253   36.2185   41.2083 H   0  0  0  0  0  0  0  0  0  0  0  0
   38.9619   36.1643   40.3038 H   0  0  0  0  0  0  0  0  0  0  0  0
   40.6099   33.4028   41.0815 H   0  0  0  0  0  0  0  0  0  0  0  0
   39.3469   33.4799   37.9039 H   0  0  0  0  0  0  0  0  0  0  0  0
   40.4737   32.1804   38.4445 H   0  0  0  0  0  0  0  0  0  0  0  0
   37.4275   32.0642   38.3920 H   0  0  0  0  0  0  0  0  0  0  0  0
   38.5542   31.1724   37.3271 H   0  0  0  0  0  0  0  0  0  0  0  0
   37.4830   30.5801   41.1899 H   0  0  0  0  0  0  0  0  0  0  0  0
   38.2711   32.9810   41.7853 H   0  0  0  0  0  0  0  0  0  0  0  0
   44.9174   35.6662   40.6590 H   0  0  0  0  0  0  0  0  0  0  0  0
   43.8084   36.1712   42.0443 H   0  0  0  0  0  0  0  0  0  0  0  0
   43.6252   32.8128   42.1820 H   0  0  0  0  0  0  0  0  0  0  0  0
   46.4544   35.9883   42.7984 H   0  0  0  0  0  0  0  0  0  0  0  0
   48.9642   29.2175   44.9533 H   0  0  0  0  0  0  0  0  0  0  0  0
   47.2483   29.9077   49.1229 H   0  0  0  0  0  0  0  0  0  0  0  0
   45.6784   31.5594   50.1537 H   0  0  0  0  0  0  0  0  0  0  0  0
   44.7048   33.3573   48.6703 H   0  0  0  0  0  0  0  0  0  0  0  0
   45.3143   33.4309   46.3123 H   0  0  0  0  0  0  0  0  0  0  0  0
  1 13  1  0
  2  3  1  0
  2  1  1  0
  3  1  1  0
  4  3  1  0
  4  6  1  0
  4  5  1  0
  6  5  1  0
  7  6  1  0
  7 12  1  0
  8  7  1  0
  9  8  1  0
  9 10  1  0
 10 11  1  0
 11 12  2  0
 13 15  1  0
 14 19  2  0
 15 14  1  0
 15 16  2  0
 16 17  1  0
 17 18  2  0
 18 20  1  0
 19 18  1  0
 20 29  1  0
 21 20  2  0
 21 22  1  0
 22 23  2  0
 23 24  1  0
 24 25  2  0
 25 26  1  0
 27 26  2  0
 28 27  1  0
 29 28  2  0
 29 24  1  0
  1 30  1  1
  2 31  1  0
  2 32  1  0
  3 33  1  6
  4 34  1  6
  5 35  1  0
  5 36  1  0
  6 37  1  1
  8 38  1  0
  8 39  1  0
  9 40  1  0
  9 41  1  0
 11 42  1  0
 12 43  1  0
 13 44  1  0
 13 45  1  0
 14 46  1  0
 16 47  1  0
 22 48  1  0
 25 49  1  0
 26 50  1  0
 27 51  1  0
 28 52  1  0
M  ISO  8  30  13  31  13  32  13  33  13  34  13  35  13  36  13  37  13
M  ISO  8  38  13  39  13  40  13  41  13  42  13  43  13  44   8  45   8
M  ISO  7  46  14  47  14  48  14  49  14  50  14  51  14  52  14
M  END
>  <minimizedAffinity>  (1) 
-6.56875944

>  <minimizedRMSD>  (1) 
2.73559618

$$$$
