
     RDKit          3D

 48 52  0  0  1  0  0  0  0  0999 V2000
   42.7910   34.9240   41.3240 C   0  0  2  0  0  0  0  0  0  0  0  0
   42.4890   35.4990   39.9240 C   0  0  0  0  0  0  0  0  0  0  0  0
   41.5400   35.6260   41.0210 C   0  0  1  0  0  0  0  0  0  0  0  0
   40.2290   34.9020   40.9800 C   0  0  2  0  0  0  0  0  0  0  0  0
   39.9870   33.7340   41.8670 C   0  0  0  0  0  0  0  0  0  0  0  0
   40.3130   33.5240   40.4110 C   0  0  1  0  0  0  0  0  0  0  0  0
   39.3980   33.0510   39.4530 N   0  0  0  0  0  0  0  0  0  0  0  0
   39.0270   33.8990   38.3950 C   0  0  0  0  0  0  0  0  0  0  0  0
   38.0150   33.2260   37.5120 C   0  0  0  0  0  0  0  0  0  0  0  0
   38.5190   31.9870   37.1120 O   0  0  0  0  0  0  0  0  0  0  0  0
   38.5270   31.1750   38.2370 C   0  0  0  0  0  0  0  0  0  0  0  0
   38.9870   31.7240   39.5020 C   0  0  0  0  0  0  0  0  0  0  0  0
   43.9480   35.5750   42.0170 C   0  0  0  0  0  0  0  0  0  0  0  0
   45.4360   34.0310   40.7830 C   0  0  0  0  0  0  0  0  0  0  0  0
   45.2340   34.9420   41.8270 C   0  0  0  0  0  0  0  0  0  0  0  0
   46.3130   35.2300   42.6830 C   0  0  0  0  0  0  0  0  0  0  0  0
   47.5200   34.6070   42.4630 N   0  0  0  0  0  0  0  0  0  0  0  0
   47.6400   33.7350   41.4290 C   0  0  0  0  0  0  0  0  0  0  0  0
   46.6260   33.4280   40.5800 N   0  0  0  0  0  0  0  0  0  0  0  0
   48.9480   33.1840   41.3450 N   0  0  0  0  0  0  0  0  0  0  0  0
   49.0650   32.1590   40.4800 C   0  0  0  0  0  0  0  0  0  0  0  0
   50.2780   31.5300   40.2960 C   0  0  0  0  0  0  0  0  0  0  0  0
   51.3570   32.0010   41.0420 C   0  0  0  0  0  0  0  0  0  0  0  0
   52.4670   31.4430   40.8900 O   0  0  0  0  0  0  0  0  0  0  0  0
   51.1870   33.0290   41.8940 N   0  0  0  0  0  0  0  0  0  0  0  0
   50.0010   33.6420   42.0710 C   0  0  0  0  0  0  0  0  0  0  0  0
   49.7920   34.6040   42.8530 O   0  0  0  0  0  0  0  0  0  0  0  0
   42.9981   33.9601   41.8119 H   0  0  0  0  0  0  0  0  0  0  0  0
   42.2757   34.8242   39.0819 H   0  0  0  0  0  0  0  0  0  0  0  0
   42.9907   36.1927   39.2333 H   0  0  0  0  0  0  0  0  0  0  0  0
   41.0274   36.4798   41.4882 H   0  0  0  0  0  0  0  0  0  0  0  0
   39.6526   35.8210   40.7977 H   0  0  0  0  0  0  0  0  0  0  0  0
   40.7231   33.4679   42.6398 H   0  0  0  0  0  0  0  0  0  0  0  0
   39.1722   33.4197   42.5358 H   0  0  0  0  0  0  0  0  0  0  0  0
   41.0650   32.9326   39.8682 H   0  0  0  0  0  0  0  0  0  0  0  0
   38.5920   34.8219   38.8062 H   0  0  0  0  0  0  0  0  0  0  0  0
   39.9201   34.1344   37.7976 H   0  0  0  0  0  0  0  0  0  0  0  0
   37.0772   33.0813   38.0684 H   0  0  0  0  0  0  0  0  0  0  0  0
   37.8157   33.8508   36.6289 H   0  0  0  0  0  0  0  0  0  0  0  0
   38.1898   30.1299   38.1726 H   0  0  0  0  0  0  0  0  0  0  0  0
   39.0083   31.1330   40.4295 H   0  0  0  0  0  0  0  0  0  0  0  0
   44.0233   36.6088   41.6489 H   0  0  0  0  0  0  0  0  0  0  0  0
   43.7333   35.4970   43.0930 H   0  0  0  0  0  0  0  0  0  0  0  0
   44.5990   33.7998   40.1077 H   0  0  0  0  0  0  0  0  0  0  0  0
   46.1937   35.9410   43.5138 H   0  0  0  0  0  0  0  0  0  0  0  0
   48.1844   31.8201   39.9146 H   0  0  0  0  0  0  0  0  0  0  0  0
   50.3894   30.6929   39.5911 H   0  0  0  0  0  0  0  0  0  0  0  0
   51.9989   33.3611   42.4338 H   0  0  0  0  0  0  0  0  0  0  0  0
  1 13  1  0
  2  3  1  0
  2  1  1  0
  3  1  1  0
  4  3  1  0
  4  5  1  0
  6  4  1  0
  6  5  1  0
  7 12  1  0
  7  6  1  0
  8  7  1  0
  9  8  1  0
 10  9  1  0
 10 11  1  0
 11 12  2  0
 14 15  2  0
 15 13  1  0
 15 16  1  0
 17 16  2  0
 18 17  1  0
 19 14  1  0
 19 18  2  0
 20 18  1  0
 20 26  1  0
 21 20  1  0
 22 21  2  0
 22 23  1  0
 23 25  1  0
 24 23  2  0
 25 26  1  0
 26 27  2  0
  1 28  1  6
  2 29  1  0
  2 30  1  0
  3 31  1  1
  4 32  1  6
  5 33  1  0
  5 34  1  0
  6 35  1  1
  8 36  1  0
  8 37  1  0
  9 38  1  0
  9 39  1  0
 11 40  1  0
 12 41  1  0
 13 42  1  0
 13 43  1  0
 14 44  1  0
 16 45  1  0
 21 46  1  0
 22 47  1  0
 25 48  1  0
M  ISO  8  28  13  29  13  30  13  31  13  32  13  33  13  34  13  35  13
M  ISO  8  36  13  37  13  38  13  39  13  40  13  41  13  42   8  43   8
M  ISO  5  44  14  45  14  46  14  47  14  48   9
M  END
>  <minimizedAffinity>  (1) 
-6.55761147

>  <minimizedRMSD>  (1) 
2.22727776

$$$$
