
     RDKit          3D

 53 57  0  0  1  0  0  0  0  0999 V2000
   43.5640   34.5310   41.6780 C   0  0  2  0  0  0  0  0  0  0  0  0
   43.7030   34.0690   40.2120 C   0  0  0  0  0  0  0  0  0  0  0  0
   43.0020   35.3000   40.5620 C   0  0  1  0  0  0  0  0  0  0  0  0
   41.5230   35.4110   40.3590 C   0  0  2  0  0  0  0  0  0  0  0  0
   40.5910   35.2460   41.5050 C   0  0  0  0  0  0  0  0  0  0  0  0
   40.7860   34.1240   40.5160 C   0  0  1  0  0  0  0  0  0  0  0  0
   39.8130   33.6910   39.6010 N   0  0  0  0  0  0  0  0  0  0  0  0
   39.7460   34.3100   38.3410 C   0  0  0  0  0  0  0  0  0  0  0  0
   38.5840   33.7640   37.5550 C   0  0  0  0  0  0  0  0  0  0  0  0
   38.7150   32.3740   37.4940 O   0  0  0  0  0  0  0  0  0  0  0  0
   38.4610   31.8910   38.7720 C   0  0  0  0  0  0  0  0  0  0  0  0
   39.0310   32.5840   39.9090 C   0  0  0  0  0  0  0  0  0  0  0  0
   44.8600   34.8750   42.3420 C   0  0  0  0  0  0  0  0  0  0  0  0
   45.0450   34.9080   44.8100 C   0  0  0  0  0  0  0  0  0  0  0  0
   45.1240   34.2090   43.5970 C   0  0  0  0  0  0  0  0  0  0  0  0
   45.4620   32.8520   43.6440 C   0  0  0  0  0  0  0  0  0  0  0  0
   45.7030   32.2550   44.8560 N   0  0  0  0  0  0  0  0  0  0  0  0
   45.6100   32.9900   45.9930 C   0  0  0  0  0  0  0  0  0  0  0  0
   45.2850   34.3090   45.9930 N   0  0  0  0  0  0  0  0  0  0  0  0
   45.8590   32.3650   47.2350 N   0  0  0  0  0  0  0  0  0  0  0  0
   44.9490   31.4570   47.9070 C   0  0  0  0  0  0  0  0  0  0  0  0
   45.6820   30.2920   48.5300 C   0  0  0  0  0  0  0  0  0  0  0  0
   47.0410   30.0780   47.8990 C   0  0  0  0  0  0  0  0  0  0  0  0
   47.8850   31.3140   47.8790 C   0  0  0  0  0  0  0  0  0  0  0  0
   47.0970   32.5970   47.9560 C   0  0  0  0  0  0  0  0  0  0  0  0
   43.1330   34.1891   42.6305 H   0  0  0  0  0  0  0  0  0  0  0  0
   43.1414   33.1949   39.8507 H   0  0  0  0  0  0  0  0  0  0  0  0
   44.5372   33.8002   39.5473 H   0  0  0  0  0  0  0  0  0  0  0  0
   43.1031   36.3498   40.2494 H   0  0  0  0  0  0  0  0  0  0  0  0
   41.6232   36.1991   39.5982 H   0  0  0  0  0  0  0  0  0  0  0  0
   40.9862   35.1538   42.5274 H   0  0  0  0  0  0  0  0  0  0  0  0
   39.7244   35.8027   41.8913 H   0  0  0  0  0  0  0  0  0  0  0  0
   41.0547   33.0606   40.5989 H   0  0  0  0  0  0  0  0  0  0  0  0
   39.6167   35.3941   38.4751 H   0  0  0  0  0  0  0  0  0  0  0  0
   40.6775   34.1081   37.7918 H   0  0  0  0  0  0  0  0  0  0  0  0
   37.6398   34.0278   38.0538 H   0  0  0  0  0  0  0  0  0  0  0  0
   38.5761   34.1906   36.5411 H   0  0  0  0  0  0  0  0  0  0  0  0
   37.8371   30.9968   38.9178 H   0  0  0  0  0  0  0  0  0  0  0  0
   38.8570   32.2568   40.9447 H   0  0  0  0  0  0  0  0  0  0  0  0
   45.6730   34.6183   41.6470 H   0  0  0  0  0  0  0  0  0  0  0  0
   44.7955   35.9465   42.5822 H   0  0  0  0  0  0  0  0  0  0  0  0
   44.7796   35.9754   44.7955 H   0  0  0  0  0  0  0  0  0  0  0  0
   45.5341   32.2672   42.7151 H   0  0  0  0  0  0  0  0  0  0  0  0
   44.4157   32.0063   48.6968 H   0  0  0  0  0  0  0  0  0  0  0  0
   44.2460   31.0602   47.1598 H   0  0  0  0  0  0  0  0  0  0  0  0
   45.8156   30.4891   49.6039 H   0  0  0  0  0  0  0  0  0  0  0  0
   45.0827   29.3845   48.3650 H   0  0  0  0  0  0  0  0  0  0  0  0
   47.5723   29.3015   48.4688 H   0  0  0  0  0  0  0  0  0  0  0  0
   46.8720   29.7816   46.8533 H   0  0  0  0  0  0  0  0  0  0  0  0
   48.5715   31.2778   48.7378 H   0  0  0  0  0  0  0  0  0  0  0  0
   48.4130   31.3227   46.9141 H   0  0  0  0  0  0  0  0  0  0  0  0
   47.6608   33.4177   47.4885 H   0  0  0  0  0  0  0  0  0  0  0  0
   46.9014   32.8812   49.0005 H   0  0  0  0  0  0  0  0  0  0  0  0
  1 13  1  0
  2  3  1  0
  2  1  1  0
  3  1  1  0
  4  6  1  0
  4  3  1  0
  4  5  1  0
  6  5  1  0
  7 12  1  0
  7  6  1  0
  8  7  1  0
  9  8  1  0
 10  9  1  0
 10 11  1  0
 11 12  2  0
 13 15  1  0
 14 19  2  0
 15 16  2  0
 15 14  1  0
 16 17  1  0
 17 18  2  0
 18 20  1  0
 19 18  1  0
 20 21  1  0
 20 25  1  0
 21 22  1  0
 23 22  1  0
 24 23  1  0
 24 25  1  0
  1 26  1  1
  2 27  1  0
  2 28  1  0
  3 29  1  6
  4 30  1  6
  5 31  1  0
  5 32  1  0
  6 33  1  1
  8 34  1  0
  8 35  1  0
  9 36  1  0
  9 37  1  0
 11 38  1  0
 12 39  1  0
 13 40  1  0
 13 41  1  0
 14 42  1  0
 16 43  1  0
 21 44  1  0
 21 45  1  0
 22 46  1  0
 22 47  1  0
 23 48  1  0
 23 49  1  0
 24 50  1  0
 24 51  1  0
 25 52  1  0
 25 53  1  0
M  ISO  8  26  13  27  13  28  13  29  13  30  13  31  13  32  13  33  13
M  ISO  8  34  13  35  13  36  13  37  13  38  13  39  13  40   8  41   8
M  ISO  8  42  14  43  14  44  13  45  13  46  13  47  13  48  13  49  13
M  ISO  4  50  13  51  13  52  13  53  13
M  END
>  <minimizedAffinity>  (1) 
-6.04894686

>  <minimizedRMSD>  (1) 
3.65142298

$$$$
