
     RDKit          3D

 51 55  0  0  1  0  0  0  0  0999 V2000
   43.8360   34.7700   42.1580 C   0  0  2  0  0  0  0  0  0  0  0  0
   43.9710   34.5650   40.6350 C   0  0  0  0  0  0  0  0  0  0  0  0
   43.1600   35.6400   41.1960 C   0  0  1  0  0  0  0  0  0  0  0  0
   41.6690   35.6220   41.0480 C   0  0  2  0  0  0  0  0  0  0  0  0
   40.8140   34.9930   42.0940 C   0  0  0  0  0  0  0  0  0  0  0  0
   41.1070   34.2620   40.8090 C   0  0  1  0  0  0  0  0  0  0  0  0
   40.1590   33.9960   39.8090 N   0  0  0  0  0  0  0  0  0  0  0  0
   40.3120   34.6140   38.5560 C   0  0  0  0  0  0  0  0  0  0  0  0
   39.1610   34.2620   37.6520 C   0  0  0  0  0  0  0  0  0  0  0  0
   39.0580   32.8700   37.5910 O   0  0  0  0  0  0  0  0  0  0  0  0
   38.6070   32.4470   38.8340 C   0  0  0  0  0  0  0  0  0  0  0  0
   39.1750   33.0400   40.0290 C   0  0  0  0  0  0  0  0  0  0  0  0
   45.1090   35.1280   42.8500 C   0  0  0  0  0  0  0  0  0  0  0  0
   46.6130   33.1720   42.7140 C   0  0  0  0  0  0  0  0  0  0  0  0
   46.3060   34.4850   42.3550 C   0  0  0  0  0  0  0  0  0  0  0  0
   47.1910   35.1620   41.5020 C   0  0  0  0  0  0  0  0  0  0  0  0
   48.3160   34.5250   41.0510 N   0  0  0  0  0  0  0  0  0  0  0  0
   48.5610   33.2290   41.4430 C   0  0  0  0  0  0  0  0  0  0  0  0
   47.7230   32.5530   42.2650 N   0  0  0  0  0  0  0  0  0  0  0  0
   49.7420   32.6090   40.9490 N   0  0  0  0  0  0  0  0  0  0  0  0
   49.7390   31.8520   39.8470 C   0  0  0  0  0  0  0  0  0  0  0  0
   50.9320   31.2670   39.4090 C   0  0  0  0  0  0  0  0  0  0  0  0
   50.9890   30.4200   38.1950 C   0  0  0  0  0  0  0  0  0  0  0  0
   52.0740   31.5160   40.1650 C   0  0  0  0  0  0  0  0  0  0  0  0
   53.1640   30.9910   39.7800 O   0  0  0  0  0  0  0  0  0  0  0  0
   52.0560   32.2880   41.2830 N   0  0  0  0  0  0  0  0  0  0  0  0
   50.8630   32.8310   41.6610 C   0  0  0  0  0  0  0  0  0  0  0  0
   50.9710   33.5240   42.7060 O   0  0  0  0  0  0  0  0  0  0  0  0
   43.4744   34.2394   43.0511 H   0  0  0  0  0  0  0  0  0  0  0  0
   43.4904   33.7047   40.1463 H   0  0  0  0  0  0  0  0  0  0  0  0
   44.8040   34.4974   39.9198 H   0  0  0  0  0  0  0  0  0  0  0  0
   43.1413   36.7307   41.0545 H   0  0  0  0  0  0  0  0  0  0  0  0
   41.6358   36.6116   40.5688 H   0  0  0  0  0  0  0  0  0  0  0  0
   41.2617   34.6489   43.0380 H   0  0  0  0  0  0  0  0  0  0  0  0
   39.9015   35.2847   42.6347 H   0  0  0  0  0  0  0  0  0  0  0  0
   41.5121   33.2695   40.5622 H   0  0  0  0  0  0  0  0  0  0  0  0
   40.3453   35.7051   38.6919 H   0  0  0  0  0  0  0  0  0  0  0  0
   41.2470   34.2610   38.0964 H   0  0  0  0  0  0  0  0  0  0  0  0
   38.2293   34.6862   38.0545 H   0  0  0  0  0  0  0  0  0  0  0  0
   39.3312   34.6729   36.6459 H   0  0  0  0  0  0  0  0  0  0  0  0
   37.8295   31.6727   38.9112 H   0  0  0  0  0  0  0  0  0  0  0  0
   38.8495   32.7529   41.0397 H   0  0  0  0  0  0  0  0  0  0  0  0
   45.2482   36.2151   42.7558 H   0  0  0  0  0  0  0  0  0  0  0  0
   44.9913   34.7753   43.8852 H   0  0  0  0  0  0  0  0  0  0  0  0
   45.9301   32.6268   43.3821 H   0  0  0  0  0  0  0  0  0  0  0  0
   46.9822   36.1982   41.1975 H   0  0  0  0  0  0  0  0  0  0  0  0
   48.8051   31.6903   39.2886 H   0  0  0  0  0  0  0  0  0  0  0  0
   51.0602   29.3624   38.4888 H   0  0  0  0  0  0  0  0  0  0  0  0
   50.0785   30.5740   37.5974 H   0  0  0  0  0  0  0  0  0  0  0  0
   51.8707   30.6947   37.5974 H   0  0  0  0  0  0  0  0  0  0  0  0
   52.9142   32.4575   41.8268 H   0  0  0  0  0  0  0  0  0  0  0  0
  1 13  1  0
  2  3  1  0
  2  1  1  0
  3  1  1  0
  4  3  1  0
  4  5  1  0
  6  4  1  0
  6  5  1  0
  7 12  1  0
  7  6  1  0
  8  7  1  0
  9  8  1  0
 10  9  1  0
 10 11  1  0
 11 12  2  0
 15 14  2  0
 15 13  1  0
 16 15  1  0
 17 18  1  0
 17 16  2  0
 18 19  2  0
 19 14  1  0
 20 18  1  0
 20 27  1  0
 21 20  1  0
 22 21  2  0
 22 24  1  0
 23 22  1  0
 24 26  1  0
 25 24  2  0
 26 27  1  0
 27 28  2  0
  1 29  1  1
  2 30  1  0
  2 31  1  0
  3 32  1  6
  4 33  1  6
  5 34  1  0
  5 35  1  0
  6 36  1  1
  8 37  1  0
  8 38  1  0
  9 39  1  0
  9 40  1  0
 11 41  1  0
 12 42  1  0
 13 43  1  0
 13 44  1  0
 14 45  1  0
 16 46  1  0
 21 47  1  0
 23 48  1  0
 23 49  1  0
 23 50  1  0
 26 51  1  0
M  ISO  8  29  13  30  13  31  13  32  13  33  13  34  13  35  13  36  13
M  ISO  8  37  13  38  13  39  13  40  13  41  13  42  13  43   8  44   8
M  ISO  7  45  14  46  14  47  14  48   8  49   8  50   8  51   9
M  END
>  <minimizedAffinity>  (1) 
-6.19070768

>  <minimizedRMSD>  (1) 
2.03147674

$$$$
