
     RDKit          3D

 45 49  0  0  1  0  0  0  0  0999 V2000
   42.8090   34.8390   41.4420 C   0  0  2  0  0  0  0  0  0  0  0  0
   42.4820   35.3720   40.0310 C   0  0  0  0  0  0  0  0  0  0  0  0
   41.5050   35.4200   41.1110 C   0  0  1  0  0  0  0  0  0  0  0  0
   40.2670   34.5770   41.0540 C   0  0  2  0  0  0  0  0  0  0  0  0
   40.2200   33.2620   41.7480 C   0  0  0  0  0  0  0  0  0  0  0  0
   40.4220   33.3260   40.2540 C   0  0  1  0  0  0  0  0  0  0  0  0
   39.4700   32.9130   39.3080 N   0  0  0  0  0  0  0  0  0  0  0  0
   39.0260   33.8400   38.3500 C   0  0  0  0  0  0  0  0  0  0  0  0
   37.9660   33.2290   37.4730 C   0  0  0  0  0  0  0  0  0  0  0  0
   38.4690   32.0430   36.9340 O   0  0  0  0  0  0  0  0  0  0  0  0
   38.5610   31.1320   37.9790 C   0  0  0  0  0  0  0  0  0  0  0  0
   39.0840   31.5800   39.2540 C   0  0  0  0  0  0  0  0  0  0  0  0
   43.8910   35.5860   42.1500 C   0  0  0  0  0  0  0  0  0  0  0  0
   45.6680   34.3670   40.9390 C   0  0  0  0  0  0  0  0  0  0  0  0
   45.2070   34.9970   42.0990 C   0  0  0  0  0  0  0  0  0  0  0  0
   46.0620   35.0310   43.1930 C   0  0  0  0  0  0  0  0  0  0  0  0
   47.3060   34.4670   43.1270 N   0  0  0  0  0  0  0  0  0  0  0  0
   47.6980   33.8640   41.9570 C   0  0  0  0  0  0  0  0  0  0  0  0
   46.8910   33.8100   40.8670 N   0  0  0  0  0  0  0  0  0  0  0  0
   48.9670   33.2460   41.7790 N   0  0  0  0  0  0  0  0  0  0  0  0
   48.9910   32.4220   40.7180 N   0  0  0  0  0  0  0  0  0  0  0  0
   50.2080   31.8640   40.5890 C   0  0  0  0  0  0  0  0  0  0  0  0
   50.9940   32.3610   41.6240 C   0  0  0  0  0  0  0  0  0  0  0  0
   50.1720   33.2300   42.3510 C   0  0  0  0  0  0  0  0  0  0  0  0
   43.0934   33.9025   41.9441 H   0  0  0  0  0  0  0  0  0  0  0  0
   42.3471   34.6735   39.1920 H   0  0  0  0  0  0  0  0  0  0  0  0
   42.9305   36.1030   39.3422 H   0  0  0  0  0  0  0  0  0  0  0  0
   40.9077   36.2267   41.5610 H   0  0  0  0  0  0  0  0  0  0  0  0
   39.5935   35.4464   41.0775 H   0  0  0  0  0  0  0  0  0  0  0  0
   41.0487   32.9551   42.4031 H   0  0  0  0  0  0  0  0  0  0  0  0
   39.5062   32.7590   42.4170 H   0  0  0  0  0  0  0  0  0  0  0  0
   41.1694   32.9167   39.5584 H   0  0  0  0  0  0  0  0  0  0  0  0
   38.6082   34.7185   38.8635 H   0  0  0  0  0  0  0  0  0  0  0  0
   39.8787   34.1365   37.7215 H   0  0  0  0  0  0  0  0  0  0  0  0
   37.0680   33.0138   38.0708 H   0  0  0  0  0  0  0  0  0  0  0  0
   37.6956   33.9258   36.6660 H   0  0  0  0  0  0  0  0  0  0  0  0
   38.2422   30.0883   37.8408 H   0  0  0  0  0  0  0  0  0  0  0  0
   39.1696   30.9089   40.1214 H   0  0  0  0  0  0  0  0  0  0  0  0
   43.9543   36.5893   41.7035 H   0  0  0  0  0  0  0  0  0  0  0  0
   43.6064   35.5818   43.2125 H   0  0  0  0  0  0  0  0  0  0  0  0
   45.0107   34.3254   40.0580 H   0  0  0  0  0  0  0  0  0  0  0  0
   45.7346   35.5174   44.1237 H   0  0  0  0  0  0  0  0  0  0  0  0
   50.5221   31.1505   39.8129 H   0  0  0  0  0  0  0  0  0  0  0  0
   52.0475   32.1200   41.8293 H   0  0  0  0  0  0  0  0  0  0  0  0
   50.4691   33.8023   43.2422 H   0  0  0  0  0  0  0  0  0  0  0  0
  1 13  1  0
  2  3  1  0
  2  1  1  0
  3  1  1  0
  4  3  1  0
  4  5  1  0
  6  4  1  0
  6  5  1  0
  7  6  1  0
  8  7  1  0
  9  8  1  0
 10  9  1  0
 10 11  1  0
 11 12  2  0
 12  7  1  0
 14 15  2  0
 15 13  1  0
 15 16  1  0
 17 16  2  0
 18 17  1  0
 19 14  1  0
 19 18  2  0
 20 18  1  0
 20 24  1  0
 21 20  1  0
 22 21  2  0
 22 23  1  0
 23 24  2  0
  1 25  1  6
  2 26  1  0
  2 27  1  0
  3 28  1  1
  4 29  1  6
  5 30  1  0
  5 31  1  0
  6 32  1  1
  8 33  1  0
  8 34  1  0
  9 35  1  0
  9 36  1  0
 11 37  1  0
 12 38  1  0
 13 39  1  0
 13 40  1  0
 14 41  1  0
 16 42  1  0
 22 43  1  0
 23 44  1  0
 24 45  1  0
M  ISO  8  25  13  26  13  27  13  28  13  29  13  30  13  31  13  32  13
M  ISO  8  33  13  34  13  35  13  36  13  37  13  38  13  39   8  40   8
M  ISO  5  41  14  42  14  43  14  44  14  45  14
M  END
>  <minimizedAffinity>  (1) 
-5.6183238

>  <minimizedRMSD>  (1) 
2.216923

$$$$
