
     RDKit          3D

 45 49  0  0  1  0  0  0  0  0999 V2000
   42.6120   34.9080   41.3090 C   0  0  2  0  0  0  0  0  0  0  0  0
   42.2630   35.4650   39.9150 C   0  0  0  0  0  0  0  0  0  0  0  0
   41.3010   35.4870   41.0080 C   0  0  1  0  0  0  0  0  0  0  0  0
   40.0680   34.6370   40.9510 C   0  0  2  0  0  0  0  0  0  0  0  0
   39.9750   33.3870   41.7530 C   0  0  0  0  0  0  0  0  0  0  0  0
   40.2680   33.3230   40.2770 C   0  0  1  0  0  0  0  0  0  0  0  0
   39.3790   32.8230   39.3110 N   0  0  0  0  0  0  0  0  0  0  0  0
   39.0100   33.6550   38.2420 C   0  0  0  0  0  0  0  0  0  0  0  0
   38.0160   32.9620   37.3500 C   0  0  0  0  0  0  0  0  0  0  0  0
   38.5440   31.7270   36.9650 O   0  0  0  0  0  0  0  0  0  0  0  0
   38.5580   30.9230   38.0960 C   0  0  0  0  0  0  0  0  0  0  0  0
   38.9910   31.4920   39.3580 C   0  0  0  0  0  0  0  0  0  0  0  0
   43.7000   35.6570   42.0100 C   0  0  0  0  0  0  0  0  0  0  0  0
   45.4060   34.2750   40.8590 C   0  0  0  0  0  0  0  0  0  0  0  0
   45.0210   35.0650   41.9390 C   0  0  0  0  0  0  0  0  0  0  0  0
   45.9390   35.2760   42.9580 C   0  0  0  0  0  0  0  0  0  0  0  0
   47.1820   34.7220   42.9000 N   0  0  0  0  0  0  0  0  0  0  0  0
   47.5140   33.9480   41.8110 C   0  0  0  0  0  0  0  0  0  0  0  0
   46.6230   33.7320   40.7990 N   0  0  0  0  0  0  0  0  0  0  0  0
   48.8340   33.3060   41.6500 C   0  0  0  0  0  0  0  0  0  0  0  0
   49.9460   33.4610   42.3400 C   0  0  0  0  0  0  0  0  0  0  0  0
   51.0790   32.7590   42.0230 C   0  0  0  0  0  0  0  0  0  0  0  0
   50.9620   31.8900   40.9390 C   0  0  0  0  0  0  0  0  0  0  0  0
   49.1880   32.1280   40.4130 S   0  0  0  0  0  0  0  0  0  0  0  0
   42.9078   33.9641   41.7903 H   0  0  0  0  0  0  0  0  0  0  0  0
   42.1205   34.7818   39.0648 H   0  0  0  0  0  0  0  0  0  0  0  0
   42.6980   36.2116   39.2343 H   0  0  0  0  0  0  0  0  0  0  0  0
   40.7054   36.2813   41.4817 H   0  0  0  0  0  0  0  0  0  0  0  0
   39.3968   35.5034   40.8574 H   0  0  0  0  0  0  0  0  0  0  0  0
   40.7611   33.1404   42.4818 H   0  0  0  0  0  0  0  0  0  0  0  0
   39.2204   32.9417   42.4181 H   0  0  0  0  0  0  0  0  0  0  0  0
   41.0559   32.8573   39.6668 H   0  0  0  0  0  0  0  0  0  0  0  0
   38.5583   34.5757   38.6398 H   0  0  0  0  0  0  0  0  0  0  0  0
   39.9077   33.8950   37.6533 H   0  0  0  0  0  0  0  0  0  0  0  0
   37.0736   32.8076   37.8959 H   0  0  0  0  0  0  0  0  0  0  0  0
   37.8173   33.5782   36.4607 H   0  0  0  0  0  0  0  0  0  0  0  0
   38.2454   29.8700   38.0363 H   0  0  0  0  0  0  0  0  0  0  0  0
   39.0104   30.9074   40.2896 H   0  0  0  0  0  0  0  0  0  0  0  0
   43.7567   36.6625   41.5675 H   0  0  0  0  0  0  0  0  0  0  0  0
   43.4274   35.6515   43.0757 H   0  0  0  0  0  0  0  0  0  0  0  0
   44.6936   34.0954   40.0403 H   0  0  0  0  0  0  0  0  0  0  0  0
   45.6599   35.8973   43.8218 H   0  0  0  0  0  0  0  0  0  0  0  0
   49.9648   34.1657   43.1844 H   0  0  0  0  0  0  0  0  0  0  0  0
   52.0173   32.8732   42.5856 H   0  0  0  0  0  0  0  0  0  0  0  0
   51.7253   31.2289   40.5027 H   0  0  0  0  0  0  0  0  0  0  0  0
  1 13  1  0
  2  3  1  0
  2  1  1  0
  3  1  1  0
  4  3  1  0
  4  5  1  0
  6  4  1  0
  6  5  1  0
  7 12  1  0
  7  6  1  0
  8  7  1  0
  9  8  1  0
 10  9  1  0
 10 11  1  0
 11 12  2  0
 14 15  2  0
 15 13  1  0
 15 16  1  0
 17 16  2  0
 18 17  1  0
 19 14  1  0
 19 18  2  0
 20 18  1  0
 20 21  2  0
 22 21  1  0
 23 22  2  0
 24 23  1  0
 24 20  1  0
  1 25  1  6
  2 26  1  0
  2 27  1  0
  3 28  1  1
  4 29  1  6
  5 30  1  0
  5 31  1  0
  6 32  1  1
  8 33  1  0
  8 34  1  0
  9 35  1  0
  9 36  1  0
 11 37  1  0
 12 38  1  0
 13 39  1  0
 13 40  1  0
 14 41  1  0
 16 42  1  0
 21 43  1  0
 22 44  1  0
 23 45  1  0
M  ISO  8  25  13  26  13  27  13  28  13  29  13  30  13  31  13  32  13
M  ISO  8  33  13  34  13  35  13  36  13  37  13  38  13  39   8  40   8
M  ISO  5  41  14  42  14  43  14  44  14  45  14
M  END
>  <minimizedAffinity>  (1) 
-5.49842072

>  <minimizedRMSD>  (1) 
2.17284083

$$$$
