
     RDKit          3D

 45 49  0  0  1  0  0  0  0  0999 V2000
   42.6190   34.9160   41.3300 C   0  0  2  0  0  0  0  0  0  0  0  0
   42.2770   35.4500   39.9240 C   0  0  0  0  0  0  0  0  0  0  0  0
   41.3060   35.4780   41.0120 C   0  0  1  0  0  0  0  0  0  0  0  0
   40.0810   34.6190   40.9590 C   0  0  2  0  0  0  0  0  0  0  0  0
   40.0110   33.3570   41.7460 C   0  0  0  0  0  0  0  0  0  0  0  0
   40.2860   33.3150   40.2650 C   0  0  1  0  0  0  0  0  0  0  0  0
   39.3940   32.8150   39.3030 N   0  0  0  0  0  0  0  0  0  0  0  0
   39.0230   33.6460   38.2340 C   0  0  0  0  0  0  0  0  0  0  0  0
   38.0190   32.9530   37.3520 C   0  0  0  0  0  0  0  0  0  0  0  0
   38.5480   31.7210   36.9600 O   0  0  0  0  0  0  0  0  0  0  0  0
   38.5650   30.9150   38.0930 C   0  0  0  0  0  0  0  0  0  0  0  0
   39.0050   31.4830   39.3550 C   0  0  0  0  0  0  0  0  0  0  0  0
   43.7020   35.6700   42.0250 C   0  0  0  0  0  0  0  0  0  0  0  0
   45.4080   34.3070   40.8730 C   0  0  0  0  0  0  0  0  0  0  0  0
   45.0280   35.0910   41.9640 C   0  0  0  0  0  0  0  0  0  0  0  0
   45.9610   35.2910   42.9760 C   0  0  0  0  0  0  0  0  0  0  0  0
   47.2010   34.7350   42.8940 N   0  0  0  0  0  0  0  0  0  0  0  0
   47.5180   33.9700   41.7920 C   0  0  0  0  0  0  0  0  0  0  0  0
   46.6330   33.7550   40.7860 N   0  0  0  0  0  0  0  0  0  0  0  0
   48.8160   33.3930   41.7140 N   0  0  0  0  0  0  0  0  0  0  0  0
   49.8810   33.7080   42.4750 C   0  0  0  0  0  0  0  0  0  0  0  0
   50.9420   32.8970   42.0580 C   0  0  0  0  0  0  0  0  0  0  0  0
   50.5100   32.0920   41.0430 N   0  0  0  0  0  0  0  0  0  0  0  0
   49.2010   32.4300   40.8660 C   0  0  0  0  0  0  0  0  0  0  0  0
   42.9158   33.9826   41.8307 H   0  0  0  0  0  0  0  0  0  0  0  0
   42.1473   34.7535   39.0825 H   0  0  0  0  0  0  0  0  0  0  0  0
   42.7104   36.1905   39.2357 H   0  0  0  0  0  0  0  0  0  0  0  0
   40.6999   36.2730   41.4709 H   0  0  0  0  0  0  0  0  0  0  0  0
   39.3999   35.4796   40.8851 H   0  0  0  0  0  0  0  0  0  0  0  0
   40.8088   33.1092   42.4616 H   0  0  0  0  0  0  0  0  0  0  0  0
   39.2695   32.8953   42.4146 H   0  0  0  0  0  0  0  0  0  0  0  0
   41.0708   32.8664   39.6382 H   0  0  0  0  0  0  0  0  0  0  0  0
   38.5787   34.5705   38.6313 H   0  0  0  0  0  0  0  0  0  0  0  0
   39.9176   33.8809   37.6386 H   0  0  0  0  0  0  0  0  0  0  0  0
   37.0833   32.7948   37.9083 H   0  0  0  0  0  0  0  0  0  0  0  0
   37.8061   33.5702   36.4667 H   0  0  0  0  0  0  0  0  0  0  0  0
   38.2498   29.8628   38.0342 H   0  0  0  0  0  0  0  0  0  0  0  0
   39.0285   30.8990   40.2869 H   0  0  0  0  0  0  0  0  0  0  0  0
   43.7533   36.6729   41.5761 H   0  0  0  0  0  0  0  0  0  0  0  0
   43.4275   35.6625   43.0902 H   0  0  0  0  0  0  0  0  0  0  0  0
   44.6858   34.1354   40.0612 H   0  0  0  0  0  0  0  0  0  0  0  0
   45.6947   35.9036   43.8500 H   0  0  0  0  0  0  0  0  0  0  0  0
   49.9113   34.4622   43.2752 H   0  0  0  0  0  0  0  0  0  0  0  0
   51.9582   32.9063   42.4790 H   0  0  0  0  0  0  0  0  0  0  0  0
   48.5408   31.9678   40.1173 H   0  0  0  0  0  0  0  0  0  0  0  0
  1 13  1  0
  2  3  1  0
  2  1  1  0
  3  1  1  0
  4  3  1  0
  4  5  1  0
  6  4  1  0
  6  5  1  0
  7 12  1  0
  7  6  1  0
  8  7  1  0
  9  8  1  0
 10  9  1  0
 10 11  1  0
 11 12  2  0
 14 15  2  0
 15 13  1  0
 15 16  1  0
 17 16  2  0
 18 17  1  0
 19 14  1  0
 19 18  2  0
 20 18  1  0
 20 21  1  0
 22 21  2  0
 23 22  1  0
 24 23  2  0
 24 20  1  0
  1 25  1  6
  2 26  1  0
  2 27  1  0
  3 28  1  1
  4 29  1  6
  5 30  1  0
  5 31  1  0
  6 32  1  1
  8 33  1  0
  8 34  1  0
  9 35  1  0
  9 36  1  0
 11 37  1  0
 12 38  1  0
 13 39  1  0
 13 40  1  0
 14 41  1  0
 16 42  1  0
 21 43  1  0
 22 44  1  0
 24 45  1  0
M  ISO  8  25  13  26  13  27  13  28  13  29  13  30  13  31  13  32  13
M  ISO  8  33  13  34  13  35  13  36  13  37  13  38  13  39   8  40   8
M  ISO  5  41  14  42  14  43  14  44  14  45  14
M  END
>  <minimizedAffinity>  (1) 
-5.63635969

>  <minimizedRMSD>  (1) 
2.2022562

$$$$
