
     RDKit          3D

 45 49  0  0  1  0  0  0  0  0999 V2000
   44.1760   35.1290   42.3280 C   0  0  2  0  0  0  0  0  0  0  0  0
   44.2390   34.5250   40.9080 C   0  0  0  0  0  0  0  0  0  0  0  0
   43.4780   35.7390   41.1930 C   0  0  1  0  0  0  0  0  0  0  0  0
   41.9800   35.7250   41.1140 C   0  0  2  0  0  0  0  0  0  0  0  0
   41.1730   35.0090   42.1380 C   0  0  0  0  0  0  0  0  0  0  0  0
   41.4110   34.3850   40.7850 C   0  0  1  0  0  0  0  0  0  0  0  0
   40.4180   34.2070   39.8070 N   0  0  0  0  0  0  0  0  0  0  0  0
   40.6660   34.6650   38.5030 C   0  0  0  0  0  0  0  0  0  0  0  0
   39.4630   34.4360   37.6270 C   0  0  0  0  0  0  0  0  0  0  0  0
   39.1080   33.0860   37.7040 O   0  0  0  0  0  0  0  0  0  0  0  0
   38.6000   32.8780   38.9790 C   0  0  0  0  0  0  0  0  0  0  0  0
   39.2780   33.4740   40.1140 C   0  0  0  0  0  0  0  0  0  0  0  0
   45.4830   35.6180   42.8560 C   0  0  0  0  0  0  0  0  0  0  0  0
   46.8460   33.5930   43.2790 C   0  0  0  0  0  0  0  0  0  0  0  0
   46.6350   34.7830   42.5810 C   0  0  0  0  0  0  0  0  0  0  0  0
   47.5650   35.1450   41.6110 C   0  0  0  0  0  0  0  0  0  0  0  0
   48.6490   34.3430   41.3630 N   0  0  0  0  0  0  0  0  0  0  0  0
   48.7990   33.1860   42.0840 C   0  0  0  0  0  0  0  0  0  0  0  0
   47.9090   32.8060   43.0360 N   0  0  0  0  0  0  0  0  0  0  0  0
   49.9460   32.3240   41.8310 C   0  0  0  0  0  0  0  0  0  0  0  0
   50.3080   31.2170   42.5870 C   0  0  0  0  0  0  0  0  0  0  0  0
   51.4120   30.6340   42.0980 N   0  0  0  0  0  0  0  0  0  0  0  0
   51.7660   31.3640   41.0240 C   0  0  0  0  0  0  0  0  0  0  0  0
   50.8870   32.3720   40.8710 N   0  0  0  0  0  0  0  0  0  0  0  0
   43.8428   34.8620   43.3418 H   0  0  0  0  0  0  0  0  0  0  0  0
   43.7171   33.5834   40.6821 H   0  0  0  0  0  0  0  0  0  0  0  0
   45.0381   34.2426   40.2068 H   0  0  0  0  0  0  0  0  0  0  0  0
   43.4791   36.7535   40.7677 H   0  0  0  0  0  0  0  0  0  0  0  0
   41.9239   36.7519   40.7237 H   0  0  0  0  0  0  0  0  0  0  0  0
   41.6614   34.5912   43.0307 H   0  0  0  0  0  0  0  0  0  0  0  0
   40.2841   35.2514   42.7389 H   0  0  0  0  0  0  0  0  0  0  0  0
   41.8056   33.4175   40.4411 H   0  0  0  0  0  0  0  0  0  0  0  0
   40.8919   35.7411   38.5339 H   0  0  0  0  0  0  0  0  0  0  0  0
   41.5202   34.1105   38.0871 H   0  0  0  0  0  0  0  0  0  0  0  0
   39.7068   34.6967   36.5865 H   0  0  0  0  0  0  0  0  0  0  0  0
   38.6262   35.0653   37.9643 H   0  0  0  0  0  0  0  0  0  0  0  0
   37.6956   32.2695   39.1264 H   0  0  0  0  0  0  0  0  0  0  0  0
   38.9153   33.3543   41.1456 H   0  0  0  0  0  0  0  0  0  0  0  0
   45.6734   36.6084   42.4168 H   0  0  0  0  0  0  0  0  0  0  0  0
   45.3761   35.6222   43.9508 H   0  0  0  0  0  0  0  0  0  0  0  0
   46.1221   33.2902   44.0499 H   0  0  0  0  0  0  0  0  0  0  0  0
   47.4301   36.0767   41.0420 H   0  0  0  0  0  0  0  0  0  0  0  0
   49.7598   30.8639   43.4728 H   0  0  0  0  0  0  0  0  0  0  0  0
   52.6332   31.1685   40.3762 H   0  0  0  0  0  0  0  0  0  0  0  0
   50.9290   33.0801   40.1242 H   0  0  0  0  0  0  0  0  0  0  0  0
  1 13  1  0
  2  3  1  0
  2  1  1  0
  3  1  1  0
  4  3  1  0
  4  5  1  0
  6  4  1  0
  6  5  1  0
  7 12  1  0
  7  6  1  0
  8  7  1  0
  9 10  1  0
  9  8  1  0
 10 11  1  0
 11 12  2  0
 15 13  1  0
 15 14  2  0
 16 15  1  0
 17 16  2  0
 17 18  1  0
 18 19  2  0
 19 14  1  0
 20 18  1  0
 20 21  2  0
 22 21  1  0
 23 22  2  0
 24 23  1  0
 24 20  1  0
  1 25  1  1
  2 26  1  0
  2 27  1  0
  3 28  1  6
  4 29  1  6
  5 30  1  0
  5 31  1  0
  6 32  1  1
  8 33  1  0
  8 34  1  0
  9 35  1  0
  9 36  1  0
 11 37  1  0
 12 38  1  0
 13 39  1  0
 13 40  1  0
 14 41  1  0
 16 42  1  0
 21 43  1  0
 23 44  1  0
 24 45  1  0
M  ISO  8  25  13  26  13  27  13  28  13  29  13  30  13  31  13  32  13
M  ISO  8  33  13  34  13  35  13  36  13  37  13  38  13  39   8  40   8
M  ISO  5  41  14  42  14  43  14  44  14  45   9
M  END
>  <minimizedAffinity>  (1) 
-5.22252417

>  <minimizedRMSD>  (1) 
1.10331988

$$$$
