
     RDKit          3D

 50 54  0  0  1  0  0  0  0  0999 V2000
   42.8210   34.9160   41.5640 C   0  0  2  0  0  0  0  0  0  0  0  0
   42.6600   35.2490   40.0650 C   0  0  0  0  0  0  0  0  0  0  0  0
   41.6260   35.5850   41.0400 C   0  0  1  0  0  0  0  0  0  0  0  0
   40.3010   34.8870   41.0100 C   0  0  2  0  0  0  0  0  0  0  0  0
   40.0420   33.7190   41.8930 C   0  0  0  0  0  0  0  0  0  0  0  0
   40.3580   33.5130   40.4340 C   0  0  1  0  0  0  0  0  0  0  0  0
   39.4400   33.0530   39.4770 N   0  0  0  0  0  0  0  0  0  0  0  0
   39.0850   33.9050   38.4180 C   0  0  0  0  0  0  0  0  0  0  0  0
   38.0470   33.2530   37.5420 C   0  0  0  0  0  0  0  0  0  0  0  0
   38.5310   32.0070   37.1370 O   0  0  0  0  0  0  0  0  0  0  0  0
   38.5300   31.1930   38.2620 C   0  0  0  0  0  0  0  0  0  0  0  0
   39.0040   31.7340   39.5220 C   0  0  0  0  0  0  0  0  0  0  0  0
   43.9420   35.6320   42.2420 C   0  0  0  0  0  0  0  0  0  0  0  0
   45.6920   34.4490   43.5270 C   0  0  0  0  0  0  0  0  0  0  0  0
   45.2010   34.9250   42.3140 C   0  0  0  0  0  0  0  0  0  0  0  0
   45.9640   34.6980   41.1740 C   0  0  0  0  0  0  0  0  0  0  0  0
   47.1550   34.0270   41.2530 N   0  0  0  0  0  0  0  0  0  0  0  0
   47.5790   33.5840   42.4860 C   0  0  0  0  0  0  0  0  0  0  0  0
   46.8600   33.7900   43.6130 N   0  0  0  0  0  0  0  0  0  0  0  0
   48.8190   32.8850   42.5850 N   0  0  0  0  0  0  0  0  0  0  0  0
   49.0010   31.5110   43.0780 C   0  0  0  0  0  0  0  0  0  0  0  0
   50.3180   31.0460   42.5590 C   0  0  0  0  0  0  0  0  0  0  0  0
   50.9810   32.2230   41.8850 C   0  0  0  0  0  0  0  0  0  0  0  0
   50.1220   33.4190   42.2120 C   0  0  0  0  0  0  0  0  0  0  0  0
   42.9483   34.0457   42.2246 H   0  0  0  0  0  0  0  0  0  0  0  0
   42.4920   34.4450   39.3333 H   0  0  0  0  0  0  0  0  0  0  0  0
   43.2436   35.8017   39.3141 H   0  0  0  0  0  0  0  0  0  0  0  0
   41.1089   36.5183   41.3075 H   0  0  0  0  0  0  0  0  0  0  0  0
   39.7397   35.8175   40.8394 H   0  0  0  0  0  0  0  0  0  0  0  0
   40.7767   33.4355   42.6610 H   0  0  0  0  0  0  0  0  0  0  0  0
   39.2250   33.4152   42.5640 H   0  0  0  0  0  0  0  0  0  0  0  0
   41.0976   32.9140   39.8824 H   0  0  0  0  0  0  0  0  0  0  0  0
   38.6771   34.8409   38.8274 H   0  0  0  0  0  0  0  0  0  0  0  0
   39.9802   34.1140   37.8139 H   0  0  0  0  0  0  0  0  0  0  0  0
   37.1126   33.1226   38.1075 H   0  0  0  0  0  0  0  0  0  0  0  0
   37.8442   33.8832   36.6635 H   0  0  0  0  0  0  0  0  0  0  0  0
   38.1752   30.1537   38.1988 H   0  0  0  0  0  0  0  0  0  0  0  0
   39.0174   31.1414   40.4486 H   0  0  0  0  0  0  0  0  0  0  0  0
   44.1161   36.5728   41.6993 H   0  0  0  0  0  0  0  0  0  0  0  0
   43.6186   35.7637   43.2851 H   0  0  0  0  0  0  0  0  0  0  0  0
   45.1060   34.6175   44.4426 H   0  0  0  0  0  0  0  0  0  0  0  0
   45.6073   35.0611   40.1989 H   0  0  0  0  0  0  0  0  0  0  0  0
   49.0003   31.4988   44.1779 H   0  0  0  0  0  0  0  0  0  0  0  0
   48.1857   30.8553   42.7383 H   0  0  0  0  0  0  0  0  0  0  0  0
   50.9437   30.6874   43.3896 H   0  0  0  0  0  0  0  0  0  0  0  0
   50.1837   30.2174   41.8481 H   0  0  0  0  0  0  0  0  0  0  0  0
   51.0236   32.0676   40.7969 H   0  0  0  0  0  0  0  0  0  0  0  0
   52.0156   32.3595   42.2327 H   0  0  0  0  0  0  0  0  0  0  0  0
   50.5571   33.9853   43.0486 H   0  0  0  0  0  0  0  0  0  0  0  0
   50.0466   34.1077   41.3576 H   0  0  0  0  0  0  0  0  0  0  0  0
  1 13  1  0
  2  3  1  0
  2  1  1  0
  3  1  1  0
  4  3  1  0
  4  5  1  0
  6  4  1  0
  6  5  1  0
  7 12  1  0
  7  6  1  0
  8  7  1  0
  9  8  1  0
 10  9  1  0
 10 11  1  0
 11 12  2  0
 13 15  1  0
 14 19  2  0
 15 14  1  0
 16 17  1  0
 16 15  2  0
 17 18  2  0
 18 20  1  0
 18 19  1  0
 20 21  1  0
 22 21  1  0
 23 24  1  0
 23 22  1  0
 24 20  1  0
  1 25  1  6
  2 26  1  0
  2 27  1  0
  3 28  1  1
  4 29  1  6
  5 30  1  0
  5 31  1  0
  6 32  1  1
  8 33  1  0
  8 34  1  0
  9 35  1  0
  9 36  1  0
 11 37  1  0
 12 38  1  0
 13 39  1  0
 13 40  1  0
 14 41  1  0
 16 42  1  0
 21 43  1  0
 21 44  1  0
 22 45  1  0
 22 46  1  0
 23 47  1  0
 23 48  1  0
 24 49  1  0
 24 50  1  0
M  ISO  8  25  13  26  13  27  13  28  13  29  13  30  13  31  13  32  13
M  ISO  8  33  13  34  13  35  13  36  13  37  13  38  13  39   8  40   8
M  ISO  8  41  14  42  14  43  13  44  13  45  13  46  13  47  13  48  13
M  ISO  2  49  13  50  13
M  END
>  <minimizedAffinity>  (1) 
-5.49662542

>  <minimizedRMSD>  (1) 
1.46381831

$$$$
