
     RDKit          3D

 41 44  0  0  1  0  0  0  0  0999 V2000
   43.7720   35.1370   42.1500 C   0  0  2  0  0  0  0  0  0  0  0  0
   43.8700   34.5920   40.7090 C   0  0  0  0  0  0  0  0  0  0  0  0
   43.0370   35.7420   41.0350 C   0  0  1  0  0  0  0  0  0  0  0  0
   41.5440   35.6480   40.9440 C   0  0  2  0  0  0  0  0  0  0  0  0
   40.7650   34.9860   42.0230 C   0  0  0  0  0  0  0  0  0  0  0  0
   41.0360   34.2620   40.7280 C   0  0  1  0  0  0  0  0  0  0  0  0
   40.0560   33.9560   39.7690 N   0  0  0  0  0  0  0  0  0  0  0  0
   40.0930   34.6190   38.5310 C   0  0  0  0  0  0  0  0  0  0  0  0
   38.9180   34.2050   37.6840 C   0  0  0  0  0  0  0  0  0  0  0  0
   38.9150   32.8120   37.5840 O   0  0  0  0  0  0  0  0  0  0  0  0
   38.5710   32.3200   38.8360 C   0  0  0  0  0  0  0  0  0  0  0  0
   39.1620   32.9210   40.0170 C   0  0  0  0  0  0  0  0  0  0  0  0
   45.0490   35.6870   42.6930 C   0  0  0  0  0  0  0  0  0  0  0  0
   46.2200   33.6410   43.4370 C   0  0  0  0  0  0  0  0  0  0  0  0
   46.1930   34.8040   42.6530 C   0  0  0  0  0  0  0  0  0  0  0  0
   47.2940   35.0670   41.8490 C   0  0  0  0  0  0  0  0  0  0  0  0
   48.3610   34.2150   41.8310 N   0  0  0  0  0  0  0  0  0  0  0  0
   48.3270   33.0920   42.6220 C   0  0  0  0  0  0  0  0  0  0  0  0
   47.2710   32.7990   43.4200 N   0  0  0  0  0  0  0  0  0  0  0  0
   49.5000   32.1870   42.5810 C   0  0  0  0  0  0  0  0  0  0  0  0
   43.4570   34.8141   43.1533 H   0  0  0  0  0  0  0  0  0  0  0  0
   43.4075   33.6287   40.4480 H   0  0  0  0  0  0  0  0  0  0  0  0
   44.6847   34.3863   39.9991 H   0  0  0  0  0  0  0  0  0  0  0  0
   42.9745   36.7698   40.6481 H   0  0  0  0  0  0  0  0  0  0  0  0
   41.4453   36.6321   40.4625 H   0  0  0  0  0  0  0  0  0  0  0  0
   41.2671   34.6665   42.9481 H   0  0  0  0  0  0  0  0  0  0  0  0
   39.8636   35.2386   42.6007 H   0  0  0  0  0  0  0  0  0  0  0  0
   41.4748   33.2880   40.4657 H   0  0  0  0  0  0  0  0  0  0  0  0
   40.0548   35.7054   38.6993 H   0  0  0  0  0  0  0  0  0  0  0  0
   41.0237   34.3525   38.0087 H   0  0  0  0  0  0  0  0  0  0  0  0
   37.9834   34.5457   38.1535 H   0  0  0  0  0  0  0  0  0  0  0  0
   38.9963   34.6553   36.6835 H   0  0  0  0  0  0  0  0  0  0  0  0
   37.8601   31.4860   38.9312 H   0  0  0  0  0  0  0  0  0  0  0  0
   38.9200   32.5820   41.0351 H   0  0  0  0  0  0  0  0  0  0  0  0
   45.2998   36.5875   42.1132 H   0  0  0  0  0  0  0  0  0  0  0  0
   44.8586   35.8736   43.7602 H   0  0  0  0  0  0  0  0  0  0  0  0
   45.3599   33.4106   44.0828 H   0  0  0  0  0  0  0  0  0  0  0  0
   47.3069   35.9699   41.2208 H   0  0  0  0  0  0  0  0  0  0  0  0
   49.8129   31.9456   43.6076 H   0  0  0  0  0  0  0  0  0  0  0  0
   49.2302   31.2608   42.0525 H   0  0  0  0  0  0  0  0  0  0  0  0
   50.3275   32.6830   42.0525 H   0  0  0  0  0  0  0  0  0  0  0  0
  1 13  1  0
  2  3  1  0
  2  1  1  0
  3  1  1  0
  4  3  1  0
  4  5  1  0
  6  4  1  0
  6  5  1  0
  7 12  1  0
  7  6  1  0
  8  7  1  0
  9  8  1  0
 10  9  1  0
 10 11  1  0
 11 12  2  0
 15 13  1  0
 15 14  2  0
 16 15  1  0
 17 16  2  0
 17 18  1  0
 18 19  2  0
 19 14  1  0
 20 18  1  0
  1 21  1  1
  2 22  1  0
  2 23  1  0
  3 24  1  6
  4 25  1  6
  5 26  1  0
  5 27  1  0
  6 28  1  1
  8 29  1  0
  8 30  1  0
  9 31  1  0
  9 32  1  0
 11 33  1  0
 12 34  1  0
 13 35  1  0
 13 36  1  0
 14 37  1  0
 16 38  1  0
 20 39  1  0
 20 40  1  0
 20 41  1  0
M  ISO  8  21  13  22  13  23  13  24  13  25  13  26  13  27  13  28  13
M  ISO  8  29  13  30  13  31  13  32  13  33  13  34  13  35   8  36   8
M  ISO  5  37  14  38  14  39   8  40   8  41   8
M  END
>  <minimizedAffinity>  (1) 
-4.7064786

>  <minimizedRMSD>  (1) 
0.555715144

$$$$
