
     RDKit          3D

 40 43  0  0  1  0  0  0  0  0999 V2000
   43.8210   35.2240   42.2580 C   0  0  2  0  0  0  0  0  0  0  0  0
   43.9020   34.4810   40.9080 C   0  0  0  0  0  0  0  0  0  0  0  0
   43.1040   35.6920   41.0740 C   0  0  1  0  0  0  0  0  0  0  0  0
   41.6100   35.6330   40.9910 C   0  0  2  0  0  0  0  0  0  0  0  0
   40.8210   34.9750   42.0680 C   0  0  0  0  0  0  0  0  0  0  0  0
   41.0770   34.2520   40.7710 C   0  0  1  0  0  0  0  0  0  0  0  0
   40.0930   33.9800   39.8050 N   0  0  0  0  0  0  0  0  0  0  0  0
   40.1440   34.6520   38.5710 C   0  0  0  0  0  0  0  0  0  0  0  0
   38.9750   34.2600   37.7090 C   0  0  0  0  0  0  0  0  0  0  0  0
   38.9490   32.8670   37.6030 O   0  0  0  0  0  0  0  0  0  0  0  0
   38.5770   32.3790   38.8520 C   0  0  0  0  0  0  0  0  0  0  0  0
   39.1720   32.9670   40.0390 C   0  0  0  0  0  0  0  0  0  0  0  0
   45.1160   35.8020   42.7280 C   0  0  0  0  0  0  0  0  0  0  0  0
   46.4320   33.9530   43.7210 C   0  0  0  0  0  0  0  0  0  0  0  0
   46.2510   34.9080   42.7200 C   0  0  0  0  0  0  0  0  0  0  0  0
   47.2080   34.9720   41.7030 C   0  0  0  0  0  0  0  0  0  0  0  0
   48.2790   34.1170   41.7090 N   0  0  0  0  0  0  0  0  0  0  0  0
   48.3930   33.2070   42.7200 C   0  0  0  0  0  0  0  0  0  0  0  0
   47.4840   33.1150   43.7250 N   0  0  0  0  0  0  0  0  0  0  0  0
   49.4860   32.2980   42.7700 N   0  0  0  0  0  0  0  0  0  0  0  0
   43.4967   35.0532   43.2951 H   0  0  0  0  0  0  0  0  0  0  0  0
   43.4102   33.5053   40.7811 H   0  0  0  0  0  0  0  0  0  0  0  0
   44.7084   34.1542   40.2350 H   0  0  0  0  0  0  0  0  0  0  0  0
   43.0717   36.6598   40.5522 H   0  0  0  0  0  0  0  0  0  0  0  0
   41.5268   36.6231   40.5189 H   0  0  0  0  0  0  0  0  0  0  0  0
   41.3195   34.6429   42.9906 H   0  0  0  0  0  0  0  0  0  0  0  0
   39.9243   35.2391   42.6478 H   0  0  0  0  0  0  0  0  0  0  0  0
   41.4950   33.2685   40.5103 H   0  0  0  0  0  0  0  0  0  0  0  0
   40.1152   35.7372   38.7483 H   0  0  0  0  0  0  0  0  0  0  0  0
   41.0752   34.3768   38.0542 H   0  0  0  0  0  0  0  0  0  0  0  0
   38.0403   34.6146   38.1679 H   0  0  0  0  0  0  0  0  0  0  0  0
   39.0746   34.7119   36.7111 H   0  0  0  0  0  0  0  0  0  0  0  0
   37.8452   31.5623   38.9386 H   0  0  0  0  0  0  0  0  0  0  0  0
   38.9111   32.6330   41.0541 H   0  0  0  0  0  0  0  0  0  0  0  0
   45.3573   36.6573   42.0798 H   0  0  0  0  0  0  0  0  0  0  0  0
   44.9557   36.0667   43.7836 H   0  0  0  0  0  0  0  0  0  0  0  0
   45.6917   33.8833   44.5316 H   0  0  0  0  0  0  0  0  0  0  0  0
   47.1010   35.7110   40.8953 H   0  0  0  0  0  0  0  0  0  0  0  0
   49.5556   31.6181   43.5406 H   0  0  0  0  0  0  0  0  0  0  0  0
   50.2079   32.3197   42.0356 H   0  0  0  0  0  0  0  0  0  0  0  0
  1 13  1  0
  2  3  1  0
  2  1  1  0
  3  1  1  0
  4  3  1  0
  4  5  1  0
  6  4  1  0
  6  5  1  0
  7 12  1  0
  7  6  1  0
  8  7  1  0
  9  8  1  0
 10  9  1  0
 10 11  1  0
 11 12  2  0
 14 19  2  0
 15 13  1  0
 15 14  1  0
 16 17  1  0
 16 15  2  0
 17 18  2  0
 18 20  1  0
 18 19  1  0
  1 21  1  1
  2 22  1  0
  2 23  1  0
  3 24  1  6
  4 25  1  6
  5 26  1  0
  5 27  1  0
  6 28  1  1
  8 29  1  0
  8 30  1  0
  9 31  1  0
  9 32  1  0
 11 33  1  0
 12 34  1  0
 13 35  1  0
 13 36  1  0
 14 37  1  0
 16 38  1  0
 20 39  1  0
 20 40  1  0
M  ISO  8  21  13  22  13  23  13  24  13  25  13  26  13  27  13  28  13
M  ISO  8  29  13  30  13  31  13  32  13  33  13  34  13  35   8  36   8
M  ISO  2  37  14  38  14
M  END
>  <minimizedAffinity>  (1) 
-4.79393196

>  <minimizedRMSD>  (1) 
0.490461767

$$$$
