
     RDKit          3D

 44 48  0  0  1  0  0  0  0  0999 V2000
   43.9590   35.2910   42.3880 C   0  0  2  0  0  0  0  0  0  0  0  0
   43.9910   34.3230   41.1880 C   0  0  0  0  0  0  0  0  0  0  0  0
   43.3520   35.6280   41.0950 C   0  0  1  0  0  0  0  0  0  0  0  0
   41.8670   35.7350   40.9320 C   0  0  2  0  0  0  0  0  0  0  0  0
   40.9550   35.2840   42.0180 C   0  0  0  0  0  0  0  0  0  0  0  0
   41.1690   34.4280   40.7950 C   0  0  1  0  0  0  0  0  0  0  0  0
   40.1950   34.1780   39.8160 N   0  0  0  0  0  0  0  0  0  0  0  0
   40.4210   34.6370   38.5070 C   0  0  0  0  0  0  0  0  0  0  0  0
   39.2250   34.3430   37.6400 C   0  0  0  0  0  0  0  0  0  0  0  0
   38.9510   32.9750   37.7180 O   0  0  0  0  0  0  0  0  0  0  0  0
   38.4620   32.7370   38.9950 C   0  0  0  0  0  0  0  0  0  0  0  0
   39.1040   33.3750   40.1290 C   0  0  0  0  0  0  0  0  0  0  0  0
   45.3050   35.7810   42.8170 C   0  0  0  0  0  0  0  0  0  0  0  0
   46.5550   33.8160   43.6650 C   0  0  0  0  0  0  0  0  0  0  0  0
   46.3930   34.8360   42.7010 C   0  0  0  0  0  0  0  0  0  0  0  0
   47.3010   34.9060   41.6270 C   0  0  0  0  0  0  0  0  0  0  0  0
   48.3160   33.9740   41.5560 N   0  0  0  0  0  0  0  0  0  0  0  0
   48.4080   33.0220   42.5200 C   0  0  0  0  0  0  0  0  0  0  0  0
   47.5630   32.9140   43.5700 N   0  0  0  0  0  0  0  0  0  0  0  0
   49.5020   32.0440   42.4150 C   0  0  0  0  0  0  0  0  0  0  0  0
   50.3180   32.4040   41.3420 C   0  0  0  0  0  0  0  0  0  0  0  0
   51.6610   31.0710   41.3320 S   0  0  0  0  0  0  0  0  0  0  0  0
   50.7940   30.2730   42.8500 C   0  0  0  0  0  0  0  0  0  0  0  0
   49.9240   30.9550   43.0230 N   0  0  0  0  0  0  0  0  0  0  0  0
   43.5780   35.3439   43.4186 H   0  0  0  0  0  0  0  0  0  0  0  0
   44.9349   34.1293   40.6575 H   0  0  0  0  0  0  0  0  0  0  0  0
   43.6833   33.2822   41.0089 H   0  0  0  0  0  0  0  0  0  0  0  0
   43.4650   36.4854   40.4152 H   0  0  0  0  0  0  0  0  0  0  0  0
   41.9351   36.6781   40.3700 H   0  0  0  0  0  0  0  0  0  0  0  0
   41.3665   34.9709   42.9889 H   0  0  0  0  0  0  0  0  0  0  0  0
   40.0789   35.7102   42.5287 H   0  0  0  0  0  0  0  0  0  0  0  0
   41.4711   33.3839   40.6258 H   0  0  0  0  0  0  0  0  0  0  0  0
   40.5969   35.7226   38.5277 H   0  0  0  0  0  0  0  0  0  0  0  0
   41.3005   34.1224   38.0926 H   0  0  0  0  0  0  0  0  0  0  0  0
   39.4442   34.6194   36.5981 H   0  0  0  0  0  0  0  0  0  0  0  0
   38.3562   34.9233   37.9841 H   0  0  0  0  0  0  0  0  0  0  0  0
   37.5982   32.0727   39.1455 H   0  0  0  0  0  0  0  0  0  0  0  0
   38.7529   33.2336   41.1618 H   0  0  0  0  0  0  0  0  0  0  0  0
   45.5549   36.6582   42.2021 H   0  0  0  0  0  0  0  0  0  0  0  0
   45.2127   35.9945   43.8921 H   0  0  0  0  0  0  0  0  0  0  0  0
   45.8509   33.7524   44.5077 H   0  0  0  0  0  0  0  0  0  0  0  0
   47.2031   35.6882   40.8598 H   0  0  0  0  0  0  0  0  0  0  0  0
   50.2068   33.2613   40.6617 H   0  0  0  0  0  0  0  0  0  0  0  0
   51.0814   29.3706   43.4095 H   0  0  0  0  0  0  0  0  0  0  0  0
  1 13  1  0
  2  1  1  0
  3  2  1  0
  3  1  1  0
  4  3  1  0
  4  5  1  0
  6  4  1  0
  6  5  1  0
  7 12  1  0
  7  6  1  0
  8  7  1  0
  9 10  1  0
  9  8  1  0
 10 11  1  0
 11 12  2  0
 15 13  1  0
 15 14  2  0
 16 15  1  0
 17 16  2  0
 17 18  1  0
 18 19  2  0
 19 14  1  0
 20 18  1  0
 20 24  1  0
 21 20  2  0
 22 21  1  0
 22 23  1  0
 23 24  2  0
  1 25  1  1
  2 26  1  0
  2 27  1  0
  3 28  1  6
  4 29  1  6
  5 30  1  0
  5 31  1  0
  6 32  1  1
  8 33  1  0
  8 34  1  0
  9 35  1  0
  9 36  1  0
 11 37  1  0
 12 38  1  0
 13 39  1  0
 13 40  1  0
 14 41  1  0
 16 42  1  0
 21 43  1  0
 23 44  1  0
M  ISO  8  25  13  26  13  27  13  28  13  29  13  30  13  31  13  32  13
M  ISO  8  33  13  34  13  35  13  36  13  37  13  38  13  39   8  40   8
M  ISO  4  41  14  42  14  43  14  44  14
M  END
>  <minimizedAffinity>  (1) 
-5.14604473

>  <minimizedRMSD>  (1) 
0.803361833

$$$$
