
     RDKit          3D

 26 27  0  0  1  0  0  0  0  0999 V2000
   47.8790   35.3210   41.8390 C   0  0  2  0  0  0  0  0  0  0  0  0
   47.0740   34.7630   42.9330 C   0  0  0  0  0  0  0  0  0  0  0  0
   45.8650   35.4550   43.0980 C   0  0  0  0  0  0  0  0  0  0  0  0
   44.9750   35.0510   44.0850 C   0  0  0  0  0  0  0  0  0  0  0  0
   45.3220   33.9940   44.8520 N   0  0  0  0  0  0  0  0  0  0  0  0
   46.4920   33.3350   44.6840 C   0  0  0  0  0  0  0  0  0  0  0  0
   47.3280   33.7400   43.7310 N   0  0  0  0  0  0  0  0  0  0  0  0
   47.5180   34.5750   40.5970 C   0  0  0  0  0  0  0  0  0  0  0  0
   48.3520   34.7070   39.4890 C   0  0  0  0  0  0  0  0  0  0  0  0
   48.1260   34.0710   38.2860 C   0  0  0  0  0  0  0  0  0  0  0  0
   47.0020   33.2600   38.1970 C   0  0  0  0  0  0  0  0  0  0  0  0
   46.1620   33.1150   39.2820 C   0  0  0  0  0  0  0  0  0  0  0  0
   46.4060   33.7600   40.4760 C   0  0  0  0  0  0  0  0  0  0  0  0
   49.3510   35.1280   42.0760 C   0  0  0  0  0  0  0  0  0  0  0  0
   47.6766   36.3996   41.7632 H   0  0  0  0  0  0  0  0  0  0  0  0
   45.6236   36.3110   42.4507 H   0  0  0  0  0  0  0  0  0  0  0  0
   44.0194   35.5742   44.2372 H   0  0  0  0  0  0  0  0  0  0  0  0
   46.7479   32.4784   45.3248 H   0  0  0  0  0  0  0  0  0  0  0  0
   49.2380   35.3528   39.5782 H   0  0  0  0  0  0  0  0  0  0  0  0
   48.8077   34.2008   37.4325 H   0  0  0  0  0  0  0  0  0  0  0  0
   46.7806   32.7314   37.2581 H   0  0  0  0  0  0  0  0  0  0  0  0
   45.2761   32.4691   39.1923 H   0  0  0  0  0  0  0  0  0  0  0  0
   45.7214   33.6277   41.3267 H   0  0  0  0  0  0  0  0  0  0  0  0
   49.5479   35.1022   43.1579 H   0  0  0  0  0  0  0  0  0  0  0  0
   49.6743   34.1798   41.6217 H   0  0  0  0  0  0  0  0  0  0  0  0
   49.9078   35.9608   41.6217 H   0  0  0  0  0  0  0  0  0  0  0  0
  1 14  1  0
  1  2  1  0
  2  3  2  0
  2  7  1  0
  3  4  1  0
  4  5  2  0
  6  5  1  0
  7  6  2  0
  8  1  1  0
  9  8  2  0
 10  9  1  0
 11 10  2  0
 11 12  1  0
 12 13  2  0
 13  8  1  0
  1 15  1  6
  3 16  1  0
  4 17  1  0
  6 18  1  0
  9 19  1  0
 10 20  1  0
 11 21  1  0
 12 22  1  0
 13 23  1  0
 14 24  1  0
 14 25  1  0
 14 26  1  0
M  ISO  8  15   8  16  14  17  14  18  14  19  14  20  14  21  14  22  14
M  ISO  4  23  14  24   8  25   8  26   8
M  END
>  <minimizedAffinity>  (1) 
-4.60509014

>  <minimizedRMSD>  (1) 
1.48380923

$$$$
