
     RDKit          3D

 29 30  0  0  1  0  0  0  0  0999 V2000
   47.7220   35.2970   41.9710 C   0  0  2  0  0  0  0  0  0  0  0  0
   47.1520   34.4710   43.0550 C   0  0  0  0  0  0  0  0  0  0  0  0
   45.8960   34.9750   43.5020 C   0  0  0  0  0  0  0  0  0  0  0  0
   45.2650   34.2640   44.5130 C   0  0  0  0  0  0  0  0  0  0  0  0
   45.8410   33.1550   45.0240 N   0  0  0  0  0  0  0  0  0  0  0  0
   47.0440   32.7010   44.5750 C   0  0  0  0  0  0  0  0  0  0  0  0
   47.6610   33.3790   43.6000 N   0  0  0  0  0  0  0  0  0  0  0  0
   46.8580   33.2190   38.3420 C   0  0  0  0  0  0  0  0  0  0  0  0
   45.9370   33.2370   39.3890 C   0  0  0  0  0  0  0  0  0  0  0  0
   46.2000   33.8970   40.5560 C   0  0  0  0  0  0  0  0  0  0  0  0
   47.4150   34.5690   40.7060 C   0  0  0  0  0  0  0  0  0  0  0  0
   48.3420   34.5590   39.6670 C   0  0  0  0  0  0  0  0  0  0  0  0
   48.0720   33.8950   38.5010 C   0  0  0  0  0  0  0  0  0  0  0  0
   46.6320   32.4090   36.8040 S   0  0  0  0  0  0  0  0  0  0  0  0
   45.3860   32.8930   36.1310 O   0  0  0  0  0  0  0  0  0  0  0  0
   47.8570   32.6340   35.9510 O   0  0  0  0  0  0  0  0  0  0  0  0
   49.2190   35.3850   42.0680 C   0  0  0  0  0  0  0  0  0  0  0  0
   47.3059   36.3140   42.0222 H   0  0  0  0  0  0  0  0  0  0  0  0
   45.4494   35.8816   43.0676 H   0  0  0  0  0  0  0  0  0  0  0  0
   44.2930   34.6049   44.8990 H   0  0  0  0  0  0  0  0  0  0  0  0
   47.4988   31.7963   45.0046 H   0  0  0  0  0  0  0  0  0  0  0  0
   44.9790   32.7089   39.2729 H   0  0  0  0  0  0  0  0  0  0  0  0
   45.4609   33.8991   41.3707 H   0  0  0  0  0  0  0  0  0  0  0  0
   49.2988   35.0889   39.7842 H   0  0  0  0  0  0  0  0  0  0  0  0
   48.8117   33.8930   37.6869 H   0  0  0  0  0  0  0  0  0  0  0  0
   46.4766   31.0623   37.0019 H   0  0  0  0  0  0  0  0  0  0  0  0
   49.5174   35.4025   43.1266 H   0  0  0  0  0  0  0  0  0  0  0  0
   49.6704   34.5118   41.5742 H   0  0  0  0  0  0  0  0  0  0  0  0
   49.5650   36.3050   41.5742 H   0  0  0  0  0  0  0  0  0  0  0  0
  1 17  1  0
  1  2  1  0
  2  3  2  0
  2  7  1  0
  3  4  1  0
  4  5  2  0
  6  5  1  0
  7  6  2  0
  8 13  2  0
  8  9  1  0
  9 10  2  0
 10 11  1  0
 11  1  1  0
 12 11  2  0
 13 12  1  0
 14  8  1  0
 15 14  2  0
 16 14  2  0
  1 18  1  6
  3 19  1  0
  4 20  1  0
  6 21  1  0
  9 22  1  0
 10 23  1  0
 12 24  1  0
 13 25  1  0
 14 26  1  0
 17 27  1  0
 17 28  1  0
 17 29  1  0
M  ISO  8  18   8  19  14  20  14  21  14  22  14  23  14  24  14  25  14
M  ISO  4  26  11  27   8  28   8  29   8
M  END
>  <minimizedAffinity>  (1) 
-4.80241108

>  <minimizedRMSD>  (1) 
2.66849947

$$$$
