
     RDKit          3D

 27 28  0  0  1  0  0  0  0  0999 V2000
   48.2610   34.7270   41.5780 C   0  0  1  0  0  0  0  0  0  0  0  0
   49.2020   33.6350   41.3900 N   0  0  0  0  0  0  0  0  0  0  0  0
   50.3240   33.5220   42.1230 C   0  0  0  0  0  0  0  0  0  0  0  0
   51.1780   32.4580   41.8950 C   0  0  0  0  0  0  0  0  0  0  0  0
   50.8200   31.5570   40.9090 C   0  0  0  0  0  0  0  0  0  0  0  0
   51.7160   30.4580   40.6830 N   0  0  0  0  0  0  0  0  0  0  0  0
   49.6850   31.6800   40.1750 N   0  0  0  0  0  0  0  0  0  0  0  0
   48.8870   32.7370   40.4380 C   0  0  0  0  0  0  0  0  0  0  0  0
   47.8590   32.7610   39.7030 O   0  0  0  0  0  0  0  0  0  0  0  0
   47.3270   34.5320   42.6980 C   0  0  0  0  0  0  0  0  0  0  0  0
   46.2200   35.3890   42.6130 C   0  0  0  0  0  0  0  0  0  0  0  0
   45.2480   35.2860   43.6300 C   0  0  0  0  0  0  0  0  0  0  0  0
   45.4280   34.3740   44.6320 N   0  0  0  0  0  0  0  0  0  0  0  0
   46.5210   33.5630   44.6690 C   0  0  0  0  0  0  0  0  0  0  0  0
   47.4500   33.6680   43.6890 N   0  0  0  0  0  0  0  0  0  0  0  0
   49.0040   36.0270   41.6960 C   0  0  0  0  0  0  0  0  0  0  0  0
   47.6220   34.7499   40.6829 H   0  0  0  0  0  0  0  0  0  0  0  0
   50.5601   34.2682   42.8960 H   0  0  0  0  0  0  0  0  0  0  0  0
   52.1046   32.3336   42.4747 H   0  0  0  0  0  0  0  0  0  0  0  0
   51.4989   29.7567   39.9606 H   0  0  0  0  0  0  0  0  0  0  0  0
   52.5759   30.3710   41.2433 H   0  0  0  0  0  0  0  0  0  0  0  0
   46.1144   36.1101   41.7891 H   0  0  0  0  0  0  0  0  0  0  0  0
   44.3571   35.9310   43.6169 H   0  0  0  0  0  0  0  0  0  0  0  0
   46.6477   32.8335   45.4825 H   0  0  0  0  0  0  0  0  0  0  0  0
   49.1450   36.2736   42.7587 H   0  0  0  0  0  0  0  0  0  0  0  0
   49.9854   35.9341   41.2079 H   0  0  0  0  0  0  0  0  0  0  0  0
   48.4258   36.8254   41.2079 H   0  0  0  0  0  0  0  0  0  0  0  0
  1 16  1  0
  1 10  1  0
  2  1  1  0
  2  3  1  0
  4  3  2  0
  5  4  1  0
  6  5  1  0
  7  8  1  0
  7  5  2  0
  8  2  1  0
  9  8  2  0
 10 15  1  0
 11 10  2  0
 11 12  1  0
 12 13  2  0
 13 14  1  0
 15 14  2  0
  1 17  1  6
  3 18  1  0
  4 19  1  0
  6 20  1  0
  6 21  1  0
 11 22  1  0
 12 23  1  0
 14 24  1  0
 16 25  1  0
 16 26  1  0
 16 27  1  0
M  ISO  8  17   8  18  14  19  14  22  14  23  14  24  14  25   8  26   8
M  ISO  1  27   8
M  END
>  <minimizedAffinity>  (1) 
-4.46842766

>  <minimizedRMSD>  (1) 
1.88861012

$$$$
