
     RDKit          3D

 26 27  0  0  1  0  0  0  0  0999 V2000
   47.8450   34.0200   42.4830 C   0  0  2  0  0  0  0  0  0  0  0  0
   46.6920   34.4500   43.3210 C   0  0  0  0  0  0  0  0  0  0  0  0
   46.0610   35.6000   42.8080 C   0  0  0  0  0  0  0  0  0  0  0  0
   44.9780   36.1220   43.4950 C   0  0  0  0  0  0  0  0  0  0  0  0
   44.5970   35.4870   44.6220 N   0  0  0  0  0  0  0  0  0  0  0  0
   45.2070   34.3850   45.1080 C   0  0  0  0  0  0  0  0  0  0  0  0
   46.2400   33.8870   44.4530 N   0  0  0  0  0  0  0  0  0  0  0  0
   47.3520   33.7220   41.1590 N   0  0  0  0  0  0  0  0  0  0  0  0
   46.4610   32.7170   41.0760 C   0  0  0  0  0  0  0  0  0  0  0  0
   45.9630   32.3970   39.8310 C   0  0  0  0  0  0  0  0  0  0  0  0
   46.3610   33.0790   38.7120 C   0  0  0  0  0  0  0  0  0  0  0  0
   45.9900   32.8940   37.5200 O   0  0  0  0  0  0  0  0  0  0  0  0
   47.2560   34.0790   38.8340 N   0  0  0  0  0  0  0  0  0  0  0  0
   47.7450   34.3970   40.0450 C   0  0  0  0  0  0  0  0  0  0  0  0
   48.5870   35.3130   40.2860 O   0  0  0  0  0  0  0  0  0  0  0  0
   48.5520   32.8500   43.0980 C   0  0  0  0  0  0  0  0  0  0  0  0
   48.5897   34.8270   42.4181 H   0  0  0  0  0  0  0  0  0  0  0  0
   46.4205   36.0729   41.8822 H   0  0  0  0  0  0  0  0  0  0  0  0
   44.4501   37.0179   43.1362 H   0  0  0  0  0  0  0  0  0  0  0  0
   44.8497   33.9101   46.0336 H   0  0  0  0  0  0  0  0  0  0  0  0
   46.1401   32.1680   41.9735 H   0  0  0  0  0  0  0  0  0  0  0  0
   45.2332   31.5796   39.7346 H   0  0  0  0  0  0  0  0  0  0  0  0
   47.5650   34.5990   38.0003 H   0  0  0  0  0  0  0  0  0  0  0  0
   48.5049   32.9280   44.1942 H   0  0  0  0  0  0  0  0  0  0  0  0
   48.0663   31.9172   42.7755 H   0  0  0  0  0  0  0  0  0  0  0  0
   49.6037   32.8462   42.7755 H   0  0  0  0  0  0  0  0  0  0  0  0
  1 16  1  0
  1  2  1  0
  2  7  1  0
  3  2  2  0
  3  4  1  0
  4  5  2  0
  5  6  1  0
  7  6  2  0
  8  1  1  0
  9  8  1  0
 10  9  2  0
 11 13  1  0
 11 10  1  0
 12 11  2  0
 13 14  1  0
 14 15  2  0
 14  8  1  0
  1 17  1  6
  3 18  1  0
  4 19  1  0
  6 20  1  0
  9 21  1  0
 10 22  1  0
 13 23  1  0
 16 24  1  0
 16 25  1  0
 16 26  1  0
M  ISO  8  17   8  18  14  19  14  20  14  21  14  22  14  23   9  24   8
M  ISO  2  25   8  26   8
M  END
>  <minimizedAffinity>  (1) 
-4.3736763

>  <minimizedRMSD>  (1) 
1.9234165

$$$$
