
     RDKit          3D

 32 33  0  0  1  0  0  0  0  0999 V2000
   47.2610   35.2270   41.5890 C   0  0  2  0  0  0  0  0  0  0  0  0
   46.6260   34.8540   42.8590 C   0  0  0  0  0  0  0  0  0  0  0  0
   45.5140   35.6990   43.1310 C   0  0  0  0  0  0  0  0  0  0  0  0
   44.7830   35.4870   44.2950 C   0  0  0  0  0  0  0  0  0  0  0  0
   45.1500   34.4890   45.1270 N   0  0  0  0  0  0  0  0  0  0  0  0
   46.2230   33.6910   44.8440 C   0  0  0  0  0  0  0  0  0  0  0  0
   46.9320   33.8940   43.7170 N   0  0  0  0  0  0  0  0  0  0  0  0
   47.2590   34.0410   40.6690 C   0  0  0  0  0  0  0  0  0  0  0  0
   45.8750   33.6100   40.2520 C   0  0  0  0  0  0  0  0  0  0  0  0
   45.9180   33.1070   38.8230 C   0  0  0  0  0  0  0  0  0  0  0  0
   47.1280   32.2430   38.5470 C   0  0  0  0  0  0  0  0  0  0  0  0
   48.4290   32.8790   38.9160 C   0  0  0  0  0  0  0  0  0  0  0  0
   48.1300   34.2700   39.4420 C   0  0  0  0  0  0  0  0  0  0  0  0
   48.7350   35.5790   41.8200 C   0  0  0  0  0  0  0  0  0  0  0  0
   46.7086   36.0797   41.1673 H   0  0  0  0  0  0  0  0  0  0  0  0
   45.2379   36.5042   42.4343 H   0  0  0  0  0  0  0  0  0  0  0  0
   43.9182   36.1233   44.5344 H   0  0  0  0  0  0  0  0  0  0  0  0
   46.5071   32.8842   45.5357 H   0  0  0  0  0  0  0  0  0  0  0  0
   47.6908   33.2189   41.2586 H   0  0  0  0  0  0  0  0  0  0  0  0
   45.5252   32.8049   40.9149 H   0  0  0  0  0  0  0  0  0  0  0  0
   45.1856   34.4643   40.3221 H   0  0  0  0  0  0  0  0  0  0  0  0
   45.0111   32.5151   38.6304 H   0  0  0  0  0  0  0  0  0  0  0  0
   45.9775   33.9846   38.1625 H   0  0  0  0  0  0  0  0  0  0  0  0
   47.0245   31.3102   39.1208 H   0  0  0  0  0  0  0  0  0  0  0  0
   47.1550   32.0728   37.4606 H   0  0  0  0  0  0  0  0  0  0  0  0
   48.9295   32.2839   39.6940 H   0  0  0  0  0  0  0  0  0  0  0  0
   49.0933   32.9328   38.0409 H   0  0  0  0  0  0  0  0  0  0  0  0
   49.0601   34.7884   39.7180 H   0  0  0  0  0  0  0  0  0  0  0  0
   47.6324   34.9007   38.6906 H   0  0  0  0  0  0  0  0  0  0  0  0
   48.9356   35.6269   42.9005 H   0  0  0  0  0  0  0  0  0  0  0  0
   49.3722   34.8078   41.3626 H   0  0  0  0  0  0  0  0  0  0  0  0
   48.9550   36.5549   41.3626 H   0  0  0  0  0  0  0  0  0  0  0  0
  1 14  1  0
  1  2  1  0
  2  3  2  0
  2  7  1  0
  3  4  1  0
  4  5  2  0
  6  5  1  0
  7  6  2  0
  8  1  1  0
  9  8  1  0
 10  9  1  0
 11 10  1  0
 11 12  1  0
 12 13  1  0
 13  8  1  0
  1 15  1  6
  3 16  1  0
  4 17  1  0
  6 18  1  0
  8 19  1  0
  9 20  1  0
  9 21  1  0
 10 22  1  0
 10 23  1  0
 11 24  1  0
 11 25  1  0
 12 26  1  0
 12 27  1  0
 13 28  1  0
 13 29  1  0
 14 30  1  0
 14 31  1  0
 14 32  1  0
M  ISO  8  15   8  16  14  17  14  18  14  19  13  20  13  21  13  22  13
M  ISO  8  23  13  24  13  25  13  26  13  27  13  28  13  29  13  30   8
M  ISO  2  31   8  32   8
M  END
>  <minimizedAffinity>  (1) 
-4.39864397

>  <minimizedRMSD>  (1) 
1.00962913

$$$$
