
     RDKit          3D

 23 24  0  0  1  0  0  0  0  0999 V2000
   48.1510   35.3470   41.8260 C   0  0  2  0  0  0  0  0  0  0  0  0
   47.2340   34.7680   42.8280 C   0  0  0  0  0  0  0  0  0  0  0  0
   45.9980   35.4280   42.8660 C   0  0  0  0  0  0  0  0  0  0  0  0
   45.0350   34.9830   43.7590 C   0  0  0  0  0  0  0  0  0  0  0  0
   45.3260   33.9300   44.5560 N   0  0  0  0  0  0  0  0  0  0  0  0
   46.5260   33.3020   44.5080 C   0  0  0  0  0  0  0  0  0  0  0  0
   47.4330   33.7450   43.6450 N   0  0  0  0  0  0  0  0  0  0  0  0
   47.9230   34.6630   40.5280 C   0  0  0  0  0  0  0  0  0  0  0  0
   46.9830   33.6990   40.1670 C   0  0  0  0  0  0  0  0  0  0  0  0
   47.1810   33.3880   38.8580 N   0  0  0  0  0  0  0  0  0  0  0  0
   48.2140   34.1310   38.4010 C   0  0  0  0  0  0  0  0  0  0  0  0
   48.6620   34.9020   39.4090 N   0  0  0  0  0  0  0  0  0  0  0  0
   49.5850   35.1380   42.2170 C   0  0  0  0  0  0  0  0  0  0  0  0
   47.9542   36.4269   41.7553 H   0  0  0  0  0  0  0  0  0  0  0  0
   45.7962   36.2810   42.2014 H   0  0  0  0  0  0  0  0  0  0  0  0
   44.0538   35.4768   43.8179 H   0  0  0  0  0  0  0  0  0  0  0  0
   46.7430   32.4480   45.1664 H   0  0  0  0  0  0  0  0  0  0  0  0
   46.2157   33.2658   40.8255 H   0  0  0  0  0  0  0  0  0  0  0  0
   48.6195   34.1090   37.3787 H   0  0  0  0  0  0  0  0  0  0  0  0
   49.4434   35.5700   39.3443 H   0  0  0  0  0  0  0  0  0  0  0  0
   49.6680   35.1259   43.3138 H   0  0  0  0  0  0  0  0  0  0  0  0
   49.9394   34.1787   41.8119 H   0  0  0  0  0  0  0  0  0  0  0  0
   50.1985   35.9562   41.8119 H   0  0  0  0  0  0  0  0  0  0  0  0
  1 13  1  0
  1  2  1  0
  2  3  2  0
  2  7  1  0
  3  4  1  0
  4  5  2  0
  6  5  1  0
  7  6  2  0
  8  1  1  0
  9  8  2  0
 10  9  1  0
 11 10  2  0
 11 12  1  0
 12  8  1  0
  1 14  1  6
  3 15  1  0
  4 16  1  0
  6 17  1  0
  9 18  1  0
 11 19  1  0
 12 20  1  0
 13 21  1  0
 13 22  1  0
 13 23  1  0
M  ISO  8  14   8  15  14  16  14  17  14  18  14  19  14  20   9  21   8
M  ISO  2  22   8  23   8
M  END
>  <minimizedAffinity>  (1) 
-4.42153311

>  <minimizedRMSD>  (1) 
1.28905654

$$$$
