
     RDKit          3D

 21 22  0  0  1  0  0  0  0  0999 V2000
   47.8160   35.3190   41.8090 C   0  0  2  0  0  0  0  0  0  0  0  0
   47.0010   34.8200   42.9260 C   0  0  0  0  0  0  0  0  0  0  0  0
   45.7990   35.5700   43.0770 C   0  0  0  0  0  0  0  0  0  0  0  0
   44.9260   35.1990   44.0860 C   0  0  0  0  0  0  0  0  0  0  0  0
   45.2360   34.1500   44.8850 N   0  0  0  0  0  0  0  0  0  0  0  0
   46.3890   33.4540   44.7170 C   0  0  0  0  0  0  0  0  0  0  0  0
   47.2380   33.8070   43.7450 N   0  0  0  0  0  0  0  0  0  0  0  0
   47.4640   34.4780   40.6150 C   0  0  0  0  0  0  0  0  0  0  0  0
   46.3580   33.7070   40.4700 N   0  0  0  0  0  0  0  0  0  0  0  0
   46.3930   33.1270   39.3100 O   0  0  0  0  0  0  0  0  0  0  0  0
   47.4900   33.4700   38.6460 C   0  0  0  0  0  0  0  0  0  0  0  0
   48.1550   34.3110   39.4610 N   0  0  0  0  0  0  0  0  0  0  0  0
   49.2820   35.1500   42.0820 C   0  0  0  0  0  0  0  0  0  0  0  0
   47.6170   36.3896   41.6535 H   0  0  0  0  0  0  0  0  0  0  0  0
   45.5716   36.4170   42.4130 H   0  0  0  0  0  0  0  0  0  0  0  0
   43.9874   35.7523   44.2376 H   0  0  0  0  0  0  0  0  0  0  0  0
   46.6240   32.6050   45.3758 H   0  0  0  0  0  0  0  0  0  0  0  0
   47.7922   33.1375   37.6419 H   0  0  0  0  0  0  0  0  0  0  0  0
   49.4528   35.1303   43.1685 H   0  0  0  0  0  0  0  0  0  0  0  0
   49.6310   34.2057   41.6388 H   0  0  0  0  0  0  0  0  0  0  0  0
   49.8367   35.9901   41.6388 H   0  0  0  0  0  0  0  0  0  0  0  0
  1 13  1  0
  1  2  1  0
  2  3  2  0
  2  7  1  0
  3  4  1  0
  4  5  2  0
  6  5  1  0
  7  6  2  0
  8  1  1  0
  9  8  2  0
 10  9  1  0
 11 10  1  0
 11 12  2  0
 12  8  1  0
  1 14  1  6
  3 15  1  0
  4 16  1  0
  6 17  1  0
 11 18  1  0
 13 19  1  0
 13 20  1  0
 13 21  1  0
M  ISO  8  14   8  15  14  16  14  17  14  18  14  19   8  20   8  21   8
M  END
>  <minimizedAffinity>  (1) 
-4.0247736

>  <minimizedRMSD>  (1) 
1.28193772

$$$$
