
     RDKit          3D

 23 24  0  0  1  0  0  0  0  0999 V2000
   47.8830   35.2850   41.8280 C   0  0  2  0  0  0  0  0  0  0  0  0
   47.0150   34.7980   42.9300 C   0  0  0  0  0  0  0  0  0  0  0  0
   45.8120   35.5270   43.0060 C   0  0  0  0  0  0  0  0  0  0  0  0
   44.9040   35.1650   43.9920 C   0  0  0  0  0  0  0  0  0  0  0  0
   45.2160   34.1470   44.8180 N   0  0  0  0  0  0  0  0  0  0  0  0
   46.3760   33.4610   44.7270 C   0  0  0  0  0  0  0  0  0  0  0  0
   47.2580   33.8090   43.7710 N   0  0  0  0  0  0  0  0  0  0  0  0
   47.5580   34.4890   40.6170 C   0  0  0  0  0  0  0  0  0  0  0  0
   48.2520   34.5360   39.4170 C   0  0  0  0  0  0  0  0  0  0  0  0
   47.6300   33.6400   38.5400 C   0  0  0  0  0  0  0  0  0  0  0  0
   46.5810   33.0930   39.2710 C   0  0  0  0  0  0  0  0  0  0  0  0
   46.5920   33.6190   40.4540 O   0  0  0  0  0  0  0  0  0  0  0  0
   49.3360   35.0890   42.1490 C   0  0  0  0  0  0  0  0  0  0  0  0
   47.7050   36.3598   41.6760 H   0  0  0  0  0  0  0  0  0  0  0  0
   45.5999   36.3522   42.3102 H   0  0  0  0  0  0  0  0  0  0  0  0
   43.9481   35.6990   44.0969 H   0  0  0  0  0  0  0  0  0  0  0  0
   46.5956   32.6351   45.4196 H   0  0  0  0  0  0  0  0  0  0  0  0
   49.1291   35.1618   39.1955 H   0  0  0  0  0  0  0  0  0  0  0  0
   47.9098   33.4171   37.4998 H   0  0  0  0  0  0  0  0  0  0  0  0
   45.8646   32.3420   38.9065 H   0  0  0  0  0  0  0  0  0  0  0  0
   49.4711   35.0708   43.2405 H   0  0  0  0  0  0  0  0  0  0  0  0
   49.6808   34.1362   41.7209 H   0  0  0  0  0  0  0  0  0  0  0  0
   49.9209   35.9164   41.7209 H   0  0  0  0  0  0  0  0  0  0  0  0
  1 13  1  0
  1  2  1  0
  2  3  2  0
  2  7  1  0
  3  4  1  0
  4  5  2  0
  6  5  1  0
  7  6  2  0
  8  1  1  0
  9  8  2  0
 10 11  2  0
 10  9  1  0
 11 12  1  0
 12  8  1  0
  1 14  1  6
  3 15  1  0
  4 16  1  0
  6 17  1  0
  9 18  1  0
 10 19  1  0
 11 20  1  0
 13 21  1  0
 13 22  1  0
 13 23  1  0
M  ISO  8  14   8  15  14  16  14  17  14  18  14  19  14  20  14  21   8
M  ISO  2  22   8  23   8
M  END
>  <minimizedAffinity>  (1) 
-4.19666529

>  <minimizedRMSD>  (1) 
1.26244295

$$$$
