
     RDKit          3D

 23 24  0  0  1  0  0  0  0  0999 V2000
   48.0040   35.2340   41.5150 C   0  0  2  0  0  0  0  0  0  0  0  0
   47.2210   34.7360   42.6540 C   0  0  0  0  0  0  0  0  0  0  0  0
   45.9640   35.3520   42.7260 C   0  0  0  0  0  0  0  0  0  0  0  0
   45.0590   35.0130   43.7510 C   0  0  0  0  0  0  0  0  0  0  0  0
   45.4700   34.0790   44.6380 N   0  0  0  0  0  0  0  0  0  0  0  0
   46.7090   33.4930   44.5400 C   0  0  0  0  0  0  0  0  0  0  0  0
   47.5440   33.8300   43.5650 N   0  0  0  0  0  0  0  0  0  0  0  0
   48.4250   34.1520   40.5730 C   0  0  0  0  0  0  0  0  0  0  0  0
   48.0040   34.1890   39.2390 C   0  0  0  0  0  0  0  0  0  0  0  0
   48.5150   33.0990   38.5820 C   0  0  0  0  0  0  0  0  0  0  0  0
   49.2210   32.4320   39.5010 N   0  0  0  0  0  0  0  0  0  0  0  0
   49.1770   33.0420   40.6880 N   0  0  0  0  0  0  0  0  0  0  0  0
   49.2050   36.0060   41.9770 C   0  0  0  0  0  0  0  0  0  0  0  0
   47.3319   35.9052   40.9603 H   0  0  0  0  0  0  0  0  0  0  0  0
   45.6820   36.1060   41.9763 H   0  0  0  0  0  0  0  0  0  0  0  0
   44.0680   35.4844   43.8259 H   0  0  0  0  0  0  0  0  0  0  0  0
   47.0123   32.7359   45.2781 H   0  0  0  0  0  0  0  0  0  0  0  0
   47.3671   34.9657   38.7905 H   0  0  0  0  0  0  0  0  0  0  0  0
   48.3741   32.8307   37.5246 H   0  0  0  0  0  0  0  0  0  0  0  0
   49.7340   31.5581   39.3166 H   0  0  0  0  0  0  0  0  0  0  0  0
   49.2299   36.0220   43.0766 H   0  0  0  0  0  0  0  0  0  0  0  0
   50.1184   35.5254   41.5965 H   0  0  0  0  0  0  0  0  0  0  0  0
   49.1471   37.0365   41.5965 H   0  0  0  0  0  0  0  0  0  0  0  0
  1 13  1  0
  1  2  1  0
  2  3  2  0
  2  7  1  0
  3  4  1  0
  4  5  2  0
  6  5  1  0
  7  6  2  0
  8 12  2  0
  8  1  1  0
  9  8  1  0
 10  9  2  0
 10 11  1  0
 11 12  1  0
  1 14  1  6
  3 15  1  0
  4 16  1  0
  6 17  1  0
  9 18  1  0
 10 19  1  0
 11 20  1  0
 13 21  1  0
 13 22  1  0
 13 23  1  0
M  ISO  8  14   8  15  14  16  14  17  14  18  14  19  14  20   9  21   8
M  ISO  2  22   8  23   8
M  END
>  <minimizedAffinity>  (1) 
-4.23308372

>  <minimizedRMSD>  (1) 
0.484681487

$$$$
