
     RDKit          3D

 29 30  0  0  1  0  0  0  0  0999 V2000
   46.9760   35.1610   41.6980 C   0  0  2  0  0  0  0  0  0  0  0  0
   46.3080   34.9490   42.9930 C   0  0  0  0  0  0  0  0  0  0  0  0
   45.3190   35.9300   43.2600 C   0  0  0  0  0  0  0  0  0  0  0  0
   44.6060   35.8430   44.4490 C   0  0  0  0  0  0  0  0  0  0  0  0
   44.8780   34.8340   45.3020 N   0  0  0  0  0  0  0  0  0  0  0  0
   45.8320   33.9000   45.0260 C   0  0  0  0  0  0  0  0  0  0  0  0
   46.5080   33.9940   43.8860 N   0  0  0  0  0  0  0  0  0  0  0  0
   46.8550   33.9060   40.9810 N   0  0  0  0  0  0  0  0  0  0  0  0
   45.5970   33.7080   40.3450 C   0  0  0  0  0  0  0  0  0  0  0  0
   45.7060   32.3620   39.6200 C   0  0  0  0  0  0  0  0  0  0  0  0
   46.6280   32.4430   38.5990 O   0  0  0  0  0  0  0  0  0  0  0  0
   47.5840   33.4130   38.7620 C   0  0  0  0  0  0  0  0  0  0  0  0
   47.9990   33.5170   40.2360 C   0  0  0  0  0  0  0  0  0  0  0  0
   48.4410   35.4530   41.8770 C   0  0  0  0  0  0  0  0  0  0  0  0
   46.5199   36.0124   41.1715 H   0  0  0  0  0  0  0  0  0  0  0  0
   45.1213   36.7402   42.5428 H   0  0  0  0  0  0  0  0  0  0  0  0
   43.8314   36.5855   44.6913 H   0  0  0  0  0  0  0  0  0  0  0  0
   46.0383   33.0837   45.7339 H   0  0  0  0  0  0  0  0  0  0  0  0
   44.7902   33.6770   41.0921 H   0  0  0  0  0  0  0  0  0  0  0  0
   45.3609   34.5262   39.6487 H   0  0  0  0  0  0  0  0  0  0  0  0
   46.0234   31.5890   40.3353 H   0  0  0  0  0  0  0  0  0  0  0  0
   44.7244   32.1027   39.1966 H   0  0  0  0  0  0  0  0  0  0  0  0
   48.4653   33.1582   38.1550 H   0  0  0  0  0  0  0  0  0  0  0  0
   47.1684   34.3794   38.4406 H   0  0  0  0  0  0  0  0  0  0  0  0
   48.3640   32.5423   40.5919 H   0  0  0  0  0  0  0  0  0  0  0  0
   48.8063   34.2542   40.3574 H   0  0  0  0  0  0  0  0  0  0  0  0
   48.6770   35.5000   42.9503 H   0  0  0  0  0  0  0  0  0  0  0  0
   49.0341   34.6554   41.4058 H   0  0  0  0  0  0  0  0  0  0  0  0
   48.6830   36.4170   41.4058 H   0  0  0  0  0  0  0  0  0  0  0  0
  1 14  1  0
  1  2  1  0
  2  3  2  0
  2  7  1  0
  3  4  1  0
  4  5  2  0
  6  5  1  0
  7  6  2  0
  8  1  1  0
  9  8  1  0
 10  9  1  0
 11 12  1  0
 11 10  1  0
 12 13  1  0
 13  8  1  0
  1 15  1  6
  3 16  1  0
  4 17  1  0
  6 18  1  0
  9 19  1  0
  9 20  1  0
 10 21  1  0
 10 22  1  0
 12 23  1  0
 12 24  1  0
 13 25  1  0
 13 26  1  0
 14 27  1  0
 14 28  1  0
 14 29  1  0
M  ISO  8  15   8  16  14  17  14  18  14  19  13  20  13  21  13  22  13
M  ISO  7  23  13  24  13  25  13  26  13  27   8  28   8  29   8
M  END
>  <minimizedAffinity>  (1) 
-3.96962714

>  <minimizedRMSD>  (1) 
2.20110774

$$$$
