
     RDKit          3D

 23 24  0  0  1  0  0  0  0  0999 V2000
   47.8280   35.3190   41.7540 C   0  0  2  0  0  0  0  0  0  0  0  0
   47.1050   34.6990   42.8860 C   0  0  0  0  0  0  0  0  0  0  0  0
   45.8830   35.3450   43.1380 C   0  0  0  0  0  0  0  0  0  0  0  0
   45.0880   34.8700   44.1720 C   0  0  0  0  0  0  0  0  0  0  0  0
   45.5380   33.8120   44.8780 N   0  0  0  0  0  0  0  0  0  0  0  0
   46.7140   33.1960   44.6300 C   0  0  0  0  0  0  0  0  0  0  0  0
   47.4630   33.6690   43.6330 N   0  0  0  0  0  0  0  0  0  0  0  0
   47.4830   34.4670   40.5220 C   0  0  0  0  0  0  0  0  0  0  0  0
   48.2110   34.3540   39.2780 C   0  0  0  0  0  0  0  0  0  0  0  0
   47.6190   33.5010   38.3990 C   0  0  0  0  0  0  0  0  0  0  0  0
   46.4890   32.8570   38.6880 C   0  0  0  0  0  0  0  0  0  0  0  0
   46.0310   33.3720   40.3560 S   0  0  0  0  0  0  0  0  0  0  0  0
   49.3050   35.3490   41.9810 C   0  0  0  0  0  0  0  0  0  0  0  0
   47.5251   36.3688   41.6267 H   0  0  0  0  0  0  0  0  0  0  0  0
   45.5644   36.2054   42.5312 H   0  0  0  0  0  0  0  0  0  0  0  0
   44.1224   35.3409   44.4081 H   0  0  0  0  0  0  0  0  0  0  0  0
   47.0426   32.3342   45.2294 H   0  0  0  0  0  0  0  0  0  0  0  0
   49.1427   34.8987   39.0653 H   0  0  0  0  0  0  0  0  0  0  0  0
   48.0885   33.3377   37.4177 H   0  0  0  0  0  0  0  0  0  0  0  0
   45.9450   32.1534   38.0406 H   0  0  0  0  0  0  0  0  0  0  0  0
   49.5099   35.3532   43.0617 H   0  0  0  0  0  0  0  0  0  0  0  0
   49.7643   34.4600   41.5242 H   0  0  0  0  0  0  0  0  0  0  0  0
   49.7278   36.2559   41.5242 H   0  0  0  0  0  0  0  0  0  0  0  0
  1 13  1  0
  1  2  1  0
  2  3  2  0
  2  7  1  0
  3  4  1  0
  4  5  2  0
  6  5  1  0
  7  6  2  0
  8  1  1  0
  9  8  2  0
 10 11  2  0
 10  9  1  0
 11 12  1  0
 12  8  1  0
  1 14  1  6
  3 15  1  0
  4 16  1  0
  6 17  1  0
  9 18  1  0
 10 19  1  0
 11 20  1  0
 13 21  1  0
 13 22  1  0
 13 23  1  0
M  ISO  8  14   8  15  14  16  14  17  14  18  14  19  14  20  14  21   8
M  ISO  2  22   8  23   8
M  END
>  <minimizedAffinity>  (1) 
-4.13843155

>  <minimizedRMSD>  (1) 
1.31090045

$$$$
