
     RDKit          3D

 23 24  0  0  1  0  0  0  0  0999 V2000
   47.8810   35.2910   41.7870 C   0  0  2  0  0  0  0  0  0  0  0  0
   47.0350   34.8030   42.8900 C   0  0  0  0  0  0  0  0  0  0  0  0
   45.8490   35.5460   43.0280 C   0  0  0  0  0  0  0  0  0  0  0  0
   44.9240   35.2380   44.0130 C   0  0  0  0  0  0  0  0  0  0  0  0
   45.2320   34.1990   44.8130 N   0  0  0  0  0  0  0  0  0  0  0  0
   46.3660   33.4810   44.6870 C   0  0  0  0  0  0  0  0  0  0  0  0
   47.2400   33.7860   43.7420 N   0  0  0  0  0  0  0  0  0  0  0  0
   47.5240   34.5280   40.6060 N   0  0  0  0  0  0  0  0  0  0  0  0
   48.2250   34.4810   39.4900 N   0  0  0  0  0  0  0  0  0  0  0  0
   47.6140   33.6810   38.5940 C   0  0  0  0  0  0  0  0  0  0  0  0
   46.4580   33.1880   39.1670 C   0  0  0  0  0  0  0  0  0  0  0  0
   46.4270   33.7360   40.4300 C   0  0  0  0  0  0  0  0  0  0  0  0
   49.3390   35.1890   42.1410 C   0  0  0  0  0  0  0  0  0  0  0  0
   47.7087   36.3595   41.5907 H   0  0  0  0  0  0  0  0  0  0  0  0
   45.6525   36.3845   42.3437 H   0  0  0  0  0  0  0  0  0  0  0  0
   43.9918   35.8092   44.1345 H   0  0  0  0  0  0  0  0  0  0  0  0
   46.5645   32.6417   45.3698 H   0  0  0  0  0  0  0  0  0  0  0  0
   47.9746   33.4585   37.5789 H   0  0  0  0  0  0  0  0  0  0  0  0
   45.7229   32.5067   38.7137 H   0  0  0  0  0  0  0  0  0  0  0  0
   45.6409   33.5624   41.1796 H   0  0  0  0  0  0  0  0  0  0  0  0
   49.4510   35.1812   43.2353 H   0  0  0  0  0  0  0  0  0  0  0  0
   49.7536   34.2597   41.7233 H   0  0  0  0  0  0  0  0  0  0  0  0
   49.8789   36.0516   41.7233 H   0  0  0  0  0  0  0  0  0  0  0  0
  1 13  1  0
  1  2  1  0
  2  3  2  0
  2  7  1  0
  3  4  1  0
  4  5  2  0
  6  5  1  0
  7  6  2  0
  8  1  1  0
  9  8  1  0
 10 11  1  0
 10  9  2  0
 11 12  2  0
 12  8  1  0
  1 14  1  6
  3 15  1  0
  4 16  1  0
  6 17  1  0
 10 18  1  0
 11 19  1  0
 12 20  1  0
 13 21  1  0
 13 22  1  0
 13 23  1  0
M  ISO  8  14   8  15  14  16  14  17  14  18  14  19  14  20  14  21   8
M  ISO  2  22   8  23   8
M  END
>  <minimizedAffinity>  (1) 
-3.99182224

>  <minimizedRMSD>  (1) 
1.10160756

$$$$
