
     RDKit          3D

 31 33  0  0  1  0  0  0  0  0999 V2000
   45.7140   34.6120   41.6230 C   0  0  1  0  0  0  0  0  0  0  0  0
   45.4620   34.6610   43.0680 C   0  0  0  0  0  0  0  0  0  0  0  0
   44.8210   35.8520   43.4520 C   0  0  0  0  0  0  0  0  0  0  0  0
   44.5040   36.0500   44.7840 C   0  0  0  0  0  0  0  0  0  0  0  0
   44.8340   35.0650   45.6760 N   0  0  0  0  0  0  0  0  0  0  0  0
   45.4490   33.9340   45.2740 C   0  0  0  0  0  0  0  0  0  0  0  0
   45.7570   33.7450   43.9670 N   0  0  0  0  0  0  0  0  0  0  0  0
   47.2300   34.5230   41.3480 C   0  0  0  0  0  0  0  0  0  0  0  0
   44.9110   33.1870   40.8790 S   0  0  0  0  0  0  0  0  0  0  0  0
   43.6890   33.7560   39.7100 C   0  0  0  0  0  0  0  0  0  0  0  0
   43.5550   33.6410   38.3410 C   0  0  0  0  0  0  0  0  0  0  0  0
   42.4320   34.2570   37.9320 N   0  0  0  0  0  0  0  0  0  0  0  0
   41.8430   34.7680   39.0300 C   0  0  0  0  0  0  0  0  0  0  0  0
   40.6530   35.4910   39.0900 C   0  0  0  0  0  0  0  0  0  0  0  0
   40.2240   35.9270   40.3430 C   0  0  0  0  0  0  0  0  0  0  0  0
   40.9640   35.6430   41.4760 C   0  0  0  0  0  0  0  0  0  0  0  0
   42.1320   34.9290   41.3800 C   0  0  0  0  0  0  0  0  0  0  0  0
   42.5830   34.4840   40.1610 C   0  0  0  0  0  0  0  0  0  0  0  0
   45.3044   35.5323   41.1812 H   0  0  0  0  0  0  0  0  0  0  0  0
   44.5743   36.6177   42.7018 H   0  0  0  0  0  0  0  0  0  0  0  0
   44.0021   36.9707   45.1164 H   0  0  0  0  0  0  0  0  0  0  0  0
   45.7027   33.1588   46.0121 H   0  0  0  0  0  0  0  0  0  0  0  0
   47.7747   34.4910   42.3032 H   0  0  0  0  0  0  0  0  0  0  0  0
   47.4453   33.6107   40.7724 H   0  0  0  0  0  0  0  0  0  0  0  0
   47.5506   35.4039   40.7724 H   0  0  0  0  0  0  0  0  0  0  0  0
   44.2642   33.1208   37.6804 H   0  0  0  0  0  0  0  0  0  0  0  0
   42.0878   34.3251   36.9636 H   0  0  0  0  0  0  0  0  0  0  0  0
   40.0730   35.7098   38.1813 H   0  0  0  0  0  0  0  0  0  0  0  0
   39.2899   36.5012   40.4308 H   0  0  0  0  0  0  0  0  0  0  0  0
   40.6147   35.9911   42.4592 H   0  0  0  0  0  0  0  0  0  0  0  0
   42.7130   34.7108   42.2882 H   0  0  0  0  0  0  0  0  0  0  0  0
  1  2  1  0
  2  3  2  0
  2  7  1  0
  3  4  1  0
  4  5  2  0
  6  5  1  0
  7  6  2  0
  8  1  1  0
  9  1  1  0
 10 18  1  0
 10  9  1  0
 11 10  2  0
 12 11  1  0
 12 13  1  0
 13 14  2  0
 13 18  1  0
 14 15  1  0
 15 16  2  0
 17 16  1  0
 18 17  2  0
  1 19  1  6
  3 20  1  0
  4 21  1  0
  6 22  1  0
  8 23  1  0
  8 24  1  0
  8 25  1  0
 11 26  1  0
 12 27  1  0
 14 28  1  0
 15 29  1  0
 16 30  1  0
 17 31  1  0
M  ISO  8  19   8  20  14  21  14  22  14  23   8  24   8  25   8  26  14
M  ISO  5  27   9  28  14  29  14  30  14  31  14
M  END
>  <minimizedAffinity>  (1) 
-5.62942266

>  <minimizedRMSD>  (1) 
4.53834248

$$$$
