
     RDKit          3D

 24 25  0  0  1  0  0  0  0  0999 V2000
   47.0980   34.5780   41.7350 C   0  0  1  0  0  0  0  0  0  0  0  0
   46.3720   34.6490   43.0100 C   0  0  0  0  0  0  0  0  0  0  0  0
   45.4770   35.7560   43.0400 C   0  0  0  0  0  0  0  0  0  0  0  0
   44.7060   35.9600   44.1790 C   0  0  0  0  0  0  0  0  0  0  0  0
   44.8370   35.0990   45.2130 N   0  0  0  0  0  0  0  0  0  0  0  0
   45.7000   34.0560   45.1500 C   0  0  0  0  0  0  0  0  0  0  0  0
   46.4490   33.8580   44.0440 N   0  0  0  0  0  0  0  0  0  0  0  0
   48.3090   35.5350   41.7710 C   0  0  0  0  0  0  0  0  0  0  0  0
   47.6660   32.9130   41.4230 S   0  0  0  0  0  0  0  0  0  0  0  0
   51.5690   32.6680   42.0620 N   0  0  0  0  0  0  0  0  0  0  0  0
   50.4000   33.1320   42.4440 N   0  0  0  0  0  0  0  0  0  0  0  0
   49.4260   32.7280   41.6080 C   0  0  0  0  0  0  0  0  0  0  0  0
   50.0760   31.9620   40.6570 C   0  0  0  0  0  0  0  0  0  0  0  0
   51.4100   31.9300   40.9470 C   0  0  0  0  0  0  0  0  0  0  0  0
   46.4128   34.8752   40.9274 H   0  0  0  0  0  0  0  0  0  0  0  0
   45.3971   36.4363   42.1793 H   0  0  0  0  0  0  0  0  0  0  0  0
   44.0038   36.8047   44.2375 H   0  0  0  0  0  0  0  0  0  0  0  0
   45.7907   33.3678   46.0034 H   0  0  0  0  0  0  0  0  0  0  0  0
   48.5776   35.7473   42.8164 H   0  0  0  0  0  0  0  0  0  0  0  0
   49.1630   35.0651   41.2611 H   0  0  0  0  0  0  0  0  0  0  0  0
   48.0492   36.4744   41.2611 H   0  0  0  0  0  0  0  0  0  0  0  0
   52.4648   32.8415   42.5399 H   0  0  0  0  0  0  0  0  0  0  0  0
   49.5956   31.4596   39.8045 H   0  0  0  0  0  0  0  0  0  0  0  0
   52.1964   31.4067   40.3833 H   0  0  0  0  0  0  0  0  0  0  0  0
  1  8  1  0
  1  2  1  0
  2  3  2  0
  2  7  1  0
  3  4  1  0
  4  5  2  0
  6  5  1  0
  7  6  2  0
  9 12  1  0
  9  1  1  0
 10 11  1  0
 12 11  2  0
 13 14  2  0
 13 12  1  0
 14 10  1  0
  1 15  1  6
  3 16  1  0
  4 17  1  0
  6 18  1  0
  8 19  1  0
  8 20  1  0
  8 21  1  0
 10 22  1  0
 13 23  1  0
 14 24  1  0
M  ISO  8  15   8  16  14  17  14  18  14  19   8  20   8  21   8  22   9
M  ISO  2  23  14  24  14
M  END
>  <minimizedAffinity>  (1) 
-4.35642862

>  <minimizedRMSD>  (1) 
1.16920352

$$$$
