
     RDKit          3D

 25 26  0  0  1  0  0  0  0  0999 V2000
   46.8210   34.7060   41.7150 C   0  0  1  0  0  0  0  0  0  0  0  0
   46.1880   34.7430   43.0210 C   0  0  0  0  0  0  0  0  0  0  0  0
   45.3160   35.8600   43.1520 C   0  0  0  0  0  0  0  0  0  0  0  0
   44.6240   36.0210   44.3590 C   0  0  0  0  0  0  0  0  0  0  0  0
   44.8130   35.1100   45.3460 N   0  0  0  0  0  0  0  0  0  0  0  0
   45.6570   34.0510   45.1860 C   0  0  0  0  0  0  0  0  0  0  0  0
   46.3160   33.9100   44.0170 N   0  0  0  0  0  0  0  0  0  0  0  0
   48.1810   35.4370   41.7540 C   0  0  0  0  0  0  0  0  0  0  0  0
   47.0870   33.0180   41.1700 S   0  0  0  0  0  0  0  0  0  0  0  0
   48.7960   32.5240   41.2810 C   0  0  0  0  0  0  0  0  0  0  0  0
   49.3330   32.1420   40.0530 C   0  0  0  0  0  0  0  0  0  0  0  0
   50.6470   31.7290   39.9700 C   0  0  0  0  0  0  0  0  0  0  0  0
   51.4410   31.6820   41.0540 N   0  0  0  0  0  0  0  0  0  0  0  0
   50.8990   32.0580   42.2350 C   0  0  0  0  0  0  0  0  0  0  0  0
   49.6110   32.4680   42.3530 N   0  0  0  0  0  0  0  0  0  0  0  0
   46.1458   35.2098   41.0077 H   0  0  0  0  0  0  0  0  0  0  0  0
   45.1889   36.5773   42.3278 H   0  0  0  0  0  0  0  0  0  0  0  0
   43.9401   36.8703   44.5038 H   0  0  0  0  0  0  0  0  0  0  0  0
   45.7985   33.3224   45.9979 H   0  0  0  0  0  0  0  0  0  0  0  0
   48.4808   35.5981   42.8000 H   0  0  0  0  0  0  0  0  0  0  0  0
   48.9406   34.8256   41.2449 H   0  0  0  0  0  0  0  0  0  0  0  0
   48.0902   36.4078   41.2449 H   0  0  0  0  0  0  0  0  0  0  0  0
   48.7081   32.1698   39.1481 H   0  0  0  0  0  0  0  0  0  0  0  0
   51.0549   31.4309   38.9929 H   0  0  0  0  0  0  0  0  0  0  0  0
   51.5283   32.0302   43.1368 H   0  0  0  0  0  0  0  0  0  0  0  0
  1  8  1  0
  1  2  1  0
  2  3  2  0
  2  7  1  0
  3  4  1  0
  4  5  2  0
  6  5  1  0
  7  6  2  0
  9 10  1  0
  9  1  1  0
 10 15  1  0
 11 10  2  0
 12 11  1  0
 12 13  2  0
 13 14  1  0
 14 15  2  0
  1 16  1  6
  3 17  1  0
  4 18  1  0
  6 19  1  0
  8 20  1  0
  8 21  1  0
  8 22  1  0
 11 23  1  0
 12 24  1  0
 14 25  1  0
M  ISO  8  16   8  17  14  18  14  19  14  20   8  21   8  22   8  23  14
M  ISO  2  24  14  25  14
M  END
>  <minimizedAffinity>  (1) 
-4.1475606

>  <minimizedRMSD>  (1) 
1.26374745

$$$$
