
     RDKit          3D

 24 25  0  0  1  0  0  0  0  0999 V2000
   46.9290   34.7300   41.7310 C   0  0  1  0  0  0  0  0  0  0  0  0
   46.2500   34.7590   43.0260 C   0  0  0  0  0  0  0  0  0  0  0  0
   45.3580   35.8550   43.1280 C   0  0  0  0  0  0  0  0  0  0  0  0
   44.6410   35.9930   44.3140 C   0  0  0  0  0  0  0  0  0  0  0  0
   44.8210   35.0840   45.3120 N   0  0  0  0  0  0  0  0  0  0  0  0
   45.6890   34.0490   45.1660 C   0  0  0  0  0  0  0  0  0  0  0  0
   46.3940   33.9070   44.0130 N   0  0  0  0  0  0  0  0  0  0  0  0
   48.2740   35.4850   41.8050 C   0  0  0  0  0  0  0  0  0  0  0  0
   47.1960   33.0500   41.1600 S   0  0  0  0  0  0  0  0  0  0  0  0
   49.1100   32.7740   41.5000 C   0  0  0  0  0  0  0  0  0  0  0  0
   50.4640   32.8770   42.2770 C   0  0  0  0  0  0  0  0  0  0  0  0
   51.3020   32.2110   41.4380 C   0  0  0  0  0  0  0  0  0  0  0  0
   51.2050   31.5480   40.1920 C   0  0  0  0  0  0  0  0  0  0  0  0
   49.4320   31.7940   39.8680 S   0  0  0  0  0  0  0  0  0  0  0  0
   46.2738   35.2342   41.0054 H   0  0  0  0  0  0  0  0  0  0  0  0
   45.2363   36.5703   42.3013 H   0  0  0  0  0  0  0  0  0  0  0  0
   43.9364   36.8278   44.4433 H   0  0  0  0  0  0  0  0  0  0  0  0
   45.8214   33.3244   45.9829 H   0  0  0  0  0  0  0  0  0  0  0  0
   48.5500   35.6399   42.8585 H   0  0  0  0  0  0  0  0  0  0  0  0
   49.0547   34.8932   41.3046 H   0  0  0  0  0  0  0  0  0  0  0  0
   48.1754   36.4596   41.3046 H   0  0  0  0  0  0  0  0  0  0  0  0
   50.6801   33.3585   43.2421 H   0  0  0  0  0  0  0  0  0  0  0  0
   52.3280   32.1795   41.8333 H   0  0  0  0  0  0  0  0  0  0  0  0
   51.9741   31.0354   39.5956 H   0  0  0  0  0  0  0  0  0  0  0  0
  1  8  1  0
  1  2  1  0
  2  3  2  0
  2  7  1  0
  3  4  1  0
  4  5  2  0
  6  5  1  0
  7  6  2  0
  9 10  1  0
  9  1  1  0
 10 11  2  0
 12 11  1  0
 13 12  2  0
 14 13  1  0
 14 10  1  0
  1 15  1  6
  3 16  1  0
  4 17  1  0
  6 18  1  0
  8 19  1  0
  8 20  1  0
  8 21  1  0
 11 22  1  0
 12 23  1  0
 13 24  1  0
M  ISO  8  15   8  16  14  17  14  18  14  19   8  20   8  21   8  22  14
M  ISO  2  23  14  24  14
M  END
>  <minimizedAffinity>  (1) 
-4.25648165

>  <minimizedRMSD>  (1) 
1.1963644

$$$$
