
     RDKit          3D

 29 30  0  0  1  0  0  0  0  0999 V2000
   47.7940   34.7870   41.3720 C   0  0  1  0  0  0  0  0  0  0  0  0
   47.0760   34.5400   42.6210 C   0  0  0  0  0  0  0  0  0  0  0  0
   45.9450   35.3830   42.7480 C   0  0  0  0  0  0  0  0  0  0  0  0
   45.1490   35.2720   43.8740 C   0  0  0  0  0  0  0  0  0  0  0  0
   45.4960   34.3430   44.8210 N   0  0  0  0  0  0  0  0  0  0  0  0
   46.5850   33.5540   44.6650 C   0  0  0  0  0  0  0  0  0  0  0  0
   47.3560   33.6730   43.5580 N   0  0  0  0  0  0  0  0  0  0  0  0
   48.9540   35.7790   41.6080 C   0  0  0  0  0  0  0  0  0  0  0  0
   48.4770   33.2650   40.7080 S   0  0  0  0  0  0  0  0  0  0  0  0
   47.4240   34.1410   38.3870 N   0  0  0  0  0  0  0  0  0  0  0  0
   48.3590   34.5180   37.3470 C   0  0  0  0  0  0  0  0  0  0  0  0
   48.8860   33.1690   36.8990 C   0  0  0  0  0  0  0  0  0  0  0  0
   49.1130   32.4860   38.2290 C   0  0  0  0  0  0  0  0  0  0  0  0
   47.9160   32.9610   39.0320 C   0  0  1  0  0  0  0  0  0  0  0  0
   47.0739   35.2081   40.6550 H   0  0  0  0  0  0  0  0  0  0  0  0
   45.7032   36.1149   41.9632 H   0  0  0  0  0  0  0  0  0  0  0  0
   44.2631   35.9106   44.0059 H   0  0  0  0  0  0  0  0  0  0  0  0
   46.8438   32.8156   45.4381 H   0  0  0  0  0  0  0  0  0  0  0  0
   49.1090   35.9115   42.6889 H   0  0  0  0  0  0  0  0  0  0  0  0
   49.8733   35.3834   41.1516 H   0  0  0  0  0  0  0  0  0  0  0  0
   48.7059   36.7486   41.1516 H   0  0  0  0  0  0  0  0  0  0  0  0
   46.5005   33.9512   37.9722 H   0  0  0  0  0  0  0  0  0  0  0  0
   47.8522   35.0433   36.5241 H   0  0  0  0  0  0  0  0  0  0  0  0
   49.1427   35.2128   37.6833 H   0  0  0  0  0  0  0  0  0  0  0  0
   48.1461   32.6293   36.2897 H   0  0  0  0  0  0  0  0  0  0  0  0
   49.7802   33.2229   36.2607 H   0  0  0  0  0  0  0  0  0  0  0  0
   49.1141   31.3912   38.1217 H   0  0  0  0  0  0  0  0  0  0  0  0
   50.0820   32.7243   38.6918 H   0  0  0  0  0  0  0  0  0  0  0  0
   47.0983   32.2268   39.0805 H   0  0  0  0  0  0  0  0  0  0  0  0
  1  8  1  0
  1  2  1  0
  2  3  2  0
  2  7  1  0
  3  4  1  0
  4  5  2  0
  6  5  1  0
  7  6  2  0
  9  1  1  0
 10 14  1  0
 11 10  1  0
 12 11  1  0
 12 13  1  0
 13 14  1  0
 14  9  1  0
  1 15  1  6
  3 16  1  0
  4 17  1  0
  6 18  1  0
  8 19  1  0
  8 20  1  0
  8 21  1  0
 10 22  1  0
 11 23  1  0
 11 24  1  0
 12 25  1  0
 12 26  1  0
 13 27  1  0
 13 28  1  0
 14 29  1  1
M  ISO  8  15   8  16  14  17  14  18  14  19   8  20   8  21   8  22   5
M  ISO  7  23  13  24  13  25  13  26  13  27  13  28  13  29  13
M  END
>  <minimizedAffinity>  (1) 
-4.28512049

>  <minimizedRMSD>  (1) 
1.58370697

$$$$
