
     RDKit          3D

 24 25  0  0  1  0  0  0  0  0999 V2000
   47.6830   35.0540   41.3690 C   0  0  1  0  0  0  0  0  0  0  0  0
   47.0070   34.6830   42.6170 C   0  0  0  0  0  0  0  0  0  0  0  0
   45.8280   35.4090   42.8330 C   0  0  0  0  0  0  0  0  0  0  0  0
   45.0850   35.1440   43.9810 C   0  0  0  0  0  0  0  0  0  0  0  0
   45.5330   34.1910   44.8500 N   0  0  0  0  0  0  0  0  0  0  0  0
   46.6740   33.5170   44.6000 C   0  0  0  0  0  0  0  0  0  0  0  0
   47.4020   33.7670   43.4890 N   0  0  0  0  0  0  0  0  0  0  0  0
   48.9910   35.8020   41.6650 C   0  0  0  0  0  0  0  0  0  0  0  0
   48.0080   33.6080   40.3520 S   0  0  0  0  0  0  0  0  0  0  0  0
   46.6630   33.3640   39.2030 C   0  0  0  0  0  0  0  0  0  0  0  0
   45.3570   32.9630   39.3900 C   0  0  0  0  0  0  0  0  0  0  0  0
   44.7050   32.9190   38.2150 N   0  0  0  0  0  0  0  0  0  0  0  0
   45.6220   33.2960   37.3100 C   0  0  0  0  0  0  0  0  0  0  0  0
   46.8150   33.5730   37.8640 N   0  0  0  0  0  0  0  0  0  0  0  0
   47.0126   35.7226   40.8090 H   0  0  0  0  0  0  0  0  0  0  0  0
   45.4967   36.1710   42.1122 H   0  0  0  0  0  0  0  0  0  0  0  0
   44.1536   35.6929   44.1839 H   0  0  0  0  0  0  0  0  0  0  0  0
   47.0176   32.7517   45.3115 H   0  0  0  0  0  0  0  0  0  0  0  0
   49.1298   35.8814   42.7533 H   0  0  0  0  0  0  0  0  0  0  0  0
   49.8360   35.2506   41.2269 H   0  0  0  0  0  0  0  0  0  0  0  0
   48.9442   36.8099   41.2269 H   0  0  0  0  0  0  0  0  0  0  0  0
   44.9110   32.7140   40.3642 H   0  0  0  0  0  0  0  0  0  0  0  0
   45.4190   33.3702   36.2314 H   0  0  0  0  0  0  0  0  0  0  0  0
   47.6690   33.8802   37.3769 H   0  0  0  0  0  0  0  0  0  0  0  0
  1  8  1  0
  1  2  1  0
  2  3  2  0
  2  7  1  0
  3  4  1  0
  4  5  2  0
  6  5  1  0
  7  6  2  0
  9  1  1  0
 10 11  2  0
 10  9  1  0
 12 11  1  0
 13 14  1  0
 13 12  2  0
 14 10  1  0
  1 15  1  6
  3 16  1  0
  4 17  1  0
  6 18  1  0
  8 19  1  0
  8 20  1  0
  8 21  1  0
 11 22  1  0
 13 23  1  0
 14 24  1  0
M  ISO  8  15   8  16  14  17  14  18  14  19   8  20   8  21   8  22  14
M  ISO  2  23  14  24   9
M  END
>  <minimizedAffinity>  (1) 
-3.92527223

>  <minimizedRMSD>  (1) 
1.30954516

$$$$
