
     RDKit          3D

 26 26  0  0  1  0  0  0  0  0999 V2000
   46.0930   35.0480   42.6680 C   0  0  1  0  0  0  0  0  0  0  0  0
   45.0540   34.7540   41.6650 C   0  0  0  0  0  0  0  0  0  0  0  0
   43.8700   35.5190   41.8890 C   0  0  0  0  0  0  0  0  0  0  0  0
   42.7980   35.3590   41.0190 C   0  0  0  0  0  0  0  0  0  0  0  0
   42.9160   34.4890   39.9960 N   0  0  0  0  0  0  0  0  0  0  0  0
   44.0630   33.7680   39.8040 C   0  0  0  0  0  0  0  0  0  0  0  0
   45.1050   33.9240   40.6520 N   0  0  0  0  0  0  0  0  0  0  0  0
   45.4810   34.9480   44.0780 C   0  0  0  0  0  0  0  0  0  0  0  0
   47.4700   33.9250   42.4880 S   0  0  0  0  0  0  0  0  0  0  0  0
   49.0260   34.8260   42.5340 C   0  0  0  0  0  0  0  0  0  0  0  0
   50.2300   33.9400   42.4190 C   0  0  0  0  0  0  0  0  0  0  0  0
   49.0030   35.8890   41.4470 C   0  0  0  0  0  0  0  0  0  0  0  0
   46.4718   36.0693   42.5148 H   0  0  0  0  0  0  0  0  0  0  0  0
   43.8072   36.2212   42.7334 H   0  0  0  0  0  0  0  0  0  0  0  0
   41.8700   35.9319   41.1626 H   0  0  0  0  0  0  0  0  0  0  0  0
   44.1374   33.0636   38.9624 H   0  0  0  0  0  0  0  0  0  0  0  0
   46.2722   35.0773   44.8312 H   0  0  0  0  0  0  0  0  0  0  0  0
   44.7220   35.7340   44.2049 H   0  0  0  0  0  0  0  0  0  0  0  0
   45.0117   33.9613   44.2049 H   0  0  0  0  0  0  0  0  0  0  0  0
   49.1193   35.3008   43.5218 H   0  0  0  0  0  0  0  0  0  0  0  0
   50.5885   33.6762   43.4249 H   0  0  0  0  0  0  0  0  0  0  0  0
   49.9601   33.0235   41.8739 H   0  0  0  0  0  0  0  0  0  0  0  0
   51.0247   34.4703   41.8739 H   0  0  0  0  0  0  0  0  0  0  0  0
   48.9814   36.8865   41.9101 H   0  0  0  0  0  0  0  0  0  0  0  0
   49.9034   35.7942   40.8223 H   0  0  0  0  0  0  0  0  0  0  0  0
   48.1075   35.7553   40.8223 H   0  0  0  0  0  0  0  0  0  0  0  0
  1  8  1  0
  2  3  2  0
  2  1  1  0
  4  3  1  0
  5  4  2  0
  6  5  1  0
  6  7  2  0
  7  2  1  0
  9 10  1  0
  9  1  1  0
 11 10  1  0
 12 10  1  0
  1 13  1  6
  3 14  1  0
  4 15  1  0
  6 16  1  0
  8 17  1  0
  8 18  1  0
  8 19  1  0
 10 20  1  0
 11 21  1  0
 11 22  1  0
 11 23  1  0
 12 24  1  0
 12 25  1  0
 12 26  1  0
M  ISO  8  13   8  14  14  15  14  16  14  17   8  18   8  19   8  20   8
M  ISO  6  21   8  22   8  23   8  24   8  25   8  26   8
M  END
>  <minimizedAffinity>  (1) 
-3.73599744

>  <minimizedRMSD>  (1) 
3.79156661

$$$$
