
     RDKit          3D

 23 23  0  0  1  0  0  0  0  0999 V2000
   47.0100   34.8580   41.7810 C   0  0  1  0  0  0  0  0  0  0  0  0
   46.3020   34.8090   43.0730 C   0  0  0  0  0  0  0  0  0  0  0  0
   45.3620   35.8710   43.1890 C   0  0  0  0  0  0  0  0  0  0  0  0
   44.6060   35.9490   44.3580 C   0  0  0  0  0  0  0  0  0  0  0  0
   44.8000   35.0090   45.3340 N   0  0  0  0  0  0  0  0  0  0  0  0
   45.7090   34.0140   45.1760 C   0  0  0  0  0  0  0  0  0  0  0  0
   46.4410   33.9410   44.0400 N   0  0  0  0  0  0  0  0  0  0  0  0
   48.3800   35.5390   41.9670 C   0  0  0  0  0  0  0  0  0  0  0  0
   47.2300   33.1990   41.1290 S   0  0  0  0  0  0  0  0  0  0  0  0
   48.3840   33.0920   39.7650 C   0  0  0  0  0  0  0  0  0  0  0  0
   48.0370   34.0290   38.6490 C   0  0  0  0  0  0  0  0  0  0  0  0
   46.4104   35.4394   41.0651 H   0  0  0  0  0  0  0  0  0  0  0  0
   45.2357   36.6074   42.3817 H   0  0  0  0  0  0  0  0  0  0  0  0
   43.8665   36.7520   44.4936 H   0  0  0  0  0  0  0  0  0  0  0  0
   45.8509   33.2670   45.9709 H   0  0  0  0  0  0  0  0  0  0  0  0
   48.5939   35.6453   43.0408 H   0  0  0  0  0  0  0  0  0  0  0  0
   49.1618   34.9246   41.4965 H   0  0  0  0  0  0  0  0  0  0  0  0
   48.3622   36.5331   41.4965 H   0  0  0  0  0  0  0  0  0  0  0  0
   49.3906   33.3389   40.1336 H   0  0  0  0  0  0  0  0  0  0  0  0
   48.3404   32.0670   39.3683 H   0  0  0  0  0  0  0  0  0  0  0  0
   47.6837   34.9829   39.0676 H   0  0  0  0  0  0  0  0  0  0  0  0
   48.9285   34.2080   38.0299 H   0  0  0  0  0  0  0  0  0  0  0  0
   47.2440   33.5842   38.0299 H   0  0  0  0  0  0  0  0  0  0  0  0
  1  8  1  0
  1  2  1  0
  2  3  2  0
  2  7  1  0
  3  4  1  0
  4  5  2  0
  6  5  1  0
  7  6  2  0
  9  1  1  0
 10  9  1  0
 11 10  1  0
  1 12  1  6
  3 13  1  0
  4 14  1  0
  6 15  1  0
  8 16  1  0
  8 17  1  0
  8 18  1  0
 10 19  1  0
 10 20  1  0
 11 21  1  0
 11 22  1  0
 11 23  1  0
M  ISO  8  12   8  13  14  14  14  15  14  16   8  17   8  18   8  19   8
M  ISO  4  20   8  21   8  22   8  23   8
M  END
>  <minimizedAffinity>  (1) 
-3.57795143

>  <minimizedRMSD>  (1) 
1.05728519

$$$$
