
     RDKit          3D

 28 30  0  0  1  0  0  0  0  0999 V2000
   46.7320   34.8090   41.8600 C   0  0  1  0  0  0  0  0  0  0  0  0
   46.0920   34.8260   43.1830 C   0  0  0  0  0  0  0  0  0  0  0  0
   45.2120   35.9200   43.3310 C   0  0  0  0  0  0  0  0  0  0  0  0
   44.5200   36.0430   44.5430 C   0  0  0  0  0  0  0  0  0  0  0  0
   44.7250   35.1060   45.5200 N   0  0  0  0  0  0  0  0  0  0  0  0
   45.5740   34.0800   45.3350 C   0  0  0  0  0  0  0  0  0  0  0  0
   46.2500   33.9560   44.1600 N   0  0  0  0  0  0  0  0  0  0  0  0
   48.2430   35.0780   42.0090 C   0  0  0  0  0  0  0  0  0  0  0  0
   46.4630   33.2410   41.0290 S   0  0  0  0  0  0  0  0  0  0  0  0
   49.5780   33.3340   37.1820 N   0  0  0  0  0  0  0  0  0  0  0  0
   48.5650   34.2110   37.0810 C   0  0  0  0  0  0  0  0  0  0  0  0
   47.7930   34.0920   38.1760 N   0  0  0  0  0  0  0  0  0  0  0  0
   48.3070   33.1420   38.9780 C   0  0  0  0  0  0  0  0  0  0  0  0
   47.9220   32.6250   40.2050 C   0  0  0  0  0  0  0  0  0  0  0  0
   48.7240   31.6630   40.6830 N   0  0  0  0  0  0  0  0  0  0  0  0
   49.8150   31.1900   40.0920 C   0  0  0  0  0  0  0  0  0  0  0  0
   50.1910   31.6900   38.9000 N   0  0  0  0  0  0  0  0  0  0  0  0
   49.4410   32.6700   38.3330 C   0  0  0  0  0  0  0  0  0  0  0  0
   46.2778   35.6004   41.2456 H   0  0  0  0  0  0  0  0  0  0  0  0
   45.0742   36.6518   42.5214 H   0  0  0  0  0  0  0  0  0  0  0  0
   43.8235   36.8785   44.7069 H   0  0  0  0  0  0  0  0  0  0  0  0
   45.7226   33.3394   46.1346 H   0  0  0  0  0  0  0  0  0  0  0  0
   48.5036   35.1244   43.0767 H   0  0  0  0  0  0  0  0  0  0  0  0
   48.8091   34.2665   41.5283 H   0  0  0  0  0  0  0  0  0  0  0  0
   48.4942   36.0350   41.5283 H   0  0  0  0  0  0  0  0  0  0  0  0
   50.3300   33.1974   36.4915 H   0  0  0  0  0  0  0  0  0  0  0  0
   48.3960   34.9069   36.2460 H   0  0  0  0  0  0  0  0  0  0  0  0
   50.4064   30.3965   40.5723 H   0  0  0  0  0  0  0  0  0  0  0  0
  1  8  1  0
  1  2  1  0
  2  3  2  0
  2  7  1  0
  3  4  1  0
  4  5  2  0
  6  5  1  0
  7  6  2  0
  9  1  1  0
 10 18  1  0
 11 10  1  0
 11 12  2  0
 12 13  1  0
 13 14  2  0
 14 15  1  0
 14  9  1  0
 16 15  2  0
 17 16  1  0
 18 17  2  0
 18 13  1  0
  1 19  1  6
  3 20  1  0
  4 21  1  0
  6 22  1  0
  8 23  1  0
  8 24  1  0
  8 25  1  0
 10 26  1  0
 11 27  1  0
 16 28  1  0
M  ISO  8  19   8  20  14  21  14  22  14  23   8  24   8  25   8  26   9
M  ISO  2  27  14  28  14
M  END
>  <minimizedAffinity>  (1) 
-4.91673994

>  <minimizedRMSD>  (1) 
3.47794938

$$$$
