
     RDKit          3D

 38 42  0  0  1  0  0  0  0  0999 V2000
   45.9320   33.0230   37.5200 C   0  0  2  0  0  0  0  0  0  0  0  0
   46.7410   32.0040   36.6900 C   0  0  0  0  0  0  0  0  0  0  0  0
   47.0660   32.2480   38.1470 C   0  0  1  0  0  0  0  0  0  0  0  0
   42.6190   32.5490   38.9050 N   0  0  0  0  0  0  0  0  0  0  0  0
   42.5480   31.7150   37.8280 C   0  0  0  0  0  0  0  0  0  0  0  0
   43.7020   31.7370   37.1570 N   0  0  0  0  0  0  0  0  0  0  0  0
   44.5240   32.6130   37.8330 C   0  0  0  0  0  0  0  0  0  0  0  0
   43.8120   33.0500   38.8520 N   0  0  0  0  0  0  0  0  0  0  0  0
   41.1040   34.1870   39.8190 C   0  0  0  0  0  0  0  0  0  0  0  0
   41.6680   32.8700   39.9070 C   0  0  0  0  0  0  0  0  0  0  0  0
   41.2570   32.0620   40.9160 C   0  0  0  0  0  0  0  0  0  0  0  0
   40.3360   32.5450   41.7850 N   0  0  0  0  0  0  0  0  0  0  0  0
   39.8120   33.7840   41.6920 C   0  0  0  0  0  0  0  0  0  0  0  0
   40.2110   34.5990   40.6950 N   0  0  0  0  0  0  0  0  0  0  0  0
   48.2280   32.9980   38.5670 C   0  0  0  0  0  0  0  0  0  0  0  0
   49.3650   32.4340   38.4810 O   0  0  0  0  0  0  0  0  0  0  0  0
   48.1360   34.2880   39.0400 O   0  0  0  0  0  0  0  0  0  0  0  0
   48.3450   34.8540   42.4740 N   0  0  0  0  0  0  0  0  0  0  0  0
   48.8860   34.6770   41.2600 N   0  0  0  0  0  0  0  0  0  0  0  0
   47.8770   34.4960   40.3760 C   0  0  0  0  0  0  0  0  0  0  0  0
   46.6750   34.5570   41.0290 C   0  0  0  0  0  0  0  0  0  0  0  0
   47.0080   34.7870   42.3620 C   0  0  0  0  0  0  0  0  0  0  0  0
   46.0760   34.9300   43.4570 C   0  0  0  0  0  0  0  0  0  0  0  0
   45.9680   34.0730   44.4920 N   0  0  0  0  0  0  0  0  0  0  0  0
   45.0330   34.5240   45.2730 O   0  0  0  0  0  0  0  0  0  0  0  0
   44.5150   35.6240   44.8180 C   0  0  0  0  0  0  0  0  0  0  0  0
   45.1740   35.8770   43.6740 N   0  0  0  0  0  0  0  0  0  0  0  0
   45.6834   34.0926   37.4563 H   0  0  0  0  0  0  0  0  0  0  0  0
   46.2797   31.0552   36.3785 H   0  0  0  0  0  0  0  0  0  0  0  0
   47.3055   32.0357   35.7465 H   0  0  0  0  0  0  0  0  0  0  0  0
   47.1930   31.5652   39.0000 H   0  0  0  0  0  0  0  0  0  0  0  0
   41.6694   31.1130   37.5529 H   0  0  0  0  0  0  0  0  0  0  0  0
   41.4217   34.8608   39.0096 H   0  0  0  0  0  0  0  0  0  0  0  0
   41.6596   31.0442   41.0257 H   0  0  0  0  0  0  0  0  0  0  0  0
   39.0653   34.1268   42.4234 H   0  0  0  0  0  0  0  0  0  0  0  0
   48.8675   35.0146   43.3470 H   0  0  0  0  0  0  0  0  0  0  0  0
   45.6693   34.4484   40.5968 H   0  0  0  0  0  0  0  0  0  0  0  0
   43.7098   36.2208   45.2712 H   0  0  0  0  0  0  0  0  0  0  0  0
  1  7  1  0
  1  3  1  0
  2  1  1  0
  2  3  1  0
  3 15  1  0
  4 10  1  0
  5  4  1  0
  6  5  2  0
  6  7  1  0
  7  8  2  0
  8  4  1  0
  9 10  2  0
  9 14  1  0
 10 11  1  0
 11 12  2  0
 13 12  1  0
 14 13  2  0
 15 17  1  0
 16 15  2  0
 17 20  1  0
 19 18  1  0
 20 21  1  0
 20 19  2  0
 21 22  2  0
 22 18  1  0
 22 23  1  0
 23 27  1  0
 23 24  2  0
 24 25  1  0
 26 25  1  0
 27 26  2  0
  1 28  1  6
  2 29  1  0
  2 30  1  0
  3 31  1  1
  5 32  1  0
  9 33  1  0
 11 34  1  0
 13 35  1  0
 18 36  1  0
 21 37  1  0
 26 38  1  0
M  ISO  8  28  13  29  13  30  13  31  13  32  14  33  14  34  14  35  14
M  ISO  3  36   9  37  14  38  14
M  END
>  <minimizedAffinity>  (1) 
-5.3237958

>  <minimizedRMSD>  (1) 
5.9695549

$$$$
