
     RDKit          3D

 35 38  0  0  1  0  0  0  0  0999 V2000
   46.4450   33.3530   40.9090 S   0  0  0  0  0  0  0  0  0  0  0  0
   49.6140   33.1290   37.1140 N   0  0  0  0  0  0  0  0  0  0  0  0
   48.5390   33.9200   36.8870 C   0  0  0  0  0  0  0  0  0  0  0  0
   47.7680   33.8930   37.9830 N   0  0  0  0  0  0  0  0  0  0  0  0
   48.3290   33.0990   38.9090 C   0  0  0  0  0  0  0  0  0  0  0  0
   47.9610   32.7270   40.1930 C   0  0  0  0  0  0  0  0  0  0  0  0
   48.8130   31.8980   40.8040 N   0  0  0  0  0  0  0  0  0  0  0  0
   49.9450   31.4230   40.2860 C   0  0  0  0  0  0  0  0  0  0  0  0
   50.3090   31.7780   39.0430 N   0  0  0  0  0  0  0  0  0  0  0  0
   49.5000   32.6200   38.3470 C   0  0  0  0  0  0  0  0  0  0  0  0
   50.7980   30.5410   41.0090 N   0  0  0  0  0  0  0  0  0  0  0  0
   51.2940   29.3020   40.7170 C   0  0  0  0  0  0  0  0  0  0  0  0
   52.0820   28.9070   41.7980 C   0  0  0  0  0  0  0  0  0  0  0  0
   52.0450   29.9060   42.7110 N   0  0  0  0  0  0  0  0  0  0  0  0
   51.2620   30.8920   42.2200 C   0  0  0  0  0  0  0  0  0  0  0  0
   46.6750   34.9090   41.7580 C   0  0  1  0  0  0  0  0  0  0  0  0
   46.0490   34.8950   43.0960 C   0  0  0  0  0  0  0  0  0  0  0  0
   45.1690   35.9770   43.2990 C   0  0  0  0  0  0  0  0  0  0  0  0
   44.5220   36.0350   44.5500 C   0  0  0  0  0  0  0  0  0  0  0  0
   44.7700   35.0680   45.4840 N   0  0  0  0  0  0  0  0  0  0  0  0
   45.6190   34.0650   45.2280 C   0  0  0  0  0  0  0  0  0  0  0  0
   46.2470   34.0030   44.0220 N   0  0  0  0  0  0  0  0  0  0  0  0
   48.1710   35.2610   41.8800 C   0  0  0  0  0  0  0  0  0  0  0  0
   50.3843   32.9502   36.4540 H   0  0  0  0  0  0  0  0  0  0  0  0
   48.3344   34.4851   35.9657 H   0  0  0  0  0  0  0  0  0  0  0  0
   51.1068   28.7237   39.8002 H   0  0  0  0  0  0  0  0  0  0  0  0
   52.6319   27.9589   41.8914 H   0  0  0  0  0  0  0  0  0  0  0  0
   51.0385   31.8385   42.7340 H   0  0  0  0  0  0  0  0  0  0  0  0
   46.1791   35.6823   41.1530 H   0  0  0  0  0  0  0  0  0  0  0  0
   44.9962   36.7363   42.5221 H   0  0  0  0  0  0  0  0  0  0  0  0
   43.8218   36.8534   44.7734 H   0  0  0  0  0  0  0  0  0  0  0  0
   45.8083   33.2940   45.9894 H   0  0  0  0  0  0  0  0  0  0  0  0
   48.4469   35.3259   42.9429 H   0  0  0  0  0  0  0  0  0  0  0  0
   48.7725   34.4798   41.3921 H   0  0  0  0  0  0  0  0  0  0  0  0
   48.3610   36.2284   41.3921 H   0  0  0  0  0  0  0  0  0  0  0  0
  1 16  1  0
  2 10  1  0
  3  2  1  0
  3  4  2  0
  4  5  1  0
  5  6  1  0
  6  7  2  0
  6  1  1  0
  8  7  1  0
  8 11  1  0
  9  8  2  0
 10  5  2  0
 10  9  1  0
 11 15  1  0
 12 11  1  0
 12 13  2  0
 13 14  1  0
 15 14  2  0
 16 23  1  0
 16 17  1  0
 17 18  2  0
 17 22  1  0
 18 19  1  0
 19 20  2  0
 21 20  1  0
 22 21  2  0
  2 24  1  0
  3 25  1  0
 12 26  1  0
 13 27  1  0
 15 28  1  0
 16 29  1  6
 18 30  1  0
 19 31  1  0
 21 32  1  0
 23 33  1  0
 23 34  1  0
 23 35  1  0
M  ISO  8  24   9  25  14  26  14  27  14  28  14  29   8  30  14  31  14
M  ISO  4  32  14  33   8  34   8  35   8
M  END
>  <minimizedAffinity>  (1) 
-5.35557222

>  <minimizedRMSD>  (1) 
0.387832165

$$$$
