
     RDKit          3D

 40 43  0  0  1  0  0  0  0  0999 V2000
   49.6350   33.0840   37.1510 N   0  0  0  0  0  0  0  0  0  0  0  0
   48.6020   33.9030   36.8610 C   0  0  0  0  0  0  0  0  0  0  0  0
   47.7890   33.9370   37.9350 N   0  0  0  0  0  0  0  0  0  0  0  0
   48.2960   33.1530   38.8970 C   0  0  0  0  0  0  0  0  0  0  0  0
   47.8750   32.8330   40.1790 C   0  0  0  0  0  0  0  0  0  0  0  0
   48.6850   31.9860   40.8440 N   0  0  0  0  0  0  0  0  0  0  0  0
   49.8030   31.4630   40.3790 C   0  0  0  0  0  0  0  0  0  0  0  0
   50.2200   31.7680   39.1380 N   0  0  0  0  0  0  0  0  0  0  0  0
   49.4720   32.6170   38.3800 C   0  0  0  0  0  0  0  0  0  0  0  0
   50.5750   30.5770   41.1820 N   0  0  0  0  0  0  0  0  0  0  0  0
   51.1370   30.9920   42.4770 C   0  0  0  0  0  0  0  0  0  0  0  0
   52.0610   29.8730   42.8870 C   0  0  0  0  0  0  0  0  0  0  0  0
   51.3410   28.6790   42.3030 C   0  0  0  0  0  0  0  0  0  0  0  0
   50.9490   29.2010   40.9370 C   0  0  0  0  0  0  0  0  0  0  0  0
   46.3670   33.5180   40.8430 S   0  0  0  0  0  0  0  0  0  0  0  0
   46.6410   35.0040   41.7960 C   0  0  1  0  0  0  0  0  0  0  0  0
   46.0640   34.8860   43.1480 C   0  0  0  0  0  0  0  0  0  0  0  0
   45.1380   35.9210   43.4230 C   0  0  0  0  0  0  0  0  0  0  0  0
   44.5250   35.9050   44.6840 C   0  0  0  0  0  0  0  0  0  0  0  0
   44.8450   34.9030   45.5760 N   0  0  0  0  0  0  0  0  0  0  0  0
   45.7320   33.9500   45.2550 C   0  0  0  0  0  0  0  0  0  0  0  0
   46.3280   33.9660   44.0300 N   0  0  0  0  0  0  0  0  0  0  0  0
   48.1620   35.3030   41.9030 C   0  0  0  0  0  0  0  0  0  0  0  0
   50.4190   32.8596   36.5219 H   0  0  0  0  0  0  0  0  0  0  0  0
   48.4508   34.4459   35.9163 H   0  0  0  0  0  0  0  0  0  0  0  0
   51.6957   31.9335   42.3705 H   0  0  0  0  0  0  0  0  0  0  0  0
   50.3518   31.1707   43.2263 H   0  0  0  0  0  0  0  0  0  0  0  0
   53.0628   29.9949   42.4493 H   0  0  0  0  0  0  0  0  0  0  0  0
   52.2438   29.8084   43.9698 H   0  0  0  0  0  0  0  0  0  0  0  0
   52.0072   27.8073   42.2240 H   0  0  0  0  0  0  0  0  0  0  0  0
   50.4931   28.3265   42.9086 H   0  0  0  0  0  0  0  0  0  0  0  0
   50.1004   28.6318   40.5297 H   0  0  0  0  0  0  0  0  0  0  0  0
   51.7598   29.1076   40.1995 H   0  0  0  0  0  0  0  0  0  0  0  0
   46.1404   35.8333   41.2747 H   0  0  0  0  0  0  0  0  0  0  0  0
   44.9100   36.7013   42.6820 H   0  0  0  0  0  0  0  0  0  0  0  0
   43.7972   36.6827   44.9586 H   0  0  0  0  0  0  0  0  0  0  0  0
   45.9775   33.1582   45.9781 H   0  0  0  0  0  0  0  0  0  0  0  0
   48.4508   35.3598   42.9629 H   0  0  0  0  0  0  0  0  0  0  0  0
   48.7292   34.4992   41.4109 H   0  0  0  0  0  0  0  0  0  0  0  0
   48.3827   36.2617   41.4109 H   0  0  0  0  0  0  0  0  0  0  0  0
  1  9  1  0
  2  1  1  0
  2  3  2  0
  3  4  1  0
  4  5  1  0
  5 15  1  0
  5  6  2  0
  7  6  1  0
  7 10  1  0
  8  7  2  0
  9  4  2  0
  9  8  1  0
 10 11  1  0
 11 12  1  0
 13 12  1  0
 14 10  1  0
 14 13  1  0
 15 16  1  0
 16 23  1  0
 16 17  1  0
 17 18  2  0
 17 22  1  0
 18 19  1  0
 19 20  2  0
 21 20  1  0
 22 21  2  0
  1 24  1  0
  2 25  1  0
 11 26  1  0
 11 27  1  0
 12 28  1  0
 12 29  1  0
 13 30  1  0
 13 31  1  0
 14 32  1  0
 14 33  1  0
 16 34  1  6
 18 35  1  0
 19 36  1  0
 21 37  1  0
 23 38  1  0
 23 39  1  0
 23 40  1  0
M  ISO  8  24   9  25  14  26  13  27  13  28  13  29  13  30  13  31  13
M  ISO  8  32  13  33  13  34   8  35  14  36  14  37  14  38   8  39   8
M  ISO  1  40   8
M  END
>  <minimizedAffinity>  (1) 
-5.3818078

>  <minimizedRMSD>  (1) 
0.460732162

$$$$
