
     RDKit          3D

 41 44  0  0  1  0  0  0  0  0999 V2000
   49.5370   33.2110   37.0430 N   0  0  0  0  0  0  0  0  0  0  0  0
   48.3930   33.8880   36.8920 C   0  0  0  0  0  0  0  0  0  0  0  0
   47.6940   33.8020   38.0340 N   0  0  0  0  0  0  0  0  0  0  0  0
   48.3960   33.0640   38.9240 C   0  0  0  0  0  0  0  0  0  0  0  0
   48.1450   32.6690   40.2320 C   0  0  0  0  0  0  0  0  0  0  0  0
   49.1120   31.9280   40.7780 N   0  0  0  0  0  0  0  0  0  0  0  0
   50.2390   31.5590   40.1890 C   0  0  0  0  0  0  0  0  0  0  0  0
   50.4890   31.9350   38.9290 N   0  0  0  0  0  0  0  0  0  0  0  0
   49.5580   32.6990   38.2790 C   0  0  0  0  0  0  0  0  0  0  0  0
   51.1860   30.7640   40.8920 N   0  0  0  0  0  0  0  0  0  0  0  0
   50.8330   29.8140   41.9220 C   0  0  0  0  0  0  0  0  0  0  0  0
   51.8460   30.0070   43.0380 C   0  0  0  0  0  0  0  0  0  0  0  0
   53.1200   29.6610   42.6200 O   0  0  0  0  0  0  0  0  0  0  0  0
   53.2800   29.6730   41.2530 C   0  0  0  0  0  0  0  0  0  0  0  0
   52.6060   30.8820   40.5910 C   0  0  0  0  0  0  0  0  0  0  0  0
   46.6390   33.1460   41.0570 S   0  0  0  0  0  0  0  0  0  0  0  0
   46.7170   34.7800   41.7740 C   0  0  1  0  0  0  0  0  0  0  0  0
   46.0760   34.8150   43.1020 C   0  0  0  0  0  0  0  0  0  0  0  0
   45.2160   35.9190   43.2570 C   0  0  0  0  0  0  0  0  0  0  0  0
   44.5500   36.0570   44.4770 C   0  0  0  0  0  0  0  0  0  0  0  0
   44.7640   35.1150   45.4620 N   0  0  0  0  0  0  0  0  0  0  0  0
   45.5930   34.0870   45.2590 C   0  0  0  0  0  0  0  0  0  0  0  0
   46.2390   33.9570   44.0680 N   0  0  0  0  0  0  0  0  0  0  0  0
   48.1960   35.2390   41.8980 C   0  0  0  0  0  0  0  0  0  0  0  0
   50.2737   33.1027   36.3313 H   0  0  0  0  0  0  0  0  0  0  0  0
   48.0785   34.4246   35.9847 H   0  0  0  0  0  0  0  0  0  0  0  0
   49.8158   30.0116   42.2913 H   0  0  0  0  0  0  0  0  0  0  0  0
   50.8477   28.7827   41.5397 H   0  0  0  0  0  0  0  0  0  0  0  0
   51.8435   31.0628   43.3468 H   0  0  0  0  0  0  0  0  0  0  0  0
   51.5661   29.3572   43.8803 H   0  0  0  0  0  0  0  0  0  0  0  0
   54.3556   29.7003   41.0243 H   0  0  0  0  0  0  0  0  0  0  0  0
   52.8034   28.7656   40.8536 H   0  0  0  0  0  0  0  0  0  0  0  0
   52.7691   30.8626   39.5033 H   0  0  0  0  0  0  0  0  0  0  0  0
   53.0201   31.8297   40.9658 H   0  0  0  0  0  0  0  0  0  0  0  0
   46.1719   35.4653   41.1082 H   0  0  0  0  0  0  0  0  0  0  0  0
   45.0735   36.6477   42.4454 H   0  0  0  0  0  0  0  0  0  0  0  0
   43.8669   36.9018   44.6494 H   0  0  0  0  0  0  0  0  0  0  0  0
   45.7536   33.3451   46.0551 H   0  0  0  0  0  0  0  0  0  0  0  0
   48.4660   35.3228   42.9610 H   0  0  0  0  0  0  0  0  0  0  0  0
   48.8508   34.5018   41.4104 H   0  0  0  0  0  0  0  0  0  0  0  0
   48.3184   36.2174   41.4104 H   0  0  0  0  0  0  0  0  0  0  0  0
  1  9  1  0
  2  1  1  0
  2  3  2  0
  3  4  1  0
  4  5  1  0
  5  6  2  0
  5 16  1  0
  7  6  1  0
  7 10  1  0
  8  7  2  0
  9  4  2  0
  9  8  1  0
 10 11  1  0
 11 12  1  0
 13 12  1  0
 14 13  1  0
 15 10  1  0
 15 14  1  0
 16 17  1  0
 17 24  1  0
 17 18  1  0
 18 19  2  0
 18 23  1  0
 19 20  1  0
 20 21  2  0
 22 21  1  0
 23 22  2  0
  1 25  1  0
  2 26  1  0
 11 27  1  0
 11 28  1  0
 12 29  1  0
 12 30  1  0
 14 31  1  0
 14 32  1  0
 15 33  1  0
 15 34  1  0
 17 35  1  6
 19 36  1  0
 20 37  1  0
 22 38  1  0
 24 39  1  0
 24 40  1  0
 24 41  1  0
M  ISO  8  25   9  26  14  27  13  28  13  29  13  30  13  31  13  32  13
M  ISO  8  33  13  34  13  35   8  36  14  37  14  38  14  39   8  40   8
M  ISO  1  41   8
M  END
>  <minimizedAffinity>  (1) 
-5.44433737

>  <minimizedRMSD>  (1) 
0.649427533

$$$$
