
     RDKit          3D

 34 37  0  0  1  0  0  0  0  0999 V2000
   46.5060   33.2620   40.9540 S   0  0  0  0  0  0  0  0  0  0  0  0
   49.5940   33.1440   37.0860 N   0  0  0  0  0  0  0  0  0  0  0  0
   48.4950   33.9060   36.8800 C   0  0  0  0  0  0  0  0  0  0  0  0
   47.7440   33.8530   37.9980 N   0  0  0  0  0  0  0  0  0  0  0  0
   48.3530   33.0690   38.9060 C   0  0  0  0  0  0  0  0  0  0  0  0
   48.0200   32.6840   40.1960 C   0  0  0  0  0  0  0  0  0  0  0  0
   48.9070   31.8770   40.7850 N   0  0  0  0  0  0  0  0  0  0  0  0
   50.0420   31.4350   40.2390 C   0  0  0  0  0  0  0  0  0  0  0  0
   50.3660   31.8080   38.9860 N   0  0  0  0  0  0  0  0  0  0  0  0
   49.5260   32.6280   38.3110 C   0  0  0  0  0  0  0  0  0  0  0  0
   50.8460   30.5770   41.0490 N   0  0  0  0  0  0  0  0  0  0  0  0
   51.4130   29.3660   40.9000 C   0  0  0  0  0  0  0  0  0  0  0  0
   52.0770   29.0390   42.0230 N   0  0  0  0  0  0  0  0  0  0  0  0
   51.9250   30.0580   42.8820 C   0  0  0  0  0  0  0  0  0  0  0  0
   51.1600   31.0060   42.2700 N   0  0  0  0  0  0  0  0  0  0  0  0
   46.6910   34.8500   41.7510 C   0  0  1  0  0  0  0  0  0  0  0  0
   46.0660   34.8490   43.0890 C   0  0  0  0  0  0  0  0  0  0  0  0
   45.1890   35.9450   43.2720 C   0  0  0  0  0  0  0  0  0  0  0  0
   44.5360   36.0360   44.5180 C   0  0  0  0  0  0  0  0  0  0  0  0
   44.7720   35.0860   45.4730 N   0  0  0  0  0  0  0  0  0  0  0  0
   45.6140   34.0720   45.2420 C   0  0  0  0  0  0  0  0  0  0  0  0
   46.2500   33.9750   44.0360 N   0  0  0  0  0  0  0  0  0  0  0  0
   48.1900   35.2250   41.8830 C   0  0  0  0  0  0  0  0  0  0  0  0
   50.3548   32.9894   36.4091 H   0  0  0  0  0  0  0  0  0  0  0  0
   48.2572   34.4678   35.9646 H   0  0  0  0  0  0  0  0  0  0  0  0
   51.3441   28.7397   39.9984 H   0  0  0  0  0  0  0  0  0  0  0  0
   52.3426   30.1179   43.8979 H   0  0  0  0  0  0  0  0  0  0  0  0
   46.1839   35.5970   41.1226 H   0  0  0  0  0  0  0  0  0  0  0  0
   45.0249   36.6902   42.4797 H   0  0  0  0  0  0  0  0  0  0  0  0
   43.8418   36.8649   44.7206 H   0  0  0  0  0  0  0  0  0  0  0  0
   45.7941   33.3173   46.0218 H   0  0  0  0  0  0  0  0  0  0  0  0
   48.4588   35.2922   42.9475 H   0  0  0  0  0  0  0  0  0  0  0  0
   48.8052   34.4531   41.3975 H   0  0  0  0  0  0  0  0  0  0  0  0
   48.3693   36.1957   41.3975 H   0  0  0  0  0  0  0  0  0  0  0  0
  1 16  1  0
  2 10  1  0
  3  2  1  0
  3  4  2  0
  4  5  1  0
  5  6  1  0
  6  7  2  0
  6  1  1  0
  8  7  1  0
  8 11  1  0
  9  8  2  0
 10  5  2  0
 10  9  1  0
 11 15  1  0
 12 11  1  0
 12 13  2  0
 13 14  1  0
 15 14  2  0
 16 23  1  0
 16 17  1  0
 17 18  2  0
 17 22  1  0
 18 19  1  0
 19 20  2  0
 21 20  1  0
 22 21  2  0
  2 24  1  0
  3 25  1  0
 12 26  1  0
 14 27  1  0
 16 28  1  6
 18 29  1  0
 19 30  1  0
 21 31  1  0
 23 32  1  0
 23 33  1  0
 23 34  1  0
M  ISO  8  24   9  25  14  26  14  27  14  28   8  29  14  30  14  31  14
M  ISO  3  32   8  33   8  34   8
M  END
>  <minimizedAffinity>  (1) 
-5.35216284

>  <minimizedRMSD>  (1) 
0.414974213

$$$$
