
     RDKit          3D

 35 38  0  0  1  0  0  0  0  0999 V2000
   49.6400   33.1000   37.1790 N   0  0  0  0  0  0  0  0  0  0  0  0
   48.6050   33.9200   36.8980 C   0  0  0  0  0  0  0  0  0  0  0  0
   47.7840   33.9500   37.9640 N   0  0  0  0  0  0  0  0  0  0  0  0
   48.2980   33.1490   38.9230 C   0  0  0  0  0  0  0  0  0  0  0  0
   47.8560   32.8260   40.2030 C   0  0  0  0  0  0  0  0  0  0  0  0
   48.6660   31.9710   40.8670 N   0  0  0  0  0  0  0  0  0  0  0  0
   49.7830   31.4590   40.3940 C   0  0  0  0  0  0  0  0  0  0  0  0
   50.2170   31.7690   39.1510 N   0  0  0  0  0  0  0  0  0  0  0  0
   49.4710   32.6210   38.4060 C   0  0  0  0  0  0  0  0  0  0  0  0
   50.4700   30.5770   41.2830 N   0  0  0  0  0  0  0  0  0  0  0  0
   50.5880   29.2540   41.3360 N   0  0  0  0  0  0  0  0  0  0  0  0
   51.3580   28.9080   42.3860 C   0  0  0  0  0  0  0  0  0  0  0  0
   51.7420   30.0840   43.0250 C   0  0  0  0  0  0  0  0  0  0  0  0
   51.1620   31.1280   42.2990 C   0  0  0  0  0  0  0  0  0  0  0  0
   46.3490   33.5190   40.8510 S   0  0  0  0  0  0  0  0  0  0  0  0
   46.6310   35.0080   41.8130 C   0  0  1  0  0  0  0  0  0  0  0  0
   46.0510   34.9020   43.1510 C   0  0  0  0  0  0  0  0  0  0  0  0
   45.1340   35.9320   43.4370 C   0  0  0  0  0  0  0  0  0  0  0  0
   44.5150   35.9210   44.7000 C   0  0  0  0  0  0  0  0  0  0  0  0
   44.8210   34.9300   45.5840 N   0  0  0  0  0  0  0  0  0  0  0  0
   45.7050   33.9690   45.2620 C   0  0  0  0  0  0  0  0  0  0  0  0
   46.3020   33.9830   44.0370 N   0  0  0  0  0  0  0  0  0  0  0  0
   48.1510   35.3090   41.9100 C   0  0  0  0  0  0  0  0  0  0  0  0
   50.4260   32.8831   36.5496 H   0  0  0  0  0  0  0  0  0  0  0  0
   48.4577   34.4704   35.9571 H   0  0  0  0  0  0  0  0  0  0  0  0
   51.6326   27.8852   42.6836 H   0  0  0  0  0  0  0  0  0  0  0  0
   52.3743   30.1734   43.9206 H   0  0  0  0  0  0  0  0  0  0  0  0
   51.2537   32.2022   42.5172 H   0  0  0  0  0  0  0  0  0  0  0  0
   46.1316   35.8396   41.2943 H   0  0  0  0  0  0  0  0  0  0  0  0
   44.9100   36.7167   42.6994 H   0  0  0  0  0  0  0  0  0  0  0  0
   43.7916   36.7040   44.9713 H   0  0  0  0  0  0  0  0  0  0  0  0
   45.9452   33.1750   45.9844 H   0  0  0  0  0  0  0  0  0  0  0  0
   48.4464   35.3675   42.9680 H   0  0  0  0  0  0  0  0  0  0  0  0
   48.7162   34.5053   41.4154 H   0  0  0  0  0  0  0  0  0  0  0  0
   48.3673   36.2674   41.4154 H   0  0  0  0  0  0  0  0  0  0  0  0
  1  9  1  0
  2  1  1  0
  2  3  2  0
  3  4  1  0
  4  5  1  0
  5 15  1  0
  5  6  2  0
  7  6  1  0
  7 10  1  0
  8  7  2  0
  9  4  2  0
  9  8  1  0
 10 11  1  0
 10 14  1  0
 11 12  2  0
 12 13  1  0
 14 13  2  0
 15 16  1  0
 16 23  1  0
 16 17  1  0
 17 18  2  0
 17 22  1  0
 18 19  1  0
 19 20  2  0
 21 20  1  0
 22 21  2  0
  1 24  1  0
  2 25  1  0
 12 26  1  0
 13 27  1  0
 14 28  1  0
 16 29  1  6
 18 30  1  0
 19 31  1  0
 21 32  1  0
 23 33  1  0
 23 34  1  0
 23 35  1  0
M  ISO  8  24   9  25  14  26  14  27  14  28  14  29   8  30  14  31  14
M  ISO  4  32  14  33   8  34   8  35   8
M  END
>  <minimizedAffinity>  (1) 
-5.41226721

>  <minimizedRMSD>  (1) 
0.440239102

$$$$
