
     RDKit          3D

 34 37  0  0  1  0  0  0  0  0999 V2000
   49.6190   33.1140   37.1570 N   0  0  0  0  0  0  0  0  0  0  0  0
   48.5820   33.9170   36.8880 C   0  0  0  0  0  0  0  0  0  0  0  0
   47.7790   33.9400   37.9630 N   0  0  0  0  0  0  0  0  0  0  0  0
   48.3000   33.1500   38.9220 C   0  0  0  0  0  0  0  0  0  0  0  0
   47.8810   32.8250   40.2040 C   0  0  0  0  0  0  0  0  0  0  0  0
   48.7000   31.9830   40.8610 N   0  0  0  0  0  0  0  0  0  0  0  0
   49.8200   31.4750   40.3830 C   0  0  0  0  0  0  0  0  0  0  0  0
   50.2310   31.7930   39.1310 N   0  0  0  0  0  0  0  0  0  0  0  0
   49.4650   32.6380   38.3910 C   0  0  0  0  0  0  0  0  0  0  0  0
   50.6410   30.5540   41.2050 C   0  0  0  0  0  0  0  0  0  0  0  0
   51.0930   29.3400   40.7960 C   0  0  0  0  0  0  0  0  0  0  0  0
   52.0270   28.7440   42.2780 S   0  0  0  0  0  0  0  0  0  0  0  0
   51.5970   30.3450   43.2100 C   0  0  0  0  0  0  0  0  0  0  0  0
   50.8840   31.0630   42.3990 N   0  0  0  0  0  0  0  0  0  0  0  0
   46.3640   33.5060   40.8680 S   0  0  0  0  0  0  0  0  0  0  0  0
   46.6370   34.9940   41.8190 C   0  0  1  0  0  0  0  0  0  0  0  0
   46.0590   34.8780   43.1720 C   0  0  0  0  0  0  0  0  0  0  0  0
   45.1340   35.9170   43.4450 C   0  0  0  0  0  0  0  0  0  0  0  0
   44.5170   35.9100   44.7040 C   0  0  0  0  0  0  0  0  0  0  0  0
   44.8360   34.9100   45.5980 N   0  0  0  0  0  0  0  0  0  0  0  0
   45.7170   33.9570   45.2840 C   0  0  0  0  0  0  0  0  0  0  0  0
   46.3230   33.9590   44.0520 N   0  0  0  0  0  0  0  0  0  0  0  0
   48.1560   35.3020   41.9270 C   0  0  0  0  0  0  0  0  0  0  0  0
   50.4001   32.9014   36.5201 H   0  0  0  0  0  0  0  0  0  0  0  0
   48.4167   34.4637   35.9479 H   0  0  0  0  0  0  0  0  0  0  0  0
   50.9420   28.8383   39.8288 H   0  0  0  0  0  0  0  0  0  0  0  0
   51.8946   30.6099   44.2353 H   0  0  0  0  0  0  0  0  0  0  0  0
   46.1353   35.8197   41.2932 H   0  0  0  0  0  0  0  0  0  0  0  0
   44.9099   36.6955   42.7008 H   0  0  0  0  0  0  0  0  0  0  0  0
   43.7899   36.6900   44.9742 H   0  0  0  0  0  0  0  0  0  0  0  0
   45.9575   33.1694   46.0132 H   0  0  0  0  0  0  0  0  0  0  0  0
   48.4438   35.3604   42.9871 H   0  0  0  0  0  0  0  0  0  0  0  0
   48.7283   34.5016   41.4352 H   0  0  0  0  0  0  0  0  0  0  0  0
   48.3713   36.2621   41.4352 H   0  0  0  0  0  0  0  0  0  0  0  0
  1  9  1  0
  2  1  1  0
  2  3  2  0
  3  4  1  0
  4  5  1  0
  5  6  2  0
  5 15  1  0
  7  6  1  0
  7 10  1  0
  8  7  2  0
  9  4  2  0
  9  8  1  0
 10 14  1  0
 11 10  2  0
 11 12  1  0
 12 13  1  0
 14 13  2  0
 15 16  1  0
 16 23  1  0
 16 17  1  0
 17 18  2  0
 17 22  1  0
 18 19  1  0
 19 20  2  0
 21 20  1  0
 22 21  2  0
  1 24  1  0
  2 25  1  0
 11 26  1  0
 13 27  1  0
 16 28  1  6
 18 29  1  0
 19 30  1  0
 21 31  1  0
 23 32  1  0
 23 33  1  0
 23 34  1  0
M  ISO  8  24   9  25  14  26  14  27  14  28   8  29  14  30  14  31  14
M  ISO  3  32   8  33   8  34   8
M  END
>  <minimizedAffinity>  (1) 
-5.11904287

>  <minimizedRMSD>  (1) 
0.532916427

$$$$
