
     RDKit          3D

 37 40  0  0  1  0  0  0  0  0999 V2000
   49.5910   33.1100   37.1250 N   0  0  0  0  0  0  0  0  0  0  0  0
   48.5320   33.8830   36.8600 C   0  0  0  0  0  0  0  0  0  0  0  0
   47.7450   33.9040   37.9470 N   0  0  0  0  0  0  0  0  0  0  0  0
   48.2930   33.1500   38.9050 C   0  0  0  0  0  0  0  0  0  0  0  0
   47.9160   32.8240   40.2040 C   0  0  0  0  0  0  0  0  0  0  0  0
   48.7670   32.0190   40.8440 N   0  0  0  0  0  0  0  0  0  0  0  0
   49.8930   31.5260   40.3650 C   0  0  0  0  0  0  0  0  0  0  0  0
   50.2730   31.8270   39.1200 N   0  0  0  0  0  0  0  0  0  0  0  0
   49.4810   32.6410   38.3740 C   0  0  0  0  0  0  0  0  0  0  0  0
   50.7180   30.6550   41.1950 C   0  0  0  0  0  0  0  0  0  0  0  0
   50.9610   30.9690   42.5180 C   0  0  0  0  0  0  0  0  0  0  0  0
   51.7200   30.2360   43.4060 C   0  0  0  0  0  0  0  0  0  0  0  0
   52.2650   29.0850   42.8700 C   0  0  0  0  0  0  0  0  0  0  0  0
   52.0340   28.7450   41.5340 C   0  0  0  0  0  0  0  0  0  0  0  0
   51.2690   29.5250   40.7160 N   0  0  0  0  0  0  0  0  0  0  0  0
   46.3940   33.4780   40.8850 S   0  0  0  0  0  0  0  0  0  0  0  0
   46.6450   34.9790   41.8190 C   0  0  1  0  0  0  0  0  0  0  0  0
   46.0670   34.8680   43.1720 C   0  0  0  0  0  0  0  0  0  0  0  0
   45.1410   35.9080   43.4400 C   0  0  0  0  0  0  0  0  0  0  0  0
   44.5180   35.9150   44.6960 C   0  0  0  0  0  0  0  0  0  0  0  0
   44.8330   34.9190   45.5960 N   0  0  0  0  0  0  0  0  0  0  0  0
   45.7170   33.9590   45.2860 C   0  0  0  0  0  0  0  0  0  0  0  0
   46.3250   33.9540   44.0600 N   0  0  0  0  0  0  0  0  0  0  0  0
   48.1610   35.3060   41.9300 C   0  0  0  0  0  0  0  0  0  0  0  0
   50.3641   32.9087   36.4749 H   0  0  0  0  0  0  0  0  0  0  0  0
   48.3393   34.4106   35.9142 H   0  0  0  0  0  0  0  0  0  0  0  0
   50.5046   31.8939   42.9006 H   0  0  0  0  0  0  0  0  0  0  0  0
   51.8779   30.5413   44.4509 H   0  0  0  0  0  0  0  0  0  0  0  0
   52.8858   28.4308   43.4998 H   0  0  0  0  0  0  0  0  0  0  0  0
   52.4808   27.8241   41.1311 H   0  0  0  0  0  0  0  0  0  0  0  0
   46.1346   35.7924   41.2825 H   0  0  0  0  0  0  0  0  0  0  0  0
   44.9195   36.6812   42.6896 H   0  0  0  0  0  0  0  0  0  0  0  0
   43.7926   36.6992   44.9581 H   0  0  0  0  0  0  0  0  0  0  0  0
   45.9538   33.1738   46.0191 H   0  0  0  0  0  0  0  0  0  0  0  0
   48.4461   35.3675   42.9906 H   0  0  0  0  0  0  0  0  0  0  0  0
   48.7441   34.5130   41.4390 H   0  0  0  0  0  0  0  0  0  0  0  0
   48.3653   36.2689   41.4390 H   0  0  0  0  0  0  0  0  0  0  0  0
  1  9  1  0
  2  1  1  0
  2  3  2  0
  3  4  1  0
  4  5  1  0
  5  6  2  0
  5 16  1  0
  7  6  1  0
  7 10  1  0
  8  7  2  0
  9  4  2  0
  9  8  1  0
 10 11  2  0
 11 12  1  0
 13 12  2  0
 14 13  1  0
 15 10  1  0
 15 14  2  0
 16 17  1  0
 17 24  1  0
 17 18  1  0
 18 19  2  0
 18 23  1  0
 19 20  1  0
 20 21  2  0
 22 21  1  0
 23 22  2  0
  1 25  1  0
  2 26  1  0
 11 27  1  0
 12 28  1  0
 13 29  1  0
 14 30  1  0
 17 31  1  6
 19 32  1  0
 20 33  1  0
 22 34  1  0
 24 35  1  0
 24 36  1  0
 24 37  1  0
M  ISO  8  25   9  26  14  27  14  28  14  29  14  30  14  31   8  32  14
M  ISO  5  33  14  34  14  35   8  36   8  37   8
M  END
>  <minimizedAffinity>  (1) 
-5.24286175

>  <minimizedRMSD>  (1) 
0.535317481

$$$$
