
     RDKit          3D

 36 39  0  0  1  0  0  0  0  0999 V2000
   49.7400   32.9510   37.1250 N   0  0  0  0  0  0  0  0  0  0  0  0
   48.5850   33.5890   36.8580 C   0  0  0  0  0  0  0  0  0  0  0  0
   47.8410   33.5900   37.9750 N   0  0  0  0  0  0  0  0  0  0  0  0
   48.5110   32.9560   38.9560 C   0  0  0  0  0  0  0  0  0  0  0  0
   48.2070   32.6780   40.2840 C   0  0  0  0  0  0  0  0  0  0  0  0
   49.1620   32.0120   40.9360 N   0  0  0  0  0  0  0  0  0  0  0  0
   50.3270   31.6160   40.4300 C   0  0  0  0  0  0  0  0  0  0  0  0
   50.6210   31.8820   39.1540 N   0  0  0  0  0  0  0  0  0  0  0  0
   49.7120   32.5580   38.3990 C   0  0  0  0  0  0  0  0  0  0  0  0
   51.2470   30.8950   41.3050 C   0  0  0  0  0  0  0  0  0  0  0  0
   51.0290   30.6980   42.6480 C   0  0  0  0  0  0  0  0  0  0  0  0
   51.9760   29.9920   43.3980 C   0  0  0  0  0  0  0  0  0  0  0  0
   53.1070   29.4950   42.8410 N   0  0  0  0  0  0  0  0  0  0  0  0
   53.2900   29.7080   41.5140 C   0  0  0  0  0  0  0  0  0  0  0  0
   52.3780   30.3870   40.7950 N   0  0  0  0  0  0  0  0  0  0  0  0
   46.6470   33.1990   40.9940 S   0  0  0  0  0  0  0  0  0  0  0  0
   46.7370   34.8190   41.7390 C   0  0  1  0  0  0  0  0  0  0  0  0
   46.0950   34.8410   43.0550 C   0  0  0  0  0  0  0  0  0  0  0  0
   45.2260   35.9400   43.2280 C   0  0  0  0  0  0  0  0  0  0  0  0
   44.5620   36.0460   44.4600 C   0  0  0  0  0  0  0  0  0  0  0  0
   44.7760   35.1000   45.4290 N   0  0  0  0  0  0  0  0  0  0  0  0
   45.6210   34.0660   45.2130 C   0  0  0  0  0  0  0  0  0  0  0  0
   46.2570   33.9760   44.0150 N   0  0  0  0  0  0  0  0  0  0  0  0
   48.2120   35.2890   41.8620 C   0  0  0  0  0  0  0  0  0  0  0  0
   50.5113   32.7937   36.4607 H   0  0  0  0  0  0  0  0  0  0  0  0
   48.3005   34.0324   35.8923 H   0  0  0  0  0  0  0  0  0  0  0  0
   50.1204   31.0910   43.1275 H   0  0  0  0  0  0  0  0  0  0  0  0
   51.7971   29.8357   44.4720 H   0  0  0  0  0  0  0  0  0  0  0  0
   54.1938   29.3214   41.0204 H   0  0  0  0  0  0  0  0  0  0  0  0
   46.1947   35.5127   41.0796 H   0  0  0  0  0  0  0  0  0  0  0  0
   45.0755   36.6824   42.4304 H   0  0  0  0  0  0  0  0  0  0  0  0
   43.8737   36.8834   44.6471 H   0  0  0  0  0  0  0  0  0  0  0  0
   45.7907   33.3103   45.9941 H   0  0  0  0  0  0  0  0  0  0  0  0
   48.4820   35.3750   42.9249 H   0  0  0  0  0  0  0  0  0  0  0  0
   48.8721   34.5567   41.3741 H   0  0  0  0  0  0  0  0  0  0  0  0
   48.3267   36.2682   41.3741 H   0  0  0  0  0  0  0  0  0  0  0  0
  1  9  1  0
  2  1  1  0
  2  3  2  0
  3  4  1  0
  4  5  1  0
  5  6  2  0
  5 16  1  0
  7  6  1  0
  7 10  1  0
  8  7  2  0
  9  4  2  0
  9  8  1  0
 10 11  2  0
 11 12  1  0
 13 12  2  0
 14 13  1  0
 15 10  1  0
 15 14  2  0
 16 17  1  0
 17 24  1  0
 17 18  1  0
 18 19  2  0
 18 23  1  0
 19 20  1  0
 20 21  2  0
 22 21  1  0
 23 22  2  0
  1 25  1  0
  2 26  1  0
 11 27  1  0
 12 28  1  0
 14 29  1  0
 17 30  1  6
 19 31  1  0
 20 32  1  0
 22 33  1  0
 24 34  1  0
 24 35  1  0
 24 36  1  0
M  ISO  8  25   9  26  14  27  14  28  14  29  14  30   8  31  14  32  14
M  ISO  4  33  14  34   8  35   8  36   8
M  END
>  <minimizedAffinity>  (1) 
-5.21544123

>  <minimizedRMSD>  (1) 
0.862328649

$$$$
