
     RDKit          3D

 35 38  0  0  1  0  0  0  0  0999 V2000
   49.6170   33.0870   37.1190 N   0  0  0  0  0  0  0  0  0  0  0  0
   48.5520   33.8660   36.8590 C   0  0  0  0  0  0  0  0  0  0  0  0
   47.7600   33.8770   37.9520 N   0  0  0  0  0  0  0  0  0  0  0  0
   48.3220   33.1060   38.9000 C   0  0  0  0  0  0  0  0  0  0  0  0
   47.9490   32.7680   40.1920 C   0  0  0  0  0  0  0  0  0  0  0  0
   48.8080   31.9510   40.8300 N   0  0  0  0  0  0  0  0  0  0  0  0
   49.9390   31.4660   40.3330 C   0  0  0  0  0  0  0  0  0  0  0  0
   50.3050   31.7930   39.0760 N   0  0  0  0  0  0  0  0  0  0  0  0
   49.4990   32.6150   38.3540 C   0  0  0  0  0  0  0  0  0  0  0  0
   50.7240   30.5920   41.2020 C   0  0  0  0  0  0  0  0  0  0  0  0
   51.1580   30.9850   42.4580 C   0  0  0  0  0  0  0  0  0  0  0  0
   51.8490   29.8790   42.9260 C   0  0  0  0  0  0  0  0  0  0  0  0
   51.8070   28.8880   41.9640 C   0  0  0  0  0  0  0  0  0  0  0  0
   51.1150   29.3690   40.9420 O   0  0  0  0  0  0  0  0  0  0  0  0
   46.4340   33.4010   40.8960 S   0  0  0  0  0  0  0  0  0  0  0  0
   46.6680   34.9450   41.7650 C   0  0  1  0  0  0  0  0  0  0  0  0
   46.0530   34.8970   43.1080 C   0  0  0  0  0  0  0  0  0  0  0  0
   45.1620   35.9770   43.3250 C   0  0  0  0  0  0  0  0  0  0  0  0
   44.5180   36.0310   44.5690 C   0  0  0  0  0  0  0  0  0  0  0  0
   44.7680   35.0640   45.4970 N   0  0  0  0  0  0  0  0  0  0  0  0
   45.6240   34.0590   45.2400 C   0  0  0  0  0  0  0  0  0  0  0  0
   46.2570   33.9980   44.0290 N   0  0  0  0  0  0  0  0  0  0  0  0
   48.1780   35.2730   41.9010 C   0  0  0  0  0  0  0  0  0  0  0  0
   50.3923   32.8901   36.4702 H   0  0  0  0  0  0  0  0  0  0  0  0
   48.3595   34.4019   35.9178 H   0  0  0  0  0  0  0  0  0  0  0  0
   50.9929   31.9477   42.9640 H   0  0  0  0  0  0  0  0  0  0  0  0
   52.3489   29.8024   43.9029 H   0  0  0  0  0  0  0  0  0  0  0  0
   52.2620   27.8889   42.0336 H   0  0  0  0  0  0  0  0  0  0  0  0
   46.1767   35.7343   41.1771 H   0  0  0  0  0  0  0  0  0  0  0  0
   44.9836   36.7390   42.5520 H   0  0  0  0  0  0  0  0  0  0  0  0
   43.8162   36.8474   44.7947 H   0  0  0  0  0  0  0  0  0  0  0  0
   45.8145   33.2883   46.0014 H   0  0  0  0  0  0  0  0  0  0  0  0
   48.4461   35.3312   42.9662 H   0  0  0  0  0  0  0  0  0  0  0  0
   48.7700   34.4825   41.4166 H   0  0  0  0  0  0  0  0  0  0  0  0
   48.3887   36.2379   41.4166 H   0  0  0  0  0  0  0  0  0  0  0  0
  1  9  1  0
  2  1  1  0
  2  3  2  0
  3  4  1  0
  4  5  1  0
  5  6  2  0
  5 15  1  0
  7  6  1  0
  7 10  1  0
  8  7  2  0
  9  4  2  0
  9  8  1  0
 10 11  2  0
 11 12  1  0
 13 12  2  0
 14 10  1  0
 14 13  1  0
 15 16  1  0
 16 23  1  0
 16 17  1  0
 17 18  2  0
 17 22  1  0
 18 19  1  0
 19 20  2  0
 21 20  1  0
 22 21  2  0
  1 24  1  0
  2 25  1  0
 11 26  1  0
 12 27  1  0
 13 28  1  0
 16 29  1  6
 18 30  1  0
 19 31  1  0
 21 32  1  0
 23 33  1  0
 23 34  1  0
 23 35  1  0
M  ISO  8  24   9  25  14  26  14  27  14  28  14  29   8  30  14  31  14
M  ISO  4  32  14  33   8  34   8  35   8
M  END
>  <minimizedAffinity>  (1) 
-5.16474867

>  <minimizedRMSD>  (1) 
0.447428972

$$$$
