
     RDKit          3D

 30 32  0  0  1  0  0  0  0  0999 V2000
   46.7320   34.7960   41.8610 C   0  0  1  0  0  0  0  0  0  0  0  0
   46.0770   34.8200   43.1780 C   0  0  0  0  0  0  0  0  0  0  0  0
   45.2070   35.9140   43.3320 C   0  0  0  0  0  0  0  0  0  0  0  0
   44.5230   36.0460   44.5420 C   0  0  0  0  0  0  0  0  0  0  0  0
   44.7280   35.1160   45.5130 N   0  0  0  0  0  0  0  0  0  0  0  0
   45.5670   34.0860   45.3280 C   0  0  0  0  0  0  0  0  0  0  0  0
   46.2310   33.9640   44.1420 N   0  0  0  0  0  0  0  0  0  0  0  0
   48.2550   35.0570   42.0280 C   0  0  0  0  0  0  0  0  0  0  0  0
   46.4610   33.2410   41.0250 S   0  0  0  0  0  0  0  0  0  0  0  0
   49.5730   33.3430   37.1810 N   0  0  0  0  0  0  0  0  0  0  0  0
   48.5580   34.2140   37.0840 C   0  0  0  0  0  0  0  0  0  0  0  0
   47.7940   34.0880   38.1760 N   0  0  0  0  0  0  0  0  0  0  0  0
   48.3200   33.1340   38.9790 C   0  0  0  0  0  0  0  0  0  0  0  0
   47.9320   32.6190   40.2100 C   0  0  0  0  0  0  0  0  0  0  0  0
   48.7430   31.6560   40.6850 N   0  0  0  0  0  0  0  0  0  0  0  0
   49.8260   31.1980   40.0840 C   0  0  0  0  0  0  0  0  0  0  0  0
   50.1980   31.7030   38.8880 N   0  0  0  0  0  0  0  0  0  0  0  0
   49.4440   32.6800   38.3240 C   0  0  0  0  0  0  0  0  0  0  0  0
   50.5640   30.1720   40.7420 N   0  0  0  0  0  0  0  0  0  0  0  0
   46.2888   35.5902   41.2423 H   0  0  0  0  0  0  0  0  0  0  0  0
   45.0692   36.6453   42.5219 H   0  0  0  0  0  0  0  0  0  0  0  0
   43.8318   36.8857   44.7067 H   0  0  0  0  0  0  0  0  0  0  0  0
   45.7188   33.3449   46.1266 H   0  0  0  0  0  0  0  0  0  0  0  0
   48.5045   35.0998   43.0985 H   0  0  0  0  0  0  0  0  0  0  0  0
   48.8209   34.2427   41.5519 H   0  0  0  0  0  0  0  0  0  0  0  0
   48.5175   36.0132   41.5519 H   0  0  0  0  0  0  0  0  0  0  0  0
   50.3235   33.2111   36.4880 H   0  0  0  0  0  0  0  0  0  0  0  0
   48.3834   34.9113   36.2513 H   0  0  0  0  0  0  0  0  0  0  0  0
   51.4145   29.7886   40.3055 H   0  0  0  0  0  0  0  0  0  0  0  0
   50.2470   29.8137   41.6542 H   0  0  0  0  0  0  0  0  0  0  0  0
  1  8  1  0
  1  2  1  0
  2  3  2  0
  2  7  1  0
  3  4  1  0
  4  5  2  0
  6  5  1  0
  7  6  2  0
  9  1  1  0
 10 18  1  0
 11 10  1  0
 11 12  2  0
 12 13  1  0
 13 14  2  0
 14 15  1  0
 14  9  1  0
 16 15  2  0
 16 19  1  0
 17 16  1  0
 18 17  2  0
 18 13  1  0
  1 20  1  6
  3 21  1  0
  4 22  1  0
  6 23  1  0
  8 24  1  0
  8 25  1  0
  8 26  1  0
 10 27  1  0
 11 28  1  0
 19 29  1  0
 19 30  1  0
M  ISO  8  20   8  21  14  22  14  23  14  24   8  25   8  26   8  27   9
M  ISO  1  28  14
M  END
>  <minimizedAffinity>  (1) 
-4.99673939

>  <minimizedRMSD>  (1) 
0.0131412027

$$$$
