
     RDKit          3D

 33 36  0  0  1  0  0  0  0  0999 V2000
   49.6190   33.1040   37.1000 N   0  0  0  0  0  0  0  0  0  0  0  0
   48.5490   33.8800   36.8560 C   0  0  0  0  0  0  0  0  0  0  0  0
   47.7660   33.8760   37.9570 N   0  0  0  0  0  0  0  0  0  0  0  0
   48.3290   33.1070   38.8920 C   0  0  0  0  0  0  0  0  0  0  0  0
   47.9590   32.7560   40.1910 C   0  0  0  0  0  0  0  0  0  0  0  0
   48.8220   31.9360   40.8190 N   0  0  0  0  0  0  0  0  0  0  0  0
   49.9510   31.4620   40.3050 C   0  0  0  0  0  0  0  0  0  0  0  0
   50.3130   31.7950   39.0550 N   0  0  0  0  0  0  0  0  0  0  0  0
   49.5020   32.6200   38.3450 C   0  0  0  0  0  0  0  0  0  0  0  0
   50.7240   30.5890   41.1810 C   0  0  0  0  0  0  0  0  0  0  0  0
   51.1710   30.8820   42.4160 N   0  0  0  0  0  0  0  0  0  0  0  0
   51.8230   29.8820   42.9190 O   0  0  0  0  0  0  0  0  0  0  0  0
   51.8480   28.8810   42.0580 C   0  0  0  0  0  0  0  0  0  0  0  0
   51.1630   29.3360   40.9890 N   0  0  0  0  0  0  0  0  0  0  0  0
   46.4410   33.3880   40.8950 S   0  0  0  0  0  0  0  0  0  0  0  0
   46.6700   34.9280   41.7690 C   0  0  1  0  0  0  0  0  0  0  0  0
   46.0720   34.8680   43.1100 C   0  0  0  0  0  0  0  0  0  0  0  0
   45.1710   35.9350   43.3480 C   0  0  0  0  0  0  0  0  0  0  0  0
   44.5370   35.9860   44.5870 C   0  0  0  0  0  0  0  0  0  0  0  0
   44.8080   35.0100   45.5170 N   0  0  0  0  0  0  0  0  0  0  0  0
   45.6680   34.0210   45.2430 C   0  0  0  0  0  0  0  0  0  0  0  0
   46.2890   33.9710   44.0280 N   0  0  0  0  0  0  0  0  0  0  0  0
   48.1820   35.2710   41.8840 C   0  0  0  0  0  0  0  0  0  0  0  0
   50.3921   32.9146   36.4463 H   0  0  0  0  0  0  0  0  0  0  0  0
   48.3460   34.4241   35.9218 H   0  0  0  0  0  0  0  0  0  0  0  0
   52.3216   27.8963   42.1844 H   0  0  0  0  0  0  0  0  0  0  0  0
   46.1641   35.7177   41.1941 H   0  0  0  0  0  0  0  0  0  0  0  0
   44.9785   36.6981   42.5795 H   0  0  0  0  0  0  0  0  0  0  0  0
   43.8293   36.7957   44.8184 H   0  0  0  0  0  0  0  0  0  0  0  0
   45.8745   33.2478   45.9977 H   0  0  0  0  0  0  0  0  0  0  0  0
   48.4638   35.3349   42.9454 H   0  0  0  0  0  0  0  0  0  0  0  0
   48.7747   34.4845   41.3940 H   0  0  0  0  0  0  0  0  0  0  0  0
   48.3773   36.2363   41.3940 H   0  0  0  0  0  0  0  0  0  0  0  0
  1  9  1  0
  2  1  1  0
  2  3  2  0
  3  4  1  0
  4  5  1  0
  5  6  2  0
  5 15  1  0
  7  6  1  0
  7 10  1  0
  8  7  2  0
  9  4  2  0
  9  8  1  0
 10 11  2  0
 11 12  1  0
 13 12  1  0
 14 10  1  0
 14 13  2  0
 15 16  1  0
 16 23  1  0
 16 17  1  0
 17 18  2  0
 17 22  1  0
 18 19  1  0
 19 20  2  0
 21 20  1  0
 22 21  2  0
  1 24  1  0
  2 25  1  0
 13 26  1  0
 16 27  1  6
 18 28  1  0
 19 29  1  0
 21 30  1  0
 23 31  1  0
 23 32  1  0
 23 33  1  0
M  ISO  8  24   9  25  14  26  14  27   8  28  14  29  14  30  14  31   8
M  ISO  2  32   8  33   8
M  END
>  <minimizedAffinity>  (1) 
-5.07526827

>  <minimizedRMSD>  (1) 
0.436487615

$$$$
