
     RDKit          3D

 29 31  0  0  1  0  0  0  0  0999 V2000
   46.7280   34.8020   41.8630 C   0  0  1  0  0  0  0  0  0  0  0  0
   46.0750   34.8240   43.1800 C   0  0  0  0  0  0  0  0  0  0  0  0
   45.2040   35.9180   43.3370 C   0  0  0  0  0  0  0  0  0  0  0  0
   44.5210   36.0490   44.5440 C   0  0  0  0  0  0  0  0  0  0  0  0
   44.7300   35.1080   45.5220 N   0  0  0  0  0  0  0  0  0  0  0  0
   45.5740   34.0760   45.3270 C   0  0  0  0  0  0  0  0  0  0  0  0
   46.2340   33.9620   44.1420 N   0  0  0  0  0  0  0  0  0  0  0  0
   48.2520   35.0600   42.0270 C   0  0  0  0  0  0  0  0  0  0  0  0
   46.4520   33.2530   41.0200 S   0  0  0  0  0  0  0  0  0  0  0  0
   49.5740   33.3360   37.1880 N   0  0  0  0  0  0  0  0  0  0  0  0
   48.5660   34.2130   37.0850 C   0  0  0  0  0  0  0  0  0  0  0  0
   47.7970   34.0920   38.1780 N   0  0  0  0  0  0  0  0  0  0  0  0
   48.3000   33.1470   38.9810 C   0  0  0  0  0  0  0  0  0  0  0  0
   47.9180   32.6310   40.2000 C   0  0  0  0  0  0  0  0  0  0  0  0
   48.7250   31.6630   40.6800 N   0  0  0  0  0  0  0  0  0  0  0  0
   49.8090   31.1930   40.0880 C   0  0  0  0  0  0  0  0  0  0  0  0
   50.1890   31.6890   38.9020 N   0  0  0  0  0  0  0  0  0  0  0  0
   49.4330   32.6770   38.3340 C   0  0  0  0  0  0  0  0  0  0  0  0
   50.8060   29.8980   40.8260 S   0  0  0  0  0  0  0  0  0  0  0  0
   46.2848   35.5996   41.2486 H   0  0  0  0  0  0  0  0  0  0  0  0
   45.0661   36.6504   42.5280 H   0  0  0  0  0  0  0  0  0  0  0  0
   43.8293   36.8880   44.7101 H   0  0  0  0  0  0  0  0  0  0  0  0
   45.7287   33.3301   46.1206 H   0  0  0  0  0  0  0  0  0  0  0  0
   48.5036   35.1026   43.0970 H   0  0  0  0  0  0  0  0  0  0  0  0
   48.8154   34.2444   41.5500 H   0  0  0  0  0  0  0  0  0  0  0  0
   48.5155   36.0155   41.5500 H   0  0  0  0  0  0  0  0  0  0  0  0
   50.3270   33.1967   36.4992 H   0  0  0  0  0  0  0  0  0  0  0  0
   48.3983   34.9100   36.2507 H   0  0  0  0  0  0  0  0  0  0  0  0
   50.7356   29.9894   42.1911 H   0  0  0  0  0  0  0  0  0  0  0  0
  1  8  1  0
  1  2  1  0
  2  3  2  0
  2  7  1  0
  3  4  1  0
  4  5  2  0
  6  5  1  0
  7  6  2  0
  9  1  1  0
 10 18  1  0
 11 10  1  0
 11 12  2  0
 12 13  1  0
 13 14  2  0
 14 15  1  0
 14  9  1  0
 16 15  2  0
 16 19  1  0
 17 16  1  0
 18 17  2  0
 18 13  1  0
  1 20  1  6
  3 21  1  0
  4 22  1  0
  6 23  1  0
  8 24  1  0
  8 25  1  0
  8 26  1  0
 10 27  1  0
 11 28  1  0
 19 29  1  0
M  ISO  8  20   8  21  14  22  14  23  14  24   8  25   8  26   8  27   9
M  ISO  2  28  14  29  11
M  END
>  <minimizedAffinity>  (1) 
-4.99148846

>  <minimizedRMSD>  (1) 
0.00689051999

$$$$
