
     RDKit          3D

 50 53  0  0  1  0  0  0  0  0999 V2000
   49.5940   33.2450   37.2420 N   0  0  0  0  0  0  0  0  0  0  0  0
   48.6380   34.1640   37.0900 C   0  0  0  0  0  0  0  0  0  0  0  0
   47.8250   34.0950   38.1630 N   0  0  0  0  0  0  0  0  0  0  0  0
   48.2580   33.1390   38.9980 C   0  0  0  0  0  0  0  0  0  0  0  0
   47.8160   32.6560   40.2120 C   0  0  0  0  0  0  0  0  0  0  0  0
   48.5450   31.6690   40.7340 N   0  0  0  0  0  0  0  0  0  0  0  0
   49.6270   31.1340   40.1890 C   0  0  0  0  0  0  0  0  0  0  0  0
   50.0640   31.6000   39.0040 N   0  0  0  0  0  0  0  0  0  0  0  0
   49.3900   32.6040   38.3930 C   0  0  0  0  0  0  0  0  0  0  0  0
   50.3580   30.0230   40.8830 C   0  0  0  0  0  0  0  0  0  0  0  0
   51.5750   30.5840   41.6300 C   0  0  0  0  0  0  0  0  0  0  0  0
   51.4370   30.4920   43.1200 C   0  0  0  0  0  0  0  0  0  0  0  0
   50.1490   29.7850   43.4410 C   0  0  0  0  0  0  0  0  0  0  0  0
   50.3990   28.5500   44.3100 C   0  0  0  0  0  0  0  0  0  0  0  0
   51.1660   29.0310   45.5220 C   0  0  0  0  0  0  0  0  0  0  0  0
   52.5460   29.4070   45.0900 C   0  0  0  0  0  0  0  0  0  0  0  0
   52.6450   29.7520   43.6230 C   0  0  0  0  0  0  0  0  0  0  0  0
   46.3560   33.3570   40.9760 S   0  0  0  0  0  0  0  0  0  0  0  0
   46.6880   34.8600   41.8670 C   0  0  1  0  0  0  0  0  0  0  0  0
   46.0420   34.8570   43.2020 C   0  0  0  0  0  0  0  0  0  0  0  0
   45.1670   35.9570   43.3710 C   0  0  0  0  0  0  0  0  0  0  0  0
   44.5070   36.0340   44.6150 C   0  0  0  0  0  0  0  0  0  0  0  0
   44.7350   35.0740   45.5680 N   0  0  0  0  0  0  0  0  0  0  0  0
   45.5810   34.0600   45.3330 C   0  0  0  0  0  0  0  0  0  0  0  0
   46.2270   33.9770   44.1270 N   0  0  0  0  0  0  0  0  0  0  0  0
   48.2250   35.0670   42.0370 C   0  0  0  0  0  0  0  0  0  0  0  0
   50.3616   33.0616   36.5802 H   0  0  0  0  0  0  0  0  0  0  0  0
   48.5324   34.8547   36.2404 H   0  0  0  0  0  0  0  0  0  0  0  0
   49.6826   29.5350   41.6011 H   0  0  0  0  0  0  0  0  0  0  0  0
   50.6981   29.2913   40.1354 H   0  0  0  0  0  0  0  0  0  0  0  0
   52.4667   30.0171   41.3242 H   0  0  0  0  0  0  0  0  0  0  0  0
   51.6594   31.6497   41.3710 H   0  0  0  0  0  0  0  0  0  0  0  0
   51.3941   31.4772   43.6075 H   0  0  0  0  0  0  0  0  0  0  0  0
   49.4851   30.4759   43.9813 H   0  0  0  0  0  0  0  0  0  0  0  0
   49.6848   29.4601   42.4981 H   0  0  0  0  0  0  0  0  0  0  0  0
   49.4431   28.1012   44.6178 H   0  0  0  0  0  0  0  0  0  0  0  0
   50.9621   27.7817   43.7599 H   0  0  0  0  0  0  0  0  0  0  0  0
   50.6617   29.9065   45.9570 H   0  0  0  0  0  0  0  0  0  0  0  0
   51.2116   28.2351   46.2799 H   0  0  0  0  0  0  0  0  0  0  0  0
   52.8683   30.2806   45.6756 H   0  0  0  0  0  0  0  0  0  0  0  0
   53.1884   28.5305   45.2603 H   0  0  0  0  0  0  0  0  0  0  0  0
   52.7517   28.8201   43.0484 H   0  0  0  0  0  0  0  0  0  0  0  0
   53.5166   30.4105   43.4939 H   0  0  0  0  0  0  0  0  0  0  0  0
   46.2673   35.6882   41.2779 H   0  0  0  0  0  0  0  0  0  0  0  0
   45.0114   36.7058   42.5804 H   0  0  0  0  0  0  0  0  0  0  0  0
   43.8116   36.8612   44.8204 H   0  0  0  0  0  0  0  0  0  0  0  0
   45.7559   33.2972   46.1060 H   0  0  0  0  0  0  0  0  0  0  0  0
   48.4742   35.1006   43.1079 H   0  0  0  0  0  0  0  0  0  0  0  0
   48.7621   34.2331   41.5615 H   0  0  0  0  0  0  0  0  0  0  0  0
   48.5223   36.0133   41.5615 H   0  0  0  0  0  0  0  0  0  0  0  0
  1  9  1  0
  2  1  1  0
  2  3  2  0
  3  4  1  0
  4  5  1  0
  5  6  2  0
  5 18  1  0
  7  6  1  0
  7 10  1  0
  8  7  2  0
  9  4  2  0
  9  8  1  0
 10 11  1  0
 11 12  1  0
 12 13  1  0
 12 17  1  0
 13 14  1  0
 14 15  1  0
 16 15  1  0
 17 16  1  0
 18 19  1  0
 19 26  1  0
 19 20  1  0
 20 21  2  0
 20 25  1  0
 21 22  1  0
 22 23  2  0
 24 23  1  0
 25 24  2  0
  1 27  1  0
  2 28  1  0
 10 29  1  0
 10 30  1  0
 11 31  1  0
 11 32  1  0
 12 33  1  0
 13 34  1  0
 13 35  1  0
 14 36  1  0
 14 37  1  0
 15 38  1  0
 15 39  1  0
 16 40  1  0
 16 41  1  0
 17 42  1  0
 17 43  1  0
 19 44  1  6
 21 45  1  0
 22 46  1  0
 24 47  1  0
 26 48  1  0
 26 49  1  0
 26 50  1  0
M  ISO  8  27   9  28  14  29   8  30   8  31   8  32   8  33  13  34  13
M  ISO  8  35  13  36  13  37  13  38  13  39  13  40  13  41  13  42  13
M  ISO  8  43  13  44   8  45  14  46  14  47  14  48   8  49   8  50   8
M  END
>  <minimizedAffinity>  (1) 
-5.07450819

>  <minimizedRMSD>  (1) 
1.24549103

$$$$
