
     RDKit          3D

 49 52  0  0  1  0  0  0  0  0999 V2000
   49.6050   33.2660   37.2190 N   0  0  0  0  0  0  0  0  0  0  0  0
   48.5850   34.1190   37.0600 C   0  0  0  0  0  0  0  0  0  0  0  0
   47.8030   34.0400   38.1590 N   0  0  0  0  0  0  0  0  0  0  0  0
   48.3210   33.1420   39.0160 C   0  0  0  0  0  0  0  0  0  0  0  0
   47.9350   32.6760   40.2660 C   0  0  0  0  0  0  0  0  0  0  0  0
   48.7480   31.7520   40.7970 N   0  0  0  0  0  0  0  0  0  0  0  0
   49.8520   31.2720   40.2320 C   0  0  0  0  0  0  0  0  0  0  0  0
   50.2230   31.7270   39.0160 N   0  0  0  0  0  0  0  0  0  0  0  0
   49.4730   32.6600   38.3920 C   0  0  0  0  0  0  0  0  0  0  0  0
   50.6490   30.2370   40.9610 C   0  0  0  0  0  0  0  0  0  0  0  0
   50.9160   30.6750   42.3890 C   0  0  0  0  0  0  0  0  0  0  0  0
   52.0970   30.1580   42.9660 N   0  0  0  0  0  0  0  0  0  0  0  0
   52.0380   29.7380   44.3120 C   0  0  0  0  0  0  0  0  0  0  0  0
   53.4010   29.8840   45.0090 C   0  0  0  0  0  0  0  0  0  0  0  0
   54.4720   29.4670   44.0260 C   0  0  0  0  0  0  0  0  0  0  0  0
   53.8680   28.5480   42.9870 C   0  0  0  0  0  0  0  0  0  0  0  0
   52.9050   29.3390   42.1280 C   0  0  0  0  0  0  0  0  0  0  0  0
   46.4550   33.3090   41.0320 S   0  0  0  0  0  0  0  0  0  0  0  0
   46.7170   34.8320   41.9140 C   0  0  1  0  0  0  0  0  0  0  0  0
   46.0840   34.8010   43.2490 C   0  0  0  0  0  0  0  0  0  0  0  0
   45.1780   35.8570   43.4520 C   0  0  0  0  0  0  0  0  0  0  0  0
   44.5190   35.9270   44.6800 C   0  0  0  0  0  0  0  0  0  0  0  0
   44.7790   34.9720   45.6230 N   0  0  0  0  0  0  0  0  0  0  0  0
   45.6540   33.9830   45.3800 C   0  0  0  0  0  0  0  0  0  0  0  0
   46.2950   33.9240   44.1720 N   0  0  0  0  0  0  0  0  0  0  0  0
   48.2420   35.1120   42.0680 C   0  0  0  0  0  0  0  0  0  0  0  0
   50.3657   33.1068   36.5430 H   0  0  0  0  0  0  0  0  0  0  0  0
   48.4141   34.7688   36.1891 H   0  0  0  0  0  0  0  0  0  0  0  0
   50.0882   29.2908   40.9722 H   0  0  0  0  0  0  0  0  0  0  0  0
   51.6116   30.1034   40.4457 H   0  0  0  0  0  0  0  0  0  0  0  0
   50.9837   31.7728   42.4011 H   0  0  0  0  0  0  0  0  0  0  0  0
   50.0841   30.2793   42.9901 H   0  0  0  0  0  0  0  0  0  0  0  0
   51.2965   30.3509   44.8454 H   0  0  0  0  0  0  0  0  0  0  0  0
   51.7538   28.6755   44.3295 H   0  0  0  0  0  0  0  0  0  0  0  0
   53.5568   30.9305   45.3100 H   0  0  0  0  0  0  0  0  0  0  0  0
   53.4406   29.2536   45.9096 H   0  0  0  0  0  0  0  0  0  0  0  0
   54.8845   30.3591   43.5320 H   0  0  0  0  0  0  0  0  0  0  0  0
   55.2768   28.9404   44.5599 H   0  0  0  0  0  0  0  0  0  0  0  0
   54.6662   28.1296   42.3563 H   0  0  0  0  0  0  0  0  0  0  0  0
   53.3324   27.7262   43.4848 H   0  0  0  0  0  0  0  0  0  0  0  0
   52.2645   28.6477   41.5607 H   0  0  0  0  0  0  0  0  0  0  0  0
   53.4685   29.9705   41.4254 H   0  0  0  0  0  0  0  0  0  0  0  0
   46.2509   35.6381   41.3284 H   0  0  0  0  0  0  0  0  0  0  0  0
   44.9943   36.6051   42.6667 H   0  0  0  0  0  0  0  0  0  0  0  0
   43.8030   36.7363   44.8856 H   0  0  0  0  0  0  0  0  0  0  0  0
   45.8551   33.2227   46.1491 H   0  0  0  0  0  0  0  0  0  0  0  0
   48.5001   35.1594   43.1363 H   0  0  0  0  0  0  0  0  0  0  0  0
   48.8135   34.3038   41.5882 H   0  0  0  0  0  0  0  0  0  0  0  0
   48.4891   36.0705   41.5882 H   0  0  0  0  0  0  0  0  0  0  0  0
  1  9  1  0
  2  1  1  0
  2  3  2  0
  3  4  1  0
  4  5  1  0
  5  6  2  0
  5 18  1  0
  7  6  1  0
  7 10  1  0
  8  7  2  0
  9  4  2  0
  9  8  1  0
 10 11  1  0
 11 12  1  0
 12 13  1  0
 13 14  1  0
 15 14  1  0
 16 15  1  0
 17 12  1  0
 17 16  1  0
 18 19  1  0
 19 26  1  0
 19 20  1  0
 20 21  2  0
 20 25  1  0
 21 22  1  0
 22 23  2  0
 24 23  1  0
 25 24  2  0
  1 27  1  0
  2 28  1  0
 10 29  1  0
 10 30  1  0
 11 31  1  0
 11 32  1  0
 13 33  1  0
 13 34  1  0
 14 35  1  0
 14 36  1  0
 15 37  1  0
 15 38  1  0
 16 39  1  0
 16 40  1  0
 17 41  1  0
 17 42  1  0
 19 43  1  6
 21 44  1  0
 22 45  1  0
 24 46  1  0
 26 47  1  0
 26 48  1  0
 26 49  1  0
M  ISO  8  27   9  28  14  29   8  30   8  31   8  32   8  33  13  34  13
M  ISO  8  35  13  36  13  37  13  38  13  39  13  40  13  41  13  42  13
M  ISO  7  43   8  44  14  45  14  46  14  47   8  48   8  49   8
M  END
>  <minimizedAffinity>  (1) 
-5.01921415

>  <minimizedRMSD>  (1) 
0.494060397

$$$$
