
     RDKit          3D

 39 42  0  0  1  0  0  0  0  0999 V2000
   48.8170   34.4800   38.2720 N   0  0  0  0  0  0  0  0  0  0  0  0
   48.1670   34.0780   37.1830 C   0  0  0  0  0  0  0  0  0  0  0  0
   46.9630   33.6030   37.5680 N   0  0  0  0  0  0  0  0  0  0  0  0
   46.8510   33.7060   38.9080 C   0  0  0  0  0  0  0  0  0  0  0  0
   45.8590   33.3800   39.8080 C   0  0  0  0  0  0  0  0  0  0  0  0
   46.1420   33.6470   41.0880 N   0  0  0  0  0  0  0  0  0  0  0  0
   47.2790   34.1870   41.5430 C   0  0  0  0  0  0  0  0  0  0  0  0
   48.2360   34.4990   40.6620 N   0  0  0  0  0  0  0  0  0  0  0  0
   48.0430   34.2650   39.3300 C   0  0  0  0  0  0  0  0  0  0  0  0
   47.4590   34.4280   42.9920 C   0  0  0  0  0  0  0  0  0  0  0  0
   46.1060   34.5840   43.6930 C   0  0  0  0  0  0  0  0  0  0  0  0
   46.0840   33.7960   44.9540 C   0  0  0  0  0  0  0  0  0  0  0  0
   45.3140   33.9390   46.0480 N   0  0  0  0  0  0  0  0  0  0  0  0
   45.5970   33.0470   46.9490 O   0  0  0  0  0  0  0  0  0  0  0  0
   46.5650   32.3020   46.4520 C   0  0  0  0  0  0  0  0  0  0  0  0
   46.8840   32.7470   45.2160 N   0  0  0  0  0  0  0  0  0  0  0  0
   44.3250   32.6570   39.2380 S   0  0  0  0  0  0  0  0  0  0  0  0
   42.9000   33.6620   39.5930 C   0  0  1  0  0  0  0  0  0  0  0  0
   41.9830   32.9800   40.5340 C   0  0  0  0  0  0  0  0  0  0  0  0
   40.7960   33.7300   40.7610 C   0  0  0  0  0  0  0  0  0  0  0  0
   39.8560   33.1820   41.6320 C   0  0  0  0  0  0  0  0  0  0  0  0
   40.1210   31.9630   42.2200 N   0  0  0  0  0  0  0  0  0  0  0  0
   41.2580   31.3050   41.9670 C   0  0  0  0  0  0  0  0  0  0  0  0
   42.1820   31.8440   41.1090 N   0  0  0  0  0  0  0  0  0  0  0  0
   43.3360   35.0330   40.1980 C   0  0  0  0  0  0  0  0  0  0  0  0
   49.7620   34.8893   38.2915 H   0  0  0  0  0  0  0  0  0  0  0  0
   48.5440   34.1244   36.1507 H   0  0  0  0  0  0  0  0  0  0  0  0
   47.9977   33.5770   43.4343 H   0  0  0  0  0  0  0  0  0  0  0  0
   48.0326   35.3572   43.1249 H   0  0  0  0  0  0  0  0  0  0  0  0
   45.9382   35.6459   43.9258 H   0  0  0  0  0  0  0  0  0  0  0  0
   45.3129   34.2144   43.0263 H   0  0  0  0  0  0  0  0  0  0  0  0
   47.0389   31.4512   46.9634 H   0  0  0  0  0  0  0  0  0  0  0  0
   42.3695   33.8313   38.6444 H   0  0  0  0  0  0  0  0  0  0  0  0
   40.6273   34.7001   40.2706 H   0  0  0  0  0  0  0  0  0  0  0  0
   38.9173   33.7136   41.8471 H   0  0  0  0  0  0  0  0  0  0  0  0
   41.4512   30.3339   42.4461 H   0  0  0  0  0  0  0  0  0  0  0  0
   43.3166   34.9720   41.2961 H   0  0  0  0  0  0  0  0  0  0  0  0
   44.3553   35.2745   39.8621 H   0  0  0  0  0  0  0  0  0  0  0  0
   42.6434   35.8189   39.8621 H   0  0  0  0  0  0  0  0  0  0  0  0
  1  9  1  0
  2  3  2  0
  2  1  1  0
  3  4  1  0
  4  9  2  0
  4  5  1  0
  5  6  2  0
  6  7  1  0
  7 10  1  0
  8  7  2  0
  9  8  1  0
 10 11  1  0
 11 12  1  0
 12 16  1  0
 12 13  2  0
 13 14  1  0
 15 14  1  0
 16 15  2  0
 17 18  1  0
 17  5  1  0
 18 25  1  0
 18 19  1  0
 19 20  2  0
 19 24  1  0
 20 21  1  0
 21 22  2  0
 23 22  1  0
 24 23  2  0
  1 26  1  0
  2 27  1  0
 10 28  1  0
 10 29  1  0
 11 30  1  0
 11 31  1  0
 15 32  1  0
 18 33  1  6
 20 34  1  0
 21 35  1  0
 23 36  1  0
 25 37  1  0
 25 38  1  0
 25 39  1  0
M  ISO  8  26   9  27  14  28   8  29   8  30   8  31   8  32  14  33   8
M  ISO  6  34  14  35  14  36  14  37   8  38   8  39   8
M  END
>  <minimizedAffinity>  (1) 
-5.31902361

>  <minimizedRMSD>  (1) 
5.26287079

$$$$
