
     RDKit          3D

 42 46  0  0  1  0  0  0  0  0999 V2000
   48.1040   33.4210   38.9710 C   0  0  2  0  0  0  0  0  0  0  0  0
   48.2520   34.3380   37.7410 C   0  0  0  0  0  0  0  0  0  0  0  0
   47.9690   32.8570   37.5810 C   0  0  1  0  0  0  0  0  0  0  0  0
   45.6300   34.1160   41.5260 N   0  0  0  0  0  0  0  0  0  0  0  0
   44.8120   33.8180   40.4790 C   0  0  0  0  0  0  0  0  0  0  0  0
   45.5430   33.5190   39.4000 N   0  0  0  0  0  0  0  0  0  0  0  0
   46.8610   33.6360   39.7860 C   0  0  0  0  0  0  0  0  0  0  0  0
   46.8300   33.9910   41.0530 N   0  0  0  0  0  0  0  0  0  0  0  0
   44.8730   35.8310   43.0430 C   0  0  0  0  0  0  0  0  0  0  0  0
   45.3410   34.4920   42.8620 C   0  0  0  0  0  0  0  0  0  0  0  0
   45.4680   33.7100   43.9630 C   0  0  0  0  0  0  0  0  0  0  0  0
   45.1410   34.2480   45.1670 N   0  0  0  0  0  0  0  0  0  0  0  0
   44.7020   35.5130   45.3150 C   0  0  0  0  0  0  0  0  0  0  0  0
   44.5710   36.3020   44.2300 N   0  0  0  0  0  0  0  0  0  0  0  0
   48.9910   31.9240   37.1410 C   0  0  0  0  0  0  0  0  0  0  0  0
   48.6120   30.7470   36.8350 O   0  0  0  0  0  0  0  0  0  0  0  0
   50.3120   32.2730   37.0450 O   0  0  0  0  0  0  0  0  0  0  0  0
   53.1200   31.4970   38.9650 N   0  0  0  0  0  0  0  0  0  0  0  0
   52.5280   31.9560   37.8530 N   0  0  0  0  0  0  0  0  0  0  0  0
   51.1860   31.8690   38.0310 C   0  0  0  0  0  0  0  0  0  0  0  0
   50.9160   31.3510   39.2680 C   0  0  0  0  0  0  0  0  0  0  0  0
   52.1710   31.1240   39.8380 C   0  0  0  0  0  0  0  0  0  0  0  0
   52.3990   30.5700   41.1670 C   0  0  0  0  0  0  0  0  0  0  0  0
   51.4860   30.7820   42.1780 C   0  0  0  0  0  0  0  0  0  0  0  0
   51.7130   30.2510   43.4320 C   0  0  0  0  0  0  0  0  0  0  0  0
   52.8760   29.5270   43.5860 C   0  0  0  0  0  0  0  0  0  0  0  0
   53.8000   29.3150   42.5580 C   0  0  0  0  0  0  0  0  0  0  0  0
   53.5410   29.8480   41.3490 N   0  0  0  0  0  0  0  0  0  0  0  0
   48.7138   33.1510   39.8458 H   0  0  0  0  0  0  0  0  0  0  0  0
   47.4728   35.0781   37.5064 H   0  0  0  0  0  0  0  0  0  0  0  0
   49.0191   35.0337   37.3701 H   0  0  0  0  0  0  0  0  0  0  0  0
   47.2046   32.3042   37.0152 H   0  0  0  0  0  0  0  0  0  0  0  0
   43.7126   33.8226   40.5154 H   0  0  0  0  0  0  0  0  0  0  0  0
   44.7633   36.4834   42.1642 H   0  0  0  0  0  0  0  0  0  0  0  0
   45.8247   32.6725   43.8836 H   0  0  0  0  0  0  0  0  0  0  0  0
   44.4522   35.8993   46.3142 H   0  0  0  0  0  0  0  0  0  0  0  0
   54.1362   31.4400   39.1234 H   0  0  0  0  0  0  0  0  0  0  0  0
   49.9298   31.1564   39.7146 H   0  0  0  0  0  0  0  0  0  0  0  0
   50.5784   31.3731   41.9859 H   0  0  0  0  0  0  0  0  0  0  0  0
   51.0057   30.3974   44.2616 H   0  0  0  0  0  0  0  0  0  0  0  0
   53.0892   29.0914   44.5733 H   0  0  0  0  0  0  0  0  0  0  0  0
   54.7141   28.7284   42.7324 H   0  0  0  0  0  0  0  0  0  0  0  0
  1  7  1  0
  2  1  1  0
  3  2  1  0
  3  1  1  0
  4 10  1  0
  5  4  1  0
  6  7  1  0
  6  5  2  0
  7  8  2  0
  8  4  1  0
  9 14  2  0
 10  9  1  0
 10 11  2  0
 11 12  1  0
 12 13  2  0
 14 13  1  0
 15  3  1  0
 16 15  2  0
 17 15  1  0
 17 20  1  0
 18 22  1  0
 19 20  2  0
 19 18  1  0
 20 21  1  0
 21 22  2  0
 22 23  1  0
 23 28  1  0
 23 24  2  0
 24 25  1  0
 25 26  2  0
 27 26  1  0
 28 27  2  0
  1 29  1  1
  2 30  1  0
  2 31  1  0
  3 32  1  1
  5 33  1  0
  9 34  1  0
 11 35  1  0
 13 36  1  0
 18 37  1  0
 21 38  1  0
 24 39  1  0
 25 40  1  0
 26 41  1  0
 27 42  1  0
M  ISO  8  29  13  30  13  31  13  32  13  33  14  34  14  35  14  36  14
M  ISO  6  37   9  38  14  39  14  40  14  41  14  42  14
M  END
>  <minimizedAffinity>  (1) 
-5.02727938

>  <minimizedRMSD>  (1) 
0.694441438

$$$$
