
     RDKit          3D

 35 37  0  0  1  0  0  0  0  0999 V2000
   49.6040   33.2660   37.2020 N   0  0  0  0  0  0  0  0  0  0  0  0
   48.5890   34.1160   37.0370 C   0  0  0  0  0  0  0  0  0  0  0  0
   47.8110   34.0360   38.1320 N   0  0  0  0  0  0  0  0  0  0  0  0
   48.3280   33.1370   38.9980 C   0  0  0  0  0  0  0  0  0  0  0  0
   47.9470   32.6730   40.2460 C   0  0  0  0  0  0  0  0  0  0  0  0
   48.7580   31.7610   40.7710 N   0  0  0  0  0  0  0  0  0  0  0  0
   49.8600   31.2720   40.2260 C   0  0  0  0  0  0  0  0  0  0  0  0
   50.2280   31.7270   39.0080 N   0  0  0  0  0  0  0  0  0  0  0  0
   49.4780   32.6590   38.3740 C   0  0  0  0  0  0  0  0  0  0  0  0
   50.6730   30.2530   40.9260 C   0  0  0  0  0  0  0  0  0  0  0  0
   51.0810   30.7690   42.3190 C   0  0  0  0  0  0  0  0  0  0  0  0
   50.0000   30.5150   43.1930 O   0  0  0  0  0  0  0  0  0  0  0  0
   46.4640   33.3130   41.0100 S   0  0  0  0  0  0  0  0  0  0  0  0
   46.7110   34.8540   41.8650 C   0  0  1  0  0  0  0  0  0  0  0  0
   46.0640   34.8470   43.1940 C   0  0  0  0  0  0  0  0  0  0  0  0
   45.1840   35.9420   43.3650 C   0  0  0  0  0  0  0  0  0  0  0  0
   44.5150   36.0360   44.5870 C   0  0  0  0  0  0  0  0  0  0  0  0
   44.7380   35.0840   45.5440 N   0  0  0  0  0  0  0  0  0  0  0  0
   45.5900   34.0620   45.3250 C   0  0  0  0  0  0  0  0  0  0  0  0
   46.2440   33.9730   44.1230 N   0  0  0  0  0  0  0  0  0  0  0  0
   48.2380   35.1370   42.0260 C   0  0  0  0  0  0  0  0  0  0  0  0
   50.3648   33.1066   36.5262 H   0  0  0  0  0  0  0  0  0  0  0  0
   48.4191   34.7642   36.1647 H   0  0  0  0  0  0  0  0  0  0  0  0
   50.0838   29.3308   41.0375 H   0  0  0  0  0  0  0  0  0  0  0  0
   51.5795   30.0482   40.3375 H   0  0  0  0  0  0  0  0  0  0  0  0
   51.9800   30.2400   42.6682 H   0  0  0  0  0  0  0  0  0  0  0  0
   51.3105   31.8442   42.2848 H   0  0  0  0  0  0  0  0  0  0  0  0
   50.3095   30.5877   44.1305 H   0  0  0  0  0  0  0  0  0  0  0  0
   46.2477   35.6495   41.2629 H   0  0  0  0  0  0  0  0  0  0  0  0
   45.0335   36.6868   42.5697 H   0  0  0  0  0  0  0  0  0  0  0  0
   43.8175   36.8649   44.7778 H   0  0  0  0  0  0  0  0  0  0  0  0
   45.7592   33.3051   46.1050 H   0  0  0  0  0  0  0  0  0  0  0  0
   48.4914   35.1840   43.0954 H   0  0  0  0  0  0  0  0  0  0  0  0
   48.8129   34.3301   41.5480 H   0  0  0  0  0  0  0  0  0  0  0  0
   48.4855   36.0963   41.5480 H   0  0  0  0  0  0  0  0  0  0  0  0
  1  9  1  0
  2  1  1  0
  2  3  2  0
  3  4  1  0
  4  5  1  0
  5  6  2  0
  5 13  1  0
  7  6  1  0
  7 10  1  0
  8  7  2  0
  9  4  2  0
  9  8  1  0
 10 11  1  0
 11 12  1  0
 13 14  1  0
 14 21  1  0
 14 15  1  0
 15 16  2  0
 15 20  1  0
 16 17  1  0
 17 18  2  0
 19 18  1  0
 20 19  2  0
  1 22  1  0
  2 23  1  0
 10 24  1  0
 10 25  1  0
 11 26  1  0
 11 27  1  0
 12 28  1  0
 14 29  1  6
 16 30  1  0
 17 31  1  0
 19 32  1  0
 21 33  1  0
 21 34  1  0
 21 35  1  0
M  ISO  8  22   9  23  14  24   8  25   8  26   8  27   8  28   3  29   8
M  ISO  6  30  14  31  14  32  14  33   8  34   8  35   8
M  END
>  <minimizedAffinity>  (1) 
-4.76618767

>  <minimizedRMSD>  (1) 
0.137591168

$$$$
