
     RDKit          3D

 33 36  0  0  0  0  0  0  0  0999 V2000
   46.6100   34.6790   42.0190 C   0  0  0  0  0  0  0  0  0  0  0  0
   47.8740   35.2040   41.8960 C   0  0  0  0  0  0  0  0  0  0  0  0
   48.6110   35.0950   40.7170 C   0  0  0  0  0  0  0  0  0  0  0  0
   48.0440   34.4290   39.6260 C   0  0  0  0  0  0  0  0  0  0  0  0
   46.7730   33.8990   39.7460 C   0  0  0  0  0  0  0  0  0  0  0  0
   46.0700   34.0310   40.9410 C   0  0  0  0  0  0  0  0  0  0  0  0
   44.4740   35.9680   44.8350 C   0  0  0  0  0  0  0  0  0  0  0  0
   45.0720   35.9150   43.5700 C   0  0  0  0  0  0  0  0  0  0  0  0
   45.9290   34.8490   43.2910 C   0  0  0  0  0  0  0  0  0  0  0  0
   46.1470   33.9130   44.2460 N   0  0  0  0  0  0  0  0  0  0  0  0
   45.5410   34.0040   45.4700 C   0  0  0  0  0  0  0  0  0  0  0  0
   44.7180   35.0180   45.7540 N   0  0  0  0  0  0  0  0  0  0  0  0
   46.2760   33.2480   38.6070 N   0  0  0  0  0  0  0  0  0  0  0  0
   45.0410   32.7030   38.4180 C   0  0  0  0  0  0  0  0  0  0  0  0
   44.9720   32.1740   37.1820 N   0  0  0  0  0  0  0  0  0  0  0  0
   46.1810   32.3920   36.5950 C   0  0  0  0  0  0  0  0  0  0  0  0
   46.6350   32.0470   35.3290 C   0  0  0  0  0  0  0  0  0  0  0  0
   47.8870   32.3760   34.9710 N   0  0  0  0  0  0  0  0  0  0  0  0
   48.6560   33.0330   35.8710 C   0  0  0  0  0  0  0  0  0  0  0  0
   48.2620   33.3870   37.1050 N   0  0  0  0  0  0  0  0  0  0  0  0
   46.9930   33.0640   37.4890 C   0  0  0  0  0  0  0  0  0  0  0  0
   45.8070   31.3620   34.4150 N   0  0  0  0  0  0  0  0  0  0  0  0
   48.3189   35.7272   42.7553 H   0  0  0  0  0  0  0  0  0  0  0  0
   49.6208   35.5255   40.6466 H   0  0  0  0  0  0  0  0  0  0  0  0
   48.6026   34.3281   38.6838 H   0  0  0  0  0  0  0  0  0  0  0  0
   45.0588   33.6053   41.0202 H   0  0  0  0  0  0  0  0  0  0  0  0
   43.7954   36.7983   45.0800 H   0  0  0  0  0  0  0  0  0  0  0  0
   44.8721   36.6917   42.8171 H   0  0  0  0  0  0  0  0  0  0  0  0
   45.7339   33.2324   46.2299 H   0  0  0  0  0  0  0  0  0  0  0  0
   44.2282   32.6965   39.1592 H   0  0  0  0  0  0  0  0  0  0  0  0
   49.6803   33.2966   35.5688 H   0  0  0  0  0  0  0  0  0  0  0  0
   46.1643   31.1159   33.4809 H   0  0  0  0  0  0  0  0  0  0  0  0
   44.8451   31.1080   34.6818 H   0  0  0  0  0  0  0  0  0  0  0  0
  1  9  1  0
  2  1  2  0
  3  2  1  0
  4  5  1  0
  4  3  2  0
  5  6  2  0
  6  1  1  0
  7 12  2  0
  8  7  1  0
  9  8  2  0
  9 10  1  0
 10 11  2  0
 11 12  1  0
 13  5  1  0
 14 13  1  0
 15 14  2  0
 16 15  1  0
 16 21  2  0
 17 16  1  0
 18 17  2  0
 18 19  1  0
 19 20  2  0
 20 21  1  0
 21 13  1  0
 22 17  1  0
  2 23  1  0
  3 24  1  0
  4 25  1  0
  6 26  1  0
  7 27  1  0
  8 28  1  0
 11 29  1  0
 14 30  1  0
 19 31  1  0
 22 32  1  0
 22 33  1  0
M  ISO  8  23  14  24  14  25  14  26  14  27  14  28  14  29  14  30  14
M  ISO  1  31  14
M  END
>  <minimizedAffinity>  (1) 
-6.40063953

>  <minimizedRMSD>  (1) 
0.284523249

$$$$
