
     RDKit          3D

 34 37  0  0  0  0  0  0  0  0999 V2000
   46.7100   34.7590   42.0910 C   0  0  0  0  0  0  0  0  0  0  0  0
   47.9970   35.2770   42.0390 C   0  0  0  0  0  0  0  0  0  0  0  0
   48.7590   35.1810   40.8610 C   0  0  0  0  0  0  0  0  0  0  0  0
   48.2250   34.5640   39.7340 C   0  0  0  0  0  0  0  0  0  0  0  0
   46.9440   34.0490   39.7850 C   0  0  0  0  0  0  0  0  0  0  0  0
   46.2020   34.1500   40.9570 C   0  0  0  0  0  0  0  0  0  0  0  0
   46.2370   33.3900   38.7420 N   0  0  0  0  0  0  0  0  0  0  0  0
   44.9750   32.9270   38.9130 C   0  0  0  0  0  0  0  0  0  0  0  0
   44.5290   32.3440   37.7760 N   0  0  0  0  0  0  0  0  0  0  0  0
   45.5090   32.4310   36.8690 C   0  0  0  0  0  0  0  0  0  0  0  0
   45.5910   32.0010   35.5480 C   0  0  0  0  0  0  0  0  0  0  0  0
   44.6150   31.4170   35.0350 O   0  0  0  0  0  0  0  0  0  0  0  0
   46.7370   32.2500   34.9060 N   0  0  0  0  0  0  0  0  0  0  0  0
   47.7500   32.8890   35.5310 C   0  0  0  0  0  0  0  0  0  0  0  0
   48.9030   33.0890   34.7410 N   0  0  0  0  0  0  0  0  0  0  0  0
   47.7010   33.3220   36.8200 N   0  0  0  0  0  0  0  0  0  0  0  0
   46.5650   33.0830   37.4810 C   0  0  0  0  0  0  0  0  0  0  0  0
   44.4540   35.9600   44.8420 C   0  0  0  0  0  0  0  0  0  0  0  0
   45.0990   35.9280   43.6020 C   0  0  0  0  0  0  0  0  0  0  0  0
   45.9840   34.8940   43.3420 C   0  0  0  0  0  0  0  0  0  0  0  0
   46.2050   33.9370   44.2880 N   0  0  0  0  0  0  0  0  0  0  0  0
   45.5530   34.0000   45.4940 C   0  0  0  0  0  0  0  0  0  0  0  0
   44.6950   34.9900   45.7660 N   0  0  0  0  0  0  0  0  0  0  0  0
   48.4242   35.7666   42.9266 H   0  0  0  0  0  0  0  0  0  0  0  0
   49.7781   35.5940   40.8305 H   0  0  0  0  0  0  0  0  0  0  0  0
   48.8176   34.4869   38.8105 H   0  0  0  0  0  0  0  0  0  0  0  0
   45.1838   33.7345   40.9832 H   0  0  0  0  0  0  0  0  0  0  0  0
   44.3953   33.0128   39.8439 H   0  0  0  0  0  0  0  0  0  0  0  0
   46.8485   31.9521   33.9264 H   0  0  0  0  0  0  0  0  0  0  0  0
   49.7232   33.5684   35.1390 H   0  0  0  0  0  0  0  0  0  0  0  0
   48.9239   32.7555   33.7667 H   0  0  0  0  0  0  0  0  0  0  0  0
   43.7489   36.7724   45.0718 H   0  0  0  0  0  0  0  0  0  0  0  0
   44.9080   36.7068   42.8491 H   0  0  0  0  0  0  0  0  0  0  0  0
   45.7390   33.2231   46.2502 H   0  0  0  0  0  0  0  0  0  0  0  0
  1 20  1  0
  2  1  2  0
  3  2  1  0
  4  5  1  0
  4  3  2  0
  5  6  2  0
  6  1  1  0
  7  8  1  0
  7  5  1  0
  9  8  2  0
 10 17  2  0
 10  9  1  0
 11 10  1  0
 12 11  2  0
 13 14  1  0
 13 11  1  0
 14 16  2  0
 15 14  1  0
 16 17  1  0
 17  7  1  0
 18 23  2  0
 19 18  1  0
 20 19  2  0
 20 21  1  0
 21 22  2  0
 22 23  1  0
  2 24  1  0
  3 25  1  0
  4 26  1  0
  6 27  1  0
  8 28  1  0
 13 29  1  0
 15 30  1  0
 15 31  1  0
 18 32  1  0
 19 33  1  0
 22 34  1  0
M  ISO  8  24  14  25  14  26  14  27  14  28  14  29   9  32  14  33  14
M  ISO  1  34  14
M  END
>  <minimizedAffinity>  (1) 
-6.70628738

>  <minimizedRMSD>  (1) 
0.387391657

$$$$
