
     RDKit          3D

 29 31  0  0  0  0  0  0  0  0999 V2000
   46.7280   34.7560   41.9890 C   0  0  0  0  0  0  0  0  0  0  0  0
   47.9560   35.3650   41.8830 C   0  0  0  0  0  0  0  0  0  0  0  0
   48.7220   35.2650   40.7140 C   0  0  0  0  0  0  0  0  0  0  0  0
   48.2190   34.5250   39.6240 C   0  0  0  0  0  0  0  0  0  0  0  0
   46.9840   33.9130   39.7310 C   0  0  0  0  0  0  0  0  0  0  0  0
   46.2790   34.0470   40.9070 C   0  0  0  0  0  0  0  0  0  0  0  0
   44.4810   35.9590   44.7420 C   0  0  0  0  0  0  0  0  0  0  0  0
   45.1210   35.9310   43.5010 C   0  0  0  0  0  0  0  0  0  0  0  0
   45.9990   34.9030   43.2340 C   0  0  0  0  0  0  0  0  0  0  0  0
   46.2150   33.9460   44.1900 N   0  0  0  0  0  0  0  0  0  0  0  0
   45.5790   33.9950   45.3930 C   0  0  0  0  0  0  0  0  0  0  0  0
   44.7190   34.9950   45.6650 N   0  0  0  0  0  0  0  0  0  0  0  0
   46.3720   33.1250   38.6660 C   0  0  0  0  0  0  0  0  0  0  0  0
   46.6500   33.2930   37.3320 C   0  0  0  0  0  0  0  0  0  0  0  0
   46.0930   32.5700   36.3040 C   0  0  0  0  0  0  0  0  0  0  0  0
   45.1770   31.5890   36.6120 C   0  0  0  0  0  0  0  0  0  0  0  0
   44.8980   31.4200   37.9500 C   0  0  0  0  0  0  0  0  0  0  0  0
   45.4710   32.1540   38.9170 N   0  0  0  0  0  0  0  0  0  0  0  0
   48.3455   35.9431   42.7340 H   0  0  0  0  0  0  0  0  0  0  0  0
   49.7033   35.7575   40.6473 H   0  0  0  0  0  0  0  0  0  0  0  0
   48.8041   34.4355   38.6968 H   0  0  0  0  0  0  0  0  0  0  0  0
   45.2977   33.5555   40.9811 H   0  0  0  0  0  0  0  0  0  0  0  0
   43.7765   36.7716   44.9729 H   0  0  0  0  0  0  0  0  0  0  0  0
   44.9282   36.7134   42.7522 H   0  0  0  0  0  0  0  0  0  0  0  0
   45.7683   33.2151   46.1453 H   0  0  0  0  0  0  0  0  0  0  0  0
   47.3795   34.0713   37.0633 H   0  0  0  0  0  0  0  0  0  0  0  0
   46.3726   32.7705   35.2592 H   0  0  0  0  0  0  0  0  0  0  0  0
   44.6964   30.9764   35.8350 H   0  0  0  0  0  0  0  0  0  0  0  0
   44.1712   30.6469   38.2401 H   0  0  0  0  0  0  0  0  0  0  0  0
  1  9  1  0
  2  1  2  0
  3  2  1  0
  4  5  1  0
  4  3  2  0
  5  6  2  0
  6  1  1  0
  7 12  2  0
  8  7  1  0
  9  8  2  0
  9 10  1  0
 10 11  2  0
 11 12  1  0
 13 18  1  0
 13  5  1  0
 14 13  2  0
 15 16  2  0
 15 14  1  0
 16 17  1  0
 17 18  2  0
  2 19  1  0
  3 20  1  0
  4 21  1  0
  6 22  1  0
  7 23  1  0
  8 24  1  0
 11 25  1  0
 14 26  1  0
 15 27  1  0
 16 28  1  0
 17 29  1  0
M  ISO  8  19  14  20  14  21  14  22  14  23  14  24  14  25  14  26  14
M  ISO  3  27  14  28  14  29  14
M  END
>  <minimizedAffinity>  (1) 
-5.65455389

>  <minimizedRMSD>  (1) 
0.23007983

$$$$
