
     RDKit          3D

 31 33  0  0  0  0  0  0  0  0999 V2000
   46.8840   34.8610   42.0530 C   0  0  0  0  0  0  0  0  0  0  0  0
   48.0960   35.5350   42.0320 C   0  0  0  0  0  0  0  0  0  0  0  0
   48.9270   35.4980   40.9050 C   0  0  0  0  0  0  0  0  0  0  0  0
   48.5230   34.7650   39.7810 C   0  0  0  0  0  0  0  0  0  0  0  0
   47.2990   34.0830   39.7990 C   0  0  0  0  0  0  0  0  0  0  0  0
   46.5240   34.1570   40.9360 C   0  0  0  0  0  0  0  0  0  0  0  0
   46.9320   33.3560   38.6400 N   0  0  0  0  0  0  0  0  0  0  0  0
   46.1130   32.2840   38.8240 C   0  0  0  0  0  0  0  0  0  0  0  0
   45.6700   31.4820   37.8010 C   0  0  0  0  0  0  0  0  0  0  0  0
   46.0720   31.7680   36.5040 C   0  0  0  0  0  0  0  0  0  0  0  0
   45.6900   31.0230   35.3520 N   0  0  0  0  0  0  0  0  0  0  0  0
   46.8780   32.8300   36.3520 N   0  0  0  0  0  0  0  0  0  0  0  0
   47.2980   33.6010   37.3710 C   0  0  0  0  0  0  0  0  0  0  0  0
   48.0610   34.6010   37.2080 O   0  0  0  0  0  0  0  0  0  0  0  0
   44.4740   35.9340   44.7190 C   0  0  0  0  0  0  0  0  0  0  0  0
   45.1720   35.9610   43.5080 C   0  0  0  0  0  0  0  0  0  0  0  0
   46.0930   34.9570   43.2630 C   0  0  0  0  0  0  0  0  0  0  0  0
   46.2780   33.9890   44.2080 N   0  0  0  0  0  0  0  0  0  0  0  0
   45.5800   33.9950   45.3770 C   0  0  0  0  0  0  0  0  0  0  0  0
   44.6910   34.9580   45.6250 N   0  0  0  0  0  0  0  0  0  0  0  0
   48.4103   36.1089   42.9162 H   0  0  0  0  0  0  0  0  0  0  0  0
   49.8854   36.0379   40.9023 H   0  0  0  0  0  0  0  0  0  0  0  0
   49.1642   34.7252   38.8881 H   0  0  0  0  0  0  0  0  0  0  0  0
   45.5635   33.6209   40.9464 H   0  0  0  0  0  0  0  0  0  0  0  0
   45.7884   32.0474   39.8480 H   0  0  0  0  0  0  0  0  0  0  0  0
   45.0080   30.6278   38.0062 H   0  0  0  0  0  0  0  0  0  0  0  0
   46.0327   31.3016   34.4215 H   0  0  0  0  0  0  0  0  0  0  0  0
   45.0710   30.2055   35.4493 H   0  0  0  0  0  0  0  0  0  0  0  0
   43.7365   36.7206   44.9366 H   0  0  0  0  0  0  0  0  0  0  0  0
   44.9944   36.7576   42.7706 H   0  0  0  0  0  0  0  0  0  0  0  0
   45.7500   33.2021   46.1203 H   0  0  0  0  0  0  0  0  0  0  0  0
  1 17  1  0
  2  1  2  0
  3  2  1  0
  4  5  1  0
  4  3  2  0
  5  6  2  0
  6  1  1  0
  7  8  1  0
  7  5  1  0
  9  8  2  0
 10  9  1  0
 11 10  1  0
 12 10  2  0
 12 13  1  0
 13  7  1  0
 14 13  2  0
 15 20  2  0
 16 15  1  0
 17 16  2  0
 17 18  1  0
 18 19  2  0
 19 20  1  0
  2 21  1  0
  3 22  1  0
  4 23  1  0
  6 24  1  0
  8 25  1  0
  9 26  1  0
 11 27  1  0
 11 28  1  0
 15 29  1  0
 16 30  1  0
 19 31  1  0
M  ISO  8  21  14  22  14  23  14  24  14  25  14  26  14  29  14  30  14
M  ISO  1  31  14
M  END
>  <minimizedAffinity>  (1) 
-6.01779413

>  <minimizedRMSD>  (1) 
0.504655719

$$$$
