
     RDKit          3D

 30 32  0  0  0  0  0  0  0  0999 V2000
   46.8100   34.8090   42.1040 C   0  0  0  0  0  0  0  0  0  0  0  0
   48.0250   35.4610   42.0310 C   0  0  0  0  0  0  0  0  0  0  0  0
   48.8200   35.4160   40.8890 C   0  0  0  0  0  0  0  0  0  0  0  0
   48.3780   34.6900   39.7780 C   0  0  0  0  0  0  0  0  0  0  0  0
   47.1650   34.0400   39.8530 C   0  0  0  0  0  0  0  0  0  0  0  0
   46.3800   34.0950   41.0050 C   0  0  0  0  0  0  0  0  0  0  0  0
   44.4660   35.9280   44.8190 C   0  0  0  0  0  0  0  0  0  0  0  0
   45.1340   35.9400   43.5850 C   0  0  0  0  0  0  0  0  0  0  0  0
   46.0440   34.9190   43.3390 C   0  0  0  0  0  0  0  0  0  0  0  0
   46.2520   33.9650   44.2820 N   0  0  0  0  0  0  0  0  0  0  0  0
   45.5800   33.9890   45.4720 C   0  0  0  0  0  0  0  0  0  0  0  0
   44.7010   34.9580   45.7350 N   0  0  0  0  0  0  0  0  0  0  0  0
   46.7260   33.2900   38.6850 C   0  0  0  0  0  0  0  0  0  0  0  0
   45.6190   32.4920   38.5380 C   0  0  0  0  0  0  0  0  0  0  0  0
   45.2970   31.8210   37.3840 C   0  0  0  0  0  0  0  0  0  0  0  0
   46.1550   31.9620   36.2870 C   0  0  0  0  0  0  0  0  0  0  0  0
   47.2780   32.7520   36.3840 C   0  0  0  0  0  0  0  0  0  0  0  0
   47.5700   33.4150   37.5710 C   0  0  0  0  0  0  0  0  0  0  0  0
   48.3756   36.0337   42.9022 H   0  0  0  0  0  0  0  0  0  0  0  0
   49.7841   35.9449   40.8607 H   0  0  0  0  0  0  0  0  0  0  0  0
   48.9863   34.6389   38.8629 H   0  0  0  0  0  0  0  0  0  0  0  0
   45.4153   33.5674   41.0370 H   0  0  0  0  0  0  0  0  0  0  0  0
   43.7382   36.7208   45.0467 H   0  0  0  0  0  0  0  0  0  0  0  0
   44.9445   36.7276   42.8408 H   0  0  0  0  0  0  0  0  0  0  0  0
   45.7653   33.2031   46.2190 H   0  0  0  0  0  0  0  0  0  0  0  0
   44.9457   32.3828   39.4010 H   0  0  0  0  0  0  0  0  0  0  0  0
   44.3953   31.1939   37.3237 H   0  0  0  0  0  0  0  0  0  0  0  0
   45.9312   31.4401   35.3449 H   0  0  0  0  0  0  0  0  0  0  0  0
   47.9479   32.8594   35.5182 H   0  0  0  0  0  0  0  0  0  0  0  0
   48.4707   34.0430   37.6372 H   0  0  0  0  0  0  0  0  0  0  0  0
  1  9  1  0
  2  1  2  0
  3  2  1  0
  4  5  1  0
  4  3  2  0
  5  6  2  0
  6  1  1  0
  7 12  2  0
  8  7  1  0
  9  8  2  0
  9 10  1  0
 10 11  2  0
 11 12  1  0
 13  5  1  0
 14 13  2  0
 15 14  1  0
 16 17  1  0
 16 15  2  0
 17 18  2  0
 18 13  1  0
  2 19  1  0
  3 20  1  0
  4 21  1  0
  6 22  1  0
  7 23  1  0
  8 24  1  0
 11 25  1  0
 14 26  1  0
 15 27  1  0
 16 28  1  0
 17 29  1  0
 18 30  1  0
M  ISO  8  19  14  20  14  21  14  22  14  23  14  24  14  25  14  26  14
M  ISO  4  27  14  28  14  29  14  30  14
M  END
>  <minimizedAffinity>  (1) 
-5.71369028

>  <minimizedRMSD>  (1) 
0.488506287

$$$$
