
     RDKit          3D

 34 36  0  0  1  0  0  0  0  0999 V2000
   46.6460   34.6950   42.0260 C   0  0  0  0  0  0  0  0  0  0  0  0
   47.8550   35.3340   41.8650 C   0  0  0  0  0  0  0  0  0  0  0  0
   48.5990   35.2090   40.6910 C   0  0  0  0  0  0  0  0  0  0  0  0
   48.1030   34.4170   39.6500 C   0  0  0  0  0  0  0  0  0  0  0  0
   46.8720   33.7620   39.8030 C   0  0  0  0  0  0  0  0  0  0  0  0
   46.1770   33.9180   40.9860 C   0  0  0  0  0  0  0  0  0  0  0  0
   44.4730   36.0190   44.8010 C   0  0  0  0  0  0  0  0  0  0  0  0
   45.0980   35.9490   43.5420 C   0  0  0  0  0  0  0  0  0  0  0  0
   45.9400   34.8820   43.2870 C   0  0  0  0  0  0  0  0  0  0  0  0
   46.1320   33.9500   44.2540 N   0  0  0  0  0  0  0  0  0  0  0  0
   45.5180   34.0350   45.4670 C   0  0  0  0  0  0  0  0  0  0  0  0
   44.6990   35.0630   45.7260 N   0  0  0  0  0  0  0  0  0  0  0  0
   46.3170   32.9160   38.7240 C   0  0  1  0  0  0  0  0  0  0  0  0
   44.8210   33.0940   38.6070 C   0  0  0  0  0  0  0  0  0  0  0  0
   44.3430   32.0710   37.6330 C   0  0  0  0  0  0  0  0  0  0  0  0
   45.1000   31.9690   36.3640 C   0  0  0  0  0  0  0  0  0  0  0  0
   46.3580   32.7050   36.2170 C   0  0  0  0  0  0  0  0  0  0  0  0
   46.9030   33.3950   37.4220 C   0  0  0  0  0  0  0  0  0  0  0  0
   48.2442   35.9588   42.6824 H   0  0  0  0  0  0  0  0  0  0  0  0
   49.5637   35.7269   40.5855 H   0  0  0  0  0  0  0  0  0  0  0  0
   48.6750   34.3085   38.7167 H   0  0  0  0  0  0  0  0  0  0  0  0
   45.2122   33.4031   41.1042 H   0  0  0  0  0  0  0  0  0  0  0  0
   43.7978   36.8561   45.0318 H   0  0  0  0  0  0  0  0  0  0  0  0
   44.9214   36.7229   42.7805 H   0  0  0  0  0  0  0  0  0  0  0  0
   45.6939   33.2629   46.2305 H   0  0  0  0  0  0  0  0  0  0  0  0
   46.5525   31.8646   38.9457 H   0  0  0  0  0  0  0  0  0  0  0  0
   44.3430   32.9385   39.5854 H   0  0  0  0  0  0  0  0  0  0  0  0
   44.5685   34.1101   38.2697 H   0  0  0  0  0  0  0  0  0  0  0  0
   44.3864   31.0901   38.1289 H   0  0  0  0  0  0  0  0  0  0  0  0
   43.3303   32.3902   37.3456 H   0  0  0  0  0  0  0  0  0  0  0  0
   44.7212   31.3466   35.5399 H   0  0  0  0  0  0  0  0  0  0  0  0
   46.8828   32.7474   35.2512 H   0  0  0  0  0  0  0  0  0  0  0  0
   47.9903   33.2308   37.4516 H   0  0  0  0  0  0  0  0  0  0  0  0
   46.6356   34.4577   37.3264 H   0  0  0  0  0  0  0  0  0  0  0  0
  1  9  1  0
  2  1  2  0
  3  2  1  0
  4  5  1  0
  4  3  2  0
  5  6  2  0
  6  1  1  0
  7 12  2  0
  8  7  1  0
  9  8  2  0
  9 10  1  0
 10 11  2  0
 11 12  1  0
 13  5  1  0
 14 13  1  0
 15 14  1  0
 16 15  1  0
 17 16  2  0
 17 18  1  0
 18 13  1  0
  2 19  1  0
  3 20  1  0
  4 21  1  0
  6 22  1  0
  7 23  1  0
  8 24  1  0
 11 25  1  0
 13 26  1  1
 14 27  1  0
 14 28  1  0
 15 29  1  0
 15 30  1  0
 16 31  1  0
 17 32  1  0
 18 33  1  0
 18 34  1  0
M  ISO  8  19  14  20  14  21  14  22  14  23  14  24  14  25  14  26  13
M  ISO  8  27  13  28  13  29  13  30  13  31  13  32  13  33  13  34  13
M  END
>  <minimizedAffinity>  (1) 
-5.73307133

>  <minimizedRMSD>  (1) 
0.411301553

$$$$
