
     RDKit          3D

 32 34  0  0  0  0  0  0  0  0999 V2000
   46.7020   34.7470   42.0280 C   0  0  0  0  0  0  0  0  0  0  0  0
   47.9520   35.3460   41.9390 C   0  0  0  0  0  0  0  0  0  0  0  0
   48.6930   35.2310   40.7600 C   0  0  0  0  0  0  0  0  0  0  0  0
   48.2010   34.5260   39.6670 C   0  0  0  0  0  0  0  0  0  0  0  0
   46.9560   33.9370   39.7750 C   0  0  0  0  0  0  0  0  0  0  0  0
   46.2130   34.0470   40.9470 C   0  0  0  0  0  0  0  0  0  0  0  0
   44.4700   35.9710   44.8040 C   0  0  0  0  0  0  0  0  0  0  0  0
   45.1030   35.9430   43.5520 C   0  0  0  0  0  0  0  0  0  0  0  0
   45.9740   34.9010   43.2880 C   0  0  0  0  0  0  0  0  0  0  0  0
   46.1720   33.9700   44.2420 N   0  0  0  0  0  0  0  0  0  0  0  0
   45.5560   34.0030   45.4520 C   0  0  0  0  0  0  0  0  0  0  0  0
   44.7140   34.9960   45.7230 N   0  0  0  0  0  0  0  0  0  0  0  0
   46.4310   33.2150   38.6790 N   0  0  0  0  0  0  0  0  0  0  0  0
   45.3730   32.2100   38.8000 C   0  0  0  0  0  0  0  0  0  0  0  0
   45.1140   31.7610   37.3830 C   0  0  0  0  0  0  0  0  0  0  0  0
   45.5260   32.9850   36.5890 C   0  0  0  0  0  0  0  0  0  0  0  0
   46.8340   33.3370   37.2890 C   0  0  0  0  0  0  0  0  0  0  0  0
   48.3569   35.9086   42.7931 H   0  0  0  0  0  0  0  0  0  0  0  0
   49.6828   35.7064   40.6953 H   0  0  0  0  0  0  0  0  0  0  0  0
   48.7878   34.4396   38.7406 H   0  0  0  0  0  0  0  0  0  0  0  0
   45.2241   33.5695   41.0107 H   0  0  0  0  0  0  0  0  0  0  0  0
   43.7718   36.7862   45.0449 H   0  0  0  0  0  0  0  0  0  0  0  0
   44.9125   36.7258   42.8031 H   0  0  0  0  0  0  0  0  0  0  0  0
   45.7510   33.2186   46.1981 H   0  0  0  0  0  0  0  0  0  0  0  0
   45.7080   31.3656   39.4203 H   0  0  0  0  0  0  0  0  0  0  0  0
   44.4696   32.6101   39.2835 H   0  0  0  0  0  0  0  0  0  0  0  0
   45.7295   30.8878   37.1208 H   0  0  0  0  0  0  0  0  0  0  0  0
   44.0780   31.4396   37.2001 H   0  0  0  0  0  0  0  0  0  0  0  0
   44.7867   33.7948   36.6769 H   0  0  0  0  0  0  0  0  0  0  0  0
   45.6137   32.8221   35.5047 H   0  0  0  0  0  0  0  0  0  0  0  0
   47.6347   32.6271   37.0345 H   0  0  0  0  0  0  0  0  0  0  0  0
   47.2502   34.3181   37.0167 H   0  0  0  0  0  0  0  0  0  0  0  0
  1  9  1  0
  2  1  2  0
  3  2  1  0
  4  5  1  0
  4  3  2  0
  5  6  2  0
  6  1  1  0
  7 12  2  0
  8  7  1  0
  9  8  2  0
  9 10  1  0
 10 11  2  0
 11 12  1  0
 13 14  1  0
 13  5  1  0
 15 14  1  0
 16 17  1  0
 16 15  1  0
 17 13  1  0
  2 18  1  0
  3 19  1  0
  4 20  1  0
  6 21  1  0
  7 22  1  0
  8 23  1  0
 11 24  1  0
 14 25  1  0
 14 26  1  0
 15 27  1  0
 15 28  1  0
 16 29  1  0
 16 30  1  0
 17 31  1  0
 17 32  1  0
M  ISO  8  18  14  19  14  20  14  21  14  22  14  23  14  24  14  25  13
M  ISO  7  26  13  27  13  28  13  29  13  30  13  31  13  32  13
M  END
>  <minimizedAffinity>  (1) 
-5.52133751

>  <minimizedRMSD>  (1) 
0.65299964

$$$$
