
     RDKit          3D

 23 24  0  0  0  0  0  0  0  0999 V2000
   46.7520   34.7530   42.0370 C   0  0  0  0  0  0  0  0  0  0  0  0
   47.9690   35.3760   41.9440 C   0  0  0  0  0  0  0  0  0  0  0  0
   48.7210   35.2810   40.7650 C   0  0  0  0  0  0  0  0  0  0  0  0
   48.2420   34.5550   39.6810 C   0  0  0  0  0  0  0  0  0  0  0  0
   47.0100   33.9260   39.7800 C   0  0  0  0  0  0  0  0  0  0  0  0
   46.2640   34.0260   40.9590 C   0  0  0  0  0  0  0  0  0  0  0  0
   44.4730   35.9630   44.7870 C   0  0  0  0  0  0  0  0  0  0  0  0
   45.1230   35.9400   43.5420 C   0  0  0  0  0  0  0  0  0  0  0  0
   46.0170   34.8890   43.2880 C   0  0  0  0  0  0  0  0  0  0  0  0
   46.2110   33.9570   44.2400 N   0  0  0  0  0  0  0  0  0  0  0  0
   45.5700   34.0020   45.4400 C   0  0  0  0  0  0  0  0  0  0  0  0
   44.7070   35.0020   45.7040 N   0  0  0  0  0  0  0  0  0  0  0  0
   46.4180   33.1520   38.7240 C   0  0  0  0  0  0  0  0  0  0  0  0
   46.3370   31.8870   38.7170 O   0  0  0  0  0  0  0  0  0  0  0  0
   45.8490   33.6160   37.5660 O   0  0  0  0  0  0  0  0  0  0  0  0
   48.3568   35.9522   42.7970 H   0  0  0  0  0  0  0  0  0  0  0  0
   49.6967   35.7844   40.6972 H   0  0  0  0  0  0  0  0  0  0  0  0
   48.8327   34.4802   38.7561 H   0  0  0  0  0  0  0  0  0  0  0  0
   45.2866   33.5267   41.0327 H   0  0  0  0  0  0  0  0  0  0  0  0
   43.7656   36.7734   45.0166 H   0  0  0  0  0  0  0  0  0  0  0  0
   44.9370   36.7211   42.7902 H   0  0  0  0  0  0  0  0  0  0  0  0
   45.7566   33.2225   46.1934 H   0  0  0  0  0  0  0  0  0  0  0  0
   45.4715   32.9781   36.9098 H   0  0  0  0  0  0  0  0  0  0  0  0
  1  9  1  0
  2  1  2  0
  3  2  1  0
  4  5  1  0
  4  3  2  0
  5  6  2  0
  6  1  1  0
  7 12  2  0
  8  7  1  0
  9  8  2  0
  9 10  1  0
 10 11  2  0
 11 12  1  0
 13  5  1  0
 14 13  2  0
 15 13  1  0
  2 16  1  0
  3 17  1  0
  4 18  1  0
  6 19  1  0
  7 20  1  0
  8 21  1  0
 11 22  1  0
 15 23  1  0
M  ISO  8  16  14  17  14  18  14  19  14  20  14  21  14  22  14  23   3
M  END
>  <minimizedAffinity>  (1) 
-5.35050774

>  <minimizedRMSD>  (1) 
0.104881406

$$$$
