
     RDKit          3D

 27 29  0  0  0  0  0  0  0  0999 V2000
   46.7440   34.7520   41.9920 C   0  0  0  0  0  0  0  0  0  0  0  0
   47.9730   35.3530   41.9090 C   0  0  0  0  0  0  0  0  0  0  0  0
   48.7310   35.2610   40.7330 C   0  0  0  0  0  0  0  0  0  0  0  0
   48.2370   34.5590   39.6410 C   0  0  0  0  0  0  0  0  0  0  0  0
   46.9970   33.9560   39.7310 C   0  0  0  0  0  0  0  0  0  0  0  0
   46.2530   34.0530   40.9050 C   0  0  0  0  0  0  0  0  0  0  0  0
   44.4780   35.9600   44.7520 C   0  0  0  0  0  0  0  0  0  0  0  0
   45.1250   35.9350   43.5020 C   0  0  0  0  0  0  0  0  0  0  0  0
   46.0070   34.8900   43.2570 C   0  0  0  0  0  0  0  0  0  0  0  0
   46.2130   33.9450   44.2080 N   0  0  0  0  0  0  0  0  0  0  0  0
   45.5630   34.0140   45.4020 C   0  0  0  0  0  0  0  0  0  0  0  0
   44.7080   35.0070   45.6690 N   0  0  0  0  0  0  0  0  0  0  0  0
   46.3190   33.1980   38.7360 N   0  0  0  0  0  0  0  0  0  0  0  0
   46.7170   33.3130   37.4420 C   0  0  0  0  0  0  0  0  0  0  0  0
   45.8780   32.4650   36.7230 C   0  0  0  0  0  0  0  0  0  0  0  0
   45.0040   31.8640   37.5780 N   0  0  0  0  0  0  0  0  0  0  0  0
   45.2880   32.3260   38.8180 C   0  0  0  0  0  0  0  0  0  0  0  0
   48.3674   35.9113   42.7708 H   0  0  0  0  0  0  0  0  0  0  0  0
   49.7172   35.7449   40.6752 H   0  0  0  0  0  0  0  0  0  0  0  0
   48.8262   34.4839   38.7151 H   0  0  0  0  0  0  0  0  0  0  0  0
   45.2669   33.5695   40.9675 H   0  0  0  0  0  0  0  0  0  0  0  0
   43.7732   36.7729   44.9808 H   0  0  0  0  0  0  0  0  0  0  0  0
   44.9392   36.7137   42.7476 H   0  0  0  0  0  0  0  0  0  0  0  0
   45.7443   33.2388   46.1611 H   0  0  0  0  0  0  0  0  0  0  0  0
   47.5285   33.9416   37.0466 H   0  0  0  0  0  0  0  0  0  0  0  0
   45.9152   32.3055   35.6353 H   0  0  0  0  0  0  0  0  0  0  0  0
   44.7654   32.0390   39.7424 H   0  0  0  0  0  0  0  0  0  0  0  0
  1  9  1  0
  2  1  2  0
  3  2  1  0
  4  5  1  0
  4  3  2  0
  5  6  2  0
  6  1  1  0
  7 12  2  0
  8  7  1  0
  9  8  2  0
  9 10  1  0
 10 11  2  0
 11 12  1  0
 13 17  1  0
 13  5  1  0
 14 13  1  0
 15 14  2  0
 15 16  1  0
 16 17  2  0
  2 18  1  0
  3 19  1  0
  4 20  1  0
  6 21  1  0
  7 22  1  0
  8 23  1  0
 11 24  1  0
 14 25  1  0
 15 26  1  0
 17 27  1  0
M  ISO  8  18  14  19  14  20  14  21  14  22  14  23  14  24  14  25  14
M  ISO  2  26  14  27  14
M  END
>  <minimizedAffinity>  (1) 
-5.43184423

>  <minimizedRMSD>  (1) 
0.193504944

$$$$
