
     RDKit          3D

 27 29  0  0  0  0  0  0  0  0999 V2000
   46.7500   34.7420   41.9530 C   0  0  0  0  0  0  0  0  0  0  0  0
   47.9450   35.4400   41.8180 C   0  0  0  0  0  0  0  0  0  0  0  0
   48.7160   35.3040   40.6630 C   0  0  0  0  0  0  0  0  0  0  0  0
   48.2960   34.4690   39.6340 C   0  0  0  0  0  0  0  0  0  0  0  0
   47.1050   33.7760   39.7760 C   0  0  0  0  0  0  0  0  0  0  0  0
   46.3580   33.9240   40.9250 C   0  0  0  0  0  0  0  0  0  0  0  0
   44.4870   36.0620   44.6520 C   0  0  0  0  0  0  0  0  0  0  0  0
   45.1440   36.0010   43.4180 C   0  0  0  0  0  0  0  0  0  0  0  0
   46.0000   34.9360   43.1910 C   0  0  0  0  0  0  0  0  0  0  0  0
   46.1690   33.9980   44.1620 N   0  0  0  0  0  0  0  0  0  0  0  0
   45.5100   34.0940   45.3510 C   0  0  0  0  0  0  0  0  0  0  0  0
   44.6840   35.1100   45.5890 N   0  0  0  0  0  0  0  0  0  0  0  0
   46.6450   32.8810   38.6850 C   0  0  0  0  0  0  0  0  0  0  0  0
   47.5300   32.4180   37.6050 C   0  0  0  0  0  0  0  0  0  0  0  0
   46.5590   33.4890   37.2700 C   0  0  0  0  0  0  0  0  0  0  0  0
   48.2847   36.1036   42.6269 H   0  0  0  0  0  0  0  0  0  0  0  0
   49.6602   35.8599   40.5663 H   0  0  0  0  0  0  0  0  0  0  0  0
   48.9001   34.3603   38.7211 H   0  0  0  0  0  0  0  0  0  0  0  0
   45.4146   33.3664   41.0204 H   0  0  0  0  0  0  0  0  0  0  0  0
   43.8013   36.8962   44.8614 H   0  0  0  0  0  0  0  0  0  0  0  0
   44.9856   36.7746   42.6522 H   0  0  0  0  0  0  0  0  0  0  0  0
   45.6623   33.3240   46.1217 H   0  0  0  0  0  0  0  0  0  0  0  0
   45.9856   32.3552   39.3912 H   0  0  0  0  0  0  0  0  0  0  0  0
   48.6037   32.6537   37.6459 H   0  0  0  0  0  0  0  0  0  0  0  0
   47.7510   31.4303   37.1741 H   0  0  0  0  0  0  0  0  0  0  0  0
   46.9071   34.5159   37.0850 H   0  0  0  0  0  0  0  0  0  0  0  0
   45.7679   33.6295   36.5187 H   0  0  0  0  0  0  0  0  0  0  0  0
  1  9  1  0
  2  1  2  0
  3  2  1  0
  4  5  1  0
  4  3  2  0
  5  6  2  0
  6  1  1  0
  7 12  2  0
  8  7  1  0
  9  8  2  0
  9 10  1  0
 10 11  2  0
 11 12  1  0
 13  5  1  0
 14 13  1  0
 15 14  1  0
 15 13  1  0
  2 16  1  0
  3 17  1  0
  4 18  1  0
  6 19  1  0
  7 20  1  0
  8 21  1  0
 11 22  1  0
 13 23  1  0
 14 24  1  0
 14 25  1  0
 15 26  1  0
 15 27  1  0
M  ISO  8  16  14  17  14  18  14  19  14  20  14  21  14  22  14  23  13
M  ISO  4  24  13  25  13  26  13  27  13
M  END
>  <minimizedAffinity>  (1) 
-5.1723938

>  <minimizedRMSD>  (1) 
0.207980365

$$$$
