
     RDKit          3D

 21 22  0  0  0  0  0  0  0  0999 V2000
   46.6860   34.7140   42.0200 C   0  0  0  0  0  0  0  0  0  0  0  0
   47.9070   35.3350   41.8840 C   0  0  0  0  0  0  0  0  0  0  0  0
   48.6490   35.2250   40.7030 C   0  0  0  0  0  0  0  0  0  0  0  0
   48.1500   34.4740   39.6400 C   0  0  0  0  0  0  0  0  0  0  0  0
   46.9150   33.8420   39.7720 C   0  0  0  0  0  0  0  0  0  0  0  0
   46.2080   33.9720   40.9530 C   0  0  0  0  0  0  0  0  0  0  0  0
   44.4770   35.9970   44.7760 C   0  0  0  0  0  0  0  0  0  0  0  0
   45.1090   35.9490   43.5200 C   0  0  0  0  0  0  0  0  0  0  0  0
   45.9750   34.8740   43.2760 C   0  0  0  0  0  0  0  0  0  0  0  0
   46.1690   33.9410   44.2320 N   0  0  0  0  0  0  0  0  0  0  0  0
   45.5340   34.0300   45.4350 C   0  0  0  0  0  0  0  0  0  0  0  0
   44.7020   35.0370   45.7060 N   0  0  0  0  0  0  0  0  0  0  0  0
   46.3680   33.0870   38.7600 O   0  0  0  0  0  0  0  0  0  0  0  0
   48.3067   35.9287   42.7193 H   0  0  0  0  0  0  0  0  0  0  0  0
   49.6225   35.7293   40.6137 H   0  0  0  0  0  0  0  0  0  0  0  0
   48.7250   34.3812   38.7068 H   0  0  0  0  0  0  0  0  0  0  0  0
   45.2340   33.4696   41.0481 H   0  0  0  0  0  0  0  0  0  0  0  0
   43.7907   36.8252   45.0065 H   0  0  0  0  0  0  0  0  0  0  0  0
   44.9308   36.7239   42.7599 H   0  0  0  0  0  0  0  0  0  0  0  0
   45.7110   33.2566   46.1969 H   0  0  0  0  0  0  0  0  0  0  0  0
   45.4881   32.6515   38.8874 H   0  0  0  0  0  0  0  0  0  0  0  0
  1  9  1  0
  2  1  2  0
  3  2  1  0
  4  5  1  0
  4  3  2  0
  5  6  2  0
  6  1  1  0
  7 12  2  0
  8  7  1  0
  9  8  2  0
  9 10  1  0
 10 11  2  0
 11 12  1  0
 13  5  1  0
  2 14  1  0
  3 15  1  0
  4 16  1  0
  6 17  1  0
  7 18  1  0
  8 19  1  0
 11 20  1  0
 13 21  1  0
M  ISO  8  14  14  15  14  16  14  17  14  18  14  19  14  20  14  21   3
M  END
>  <minimizedAffinity>  (1) 
-5.06589985

>  <minimizedRMSD>  (1) 
0.0112268096

$$$$
