
     RDKit          3D

 43 45  0  0  0  0  0  0  0  0999 V2000
   46.6270   33.1130   38.6070 C   0  0  0  0  0  0  0  0  0  0  0  0
   46.8010   34.7550   42.0030 C   0  0  0  0  0  0  0  0  0  0  0  0
   48.0060   35.4110   41.9170 C   0  0  0  0  0  0  0  0  0  0  0  0
   48.7730   35.3190   40.7450 C   0  0  0  0  0  0  0  0  0  0  0  0
   48.3090   34.5660   39.6760 C   0  0  0  0  0  0  0  0  0  0  0  0
   47.0890   33.9030   39.7650 C   0  0  0  0  0  0  0  0  0  0  0  0
   46.3770   34.0230   40.9320 C   0  0  0  0  0  0  0  0  0  0  0  0
   44.4870   35.9240   44.7430 C   0  0  0  0  0  0  0  0  0  0  0  0
   45.1460   35.9130   43.5020 C   0  0  0  0  0  0  0  0  0  0  0  0
   46.0470   34.8880   43.2510 C   0  0  0  0  0  0  0  0  0  0  0  0
   46.2550   33.9420   44.2080 N   0  0  0  0  0  0  0  0  0  0  0  0
   45.5920   33.9920   45.4030 C   0  0  0  0  0  0  0  0  0  0  0  0
   44.7210   34.9740   45.6560 N   0  0  0  0  0  0  0  0  0  0  0  0
   45.1050   32.9740   38.5910 C   0  0  0  0  0  0  0  0  0  0  0  0
   47.1960   31.6990   38.8230 C   0  0  0  0  0  0  0  0  0  0  0  0
   47.0470   33.6710   37.2930 C   0  0  0  0  0  0  0  0  0  0  0  0
   46.7770   32.8000   36.1570 N   0  0  0  0  0  0  0  0  0  0  0  0
   45.5620   32.4880   35.6670 C   0  0  0  0  0  0  0  0  0  0  0  0
   45.3990   31.6580   34.5880 C   0  0  0  0  0  0  0  0  0  0  0  0
   46.4710   31.0950   33.9460 C   0  0  0  0  0  0  0  0  0  0  0  0
   46.3150   30.2310   32.8250 N   0  0  0  0  0  0  0  0  0  0  0  0
   47.6930   31.3960   34.4240 N   0  0  0  0  0  0  0  0  0  0  0  0
   47.8090   32.2160   35.4860 C   0  0  0  0  0  0  0  0  0  0  0  0
   49.0120   32.4030   35.8150 O   0  0  0  0  0  0  0  0  0  0  0  0
   48.3691   36.0080   42.7666 H   0  0  0  0  0  0  0  0  0  0  0  0
   49.7382   35.8419   40.6743 H   0  0  0  0  0  0  0  0  0  0  0  0
   48.9072   34.4930   38.7558 H   0  0  0  0  0  0  0  0  0  0  0  0
   45.4119   33.5007   41.0084 H   0  0  0  0  0  0  0  0  0  0  0  0
   43.7679   36.7256   44.9674 H   0  0  0  0  0  0  0  0  0  0  0  0
   44.9533   36.6939   42.7516 H   0  0  0  0  0  0  0  0  0  0  0  0
   45.7769   33.2178   46.1623 H   0  0  0  0  0  0  0  0  0  0  0  0
   44.7291   32.9397   39.6242 H   0  0  0  0  0  0  0  0  0  0  0  0
   44.6636   33.8356   38.0686 H   0  0  0  0  0  0  0  0  0  0  0  0
   44.8270   32.0467   38.0686 H   0  0  0  0  0  0  0  0  0  0  0  0
   47.2772   31.4972   39.9013 H   0  0  0  0  0  0  0  0  0  0  0  0
   46.5255   30.9594   38.3610 H   0  0  0  0  0  0  0  0  0  0  0  0
   48.1919   31.6300   38.3610 H   0  0  0  0  0  0  0  0  0  0  0  0
   46.5122   34.6191   37.1347 H   0  0  0  0  0  0  0  0  0  0  0  0
   48.1386   33.7980   37.3396 H   0  0  0  0  0  0  0  0  0  0  0  0
   44.6696   32.9138   36.1491 H   0  0  0  0  0  0  0  0  0  0  0  0
   44.3828   31.4385   34.2287 H   0  0  0  0  0  0  0  0  0  0  0  0
   45.3729   30.0108   32.4717 H   0  0  0  0  0  0  0  0  0  0  0  0
   47.1443   29.8262   32.3674 H   0  0  0  0  0  0  0  0  0  0  0  0
  1 15  1  0
  1  6  1  0
  2 10  1  0
  3  2  2  0
  4  3  1  0
  5  6  1  0
  5  4  2  0
  6  7  2  0
  7  2  1  0
  8 13  2  0
  9  8  1  0
 10  9  2  0
 10 11  1  0
 11 12  2  0
 12 13  1  0
 14  1  1  0
 16  1  1  0
 17 16  1  0
 18 17  1  0
 19 18  2  0
 20 22  2  0
 20 19  1  0
 21 20  1  0
 22 23  1  0
 23 24  2  0
 23 17  1  0
  3 25  1  0
  4 26  1  0
  5 27  1  0
  7 28  1  0
  8 29  1  0
  9 30  1  0
 12 31  1  0
 14 32  1  0
 14 33  1  0
 14 34  1  0
 15 35  1  0
 15 36  1  0
 15 37  1  0
 16 38  1  0
 16 39  1  0
 18 40  1  0
 19 41  1  0
 21 42  1  0
 21 43  1  0
M  ISO  8  25  14  26  14  27  14  28  14  29  14  30  14  31  14  32   8
M  ISO  8  33   8  34   8  35   8  36   8  37   8  38   8  39   8  40  14
M  ISO  1  41  14
M  END
>  <minimizedAffinity>  (1) 
-6.36008883

>  <minimizedRMSD>  (1) 
0.536674261

$$$$
