
     RDKit          3D

 39 40  0  0  0  0  0  0  0  0999 V2000
   46.5110   32.7090   38.5320 C   0  0  0  0  0  0  0  0  0  0  0  0
   46.7480   34.6410   41.7900 C   0  0  0  0  0  0  0  0  0  0  0  0
   47.9160   35.3300   41.5980 C   0  0  0  0  0  0  0  0  0  0  0  0
   48.6450   35.1770   40.4100 C   0  0  0  0  0  0  0  0  0  0  0  0
   48.1860   34.3230   39.4140 C   0  0  0  0  0  0  0  0  0  0  0  0
   46.9980   33.6240   39.6100 C   0  0  0  0  0  0  0  0  0  0  0  0
   46.3090   33.8040   40.7970 C   0  0  0  0  0  0  0  0  0  0  0  0
   44.5500   36.0530   44.5080 C   0  0  0  0  0  0  0  0  0  0  0  0
   45.1900   35.9490   43.2710 C   0  0  0  0  0  0  0  0  0  0  0  0
   46.0320   34.8420   43.0470 C   0  0  0  0  0  0  0  0  0  0  0  0
   46.1870   33.9340   44.0220 N   0  0  0  0  0  0  0  0  0  0  0  0
   45.5460   34.0640   45.2210 C   0  0  0  0  0  0  0  0  0  0  0  0
   44.7370   35.1140   45.4590 N   0  0  0  0  0  0  0  0  0  0  0  0
   45.6930   31.5530   39.1050 C   0  0  0  0  0  0  0  0  0  0  0  0
   47.7760   32.1200   37.9140 C   0  0  0  0  0  0  0  0  0  0  0  0
   45.6730   33.4090   37.5210 C   0  0  0  0  0  0  0  0  0  0  0  0
   46.0150   32.9970   36.1670 N   0  0  0  0  0  0  0  0  0  0  0  0
   45.0940   32.4300   35.2460 C   0  0  0  0  0  0  0  0  0  0  0  0
   44.3010   31.5480   35.7830 N   0  0  0  0  0  0  0  0  0  0  0  0
   45.1800   32.9120   33.8890 N   0  0  0  0  0  0  0  0  0  0  0  0
   43.5870   31.0750   35.1760 H   0  0  0  0  0  0  0  0  0  0  0  0
   48.2849   36.0083   42.3814 H   0  0  0  0  0  0  0  0  0  0  0  0
   49.5824   35.7342   40.2659 H   0  0  0  0  0  0  0  0  0  0  0  0
   48.7554   34.2007   38.4808 H   0  0  0  0  0  0  0  0  0  0  0  0
   45.3698   33.2522   40.9499 H   0  0  0  0  0  0  0  0  0  0  0  0
   43.8876   36.9079   44.7089 H   0  0  0  0  0  0  0  0  0  0  0  0
   45.0406   36.7113   42.4922 H   0  0  0  0  0  0  0  0  0  0  0  0
   45.6922   33.3024   46.0011 H   0  0  0  0  0  0  0  0  0  0  0  0
   45.7214   31.5931   40.2039 H   0  0  0  0  0  0  0  0  0  0  0  0
   44.6512   31.6356   38.7618 H   0  0  0  0  0  0  0  0  0  0  0  0
   46.1175   30.5980   38.7618 H   0  0  0  0  0  0  0  0  0  0  0  0
   48.4606   31.8012   38.7138 H   0  0  0  0  0  0  0  0  0  0  0  0
   47.5105   31.2529   37.2914 H   0  0  0  0  0  0  0  0  0  0  0  0
   48.2687   32.8813   37.2914 H   0  0  0  0  0  0  0  0  0  0  0  0
   44.6149   33.1745   37.7095 H   0  0  0  0  0  0  0  0  0  0  0  0
   45.8562   34.4900   37.6095 H   0  0  0  0  0  0  0  0  0  0  0  0
   46.9887   33.1251   35.8566 H   0  0  0  0  0  0  0  0  0  0  0  0
   45.8806   33.6245   33.6390 H   0  0  0  0  0  0  0  0  0  0  0  0
   44.5408   32.5437   33.1702 H   0  0  0  0  0  0  0  0  0  0  0  0
  1 14  1  0
  1  6  1  0
  2 10  1  0
  3  2  2  0
  4  3  1  0
  5  6  1  0
  5  4  2  0
  6  7  2  0
  7  2  1  0
  8 13  2  0
  9  8  1  0
 10  9  2  0
 10 11  1  0
 11 12  2  0
 12 13  1  0
 15  1  1  0
 16  1  1  0
 17 16  1  0
 18 19  2  0
 18 17  1  0
 20 18  1  0
 21 19  1  0
  3 22  1  0
  4 23  1  0
  5 24  1  0
  7 25  1  0
  8 26  1  0
  9 27  1  0
 12 28  1  0
 14 29  1  0
 14 30  1  0
 14 31  1  0
 15 32  1  0
 15 33  1  0
 15 34  1  0
 16 35  1  0
 16 36  1  0
 17 37  1  0
 20 38  1  0
 20 39  1  0
M  ISO  8  22  14  23  14  24  14  25  14  26  14  27  14  28  14  29   8
M  ISO  7  30   8  31   8  32   8  33   8  34   8  35   8  36   8
M  END
>  <minimizedAffinity>  (1) 
-6.37528801

>  <minimizedRMSD>  (1) 
0.757754445

$$$$
