
     RDKit          3D

 43 46  0  0  0  0  0  0  0  0999 V2000
   46.7600   33.1960   38.5960 C   0  0  0  0  0  0  0  0  0  0  0  0
   46.8760   34.7980   42.0140 C   0  0  0  0  0  0  0  0  0  0  0  0
   48.0680   35.4820   41.9370 C   0  0  0  0  0  0  0  0  0  0  0  0
   48.8410   35.4270   40.7740 C   0  0  0  0  0  0  0  0  0  0  0  0
   48.3980   34.6730   39.6930 C   0  0  0  0  0  0  0  0  0  0  0  0
   47.1940   33.9790   39.7660 C   0  0  0  0  0  0  0  0  0  0  0  0
   46.4790   34.0690   40.9270 C   0  0  0  0  0  0  0  0  0  0  0  0
   44.4980   35.9140   44.7190 C   0  0  0  0  0  0  0  0  0  0  0  0
   45.1800   35.9260   43.4860 C   0  0  0  0  0  0  0  0  0  0  0  0
   46.1070   34.8930   43.2550 C   0  0  0  0  0  0  0  0  0  0  0  0
   46.2940   33.9630   44.2030 N   0  0  0  0  0  0  0  0  0  0  0  0
   45.6120   33.9910   45.3830 C   0  0  0  0  0  0  0  0  0  0  0  0
   44.7290   34.9520   45.6320 N   0  0  0  0  0  0  0  0  0  0  0  0
   45.2600   32.9220   38.6080 C   0  0  0  0  0  0  0  0  0  0  0  0
   47.4580   31.8250   38.7540 C   0  0  0  0  0  0  0  0  0  0  0  0
   47.1460   33.7910   37.2820 C   0  0  0  0  0  0  0  0  0  0  0  0
   47.6080   32.7750   36.3320 N   0  0  0  0  0  0  0  0  0  0  0  0
   48.8820   32.3320   36.1740 C   0  0  0  0  0  0  0  0  0  0  0  0
   48.8810   31.3910   35.1960 N   0  0  0  0  0  0  0  0  0  0  0  0
   47.6170   31.2300   34.7290 C   0  0  0  0  0  0  0  0  0  0  0  0
   47.1100   30.3900   33.7330 C   0  0  0  0  0  0  0  0  0  0  0  0
   45.7790   30.4760   33.5030 N   0  0  0  0  0  0  0  0  0  0  0  0
   44.9890   31.3250   34.1980 C   0  0  0  0  0  0  0  0  0  0  0  0
   45.4750   32.1350   35.1570 N   0  0  0  0  0  0  0  0  0  0  0  0
   46.8070   32.1080   35.4480 C   0  0  0  0  0  0  0  0  0  0  0  0
   48.4142   36.0755   42.7960 H   0  0  0  0  0  0  0  0  0  0  0  0
   49.7924   35.9759   40.7143 H   0  0  0  0  0  0  0  0  0  0  0  0
   49.0025   34.6248   38.7752 H   0  0  0  0  0  0  0  0  0  0  0  0
   45.5267   33.5222   40.9912 H   0  0  0  0  0  0  0  0  0  0  0  0
   43.7647   36.7038   44.9392 H   0  0  0  0  0  0  0  0  0  0  0  0
   44.9956   36.7094   42.7362 H   0  0  0  0  0  0  0  0  0  0  0  0
   45.7945   33.2104   46.1363 H   0  0  0  0  0  0  0  0  0  0  0  0
   44.9073   32.8576   39.6479 H   0  0  0  0  0  0  0  0  0  0  0  0
   44.7339   33.7389   38.0924 H   0  0  0  0  0  0  0  0  0  0  0  0
   45.0567   31.9719   38.0924 H   0  0  0  0  0  0  0  0  0  0  0  0
   47.5754   31.5944   39.8231 H   0  0  0  0  0  0  0  0  0  0  0  0
   46.8471   31.0453   38.2756 H   0  0  0  0  0  0  0  0  0  0  0  0
   48.4479   31.8602   38.2756 H   0  0  0  0  0  0  0  0  0  0  0  0
   46.2723   34.3050   36.8549 H   0  0  0  0  0  0  0  0  0  0  0  0
   47.9748   34.4926   37.4578 H   0  0  0  0  0  0  0  0  0  0  0  0
   49.7607   32.6756   36.7395 H   0  0  0  0  0  0  0  0  0  0  0  0
   47.7549   29.6998   33.1694 H   0  0  0  0  0  0  0  0  0  0  0  0
   43.9128   31.3548   33.9722 H   0  0  0  0  0  0  0  0  0  0  0  0
  1 14  1  0
  1 15  1  0
  1  6  1  0
  2 10  1  0
  3  2  2  0
  4  3  1  0
  5  6  1  0
  5  4  2  0
  6  7  2  0
  7  2  1  0
  8 13  2  0
  9  8  1  0
 10  9  2  0
 10 11  1  0
 11 12  2  0
 12 13  1  0
 16  1  1  0
 17 16  1  0
 18 17  1  0
 19 18  2  0
 20 19  1  0
 20 25  2  0
 21 20  1  0
 22 21  2  0
 22 23  1  0
 23 24  2  0
 24 25  1  0
 25 17  1  0
  3 26  1  0
  4 27  1  0
  5 28  1  0
  7 29  1  0
  8 30  1  0
  9 31  1  0
 12 32  1  0
 14 33  1  0
 14 34  1  0
 14 35  1  0
 15 36  1  0
 15 37  1  0
 15 38  1  0
 16 39  1  0
 16 40  1  0
 18 41  1  0
 21 42  1  0
 23 43  1  0
M  ISO  8  26  14  27  14  28  14  29  14  30  14  31  14  32  14  33   8
M  ISO  8  34   8  35   8  36   8  37   8  38   8  39   8  40   8  41  14
M  ISO  2  42  14  43  14
M  END
>  <minimizedAffinity>  (1) 
-6.36299038

>  <minimizedRMSD>  (1) 
1.43754756

$$$$
