
     RDKit          3D

 46 48  0  0  0  0  0  0  0  0999 V2000
   46.6400   34.6820   42.0090 C   0  0  0  0  0  0  0  0  0  0  0  0
   47.8460   35.3360   41.8290 C   0  0  0  0  0  0  0  0  0  0  0  0
   48.5550   35.1740   40.6330 C   0  0  0  0  0  0  0  0  0  0  0  0
   48.0610   34.3600   39.6180 C   0  0  0  0  0  0  0  0  0  0  0  0
   46.8350   33.6990   39.8100 C   0  0  0  0  0  0  0  0  0  0  0  0
   46.1690   33.8840   40.9990 C   0  0  0  0  0  0  0  0  0  0  0  0
   44.4740   36.0740   44.7590 C   0  0  0  0  0  0  0  0  0  0  0  0
   45.1130   35.9650   43.5180 C   0  0  0  0  0  0  0  0  0  0  0  0
   45.9400   34.8850   43.2680 C   0  0  0  0  0  0  0  0  0  0  0  0
   46.1000   33.9710   44.2440 N   0  0  0  0  0  0  0  0  0  0  0  0
   45.4690   34.0970   45.4480 C   0  0  0  0  0  0  0  0  0  0  0  0
   44.6660   35.1410   45.6930 N   0  0  0  0  0  0  0  0  0  0  0  0
   46.3540   32.8250   38.7130 C   0  0  0  0  0  0  0  0  0  0  0  0
   44.8060   32.7860   38.7050 C   0  0  0  0  0  0  0  0  0  0  0  0
   46.8240   31.4280   39.0590 C   0  0  0  0  0  0  0  0  0  0  0  0
   46.7710   33.2710   37.3610 C   0  0  0  0  0  0  0  0  0  0  0  0
   47.6470   32.2980   36.7310 N   0  0  0  0  0  0  0  0  0  0  0  0
   46.8410   31.5160   35.7730 C   0  0  0  0  0  0  0  0  0  0  0  0
   46.3340   32.3490   34.6350 C   0  0  0  0  0  0  0  0  0  0  0  0
   47.4500   32.8200   33.8360 N   0  0  0  0  0  0  0  0  0  0  0  0
   48.7110   32.4510   34.4860 C   0  0  0  0  0  0  0  0  0  0  0  0
   48.6560   32.9720   35.9100 C   0  0  0  0  0  0  0  0  0  0  0  0
   48.2468   35.9819   42.6241 H   0  0  0  0  0  0  0  0  0  0  0  0
   49.5133   35.6959   40.4938 H   0  0  0  0  0  0  0  0  0  0  0  0
   48.6213   34.2356   38.6796 H   0  0  0  0  0  0  0  0  0  0  0  0
   45.2102   33.3655   41.1469 H   0  0  0  0  0  0  0  0  0  0  0  0
   43.8134   36.9293   44.9640 H   0  0  0  0  0  0  0  0  0  0  0  0
   44.9582   36.7337   42.7465 H   0  0  0  0  0  0  0  0  0  0  0  0
   45.6215   33.3334   46.2250 H   0  0  0  0  0  0  0  0  0  0  0  0
   44.4341   32.7766   39.7402 H   0  0  0  0  0  0  0  0  0  0  0  0
   44.4195   33.6747   38.1846 H   0  0  0  0  0  0  0  0  0  0  0  0
   44.4648   31.8790   38.1846 H   0  0  0  0  0  0  0  0  0  0  0  0
   46.8622   31.3143   40.1524 H   0  0  0  0  0  0  0  0  0  0  0  0
   46.1244   30.6910   38.6380 H   0  0  0  0  0  0  0  0  0  0  0  0
   47.8269   31.2637   38.6380 H   0  0  0  0  0  0  0  0  0  0  0  0
   45.8758   33.4049   36.7359 H   0  0  0  0  0  0  0  0  0  0  0  0
   47.3204   34.2186   37.4621 H   0  0  0  0  0  0  0  0  0  0  0  0
   47.4641   30.7057   35.3667 H   0  0  0  0  0  0  0  0  0  0  0  0
   45.9678   31.1225   36.3140 H   0  0  0  0  0  0  0  0  0  0  0  0
   45.6658   31.7415   34.0070 H   0  0  0  0  0  0  0  0  0  0  0  0
   45.7827   33.2130   35.0344 H   0  0  0  0  0  0  0  0  0  0  0  0
   47.3982   33.8447   33.7453 H   0  0  0  0  0  0  0  0  0  0  0  0
   48.8261   31.3570   34.4899 H   0  0  0  0  0  0  0  0  0  0  0  0
   49.5671   32.8828   33.9469 H   0  0  0  0  0  0  0  0  0  0  0  0
   49.6417   32.8236   36.3752 H   0  0  0  0  0  0  0  0  0  0  0  0
   48.3799   34.0356   35.8592 H   0  0  0  0  0  0  0  0  0  0  0  0
  1  9  1  0
  2  1  2  0
  3  2  1  0
  4  5  1  0
  4  3  2  0
  5  6  2  0
  6  1  1  0
  7 12  2  0
  8  7  1  0
  9  8  2  0
  9 10  1  0
 10 11  2  0
 11 12  1  0
 13 15  1  0
 13  5  1  0
 14 13  1  0
 16 13  1  0
 17 16  1  0
 18 17  1  0
 19 18  1  0
 20 21  1  0
 20 19  1  0
 21 22  1  0
 22 17  1  0
  2 23  1  0
  3 24  1  0
  4 25  1  0
  6 26  1  0
  7 27  1  0
  8 28  1  0
 11 29  1  0
 14 30  1  0
 14 31  1  0
 14 32  1  0
 15 33  1  0
 15 34  1  0
 15 35  1  0
 16 36  1  0
 16 37  1  0
 18 38  1  0
 18 39  1  0
 19 40  1  0
 19 41  1  0
 20 42  1  0
 21 43  1  0
 21 44  1  0
 22 45  1  0
 22 46  1  0
M  ISO  8  23  14  24  14  25  14  26  14  27  14  28  14  29  14  30   8
M  ISO  8  31   8  32   8  33   8  34   8  35   8  36   8  37   8  38  13
M  ISO  8  39  13  40  13  41  13  42   5  43  13  44  13  45  13  46  13
M  END
>  <minimizedAffinity>  (1) 
-6.01913071

>  <minimizedRMSD>  (1) 
1.35862422

$$$$
