
     RDKit          3D

 38 40  0  0  0  0  0  0  0  0999 V2000
   46.8680   34.8220   42.0350 C   0  0  0  0  0  0  0  0  0  0  0  0
   48.0520   35.5110   41.9670 C   0  0  0  0  0  0  0  0  0  0  0  0
   48.8450   35.4480   40.8100 C   0  0  0  0  0  0  0  0  0  0  0  0
   48.4250   34.6820   39.7330 C   0  0  0  0  0  0  0  0  0  0  0  0
   47.2240   33.9830   39.8010 C   0  0  0  0  0  0  0  0  0  0  0  0
   46.4830   34.0770   40.9550 C   0  0  0  0  0  0  0  0  0  0  0  0
   44.4880   35.9250   44.7370 C   0  0  0  0  0  0  0  0  0  0  0  0
   45.1720   35.9430   43.5050 C   0  0  0  0  0  0  0  0  0  0  0  0
   46.0880   34.9280   43.2680 C   0  0  0  0  0  0  0  0  0  0  0  0
   46.2870   33.9700   44.2160 N   0  0  0  0  0  0  0  0  0  0  0  0
   45.5970   33.9990   45.3960 C   0  0  0  0  0  0  0  0  0  0  0  0
   44.7100   34.9660   45.6490 N   0  0  0  0  0  0  0  0  0  0  0  0
   46.8030   33.1680   38.6260 C   0  0  0  0  0  0  0  0  0  0  0  0
   45.2760   32.9630   38.6400 C   0  0  0  0  0  0  0  0  0  0  0  0
   47.4830   31.8200   38.7940 C   0  0  0  0  0  0  0  0  0  0  0  0
   47.1580   33.7920   37.3280 C   0  0  0  0  0  0  0  0  0  0  0  0
   47.4830   32.7610   36.2790 C   0  0  0  0  0  0  0  0  0  0  0  0
   46.5630   32.0070   35.5560 C   0  0  0  0  0  0  0  0  0  0  0  0
   47.6830   30.9660   34.4860 S   0  0  0  0  0  0  0  0  0  0  0  0
   49.1860   31.7800   35.2500 C   0  0  0  0  0  0  0  0  0  0  0  0
   48.7620   32.5080   35.9870 N   0  0  0  0  0  0  0  0  0  0  0  0
   48.3823   36.1165   42.8239 H   0  0  0  0  0  0  0  0  0  0  0  0
   49.7934   36.0028   40.7582 H   0  0  0  0  0  0  0  0  0  0  0  0
   49.0420   34.6270   38.8240 H   0  0  0  0  0  0  0  0  0  0  0  0
   45.5330   33.5254   41.0125 H   0  0  0  0  0  0  0  0  0  0  0  0
   43.7551   36.7154   44.9561 H   0  0  0  0  0  0  0  0  0  0  0  0
   44.9869   36.7310   42.7602 H   0  0  0  0  0  0  0  0  0  0  0  0
   45.7744   33.2156   46.1475 H   0  0  0  0  0  0  0  0  0  0  0  0
   44.9220   32.9155   39.6804 H   0  0  0  0  0  0  0  0  0  0  0  0
   44.7884   33.8037   38.1248 H   0  0  0  0  0  0  0  0  0  0  0  0
   45.0274   32.0234   38.1248 H   0  0  0  0  0  0  0  0  0  0  0  0
   47.5955   31.5970   39.8653 H   0  0  0  0  0  0  0  0  0  0  0  0
   46.8711   31.0389   38.3192 H   0  0  0  0  0  0  0  0  0  0  0  0
   48.4749   31.8479   38.3192 H   0  0  0  0  0  0  0  0  0  0  0  0
   46.3080   34.3974   36.9802 H   0  0  0  0  0  0  0  0  0  0  0  0
   48.0516   34.4146   37.4823 H   0  0  0  0  0  0  0  0  0  0  0  0
   45.4641   32.0211   35.6030 H   0  0  0  0  0  0  0  0  0  0  0  0
   50.2454   31.5867   35.0255 H   0  0  0  0  0  0  0  0  0  0  0  0
  1  9  1  0
  2  1  2  0
  3  2  1  0
  4  5  1  0
  4  3  2  0
  5  6  2  0
  6  1  1  0
  7 12  2  0
  8  7  1  0
  9  8  2  0
  9 10  1  0
 10 11  2  0
 11 12  1  0
 13 14  1  0
 13 15  1  0
 13  5  1  0
 16 13  1  0
 17 16  1  0
 18 17  2  0
 19 20  1  0
 19 18  1  0
 20 21  2  0
 21 17  1  0
  2 22  1  0
  3 23  1  0
  4 24  1  0
  6 25  1  0
  7 26  1  0
  8 27  1  0
 11 28  1  0
 14 29  1  0
 14 30  1  0
 14 31  1  0
 15 32  1  0
 15 33  1  0
 15 34  1  0
 16 35  1  0
 16 36  1  0
 18 37  1  0
 20 38  1  0
M  ISO  8  22  14  23  14  24  14  25  14  26  14  27  14  28  14  29   8
M  ISO  8  30   8  31   8  32   8  33   8  34   8  35   8  36   8  37  14
M  ISO  1  38  14
M  END
>  <minimizedAffinity>  (1) 
-5.70287991

>  <minimizedRMSD>  (1) 
1.0589875

$$$$
