
     RDKit          3D

 42 44  0  0  0  0  0  0  0  0999 V2000
   46.5900   33.0880   38.6020 C   0  0  0  0  0  0  0  0  0  0  0  0
   46.8030   34.7320   41.9950 C   0  0  0  0  0  0  0  0  0  0  0  0
   48.0000   35.3990   41.8910 C   0  0  0  0  0  0  0  0  0  0  0  0
   48.7500   35.3140   40.7080 C   0  0  0  0  0  0  0  0  0  0  0  0
   48.2810   34.5590   39.6440 C   0  0  0  0  0  0  0  0  0  0  0  0
   47.0690   33.8840   39.7490 C   0  0  0  0  0  0  0  0  0  0  0  0
   46.3760   33.9980   40.9240 C   0  0  0  0  0  0  0  0  0  0  0  0
   44.4940   35.9300   44.7220 C   0  0  0  0  0  0  0  0  0  0  0  0
   45.1560   35.9030   43.4830 C   0  0  0  0  0  0  0  0  0  0  0  0
   46.0630   34.8540   43.2480 C   0  0  0  0  0  0  0  0  0  0  0  0
   46.2590   33.9330   44.2060 N   0  0  0  0  0  0  0  0  0  0  0  0
   45.5940   34.0010   45.3930 C   0  0  0  0  0  0  0  0  0  0  0  0
   44.7230   34.9870   45.6460 N   0  0  0  0  0  0  0  0  0  0  0  0
   45.0770   32.9750   38.5660 C   0  0  0  0  0  0  0  0  0  0  0  0
   47.1590   31.6820   38.8140 C   0  0  0  0  0  0  0  0  0  0  0  0
   47.0470   33.6170   37.2710 C   0  0  0  0  0  0  0  0  0  0  0  0
   46.7270   32.6490   36.1640 C   0  0  0  0  0  0  0  0  0  0  0  0
   45.4730   32.4060   35.6380 C   0  0  0  0  0  0  0  0  0  0  0  0
   45.3240   31.4880   34.6210 C   0  0  0  0  0  0  0  0  0  0  0  0
   46.3800   30.7810   34.0870 C   0  0  0  0  0  0  0  0  0  0  0  0
   47.6420   31.0050   34.5950 C   0  0  0  0  0  0  0  0  0  0  0  0
   47.7860   31.9230   35.6110 C   0  0  0  0  0  0  0  0  0  0  0  0
   48.3702   35.9995   42.7350 H   0  0  0  0  0  0  0  0  0  0  0  0
   49.7092   35.8460   40.6250 H   0  0  0  0  0  0  0  0  0  0  0  0
   48.8677   34.4936   38.7159 H   0  0  0  0  0  0  0  0  0  0  0  0
   45.4170   33.4664   41.0116 H   0  0  0  0  0  0  0  0  0  0  0  0
   43.7776   36.7367   44.9365 H   0  0  0  0  0  0  0  0  0  0  0  0
   44.9712   36.6760   42.7226 H   0  0  0  0  0  0  0  0  0  0  0  0
   45.7756   33.2319   46.1581 H   0  0  0  0  0  0  0  0  0  0  0  0
   44.6869   32.9459   39.5941 H   0  0  0  0  0  0  0  0  0  0  0  0
   44.6568   33.8443   38.0389 H   0  0  0  0  0  0  0  0  0  0  0  0
   44.7906   32.0530   38.0389 H   0  0  0  0  0  0  0  0  0  0  0  0
   47.2414   31.4785   39.8919 H   0  0  0  0  0  0  0  0  0  0  0  0
   46.4896   30.9419   38.3512 H   0  0  0  0  0  0  0  0  0  0  0  0
   48.1547   31.6158   38.3512 H   0  0  0  0  0  0  0  0  0  0  0  0
   46.5396   34.5722   37.0707 H   0  0  0  0  0  0  0  0  0  0  0  0
   48.1373   33.7583   37.3071 H   0  0  0  0  0  0  0  0  0  0  0  0
   44.5966   32.9433   36.0295 H   0  0  0  0  0  0  0  0  0  0  0  0
   44.3163   31.3114   34.2169 H   0  0  0  0  0  0  0  0  0  0  0  0
   46.2197   30.0559   33.2755 H   0  0  0  0  0  0  0  0  0  0  0  0
   48.5131   30.4632   34.1980 H   0  0  0  0  0  0  0  0  0  0  0  0
   48.7957   32.0957   36.0119 H   0  0  0  0  0  0  0  0  0  0  0  0
  1 15  1  0
  1  6  1  0
  2 10  1  0
  3  2  2  0
  4  3  1  0
  5  6  1  0
  5  4  2  0
  6  7  2  0
  7  2  1  0
  8 13  2  0
  9  8  1  0
 10  9  2  0
 10 11  1  0
 11 12  2  0
 12 13  1  0
 14  1  1  0
 16  1  1  0
 17 16  1  0
 18 17  2  0
 19 18  1  0
 20 21  1  0
 20 19  2  0
 21 22  2  0
 22 17  1  0
  3 23  1  0
  4 24  1  0
  5 25  1  0
  7 26  1  0
  8 27  1  0
  9 28  1  0
 12 29  1  0
 14 30  1  0
 14 31  1  0
 14 32  1  0
 15 33  1  0
 15 34  1  0
 15 35  1  0
 16 36  1  0
 16 37  1  0
 18 38  1  0
 19 39  1  0
 20 40  1  0
 21 41  1  0
 22 42  1  0
M  ISO  8  23  14  24  14  25  14  26  14  27  14  28  14  29  14  30   8
M  ISO  8  31   8  32   8  33   8  34   8  35   8  36   8  37   8  38  14
M  ISO  4  39  14  40  14  41  14  42  14
M  END
>  <minimizedAffinity>  (1) 
-5.82157087

>  <minimizedRMSD>  (1) 
0.285778344

$$$$
