
     RDKit          3D

 33 34  0  0  0  0  0  0  0  0999 V2000
   46.7860   34.7110   41.9110 C   0  0  0  0  0  0  0  0  0  0  0  0
   47.9480   35.4260   41.7390 C   0  0  0  0  0  0  0  0  0  0  0  0
   48.7040   35.2890   40.5640 C   0  0  0  0  0  0  0  0  0  0  0  0
   48.2780   34.4290   39.5680 C   0  0  0  0  0  0  0  0  0  0  0  0
   47.1050   33.7000   39.7270 C   0  0  0  0  0  0  0  0  0  0  0  0
   46.3910   33.8640   40.9010 C   0  0  0  0  0  0  0  0  0  0  0  0
   44.5070   36.0350   44.5960 C   0  0  0  0  0  0  0  0  0  0  0  0
   45.1750   35.9520   43.3700 C   0  0  0  0  0  0  0  0  0  0  0  0
   46.0470   34.8910   43.1440 C   0  0  0  0  0  0  0  0  0  0  0  0
   46.2090   33.9830   44.1240 N   0  0  0  0  0  0  0  0  0  0  0  0
   45.5470   34.0850   45.3110 C   0  0  0  0  0  0  0  0  0  0  0  0
   44.7070   35.1030   45.5380 N   0  0  0  0  0  0  0  0  0  0  0  0
   46.6650   32.7890   38.6560 C   0  0  0  0  0  0  0  0  0  0  0  0
   46.1380   33.5500   37.4320 C   0  0  0  0  0  0  0  0  0  0  0  0
   45.5060   31.9890   39.2320 C   0  0  0  0  0  0  0  0  0  0  0  0
   47.7450   31.8720   38.1780 C   0  0  0  0  0  0  0  0  0  0  0  0
   48.0390   32.1590   36.4090 S   0  0  0  0  0  0  0  0  0  0  0  0
   48.2882   36.1115   42.5292 H   0  0  0  0  0  0  0  0  0  0  0  0
   49.6328   35.8642   40.4358 H   0  0  0  0  0  0  0  0  0  0  0  0
   48.8695   34.3215   38.6468 H   0  0  0  0  0  0  0  0  0  0  0  0
   45.4624   33.2893   41.0333 H   0  0  0  0  0  0  0  0  0  0  0  0
   43.8150   36.8683   44.7877 H   0  0  0  0  0  0  0  0  0  0  0  0
   45.0133   36.7153   42.5946 H   0  0  0  0  0  0  0  0  0  0  0  0
   45.7041   33.3241   46.0897 H   0  0  0  0  0  0  0  0  0  0  0  0
   45.5412   34.4119   37.7651 H   0  0  0  0  0  0  0  0  0  0  0  0
   46.9859   33.9031   36.8268 H   0  0  0  0  0  0  0  0  0  0  0  0
   45.5092   32.8805   36.8268 H   0  0  0  0  0  0  0  0  0  0  0  0
   45.5498   32.0192   40.3307 H   0  0  0  0  0  0  0  0  0  0  0  0
   44.5549   32.4239   38.8909 H   0  0  0  0  0  0  0  0  0  0  0  0
   45.5753   30.9455   38.8909 H   0  0  0  0  0  0  0  0  0  0  0  0
   48.6695   32.0689   38.7406 H   0  0  0  0  0  0  0  0  0  0  0  0
   47.4372   30.8277   38.3351 H   0  0  0  0  0  0  0  0  0  0  0  0
   49.0132   33.1100   36.2564 H   0  0  0  0  0  0  0  0  0  0  0  0
  1  9  1  0
  2  1  2  0
  3  2  1  0
  4  5  1  0
  4  3  2  0
  5  6  2  0
  6  1  1  0
  7 12  2  0
  8  7  1  0
  9  8  2  0
  9 10  1  0
 10 11  2  0
 11 12  1  0
 13 15  1  0
 13  5  1  0
 14 13  1  0
 16 13  1  0
 17 16  1  0
  2 18  1  0
  3 19  1  0
  4 20  1  0
  6 21  1  0
  7 22  1  0
  8 23  1  0
 11 24  1  0
 14 25  1  0
 14 26  1  0
 14 27  1  0
 15 28  1  0
 15 29  1  0
 15 30  1  0
 16 31  1  0
 16 32  1  0
 17 33  1  0
M  ISO  8  18  14  19  14  20  14  21  14  22  14  23  14  24  14  25   8
M  ISO  8  26   8  27   8  28   8  29   8  30   8  31   8  32   8  33  11
M  END
>  <minimizedAffinity>  (1) 
-4.96776199

>  <minimizedRMSD>  (1) 
1.14731836

$$$$
