
     RDKit          3D

 45 47  0  0  0  0  0  0  0  0999 V2000
   46.6540   34.6470   42.0190 C   0  0  0  0  0  0  0  0  0  0  0  0
   47.8370   35.3190   41.8270 C   0  0  0  0  0  0  0  0  0  0  0  0
   48.5460   35.1670   40.6400 C   0  0  0  0  0  0  0  0  0  0  0  0
   48.0600   34.3350   39.6430 C   0  0  0  0  0  0  0  0  0  0  0  0
   46.8620   33.6500   39.8250 C   0  0  0  0  0  0  0  0  0  0  0  0
   46.2080   33.8370   41.0130 C   0  0  0  0  0  0  0  0  0  0  0  0
   44.4760   36.0370   44.7690 C   0  0  0  0  0  0  0  0  0  0  0  0
   45.1060   35.9410   43.5180 C   0  0  0  0  0  0  0  0  0  0  0  0
   45.9480   34.8470   43.2870 C   0  0  0  0  0  0  0  0  0  0  0  0
   46.1190   33.9400   44.2600 N   0  0  0  0  0  0  0  0  0  0  0  0
   45.4880   34.0700   45.4620 C   0  0  0  0  0  0  0  0  0  0  0  0
   44.6840   35.0950   45.7120 N   0  0  0  0  0  0  0  0  0  0  0  0
   46.3370   32.7750   38.7440 C   0  0  0  0  0  0  0  0  0  0  0  0
   44.9650   33.1620   38.2800 C   0  0  0  0  0  0  0  0  0  0  0  0
   46.1870   31.3850   39.4340 C   0  0  0  0  0  0  0  0  0  0  0  0
   47.2960   32.6400   37.6200 C   0  0  0  0  0  0  0  0  0  0  0  0
   47.0400   31.6370   36.5740 C   0  0  0  0  0  0  0  0  0  0  0  0
   48.3260   30.7450   36.5700 C   0  0  0  0  0  0  0  0  0  0  0  0
   49.3350   31.7450   36.0530 C   0  0  0  0  0  0  0  0  0  0  0  0
   48.5570   32.7140   35.1780 C   0  0  0  0  0  0  0  0  0  0  0  0
   47.1710   32.1050   35.1430 C   0  0  0  0  0  0  0  0  0  0  0  0
   48.2252   35.9803   42.6157 H   0  0  0  0  0  0  0  0  0  0  0  0
   49.4928   35.7072   40.4922 H   0  0  0  0  0  0  0  0  0  0  0  0
   48.6228   34.2159   38.7054 H   0  0  0  0  0  0  0  0  0  0  0  0
   45.2608   33.2996   41.1680 H   0  0  0  0  0  0  0  0  0  0  0  0
   43.8088   36.8854   44.9815 H   0  0  0  0  0  0  0  0  0  0  0  0
   44.9426   36.7033   42.7420 H   0  0  0  0  0  0  0  0  0  0  0  0
   45.6491   33.3093   46.2401 H   0  0  0  0  0  0  0  0  0  0  0  0
   44.3205   33.3438   39.1527 H   0  0  0  0  0  0  0  0  0  0  0  0
   45.0277   34.0775   37.6734 H   0  0  0  0  0  0  0  0  0  0  0  0
   44.5401   32.3487   37.6734 H   0  0  0  0  0  0  0  0  0  0  0  0
   46.2010   31.5144   40.5263 H   0  0  0  0  0  0  0  0  0  0  0  0
   45.2341   30.9263   39.1313 H   0  0  0  0  0  0  0  0  0  0  0  0
   47.0201   30.7336   39.1313 H   0  0  0  0  0  0  0  0  0  0  0  0
   47.3461   33.6190   37.1210 H   0  0  0  0  0  0  0  0  0  0  0  0
   48.2174   32.2839   38.1038 H   0  0  0  0  0  0  0  0  0  0  0  0
   46.0359   31.2462   36.7954 H   0  0  0  0  0  0  0  0  0  0  0  0
   48.5814   30.3918   37.5800 H   0  0  0  0  0  0  0  0  0  0  0  0
   48.2467   29.8191   35.9814 H   0  0  0  0  0  0  0  0  0  0  0  0
   49.8057   32.2804   36.8907 H   0  0  0  0  0  0  0  0  0  0  0  0
   50.1388   31.2499   35.4884 H   0  0  0  0  0  0  0  0  0  0  0  0
   48.5358   33.7194   35.6238 H   0  0  0  0  0  0  0  0  0  0  0  0
   48.9979   32.8452   34.1788 H   0  0  0  0  0  0  0  0  0  0  0  0
   46.4052   32.8525   34.8884 H   0  0  0  0  0  0  0  0  0  0  0  0
   47.0357   31.3162   34.3884 H   0  0  0  0  0  0  0  0  0  0  0  0
  1  9  1  0
  2  1  2  0
  3  2  1  0
  4  5  1  0
  4  3  2  0
  5  6  2  0
  6  1  1  0
  7 12  2  0
  8  7  1  0
  9  8  2  0
  9 10  1  0
 10 11  2  0
 11 12  1  0
 13 15  1  0
 13  5  1  0
 14 13  1  0
 16 13  1  0
 17 16  1  0
 18 17  1  0
 19 18  1  0
 20 19  1  0
 21 20  1  0
 21 17  1  0
  2 22  1  0
  3 23  1  0
  4 24  1  0
  6 25  1  0
  7 26  1  0
  8 27  1  0
 11 28  1  0
 14 29  1  0
 14 30  1  0
 14 31  1  0
 15 32  1  0
 15 33  1  0
 15 34  1  0
 16 35  1  0
 16 36  1  0
 17 37  1  0
 18 38  1  0
 18 39  1  0
 19 40  1  0
 19 41  1  0
 20 42  1  0
 20 43  1  0
 21 44  1  0
 21 45  1  0
M  ISO  8  22  14  23  14  24  14  25  14  26  14  27  14  28  14  29   8
M  ISO  8  30   8  31   8  32   8  33   8  34   8  35   8  36   8  37  13
M  ISO  8  38  13  39  13  40  13  41  13  42  13  43  13  44  13  45  13
M  END
>  <minimizedAffinity>  (1) 
-5.44620991

>  <minimizedRMSD>  (1) 
0.743151784

$$$$
