
     RDKit          3D

 49 52  0  0  0  0  0  0  0  0999 V2000
   46.3080   32.7930   38.7330 C   0  0  0  0  0  0  0  0  0  0  0  0
   46.6160   34.6760   42.0020 C   0  0  0  0  0  0  0  0  0  0  0  0
   47.8260   35.3130   41.8150 C   0  0  0  0  0  0  0  0  0  0  0  0
   48.5350   35.1310   40.6330 C   0  0  0  0  0  0  0  0  0  0  0  0
   48.0430   34.3110   39.6320 C   0  0  0  0  0  0  0  0  0  0  0  0
   46.8060   33.6520   39.8080 C   0  0  0  0  0  0  0  0  0  0  0  0
   46.1700   33.8770   40.9880 C   0  0  0  0  0  0  0  0  0  0  0  0
   44.4630   36.0420   44.7580 C   0  0  0  0  0  0  0  0  0  0  0  0
   45.0780   35.9640   43.4930 C   0  0  0  0  0  0  0  0  0  0  0  0
   45.9110   34.8960   43.2510 C   0  0  0  0  0  0  0  0  0  0  0  0
   46.0970   33.9740   44.2480 N   0  0  0  0  0  0  0  0  0  0  0  0
   45.4810   34.0900   45.4570 C   0  0  0  0  0  0  0  0  0  0  0  0
   44.6780   35.1170   45.6940 N   0  0  0  0  0  0  0  0  0  0  0  0
   45.6840   31.5150   39.2760 C   0  0  0  0  0  0  0  0  0  0  0  0
   47.5340   32.3880   37.9170 C   0  0  0  0  0  0  0  0  0  0  0  0
   45.2980   33.4650   37.8500 C   0  0  0  0  0  0  0  0  0  0  0  0
   44.1430   32.5480   37.6220 C   0  0  0  0  0  0  0  0  0  0  0  0
   44.0970   31.4430   36.7600 C   0  0  0  0  0  0  0  0  0  0  0  0
   42.8660   30.8710   36.8460 N   0  0  0  0  0  0  0  0  0  0  0  0
   42.1460   31.5860   37.7350 C   0  0  0  0  0  0  0  0  0  0  0  0
   42.9110   32.6000   38.2070 N   0  0  0  0  0  0  0  0  0  0  0  0
   42.4650   33.5730   39.1740 C   0  0  0  0  0  0  0  0  0  0  0  0
   41.6460   34.5670   38.6300 C   0  0  0  0  0  0  0  0  0  0  0  0
   41.1390   35.5750   39.4390 C   0  0  0  0  0  0  0  0  0  0  0  0
   41.4320   35.6140   40.7860 C   0  0  0  0  0  0  0  0  0  0  0  0
   42.2420   34.6200   41.2960 C   0  0  0  0  0  0  0  0  0  0  0  0
   42.7580   33.6090   40.5120 C   0  0  0  0  0  0  0  0  0  0  0  0
   48.2302   35.9659   42.6026 H   0  0  0  0  0  0  0  0  0  0  0  0
   49.4976   35.6443   40.4916 H   0  0  0  0  0  0  0  0  0  0  0  0
   48.6139   34.1730   38.7019 H   0  0  0  0  0  0  0  0  0  0  0  0
   45.2066   33.3684   41.1405 H   0  0  0  0  0  0  0  0  0  0  0  0
   43.7908   36.8843   44.9784 H   0  0  0  0  0  0  0  0  0  0  0  0
   44.8984   36.7307   42.7250 H   0  0  0  0  0  0  0  0  0  0  0  0
   45.6499   33.3319   46.2360 H   0  0  0  0  0  0  0  0  0  0  0  0
   45.6960   31.5396   40.3757 H   0  0  0  0  0  0  0  0  0  0  0  0
   44.6455   31.4350   38.9223 H   0  0  0  0  0  0  0  0  0  0  0  0
   46.2596   30.6469   38.9223 H   0  0  0  0  0  0  0  0  0  0  0  0
   48.3544   32.1170   38.5978 H   0  0  0  0  0  0  0  0  0  0  0  0
   47.2835   31.5249   37.2828 H   0  0  0  0  0  0  0  0  0  0  0  0
   47.8470   33.2305   37.2828 H   0  0  0  0  0  0  0  0  0  0  0  0
   44.9435   34.3866   38.3348 H   0  0  0  0  0  0  0  0  0  0  0  0
   45.7640   33.7123   36.8847 H   0  0  0  0  0  0  0  0  0  0  0  0
   44.9211   31.0958   36.1195 H   0  0  0  0  0  0  0  0  0  0  0  0
   41.1064   31.3794   38.0291 H   0  0  0  0  0  0  0  0  0  0  0  0
   41.4025   34.5504   37.5574 H   0  0  0  0  0  0  0  0  0  0  0  0
   40.4958   36.3520   39.0002 H   0  0  0  0  0  0  0  0  0  0  0  0
   41.0336   36.4103   41.4319 H   0  0  0  0  0  0  0  0  0  0  0  0
   42.4855   34.6344   42.3686 H   0  0  0  0  0  0  0  0  0  0  0  0
   43.4010   32.8362   40.9585 H   0  0  0  0  0  0  0  0  0  0  0  0
  1 14  1  0
  1  6  1  0
  2 10  1  0
  3  2  2  0
  4  3  1  0
  5  6  1  0
  5  4  2  0
  6  7  2  0
  7  2  1  0
  8 13  2  0
  9  8  1  0
 10  9  2  0
 10 11  1  0
 11 12  2  0
 12 13  1  0
 15  1  1  0
 16  1  1  0
 17 16  1  0
 17 21  1  0
 18 19  1  0
 18 17  2  0
 19 20  2  0
 20 21  1  0
 21 22  1  0
 22 27  1  0
 23 22  2  0
 23 24  1  0
 24 25  2  0
 25 26  1  0
 27 26  2  0
  3 28  1  0
  4 29  1  0
  5 30  1  0
  7 31  1  0
  8 32  1  0
  9 33  1  0
 12 34  1  0
 14 35  1  0
 14 36  1  0
 14 37  1  0
 15 38  1  0
 15 39  1  0
 15 40  1  0
 16 41  1  0
 16 42  1  0
 18 43  1  0
 20 44  1  0
 23 45  1  0
 24 46  1  0
 25 47  1  0
 26 48  1  0
 27 49  1  0
M  ISO  8  28  14  29  14  30  14  31  14  32  14  33  14  34  14  35   8
M  ISO  8  36   8  37   8  38   8  39   8  40   8  41   8  42   8  43  14
M  ISO  6  44  14  45  14  46  14  47  14  48  14  49  14
M  END
>  <minimizedAffinity>  (1) 
-6.40615511

>  <minimizedRMSD>  (1) 
2.8380959

$$$$
