
     RDKit          3D

 46 49  0  0  0  0  0  0  0  0999 V2000
   46.8090   32.7540   38.7480 C   0  0  0  0  0  0  0  0  0  0  0  0
   46.8200   34.7000   41.9950 C   0  0  0  0  0  0  0  0  0  0  0  0
   47.9510   35.4720   41.8130 C   0  0  0  0  0  0  0  0  0  0  0  0
   48.7040   35.3640   40.6500 C   0  0  0  0  0  0  0  0  0  0  0  0
   48.3260   34.4740   39.6520 C   0  0  0  0  0  0  0  0  0  0  0  0
   47.1800   33.6830   39.8200 C   0  0  0  0  0  0  0  0  0  0  0  0
   46.4850   33.8360   40.9850 C   0  0  0  0  0  0  0  0  0  0  0  0
   44.5200   35.9010   44.7050 C   0  0  0  0  0  0  0  0  0  0  0  0
   45.1770   35.8720   43.4630 C   0  0  0  0  0  0  0  0  0  0  0  0
   46.0740   34.8550   43.2280 C   0  0  0  0  0  0  0  0  0  0  0  0
   46.2840   33.9260   44.2060 N   0  0  0  0  0  0  0  0  0  0  0  0
   45.6240   33.9910   45.3990 C   0  0  0  0  0  0  0  0  0  0  0  0
   44.7570   34.9700   45.6330 N   0  0  0  0  0  0  0  0  0  0  0  0
   46.1180   31.5030   39.2840 C   0  0  0  0  0  0  0  0  0  0  0  0
   48.1430   32.2750   38.1420 C   0  0  0  0  0  0  0  0  0  0  0  0
   45.9430   33.3480   37.6970 C   0  0  0  0  0  0  0  0  0  0  0  0
   44.7350   32.4810   37.4750 C   0  0  0  0  0  0  0  0  0  0  0  0
   44.6810   31.3000   36.7220 C   0  0  0  0  0  0  0  0  0  0  0  0
   43.4120   30.8170   36.7690 N   0  0  0  0  0  0  0  0  0  0  0  0
   42.6820   31.6670   37.5310 C   0  0  0  0  0  0  0  0  0  0  0  0
   43.4920   32.6690   37.9510 N   0  0  0  0  0  0  0  0  0  0  0  0
   43.0230   33.7290   38.7670 C   0  0  0  0  0  0  0  0  0  0  0  0
   41.8150   34.3390   38.5730 C   0  0  0  0  0  0  0  0  0  0  0  0
   41.6470   35.3080   39.5030 N   0  0  0  0  0  0  0  0  0  0  0  0
   42.7510   35.3150   40.2880 C   0  0  0  0  0  0  0  0  0  0  0  0
   43.5820   34.3510   39.8330 N   0  0  0  0  0  0  0  0  0  0  0  0
   48.2588   36.1797   42.5969 H   0  0  0  0  0  0  0  0  0  0  0  0
   49.6023   35.9852   40.5190 H   0  0  0  0  0  0  0  0  0  0  0  0
   48.9240   34.3901   38.7326 H   0  0  0  0  0  0  0  0  0  0  0  0
   45.5860   33.2176   41.1240 H   0  0  0  0  0  0  0  0  0  0  0  0
   43.7985   36.7039   44.9164 H   0  0  0  0  0  0  0  0  0  0  0  0
   44.9800   36.6401   42.7006 H   0  0  0  0  0  0  0  0  0  0  0  0
   45.8109   33.2292   46.1702 H   0  0  0  0  0  0  0  0  0  0  0  0
   46.1281   31.5213   40.3838 H   0  0  0  0  0  0  0  0  0  0  0  0
   45.0778   31.4773   38.9272 H   0  0  0  0  0  0  0  0  0  0  0  0
   46.6501   30.6088   38.9272 H   0  0  0  0  0  0  0  0  0  0  0  0
   48.8440   32.0233   38.9514 H   0  0  0  0  0  0  0  0  0  0  0  0
   47.9649   31.3847   37.5211 H   0  0  0  0  0  0  0  0  0  0  0  0
   48.5720   33.0753   37.5211 H   0  0  0  0  0  0  0  0  0  0  0  0
   45.6188   34.3497   38.0154 H   0  0  0  0  0  0  0  0  0  0  0  0
   46.5124   33.4207   36.7587 H   0  0  0  0  0  0  0  0  0  0  0  0
   45.5238   30.8416   36.1839 H   0  0  0  0  0  0  0  0  0  0  0  0
   41.6131   31.5616   37.7684 H   0  0  0  0  0  0  0  0  0  0  0  0
   41.0924   34.0824   37.7843 H   0  0  0  0  0  0  0  0  0  0  0  0
   42.9374   35.9840   41.1411 H   0  0  0  0  0  0  0  0  0  0  0  0
   44.5021   34.1234   40.2361 H   0  0  0  0  0  0  0  0  0  0  0  0
  1 14  1  0
  1  6  1  0
  2 10  1  0
  3  2  2  0
  4  3  1  0
  5  6  1  0
  5  4  2  0
  6  7  2  0
  7  2  1  0
  8 13  2  0
  9  8  1  0
 10  9  2  0
 10 11  1  0
 11 12  2  0
 12 13  1  0
 15  1  1  0
 16  1  1  0
 17 16  1  0
 17 21  1  0
 18 19  1  0
 18 17  2  0
 19 20  2  0
 20 21  1  0
 21 22  1  0
 22 26  1  0
 23 22  2  0
 23 24  1  0
 24 25  2  0
 26 25  1  0
  3 27  1  0
  4 28  1  0
  5 29  1  0
  7 30  1  0
  8 31  1  0
  9 32  1  0
 12 33  1  0
 14 34  1  0
 14 35  1  0
 14 36  1  0
 15 37  1  0
 15 38  1  0
 15 39  1  0
 16 40  1  0
 16 41  1  0
 18 42  1  0
 20 43  1  0
 23 44  1  0
 25 45  1  0
 26 46  1  0
M  ISO  8  27  14  28  14  29  14  30  14  31  14  32  14  33  14  34   8
M  ISO  8  35   8  36   8  37   8  38   8  39   8  40   8  41   8  42  14
M  ISO  4  43  14  44  14  45  14  46   9
M  END
>  <minimizedAffinity>  (1) 
-6.07932854

>  <minimizedRMSD>  (1) 
2.33079243

$$$$
