
     RDKit          3D

 44 47  0  0  0  0  0  0  0  0999 V2000
   46.5430   32.6690   38.8080 C   0  0  0  0  0  0  0  0  0  0  0  0
   46.7020   34.6450   42.0320 C   0  0  0  0  0  0  0  0  0  0  0  0
   47.8550   35.3750   41.8260 C   0  0  0  0  0  0  0  0  0  0  0  0
   48.5840   35.2270   40.6440 C   0  0  0  0  0  0  0  0  0  0  0  0
   48.1510   34.3430   39.6610 C   0  0  0  0  0  0  0  0  0  0  0  0
   46.9760   33.5960   39.8610 C   0  0  0  0  0  0  0  0  0  0  0  0
   46.3150   33.7900   41.0380 C   0  0  0  0  0  0  0  0  0  0  0  0
   44.4850   35.9730   44.7660 C   0  0  0  0  0  0  0  0  0  0  0  0
   45.1250   35.8900   43.5170 C   0  0  0  0  0  0  0  0  0  0  0  0
   45.9820   34.8390   43.2810 C   0  0  0  0  0  0  0  0  0  0  0  0
   46.1720   33.9240   44.2670 N   0  0  0  0  0  0  0  0  0  0  0  0
   45.5400   34.0310   45.4620 C   0  0  0  0  0  0  0  0  0  0  0  0
   44.7060   35.0490   45.7010 N   0  0  0  0  0  0  0  0  0  0  0  0
   45.8190   31.4600   39.3690 C   0  0  0  0  0  0  0  0  0  0  0  0
   47.8380   32.1450   38.1650 C   0  0  0  0  0  0  0  0  0  0  0  0
   45.6730   33.3000   37.7720 C   0  0  0  0  0  0  0  0  0  0  0  0
   44.4700   32.4500   37.5400 C   0  0  0  0  0  0  0  0  0  0  0  0
   44.4000   31.2720   36.7800 C   0  0  0  0  0  0  0  0  0  0  0  0
   43.1280   30.7960   36.8150 N   0  0  0  0  0  0  0  0  0  0  0  0
   42.3990   31.6470   37.5770 C   0  0  0  0  0  0  0  0  0  0  0  0
   43.2170   32.6380   38.0070 N   0  0  0  0  0  0  0  0  0  0  0  0
   42.7530   33.7000   38.8290 C   0  0  0  0  0  0  0  0  0  0  0  0
   41.7120   34.4910   38.5750 N   0  0  0  0  0  0  0  0  0  0  0  0
   41.5610   35.3590   39.5310 O   0  0  0  0  0  0  0  0  0  0  0  0
   42.4870   35.1780   40.4440 C   0  0  0  0  0  0  0  0  0  0  0  0
   43.2420   34.1460   40.0240 N   0  0  0  0  0  0  0  0  0  0  0  0
   48.2020   36.0779   42.5977 H   0  0  0  0  0  0  0  0  0  0  0  0
   49.5033   35.8111   40.4899 H   0  0  0  0  0  0  0  0  0  0  0  0
   48.7257   34.2285   38.7301 H   0  0  0  0  0  0  0  0  0  0  0  0
   45.3943   33.2106   41.2010 H   0  0  0  0  0  0  0  0  0  0  0  0
   43.7972   36.8061   44.9731 H   0  0  0  0  0  0  0  0  0  0  0  0
   44.9443   36.6505   42.7430 H   0  0  0  0  0  0  0  0  0  0  0  0
   45.7147   33.2744   46.2412 H   0  0  0  0  0  0  0  0  0  0  0  0
   45.8411   31.4968   40.4682 H   0  0  0  0  0  0  0  0  0  0  0  0
   44.7749   31.4646   39.0228 H   0  0  0  0  0  0  0  0  0  0  0  0
   46.3160   30.5418   39.0228 H   0  0  0  0  0  0  0  0  0  0  0  0
   48.5487   31.8574   38.9538 H   0  0  0  0  0  0  0  0  0  0  0  0
   47.6089   31.2688   37.5406 H   0  0  0  0  0  0  0  0  0  0  0  0
   48.2827   32.9340   37.5406 H   0  0  0  0  0  0  0  0  0  0  0  0
   45.3564   34.2953   38.1173 H   0  0  0  0  0  0  0  0  0  0  0  0
   46.2371   33.3969   36.8326 H   0  0  0  0  0  0  0  0  0  0  0  0
   45.2403   30.8085   36.2423 H   0  0  0  0  0  0  0  0  0  0  0  0
   41.3277   31.5500   37.8069 H   0  0  0  0  0  0  0  0  0  0  0  0
   42.6197   35.7563   41.3703 H   0  0  0  0  0  0  0  0  0  0  0  0
  1 14  1  0
  1  6  1  0
  2 10  1  0
  3  2  2  0
  4  3  1  0
  5  6  1  0
  5  4  2  0
  6  7  2  0
  7  2  1  0
  8 13  2  0
  9  8  1  0
 10  9  2  0
 10 11  1  0
 11 12  2  0
 12 13  1  0
 15  1  1  0
 16  1  1  0
 17 16  1  0
 17 21  1  0
 18 19  1  0
 18 17  2  0
 19 20  2  0
 20 21  1  0
 21 22  1  0
 22 26  1  0
 23 22  2  0
 23 24  1  0
 24 25  1  0
 26 25  2  0
  3 27  1  0
  4 28  1  0
  5 29  1  0
  7 30  1  0
  8 31  1  0
  9 32  1  0
 12 33  1  0
 14 34  1  0
 14 35  1  0
 14 36  1  0
 15 37  1  0
 15 38  1  0
 15 39  1  0
 16 40  1  0
 16 41  1  0
 18 42  1  0
 20 43  1  0
 25 44  1  0
M  ISO  8  27  14  28  14  29  14  30  14  31  14  32  14  33  14  34   8
M  ISO  8  35   8  36   8  37   8  38   8  39   8  40   8  41   8  42  14
M  ISO  2  43  14  44  14
M  END
>  <minimizedAffinity>  (1) 
-6.26300287

>  <minimizedRMSD>  (1) 
2.42067099

$$$$
