
     RDKit          3D

 46 49  0  0  0  0  0  0  0  0999 V2000
   46.2660   32.8010   38.7470 C   0  0  0  0  0  0  0  0  0  0  0  0
   46.5960   34.6670   42.0220 C   0  0  0  0  0  0  0  0  0  0  0  0
   47.8100   35.2950   41.8270 C   0  0  0  0  0  0  0  0  0  0  0  0
   48.5170   35.1160   40.6440 C   0  0  0  0  0  0  0  0  0  0  0  0
   48.0110   34.3000   39.6390 C   0  0  0  0  0  0  0  0  0  0  0  0
   46.7810   33.6550   39.8220 C   0  0  0  0  0  0  0  0  0  0  0  0
   46.1350   33.8730   41.0070 C   0  0  0  0  0  0  0  0  0  0  0  0
   44.4710   36.0560   44.7880 C   0  0  0  0  0  0  0  0  0  0  0  0
   45.0810   35.9670   43.5230 C   0  0  0  0  0  0  0  0  0  0  0  0
   45.9020   34.8900   43.2760 C   0  0  0  0  0  0  0  0  0  0  0  0
   46.0770   33.9730   44.2630 N   0  0  0  0  0  0  0  0  0  0  0  0
   45.4670   34.0920   45.4780 C   0  0  0  0  0  0  0  0  0  0  0  0
   44.6790   35.1260   45.7200 N   0  0  0  0  0  0  0  0  0  0  0  0
   45.6480   31.5110   39.2840 C   0  0  0  0  0  0  0  0  0  0  0  0
   47.4930   32.3870   37.9220 C   0  0  0  0  0  0  0  0  0  0  0  0
   45.2550   33.4730   37.8780 C   0  0  0  0  0  0  0  0  0  0  0  0
   44.1140   32.5380   37.6160 C   0  0  0  0  0  0  0  0  0  0  0  0
   44.1410   31.3690   36.8380 C   0  0  0  0  0  0  0  0  0  0  0  0
   42.9090   30.8020   36.8520 N   0  0  0  0  0  0  0  0  0  0  0  0
   42.1160   31.5890   37.6200 C   0  0  0  0  0  0  0  0  0  0  0  0
   42.8440   32.6370   38.0790 N   0  0  0  0  0  0  0  0  0  0  0  0
   42.2710   33.6330   38.8980 C   0  0  0  0  0  0  0  0  0  0  0  0
   41.3800   34.6050   38.4260 C   0  0  0  0  0  0  0  0  0  0  0  0
   40.8750   35.5300   39.2950 C   0  0  0  0  0  0  0  0  0  0  0  0
   41.3150   35.4390   40.7070 C   0  0  0  0  0  0  0  0  0  0  0  0
   42.4760   33.9370   40.6110 S   0  0  0  0  0  0  0  0  0  0  0  0
   48.2213   35.9429   42.6151 H   0  0  0  0  0  0  0  0  0  0  0  0
   49.4828   35.6231   40.5022 H   0  0  0  0  0  0  0  0  0  0  0  0
   48.5739   34.1613   38.7041 H   0  0  0  0  0  0  0  0  0  0  0  0
   45.1680   33.3704   41.1565 H   0  0  0  0  0  0  0  0  0  0  0  0
   43.8114   36.9074   45.0115 H   0  0  0  0  0  0  0  0  0  0  0  0
   44.9070   36.7348   42.7548 H   0  0  0  0  0  0  0  0  0  0  0  0
   45.6304   33.3297   46.2540 H   0  0  0  0  0  0  0  0  0  0  0  0
   45.6572   31.5302   40.3838 H   0  0  0  0  0  0  0  0  0  0  0  0
   44.6110   31.4251   38.9274 H   0  0  0  0  0  0  0  0  0  0  0  0
   46.2309   30.6490   38.9274 H   0  0  0  0  0  0  0  0  0  0  0  0
   48.3140   32.1100   38.5997 H   0  0  0  0  0  0  0  0  0  0  0  0
   47.2349   31.5262   37.2877 H   0  0  0  0  0  0  0  0  0  0  0  0
   47.8092   33.2282   37.2877 H   0  0  0  0  0  0  0  0  0  0  0  0
   44.8800   34.3751   38.3835 H   0  0  0  0  0  0  0  0  0  0  0  0
   45.7236   33.7529   36.9230 H   0  0  0  0  0  0  0  0  0  0  0  0
   45.0190   30.9769   36.3039 H   0  0  0  0  0  0  0  0  0  0  0  0
   41.0529   31.4067   37.8361 H   0  0  0  0  0  0  0  0  0  0  0  0
   41.0895   34.6234   37.3652 H   0  0  0  0  0  0  0  0  0  0  0  0
   40.1727   36.3081   38.9613 H   0  0  0  0  0  0  0  0  0  0  0  0
   41.0451   36.0657   41.5698 H   0  0  0  0  0  0  0  0  0  0  0  0
  1 14  1  0
  1  6  1  0
  2 10  1  0
  3  2  2  0
  4  3  1  0
  5  6  1  0
  5  4  2  0
  6  7  2  0
  7  2  1  0
  8 13  2  0
  9  8  1  0
 10  9  2  0
 10 11  1  0
 11 12  2  0
 12 13  1  0
 15  1  1  0
 16  1  1  0
 17 16  1  0
 17 21  1  0
 18 19  1  0
 18 17  2  0
 19 20  2  0
 20 21  1  0
 21 22  1  0
 22 26  1  0
 23 22  2  0
 23 24  1  0
 24 25  2  0
 26 25  1  0
  3 27  1  0
  4 28  1  0
  5 29  1  0
  7 30  1  0
  8 31  1  0
  9 32  1  0
 12 33  1  0
 14 34  1  0
 14 35  1  0
 14 36  1  0
 15 37  1  0
 15 38  1  0
 15 39  1  0
 16 40  1  0
 16 41  1  0
 18 42  1  0
 20 43  1  0
 23 44  1  0
 24 45  1  0
 25 46  1  0
M  ISO  8  27  14  28  14  29  14  30  14  31  14  32  14  33  14  34   8
M  ISO  8  35   8  36   8  37   8  38   8  39   8  40   8  41   8  42  14
M  ISO  4  43  14  44  14  45  14  46  14
M  END
>  <minimizedAffinity>  (1) 
-6.17566824

>  <minimizedRMSD>  (1) 
2.64841104

$$$$
