
     RDKit          3D

 36 37  0  0  0  0  0  0  0  0999 V2000
   46.5820   30.7650   48.0450 C   0  0  0  0  0  0  0  0  0  0  0  0
   46.9670   32.5630   44.8560 C   0  0  0  0  0  0  0  0  0  0  0  0
   46.1110   33.6810   44.9800 C   0  0  0  0  0  0  0  0  0  0  0  0
   45.4210   33.7540   46.2020 C   0  0  0  0  0  0  0  0  0  0  0  0
   45.5890   32.8160   47.1510 N   0  0  0  0  0  0  0  0  0  0  0  0
   46.4130   31.7710   46.9860 C   0  0  0  0  0  0  0  0  0  0  0  0
   47.0710   31.6810   45.8490 N   0  0  0  0  0  0  0  0  0  0  0  0
   45.9530   34.6580   43.9600 N   0  0  0  0  0  0  0  0  0  0  0  0
   44.7520   34.8630   43.2330 C   0  0  0  0  0  0  0  0  0  0  0  0
   44.0890   33.7610   42.9090 N   0  0  0  0  0  0  0  0  0  0  0  0
   44.4050   36.2280   42.9410 N   0  0  0  0  0  0  0  0  0  0  0  0
   43.2170   33.8030   42.3680 H   0  0  0  0  0  0  0  0  0  0  0  0
   47.7680   31.1790   48.9450 C   0  0  0  0  0  0  0  0  0  0  0  0
   45.3270   30.8300   48.9110 C   0  0  0  0  0  0  0  0  0  0  0  0
   46.8620   29.3710   47.5970 C   0  0  0  0  0  0  0  0  0  0  0  0
   45.7540   28.5280   47.3270 N   0  0  0  0  0  0  0  0  0  0  0  0
   45.1460   28.6430   46.1080 C   0  0  0  0  0  0  0  0  0  0  0  0
   44.0780   27.7840   45.9770 C   0  0  0  0  0  0  0  0  0  0  0  0
   44.0300   27.1210   47.1570 N   0  0  0  0  0  0  0  0  0  0  0  0
   45.0150   27.5770   47.9170 C   0  0  0  0  0  0  0  0  0  0  0  0
   47.5505   32.4204   43.9345 H   0  0  0  0  0  0  0  0  0  0  0  0
   44.7323   34.5919   46.3853 H   0  0  0  0  0  0  0  0  0  0  0  0
   46.7615   35.2549   43.7343 H   0  0  0  0  0  0  0  0  0  0  0  0
   43.5445   36.4396   42.4160 H   0  0  0  0  0  0  0  0  0  0  0  0
   45.0171   36.9938   43.2569 H   0  0  0  0  0  0  0  0  0  0  0  0
   47.4791   31.0782   50.0016 H   0  0  0  0  0  0  0  0  0  0  0  0
   48.6305   30.5288   48.7370 H   0  0  0  0  0  0  0  0  0  0  0  0
   48.0385   32.2247   48.7370 H   0  0  0  0  0  0  0  0  0  0  0  0
   45.6132   30.8152   49.9730 H   0  0  0  0  0  0  0  0  0  0  0  0
   44.7781   31.7578   48.6921 H   0  0  0  0  0  0  0  0  0  0  0  0
   44.6852   29.9639   48.6921 H   0  0  0  0  0  0  0  0  0  0  0  0
   47.4571   29.4363   46.6742 H   0  0  0  0  0  0  0  0  0  0  0  0
   47.3656   28.9004   48.4543 H   0  0  0  0  0  0  0  0  0  0  0  0
   45.4722   29.3409   45.3228 H   0  0  0  0  0  0  0  0  0  0  0  0
   43.4131   27.6633   45.1090 H   0  0  0  0  0  0  0  0  0  0  0  0
   45.2084   27.2101   48.9358 H   0  0  0  0  0  0  0  0  0  0  0  0
  1 14  1  0
  1 13  1  0
  2  3  2  0
  2  7  1  0
  3  4  1  0
  4  5  2  0
  6  5  1  0
  6  1  1  0
  7  6  2  0
  8  3  1  0
  9  8  1  0
 10  9  2  0
 11  9  1  0
 12 10  1  0
 15  1  1  0
 16 15  1  0
 16 20  1  0
 17 16  1  0
 18 17  2  0
 18 19  1  0
 19 20  2  0
  2 21  1  0
  4 22  1  0
  8 23  1  0
 11 24  1  0
 11 25  1  0
 13 26  1  0
 13 27  1  0
 13 28  1  0
 14 29  1  0
 14 30  1  0
 14 31  1  0
 15 32  1  0
 15 33  1  0
 17 34  1  0
 18 35  1  0
 20 36  1  0
M  ISO  8  21  14  22  14  26   8  27   8  28   8  29   8  30   8  31   8
M  ISO  5  32   8  33   8  34  14  35  14  36  14
M  END
>  <minimizedAffinity>  (1) 
-4.63620043

>  <minimizedRMSD>  (1) 
4.09262705

$$$$
