
     RDKit          3D

 37 38  0  0  0  0  0  0  0  0999 V2000
   44.7180   34.2790   42.1780 C   0  0  0  0  0  0  0  0  0  0  0  0
   48.0800   34.2690   40.6300 C   0  0  0  0  0  0  0  0  0  0  0  0
   48.6900   33.1130   41.1340 C   0  0  0  0  0  0  0  0  0  0  0  0
   47.8920   32.3750   42.0060 C   0  0  0  0  0  0  0  0  0  0  0  0
   46.6400   32.7620   42.3230 N   0  0  0  0  0  0  0  0  0  0  0  0
   46.0990   33.8890   41.8050 C   0  0  0  0  0  0  0  0  0  0  0  0
   46.8390   34.6220   40.9630 N   0  0  0  0  0  0  0  0  0  0  0  0
   50.0060   32.6950   40.8100 N   0  0  0  0  0  0  0  0  0  0  0  0
   51.0900   32.6430   41.7100 C   0  0  0  0  0  0  0  0  0  0  0  0
   51.1440   33.6150   42.5960 N   0  0  0  0  0  0  0  0  0  0  0  0
   51.9830   31.5210   41.5150 N   0  0  0  0  0  0  0  0  0  0  0  0
   51.8910   33.6360   43.3100 H   0  0  0  0  0  0  0  0  0  0  0  0
   43.7930   33.0870   41.9730 C   0  0  0  0  0  0  0  0  0  0  0  0
   44.7440   34.6420   43.6400 C   0  0  0  0  0  0  0  0  0  0  0  0
   44.1810   35.4350   41.3680 C   0  0  0  0  0  0  0  0  0  0  0  0
   42.7800   35.2950   40.9980 C   0  0  0  0  0  0  0  0  0  0  0  0
   42.5740   35.0620   39.6350 C   0  0  0  0  0  0  0  0  0  0  0  0
   41.3140   34.9030   39.1050 C   0  0  0  0  0  0  0  0  0  0  0  0
   40.2430   34.9750   39.9360 N   0  0  0  0  0  0  0  0  0  0  0  0
   40.4970   35.2020   41.2430 C   0  0  0  0  0  0  0  0  0  0  0  0
   41.7070   35.3650   41.8160 N   0  0  0  0  0  0  0  0  0  0  0  0
   48.6452   34.9076   39.9351 H   0  0  0  0  0  0  0  0  0  0  0  0
   48.2945   31.4515   42.4478 H   0  0  0  0  0  0  0  0  0  0  0  0
   50.1844   32.4058   39.8377 H   0  0  0  0  0  0  0  0  0  0  0  0
   52.8028   31.4028   42.1272 H   0  0  0  0  0  0  0  0  0  0  0  0
   51.7988   30.8406   40.7640 H   0  0  0  0  0  0  0  0  0  0  0  0
   43.4847   32.6897   42.9513 H   0  0  0  0  0  0  0  0  0  0  0  0
   42.9035   33.4057   41.4098 H   0  0  0  0  0  0  0  0  0  0  0  0
   44.3226   32.3045   41.4098 H   0  0  0  0  0  0  0  0  0  0  0  0
   44.6784   33.7265   44.2463 H   0  0  0  0  0  0  0  0  0  0  0  0
   45.6821   35.1681   43.8706 H   0  0  0  0  0  0  0  0  0  0  0  0
   43.8904   35.2964   43.8706 H   0  0  0  0  0  0  0  0  0  0  0  0
   44.2925   36.3548   41.9609 H   0  0  0  0  0  0  0  0  0  0  0  0
   44.7574   35.4640   40.4316 H   0  0  0  0  0  0  0  0  0  0  0  0
   43.4453   35.0040   38.9661 H   0  0  0  0  0  0  0  0  0  0  0  0
   41.1773   34.7211   38.0288 H   0  0  0  0  0  0  0  0  0  0  0  0
   39.6248   35.2601   41.9107 H   0  0  0  0  0  0  0  0  0  0  0  0
  1 14  1  0
  2  7  2  0
  2  3  1  0
  3  4  2  0
  4  5  1  0
  6  1  1  0
  6  5  2  0
  7  6  1  0
  8  3  1  0
  8  9  1  0
  9 10  2  0
 10 12  1  0
 11  9  1  0
 13  1  1  0
 15  1  1  0
 16 15  1  0
 16 21  1  0
 17 16  2  0
 18 17  1  0
 18 19  2  0
 19 20  1  0
 20 21  2  0
  2 22  1  0
  4 23  1  0
  8 24  1  0
 11 25  1  0
 11 26  1  0
 13 27  1  0
 13 28  1  0
 13 29  1  0
 14 30  1  0
 14 31  1  0
 14 32  1  0
 15 33  1  0
 15 34  1  0
 17 35  1  0
 18 36  1  0
 20 37  1  0
M  ISO  8  22  14  23  14  27   8  28   8  29   8  30   8  31   8  32   8
M  ISO  5  33   8  34   8  35  14  36  14  37  14
M  END
>  <minimizedAffinity>  (1) 
-5.19061422

>  <minimizedRMSD>  (1) 
7.9682312

$$$$
