
     RDKit          3D

 40 42  0  0  0  0  0  0  0  0999 V2000
   47.0230   30.8580   46.7380 C   0  0  0  0  0  0  0  0  0  0  0  0
   45.3670   34.1000   46.0580 C   0  0  0  0  0  0  0  0  0  0  0  0
   45.0720   34.0540   44.6830 C   0  0  0  0  0  0  0  0  0  0  0  0
   45.4710   32.8790   44.0590 C   0  0  0  0  0  0  0  0  0  0  0  0
   46.0870   31.8790   44.7230 N   0  0  0  0  0  0  0  0  0  0  0  0
   46.3470   31.9790   46.0530 C   0  0  0  0  0  0  0  0  0  0  0  0
   45.9780   33.0940   46.6930 N   0  0  0  0  0  0  0  0  0  0  0  0
   44.4250   35.1070   43.9860 N   0  0  0  0  0  0  0  0  0  0  0  0
   44.8590   35.6170   42.7410 C   0  0  0  0  0  0  0  0  0  0  0  0
   46.1690   35.7160   42.5740 N   0  0  0  0  0  0  0  0  0  0  0  0
   43.7890   35.9600   41.8230 N   0  0  0  0  0  0  0  0  0  0  0  0
   46.5480   36.0750   41.6920 H   0  0  0  0  0  0  0  0  0  0  0  0
   45.9610   29.9010   47.2660 C   0  0  0  0  0  0  0  0  0  0  0  0
   47.8600   30.1450   45.7040 C   0  0  0  0  0  0  0  0  0  0  0  0
   47.8670   31.3160   47.9070 C   0  0  0  0  0  0  0  0  0  0  0  0
   48.6660   30.2930   48.4700 N   0  0  0  0  0  0  0  0  0  0  0  0
   48.6940   29.0030   48.0320 C   0  0  0  0  0  0  0  0  0  0  0  0
   49.5420   28.1940   48.7320 N   0  0  0  0  0  0  0  0  0  0  0  0
   50.0810   29.0250   49.6680 C   0  0  0  0  0  0  0  0  0  0  0  0
   51.0120   28.8270   50.6870 C   0  0  0  0  0  0  0  0  0  0  0  0
   51.3710   29.8660   51.4870 N   0  0  0  0  0  0  0  0  0  0  0  0
   50.8280   31.0830   51.2950 C   0  0  0  0  0  0  0  0  0  0  0  0
   49.9210   31.3000   50.3100 N   0  0  0  0  0  0  0  0  0  0  0  0
   49.5440   30.2750   49.4930 C   0  0  0  0  0  0  0  0  0  0  0  0
   45.0850   34.9955   46.6312 H   0  0  0  0  0  0  0  0  0  0  0  0
   45.2775   32.7592   42.9828 H   0  0  0  0  0  0  0  0  0  0  0  0
   43.5869   35.5259   44.4138 H   0  0  0  0  0  0  0  0  0  0  0  0
   44.0114   36.3391   40.8915 H   0  0  0  0  0  0  0  0  0  0  0  0
   42.8071   35.8243   42.1028 H   0  0  0  0  0  0  0  0  0  0  0  0
   45.9724   29.9113   48.3659 H   0  0  0  0  0  0  0  0  0  0  0  0
   44.9708   30.2177   46.9066 H   0  0  0  0  0  0  0  0  0  0  0  0
   46.1733   28.8833   46.9066 H   0  0  0  0  0  0  0  0  0  0  0  0
   48.6042   29.5111   46.2083 H   0  0  0  0  0  0  0  0  0  0  0  0
   47.2105   29.5184   45.0751 H   0  0  0  0  0  0  0  0  0  0  0  0
   48.3753   30.8859   45.0751 H   0  0  0  0  0  0  0  0  0  0  0  0
   48.5297   32.1229   47.5612 H   0  0  0  0  0  0  0  0  0  0  0  0
   47.1726   31.6490   48.6925 H   0  0  0  0  0  0  0  0  0  0  0  0
   48.0863   28.6447   47.1880 H   0  0  0  0  0  0  0  0  0  0  0  0
   51.4550   27.8323   50.8433 H   0  0  0  0  0  0  0  0  0  0  0  0
   51.1252   31.9163   51.9487 H   0  0  0  0  0  0  0  0  0  0  0  0
  1 13  1  0
  1 15  1  0
  2  7  2  0
  3  2  1  0
  4  3  2  0
  4  5  1  0
  5  6  2  0
  6  7  1  0
  6  1  1  0
  8  3  1  0
  9  8  1  0
 10  9  2  0
 11  9  1  0
 12 10  1  0
 14  1  1  0
 15 16  1  0
 16 24  1  0
 17 16  1  0
 17 18  2  0
 18 19  1  0
 19 20  2  0
 20 21  1  0
 22 21  2  0
 23 22  1  0
 24 19  1  0
 24 23  2  0
  2 25  1  0
  4 26  1  0
  8 27  1  0
 11 28  1  0
 11 29  1  0
 13 30  1  0
 13 31  1  0
 13 32  1  0
 14 33  1  0
 14 34  1  0
 14 35  1  0
 15 36  1  0
 15 37  1  0
 17 38  1  0
 20 39  1  0
 22 40  1  0
M  ISO  8  25  14  26  14  30   8  31   8  32   8  33   8  34   8  35   8
M  ISO  5  36   8  37   8  38  14  39  14  40  14
M  END
>  <minimizedAffinity>  (1) 
-5.05154753

>  <minimizedRMSD>  (1) 
0.999534488

$$$$
