
     RDKit          3D

 30 30  0  0  0  0  0  0  0  0999 V2000
   45.4670   34.0100   45.5580 C   0  0  0  0  0  0  0  0  0  0  0  0
   45.2390   33.5310   44.2550 C   0  0  0  0  0  0  0  0  0  0  0  0
   45.6180   32.1990   44.0540 C   0  0  0  0  0  0  0  0  0  0  0  0
   46.1540   31.4770   45.0570 N   0  0  0  0  0  0  0  0  0  0  0  0
   46.3550   31.9790   46.2900 C   0  0  0  0  0  0  0  0  0  0  0  0
   46.0010   33.2520   46.5130 N   0  0  0  0  0  0  0  0  0  0  0  0
   44.6720   34.3240   43.2250 N   0  0  0  0  0  0  0  0  0  0  0  0
   45.3910   34.7850   42.0900 C   0  0  0  0  0  0  0  0  0  0  0  0
   46.6290   35.1740   42.3200 N   0  0  0  0  0  0  0  0  0  0  0  0
   44.6740   34.7660   40.8470 N   0  0  0  0  0  0  0  0  0  0  0  0
   47.2320   35.5450   41.5680 H   0  0  0  0  0  0  0  0  0  0  0  0
   46.9470   31.1210   47.3330 C   0  0  0  0  0  0  0  0  0  0  0  0
   45.8180   30.4570   48.1270 C   0  0  0  0  0  0  0  0  0  0  0  0
   47.7630   30.0600   46.6450 C   0  0  0  0  0  0  0  0  0  0  0  0
   47.7660   31.9060   48.3460 C   0  0  0  0  0  0  0  0  0  0  0  0
   48.8170   30.8400   49.3400 S   0  0  0  0  0  0  0  0  0  0  0  0
   45.1941   35.0486   45.7962 H   0  0  0  0  0  0  0  0  0  0  0  0
   45.4767   31.7364   43.0660 H   0  0  0  0  0  0  0  0  0  0  0  0
   43.6779   34.5814   43.3048 H   0  0  0  0  0  0  0  0  0  0  0  0
   43.7002   34.4315   40.8192 H   0  0  0  0  0  0  0  0  0  0  0  0
   45.1332   35.0868   39.9826 H   0  0  0  0  0  0  0  0  0  0  0  0
   46.0111   30.5706   49.2039 H   0  0  0  0  0  0  0  0  0  0  0  0
   44.8607   30.9359   47.8736 H   0  0  0  0  0  0  0  0  0  0  0  0
   45.7713   29.3876   47.8736 H   0  0  0  0  0  0  0  0  0  0  0  0
   48.2508   29.4257   47.3998 H   0  0  0  0  0  0  0  0  0  0  0  0
   47.1054   29.4419   46.0162 H   0  0  0  0  0  0  0  0  0  0  0  0
   48.5292   30.5370   46.0162 H   0  0  0  0  0  0  0  0  0  0  0  0
   48.3997   32.6262   47.8077 H   0  0  0  0  0  0  0  0  0  0  0  0
   47.0660   32.4173   49.0233 H   0  0  0  0  0  0  0  0  0  0  0  0
   48.5825   31.0779   50.6686 H   0  0  0  0  0  0  0  0  0  0  0  0
  1  6  2  0
  2  1  1  0
  3  2  2  0
  3  4  1  0
  4  5  2  0
  5  6  1  0
  5 12  1  0
  7  2  1  0
  8  9  2  0
  8  7  1  0
 10  8  1  0
 11  9  1  0
 12 13  1  0
 12 15  1  0
 14 12  1  0
 15 16  1  0
  1 17  1  0
  3 18  1  0
  7 19  1  0
 10 20  1  0
 10 21  1  0
 13 22  1  0
 13 23  1  0
 13 24  1  0
 14 25  1  0
 14 26  1  0
 14 27  1  0
 15 28  1  0
 15 29  1  0
 16 30  1  0
M  ISO  8  17  14  18  14  22   8  23   8  24   8  25   8  26   8  27   8
M  ISO  3  28   8  29   8  30  11
M  END
>  <minimizedAffinity>  (1) 
-4.01318264

>  <minimizedRMSD>  (1) 
1.35967195

$$$$
