
     RDKit          3D

 36 39  0  0  1  0  0  0  0  0999 V2000
   48.1100   33.4070   38.9840 C   0  0  2  0  0  0  0  0  0  0  0  0
   48.2720   34.3420   37.7660 C   0  0  0  0  0  0  0  0  0  0  0  0
   47.9760   32.8680   37.5810 C   0  0  1  0  0  0  0  0  0  0  0  0
   45.6310   34.1100   41.5310 N   0  0  0  0  0  0  0  0  0  0  0  0
   44.8160   33.8120   40.4820 C   0  0  0  0  0  0  0  0  0  0  0  0
   45.5480   33.5120   39.4070 N   0  0  0  0  0  0  0  0  0  0  0  0
   46.8670   33.6250   39.7930 C   0  0  0  0  0  0  0  0  0  0  0  0
   46.8320   33.9800   41.0600 N   0  0  0  0  0  0  0  0  0  0  0  0
   44.8730   35.8300   43.0430 C   0  0  0  0  0  0  0  0  0  0  0  0
   45.3420   34.4870   42.8670 C   0  0  0  0  0  0  0  0  0  0  0  0
   45.4690   33.7070   43.9700 C   0  0  0  0  0  0  0  0  0  0  0  0
   45.1390   34.2620   45.1720 N   0  0  0  0  0  0  0  0  0  0  0  0
   44.7040   35.5170   45.3120 C   0  0  0  0  0  0  0  0  0  0  0  0
   44.5720   36.3040   44.2280 N   0  0  0  0  0  0  0  0  0  0  0  0
   48.9850   31.9300   37.1340 C   0  0  0  0  0  0  0  0  0  0  0  0
   48.6020   30.7550   36.8310 O   0  0  0  0  0  0  0  0  0  0  0  0
   50.3130   32.2760   37.0260 O   0  0  0  0  0  0  0  0  0  0  0  0
   53.1380   31.4880   38.9140 N   0  0  0  0  0  0  0  0  0  0  0  0
   52.5300   31.9960   37.8240 N   0  0  0  0  0  0  0  0  0  0  0  0
   51.1950   31.8440   37.9920 C   0  0  0  0  0  0  0  0  0  0  0  0
   50.9410   31.2370   39.1920 C   0  0  0  0  0  0  0  0  0  0  0  0
   52.1990   31.0230   39.7540 C   0  0  0  0  0  0  0  0  0  0  0  0
   52.5040   30.3880   41.0680 C   0  0  0  0  0  0  0  0  0  0  0  0
   52.0490   29.0960   41.1130 F   0  0  0  0  0  0  0  0  0  0  0  0
   53.8700   30.3600   41.2900 F   0  0  0  0  0  0  0  0  0  0  0  0
   51.8740   31.0920   42.0730 F   0  0  0  0  0  0  0  0  0  0  0  0
   48.7122   33.1154   39.8571 H   0  0  0  0  0  0  0  0  0  0  0  0
   47.5008   35.0930   37.5396 H   0  0  0  0  0  0  0  0  0  0  0  0
   49.0474   35.0358   37.4091 H   0  0  0  0  0  0  0  0  0  0  0  0
   47.2093   32.3344   37.0000 H   0  0  0  0  0  0  0  0  0  0  0  0
   43.7165   33.8176   40.5154 H   0  0  0  0  0  0  0  0  0  0  0  0
   44.7628   36.4793   42.1619 H   0  0  0  0  0  0  0  0  0  0  0  0
   45.8240   32.6683   43.8980 H   0  0  0  0  0  0  0  0  0  0  0  0
   44.4544   35.9063   46.3101 H   0  0  0  0  0  0  0  0  0  0  0  0
   54.1548   31.4608   39.0761 H   0  0  0  0  0  0  0  0  0  0  0  0
   49.9613   30.9758   39.6187 H   0  0  0  0  0  0  0  0  0  0  0  0
  1  7  1  0
  2  1  1  0
  3  2  1  0
  3  1  1  0
  4 10  1  0
  5  4  1  0
  6  7  1  0
  6  5  2  0
  7  8  2  0
  8  4  1  0
  9 14  2  0
 10  9  1  0
 10 11  2  0
 11 12  1  0
 12 13  2  0
 14 13  1  0
 15  3  1  0
 16 15  2  0
 17 15  1  0
 17 20  1  0
 18 22  1  0
 19 20  2  0
 19 18  1  0
 20 21  1  0
 21 22  2  0
 22 23  1  0
 23 24  1  0
 23 25  1  0
 23 26  1  0
  1 27  1  1
  2 28  1  0
  2 29  1  0
  3 30  1  1
  5 31  1  0
  9 32  1  0
 11 33  1  0
 13 34  1  0
 18 35  1  0
 21 36  1  0
M  ISO  8  27  13  28  13  29  13  30  13  31  14  32  14  33  14  34  14
M  ISO  2  35   9  36  14
M  END
>  <minimizedAffinity>  (1) 
-4.71413374

>  <minimizedRMSD>  (1) 
0.604256749

$$$$
