
     RDKit          3D

 31 31  0  0  0  0  0  0  0  0999 V2000
   45.6730   33.7380   45.8840 C   0  0  0  0  0  0  0  0  0  0  0  0
   45.2950   33.4730   44.5460 C   0  0  0  0  0  0  0  0  0  0  0  0
   45.6040   32.1860   44.1250 C   0  0  0  0  0  0  0  0  0  0  0  0
   46.2050   31.2970   44.9350 N   0  0  0  0  0  0  0  0  0  0  0  0
   46.5480   31.6000   46.2120 C   0  0  0  0  0  0  0  0  0  0  0  0
   46.2660   32.8230   46.6450 N   0  0  0  0  0  0  0  0  0  0  0  0
   44.6630   34.4230   43.7100 N   0  0  0  0  0  0  0  0  0  0  0  0
   45.2460   34.9580   42.5400 C   0  0  0  0  0  0  0  0  0  0  0  0
   46.5330   35.2160   42.6010 N   0  0  0  0  0  0  0  0  0  0  0  0
   44.3500   35.1500   41.4250 N   0  0  0  0  0  0  0  0  0  0  0  0
   47.0510   35.6180   41.8000 H   0  0  0  0  0  0  0  0  0  0  0  0
   47.2050   30.5750   47.0430 C   0  0  0  0  0  0  0  0  0  0  0  0
   46.1450   29.5900   47.5400 C   0  0  0  0  0  0  0  0  0  0  0  0
   48.2050   29.8560   46.1800 C   0  0  0  0  0  0  0  0  0  0  0  0
   47.8740   31.1630   48.2760 C   0  0  0  0  0  0  0  0  0  0  0  0
   47.0580   31.0350   49.4430 N   0  0  0  0  0  0  0  0  0  0  0  0
   45.4697   34.7325   46.3078 H   0  0  0  0  0  0  0  0  0  0  0  0
   45.3494   31.8850   43.0981 H   0  0  0  0  0  0  0  0  0  0  0  0
   43.7197   34.7444   43.9704 H   0  0  0  0  0  0  0  0  0  0  0  0
   43.3543   34.9025   41.5159 H   0  0  0  0  0  0  0  0  0  0  0  0
   44.7062   35.5345   40.5383 H   0  0  0  0  0  0  0  0  0  0  0  0
   46.1378   29.5833   48.6400 H   0  0  0  0  0  0  0  0  0  0  0  0
   45.1562   29.8972   47.1687 H   0  0  0  0  0  0  0  0  0  0  0  0
   46.3790   28.5813   47.1687 H   0  0  0  0  0  0  0  0  0  0  0  0
   48.9320   29.3333   46.8189 H   0  0  0  0  0  0  0  0  0  0  0  0
   47.6829   29.1252   45.5449 H   0  0  0  0  0  0  0  0  0  0  0  0
   48.7315   30.5836   45.5449 H   0  0  0  0  0  0  0  0  0  0  0  0
   48.8247   30.6372   48.4485 H   0  0  0  0  0  0  0  0  0  0  0  0
   48.0384   32.2352   48.0935 H   0  0  0  0  0  0  0  0  0  0  0  0
   47.6451   31.1271   50.2843 H   0  0  0  0  0  0  0  0  0  0  0  0
   46.3402   31.7737   49.4427 H   0  0  0  0  0  0  0  0  0  0  0  0
  1  6  2  0
  2  1  1  0
  3  2  2  0
  3  4  1  0
  4  5  2  0
  5  6  1  0
  5 12  1  0
  7  2  1  0
  8  9  2  0
  8  7  1  0
 10  8  1  0
 11  9  1  0
 12 13  1  0
 12 15  1  0
 14 12  1  0
 15 16  1  0
  1 17  1  0
  3 18  1  0
  7 19  1  0
 10 20  1  0
 10 21  1  0
 13 22  1  0
 13 23  1  0
 13 24  1  0
 14 25  1  0
 14 26  1  0
 14 27  1  0
 15 28  1  0
 15 29  1  0
 16 30  1  0
 16 31  1  0
M  ISO  8  17  14  18  14  22   8  23   8  24   8  25   8  26   8  27   8
M  ISO  4  28   8  29   8  30   5  31   5
M  END
>  <minimizedAffinity>  (1) 
-4.03880835

>  <minimizedRMSD>  (1) 
0.84520334

$$$$
