
     RDKit          3D

 51 53  0  0  1  0  0  0  0  0999 V2000
   45.3750   33.5900   42.0750 C   0  0  0  0  0  0  0  0  0  0  0  0
   45.3260   34.2180   45.7230 C   0  0  0  0  0  0  0  0  0  0  0  0
   46.1380   33.2090   46.2660 C   0  0  0  0  0  0  0  0  0  0  0  0
   46.6880   32.3210   45.3160 C   0  0  0  0  0  0  0  0  0  0  0  0
   46.4230   32.4760   44.0080 N   0  0  0  0  0  0  0  0  0  0  0  0
   45.6270   33.4760   43.5360 C   0  0  0  0  0  0  0  0  0  0  0  0
   45.0900   34.3350   44.4220 N   0  0  0  0  0  0  0  0  0  0  0  0
   46.3970   33.0740   47.6630 N   0  0  0  0  0  0  0  0  0  0  0  0
   45.6930   32.1570   48.5100 C   0  0  0  0  0  0  0  0  0  0  0  0
   44.4100   32.0100   48.2730 N   0  0  0  0  0  0  0  0  0  0  0  0
   46.5220   31.5270   49.5120 N   0  0  0  0  0  0  0  0  0  0  0  0
   43.8420   31.3620   48.8340 H   0  0  0  0  0  0  0  0  0  0  0  0
   44.0220   32.8650   41.7840 C   0  0  0  0  0  0  0  0  0  0  0  0
   45.1750   35.0410   41.7820 C   0  0  0  0  0  0  0  0  0  0  0  0
   46.3970   32.8710   41.2450 C   0  0  0  0  0  0  0  0  0  0  0  0
   46.6780   33.3800   39.9760 N   0  0  0  0  0  0  0  0  0  0  0  0
   46.3910   32.6190   38.8160 C   0  0  0  0  0  0  0  0  0  0  0  0
   47.6300   32.1870   38.0600 C   0  0  0  0  0  0  0  0  0  0  0  0
   48.6550   33.2430   37.8830 C   0  0  0  0  0  0  0  0  0  0  0  0
   48.2960   34.5490   38.5410 C   0  0  0  0  0  0  0  0  0  0  0  0
   47.8270   34.2080   39.9380 C   0  0  2  0  0  0  0  0  0  0  0  0
   48.9370   33.7910   40.8370 C   0  0  0  0  0  0  0  0  0  0  0  0
   49.3680   34.4590   41.9730 C   0  0  0  0  0  0  0  0  0  0  0  0
   50.3920   33.7870   42.5290 N   0  0  0  0  0  0  0  0  0  0  0  0
   50.6340   32.7060   41.7830 C   0  0  0  0  0  0  0  0  0  0  0  0
   49.7590   32.7050   40.7620 N   0  0  0  0  0  0  0  0  0  0  0  0
   44.8642   34.9449   46.4074 H   0  0  0  0  0  0  0  0  0  0  0  0
   47.3371   31.4976   45.6487 H   0  0  0  0  0  0  0  0  0  0  0  0
   47.1273   33.6659   48.0840 H   0  0  0  0  0  0  0  0  0  0  0  0
   46.1098   30.8509   50.1707 H   0  0  0  0  0  0  0  0  0  0  0  0
   47.5251   31.7540   49.5675 H   0  0  0  0  0  0  0  0  0  0  0  0
   43.5342   32.6036   42.7346 H   0  0  0  0  0  0  0  0  0  0  0  0
   43.3654   33.5321   41.2062 H   0  0  0  0  0  0  0  0  0  0  0  0
   44.2138   31.9488   41.2062 H   0  0  0  0  0  0  0  0  0  0  0  0
   45.0981   35.5987   42.7270 H   0  0  0  0  0  0  0  0  0  0  0  0
   46.0295   35.4191   41.2016 H   0  0  0  0  0  0  0  0  0  0  0  0
   44.2501   35.1738   41.2016 H   0  0  0  0  0  0  0  0  0  0  0  0
   47.3387   32.8681   41.8135 H   0  0  0  0  0  0  0  0  0  0  0  0
   45.9548   31.8818   41.0557 H   0  0  0  0  0  0  0  0  0  0  0  0
   45.8349   31.7192   39.1177 H   0  0  0  0  0  0  0  0  0  0  0  0
   45.8061   33.2618   38.1417 H   0  0  0  0  0  0  0  0  0  0  0  0
   48.0909   31.3524   38.6086 H   0  0  0  0  0  0  0  0  0  0  0  0
   47.2937   31.9121   37.0494 H   0  0  0  0  0  0  0  0  0  0  0  0
   49.6012   32.8848   38.3147 H   0  0  0  0  0  0  0  0  0  0  0  0
   48.7343   33.4373   36.8032 H   0  0  0  0  0  0  0  0  0  0  0  0
   49.1761   35.2074   38.5852 H   0  0  0  0  0  0  0  0  0  0  0  0
   47.5149   35.0789   37.9761 H   0  0  0  0  0  0  0  0  0  0  0  0
   47.4650   35.1525   40.3703 H   0  0  0  0  0  0  0  0  0  0  0  0
   48.9385   35.3948   42.3601 H   0  0  0  0  0  0  0  0  0  0  0  0
   51.4112   31.9505   41.9705 H   0  0  0  0  0  0  0  0  0  0  0  0
   49.7155   31.9852   40.0265 H   0  0  0  0  0  0  0  0  0  0  0  0
  1  6  1  0
  2  3  2  0
  3  8  1  0
  4  3  1  0
  5  4  2  0
  6  5  1  0
  6  7  2  0
  7  2  1  0
  8  9  1  0
  9 11  1  0
 10  9  2  0
 10 12  1  0
 13  1  1  0
 14  1  1  0
 15  1  1  0
 16 15  1  0
 17 16  1  0
 18 17  1  0
 19 18  1  0
 19 20  1  0
 20 21  1  0
 21 16  1  0
 21 22  1  0
 22 23  2  0
 23 24  1  0
 25 24  2  0
 26 22  1  0
 26 25  1  0
  2 27  1  0
  4 28  1  0
  8 29  1  0
 11 30  1  0
 11 31  1  0
 13 32  1  0
 13 33  1  0
 13 34  1  0
 14 35  1  0
 14 36  1  0
 14 37  1  0
 15 38  1  0
 15 39  1  0
 17 40  1  0
 17 41  1  0
 18 42  1  0
 18 43  1  0
 19 44  1  0
 19 45  1  0
 20 46  1  0
 20 47  1  0
 21 48  1  1
 23 49  1  0
 25 50  1  0
 26 51  1  0
M  ISO  8  27  14  28  14  32   8  33   8  34   8  35   8  36   8  37   8
M  ISO  8  38   8  39   8  40  13  41  13  42  13  43  13  44  13  45  13
M  ISO  6  46  13  47  13  48  13  49  14  50  14  51   9
M  END
>  <minimizedAffinity>  (1) 
-6.13007736

>  <minimizedRMSD>  (1) 
8.0033884

$$$$
