
     RDKit          3D

 57 59  0  0  1  0  0  0  0  0999 V2000
   47.7050   29.8440   44.7360 C   0  0  0  0  0  0  0  0  0  0  0  0
   46.4180   33.3010   45.0990 C   0  0  0  0  0  0  0  0  0  0  0  0
   45.3620   33.3890   44.1820 C   0  0  0  0  0  0  0  0  0  0  0  0
   45.1280   32.2070   43.4450 C   0  0  0  0  0  0  0  0  0  0  0  0
   45.8910   31.1300   43.6590 N   0  0  0  0  0  0  0  0  0  0  0  0
   46.9000   31.0830   44.5520 C   0  0  0  0  0  0  0  0  0  0  0  0
   47.1350   32.1910   45.2560 N   0  0  0  0  0  0  0  0  0  0  0  0
   44.5760   34.5640   43.9920 N   0  0  0  0  0  0  0  0  0  0  0  0
   44.7650   35.4760   42.9180 C   0  0  0  0  0  0  0  0  0  0  0  0
   46.0070   35.7130   42.5840 N   0  0  0  0  0  0  0  0  0  0  0  0
   43.5340   36.0020   42.3590 N   0  0  0  0  0  0  0  0  0  0  0  0
   46.2340   36.3630   41.8110 H   0  0  0  0  0  0  0  0  0  0  0  0
   47.1020   28.7620   43.8250 C   0  0  0  0  0  0  0  0  0  0  0  0
   49.0710   30.1580   44.1710 C   0  0  0  0  0  0  0  0  0  0  0  0
   47.6960   29.3220   46.1330 C   0  0  0  0  0  0  0  0  0  0  0  0
   48.7590   29.5960   46.9780 N   0  0  0  0  0  0  0  0  0  0  0  0
   49.7260   28.5980   47.1830 C   0  0  0  0  0  0  0  0  0  0  0  0
   49.7080   28.1220   48.6440 C   0  0  0  0  0  0  0  0  0  0  0  0
   49.9410   29.2840   49.5680 C   0  0  0  0  0  0  0  0  0  0  0  0
   49.7000   30.6130   48.9800 C   0  0  0  0  0  0  0  0  0  0  0  0
   48.5530   30.5600   47.9800 C   0  0  2  0  0  0  0  0  0  0  0  0
   47.2760   30.6860   48.6450 C   0  0  0  0  0  0  0  0  0  0  0  0
   46.1440   29.8620   48.0540 C   0  0  0  0  0  0  0  0  0  0  0  0
   44.9390   30.3280   48.9120 C   0  0  0  0  0  0  0  0  0  0  0  0
   45.3800   31.6090   49.5760 C   0  0  0  0  0  0  0  0  0  0  0  0
   46.5510   32.0130   48.6540 C   0  0  0  0  0  0  0  0  0  0  0  0
   46.6631   34.1814   45.7112 H   0  0  0  0  0  0  0  0  0  0  0  0
   44.3213   32.1726   42.6980 H   0  0  0  0  0  0  0  0  0  0  0  0
   43.8285   34.7632   44.6721 H   0  0  0  0  0  0  0  0  0  0  0  0
   43.5682   36.6706   41.5763 H   0  0  0  0  0  0  0  0  0  0  0  0
   42.6258   35.7068   42.7448 H   0  0  0  0  0  0  0  0  0  0  0  0
   46.6591   27.9673   44.4432 H   0  0  0  0  0  0  0  0  0  0  0  0
   46.3232   29.2096   43.1900 H   0  0  0  0  0  0  0  0  0  0  0  0
   47.8923   28.3351   43.1900 H   0  0  0  0  0  0  0  0  0  0  0  0
   49.7803   30.3210   44.9958 H   0  0  0  0  0  0  0  0  0  0  0  0
   49.4147   29.3154   43.5530 H   0  0  0  0  0  0  0  0  0  0  0  0
   49.0123   31.0661   43.5530 H   0  0  0  0  0  0  0  0  0  0  0  0
   46.7932   29.7230   46.6168 H   0  0  0  0  0  0  0  0  0  0  0  0
   47.7526   28.2318   45.9978 H   0  0  0  0  0  0  0  0  0  0  0  0
   49.5117   27.7453   46.5220 H   0  0  0  0  0  0  0  0  0  0  0  0
   50.7191   29.0135   46.9568 H   0  0  0  0  0  0  0  0  0  0  0  0
   48.7305   27.6697   48.8674 H   0  0  0  0  0  0  0  0  0  0  0  0
   50.5060   27.3793   48.7908 H   0  0  0  0  0  0  0  0  0  0  0  0
   49.2726   29.1691   50.4340 H   0  0  0  0  0  0  0  0  0  0  0  0
   51.0091   29.2558   49.8294 H   0  0  0  0  0  0  0  0  0  0  0  0
   49.4471   31.3221   49.7820 H   0  0  0  0  0  0  0  0  0  0  0  0
   50.6109   30.9379   48.4559 H   0  0  0  0  0  0  0  0  0  0  0  0
   48.5272   31.4539   47.3395 H   0  0  0  0  0  0  0  0  0  0  0  0
   47.6736   30.3964   49.6289 H   0  0  0  0  0  0  0  0  0  0  0  0
   45.9923   30.0935   46.9894 H   0  0  0  0  0  0  0  0  0  0  0  0
   46.3193   28.7764   48.0805 H   0  0  0  0  0  0  0  0  0  0  0  0
   44.0615   30.5094   48.2740 H   0  0  0  0  0  0  0  0  0  0  0  0
   44.6493   29.5669   49.6515 H   0  0  0  0  0  0  0  0  0  0  0  0
   44.5806   32.3647   49.5725 H   0  0  0  0  0  0  0  0  0  0  0  0
   45.6462   31.5073   50.6385 H   0  0  0  0  0  0  0  0  0  0  0  0
   47.1624   32.8193   49.0853 H   0  0  0  0  0  0  0  0  0  0  0  0
   46.2739   32.4194   47.6701 H   0  0  0  0  0  0  0  0  0  0  0  0
  1 15  1  0
  2  7  2  0
  3  2  1  0
  4  5  1  0
  4  3  2  0
  5  6  2  0
  6  1  1  0
  6  7  1  0
  8  3  1  0
  9  8  1  0
 10  9  2  0
 11  9  1  0
 12 10  1  0
 13  1  1  0
 14  1  1  0
 15 16  1  0
 16 17  1  0
 16 21  1  0
 17 18  1  0
 18 19  1  0
 20 19  1  0
 21 22  1  0
 21 20  1  0
 22 26  1  0
 23 22  1  0
 23 24  1  0
 24 25  1  0
 26 25  1  0
  2 27  1  0
  4 28  1  0
  8 29  1  0
 11 30  1  0
 11 31  1  0
 13 32  1  0
 13 33  1  0
 13 34  1  0
 14 35  1  0
 14 36  1  0
 14 37  1  0
 15 38  1  0
 15 39  1  0
 17 40  1  0
 17 41  1  0
 18 42  1  0
 18 43  1  0
 19 44  1  0
 19 45  1  0
 20 46  1  0
 20 47  1  0
 21 48  1  6
 22 49  1  0
 23 50  1  0
 23 51  1  0
 24 52  1  0
 24 53  1  0
 25 54  1  0
 25 55  1  0
 26 56  1  0
 26 57  1  0
M  ISO  8  27  14  28  14  32   8  33   8  34   8  35   8  36   8  37   8
M  ISO  8  38   8  39   8  40  13  41  13  42  13  43  13  44  13  45  13
M  ISO  8  46  13  47  13  48  13  49  13  50  13  51  13  52  13  53  13
M  ISO  4  54  13  55  13  56  13  57  13
M  END
>  <minimizedAffinity>  (1) 
-5.07234097

>  <minimizedRMSD>  (1) 
1.67280114

$$$$
