
     RDKit          3D

 46 47  0  0  1  0  0  0  0  0999 V2000
   47.3900   29.9570   45.8320 C   0  0  0  0  0  0  0  0  0  0  0  0
   46.1020   33.4250   45.9400 C   0  0  0  0  0  0  0  0  0  0  0  0
   45.3970   33.5890   44.7490 C   0  0  0  0  0  0  0  0  0  0  0  0
   45.3960   32.4440   43.9220 C   0  0  0  0  0  0  0  0  0  0  0  0
   46.0340   31.3140   44.2920 N   0  0  0  0  0  0  0  0  0  0  0  0
   46.7040   31.2250   45.4720 C   0  0  0  0  0  0  0  0  0  0  0  0
   46.7230   32.3020   46.2830 N   0  0  0  0  0  0  0  0  0  0  0  0
   44.7260   34.7770   44.3600 N   0  0  0  0  0  0  0  0  0  0  0  0
   44.9910   35.4830   43.1550 C   0  0  0  0  0  0  0  0  0  0  0  0
   46.2220   35.5230   42.7580 N   0  0  0  0  0  0  0  0  0  0  0  0
   43.8200   36.0650   42.5380 N   0  0  0  0  0  0  0  0  0  0  0  0
   46.5090   35.9940   41.8790 H   0  0  0  0  0  0  0  0  0  0  0  0
   46.4780   28.7830   45.3640 C   0  0  0  0  0  0  0  0  0  0  0  0
   48.6420   29.8910   45.0220 C   0  0  0  0  0  0  0  0  0  0  0  0
   47.5610   29.7570   47.3030 C   0  0  0  0  0  0  0  0  0  0  0  0
   48.7570   30.2000   47.9060 N   0  0  0  0  0  0  0  0  0  0  0  0
   49.7210   29.2500   48.3090 C   0  0  0  0  0  0  0  0  0  0  0  0
   49.9000   29.1850   49.8180 C   0  0  0  0  0  0  0  0  0  0  0  0
   50.0230   30.5240   50.4740 C   0  0  0  0  0  0  0  0  0  0  0  0
   49.8080   31.6820   49.5310 C   0  0  0  0  0  0  0  0  0  0  0  0
   48.5820   31.3550   48.7080 C   0  0  2  0  0  0  0  0  0  0  0  0
   47.3720   31.3410   49.5050 N   0  0  0  0  0  0  0  0  0  0  0  0
   46.1468   34.2751   46.6366 H   0  0  0  0  0  0  0  0  0  0  0  0
   44.8655   32.4740   42.9588 H   0  0  0  0  0  0  0  0  0  0  0  0
   44.0019   35.1511   44.9898 H   0  0  0  0  0  0  0  0  0  0  0  0
   43.9107   36.5965   41.6604 H   0  0  0  0  0  0  0  0  0  0  0  0
   42.8952   35.9481   42.9761 H   0  0  0  0  0  0  0  0  0  0  0  0
   46.0724   28.2609   46.2431 H   0  0  0  0  0  0  0  0  0  0  0  0
   45.6497   29.1808   44.7593 H   0  0  0  0  0  0  0  0  0  0  0  0
   47.0682   28.0788   44.7593 H   0  0  0  0  0  0  0  0  0  0  0  0
   49.5116   29.8452   45.6941 H   0  0  0  0  0  0  0  0  0  0  0  0
   48.6213   28.9927   44.3875 H   0  0  0  0  0  0  0  0  0  0  0  0
   48.7158   30.7865   44.3875 H   0  0  0  0  0  0  0  0  0  0  0  0
   46.7321   30.2814   47.8010 H   0  0  0  0  0  0  0  0  0  0  0  0
   47.5848   28.6642   47.4262 H   0  0  0  0  0  0  0  0  0  0  0  0
   49.4067   28.2586   47.9507 H   0  0  0  0  0  0  0  0  0  0  0  0
   50.6849   29.5574   47.8773 H   0  0  0  0  0  0  0  0  0  0  0  0
   49.0294   28.6679   50.2477 H   0  0  0  0  0  0  0  0  0  0  0  0
   50.8437   28.6514   50.0040 H   0  0  0  0  0  0  0  0  0  0  0  0
   49.2750   30.5871   51.2781 H   0  0  0  0  0  0  0  0  0  0  0  0
   51.0528   30.6038   50.8525 H   0  0  0  0  0  0  0  0  0  0  0  0
   49.6453   32.6088   50.1007 H   0  0  0  0  0  0  0  0  0  0  0  0
   50.6864   31.8339   48.8865 H   0  0  0  0  0  0  0  0  0  0  0  0
   48.4478   32.1795   47.9923 H   0  0  0  0  0  0  0  0  0  0  0  0
   47.6194   31.3439   50.5048 H   0  0  0  0  0  0  0  0  0  0  0  0
   46.8085   32.1755   49.2884 H   0  0  0  0  0  0  0  0  0  0  0  0
  1 15  1  0
  2  7  2  0
  3  2  1  0
  4  5  1  0
  4  3  2  0
  5  6  2  0
  6  1  1  0
  6  7  1  0
  8  3  1  0
  9  8  1  0
 10  9  2  0
 11  9  1  0
 12 10  1  0
 13  1  1  0
 14  1  1  0
 15 16  1  0
 16 17  1  0
 16 21  1  0
 17 18  1  0
 18 19  1  0
 20 19  1  0
 21 22  1  0
 21 20  1  0
  2 23  1  0
  4 24  1  0
  8 25  1  0
 11 26  1  0
 11 27  1  0
 13 28  1  0
 13 29  1  0
 13 30  1  0
 14 31  1  0
 14 32  1  0
 14 33  1  0
 15 34  1  0
 15 35  1  0
 17 36  1  0
 17 37  1  0
 18 38  1  0
 18 39  1  0
 19 40  1  0
 19 41  1  0
 20 42  1  0
 20 43  1  0
 21 44  1  6
 22 45  1  0
 22 46  1  0
M  ISO  8  23  14  24  14  28   8  29   8  30   8  31   8  32   8  33   8
M  ISO  8  34   8  35   8  36  13  37  13  38  13  39  13  40  13  41  13
M  ISO  5  42  13  43  13  44  13  45   5  46   5
M  END
>  <minimizedAffinity>  (1) 
-5.03628302

>  <minimizedRMSD>  (1) 
0.469963968

$$$$
