
     RDKit          3D

 56 58  0  0  1  0  0  0  0  0999 V2000
   47.5050   29.9740   45.0420 C   0  0  0  0  0  0  0  0  0  0  0  0
   46.2360   33.4510   45.2220 C   0  0  0  0  0  0  0  0  0  0  0  0
   45.2780   33.5310   44.2110 C   0  0  0  0  0  0  0  0  0  0  0  0
   45.0960   32.3400   43.4770 C   0  0  0  0  0  0  0  0  0  0  0  0
   45.8160   31.2320   43.7640 N   0  0  0  0  0  0  0  0  0  0  0  0
   46.7430   31.2230   44.7710 C   0  0  0  0  0  0  0  0  0  0  0  0
   46.9310   32.3430   45.4820 N   0  0  0  0  0  0  0  0  0  0  0  0
   44.5300   34.7080   43.9240 N   0  0  0  0  0  0  0  0  0  0  0  0
   44.8170   35.5780   42.8230 C   0  0  0  0  0  0  0  0  0  0  0  0
   46.0850   35.7630   42.5400 N   0  0  0  0  0  0  0  0  0  0  0  0
   43.6550   36.1290   42.1810 N   0  0  0  0  0  0  0  0  0  0  0  0
   46.3770   36.3820   41.7630 H   0  0  0  0  0  0  0  0  0  0  0  0
   46.7900   28.8100   44.3230 C   0  0  0  0  0  0  0  0  0  0  0  0
   48.8460   30.1390   44.3800 C   0  0  0  0  0  0  0  0  0  0  0  0
   47.5490   29.6040   46.4980 C   0  0  0  0  0  0  0  0  0  0  0  0
   48.6790   29.9450   47.2400 N   0  0  0  0  0  0  0  0  0  0  0  0
   49.7580   29.0570   47.3800 C   0  0  0  0  0  0  0  0  0  0  0  0
   49.9140   28.5550   48.8120 C   0  0  0  0  0  0  0  0  0  0  0  0
   49.8950   29.6380   49.8300 C   0  0  0  0  0  0  0  0  0  0  0  0
   49.4960   30.9840   49.3240 C   0  0  0  0  0  0  0  0  0  0  0  0
   48.4240   30.8430   48.2940 C   0  0  2  0  0  0  0  0  0  0  0  0
   47.0990   30.8340   48.7660 N   0  0  0  0  0  0  0  0  0  0  0  0
   46.3470   32.0260   48.8110 C   0  0  0  0  0  0  0  0  0  0  0  0
   45.0890   31.5460   49.5220 C   0  0  0  0  0  0  0  0  0  0  0  0
   44.9690   30.1080   49.0490 C   0  0  0  0  0  0  0  0  0  0  0  0
   46.1860   29.9100   48.1390 C   0  0  0  0  0  0  0  0  0  0  0  0
   46.4272   34.3448   45.8340 H   0  0  0  0  0  0  0  0  0  0  0  0
   44.3590   32.3124   42.6609 H   0  0  0  0  0  0  0  0  0  0  0  0
   43.7405   34.9465   44.5410 H   0  0  0  0  0  0  0  0  0  0  0  0
   43.7632   36.7661   41.3789 H   0  0  0  0  0  0  0  0  0  0  0  0
   42.7141   35.8867   42.5230 H   0  0  0  0  0  0  0  0  0  0  0  0
   46.3674   28.1219   45.0700 H   0  0  0  0  0  0  0  0  0  0  0  0
   45.9813   29.2094   43.6934 H   0  0  0  0  0  0  0  0  0  0  0  0
   47.5119   28.2692   43.6934 H   0  0  0  0  0  0  0  0  0  0  0  0
   49.6257   30.2349   45.1500 H   0  0  0  0  0  0  0  0  0  0  0  0
   49.0560   29.2599   43.7530 H   0  0  0  0  0  0  0  0  0  0  0  0
   48.8367   31.0428   43.7530 H   0  0  0  0  0  0  0  0  0  0  0  0
   46.6864   30.0861   46.9811 H   0  0  0  0  0  0  0  0  0  0  0  0
   47.5525   28.5040   46.4949 H   0  0  0  0  0  0  0  0  0  0  0  0
   49.5934   28.1936   46.7186 H   0  0  0  0  0  0  0  0  0  0  0  0
   50.6766   29.5995   47.1121 H   0  0  0  0  0  0  0  0  0  0  0  0
   49.0889   27.8604   49.0284 H   0  0  0  0  0  0  0  0  0  0  0  0
   50.8990   28.0697   48.8771 H   0  0  0  0  0  0  0  0  0  0  0  0
   49.1867   29.3487   50.6203 H   0  0  0  0  0  0  0  0  0  0  0  0
   50.9319   29.7414   50.1825 H   0  0  0  0  0  0  0  0  0  0  0  0
   49.1203   31.5914   50.1606 H   0  0  0  0  0  0  0  0  0  0  0  0
   50.3705   31.4744   48.8715 H   0  0  0  0  0  0  0  0  0  0  0  0
   48.5007   31.8232   47.8007 H   0  0  0  0  0  0  0  0  0  0  0  0
   46.8633   32.8084   49.3866 H   0  0  0  0  0  0  0  0  0  0  0  0
   46.1661   32.4866   47.8286 H   0  0  0  0  0  0  0  0  0  0  0  0
   45.2068   31.5961   50.6145 H   0  0  0  0  0  0  0  0  0  0  0  0
   44.2009   32.1554   49.2987 H   0  0  0  0  0  0  0  0  0  0  0  0
   45.0014   29.4129   49.9009 H   0  0  0  0  0  0  0  0  0  0  0  0
   44.0186   29.9123   48.5308 H   0  0  0  0  0  0  0  0  0  0  0  0
   45.9700   30.1887   47.0971 H   0  0  0  0  0  0  0  0  0  0  0  0
   46.5479   28.8745   48.0567 H   0  0  0  0  0  0  0  0  0  0  0  0
  1 15  1  0
  2  7  2  0
  3  2  1  0
  4  5  1  0
  4  3  2  0
  5  6  2  0
  6  1  1  0
  6  7  1  0
  8  3  1  0
  9  8  1  0
 10  9  2  0
 11  9  1  0
 12 10  1  0
 13  1  1  0
 14  1  1  0
 15 16  1  0
 16 17  1  0
 16 21  1  0
 17 18  1  0
 18 19  1  0
 20 19  1  0
 21 22  1  0
 21 20  1  0
 22 23  1  0
 23 24  1  0
 25 24  1  0
 26 22  1  0
 26 25  1  0
  2 27  1  0
  4 28  1  0
  8 29  1  0
 11 30  1  0
 11 31  1  0
 13 32  1  0
 13 33  1  0
 13 34  1  0
 14 35  1  0
 14 36  1  0
 14 37  1  0
 15 38  1  0
 15 39  1  0
 17 40  1  0
 17 41  1  0
 18 42  1  0
 18 43  1  0
 19 44  1  0
 19 45  1  0
 20 46  1  0
 20 47  1  0
 21 48  1  6
 23 49  1  0
 23 50  1  0
 24 51  1  0
 24 52  1  0
 25 53  1  0
 25 54  1  0
 26 55  1  0
 26 56  1  0
M  ISO  8  27  14  28  14  32   8  33   8  34   8  35   8  36   8  37   8
M  ISO  8  38   8  39   8  40  13  41  13  42  13  43  13  44  13  45  13
M  ISO  8  46  13  47  13  48  13  49  13  50  13  51  13  52  13  53  13
M  ISO  3  54  13  55  13  56  13
M  END
>  <minimizedAffinity>  (1) 
-5.16359568

>  <minimizedRMSD>  (1) 
1.36819112

$$$$
