
     RDKit          3D

 45 48  0  0  1  0  0  0  0  0999 V2000
   48.1160   33.4190   38.9500 C   0  0  2  0  0  0  0  0  0  0  0  0
   48.2830   34.3730   37.7500 C   0  0  0  0  0  0  0  0  0  0  0  0
   47.9750   32.9020   37.5410 C   0  0  1  0  0  0  0  0  0  0  0  0
   45.6520   34.1090   41.5160 N   0  0  0  0  0  0  0  0  0  0  0  0
   44.8240   33.7910   40.4620 C   0  0  0  0  0  0  0  0  0  0  0  0
   45.5560   33.4930   39.3850 N   0  0  0  0  0  0  0  0  0  0  0  0
   46.8740   33.6280   39.7690 C   0  0  0  0  0  0  0  0  0  0  0  0
   46.8450   33.9920   41.0340 N   0  0  0  0  0  0  0  0  0  0  0  0
   44.8820   35.8320   43.0140 C   0  0  0  0  0  0  0  0  0  0  0  0
   45.3600   34.4890   42.8440 C   0  0  0  0  0  0  0  0  0  0  0  0
   45.4860   33.7120   43.9490 C   0  0  0  0  0  0  0  0  0  0  0  0
   45.1570   34.2430   45.1460 N   0  0  0  0  0  0  0  0  0  0  0  0
   44.7090   35.5080   45.2940 C   0  0  0  0  0  0  0  0  0  0  0  0
   44.5770   36.2870   44.2130 N   0  0  0  0  0  0  0  0  0  0  0  0
   48.9830   31.9660   37.0760 C   0  0  0  0  0  0  0  0  0  0  0  0
   48.5860   30.8110   36.7120 O   0  0  0  0  0  0  0  0  0  0  0  0
   50.3140   32.2890   37.0150 O   0  0  0  0  0  0  0  0  0  0  0  0
   53.0750   31.4230   38.9650 N   0  0  0  0  0  0  0  0  0  0  0  0
   52.5050   31.9860   37.8910 N   0  0  0  0  0  0  0  0  0  0  0  0
   51.1660   31.8110   37.9860 C   0  0  0  0  0  0  0  0  0  0  0  0
   50.8750   31.1280   39.1360 C   0  0  0  0  0  0  0  0  0  0  0  0
   52.1110   30.8960   39.7350 C   0  0  0  0  0  0  0  0  0  0  0  0
   52.1880   30.1600   41.0360 C   0  0  0  0  0  0  0  0  0  0  0  0
   51.5410   30.9030   42.1530 C   0  0  0  0  0  0  0  0  0  0  0  0
   53.6630   29.9280   41.2840 C   0  0  0  0  0  0  0  0  0  0  0  0
   51.5640   28.7960   40.8380 C   0  0  0  0  0  0  0  0  0  0  0  0
   48.7189   33.1110   39.8170 H   0  0  0  0  0  0  0  0  0  0  0  0
   47.5171   35.1336   37.5379 H   0  0  0  0  0  0  0  0  0  0  0  0
   49.0629   35.0671   37.4035 H   0  0  0  0  0  0  0  0  0  0  0  0
   47.2031   32.3817   36.9550 H   0  0  0  0  0  0  0  0  0  0  0  0
   43.7247   33.7836   40.5013 H   0  0  0  0  0  0  0  0  0  0  0  0
   44.7694   36.4864   42.1370 H   0  0  0  0  0  0  0  0  0  0  0  0
   45.8470   32.6758   43.8717 H   0  0  0  0  0  0  0  0  0  0  0  0
   44.4551   35.8946   46.2921 H   0  0  0  0  0  0  0  0  0  0  0  0
   54.0849   31.3988   39.1659 H   0  0  0  0  0  0  0  0  0  0  0  0
   49.8833   30.8283   39.5058 H   0  0  0  0  0  0  0  0  0  0  0  0
   51.8925   30.4994   43.1140 H   0  0  0  0  0  0  0  0  0  0  0  0
   51.8037   31.9690   42.0850 H   0  0  0  0  0  0  0  0  0  0  0  0
   50.4490   30.7894   42.0850 H   0  0  0  0  0  0  0  0  0  0  0  0
   53.8525   29.8982   42.3672 H   0  0  0  0  0  0  0  0  0  0  0  0
   53.9647   28.9714   40.8325 H   0  0  0  0  0  0  0  0  0  0  0  0
   54.2438   30.7458   40.8325 H   0  0  0  0  0  0  0  0  0  0  0  0
   51.3563   28.3420   41.8182 H   0  0  0  0  0  0  0  0  0  0  0  0
   50.6243   28.9008   40.2759 H   0  0  0  0  0  0  0  0  0  0  0  0
   52.2577   28.1535   40.2759 H   0  0  0  0  0  0  0  0  0  0  0  0
  1  7  1  0
  2  1  1  0
  3  2  1  0
  3  1  1  0
  4 10  1  0
  5  4  1  0
  6  7  1  0
  6  5  2  0
  7  8  2  0
  8  4  1  0
  9 14  2  0
 10  9  1  0
 10 11  2  0
 11 12  1  0
 12 13  2  0
 14 13  1  0
 15  3  1  0
 16 15  2  0
 17 15  1  0
 17 20  1  0
 18 22  1  0
 19 20  2  0
 19 18  1  0
 20 21  1  0
 21 22  2  0
 22 23  1  0
 23 25  1  0
 23 24  1  0
 26 23  1  0
  1 27  1  1
  2 28  1  0
  2 29  1  0
  3 30  1  1
  5 31  1  0
  9 32  1  0
 11 33  1  0
 13 34  1  0
 18 35  1  0
 21 36  1  0
 24 37  1  0
 24 38  1  0
 24 39  1  0
 25 40  1  0
 25 41  1  0
 25 42  1  0
 26 43  1  0
 26 44  1  0
 26 45  1  0
M  ISO  8  27  13  28  13  29  13  30  13  31  14  32  14  33  14  34  14
M  ISO  8  35   9  36  14  37   8  38   8  39   8  40   8  41   8  42   8
M  ISO  3  43   8  44   8  45   8
M  END
>  <minimizedAffinity>  (1) 
-4.64276695

>  <minimizedRMSD>  (1) 
0.69291687

$$$$
