
     RDKit          3D

 51 53  0  0  1  0  0  0  0  0999 V2000
   47.6990   29.9940   44.8380 C   0  0  0  0  0  0  0  0  0  0  0  0
   46.3410   33.4310   44.9610 C   0  0  0  0  0  0  0  0  0  0  0  0
   45.2930   33.4270   44.0190 C   0  0  0  0  0  0  0  0  0  0  0  0
   45.0970   32.2060   43.3680 C   0  0  0  0  0  0  0  0  0  0  0  0
   45.8790   31.1520   43.6580 N   0  0  0  0  0  0  0  0  0  0  0  0
   46.8750   31.1890   44.5650 C   0  0  0  0  0  0  0  0  0  0  0  0
   47.0830   32.3560   45.2070 N   0  0  0  0  0  0  0  0  0  0  0  0
   44.4920   34.5740   43.7490 N   0  0  0  0  0  0  0  0  0  0  0  0
   44.7860   35.5090   42.7030 C   0  0  0  0  0  0  0  0  0  0  0  0
   46.0530   35.7820   42.5070 N   0  0  0  0  0  0  0  0  0  0  0  0
   43.6100   36.0030   42.0270 N   0  0  0  0  0  0  0  0  0  0  0  0
   46.3450   36.4650   41.8010 H   0  0  0  0  0  0  0  0  0  0  0  0
   47.1040   28.8150   44.0240 C   0  0  0  0  0  0  0  0  0  0  0  0
   49.0630   30.2680   44.2550 C   0  0  0  0  0  0  0  0  0  0  0  0
   47.6990   29.5470   46.2710 C   0  0  0  0  0  0  0  0  0  0  0  0
   48.6960   30.0330   47.1270 N   0  0  0  0  0  0  0  0  0  0  0  0
   49.6430   29.1410   47.6680 C   0  0  0  0  0  0  0  0  0  0  0  0
   49.5200   29.0030   49.1800 C   0  0  0  0  0  0  0  0  0  0  0  0
   49.3780   30.2930   49.9090 C   0  0  0  0  0  0  0  0  0  0  0  0
   49.2410   31.4850   49.0130 C   0  0  0  0  0  0  0  0  0  0  0  0
   48.2560   31.1270   47.9160 C   0  0  2  0  0  0  0  0  0  0  0  0
   46.9030   30.8960   48.4940 C   0  0  0  0  0  0  0  0  0  0  0  0
   46.1030   31.8300   49.1640 C   0  0  0  0  0  0  0  0  0  0  0  0
   44.9180   31.2430   49.5520 C   0  0  0  0  0  0  0  0  0  0  0  0
   45.0310   29.9640   49.1040 N   0  0  0  0  0  0  0  0  0  0  0  0
   46.1810   29.7610   48.4910 N   0  0  0  0  0  0  0  0  0  0  0  0
   46.5529   34.3584   45.5134 H   0  0  0  0  0  0  0  0  0  0  0  0
   44.3003   32.1072   42.6160 H   0  0  0  0  0  0  0  0  0  0  0  0
   43.6607   34.7395   44.3343 H   0  0  0  0  0  0  0  0  0  0  0  0
   43.7050   36.6810   41.2575 H   0  0  0  0  0  0  0  0  0  0  0  0
   42.6760   35.6774   42.3142 H   0  0  0  0  0  0  0  0  0  0  0  0
   46.7182   28.0505   44.7145 H   0  0  0  0  0  0  0  0  0  0  0  0
   46.2841   29.1839   43.3902 H   0  0  0  0  0  0  0  0  0  0  0  0
   47.8878   28.3746   43.3902 H   0  0  0  0  0  0  0  0  0  0  0  0
   49.7875   30.4135   45.0698 H   0  0  0  0  0  0  0  0  0  0  0  0
   49.3750   29.4146   43.6350 H   0  0  0  0  0  0  0  0  0  0  0  0
   49.0212   31.1757   43.6350 H   0  0  0  0  0  0  0  0  0  0  0  0
   46.7306   29.8410   46.7020 H   0  0  0  0  0  0  0  0  0  0  0  0
   47.8989   28.4668   46.2140 H   0  0  0  0  0  0  0  0  0  0  0  0
   49.4964   28.1514   47.2107 H   0  0  0  0  0  0  0  0  0  0  0  0
   50.6431   29.5441   47.4503 H   0  0  0  0  0  0  0  0  0  0  0  0
   48.6355   28.3864   49.3977 H   0  0  0  0  0  0  0  0  0  0  0  0
   50.4586   28.5483   49.5296 H   0  0  0  0  0  0  0  0  0  0  0  0
   48.4832   30.2340   50.5460 H   0  0  0  0  0  0  0  0  0  0  0  0
   50.3015   30.4347   50.4896 H   0  0  0  0  0  0  0  0  0  0  0  0
   48.8655   32.3445   49.5877 H   0  0  0  0  0  0  0  0  0  0  0  0
   50.2158   31.7567   48.5817 H   0  0  0  0  0  0  0  0  0  0  0  0
   48.1929   31.9828   47.2278 H   0  0  0  0  0  0  0  0  0  0  0  0
   46.3797   32.8778   49.3528 H   0  0  0  0  0  0  0  0  0  0  0  0
   44.0787   31.7010   50.0958 H   0  0  0  0  0  0  0  0  0  0  0  0
   44.3070   29.2420   49.2282 H   0  0  0  0  0  0  0  0  0  0  0  0
  1 15  1  0
  2  7  2  0
  3  2  1  0
  4  5  1  0
  4  3  2  0
  5  6  2  0
  6  1  1  0
  6  7  1  0
  8  3  1  0
  9  8  1  0
 10  9  2  0
 11  9  1  0
 12 10  1  0
 13  1  1  0
 14  1  1  0
 15 16  1  0
 16 17  1  0
 16 21  1  0
 17 18  1  0
 18 19  1  0
 20 19  1  0
 21 22  1  0
 21 20  1  0
 22 23  1  0
 23 24  2  0
 25 24  1  0
 26 22  2  0
 26 25  1  0
  2 27  1  0
  4 28  1  0
  8 29  1  0
 11 30  1  0
 11 31  1  0
 13 32  1  0
 13 33  1  0
 13 34  1  0
 14 35  1  0
 14 36  1  0
 14 37  1  0
 15 38  1  0
 15 39  1  0
 17 40  1  0
 17 41  1  0
 18 42  1  0
 18 43  1  0
 19 44  1  0
 19 45  1  0
 20 46  1  0
 20 47  1  0
 21 48  1  6
 23 49  1  0
 24 50  1  0
 25 51  1  0
M  ISO  8  27  14  28  14  32   8  33   8  34   8  35   8  36   8  37   8
M  ISO  8  38   8  39   8  40  13  41  13  42  13  43  13  44  13  45  13
M  ISO  6  46  13  47  13  48  13  49  14  50  14  51   9
M  END
>  <minimizedAffinity>  (1) 
-4.85572004

>  <minimizedRMSD>  (1) 
1.55430329

$$$$
