
     RDKit          3D

 49 51  0  0  1  0  0  0  0  0999 V2000
   47.6620   30.0110   44.7990 C   0  0  0  0  0  0  0  0  0  0  0  0
   46.3450   33.4670   44.9830 C   0  0  0  0  0  0  0  0  0  0  0  0
   45.2740   33.4900   44.0730 C   0  0  0  0  0  0  0  0  0  0  0  0
   45.0440   32.2760   43.4150 C   0  0  0  0  0  0  0  0  0  0  0  0
   45.8160   31.1980   43.6670 N   0  0  0  0  0  0  0  0  0  0  0  0
   46.8440   31.2350   44.5630 C   0  0  0  0  0  0  0  0  0  0  0  0
   47.0730   32.3850   45.1970 N   0  0  0  0  0  0  0  0  0  0  0  0
   44.4680   34.6360   43.8180 N   0  0  0  0  0  0  0  0  0  0  0  0
   44.7390   35.5820   42.7760 C   0  0  0  0  0  0  0  0  0  0  0  0
   45.9940   35.8560   42.5580 N   0  0  0  0  0  0  0  0  0  0  0  0
   43.5650   36.0920   42.1210 N   0  0  0  0  0  0  0  0  0  0  0  0
   46.2850   36.5270   41.8170 H   0  0  0  0  0  0  0  0  0  0  0  0
   47.0380   28.8580   43.9720 C   0  0  0  0  0  0  0  0  0  0  0  0
   49.0190   30.2770   44.2060 C   0  0  0  0  0  0  0  0  0  0  0  0
   47.6470   29.5580   46.2230 C   0  0  0  0  0  0  0  0  0  0  0  0
   48.6280   30.0510   47.0910 N   0  0  0  0  0  0  0  0  0  0  0  0
   49.6120   29.1760   47.6050 C   0  0  0  0  0  0  0  0  0  0  0  0
   49.4810   28.9900   49.1120 C   0  0  0  0  0  0  0  0  0  0  0  0
   49.3310   30.2540   49.8690 C   0  0  0  0  0  0  0  0  0  0  0  0
   49.1540   31.4790   49.0070 C   0  0  0  0  0  0  0  0  0  0  0  0
   48.1810   31.1200   47.9100 C   0  0  2  0  0  0  0  0  0  0  0  0
   46.8350   30.9700   48.4860 C   0  0  0  0  0  0  0  0  0  0  0  0
   46.0220   29.8770   48.4510 N   0  0  0  0  0  0  0  0  0  0  0  0
   44.9080   30.1080   49.0660 O   0  0  0  0  0  0  0  0  0  0  0  0
   44.9600   31.3440   49.5160 C   0  0  0  0  0  0  0  0  0  0  0  0
   46.1430   31.8760   49.1610 N   0  0  0  0  0  0  0  0  0  0  0  0
   46.5866   34.3852   45.5385 H   0  0  0  0  0  0  0  0  0  0  0  0
   44.2251   32.1998   42.6845 H   0  0  0  0  0  0  0  0  0  0  0  0
   43.6442   34.7938   44.4158 H   0  0  0  0  0  0  0  0  0  0  0  0
   43.6578   36.7779   41.3582 H   0  0  0  0  0  0  0  0  0  0  0  0
   42.6312   35.7715   42.4146 H   0  0  0  0  0  0  0  0  0  0  0  0
   46.6270   28.0986   44.6535 H   0  0  0  0  0  0  0  0  0  0  0  0
   46.2322   29.2561   43.3378 H   0  0  0  0  0  0  0  0  0  0  0  0
   47.8120   28.4011   43.3378 H   0  0  0  0  0  0  0  0  0  0  0  0
   49.7508   30.4204   45.0146 H   0  0  0  0  0  0  0  0  0  0  0  0
   49.3219   29.4211   43.5849 H   0  0  0  0  0  0  0  0  0  0  0  0
   48.9764   31.1839   43.5849 H   0  0  0  0  0  0  0  0  0  0  0  0
   46.6703   29.8399   46.6432 H   0  0  0  0  0  0  0  0  0  0  0  0
   47.8563   28.4797   46.1647 H   0  0  0  0  0  0  0  0  0  0  0  0
   49.5063   28.1964   47.1159 H   0  0  0  0  0  0  0  0  0  0  0  0
   50.5986   29.6182   47.4022 H   0  0  0  0  0  0  0  0  0  0  0  0
   48.5975   28.3643   49.3068 H   0  0  0  0  0  0  0  0  0  0  0  0
   50.4168   28.5250   49.4556 H   0  0  0  0  0  0  0  0  0  0  0  0
   48.4500   30.1620   50.5212 H   0  0  0  0  0  0  0  0  0  0  0  0
   50.2664   30.3971   50.4298 H   0  0  0  0  0  0  0  0  0  0  0  0
   48.7534   32.3080   49.6089 H   0  0  0  0  0  0  0  0  0  0  0  0
   50.1173   31.7993   48.5833 H   0  0  0  0  0  0  0  0  0  0  0  0
   48.1208   31.9462   47.1863 H   0  0  0  0  0  0  0  0  0  0  0  0
   44.1699   31.8550   50.0857 H   0  0  0  0  0  0  0  0  0  0  0  0
  1 15  1  0
  2  7  2  0
  3  2  1  0
  4  5  1  0
  4  3  2  0
  5  6  2  0
  6  1  1  0
  6  7  1  0
  8  3  1  0
  9  8  1  0
 10  9  2  0
 11  9  1  0
 12 10  1  0
 13  1  1  0
 14  1  1  0
 15 16  1  0
 16 17  1  0
 16 21  1  0
 17 18  1  0
 18 19  1  0
 20 19  1  0
 21 22  1  0
 21 20  1  0
 22 26  1  0
 23 22  2  0
 23 24  1  0
 24 25  1  0
 26 25  2  0
  2 27  1  0
  4 28  1  0
  8 29  1  0
 11 30  1  0
 11 31  1  0
 13 32  1  0
 13 33  1  0
 13 34  1  0
 14 35  1  0
 14 36  1  0
 14 37  1  0
 15 38  1  0
 15 39  1  0
 17 40  1  0
 17 41  1  0
 18 42  1  0
 18 43  1  0
 19 44  1  0
 19 45  1  0
 20 46  1  0
 20 47  1  0
 21 48  1  6
 25 49  1  0
M  ISO  8  27  14  28  14  32   8  33   8  34   8  35   8  36   8  37   8
M  ISO  8  38   8  39   8  40  13  41  13  42  13  43  13  44  13  45  13
M  ISO  4  46  13  47  13  48  13  49  14
M  END
>  <minimizedAffinity>  (1) 
-4.84789371

>  <minimizedRMSD>  (1) 
1.59993017

$$$$
