
     RDKit          3D

 51 53  0  0  1  0  0  0  0  0999 V2000
   47.7060   29.9360   44.8170 C   0  0  0  0  0  0  0  0  0  0  0  0
   46.3610   33.3800   45.0880 C   0  0  0  0  0  0  0  0  0  0  0  0
   45.3260   33.4350   44.1580 C   0  0  0  0  0  0  0  0  0  0  0  0
   45.1190   32.2430   43.4440 C   0  0  0  0  0  0  0  0  0  0  0  0
   45.8920   31.1610   43.6820 N   0  0  0  0  0  0  0  0  0  0  0  0
   46.8830   31.1640   44.5960 C   0  0  0  0  0  0  0  0  0  0  0  0
   47.1010   32.2970   45.2940 N   0  0  0  0  0  0  0  0  0  0  0  0
   44.5270   34.5980   43.9320 N   0  0  0  0  0  0  0  0  0  0  0  0
   44.7470   35.5150   42.8620 C   0  0  0  0  0  0  0  0  0  0  0  0
   46.0030   35.7590   42.5660 N   0  0  0  0  0  0  0  0  0  0  0  0
   43.5470   36.0340   42.2680 N   0  0  0  0  0  0  0  0  0  0  0  0
   46.2550   36.4130   41.8100 H   0  0  0  0  0  0  0  0  0  0  0  0
   47.0320   28.7910   44.0120 C   0  0  0  0  0  0  0  0  0  0  0  0
   49.0460   30.2000   44.2120 C   0  0  0  0  0  0  0  0  0  0  0  0
   47.7030   29.4820   46.2460 C   0  0  0  0  0  0  0  0  0  0  0  0
   48.7330   29.9100   47.0830 N   0  0  0  0  0  0  0  0  0  0  0  0
   49.7460   29.0300   47.5020 C   0  0  0  0  0  0  0  0  0  0  0  0
   49.6810   28.7600   49.0030 C   0  0  0  0  0  0  0  0  0  0  0  0
   49.4980   29.9660   49.8570 C   0  0  0  0  0  0  0  0  0  0  0  0
   49.3700   31.2330   49.0550 C   0  0  0  0  0  0  0  0  0  0  0  0
   48.3570   30.9610   47.9620 C   0  0  2  0  0  0  0  0  0  0  0  0
   47.0020   30.9160   48.4430 N   0  0  0  0  0  0  0  0  0  0  0  0
   46.2530   31.8830   49.0510 C   0  0  0  0  0  0  0  0  0  0  0  0
   44.9870   31.4070   49.3510 C   0  0  0  0  0  0  0  0  0  0  0  0
   44.9510   30.1380   48.9240 N   0  0  0  0  0  0  0  0  0  0  0  0
   46.1350   29.8640   48.3940 C   0  0  0  0  0  0  0  0  0  0  0  0
   46.5766   34.2800   45.6825 H   0  0  0  0  0  0  0  0  0  0  0  0
   44.3229   32.1904   42.6868 H   0  0  0  0  0  0  0  0  0  0  0  0
   43.7475   34.7847   44.5789 H   0  0  0  0  0  0  0  0  0  0  0  0
   43.6066   36.7036   41.4876 H   0  0  0  0  0  0  0  0  0  0  0  0
   42.6267   35.7367   42.6224 H   0  0  0  0  0  0  0  0  0  0  0  0
   46.6003   28.0576   44.7090 H   0  0  0  0  0  0  0  0  0  0  0  0
   46.2352   29.2079   43.3785 H   0  0  0  0  0  0  0  0  0  0  0  0
   47.7832   28.2967   43.3785 H   0  0  0  0  0  0  0  0  0  0  0  0
   49.7870   30.3460   45.0117 H   0  0  0  0  0  0  0  0  0  0  0  0
   49.3425   29.3430   43.5894 H   0  0  0  0  0  0  0  0  0  0  0  0
   48.9953   31.1054   43.5894 H   0  0  0  0  0  0  0  0  0  0  0  0
   46.7580   29.8240   46.6932 H   0  0  0  0  0  0  0  0  0  0  0  0
   47.8432   28.3928   46.1824 H   0  0  0  0  0  0  0  0  0  0  0  0
   49.6340   28.0770   46.9641 H   0  0  0  0  0  0  0  0  0  0  0  0
   50.7167   29.4982   47.2817 H   0  0  0  0  0  0  0  0  0  0  0  0
   48.8373   28.0794   49.1901 H   0  0  0  0  0  0  0  0  0  0  0  0
   50.6576   28.3358   49.2793 H   0  0  0  0  0  0  0  0  0  0  0  0
   48.5857   29.8364   50.4578 H   0  0  0  0  0  0  0  0  0  0  0  0
   50.3923   30.0630   50.4901 H   0  0  0  0  0  0  0  0  0  0  0  0
   49.0212   32.0543   49.6982 H   0  0  0  0  0  0  0  0  0  0  0  0
   50.3398   31.5289   48.6285 H   0  0  0  0  0  0  0  0  0  0  0  0
   48.3698   31.8455   47.3082 H   0  0  0  0  0  0  0  0  0  0  0  0
   46.6067   32.9008   49.2722 H   0  0  0  0  0  0  0  0  0  0  0  0
   44.1734   31.9609   49.8421 H   0  0  0  0  0  0  0  0  0  0  0  0
   46.3922   28.8871   47.9587 H   0  0  0  0  0  0  0  0  0  0  0  0
  1 15  1  0
  2  7  2  0
  3  2  1  0
  4  5  1  0
  4  3  2  0
  5  6  2  0
  6  1  1  0
  6  7  1  0
  8  3  1  0
  9  8  1  0
 10  9  2  0
 11  9  1  0
 12 10  1  0
 13  1  1  0
 14  1  1  0
 15 16  1  0
 16 17  1  0
 16 21  1  0
 17 18  1  0
 18 19  1  0
 20 19  1  0
 21 22  1  0
 21 20  1  0
 22 23  1  0
 23 24  2  0
 25 24  1  0
 26 22  1  0
 26 25  2  0
  2 27  1  0
  4 28  1  0
  8 29  1  0
 11 30  1  0
 11 31  1  0
 13 32  1  0
 13 33  1  0
 13 34  1  0
 14 35  1  0
 14 36  1  0
 14 37  1  0
 15 38  1  0
 15 39  1  0
 17 40  1  0
 17 41  1  0
 18 42  1  0
 18 43  1  0
 19 44  1  0
 19 45  1  0
 20 46  1  0
 20 47  1  0
 21 48  1  6
 23 49  1  0
 24 50  1  0
 26 51  1  0
M  ISO  8  27  14  28  14  32   8  33   8  34   8  35   8  36   8  37   8
M  ISO  8  38   8  39   8  40  13  41  13  42  13  43  13  44  13  45  13
M  ISO  6  46  13  47  13  48  13  49  14  50  14  51  14
M  END
>  <minimizedAffinity>  (1) 
-4.79123068

>  <minimizedRMSD>  (1) 
1.56593812

$$$$
