
     RDKit          3D

 47 48  0  0  1  0  0  0  0  0999 V2000
   45.8220   33.0500   43.9880 C   0  0  0  0  0  0  0  0  0  0  0  0
   47.8040   32.0890   41.0170 C   0  0  0  0  0  0  0  0  0  0  0  0
   48.1710   33.3100   40.4320 C   0  0  0  0  0  0  0  0  0  0  0  0
   47.7050   34.4410   41.1050 C   0  0  0  0  0  0  0  0  0  0  0  0
   46.9680   34.3170   42.2220 N   0  0  0  0  0  0  0  0  0  0  0  0
   46.6380   33.1140   42.7510 C   0  0  0  0  0  0  0  0  0  0  0  0
   47.0720   32.0150   42.1250 N   0  0  0  0  0  0  0  0  0  0  0  0
   48.9560   33.4070   39.2430 N   0  0  0  0  0  0  0  0  0  0  0  0
   48.4640   33.9770   38.0200 C   0  0  0  0  0  0  0  0  0  0  0  0
   47.2160   33.7290   37.7220 N   0  0  0  0  0  0  0  0  0  0  0  0
   49.4480   34.7480   37.2990 N   0  0  0  0  0  0  0  0  0  0  0  0
   46.7880   34.1080   36.8570 H   0  0  0  0  0  0  0  0  0  0  0  0
   45.3850   34.5060   44.3340 C   0  0  0  0  0  0  0  0  0  0  0  0
   44.5770   32.2970   43.6760 C   0  0  0  0  0  0  0  0  0  0  0  0
   46.5770   32.5780   45.1990 C   0  0  0  0  0  0  0  0  0  0  0  0
   45.8940   31.9830   46.2450 N   0  0  0  0  0  0  0  0  0  0  0  0
   45.4980   32.7910   47.3560 C   0  0  0  0  0  0  0  0  0  0  0  0
   46.2050   32.3430   48.6430 C   0  0  0  0  0  0  0  0  0  0  0  0
   46.0660   30.8850   48.8910 C   0  0  0  0  0  0  0  0  0  0  0  0
   45.4600   30.1040   47.7490 C   0  0  0  0  0  0  0  0  0  0  0  0
   46.1310   30.6320   46.4760 C   0  0  2  0  0  0  0  0  0  0  0  0
   47.5090   30.0820   46.4850 C   0  0  0  0  0  0  0  0  0  0  0  0
   48.4200   30.7900   47.2430 F   0  0  0  0  0  0  0  0  0  0  0  0
   47.4730   28.8050   47.1250 F   0  0  0  0  0  0  0  0  0  0  0  0
   48.0680   29.7660   45.2740 F   0  0  0  0  0  0  0  0  0  0  0  0
   48.1351   31.1547   40.5400 H   0  0  0  0  0  0  0  0  0  0  0  0
   47.9432   35.4426   40.7175 H   0  0  0  0  0  0  0  0  0  0  0  0
   49.9222   33.0508   39.2635 H   0  0  0  0  0  0  0  0  0  0  0  0
   49.1966   35.1997   36.4081 H   0  0  0  0  0  0  0  0  0  0  0  0
   50.4017   34.8466   37.6753 H   0  0  0  0  0  0  0  0  0  0  0  0
   45.3484   34.6280   45.4266 H   0  0  0  0  0  0  0  0  0  0  0  0
   46.1094   35.2168   43.9098 H   0  0  0  0  0  0  0  0  0  0  0  0
   44.3889   34.7005   43.9098 H   0  0  0  0  0  0  0  0  0  0  0  0
   44.0842   31.9989   44.6132 H   0  0  0  0  0  0  0  0  0  0  0  0
   43.8984   32.9362   43.0921 H   0  0  0  0  0  0  0  0  0  0  0  0
   44.8281   31.3992   43.0921 H   0  0  0  0  0  0  0  0  0  0  0  0
   47.3199   31.8472   44.8467 H   0  0  0  0  0  0  0  0  0  0  0  0
   46.9598   33.5098   45.6408 H   0  0  0  0  0  0  0  0  0  0  0  0
   45.7585   33.8395   47.1490 H   0  0  0  0  0  0  0  0  0  0  0  0
   44.4124   32.6838   47.4975 H   0  0  0  0  0  0  0  0  0  0  0  0
   47.2746   32.5864   48.5608 H   0  0  0  0  0  0  0  0  0  0  0  0
   45.7332   32.8714   49.4845 H   0  0  0  0  0  0  0  0  0  0  0  0
   47.0666   30.4752   49.0931 H   0  0  0  0  0  0  0  0  0  0  0  0
   45.3746   30.7795   49.7401 H   0  0  0  0  0  0  0  0  0  0  0  0
   45.6621   29.0296   47.8705 H   0  0  0  0  0  0  0  0  0  0  0  0
   44.3676   30.2271   47.7105 H   0  0  0  0  0  0  0  0  0  0  0  0
   45.6824   30.2736   45.5378 H   0  0  0  0  0  0  0  0  0  0  0  0
  1 13  1  0
  1 15  1  0
  2  7  2  0
  3  2  1  0
  3  4  2  0
  4  5  1  0
  5  6  2  0
  6  1  1  0
  7  6  1  0
  8  3  1  0
  9  8  1  0
 10  9  2  0
 11  9  1  0
 12 10  1  0
 14  1  1  0
 15 16  1  0
 16 21  1  0
 16 17  1  0
 17 18  1  0
 18 19  1  0
 20 19  1  0
 21 22  1  0
 21 20  1  0
 22 24  1  0
 22 23  1  0
 25 22  1  0
  2 26  1  0
  4 27  1  0
  8 28  1  0
 11 29  1  0
 11 30  1  0
 13 31  1  0
 13 32  1  0
 13 33  1  0
 14 34  1  0
 14 35  1  0
 14 36  1  0
 15 37  1  0
 15 38  1  0
 17 39  1  0
 17 40  1  0
 18 41  1  0
 18 42  1  0
 19 43  1  0
 19 44  1  0
 20 45  1  0
 20 46  1  0
 21 47  1  6
M  ISO  8  26  14  27  14  31   8  32   8  33   8  34   8  35   8  36   8
M  ISO  8  37   8  38   8  39  13  40  13  41  13  42  13  43  13  44  13
M  ISO  3  45  13  46  13  47  13
M  END
>  <minimizedAffinity>  (1) 
-4.77522516

>  <minimizedRMSD>  (1) 
5.01723242

$$$$
