
     RDKit          3D

 53 54  0  0  1  0  0  0  0  0999 V2000
   47.4020   29.9610   45.1250 C   0  0  0  0  0  0  0  0  0  0  0  0
   46.1960   33.4630   45.2440 C   0  0  0  0  0  0  0  0  0  0  0  0
   45.2530   33.5550   44.2230 C   0  0  0  0  0  0  0  0  0  0  0  0
   45.0590   32.3760   43.5080 C   0  0  0  0  0  0  0  0  0  0  0  0
   45.7540   31.2670   43.8220 N   0  0  0  0  0  0  0  0  0  0  0  0
   46.6620   31.2200   44.8220 C   0  0  0  0  0  0  0  0  0  0  0  0
   46.8580   32.3350   45.5130 N   0  0  0  0  0  0  0  0  0  0  0  0
   44.5290   34.7470   43.9130 N   0  0  0  0  0  0  0  0  0  0  0  0
   44.8400   35.5960   42.8010 C   0  0  0  0  0  0  0  0  0  0  0  0
   46.1000   35.7510   42.5260 N   0  0  0  0  0  0  0  0  0  0  0  0
   43.6610   36.1470   42.1600 N   0  0  0  0  0  0  0  0  0  0  0  0
   46.4000   36.3460   41.7370 H   0  0  0  0  0  0  0  0  0  0  0  0
   46.6670   28.8100   44.4000 C   0  0  0  0  0  0  0  0  0  0  0  0
   48.7420   30.0980   44.4620 C   0  0  0  0  0  0  0  0  0  0  0  0
   47.4280   29.6070   46.5780 C   0  0  0  0  0  0  0  0  0  0  0  0
   48.4180   30.1290   47.3980 N   0  0  0  0  0  0  0  0  0  0  0  0
   49.5520   29.3230   47.7160 C   0  0  0  0  0  0  0  0  0  0  0  0
   49.6720   29.0630   49.1940 C   0  0  0  0  0  0  0  0  0  0  0  0
   49.4550   30.2550   50.0620 C   0  0  0  0  0  0  0  0  0  0  0  0
   49.1360   31.4870   49.2810 C   0  0  0  0  0  0  0  0  0  0  0  0
   48.0330   31.1250   48.2890 C   0  0  2  0  0  0  0  0  0  0  0  0
   46.7190   31.1110   48.9590 C   0  0  0  0  0  0  0  0  0  0  0  0
   45.9180   29.9110   48.4220 C   0  0  0  0  0  0  0  0  0  0  0  0
   45.8770   32.3170   48.9440 C   0  0  0  0  0  0  0  0  0  0  0  0
   46.4036   34.3552   45.8530 H   0  0  0  0  0  0  0  0  0  0  0  0
   44.3334   32.3508   42.6816 H   0  0  0  0  0  0  0  0  0  0  0  0
   43.7409   35.0105   44.5216 H   0  0  0  0  0  0  0  0  0  0  0  0
   43.7612   36.7727   41.3480 H   0  0  0  0  0  0  0  0  0  0  0  0
   42.7237   35.9125   42.5169 H   0  0  0  0  0  0  0  0  0  0  0  0
   46.2310   28.1272   45.1441 H   0  0  0  0  0  0  0  0  0  0  0  0
   45.8666   29.2254   43.7701 H   0  0  0  0  0  0  0  0  0  0  0  0
   47.3805   28.2586   43.7701 H   0  0  0  0  0  0  0  0  0  0  0  0
   49.5249   30.1780   45.2306 H   0  0  0  0  0  0  0  0  0  0  0  0
   48.9328   29.2147   43.8348 H   0  0  0  0  0  0  0  0  0  0  0  0
   48.7501   31.0017   43.8348 H   0  0  0  0  0  0  0  0  0  0  0  0
   46.4637   29.9258   47.0006 H   0  0  0  0  0  0  0  0  0  0  0  0
   47.6436   28.5283   46.5735 H   0  0  0  0  0  0  0  0  0  0  0  0
   49.4587   28.3594   47.1938 H   0  0  0  0  0  0  0  0  0  0  0  0
   50.4524   29.8679   47.3961 H   0  0  0  0  0  0  0  0  0  0  0  0
   48.9276   28.3010   49.4681 H   0  0  0  0  0  0  0  0  0  0  0  0
   50.7096   28.7412   49.3667 H   0  0  0  0  0  0  0  0  0  0  0  0
   48.6188   30.0452   50.7451 H   0  0  0  0  0  0  0  0  0  0  0  0
   50.3907   30.4419   50.6093 H   0  0  0  0  0  0  0  0  0  0  0  0
   48.7876   32.2814   49.9574 H   0  0  0  0  0  0  0  0  0  0  0  0
   50.0283   31.8545   48.7531 H   0  0  0  0  0  0  0  0  0  0  0  0
   47.8582   31.9132   47.5418 H   0  0  0  0  0  0  0  0  0  0  0  0
   46.9836   31.0456   50.0247 H   0  0  0  0  0  0  0  0  0  0  0  0
   45.5264   29.3243   49.2661 H   0  0  0  0  0  0  0  0  0  0  0  0
   45.0806   30.2743   47.8081 H   0  0  0  0  0  0  0  0  0  0  0  0
   46.5747   29.2770   47.8081 H   0  0  0  0  0  0  0  0  0  0  0  0
   45.6611   32.6263   49.9773 H   0  0  0  0  0  0  0  0  0  0  0  0
   46.4066   33.1274   48.4217 H   0  0  0  0  0  0  0  0  0  0  0  0
   44.9337   32.0991   48.4217 H   0  0  0  0  0  0  0  0  0  0  0  0
  1 15  1  0
  2  7  2  0
  3  2  1  0
  4  5  1  0
  4  3  2  0
  5  6  2  0
  6  1  1  0
  6  7  1  0
  8  3  1  0
  9  8  1  0
 10  9  2  0
 11  9  1  0
 12 10  1  0
 13  1  1  0
 14  1  1  0
 15 16  1  0
 16 17  1  0
 16 21  1  0
 17 18  1  0
 18 19  1  0
 20 19  1  0
 21 22  1  0
 21 20  1  0
 23 22  1  0
 24 22  1  0
  2 25  1  0
  4 26  1  0
  8 27  1  0
 11 28  1  0
 11 29  1  0
 13 30  1  0
 13 31  1  0
 13 32  1  0
 14 33  1  0
 14 34  1  0
 14 35  1  0
 15 36  1  0
 15 37  1  0
 17 38  1  0
 17 39  1  0
 18 40  1  0
 18 41  1  0
 19 42  1  0
 19 43  1  0
 20 44  1  0
 20 45  1  0
 21 46  1  6
 22 47  1  0
 23 48  1  0
 23 49  1  0
 23 50  1  0
 24 51  1  0
 24 52  1  0
 24 53  1  0
M  ISO  8  25  14  26  14  30   8  31   8  32   8  33   8  34   8  35   8
M  ISO  8  36   8  37   8  38  13  39  13  40  13  41  13  42  13  43  13
M  ISO  8  44  13  45  13  46  13  47   8  48   8  49   8  50   8  51   8
M  ISO  2  52   8  53   8
M  END
>  <minimizedAffinity>  (1) 
-4.88210201

>  <minimizedRMSD>  (1) 
1.1668973

$$$$
