
     RDKit          3D

 50 51  0  0  1  0  0  0  0  0999 V2000
   47.3950   29.9680   45.1910 C   0  0  0  0  0  0  0  0  0  0  0  0
   46.2180   33.4800   45.2780 C   0  0  0  0  0  0  0  0  0  0  0  0
   45.2590   33.5660   44.2620 C   0  0  0  0  0  0  0  0  0  0  0  0
   45.0520   32.3720   43.5690 C   0  0  0  0  0  0  0  0  0  0  0  0
   45.7430   31.2710   43.8940 N   0  0  0  0  0  0  0  0  0  0  0  0
   46.6620   31.2270   44.8820 C   0  0  0  0  0  0  0  0  0  0  0  0
   46.8800   32.3630   45.5650 N   0  0  0  0  0  0  0  0  0  0  0  0
   44.5410   34.7580   43.9440 N   0  0  0  0  0  0  0  0  0  0  0  0
   44.8400   35.5790   42.8070 C   0  0  0  0  0  0  0  0  0  0  0  0
   46.1060   35.7230   42.5140 N   0  0  0  0  0  0  0  0  0  0  0  0
   43.6680   36.1230   42.1580 N   0  0  0  0  0  0  0  0  0  0  0  0
   46.4100   36.3070   41.7140 H   0  0  0  0  0  0  0  0  0  0  0  0
   46.6210   28.8170   44.5020 C   0  0  0  0  0  0  0  0  0  0  0  0
   48.7220   30.0640   44.4930 C   0  0  0  0  0  0  0  0  0  0  0  0
   47.4440   29.6290   46.6400 C   0  0  0  0  0  0  0  0  0  0  0  0
   48.4700   30.1810   47.4240 N   0  0  0  0  0  0  0  0  0  0  0  0
   49.5850   29.3600   47.7570 C   0  0  0  0  0  0  0  0  0  0  0  0
   49.6730   29.0950   49.2480 C   0  0  0  0  0  0  0  0  0  0  0  0
   49.5010   30.3070   50.0960 C   0  0  0  0  0  0  0  0  0  0  0  0
   49.1970   31.5470   49.2950 C   0  0  0  0  0  0  0  0  0  0  0  0
   48.0900   31.1690   48.3250 C   0  0  2  0  0  0  0  0  0  0  0  0
   46.8660   30.9670   49.1670 C   0  0  0  0  0  0  0  0  0  0  0  0
   45.9390   32.1700   48.9720 C   0  0  0  0  0  0  0  0  0  0  0  0
   46.4350   34.3821   45.8689 H   0  0  0  0  0  0  0  0  0  0  0  0
   44.3172   32.3348   42.7512 H   0  0  0  0  0  0  0  0  0  0  0  0
   43.7686   35.0430   44.5629 H   0  0  0  0  0  0  0  0  0  0  0  0
   43.7714   36.7271   41.3302 H   0  0  0  0  0  0  0  0  0  0  0  0
   42.7297   35.9064   42.5235 H   0  0  0  0  0  0  0  0  0  0  0  0
   46.1803   28.1616   45.2677 H   0  0  0  0  0  0  0  0  0  0  0  0
   45.8212   29.2371   43.8745 H   0  0  0  0  0  0  0  0  0  0  0  0
   47.3118   28.2347   43.8745 H   0  0  0  0  0  0  0  0  0  0  0  0
   49.5264   30.1222   45.2410 H   0  0  0  0  0  0  0  0  0  0  0  0
   48.8704   29.1742   43.8635 H   0  0  0  0  0  0  0  0  0  0  0  0
   48.7408   30.9659   43.8635 H   0  0  0  0  0  0  0  0  0  0  0  0
   46.4893   29.9514   47.0812 H   0  0  0  0  0  0  0  0  0  0  0  0
   47.6454   28.5477   46.6564 H   0  0  0  0  0  0  0  0  0  0  0  0
   49.4875   28.3988   47.2310 H   0  0  0  0  0  0  0  0  0  0  0  0
   50.4993   29.8904   47.4525 H   0  0  0  0  0  0  0  0  0  0  0  0
   48.8885   28.3722   49.5165 H   0  0  0  0  0  0  0  0  0  0  0  0
   50.6872   28.7158   49.4417 H   0  0  0  0  0  0  0  0  0  0  0  0
   48.6716   30.1300   50.7966 H   0  0  0  0  0  0  0  0  0  0  0  0
   50.4520   30.4791   50.6212 H   0  0  0  0  0  0  0  0  0  0  0  0
   48.8608   32.3565   49.9596 H   0  0  0  0  0  0  0  0  0  0  0  0
   50.0894   31.9067   48.7619 H   0  0  0  0  0  0  0  0  0  0  0  0
   47.8453   31.9564   47.5969 H   0  0  0  0  0  0  0  0  0  0  0  0
   46.3498   30.0465   48.8567 H   0  0  0  0  0  0  0  0  0  0  0  0
   47.1478   30.8758   50.2264 H   0  0  0  0  0  0  0  0  0  0  0  0
   45.6364   32.5627   49.9540 H   0  0  0  0  0  0  0  0  0  0  0  0
   46.4688   32.9540   48.4110 H   0  0  0  0  0  0  0  0  0  0  0  0
   45.0459   31.8576   48.4110 H   0  0  0  0  0  0  0  0  0  0  0  0
  1 15  1  0
  2  7  2  0
  3  2  1  0
  4  5  1  0
  4  3  2  0
  5  6  2  0
  6  1  1  0
  6  7  1  0
  8  3  1  0
  9  8  1  0
 10  9  2  0
 11  9  1  0
 12 10  1  0
 13  1  1  0
 14  1  1  0
 15 16  1  0
 16 17  1  0
 16 21  1  0
 17 18  1  0
 18 19  1  0
 20 19  1  0
 21 22  1  0
 21 20  1  0
 23 22  1  0
  2 24  1  0
  4 25  1  0
  8 26  1  0
 11 27  1  0
 11 28  1  0
 13 29  1  0
 13 30  1  0
 13 31  1  0
 14 32  1  0
 14 33  1  0
 14 34  1  0
 15 35  1  0
 15 36  1  0
 17 37  1  0
 17 38  1  0
 18 39  1  0
 18 40  1  0
 19 41  1  0
 19 42  1  0
 20 43  1  0
 20 44  1  0
 21 45  1  6
 22 46  1  0
 22 47  1  0
 23 48  1  0
 23 49  1  0
 23 50  1  0
M  ISO  8  24  14  25  14  29   8  30   8  31   8  32   8  33   8  34   8
M  ISO  8  35   8  36   8  37  13  38  13  39  13  40  13  41  13  42  13
M  ISO  8  43  13  44  13  45  13  46   8  47   8  48   8  49   8  50   8
M  END
>  <minimizedAffinity>  (1) 
-4.70994329

>  <minimizedRMSD>  (1) 
1.02603352

$$$$
