
     RDKit          3D

 23 24  0  0  0  0  0  0  0  0999 V2000
   45.1110   35.9370   43.3680 C   0  0  0  0  0  0  0  0  0  0  0  0
   46.0960   34.9200   43.3140 C   0  0  0  0  0  0  0  0  0  0  0  0
   46.2930   34.0950   44.4140 C   0  0  0  0  0  0  0  0  0  0  0  0
   45.5170   34.3080   45.5130 N   0  0  0  0  0  0  0  0  0  0  0  0
   44.5870   35.2770   45.5500 C   0  0  0  0  0  0  0  0  0  0  0  0
   44.3910   36.0850   44.4780 N   0  0  0  0  0  0  0  0  0  0  0  0
   47.2470   33.0540   44.4230 N   0  0  0  0  0  0  0  0  0  0  0  0
   46.7990   31.7390   44.7330 C   0  0  0  0  0  0  0  0  0  0  0  0
   45.5250   31.5000   44.6520 N   0  0  0  0  0  0  0  0  0  0  0  0
   47.6950   30.6750   45.1320 N   0  0  0  0  0  0  0  0  0  0  0  0
   45.2020   30.5380   44.8790 H   0  0  0  0  0  0  0  0  0  0  0  0
   46.8520   34.8000   42.1080 N   0  0  0  0  0  0  0  0  0  0  0  0
   46.4950   34.2080   40.9190 C   0  0  0  0  0  0  0  0  0  0  0  0
   47.5200   34.3350   40.0510 N   0  0  0  0  0  0  0  0  0  0  0  0
   48.5110   35.0030   40.7010 C   0  0  0  0  0  0  0  0  0  0  0  0
   48.0650   35.2660   41.9460 N   0  0  0  0  0  0  0  0  0  0  0  0
   44.9432   36.5961   42.5035 H   0  0  0  0  0  0  0  0  0  0  0  0
   43.9798   35.4163   46.4566 H   0  0  0  0  0  0  0  0  0  0  0  0
   48.2376   33.2407   44.2115 H   0  0  0  0  0  0  0  0  0  0  0  0
   47.3207   29.7396   45.3460 H   0  0  0  0  0  0  0  0  0  0  0  0
   48.7071   30.8531   45.2020 H   0  0  0  0  0  0  0  0  0  0  0  0
   45.5346   33.7138   40.7107 H   0  0  0  0  0  0  0  0  0  0  0  0
   49.4929   35.2774   40.2880 H   0  0  0  0  0  0  0  0  0  0  0  0
  1  6  2  0
  2  1  1  0
  2  3  2  0
  3  7  1  0
  3  4  1  0
  4  5  2  0
  6  5  1  0
  7  8  1  0
  8 10  1  0
  9  8  2  0
  9 11  1  0
 12  2  1  0
 13 12  1  0
 14 15  1  0
 14 13  2  0
 15 16  2  0
 16 12  1  0
  1 17  1  0
  5 18  1  0
  7 19  1  0
 10 20  1  0
 10 21  1  0
 13 22  1  0
 15 23  1  0
M  ISO  4  17  14  18  14  22  14  23  14
M  END
>  <minimizedAffinity>  (1) 
-4.59096479

>  <minimizedRMSD>  (1) 
3.36489177

$$$$
