
     RDKit          3D

 23 25  0  0  0  0  0  0  0  0999 V2000
   45.3530   36.1310   43.1810 C   0  0  0  0  0  0  0  0  0  0  0  0
   45.9110   34.8410   43.0110 C   0  0  0  0  0  0  0  0  0  0  0  0
   45.7800   33.9120   44.0340 C   0  0  0  0  0  0  0  0  0  0  0  0
   45.1190   34.2890   45.1560 N   0  0  0  0  0  0  0  0  0  0  0  0
   44.5950   35.5220   45.2950 C   0  0  0  0  0  0  0  0  0  0  0  0
   44.7150   36.4300   44.3130 N   0  0  0  0  0  0  0  0  0  0  0  0
   46.5760   34.6140   41.7640 N   0  0  0  0  0  0  0  0  0  0  0  0
   46.1740   34.0100   40.6240 C   0  0  0  0  0  0  0  0  0  0  0  0
   47.1840   34.0540   39.7190 N   0  0  0  0  0  0  0  0  0  0  0  0
   48.2100   34.6920   40.3150 C   0  0  0  0  0  0  0  0  0  0  0  0
   47.8180   35.0240   41.5570 N   0  0  0  0  0  0  0  0  0  0  0  0
   46.3560   32.6310   43.8170 N   0  0  0  0  0  0  0  0  0  0  0  0
   47.6700   32.4230   44.1170 C   0  0  0  0  0  0  0  0  0  0  0  0
   48.0120   31.1120   43.8250 C   0  0  0  0  0  0  0  0  0  0  0  0
   46.9050   30.5450   43.3540 N   0  0  0  0  0  0  0  0  0  0  0  0
   45.9190   31.4470   43.3490 C   0  0  0  0  0  0  0  0  0  0  0  0
   45.4453   36.8828   42.3833 H   0  0  0  0  0  0  0  0  0  0  0  0
   44.0641   35.7875   46.2211 H   0  0  0  0  0  0  0  0  0  0  0  0
   45.1864   33.5555   40.4565 H   0  0  0  0  0  0  0  0  0  0  0  0
   49.1917   34.9032   39.8660 H   0  0  0  0  0  0  0  0  0  0  0  0
   48.3540   33.1801   44.5280 H   0  0  0  0  0  0  0  0  0  0  0  0
   48.9961   30.6382   43.9558 H   0  0  0  0  0  0  0  0  0  0  0  0
   44.8917   31.2491   43.0092 H   0  0  0  0  0  0  0  0  0  0  0  0
  1  6  2  0
  2  1  1  0
  2  3  2  0
  3  4  1  0
  4  5  2  0
  6  5  1  0
  7  2  1  0
  8  7  1  0
  9 10  1  0
  9  8  2  0
 10 11  2  0
 11  7  1  0
 12  3  1  0
 12 13  1  0
 14 13  2  0
 15 14  1  0
 16 15  2  0
 16 12  1  0
  1 17  1  0
  5 18  1  0
  8 19  1  0
 10 20  1  0
 13 21  1  0
 14 22  1  0
 16 23  1  0
M  ISO  7  17  14  18  14  19  14  20  14  21  14  22  14  23  14
M  END
>  <minimizedAffinity>  (1) 
-4.11622143

>  <minimizedRMSD>  (1) 
2.89675331

$$$$
