
     RDKit          3D

 24 26  0  0  0  0  0  0  0  0999 V2000
   44.2290   34.8980   41.8180 C   0  0  0  0  0  0  0  0  0  0  0  0
   43.0480   34.1920   41.4650 C   0  0  0  0  0  0  0  0  0  0  0  0
   42.9130   32.8370   41.7710 C   0  0  0  0  0  0  0  0  0  0  0  0
   43.9790   32.2600   42.4150 N   0  0  0  0  0  0  0  0  0  0  0  0
   45.0890   32.9260   42.7450 C   0  0  0  0  0  0  0  0  0  0  0  0
   45.2040   34.2190   42.4490 N   0  0  0  0  0  0  0  0  0  0  0  0
   42.0320   34.9140   40.7710 N   0  0  0  0  0  0  0  0  0  0  0  0
   41.0110   35.6810   41.3060 C   0  0  0  0  0  0  0  0  0  0  0  0
   40.2870   36.1980   40.2930 N   0  0  0  0  0  0  0  0  0  0  0  0
   40.8580   35.7520   39.1330 C   0  0  0  0  0  0  0  0  0  0  0  0
   41.9030   34.9860   39.4780 N   0  0  0  0  0  0  0  0  0  0  0  0
   41.7370   32.0460   41.4810 C   0  0  0  0  0  0  0  0  0  0  0  0
   41.7980   31.2860   40.3340 C   0  0  0  0  0  0  0  0  0  0  0  0
   40.8140   30.4600   39.8530 C   0  0  0  0  0  0  0  0  0  0  0  0
   39.6660   30.3600   40.5430 N   0  0  0  0  0  0  0  0  0  0  0  0
   39.5680   31.0850   41.6670 C   0  0  0  0  0  0  0  0  0  0  0  0
   40.5640   31.8450   42.0440 N   0  0  0  0  0  0  0  0  0  0  0  0
   44.3428   35.9665   41.5828 H   0  0  0  0  0  0  0  0  0  0  0  0
   45.9088   32.4056   43.2618 H   0  0  0  0  0  0  0  0  0  0  0  0
   40.8222   35.8416   42.3777 H   0  0  0  0  0  0  0  0  0  0  0  0
   40.5231   35.9789   38.1101 H   0  0  0  0  0  0  0  0  0  0  0  0
   42.7260   31.3473   39.7465 H   0  0  0  0  0  0  0  0  0  0  0  0
   40.9619   29.8920   38.9227 H   0  0  0  0  0  0  0  0  0  0  0  0
   38.6503   31.0407   42.2719 H   0  0  0  0  0  0  0  0  0  0  0  0
  1  6  2  0
  2  3  2  0
  2  1  1  0
  3  4  1  0
  4  5  2  0
  6  5  1  0
  7  8  1  0
  7  2  1  0
  9  8  2  0
 10 11  2  0
 10  9  1  0
 11  7  1  0
 12  3  1  0
 12 17  1  0
 13 12  2  0
 14 13  1  0
 14 15  2  0
 15 16  1  0
 16 17  2  0
  1 18  1  0
  5 19  1  0
  8 20  1  0
 10 21  1  0
 13 22  1  0
 14 23  1  0
 16 24  1  0
M  ISO  7  18  14  19  14  20  14  21  14  22  14  23  14  24  14
M  END
>  <minimizedAffinity>  (1) 
-3.7970624

>  <minimizedRMSD>  (1) 
3.60555744

$$$$
