
     RDKit          3D

 29 31  0  0  0  0  0  0  0  0999 V2000
   45.1310   33.9210   43.9840 C   0  0  0  0  0  0  0  0  0  0  0  0
   45.2760   34.1060   42.6080 C   0  0  0  0  0  0  0  0  0  0  0  0
   46.5410   33.9960   42.0510 C   0  0  0  0  0  0  0  0  0  0  0  0
   47.5900   33.7150   42.8550 N   0  0  0  0  0  0  0  0  0  0  0  0
   47.4290   33.5390   44.1950 C   0  0  0  0  0  0  0  0  0  0  0  0
   46.1950   33.6460   44.7400 N   0  0  0  0  0  0  0  0  0  0  0  0
   44.1230   34.3910   41.8460 N   0  0  0  0  0  0  0  0  0  0  0  0
   43.2440   33.5320   41.2340 C   0  0  0  0  0  0  0  0  0  0  0  0
   42.2730   34.2150   40.6060 N   0  0  0  0  0  0  0  0  0  0  0  0
   42.5490   35.5340   40.8300 C   0  0  0  0  0  0  0  0  0  0  0  0
   43.6640   35.5860   41.5760 N   0  0  0  0  0  0  0  0  0  0  0  0
   46.7930   34.1790   40.6180 C   0  0  0  0  0  0  0  0  0  0  0  0
   48.2140   34.5870   40.2890 C   0  0  0  0  0  0  0  0  0  0  0  0
   48.1810   34.4550   38.7680 C   0  0  0  0  0  0  0  0  0  0  0  0
   47.1900   33.3300   38.4920 C   0  0  0  0  0  0  0  0  0  0  0  0
   46.7760   32.8250   39.8810 C   0  0  0  0  0  0  0  0  0  0  0  0
   44.1362   34.0023   44.4463 H   0  0  0  0  0  0  0  0  0  0  0  0
   48.2969   33.3111   44.8313 H   0  0  0  0  0  0  0  0  0  0  0  0
   43.3241   32.4351   41.2551 H   0  0  0  0  0  0  0  0  0  0  0  0
   41.9663   36.3934   40.4668 H   0  0  0  0  0  0  0  0  0  0  0  0
   46.0308   34.9193   40.3335 H   0  0  0  0  0  0  0  0  0  0  0  0
   48.4261   35.6191   40.6049 H   0  0  0  0  0  0  0  0  0  0  0  0
   48.9942   33.9945   40.7891 H   0  0  0  0  0  0  0  0  0  0  0  0
   47.8399   35.3930   38.3057 H   0  0  0  0  0  0  0  0  0  0  0  0
   49.1758   34.2417   38.3497 H   0  0  0  0  0  0  0  0  0  0  0  0
   46.3167   33.7090   37.9410 H   0  0  0  0  0  0  0  0  0  0  0  0
   47.6275   32.5329   37.8730 H   0  0  0  0  0  0  0  0  0  0  0  0
   45.7763   32.3662   39.8762 H   0  0  0  0  0  0  0  0  0  0  0  0
   47.4054   32.0331   40.3132 H   0  0  0  0  0  0  0  0  0  0  0  0
  1  6  2  0
  2  1  1  0
  3  2  2  0
  3  4  1  0
  4  5  2  0
  5  6  1  0
  7  2  1  0
  8  7  1  0
  9 10  1  0
  9  8  2  0
 10 11  2  0
 11  7  1  0
 12  3  1  0
 13 12  1  0
 14 13  1  0
 15 14  1  0
 15 16  1  0
 16 12  1  0
  1 17  1  0
  5 18  1  0
  8 19  1  0
 10 20  1  0
 12 21  1  0
 13 22  1  0
 13 23  1  0
 14 24  1  0
 14 25  1  0
 15 26  1  0
 15 27  1  0
 16 28  1  0
 16 29  1  0
M  ISO  8  17  14  18  14  19  14  20  14  21  13  22  13  23  13  24  13
M  ISO  5  25  13  26  13  27  13  28  13  29  13
M  END
>  <minimizedAffinity>  (1) 
-3.98044705

>  <minimizedRMSD>  (1) 
3.26032805

$$$$
