
     RDKit          3D

 23 25  0  0  0  0  0  0  0  0999 V2000
   45.3270   36.1940   43.1350 C   0  0  0  0  0  0  0  0  0  0  0  0
   45.7960   34.8780   42.9690 C   0  0  0  0  0  0  0  0  0  0  0  0
   45.6260   33.9720   44.0030 C   0  0  0  0  0  0  0  0  0  0  0  0
   45.0130   34.3840   45.1370 N   0  0  0  0  0  0  0  0  0  0  0  0
   44.5710   35.6630   45.2660 C   0  0  0  0  0  0  0  0  0  0  0  0
   44.7300   36.5520   44.2710 N   0  0  0  0  0  0  0  0  0  0  0  0
   46.4290   34.5500   41.7300 N   0  0  0  0  0  0  0  0  0  0  0  0
   45.9200   33.9330   40.6300 C   0  0  0  0  0  0  0  0  0  0  0  0
   46.8730   33.8300   39.6940 N   0  0  0  0  0  0  0  0  0  0  0  0
   47.9960   34.3930   40.2160 C   0  0  0  0  0  0  0  0  0  0  0  0
   47.6880   34.8180   41.4530 N   0  0  0  0  0  0  0  0  0  0  0  0
   46.1230   32.5800   43.8270 C   0  0  0  0  0  0  0  0  0  0  0  0
   46.1690   31.7490   45.0660 C   0  0  0  0  0  0  0  0  0  0  0  0
   47.4620   32.2670   44.5250 C   0  0  0  0  0  0  0  0  0  0  0  0
   45.4534   36.9283   42.3258 H   0  0  0  0  0  0  0  0  0  0  0  0
   44.0763   35.9745   46.1978 H   0  0  0  0  0  0  0  0  0  0  0  0
   44.8856   33.5740   40.5250 H   0  0  0  0  0  0  0  0  0  0  0  0
   48.9730   34.4834   39.7187 H   0  0  0  0  0  0  0  0  0  0  0  0
   45.7142   32.4531   42.8137 H   0  0  0  0  0  0  0  0  0  0  0  0
   45.7720   32.1549   46.0082 H   0  0  0  0  0  0  0  0  0  0  0  0
   45.7965   30.7482   45.3300 H   0  0  0  0  0  0  0  0  0  0  0  0
   48.1816   31.5785   44.0579 H   0  0  0  0  0  0  0  0  0  0  0  0
   48.2968   32.8622   44.9235 H   0  0  0  0  0  0  0  0  0  0  0  0
  1  6  2  0
  2  1  1  0
  2  3  2  0
  3  4  1  0
  4  5  2  0
  6  5  1  0
  7  2  1  0
  8  7  1  0
  9 10  1  0
  9  8  2  0
 10 11  2  0
 11  7  1  0
 12  3  1  0
 12 14  1  0
 12 13  1  0
 14 13  1  0
  1 15  1  0
  5 16  1  0
  8 17  1  0
 10 18  1  0
 12 19  1  0
 13 20  1  0
 13 21  1  0
 14 22  1  0
 14 23  1  0
M  ISO  8  15  14  16  14  17  14  18  14  19  13  20  13  21  13  22  13
M  ISO  1  23  13
M  END
>  <minimizedAffinity>  (1) 
-3.9265132

>  <minimizedRMSD>  (1) 
2.63430023

$$$$
