
     RDKit          3D

 23 25  0  0  0  0  0  0  0  0999 V2000
   44.4740   36.0000   42.3670 C   0  0  0  0  0  0  0  0  0  0  0  0
   43.6760   34.8690   42.0020 C   0  0  0  0  0  0  0  0  0  0  0  0
   44.0890   33.5860   42.3120 C   0  0  0  0  0  0  0  0  0  0  0  0
   45.3020   33.5020   42.9690 N   0  0  0  0  0  0  0  0  0  0  0  0
   46.0380   34.5590   43.3020 C   0  0  0  0  0  0  0  0  0  0  0  0
   45.6300   35.7890   43.0070 N   0  0  0  0  0  0  0  0  0  0  0  0
   42.4990   35.1240   41.2250 N   0  0  0  0  0  0  0  0  0  0  0  0
   41.2300   35.4120   41.6940 C   0  0  0  0  0  0  0  0  0  0  0  0
   40.4130   35.6130   40.6240 N   0  0  0  0  0  0  0  0  0  0  0  0
   41.1900   35.4460   39.5060 C   0  0  0  0  0  0  0  0  0  0  0  0
   42.4600   35.1490   39.9100 N   0  0  0  0  0  0  0  0  0  0  0  0
   43.3880   32.3630   42.0790 C   0  0  0  0  0  0  0  0  0  0  0  0
   43.5880   31.6910   40.8600 C   0  0  0  0  0  0  0  0  0  0  0  0
   42.8300   30.6000   40.7100 N   0  0  0  0  0  0  0  0  0  0  0  0
   42.0940   30.4980   41.8230 C   0  0  0  0  0  0  0  0  0  0  0  0
   42.4740   31.5420   42.5520 N   0  0  0  0  0  0  0  0  0  0  0  0
   44.1438   37.0213   42.1264 H   0  0  0  0  0  0  0  0  0  0  0  0
   46.9938   34.4135   43.8267 H   0  0  0  0  0  0  0  0  0  0  0  0
   40.9319   35.4689   42.7513 H   0  0  0  0  0  0  0  0  0  0  0  0
   40.8489   35.5358   38.4641 H   0  0  0  0  0  0  0  0  0  0  0  0
   44.3041   32.0325   40.0980 H   0  0  0  0  0  0  0  0  0  0  0  0
   41.3486   29.7295   42.0754 H   0  0  0  0  0  0  0  0  0  0  0  0
   42.0570   31.7075   43.4792 H   0  0  0  0  0  0  0  0  0  0  0  0
  1  6  2  0
  2  3  2  0
  2  1  1  0
  3  4  1  0
  4  5  2  0
  6  5  1  0
  7  8  1  0
  7  2  1  0
  9  8  2  0
 10 11  2  0
 10  9  1  0
 11  7  1  0
 12  3  1  0
 12 16  1  0
 13 12  2  0
 14 13  1  0
 14 15  2  0
 15 16  1  0
  1 17  1  0
  5 18  1  0
  8 19  1  0
 10 20  1  0
 13 21  1  0
 15 22  1  0
 16 23  1  0
M  ISO  7  17  14  18  14  19  14  20  14  21  14  22  14  23   9
M  END
>  <minimizedAffinity>  (1) 
-3.84360766

>  <minimizedRMSD>  (1) 
2.22003889

$$$$
