
     RDKit          3D

 25 27  0  0  0  0  0  0  0  0999 V2000
   44.0090   35.0020   42.1260 C   0  0  0  0  0  0  0  0  0  0  0  0
   42.9700   34.2200   41.5550 C   0  0  0  0  0  0  0  0  0  0  0  0
   42.9550   32.8390   41.7250 C   0  0  0  0  0  0  0  0  0  0  0  0
   43.9860   32.3160   42.4600 N   0  0  0  0  0  0  0  0  0  0  0  0
   44.9600   33.0540   42.9950 C   0  0  0  0  0  0  0  0  0  0  0  0
   44.9670   34.3780   42.8270 N   0  0  0  0  0  0  0  0  0  0  0  0
   41.9840   34.9050   40.7880 N   0  0  0  0  0  0  0  0  0  0  0  0
   40.8540   35.5700   41.2320 C   0  0  0  0  0  0  0  0  0  0  0  0
   40.2060   36.0870   40.1650 N   0  0  0  0  0  0  0  0  0  0  0  0
   40.9330   35.7440   39.0580 C   0  0  0  0  0  0  0  0  0  0  0  0
   41.9900   35.0350   39.4890 N   0  0  0  0  0  0  0  0  0  0  0  0
   41.9320   31.9670   41.2170 C   0  0  0  0  0  0  0  0  0  0  0  0
   41.0190   31.4990   42.1380 C   0  0  0  0  0  0  0  0  0  0  0  0
   39.9620   30.6590   41.8870 C   0  0  0  0  0  0  0  0  0  0  0  0
   39.7500   30.2100   40.6060 C   0  0  0  0  0  0  0  0  0  0  0  0
   40.6480   30.6630   39.6720 C   0  0  0  0  0  0  0  0  0  0  0  0
   41.6280   31.4710   40.0300 N   0  0  0  0  0  0  0  0  0  0  0  0
   44.0275   36.0942   41.9963 H   0  0  0  0  0  0  0  0  0  0  0  0
   45.7591   32.5703   43.5759 H   0  0  0  0  0  0  0  0  0  0  0  0
   40.5359   35.6623   42.2810 H   0  0  0  0  0  0  0  0  0  0  0  0
   40.6973   35.9997   38.0144 H   0  0  0  0  0  0  0  0  0  0  0  0
   41.1504   31.8318   43.1782 H   0  0  0  0  0  0  0  0  0  0  0  0
   39.2923   30.3490   42.7027 H   0  0  0  0  0  0  0  0  0  0  0  0
   38.9201   29.5358   40.3474 H   0  0  0  0  0  0  0  0  0  0  0  0
   40.5504   30.3515   38.6216 H   0  0  0  0  0  0  0  0  0  0  0  0
  1  6  2  0
  2  3  2  0
  2  1  1  0
  3  4  1  0
  4  5  2  0
  6  5  1  0
  7  8  1  0
  7  2  1  0
  9  8  2  0
 10 11  2  0
 10  9  1  0
 11  7  1  0
 12  3  1  0
 12 13  2  0
 14 13  1  0
 15 14  2  0
 16 17  2  0
 16 15  1  0
 17 12  1  0
  1 18  1  0
  5 19  1  0
  8 20  1  0
 10 21  1  0
 13 22  1  0
 14 23  1  0
 15 24  1  0
 16 25  1  0
M  ISO  8  18  14  19  14  20  14  21  14  22  14  23  14  24  14  25  14
M  END
>  <minimizedAffinity>  (1) 
-3.77951169

>  <minimizedRMSD>  (1) 
3.37832952

$$$$
