
     RDKit          3D

 23 25  0  0  0  0  0  0  0  0999 V2000
   43.5050   35.2420   42.5560 C   0  0  0  0  0  0  0  0  0  0  0  0
   44.0990   34.6730   41.3940 C   0  0  0  0  0  0  0  0  0  0  0  0
   45.4790   34.5150   41.3240 C   0  0  0  0  0  0  0  0  0  0  0  0
   46.1850   34.9400   42.4240 N   0  0  0  0  0  0  0  0  0  0  0  0
   45.6120   35.4720   43.5060 C   0  0  0  0  0  0  0  0  0  0  0  0
   44.2920   35.6200   43.5690 N   0  0  0  0  0  0  0  0  0  0  0  0
   43.2160   34.3050   40.3360 N   0  0  0  0  0  0  0  0  0  0  0  0
   42.5920   33.0980   40.1000 C   0  0  0  0  0  0  0  0  0  0  0  0
   41.8370   33.2050   38.9850 N   0  0  0  0  0  0  0  0  0  0  0  0
   41.9940   34.4860   38.5290 C   0  0  0  0  0  0  0  0  0  0  0  0
   42.8370   35.1140   39.3780 N   0  0  0  0  0  0  0  0  0  0  0  0
   46.1460   33.9210   40.1850 C   0  0  0  0  0  0  0  0  0  0  0  0
   47.4940   34.2040   39.9780 C   0  0  0  0  0  0  0  0  0  0  0  0
   48.0060   33.5860   38.8750 C   0  0  0  0  0  0  0  0  0  0  0  0
   46.9660   32.9090   38.3860 N   0  0  0  0  0  0  0  0  0  0  0  0
   45.9440   33.1230   39.1490 N   0  0  0  0  0  0  0  0  0  0  0  0
   42.4142   35.3689   42.6197 H   0  0  0  0  0  0  0  0  0  0  0  0
   46.2373   35.7908   44.3530 H   0  0  0  0  0  0  0  0  0  0  0  0
   42.6928   32.1945   40.7194 H   0  0  0  0  0  0  0  0  0  0  0  0
   41.5216   34.9231   37.6369 H   0  0  0  0  0  0  0  0  0  0  0  0
   48.0847   34.8583   40.6360 H   0  0  0  0  0  0  0  0  0  0  0  0
   49.0324   33.6344   38.4823 H   0  0  0  0  0  0  0  0  0  0  0  0
   46.9753   32.3163   37.5436 H   0  0  0  0  0  0  0  0  0  0  0  0
  1  6  2  0
  2  1  1  0
  3  2  2  0
  3  4  1  0
  4  5  2  0
  5  6  1  0
  7  2  1  0
  8  7  1  0
  9  8  2  0
 10  9  1  0
 10 11  2  0
 11  7  1  0
 12  3  1  0
 13 12  1  0
 14 13  2  0
 15 14  1  0
 15 16  1  0
 16 12  2  0
  1 17  1  0
  5 18  1  0
  8 19  1  0
 10 20  1  0
 13 21  1  0
 14 22  1  0
 15 23  1  0
M  ISO  7  17  14  18  14  19  14  20  14  21  14  22  14  23   9
M  END
>  <minimizedAffinity>  (1) 
-3.67690063

>  <minimizedRMSD>  (1) 
3.27203417

$$$$
