
     RDKit          3D

 28 29  0  0  0  0  0  0  0  0999 V2000
   44.3190   35.8640   42.3640 C   0  0  0  0  0  0  0  0  0  0  0  0
   43.6040   34.7780   41.7940 C   0  0  0  0  0  0  0  0  0  0  0  0
   43.9140   33.4490   42.1390 C   0  0  0  0  0  0  0  0  0  0  0  0
   44.9280   33.3270   43.0390 N   0  0  0  0  0  0  0  0  0  0  0  0
   45.6000   34.3530   43.5740 C   0  0  0  0  0  0  0  0  0  0  0  0
   45.2980   35.6070   43.2380 N   0  0  0  0  0  0  0  0  0  0  0  0
   42.5630   35.1190   40.8930 N   0  0  0  0  0  0  0  0  0  0  0  0
   41.2910   35.5520   41.1150 C   0  0  0  0  0  0  0  0  0  0  0  0
   40.6510   35.7490   39.9560 N   0  0  0  0  0  0  0  0  0  0  0  0
   41.5340   35.4370   38.9840 C   0  0  0  0  0  0  0  0  0  0  0  0
   42.6610   35.0650   39.6020 N   0  0  0  0  0  0  0  0  0  0  0  0
   43.2280   32.2920   41.5580 C   0  0  0  0  0  0  0  0  0  0  0  0
   43.7540   31.0960   42.4100 C   0  0  0  0  0  0  0  0  0  0  0  0
   43.7380   31.9150   40.1610 C   0  0  0  0  0  0  0  0  0  0  0  0
   41.7560   32.2150   41.7130 C   0  0  0  0  0  0  0  0  0  0  0  0
   44.0716   36.9005   42.0910 H   0  0  0  0  0  0  0  0  0  0  0  0
   46.4072   34.1602   44.2960 H   0  0  0  0  0  0  0  0  0  0  0  0
   40.8504   35.7170   42.1093 H   0  0  0  0  0  0  0  0  0  0  0  0
   41.3613   35.4800   37.8985 H   0  0  0  0  0  0  0  0  0  0  0  0
   43.6496   31.3334   43.4790 H   0  0  0  0  0  0  0  0  0  0  0  0
   43.1695   30.1940   42.1759 H   0  0  0  0  0  0  0  0  0  0  0  0
   44.8138   30.9172   42.1759 H   0  0  0  0  0  0  0  0  0  0  0  0
   44.6193   31.2636   40.2558 H   0  0  0  0  0  0  0  0  0  0  0  0
   42.9463   31.3833   39.6128 H   0  0  0  0  0  0  0  0  0  0  0  0
   44.0141   32.8278   39.6128 H   0  0  0  0  0  0  0  0  0  0  0  0
   41.5002   32.2016   42.7827 H   0  0  0  0  0  0  0  0  0  0  0  0
   41.2908   33.0900   41.2356 H   0  0  0  0  0  0  0  0  0  0  0  0
   41.3846   31.2962   41.2356 H   0  0  0  0  0  0  0  0  0  0  0  0
  1  6  2  0
  2  3  2  0
  2  1  1  0
  3  4  1  0
  4  5  2  0
  6  5  1  0
  7  8  1  0
  7  2  1  0
  9  8  2  0
 10 11  2  0
 10  9  1  0
 11  7  1  0
 12 15  1  0
 12  3  1  0
 12 13  1  0
 14 12  1  0
  1 16  1  0
  5 17  1  0
  8 18  1  0
 10 19  1  0
 13 20  1  0
 13 21  1  0
 13 22  1  0
 14 23  1  0
 14 24  1  0
 14 25  1  0
 15 26  1  0
 15 27  1  0
 15 28  1  0
M  ISO  8  16  14  17  14  18  14  19  14  20   8  21   8  22   8  23   8
M  ISO  5  24   8  25   8  26   8  27   8  28   8
M  END
>  <minimizedAffinity>  (1) 
-3.46406198

>  <minimizedRMSD>  (1) 
2.49298811

$$$$
