
     RDKit          3D

 26 28  0  0  0  0  0  0  0  0999 V2000
   43.9080   34.6720   42.1390 C   0  0  0  0  0  0  0  0  0  0  0  0
   42.8180   34.0040   41.5260 C   0  0  0  0  0  0  0  0  0  0  0  0
   42.6930   32.6140   41.6380 C   0  0  0  0  0  0  0  0  0  0  0  0
   43.6570   31.9550   42.3490 N   0  0  0  0  0  0  0  0  0  0  0  0
   44.6960   32.6100   42.9290 C   0  0  0  0  0  0  0  0  0  0  0  0
   44.8070   33.9560   42.8180 N   0  0  0  0  0  0  0  0  0  0  0  0
   41.6030   31.8690   41.0390 C   0  0  0  0  0  0  0  0  0  0  0  0
   41.4240   31.3470   39.7760 C   0  0  0  0  0  0  0  0  0  0  0  0
   40.3050   30.6520   39.4530 C   0  0  0  0  0  0  0  0  0  0  0  0
   39.3040   30.4470   40.3960 C   0  0  0  0  0  0  0  0  0  0  0  0
   39.4340   30.9470   41.6660 C   0  0  0  0  0  0  0  0  0  0  0  0
   40.5940   31.6630   41.9900 C   0  0  0  0  0  0  0  0  0  0  0  0
   41.9010   34.8030   40.7840 N   0  0  0  0  0  0  0  0  0  0  0  0
   40.8170   35.5140   41.2410 C   0  0  0  0  0  0  0  0  0  0  0  0
   40.2290   36.1390   40.1890 N   0  0  0  0  0  0  0  0  0  0  0  0
   40.9570   35.8080   39.0890 C   0  0  0  0  0  0  0  0  0  0  0  0
   41.9810   34.9860   39.4750 N   0  0  0  0  0  0  0  0  0  0  0  0
   44.0113   35.7640   42.0563 H   0  0  0  0  0  0  0  0  0  0  0  0
   45.4524   32.0441   43.4926 H   0  0  0  0  0  0  0  0  0  0  0  0
   42.2040   31.4970   39.0150 H   0  0  0  0  0  0  0  0  0  0  0  0
   40.1884   30.2473   38.4368 H   0  0  0  0  0  0  0  0  0  0  0  0
   38.4022   29.8801   40.1214 H   0  0  0  0  0  0  0  0  0  0  0  0
   38.6440   30.7893   42.4150 H   0  0  0  0  0  0  0  0  0  0  0  0
   40.7146   32.0692   43.0051 H   0  0  0  0  0  0  0  0  0  0  0  0
   40.4812   35.5677   42.2871 H   0  0  0  0  0  0  0  0  0  0  0  0
   40.7564   36.1446   38.0611 H   0  0  0  0  0  0  0  0  0  0  0  0
  1  6  2  0
  2  3  2  0
  2  1  1  0
  3  4  1  0
  4  5  2  0
  6  5  1  0
  7  3  1  0
  7 12  1  0
  8  7  2  0
  9  8  1  0
  9 10  2  0
 10 11  1  0
 11 12  2  0
 13 14  1  0
 13  2  1  0
 15 14  2  0
 16 17  2  0
 16 15  1  0
 17 13  1  0
  1 18  1  0
  5 19  1  0
  8 20  1  0
  9 21  1  0
 10 22  1  0
 11 23  1  0
 12 24  1  0
 14 25  1  0
 16 26  1  0
M  ISO  8  18  14  19  14  20  14  21  14  22  14  23  14  24  14  25  14
M  ISO  1  26  14
M  END
>  <minimizedAffinity>  (1) 
-3.7955904

>  <minimizedRMSD>  (1) 
3.67233539

$$$$
