
     RDKit          3D

 22 23  0  0  0  0  0  0  0  0999 V2000
   44.2000   35.7470   42.0900 C   0  0  0  0  0  0  0  0  0  0  0  0
   43.3130   34.7670   41.6390 C   0  0  0  0  0  0  0  0  0  0  0  0
   43.6310   33.4420   41.8730 C   0  0  0  0  0  0  0  0  0  0  0  0
   44.7980   33.1780   42.5350 N   0  0  0  0  0  0  0  0  0  0  0  0
   45.6320   34.1320   42.9570 C   0  0  0  0  0  0  0  0  0  0  0  0
   45.3220   35.4110   42.7290 N   0  0  0  0  0  0  0  0  0  0  0  0
   42.1560   35.1670   40.9360 N   0  0  0  0  0  0  0  0  0  0  0  0
   40.9450   35.5790   41.4370 C   0  0  0  0  0  0  0  0  0  0  0  0
   40.1020   35.8850   40.4350 N   0  0  0  0  0  0  0  0  0  0  0  0
   40.7990   35.6600   39.2920 C   0  0  0  0  0  0  0  0  0  0  0  0
   42.0260   35.2290   39.6350 N   0  0  0  0  0  0  0  0  0  0  0  0
   42.7750   32.3340   41.4950 C   0  0  0  0  0  0  0  0  0  0  0  0
   42.9590   31.0910   42.3420 C   0  0  0  0  0  0  0  0  0  0  0  0
   43.9708   36.8087   41.9163 H   0  0  0  0  0  0  0  0  0  0  0  0
   46.5605   33.8683   43.4846 H   0  0  0  0  0  0  0  0  0  0  0  0
   40.6995   35.6488   42.5070 H   0  0  0  0  0  0  0  0  0  0  0  0
   40.4264   35.8045   38.2672 H   0  0  0  0  0  0  0  0  0  0  0  0
   41.7283   32.6605   41.5840 H   0  0  0  0  0  0  0  0  0  0  0  0
   43.0491   32.0591   40.4658 H   0  0  0  0  0  0  0  0  0  0  0  0
   42.9186   31.3637   43.4069 H   0  0  0  0  0  0  0  0  0  0  0  0
   42.1575   30.3720   42.1170 H   0  0  0  0  0  0  0  0  0  0  0  0
   43.9344   30.6350   42.1170 H   0  0  0  0  0  0  0  0  0  0  0  0
  1  6  2  0
  2  3  2  0
  2  1  1  0
  3  4  1  0
  4  5  2  0
  6  5  1  0
  7  8  1  0
  7  2  1  0
  9  8  2  0
 10 11  2  0
 10  9  1  0
 11  7  1  0
 12  3  1  0
 12 13  1  0
  1 14  1  0
  5 15  1  0
  8 16  1  0
 10 17  1  0
 12 18  1  0
 12 19  1  0
 13 20  1  0
 13 21  1  0
 13 22  1  0
M  ISO  8  14  14  15  14  16  14  17  14  18   8  19   8  20   8  21   8
M  ISO  1  22   8
M  END
>  <minimizedAffinity>  (1) 
-3.31158876

>  <minimizedRMSD>  (1) 
2.63952208

$$$$
