
     RDKit          3D

 18 19  0  0  0  0  0  0  0  0999 V2000
   44.4340   35.9110   42.4000 C   0  0  0  0  0  0  0  0  0  0  0  0
   43.6440   34.8500   41.9530 C   0  0  0  0  0  0  0  0  0  0  0  0
   44.0410   33.5720   42.3020 C   0  0  0  0  0  0  0  0  0  0  0  0
   45.1520   33.3730   43.0450 N   0  0  0  0  0  0  0  0  0  0  0  0
   45.8940   34.4120   43.4610 C   0  0  0  0  0  0  0  0  0  0  0  0
   45.5130   35.6390   43.1270 N   0  0  0  0  0  0  0  0  0  0  0  0
   42.4880   35.1350   41.1740 N   0  0  0  0  0  0  0  0  0  0  0  0
   41.2170   35.4390   41.5950 C   0  0  0  0  0  0  0  0  0  0  0  0
   40.4520   35.6320   40.5180 N   0  0  0  0  0  0  0  0  0  0  0  0
   41.2190   35.4540   39.4240 C   0  0  0  0  0  0  0  0  0  0  0  0
   42.4530   35.1530   39.8610 N   0  0  0  0  0  0  0  0  0  0  0  0
   43.3020   32.4310   41.8960 C   0  0  0  0  0  0  0  0  0  0  0  0
   42.3290   31.7120   41.7300 O   0  0  0  0  0  0  0  0  0  0  0  0
   44.1690   36.9502   42.1556 H   0  0  0  0  0  0  0  0  0  0  0  0
   46.7984   34.2498   44.0658 H   0  0  0  0  0  0  0  0  0  0  0  0
   40.8855   35.5112   42.6414 H   0  0  0  0  0  0  0  0  0  0  0  0
   40.8966   35.5388   38.3757 H   0  0  0  0  0  0  0  0  0  0  0  0
   44.0987   31.8089   41.4622 H   0  0  0  0  0  0  0  0  0  0  0  0
  1  6  2  0
  2  3  2  0
  2  1  1  0
  3  4  1  0
  4  5  2  0
  6  5  1  0
  7  8  1  0
  7  2  1  0
  9  8  2  0
 10 11  2  0
 10  9  1  0
 11  7  1  0
 12  3  1  0
 13 12  2  0
  1 14  1  0
  5 15  1  0
  8 16  1  0
 10 17  1  0
 12 18  1  0
M  ISO  5  14  14  15  14  16  14  17  14  18   6
M  END
>  <minimizedAffinity>  (1) 
-3.30738258

>  <minimizedRMSD>  (1) 
2.32227921

$$$$
