
     RDKit          3D

 42 46  0  0  0  0  0  0  0  0999 V2000
   45.0210   32.3510   43.6540 C   0  0  0  0  0  0  0  0  0  0  0  0
   45.4100   32.8870   42.4120 C   0  0  0  0  0  0  0  0  0  0  0  0
   46.5060   32.3430   41.7790 C   0  0  0  0  0  0  0  0  0  0  0  0
   47.1610   31.3170   42.3770 N   0  0  0  0  0  0  0  0  0  0  0  0
   46.7590   30.8260   43.5740 C   0  0  0  0  0  0  0  0  0  0  0  0
   45.6990   31.3430   44.2000 N   0  0  0  0  0  0  0  0  0  0  0  0
   46.8910   32.8880   40.5270 N   0  0  0  0  0  0  0  0  0  0  0  0
   47.7850   33.9140   40.6640 C   0  0  0  0  0  0  0  0  0  0  0  0
   48.2370   34.5280   39.4920 C   0  0  0  0  0  0  0  0  0  0  0  0
   47.8160   34.1360   38.2450 C   0  0  0  0  0  0  0  0  0  0  0  0
   48.2430   34.7120   37.2070 O   0  0  0  0  0  0  0  0  0  0  0  0
   46.9310   33.1160   38.2000 N   0  0  0  0  0  0  0  0  0  0  0  0
   46.4760   32.5020   39.2990 C   0  0  0  0  0  0  0  0  0  0  0  0
   45.6470   31.5430   39.2890 O   0  0  0  0  0  0  0  0  0  0  0  0
   44.6350   33.9660   41.8990 N   0  0  0  0  0  0  0  0  0  0  0  0
   44.6780   35.3000   42.1400 C   0  0  0  0  0  0  0  0  0  0  0  0
   43.7430   35.9200   41.4170 N   0  0  0  0  0  0  0  0  0  0  0  0
   43.0890   34.9830   40.7020 C   0  0  0  0  0  0  0  0  0  0  0  0
   43.6740   33.8280   41.0360 N   0  0  0  0  0  0  0  0  0  0  0  0
   41.9890   34.9220   39.7280 C   0  0  0  0  0  0  0  0  0  0  0  0
   42.0280   35.5440   38.4750 C   0  0  0  0  0  0  0  0  0  0  0  0
   40.9760   35.4610   37.5970 C   0  0  0  0  0  0  0  0  0  0  0  0
   39.8310   34.7670   37.8970 C   0  0  0  0  0  0  0  0  0  0  0  0
   39.7600   34.1430   39.1230 C   0  0  0  0  0  0  0  0  0  0  0  0
   38.5980   33.4560   39.3920 C   0  0  0  0  0  0  0  0  0  0  0  0
   38.4430   32.8020   40.5950 C   0  0  0  0  0  0  0  0  0  0  0  0
   39.4840   32.8680   41.4990 C   0  0  0  0  0  0  0  0  0  0  0  0
   40.6160   33.5700   41.1670 C   0  0  0  0  0  0  0  0  0  0  0  0
   40.8300   34.2410   39.9870 C   0  0  0  0  0  0  0  0  0  0  0  0
   44.1489   32.7685   44.1786 H   0  0  0  0  0  0  0  0  0  0  0  0
   47.3111   29.9935   44.0345 H   0  0  0  0  0  0  0  0  0  0  0  0
   48.1336   34.2422   41.6543 H   0  0  0  0  0  0  0  0  0  0  0  0
   48.9567   35.3560   39.5718 H   0  0  0  0  0  0  0  0  0  0  0  0
   46.5921   32.7974   37.2810 H   0  0  0  0  0  0  0  0  0  0  0  0
   45.3782   35.7964   42.8280 H   0  0  0  0  0  0  0  0  0  0  0  0
   42.9238   36.1135   38.1865 H   0  0  0  0  0  0  0  0  0  0  0  0
   41.0533   35.9664   36.6230 H   0  0  0  0  0  0  0  0  0  0  0  0
   38.9971   34.7108   37.1819 H   0  0  0  0  0  0  0  0  0  0  0  0
   37.7911   33.4290   38.6449 H   0  0  0  0  0  0  0  0  0  0  0  0
   37.5221   32.2469   40.8267 H   0  0  0  0  0  0  0  0  0  0  0  0
   39.4074   32.3641   42.4738 H   0  0  0  0  0  0  0  0  0  0  0  0
   41.4244   33.5979   41.9125 H   0  0  0  0  0  0  0  0  0  0  0  0
  1  6  2  0
  2  1  1  0
  3  4  1  0
  3  2  2  0
  4  5  2  0
  5  6  1  0
  7  8  1  0
  7  3  1  0
  9  8  2  0
 10  9  1  0
 11 10  2  0
 12 10  1  0
 12 13  1  0
 13  7  1  0
 14 13  2  0
 15 16  1  0
 15  2  1  0
 17 16  2  0
 18 19  2  0
 18 17  1  0
 19 15  1  0
 20 29  1  0
 20 18  1  0
 21 20  2  0
 22 23  2  0
 22 21  1  0
 23 24  1  0
 24 25  1  0
 24 29  2  0
 25 26  2  0
 26 27  1  0
 28 27  2  0
 29 28  1  0
  1 30  1  0
  5 31  1  0
  8 32  1  0
  9 33  1  0
 12 34  1  0
 16 35  1  0
 21 36  1  0
 22 37  1  0
 23 38  1  0
 25 39  1  0
 26 40  1  0
 27 41  1  0
 28 42  1  0
M  ISO  8  30  14  31  14  32  14  33  14  34   9  35  14  36  14  37  14
M  ISO  5  38  14  39  14  40  14  41  14  42  14
M  END
>  <minimizedAffinity>  (1) 
-6.98216867

>  <minimizedRMSD>  (1) 
1.72508883

$$$$
