
     RDKit          3D

 40 44  0  0  0  0  0  0  0  0999 V2000
   45.4670   33.3690   44.6900 C   0  0  0  0  0  0  0  0  0  0  0  0
   45.6970   33.5940   43.3360 C   0  0  0  0  0  0  0  0  0  0  0  0
   46.8680   33.1050   42.7760 C   0  0  0  0  0  0  0  0  0  0  0  0
   47.7400   32.4300   43.5620 N   0  0  0  0  0  0  0  0  0  0  0  0
   47.4830   32.2300   44.8790 C   0  0  0  0  0  0  0  0  0  0  0  0
   46.3570   32.6990   45.4250 N   0  0  0  0  0  0  0  0  0  0  0  0
   47.1000   33.3370   41.3810 N   0  0  0  0  0  0  0  0  0  0  0  0
   47.9330   34.4110   41.1770 C   0  0  0  0  0  0  0  0  0  0  0  0
   48.2310   34.7370   39.8550 C   0  0  0  0  0  0  0  0  0  0  0  0
   47.7280   34.0330   38.7950 C   0  0  0  0  0  0  0  0  0  0  0  0
   48.0140   34.3490   37.6020 O   0  0  0  0  0  0  0  0  0  0  0  0
   46.9050   32.9760   39.0810 N   0  0  0  0  0  0  0  0  0  0  0  0
   46.5980   32.6360   40.3480 C   0  0  0  0  0  0  0  0  0  0  0  0
   45.8510   31.6790   40.6570 O   0  0  0  0  0  0  0  0  0  0  0  0
   44.7100   34.3170   42.6130 N   0  0  0  0  0  0  0  0  0  0  0  0
   44.6740   35.6090   42.1960 C   0  0  0  0  0  0  0  0  0  0  0  0
   43.5360   35.8470   41.5410 N   0  0  0  0  0  0  0  0  0  0  0  0
   42.8300   34.7020   41.5330 C   0  0  0  0  0  0  0  0  0  0  0  0
   43.5840   33.8180   42.1920 N   0  0  0  0  0  0  0  0  0  0  0  0
   41.5430   34.2130   41.0260 C   0  0  0  0  0  0  0  0  0  0  0  0
   40.7180   33.3660   41.6950 N   0  0  0  0  0  0  0  0  0  0  0  0
   39.5490   32.9370   41.2080 C   0  0  0  0  0  0  0  0  0  0  0  0
   39.0790   33.3040   40.0040 N   0  0  0  0  0  0  0  0  0  0  0  0
   39.8480   34.1420   39.2880 C   0  0  0  0  0  0  0  0  0  0  0  0
   39.3640   34.5180   38.0530 C   0  0  0  0  0  0  0  0  0  0  0  0
   40.0670   35.3620   37.2550 C   0  0  0  0  0  0  0  0  0  0  0  0
   41.2930   35.8340   37.7260 C   0  0  0  0  0  0  0  0  0  0  0  0
   41.7200   35.4200   38.9690 C   0  0  0  0  0  0  0  0  0  0  0  0
   41.0430   34.5690   39.8100 C   0  0  0  0  0  0  0  0  0  0  0  0
   44.5454   33.7459   45.1576 H   0  0  0  0  0  0  0  0  0  0  0  0
   48.2047   31.6793   45.5002 H   0  0  0  0  0  0  0  0  0  0  0  0
   48.3456   34.9869   42.0185 H   0  0  0  0  0  0  0  0  0  0  0  0
   48.8948   35.5914   39.6566 H   0  0  0  0  0  0  0  0  0  0  0  0
   46.5096   32.4255   38.3054 H   0  0  0  0  0  0  0  0  0  0  0  0
   45.4669   36.3507   42.3724 H   0  0  0  0  0  0  0  0  0  0  0  0
   38.9445   32.2524   41.8210 H   0  0  0  0  0  0  0  0  0  0  0  0
   38.3944   34.1286   37.7093 H   0  0  0  0  0  0  0  0  0  0  0  0
   39.6828   35.6639   36.2695 H   0  0  0  0  0  0  0  0  0  0  0  0
   41.9034   36.5196   37.1199 H   0  0  0  0  0  0  0  0  0  0  0  0
   42.6890   35.8048   39.3196 H   0  0  0  0  0  0  0  0  0  0  0  0
  1  6  2  0
  2  1  1  0
  3  2  2  0
  3  4  1  0
  4  5  2  0
  5  6  1  0
  7  3  1  0
  8  7  1  0
  9  8  2  0
 10 12  1  0
 10  9  1  0
 11 10  2  0
 12 13  1  0
 13 14  2  0
 13  7  1  0
 15  2  1  0
 16 15  1  0
 17 16  2  0
 18 17  1  0
 18 19  2  0
 19 15  1  0
 20 18  1  0
 20 21  2  0
 22 21  1  0
 23 22  2  0
 24 29  2  0
 24 23  1  0
 25 24  1  0
 26 27  1  0
 26 25  2  0
 27 28  2  0
 28 29  1  0
 29 20  1  0
  1 30  1  0
  5 31  1  0
  8 32  1  0
  9 33  1  0
 12 34  1  0
 16 35  1  0
 22 36  1  0
 25 37  1  0
 26 38  1  0
 27 39  1  0
 28 40  1  0
M  ISO  8  30  14  31  14  32  14  33  14  34   9  35  14  36  14  37  14
M  ISO  3  38  14  39  14  40  14
M  END
>  <minimizedAffinity>  (1) 
-6.66751051

>  <minimizedRMSD>  (1) 
0.773569822

$$$$
