
     RDKit          3D

 41 44  0  0  0  0  0  0  0  0999 V2000
   45.5240   33.6110   45.1970 C   0  0  0  0  0  0  0  0  0  0  0  0
   45.8480   33.8660   43.8600 C   0  0  0  0  0  0  0  0  0  0  0  0
   46.9620   33.2560   43.3300 C   0  0  0  0  0  0  0  0  0  0  0  0
   47.7090   32.4340   44.1120 N   0  0  0  0  0  0  0  0  0  0  0  0
   47.3690   32.2100   45.4020 C   0  0  0  0  0  0  0  0  0  0  0  0
   46.2870   32.7940   45.9350 N   0  0  0  0  0  0  0  0  0  0  0  0
   44.9930   34.7420   43.1390 N   0  0  0  0  0  0  0  0  0  0  0  0
   45.0050   36.1140   43.0460 C   0  0  0  0  0  0  0  0  0  0  0  0
   44.0100   36.5260   42.2480 N   0  0  0  0  0  0  0  0  0  0  0  0
   43.3670   35.3910   41.8370 C   0  0  0  0  0  0  0  0  0  0  0  0
   43.9930   34.3460   42.3970 N   0  0  0  0  0  0  0  0  0  0  0  0
   42.2410   35.2470   40.9810 N   0  0  0  0  0  0  0  0  0  0  0  0
   42.3610   35.0960   39.5350 C   0  0  0  0  0  0  0  0  0  0  0  0
   41.1730   34.3770   38.9500 C   0  0  0  0  0  0  0  0  0  0  0  0
   39.8730   35.0430   39.2500 C   0  0  0  0  0  0  0  0  0  0  0  0
   39.9760   35.9570   40.4520 C   0  0  0  0  0  0  0  0  0  0  0  0
   40.8750   35.2390   41.4650 C   0  0  0  0  0  0  0  0  0  0  0  0
   47.2870   33.5210   41.9600 N   0  0  0  0  0  0  0  0  0  0  0  0
   48.0860   34.6320   41.8230 C   0  0  0  0  0  0  0  0  0  0  0  0
   48.4630   34.9820   40.5330 C   0  0  0  0  0  0  0  0  0  0  0  0
   48.0740   34.2760   39.4320 C   0  0  0  0  0  0  0  0  0  0  0  0
   48.4270   34.6100   38.2670 O   0  0  0  0  0  0  0  0  0  0  0  0
   47.2840   33.1880   39.6480 N   0  0  0  0  0  0  0  0  0  0  0  0
   46.9040   32.8240   40.8780 C   0  0  0  0  0  0  0  0  0  0  0  0
   46.1790   31.8320   41.1240 O   0  0  0  0  0  0  0  0  0  0  0  0
   44.6376   34.0842   45.6447 H   0  0  0  0  0  0  0  0  0  0  0  0
   47.9869   31.5417   46.0197 H   0  0  0  0  0  0  0  0  0  0  0  0
   45.7243   36.7751   43.5514 H   0  0  0  0  0  0  0  0  0  0  0  0
   42.4351   36.0935   39.0772 H   0  0  0  0  0  0  0  0  0  0  0  0
   43.2608   34.4988   39.3258 H   0  0  0  0  0  0  0  0  0  0  0  0
   41.1455   33.3569   39.3607 H   0  0  0  0  0  0  0  0  0  0  0  0
   41.2961   34.3810   37.8569 H   0  0  0  0  0  0  0  0  0  0  0  0
   39.5666   35.6366   38.3761 H   0  0  0  0  0  0  0  0  0  0  0  0
   39.1319   34.2621   39.4758 H   0  0  0  0  0  0  0  0  0  0  0  0
   40.4230   36.9191   40.1613 H   0  0  0  0  0  0  0  0  0  0  0  0
   38.9844   36.1689   40.8783 H   0  0  0  0  0  0  0  0  0  0  0  0
   40.5344   34.2003   41.5875 H   0  0  0  0  0  0  0  0  0  0  0  0
   40.8240   35.7554   42.4349 H   0  0  0  0  0  0  0  0  0  0  0  0
   48.4117   35.2170   42.6958 H   0  0  0  0  0  0  0  0  0  0  0  0
   49.1024   35.8660   40.3928 H   0  0  0  0  0  0  0  0  0  0  0  0
   46.9701   32.6295   38.8415 H   0  0  0  0  0  0  0  0  0  0  0  0
  1  6  2  0
  2  1  1  0
  3  2  2  0
  3  4  1  0
  4  5  2  0
  5  6  1  0
  7  2  1  0
  8  7  1  0
  9  8  2  0
 10  9  1  0
 10 11  2  0
 11  7  1  0
 12 17  1  0
 12 10  1  0
 13 12  1  0
 14 15  1  0
 14 13  1  0
 15 16  1  0
 16 17  1  0
 18  3  1  0
 19 18  1  0
 20 19  2  0
 21 23  1  0
 21 20  1  0
 22 21  2  0
 23 24  1  0
 24 25  2  0
 24 18  1  0
  1 26  1  0
  5 27  1  0
  8 28  1  0
 13 29  1  0
 13 30  1  0
 14 31  1  0
 14 32  1  0
 15 33  1  0
 15 34  1  0
 16 35  1  0
 16 36  1  0
 17 37  1  0
 17 38  1  0
 19 39  1  0
 20 40  1  0
 23 41  1  0
M  ISO  8  26  14  27  14  28  14  29  13  30  13  31  13  32  13  33  13
M  ISO  8  34  13  35  13  36  13  37  13  38  13  39  14  40  14  41   9
M  END
>  <minimizedAffinity>  (1) 
-6.23019505

>  <minimizedRMSD>  (1) 
0.986656368

$$$$
