
     RDKit          3D

 39 42  0  0  0  0  0  0  0  0999 V2000
   45.1230   33.9070   44.9390 C   0  0  0  0  0  0  0  0  0  0  0  0
   45.5050   33.9960   43.5960 C   0  0  0  0  0  0  0  0  0  0  0  0
   46.7830   33.5850   43.2500 C   0  0  0  0  0  0  0  0  0  0  0  0
   47.6090   33.1170   44.2180 N   0  0  0  0  0  0  0  0  0  0  0  0
   47.1970   33.0490   45.5080 C   0  0  0  0  0  0  0  0  0  0  0  0
   45.9700   33.4400   45.8530 N   0  0  0  0  0  0  0  0  0  0  0  0
   47.1670   33.6780   41.8720 N   0  0  0  0  0  0  0  0  0  0  0  0
   47.8650   34.8330   41.6140 C   0  0  0  0  0  0  0  0  0  0  0  0
   48.2910   35.0340   40.3050 C   0  0  0  0  0  0  0  0  0  0  0  0
   48.0460   34.1510   39.3040 C   0  0  0  0  0  0  0  0  0  0  0  0
   48.4420   34.3550   38.1240 O   0  0  0  0  0  0  0  0  0  0  0  0
   47.3430   33.0250   39.6430 N   0  0  0  0  0  0  0  0  0  0  0  0
   46.9180   32.7990   40.8940 C   0  0  0  0  0  0  0  0  0  0  0  0
   46.2750   31.7840   41.2420 O   0  0  0  0  0  0  0  0  0  0  0  0
   44.5510   34.5020   42.6780 N   0  0  0  0  0  0  0  0  0  0  0  0
   44.3730   35.7800   42.1940 C   0  0  0  0  0  0  0  0  0  0  0  0
   43.3350   35.8010   41.3350 N   0  0  0  0  0  0  0  0  0  0  0  0
   42.8690   34.5280   41.2870 C   0  0  0  0  0  0  0  0  0  0  0  0
   43.6250   33.7740   42.1080 N   0  0  0  0  0  0  0  0  0  0  0  0
   39.5580   33.3390   38.8500 C   0  0  0  0  0  0  0  0  0  0  0  0
   39.8610   34.6700   39.0480 C   0  0  0  0  0  0  0  0  0  0  0  0
   40.9260   35.0950   39.8310 C   0  0  0  0  0  0  0  0  0  0  0  0
   41.7310   34.1610   40.4490 C   0  0  0  0  0  0  0  0  0  0  0  0
   41.4430   32.8220   40.2610 C   0  0  0  0  0  0  0  0  0  0  0  0
   40.3720   32.4040   39.4740 C   0  0  0  0  0  0  0  0  0  0  0  0
   38.2080   32.8410   37.8550 S   0  0  0  0  0  0  0  0  0  0  0  0
   37.8810   33.8830   36.8220 O   0  0  0  0  0  0  0  0  0  0  0  0
   38.6580   31.5830   37.1510 O   0  0  0  0  0  0  0  0  0  0  0  0
   44.1146   34.2256   45.2418 H   0  0  0  0  0  0  0  0  0  0  0  0
   47.8828   32.6669   46.2785 H   0  0  0  0  0  0  0  0  0  0  0  0
   48.0774   35.5656   42.4066 H   0  0  0  0  0  0  0  0  0  0  0  0
   48.8521   35.9506   40.0706 H   0  0  0  0  0  0  0  0  0  0  0  0
   47.1342   32.3294   38.9127 H   0  0  0  0  0  0  0  0  0  0  0  0
   44.9858   36.6515   42.4676 H   0  0  0  0  0  0  0  0  0  0  0  0
   39.2300   35.4296   38.5634 H   0  0  0  0  0  0  0  0  0  0  0  0
   41.1263   36.1692   39.9576 H   0  0  0  0  0  0  0  0  0  0  0  0
   42.0771   32.0655   40.7463 H   0  0  0  0  0  0  0  0  0  0  0  0
   40.1710   31.3300   39.3469 H   0  0  0  0  0  0  0  0  0  0  0  0
   37.0892   32.6509   38.6225 H   0  0  0  0  0  0  0  0  0  0  0  0
  1  6  2  0
  2  1  1  0
  3  2  2  0
  3  4  1  0
  4  5  2  0
  5  6  1  0
  7  3  1  0
  8  7  1  0
  9  8  2  0
 10 12  1  0
 10  9  1  0
 11 10  2  0
 12 13  1  0
 13 14  2  0
 13  7  1  0
 15  2  1  0
 16 15  1  0
 17 16  2  0
 18 17  1  0
 18 19  2  0
 19 15  1  0
 20 21  2  0
 20 25  1  0
 21 22  1  0
 22 23  2  0
 23 18  1  0
 24 23  1  0
 25 24  2  0
 26 20  1  0
 27 26  2  0
 28 26  2  0
  1 29  1  0
  5 30  1  0
  8 31  1  0
  9 32  1  0
 12 33  1  0
 16 34  1  0
 21 35  1  0
 22 36  1  0
 24 37  1  0
 25 38  1  0
 26 39  1  0
M  ISO  8  29  14  30  14  31  14  32  14  33   9  34  14  35  14  36  14
M  ISO  3  37  14  38  14  39  11
M  END
>  <minimizedAffinity>  (1) 
-5.60620832

>  <minimizedRMSD>  (1) 
0.575169981

$$$$
