
     RDKit          3D

 39 42  0  0  0  0  0  0  0  0999 V2000
   45.2740   33.4800   44.7820 C   0  0  0  0  0  0  0  0  0  0  0  0
   45.6360   33.7190   43.4490 C   0  0  0  0  0  0  0  0  0  0  0  0
   46.8580   33.2690   43.0030 C   0  0  0  0  0  0  0  0  0  0  0  0
   47.6650   32.6090   43.8750 N   0  0  0  0  0  0  0  0  0  0  0  0
   47.2920   32.3910   45.1600 C   0  0  0  0  0  0  0  0  0  0  0  0
   46.0980   32.8290   45.6040 N   0  0  0  0  0  0  0  0  0  0  0  0
   47.2140   33.5180   41.6470 N   0  0  0  0  0  0  0  0  0  0  0  0
   47.9560   34.6530   41.5130 C   0  0  0  0  0  0  0  0  0  0  0  0
   48.3660   34.9990   40.2190 C   0  0  0  0  0  0  0  0  0  0  0  0
   48.0510   34.2540   39.1290 C   0  0  0  0  0  0  0  0  0  0  0  0
   48.4230   34.5700   37.9620 O   0  0  0  0  0  0  0  0  0  0  0  0
   47.3050   33.1300   39.3400 N   0  0  0  0  0  0  0  0  0  0  0  0
   46.8950   32.7710   40.5790 C   0  0  0  0  0  0  0  0  0  0  0  0
   46.2110   31.7500   40.8110 O   0  0  0  0  0  0  0  0  0  0  0  0
   44.7020   34.4190   42.6430 N   0  0  0  0  0  0  0  0  0  0  0  0
   44.5920   35.7630   42.3710 C   0  0  0  0  0  0  0  0  0  0  0  0
   43.5460   35.9850   41.5460 N   0  0  0  0  0  0  0  0  0  0  0  0
   43.0060   34.7590   41.3100 C   0  0  0  0  0  0  0  0  0  0  0  0
   43.7150   33.8430   41.9760 N   0  0  0  0  0  0  0  0  0  0  0  0
   41.8320   34.4420   40.4650 C   0  0  0  0  0  0  0  0  0  0  0  0
   40.5300   34.9360   40.9970 C   0  0  0  0  0  0  0  0  0  0  0  0
   39.6530   35.0260   39.7500 C   0  0  0  0  0  0  0  0  0  0  0  0
   40.5910   34.9210   38.5620 C   0  0  0  0  0  0  0  0  0  0  0  0
   41.9620   35.2470   39.1670 C   0  0  0  0  0  0  0  0  0  0  0  0
   44.3007   33.8329   45.1536 H   0  0  0  0  0  0  0  0  0  0  0  0
   47.9671   31.8543   45.8428 H   0  0  0  0  0  0  0  0  0  0  0  0
   48.2216   35.2709   42.3834 H   0  0  0  0  0  0  0  0  0  0  0  0
   48.9667   35.9101   40.0808 H   0  0  0  0  0  0  0  0  0  0  0  0
   47.0477   32.5402   38.5357 H   0  0  0  0  0  0  0  0  0  0  0  0
   45.2586   36.5430   42.7675 H   0  0  0  0  0  0  0  0  0  0  0  0
   41.8277   33.3451   40.3823 H   0  0  0  0  0  0  0  0  0  0  0  0
   40.1078   34.2282   41.7255 H   0  0  0  0  0  0  0  0  0  0  0  0
   40.6185   35.8934   41.5313 H   0  0  0  0  0  0  0  0  0  0  0  0
   38.9258   34.2008   39.7353 H   0  0  0  0  0  0  0  0  0  0  0  0
   39.0837   35.9670   39.7283 H   0  0  0  0  0  0  0  0  0  0  0  0
   40.3216   35.6477   37.7814 H   0  0  0  0  0  0  0  0  0  0  0  0
   40.5588   33.9362   38.0731 H   0  0  0  0  0  0  0  0  0  0  0  0
   42.7893   34.8879   38.5372 H   0  0  0  0  0  0  0  0  0  0  0  0
   42.1898   36.3164   39.2878 H   0  0  0  0  0  0  0  0  0  0  0  0
  1  6  2  0
  2  1  1  0
  3  2  2  0
  3  4  1  0
  4  5  2  0
  5  6  1  0
  7  3  1  0
  8  7  1  0
  9  8  2  0
 10 12  1  0
 10  9  1  0
 11 10  2  0
 12 13  1  0
 13 14  2  0
 13  7  1  0
 15  2  1  0
 16 15  1  0
 17 16  2  0
 18 17  1  0
 18 19  2  0
 19 15  1  0
 20 21  1  0
 20 18  1  0
 22 21  1  0
 23 24  1  0
 23 22  1  0
 24 20  1  0
  1 25  1  0
  5 26  1  0
  8 27  1  0
  9 28  1  0
 12 29  1  0
 16 30  1  0
 20 31  1  0
 21 32  1  0
 21 33  1  0
 22 34  1  0
 22 35  1  0
 23 36  1  0
 23 37  1  0
 24 38  1  0
 24 39  1  0
M  ISO  8  25  14  26  14  27  14  28  14  29   9  30  14  31  13  32  13
M  ISO  7  33  13  34  13  35  13  36  13  37  13  38  13  39  13
M  END
>  <minimizedAffinity>  (1) 
-5.7394886

>  <minimizedRMSD>  (1) 
0.563491046

$$$$
