
     RDKit          3D

 33 36  0  0  0  0  0  0  0  0999 V2000
   45.5140   33.6650   45.2270 C   0  0  0  0  0  0  0  0  0  0  0  0
   45.8370   33.9190   43.8920 C   0  0  0  0  0  0  0  0  0  0  0  0
   46.9090   33.2520   43.3350 C   0  0  0  0  0  0  0  0  0  0  0  0
   47.6060   32.3790   44.1020 N   0  0  0  0  0  0  0  0  0  0  0  0
   47.2690   32.1540   45.3950 C   0  0  0  0  0  0  0  0  0  0  0  0
   46.2310   32.7990   45.9380 N   0  0  0  0  0  0  0  0  0  0  0  0
   45.0340   34.8520   43.1940 N   0  0  0  0  0  0  0  0  0  0  0  0
   45.1030   36.2260   43.1260 C   0  0  0  0  0  0  0  0  0  0  0  0
   44.1220   36.7050   42.3320 N   0  0  0  0  0  0  0  0  0  0  0  0
   43.4380   35.6230   41.9010 C   0  0  0  0  0  0  0  0  0  0  0  0
   44.0080   34.5230   42.4370 N   0  0  0  0  0  0  0  0  0  0  0  0
   42.2990   35.4640   41.0430 N   0  0  0  0  0  0  0  0  0  0  0  0
   42.5200   35.0200   39.8160 N   0  0  0  0  0  0  0  0  0  0  0  0
   41.3070   34.9630   39.2260 C   0  0  0  0  0  0  0  0  0  0  0  0
   40.3580   35.3840   40.1360 C   0  0  0  0  0  0  0  0  0  0  0  0
   41.0040   35.7090   41.3150 C   0  0  0  0  0  0  0  0  0  0  0  0
   47.2330   33.5160   41.9680 N   0  0  0  0  0  0  0  0  0  0  0  0
   48.0670   34.5950   41.8350 C   0  0  0  0  0  0  0  0  0  0  0  0
   48.4500   34.9470   40.5420 C   0  0  0  0  0  0  0  0  0  0  0  0
   48.0340   34.2730   39.4410 C   0  0  0  0  0  0  0  0  0  0  0  0
   48.3860   34.5990   38.2780 O   0  0  0  0  0  0  0  0  0  0  0  0
   47.2100   33.2140   39.6530 N   0  0  0  0  0  0  0  0  0  0  0  0
   46.8150   32.8390   40.8810 C   0  0  0  0  0  0  0  0  0  0  0  0
   46.0550   31.8700   41.1250 O   0  0  0  0  0  0  0  0  0  0  0  0
   44.6628   34.1835   45.6925 H   0  0  0  0  0  0  0  0  0  0  0  0
   47.8495   31.4405   45.9983 H   0  0  0  0  0  0  0  0  0  0  0  0
   45.8505   36.8444   43.6445 H   0  0  0  0  0  0  0  0  0  0  0  0
   41.1084   34.6363   38.1946 H   0  0  0  0  0  0  0  0  0  0  0  0
   39.2750   35.4496   39.9547 H   0  0  0  0  0  0  0  0  0  0  0  0
   40.5638   36.0797   42.2524 H   0  0  0  0  0  0  0  0  0  0  0  0
   48.4191   35.1592   42.7112 H   0  0  0  0  0  0  0  0  0  0  0  0
   49.1193   35.8097   40.4085 H   0  0  0  0  0  0  0  0  0  0  0  0
   46.8749   32.6774   38.8402 H   0  0  0  0  0  0  0  0  0  0  0  0
  1  6  2  0
  2  1  1  0
  3  2  2  0
  3  4  1  0
  4  5  2  0
  5  6  1  0
  7  2  1  0
  8  7  1  0
  9  8  2  0
 10  9  1  0
 10 11  2  0
 11  7  1  0
 12 16  1  0
 12 10  1  0
 13 12  1  0
 14 13  2  0
 14 15  1  0
 15 16  2  0
 17  3  1  0
 18 17  1  0
 19 18  2  0
 20 22  1  0
 20 19  1  0
 21 20  2  0
 22 23  1  0
 23 24  2  0
 23 17  1  0
  1 25  1  0
  5 26  1  0
  8 27  1  0
 14 28  1  0
 15 29  1  0
 16 30  1  0
 18 31  1  0
 19 32  1  0
 22 33  1  0
M  ISO  8  25  14  26  14  27  14  28  14  29  14  30  14  31  14  32  14
M  ISO  1  33   9
M  END
>  <minimizedAffinity>  (1) 
-5.6861968

>  <minimizedRMSD>  (1) 
1.0887543

$$$$
