
     RDKit          3D

 33 36  0  0  0  0  0  0  0  0999 V2000
   45.5080   33.6450   45.2140 C   0  0  0  0  0  0  0  0  0  0  0  0
   45.8350   33.8980   43.8720 C   0  0  0  0  0  0  0  0  0  0  0  0
   46.9170   33.2440   43.3270 C   0  0  0  0  0  0  0  0  0  0  0  0
   47.6320   32.3810   44.0940 N   0  0  0  0  0  0  0  0  0  0  0  0
   47.2940   32.1550   45.3880 C   0  0  0  0  0  0  0  0  0  0  0  0
   46.2430   32.7840   45.9330 N   0  0  0  0  0  0  0  0  0  0  0  0
   47.2410   33.5100   41.9580 N   0  0  0  0  0  0  0  0  0  0  0  0
   48.0720   34.5980   41.8230 C   0  0  0  0  0  0  0  0  0  0  0  0
   48.4520   34.9470   40.5340 C   0  0  0  0  0  0  0  0  0  0  0  0
   48.0320   34.2590   39.4280 C   0  0  0  0  0  0  0  0  0  0  0  0
   48.3950   34.6020   38.2680 O   0  0  0  0  0  0  0  0  0  0  0  0
   47.2150   33.2000   39.6510 N   0  0  0  0  0  0  0  0  0  0  0  0
   46.8260   32.8310   40.8730 C   0  0  0  0  0  0  0  0  0  0  0  0
   46.0750   31.8620   41.1150 O   0  0  0  0  0  0  0  0  0  0  0  0
   45.0160   34.8180   43.1720 N   0  0  0  0  0  0  0  0  0  0  0  0
   45.0720   36.1840   43.0950 C   0  0  0  0  0  0  0  0  0  0  0  0
   44.0870   36.6540   42.3090 N   0  0  0  0  0  0  0  0  0  0  0  0
   43.3960   35.5560   41.8830 C   0  0  0  0  0  0  0  0  0  0  0  0
   43.9860   34.4650   42.4240 N   0  0  0  0  0  0  0  0  0  0  0  0
   42.2620   35.4480   41.0350 C   0  0  0  0  0  0  0  0  0  0  0  0
   40.9310   35.7840   41.2350 C   0  0  0  0  0  0  0  0  0  0  0  0
   39.9990   35.5870   40.2540 C   0  0  0  0  0  0  0  0  0  0  0  0
   40.5600   35.0030   39.0260 C   0  0  0  0  0  0  0  0  0  0  0  0
   42.3270   34.8010   39.3910 S   0  0  0  0  0  0  0  0  0  0  0  0
   44.6486   34.1532   45.6757 H   0  0  0  0  0  0  0  0  0  0  0  0
   47.8852   31.4521   45.9933 H   0  0  0  0  0  0  0  0  0  0  0  0
   48.4202   35.1666   42.6980 H   0  0  0  0  0  0  0  0  0  0  0  0
   49.1178   35.8117   40.3961 H   0  0  0  0  0  0  0  0  0  0  0  0
   46.8802   32.6570   38.8423 H   0  0  0  0  0  0  0  0  0  0  0  0
   45.8189   36.8100   43.6052 H   0  0  0  0  0  0  0  0  0  0  0  0
   40.6205   36.2157   42.1979 H   0  0  0  0  0  0  0  0  0  0  0  0
   38.9350   35.8402   40.3715 H   0  0  0  0  0  0  0  0  0  0  0  0
   40.0293   34.7468   38.0972 H   0  0  0  0  0  0  0  0  0  0  0  0
  1  6  2  0
  2  1  1  0
  3  2  2  0
  3  4  1  0
  4  5  2  0
  5  6  1  0
  7  3  1  0
  8  7  1  0
  9  8  2  0
 10 12  1  0
 10  9  1  0
 11 10  2  0
 12 13  1  0
 13 14  2  0
 13  7  1  0
 15  2  1  0
 16 15  1  0
 17 16  2  0
 18 17  1  0
 18 19  2  0
 19 15  1  0
 20 21  2  0
 20 18  1  0
 22 21  1  0
 23 24  1  0
 23 22  2  0
 24 20  1  0
  1 25  1  0
  5 26  1  0
  8 27  1  0
  9 28  1  0
 12 29  1  0
 16 30  1  0
 21 31  1  0
 22 32  1  0
 23 33  1  0
M  ISO  8  25  14  26  14  27  14  28  14  29   9  30  14  31  14  32  14
M  ISO  1  33  14
M  END
>  <minimizedAffinity>  (1) 
-5.60853624

>  <minimizedRMSD>  (1) 
1.1057272

$$$$
