
     RDKit          3D

 34 37  0  0  0  0  0  0  0  0999 V2000
   45.4970   33.6320   45.1640 C   0  0  0  0  0  0  0  0  0  0  0  0
   45.8270   33.8920   43.8320 C   0  0  0  0  0  0  0  0  0  0  0  0
   46.9210   33.2470   43.2920 C   0  0  0  0  0  0  0  0  0  0  0  0
   47.6280   32.3930   44.0660 N   0  0  0  0  0  0  0  0  0  0  0  0
   47.2800   32.1600   45.3610 C   0  0  0  0  0  0  0  0  0  0  0  0
   46.2160   32.7850   45.8950 N   0  0  0  0  0  0  0  0  0  0  0  0
   47.2560   33.5150   41.9270 N   0  0  0  0  0  0  0  0  0  0  0  0
   48.0610   34.6220   41.8010 C   0  0  0  0  0  0  0  0  0  0  0  0
   48.4520   34.9790   40.5180 C   0  0  0  0  0  0  0  0  0  0  0  0
   48.0710   34.2850   39.4150 C   0  0  0  0  0  0  0  0  0  0  0  0
   48.4390   34.6280   38.2530 O   0  0  0  0  0  0  0  0  0  0  0  0
   47.2690   33.1940   39.6110 N   0  0  0  0  0  0  0  0  0  0  0  0
   46.8760   32.8250   40.8470 C   0  0  0  0  0  0  0  0  0  0  0  0
   46.1450   31.8370   41.0690 O   0  0  0  0  0  0  0  0  0  0  0  0
   45.0130   34.8070   43.1230 N   0  0  0  0  0  0  0  0  0  0  0  0
   45.0240   36.1810   43.1080 C   0  0  0  0  0  0  0  0  0  0  0  0
   44.0580   36.6350   42.2780 N   0  0  0  0  0  0  0  0  0  0  0  0
   43.4420   35.5360   41.7750 C   0  0  0  0  0  0  0  0  0  0  0  0
   44.0460   34.4550   42.3090 N   0  0  0  0  0  0  0  0  0  0  0  0
   42.3410   35.3600   40.8430 C   0  0  0  0  0  0  0  0  0  0  0  0
   41.0910   35.7350   41.2900 C   0  0  0  0  0  0  0  0  0  0  0  0
   40.0240   35.5730   40.4100 C   0  0  0  0  0  0  0  0  0  0  0  0
   40.2350   35.0690   39.1810 N   0  0  0  0  0  0  0  0  0  0  0  0
   41.4890   34.7190   38.8030 C   0  0  0  0  0  0  0  0  0  0  0  0
   42.5370   34.8570   39.6110 N   0  0  0  0  0  0  0  0  0  0  0  0
   44.6293   34.1354   45.6153 H   0  0  0  0  0  0  0  0  0  0  0  0
   47.8696   31.4599   45.9712 H   0  0  0  0  0  0  0  0  0  0  0  0
   48.3818   35.2005   42.6799 H   0  0  0  0  0  0  0  0  0  0  0  0
   49.0972   35.8606   40.3895 H   0  0  0  0  0  0  0  0  0  0  0  0
   46.9590   32.6432   38.7977 H   0  0  0  0  0  0  0  0  0  0  0  0
   45.7140   36.8153   43.6838 H   0  0  0  0  0  0  0  0  0  0  0  0
   40.9432   36.1451   42.2999 H   0  0  0  0  0  0  0  0  0  0  0  0
   39.0077   35.8575   40.7203 H   0  0  0  0  0  0  0  0  0  0  0  0
   41.6452   34.3073   37.7950 H   0  0  0  0  0  0  0  0  0  0  0  0
  1  6  2  0
  2  1  1  0
  3  2  2  0
  3  4  1  0
  4  5  2  0
  5  6  1  0
  7  3  1  0
  8  7  1  0
  9  8  2  0
 10 12  1  0
 10  9  1  0
 11 10  2  0
 12 13  1  0
 13 14  2  0
 13  7  1  0
 15  2  1  0
 16 15  1  0
 17 16  2  0
 18 17  1  0
 18 19  2  0
 19 15  1  0
 20 21  2  0
 20 18  1  0
 22 21  1  0
 23 22  2  0
 24 23  1  0
 24 25  2  0
 25 20  1  0
  1 26  1  0
  5 27  1  0
  8 28  1  0
  9 29  1  0
 12 30  1  0
 16 31  1  0
 21 32  1  0
 22 33  1  0
 24 34  1  0
M  ISO  8  26  14  27  14  28  14  29  14  30   9  31  14  32  14  33  14
M  ISO  1  34  14
M  END
>  <minimizedAffinity>  (1) 
-5.69096804

>  <minimizedRMSD>  (1) 
1.05996192

$$$$
