
     RDKit          3D

 33 35  0  0  0  0  0  0  0  0999 V2000
   45.2780   33.3500   44.4650 C   0  0  0  0  0  0  0  0  0  0  0  0
   45.6420   33.6140   43.1460 C   0  0  0  0  0  0  0  0  0  0  0  0
   46.8900   33.1900   42.7160 C   0  0  0  0  0  0  0  0  0  0  0  0
   47.7070   32.5390   43.5880 N   0  0  0  0  0  0  0  0  0  0  0  0
   47.3100   32.3060   44.8630 C   0  0  0  0  0  0  0  0  0  0  0  0
   46.1010   32.7120   45.2920 N   0  0  0  0  0  0  0  0  0  0  0  0
   44.7080   34.2980   42.3330 N   0  0  0  0  0  0  0  0  0  0  0  0
   44.4670   35.6310   42.1810 C   0  0  0  0  0  0  0  0  0  0  0  0
   43.4760   35.8270   41.2920 N   0  0  0  0  0  0  0  0  0  0  0  0
   43.0870   34.5870   40.8790 C   0  0  0  0  0  0  0  0  0  0  0  0
   43.8530   33.7050   41.5290 N   0  0  0  0  0  0  0  0  0  0  0  0
   42.0560   34.2830   39.9300 N   0  0  0  0  0  0  0  0  0  0  0  0
   42.2540   34.4770   38.5150 C   0  0  0  0  0  0  0  0  0  0  0  0
   43.4650   34.2190   38.0890 N   0  0  0  0  0  0  0  0  0  0  0  0
   41.1020   34.9250   37.7690 N   0  0  0  0  0  0  0  0  0  0  0  0
   43.7580   34.3120   37.0990 H   0  0  0  0  0  0  0  0  0  0  0  0
   47.2600   33.4600   41.3660 N   0  0  0  0  0  0  0  0  0  0  0  0
   47.9400   34.6360   41.2430 C   0  0  0  0  0  0  0  0  0  0  0  0
   48.3570   35.0120   39.9640 C   0  0  0  0  0  0  0  0  0  0  0  0
   48.1050   34.2450   38.8570 C   0  0  0  0  0  0  0  0  0  0  0  0
   48.4950   34.6110   37.7170 O   0  0  0  0  0  0  0  0  0  0  0  0
   47.4270   33.0960   39.0690 N   0  0  0  0  0  0  0  0  0  0  0  0
   47.0120   32.7050   40.2840 C   0  0  0  0  0  0  0  0  0  0  0  0
   46.3770   31.6390   40.5080 O   0  0  0  0  0  0  0  0  0  0  0  0
   44.2921   33.6752   44.8286 H   0  0  0  0  0  0  0  0  0  0  0  0
   47.9838   31.7791   45.5547 H   0  0  0  0  0  0  0  0  0  0  0  0
   45.0054   36.4317   42.7093 H   0  0  0  0  0  0  0  0  0  0  0  0
   41.1537   33.9178   40.2667 H   0  0  0  0  0  0  0  0  0  0  0  0
   41.1754   35.0831   36.7539 H   0  0  0  0  0  0  0  0  0  0  0  0
   40.2067   35.0866   38.2519 H   0  0  0  0  0  0  0  0  0  0  0  0
   48.1524   35.2657   42.1196 H   0  0  0  0  0  0  0  0  0  0  0  0
   48.9068   35.9568   39.8413 H   0  0  0  0  0  0  0  0  0  0  0  0
   47.2189   32.4921   38.2609 H   0  0  0  0  0  0  0  0  0  0  0  0
  1  6  2  0
  2  1  1  0
  3  2  2  0
  3  4  1  0
  4  5  2  0
  5  6  1  0
  7  2  1  0
  8  7  1  0
  9  8  2  0
 10  9  1  0
 10 11  2  0
 11  7  1  0
 12 10  1  0
 13 12  1  0
 14 13  2  0
 15 13  1  0
 16 14  1  0
 17  3  1  0
 18 17  1  0
 19 18  2  0
 20 22  1  0
 20 19  1  0
 21 20  2  0
 22 23  1  0
 23 24  2  0
 23 17  1  0
  1 25  1  0
  5 26  1  0
  8 27  1  0
 12 28  1  0
 15 29  1  0
 15 30  1  0
 18 31  1  0
 19 32  1  0
 22 33  1  0
M  ISO  6  25  14  26  14  27  14  31  14  32  14  33   9
M  END
>  <minimizedAffinity>  (1) 
-5.6390748

>  <minimizedRMSD>  (1) 
0.324330509

$$$$
