
     RDKit          3D

 38 40  0  0  0  0  0  0  0  0999 V2000
   45.3180   33.7320   45.1690 C   0  0  0  0  0  0  0  0  0  0  0  0
   45.6730   33.9360   43.8290 C   0  0  0  0  0  0  0  0  0  0  0  0
   46.8370   33.3600   43.3550 C   0  0  0  0  0  0  0  0  0  0  0  0
   47.5900   32.6190   44.2110 N   0  0  0  0  0  0  0  0  0  0  0  0
   47.2240   32.4370   45.5020 C   0  0  0  0  0  0  0  0  0  0  0  0
   46.0860   32.9980   45.9670 N   0  0  0  0  0  0  0  0  0  0  0  0
   47.1860   33.5750   41.9950 N   0  0  0  0  0  0  0  0  0  0  0  0
   47.9790   34.6690   41.8320 C   0  0  0  0  0  0  0  0  0  0  0  0
   48.3910   34.9850   40.5340 C   0  0  0  0  0  0  0  0  0  0  0  0
   48.0230   34.2370   39.4460 C   0  0  0  0  0  0  0  0  0  0  0  0
   48.3930   34.5220   38.2800 O   0  0  0  0  0  0  0  0  0  0  0  0
   47.2350   33.1660   39.6910 N   0  0  0  0  0  0  0  0  0  0  0  0
   46.8180   32.8310   40.9290 C   0  0  0  0  0  0  0  0  0  0  0  0
   46.0870   31.8460   41.1950 O   0  0  0  0  0  0  0  0  0  0  0  0
   44.7960   34.7320   43.0400 N   0  0  0  0  0  0  0  0  0  0  0  0
   44.7750   36.0800   42.8160 C   0  0  0  0  0  0  0  0  0  0  0  0
   43.7620   36.3970   41.9970 N   0  0  0  0  0  0  0  0  0  0  0  0
   43.1380   35.2320   41.7020 C   0  0  0  0  0  0  0  0  0  0  0  0
   43.7870   34.2480   42.3480 N   0  0  0  0  0  0  0  0  0  0  0  0
   41.9440   35.0180   40.8270 C   0  0  0  0  0  0  0  0  0  0  0  0
   41.3520   33.6470   40.9980 C   0  0  0  0  0  0  0  0  0  0  0  0
   42.3330   35.1380   39.3580 C   0  0  0  0  0  0  0  0  0  0  0  0
   40.8560   36.0370   41.0790 C   0  0  0  0  0  0  0  0  0  0  0  0
   44.3957   34.1833   45.5636 H   0  0  0  0  0  0  0  0  0  0  0  0
   47.8530   31.8326   46.1721 H   0  0  0  0  0  0  0  0  0  0  0  0
   48.2851   35.2832   42.6917 H   0  0  0  0  0  0  0  0  0  0  0  0
   49.0331   35.8649   40.3805 H   0  0  0  0  0  0  0  0  0  0  0  0
   46.9401   32.5800   38.8969 H   0  0  0  0  0  0  0  0  0  0  0  0
   45.4864   36.8007   43.2456 H   0  0  0  0  0  0  0  0  0  0  0  0
   41.2544   33.4209   42.0701 H   0  0  0  0  0  0  0  0  0  0  0  0
   40.3596   33.6144   40.5245 H   0  0  0  0  0  0  0  0  0  0  0  0
   42.0088   32.9024   40.5245 H   0  0  0  0  0  0  0  0  0  0  0  0
   43.3816   35.4615   39.2816 H   0  0  0  0  0  0  0  0  0  0  0  0
   42.2138   34.1613   38.8662 H   0  0  0  0  0  0  0  0  0  0  0  0
   41.6843   35.8778   38.8662 H   0  0  0  0  0  0  0  0  0  0  0  0
   40.7183   36.1660   42.1627 H   0  0  0  0  0  0  0  0  0  0  0  0
   41.1430   36.9988   40.6288 H   0  0  0  0  0  0  0  0  0  0  0  0
   39.9151   35.6877   40.6288 H   0  0  0  0  0  0  0  0  0  0  0  0
  1  6  2  0
  2  1  1  0
  3  2  2  0
  3  4  1  0
  4  5  2  0
  5  6  1  0
  7  3  1  0
  8  7  1  0
  9  8  2  0
 10 12  1  0
 10  9  1  0
 11 10  2  0
 12 13  1  0
 13 14  2  0
 13  7  1  0
 15  2  1  0
 16 15  1  0
 17 16  2  0
 18 17  1  0
 18 19  2  0
 19 15  1  0
 20 21  1  0
 20 23  1  0
 20 18  1  0
 22 20  1  0
  1 24  1  0
  5 25  1  0
  8 26  1  0
  9 27  1  0
 12 28  1  0
 16 29  1  0
 21 30  1  0
 21 31  1  0
 21 32  1  0
 22 33  1  0
 22 34  1  0
 22 35  1  0
 23 36  1  0
 23 37  1  0
 23 38  1  0
M  ISO  8  24  14  25  14  26  14  27  14  28   9  29  14  30   8  31   8
M  ISO  7  32   8  33   8  34   8  35   8  36   8  37   8  38   8
M  END
>  <minimizedAffinity>  (1) 
-5.16500044

>  <minimizedRMSD>  (1) 
0.693788409

$$$$
