
     RDKit          3D

 32 34  0  0  0  0  0  0  0  0999 V2000
   45.2700   33.4880   44.7760 C   0  0  0  0  0  0  0  0  0  0  0  0
   45.6360   33.7290   43.4460 C   0  0  0  0  0  0  0  0  0  0  0  0
   46.8610   33.2780   43.0090 C   0  0  0  0  0  0  0  0  0  0  0  0
   47.6640   32.6190   43.8830 N   0  0  0  0  0  0  0  0  0  0  0  0
   47.2800   32.4040   45.1630 C   0  0  0  0  0  0  0  0  0  0  0  0
   46.0880   32.8390   45.6000 N   0  0  0  0  0  0  0  0  0  0  0  0
   47.2260   33.5260   41.6530 N   0  0  0  0  0  0  0  0  0  0  0  0
   47.9560   34.6640   41.5170 C   0  0  0  0  0  0  0  0  0  0  0  0
   48.3680   35.0100   40.2340 C   0  0  0  0  0  0  0  0  0  0  0  0
   48.0700   34.2570   39.1340 C   0  0  0  0  0  0  0  0  0  0  0  0
   48.4540   34.5840   37.9700 O   0  0  0  0  0  0  0  0  0  0  0  0
   47.3380   33.1330   39.3430 N   0  0  0  0  0  0  0  0  0  0  0  0
   46.9250   32.7770   40.5830 C   0  0  0  0  0  0  0  0  0  0  0  0
   46.2470   31.7430   40.8120 O   0  0  0  0  0  0  0  0  0  0  0  0
   44.7080   34.4260   42.6380 N   0  0  0  0  0  0  0  0  0  0  0  0
   44.5740   35.7730   42.3940 C   0  0  0  0  0  0  0  0  0  0  0  0
   43.5460   35.9910   41.5570 N   0  0  0  0  0  0  0  0  0  0  0  0
   43.0330   34.7690   41.2730 C   0  0  0  0  0  0  0  0  0  0  0  0
   43.7470   33.8540   41.9340 N   0  0  0  0  0  0  0  0  0  0  0  0
   41.8690   34.5810   40.3670 C   0  0  0  0  0  0  0  0  0  0  0  0
   40.8570   35.6730   40.6890 C   0  0  0  0  0  0  0  0  0  0  0  0
   44.2946   33.8395   45.1436 H   0  0  0  0  0  0  0  0  0  0  0  0
   47.9506   31.8682   45.8509 H   0  0  0  0  0  0  0  0  0  0  0  0
   48.2111   35.2870   42.3869 H   0  0  0  0  0  0  0  0  0  0  0  0
   48.9584   35.9284   40.0998 H   0  0  0  0  0  0  0  0  0  0  0  0
   47.0909   32.5371   38.5401 H   0  0  0  0  0  0  0  0  0  0  0  0
   45.2153   36.5576   42.8219 H   0  0  0  0  0  0  0  0  0  0  0  0
   41.4192   33.5911   40.5339 H   0  0  0  0  0  0  0  0  0  0  0  0
   42.1833   34.6422   39.3146 H   0  0  0  0  0  0  0  0  0  0  0  0
   40.7624   35.7751   41.7802 H   0  0  0  0  0  0  0  0  0  0  0  0
   41.1976   36.6268   40.2597 H   0  0  0  0  0  0  0  0  0  0  0  0
   39.8801   35.4058   40.2597 H   0  0  0  0  0  0  0  0  0  0  0  0
  1  6  2  0
  2  1  1  0
  3  2  2  0
  3  4  1  0
  4  5  2  0
  5  6  1  0
  7  3  1  0
  8  7  1  0
  9  8  2  0
 10 12  1  0
 10  9  1  0
 11 10  2  0
 12 13  1  0
 13 14  2  0
 13  7  1  0
 15  2  1  0
 16 15  1  0
 17 16  2  0
 18 17  1  0
 18 19  2  0
 19 15  1  0
 20 21  1  0
 20 18  1  0
  1 22  1  0
  5 23  1  0
  8 24  1  0
  9 25  1  0
 12 26  1  0
 16 27  1  0
 20 28  1  0
 20 29  1  0
 21 30  1  0
 21 31  1  0
 21 32  1  0
M  ISO  8  22  14  23  14  24  14  25  14  26   9  27  14  28   8  29   8
M  ISO  3  30   8  31   8  32   8
M  END
>  <minimizedAffinity>  (1) 
-4.61491299

>  <minimizedRMSD>  (1) 
0.49095121

$$$$
