
     RDKit          3D

 29 31  0  0  0  0  0  0  0  0999 V2000
   45.3060   33.3850   44.6930 C   0  0  0  0  0  0  0  0  0  0  0  0
   45.6620   33.6470   43.3530 C   0  0  0  0  0  0  0  0  0  0  0  0
   46.8890   33.2050   42.9090 C   0  0  0  0  0  0  0  0  0  0  0  0
   47.7010   32.5390   43.7760 N   0  0  0  0  0  0  0  0  0  0  0  0
   47.3240   32.3070   45.0540 C   0  0  0  0  0  0  0  0  0  0  0  0
   46.1350   32.7300   45.4960 N   0  0  0  0  0  0  0  0  0  0  0  0
   47.2460   33.4730   41.5540 N   0  0  0  0  0  0  0  0  0  0  0  0
   47.9590   34.6350   41.4380 C   0  0  0  0  0  0  0  0  0  0  0  0
   48.3660   35.0040   40.1560 C   0  0  0  0  0  0  0  0  0  0  0  0
   48.0790   34.2570   39.0460 C   0  0  0  0  0  0  0  0  0  0  0  0
   48.4530   34.6010   37.8900 O   0  0  0  0  0  0  0  0  0  0  0  0
   47.3710   33.1240   39.2530 N   0  0  0  0  0  0  0  0  0  0  0  0
   46.9590   32.7330   40.4730 C   0  0  0  0  0  0  0  0  0  0  0  0
   46.3010   31.6900   40.7020 O   0  0  0  0  0  0  0  0  0  0  0  0
   44.7290   34.3470   42.5600 N   0  0  0  0  0  0  0  0  0  0  0  0
   44.5660   35.7030   42.3680 C   0  0  0  0  0  0  0  0  0  0  0  0
   43.5420   35.9200   41.5210 N   0  0  0  0  0  0  0  0  0  0  0  0
   43.0620   34.6830   41.1820 C   0  0  0  0  0  0  0  0  0  0  0  0
   43.8010   33.7750   41.8260 N   0  0  0  0  0  0  0  0  0  0  0  0
   41.9500   34.5060   40.2800 C   0  0  0  0  0  0  0  0  0  0  0  0
   41.0910   33.6200   40.5250 O   0  0  0  0  0  0  0  0  0  0  0  0
   41.8440   35.3260   39.1410 O   0  0  0  0  0  0  0  0  0  0  0  0
   44.3328   33.7267   45.0754 H   0  0  0  0  0  0  0  0  0  0  0  0
   47.9995   31.7671   45.7339 H   0  0  0  0  0  0  0  0  0  0  0  0
   48.2005   35.2509   42.3168 H   0  0  0  0  0  0  0  0  0  0  0  0
   48.9412   35.9334   40.0322 H   0  0  0  0  0  0  0  0  0  0  0  0
   47.1367   32.5344   38.4416 H   0  0  0  0  0  0  0  0  0  0  0  0
   45.1791   36.4876   42.8355 H   0  0  0  0  0  0  0  0  0  0  0  0
   42.5293   36.0182   38.9639 H   0  0  0  0  0  0  0  0  0  0  0  0
  1  6  2  0
  2  1  1  0
  3  2  2  0
  3  4  1  0
  4  5  2  0
  5  6  1  0
  7  3  1  0
  8  7  1  0
  9  8  2  0
 10 12  1  0
 10  9  1  0
 11 10  2  0
 12 13  1  0
 13 14  2  0
 13  7  1  0
 15  2  1  0
 16 15  1  0
 17 16  2  0
 18 17  1  0
 18 19  2  0
 19 15  1  0
 20 21  2  0
 20 18  1  0
 22 20  1  0
  1 23  1  0
  5 24  1  0
  8 25  1  0
  9 26  1  0
 12 27  1  0
 16 28  1  0
 22 29  1  0
M  ISO  7  23  14  24  14  25  14  26  14  27   9  28  14  29   3
M  END
>  <minimizedAffinity>  (1) 
-4.6491065

>  <minimizedRMSD>  (1) 
0.243052512

$$$$
