
     RDKit          3D

 29 31  0  0  0  0  0  0  0  0999 V2000
   45.2240   33.5740   44.6890 C   0  0  0  0  0  0  0  0  0  0  0  0
   45.5940   33.7790   43.3540 C   0  0  0  0  0  0  0  0  0  0  0  0
   46.8590   33.3590   42.9530 C   0  0  0  0  0  0  0  0  0  0  0  0
   47.6800   32.7730   43.8660 N   0  0  0  0  0  0  0  0  0  0  0  0
   47.2800   32.5960   45.1490 C   0  0  0  0  0  0  0  0  0  0  0  0
   46.0540   32.9990   45.5490 N   0  0  0  0  0  0  0  0  0  0  0  0
   47.2360   33.5650   41.5990 N   0  0  0  0  0  0  0  0  0  0  0  0
   47.9180   34.7340   41.4220 C   0  0  0  0  0  0  0  0  0  0  0  0
   48.3380   35.0400   40.1330 C   0  0  0  0  0  0  0  0  0  0  0  0
   48.0940   34.2270   39.0560 C   0  0  0  0  0  0  0  0  0  0  0  0
   48.4800   34.5180   37.8960 O   0  0  0  0  0  0  0  0  0  0  0  0
   47.4060   33.0780   39.3150 N   0  0  0  0  0  0  0  0  0  0  0  0
   46.9900   32.7580   40.5470 C   0  0  0  0  0  0  0  0  0  0  0  0
   46.3560   31.7110   40.8200 O   0  0  0  0  0  0  0  0  0  0  0  0
   44.6620   34.3970   42.4990 N   0  0  0  0  0  0  0  0  0  0  0  0
   44.4470   35.7190   42.2140 C   0  0  0  0  0  0  0  0  0  0  0  0
   43.4470   35.8590   41.3360 N   0  0  0  0  0  0  0  0  0  0  0  0
   43.0220   34.5890   41.0590 C   0  0  0  0  0  0  0  0  0  0  0  0
   43.7720   33.7390   41.7730 N   0  0  0  0  0  0  0  0  0  0  0  0
   41.9020   34.2580   40.1090 C   0  0  0  0  0  0  0  0  0  0  0  0
   44.2287   33.8951   45.0300 H   0  0  0  0  0  0  0  0  0  0  0  0
   47.9597   32.1199   45.8710 H   0  0  0  0  0  0  0  0  0  0  0  0
   48.1270   35.4074   42.2663 H   0  0  0  0  0  0  0  0  0  0  0  0
   48.8911   35.9766   39.9693 H   0  0  0  0  0  0  0  0  0  0  0  0
   47.1996   32.4352   38.5371 H   0  0  0  0  0  0  0  0  0  0  0  0
   45.0187   36.5526   42.6479 H   0  0  0  0  0  0  0  0  0  0  0  0
   41.0016   33.9919   40.6822 H   0  0  0  0  0  0  0  0  0  0  0  0
   41.6885   35.1314   39.4754 H   0  0  0  0  0  0  0  0  0  0  0  0
   42.1976   33.4088   39.4754 H   0  0  0  0  0  0  0  0  0  0  0  0
  1  6  2  0
  2  1  1  0
  3  2  2  0
  3  4  1  0
  4  5  2  0
  5  6  1  0
  7  3  1  0
  8  7  1  0
  9  8  2  0
 10 12  1  0
 10  9  1  0
 11 10  2  0
 12 13  1  0
 13 14  2  0
 13  7  1  0
 15  2  1  0
 16 15  1  0
 17 16  2  0
 18 17  1  0
 18 19  2  0
 19 15  1  0
 20 18  1  0
  1 21  1  0
  5 22  1  0
  8 23  1  0
  9 24  1  0
 12 25  1  0
 16 26  1  0
 20 27  1  0
 20 28  1  0
 20 29  1  0
M  ISO  8  21  14  22  14  23  14  24  14  25   9  26  14  27   8  28   8
M  ISO  1  29   8
M  END
>  <minimizedAffinity>  (1) 
-4.42331409

>  <minimizedRMSD>  (1) 
0.0335305408

$$$$
