
     RDKit          3D

 45 48  0  0  1  0  0  0  0  0999 V2000
   45.1890   33.7780   45.0310 C   0  0  0  0  0  0  0  0  0  0  0  0
   45.5710   33.9060   43.6830 C   0  0  0  0  0  0  0  0  0  0  0  0
   46.8060   33.4580   43.3010 C   0  0  0  0  0  0  0  0  0  0  0  0
   47.6130   32.9090   44.2320 N   0  0  0  0  0  0  0  0  0  0  0  0
   47.2460   32.7860   45.5220 C   0  0  0  0  0  0  0  0  0  0  0  0
   46.0190   33.2300   45.9060 N   0  0  0  0  0  0  0  0  0  0  0  0
   47.1710   33.5980   41.9330 N   0  0  0  0  0  0  0  0  0  0  0  0
   47.8930   34.7430   41.7070 C   0  0  0  0  0  0  0  0  0  0  0  0
   48.3130   35.0030   40.4120 C   0  0  0  0  0  0  0  0  0  0  0  0
   48.0310   34.1580   39.3700 C   0  0  0  0  0  0  0  0  0  0  0  0
   48.4200   34.4050   38.1950 O   0  0  0  0  0  0  0  0  0  0  0  0
   47.3050   33.0280   39.6630 N   0  0  0  0  0  0  0  0  0  0  0  0
   46.8930   32.7670   40.9120 C   0  0  0  0  0  0  0  0  0  0  0  0
   46.2300   31.7530   41.2310 O   0  0  0  0  0  0  0  0  0  0  0  0
   44.6230   34.5040   42.8080 N   0  0  0  0  0  0  0  0  0  0  0  0
   44.4900   35.8240   42.4130 C   0  0  0  0  0  0  0  0  0  0  0  0
   43.4450   35.9290   41.5720 N   0  0  0  0  0  0  0  0  0  0  0  0
   42.9310   34.6720   41.4450 C   0  0  0  0  0  0  0  0  0  0  0  0
   43.6510   33.8470   42.1900 N   0  0  0  0  0  0  0  0  0  0  0  0
   41.7560   34.2500   40.6260 C   0  0  1  0  0  0  0  0  0  0  0  0
   40.3930   34.7390   41.1390 C   0  0  0  0  0  0  0  0  0  0  0  0
   40.9950   35.1750   39.8040 C   0  0  2  0  0  0  0  0  0  0  0  0
   40.3930   34.6170   38.5390 C   0  0  0  0  0  0  0  0  0  0  0  0
   38.9090   34.3810   38.6640 C   0  0  0  0  0  0  0  0  0  0  0  0
   40.6290   35.6280   37.4350 C   0  0  0  0  0  0  0  0  0  0  0  0
   41.0760   33.3240   38.1390 C   0  0  0  0  0  0  0  0  0  0  0  0
   44.2007   34.1331   45.3585 H   0  0  0  0  0  0  0  0  0  0  0  0
   47.9293   32.3326   46.2551 H   0  0  0  0  0  0  0  0  0  0  0  0
   48.1313   35.4339   42.5292 H   0  0  0  0  0  0  0  0  0  0  0  0
   48.8916   35.9173   40.2138 H   0  0  0  0  0  0  0  0  0  0  0  0
   47.0726   32.3680   38.9072 H   0  0  0  0  0  0  0  0  0  0  0  0
   45.1355   36.6544   42.7352 H   0  0  0  0  0  0  0  0  0  0  0  0
   42.2389   33.2925   40.3811 H   0  0  0  0  0  0  0  0  0  0  0  0
   39.5292   34.0585   41.1673 H   0  0  0  0  0  0  0  0  0  0  0  0
   40.0136   35.2375   42.0432 H   0  0  0  0  0  0  0  0  0  0  0  0
   41.1993   36.1551   39.3484 H   0  0  0  0  0  0  0  0  0  0  0  0
   38.6330   34.3371   39.7279 H   0  0  0  0  0  0  0  0  0  0  0  0
   38.3646   35.2039   38.1776 H   0  0  0  0  0  0  0  0  0  0  0  0
   38.6467   33.4299   38.1776 H   0  0  0  0  0  0  0  0  0  0  0  0
   40.8578   36.6083   37.8784 H   0  0  0  0  0  0  0  0  0  0  0  0
   41.4749   35.3006   36.8127 H   0  0  0  0  0  0  0  0  0  0  0  0
   39.7256   35.7089   36.8127 H   0  0  0  0  0  0  0  0  0  0  0  0
   41.3690   32.7693   39.0426 H   0  0  0  0  0  0  0  0  0  0  0  0
   40.3831   32.7128   37.5421 H   0  0  0  0  0  0  0  0  0  0  0  0
   41.9714   33.5517   37.5421 H   0  0  0  0  0  0  0  0  0  0  0  0
  1  6  2  0
  2  1  1  0
  3  2  2  0
  3  4  1  0
  4  5  2  0
  5  6  1  0
  7  3  1  0
  8  7  1  0
  9  8  2  0
 10 12  1  0
 10  9  1  0
 11 10  2  0
 12 13  1  0
 13 14  2  0
 13  7  1  0
 15  2  1  0
 16 15  1  0
 17 16  2  0
 18 17  1  0
 18 19  2  0
 19 15  1  0
 20 21  1  0
 20 18  1  0
 22 20  1  0
 22 21  1  0
 23 24  1  0
 23 22  1  0
 25 23  1  0
 26 23  1  0
  1 27  1  0
  5 28  1  0
  8 29  1  0
  9 30  1  0
 12 31  1  0
 16 32  1  0
 20 33  1  6
 21 34  1  0
 21 35  1  0
 22 36  1  6
 24 37  1  0
 24 38  1  0
 24 39  1  0
 25 40  1  0
 25 41  1  0
 25 42  1  0
 26 43  1  0
 26 44  1  0
 26 45  1  0
M  ISO  8  27  14  28  14  29  14  30  14  31   9  32  14  33  13  34  13
M  ISO  8  35  13  36  13  37   8  38   8  39   8  40   8  41   8  42   8
M  ISO  3  43   8  44   8  45   8
M  END
>  <minimizedAffinity>  (1) 
-5.96054745

>  <minimizedRMSD>  (1) 
1.12070572

$$$$
