
     RDKit          3D

 40 44  0  0  1  0  0  0  0  0999 V2000
   45.4200   33.3450   44.6880 C   0  0  0  0  0  0  0  0  0  0  0  0
   45.7280   33.5860   43.3300 C   0  0  0  0  0  0  0  0  0  0  0  0
   46.9320   33.1630   42.8400 C   0  0  0  0  0  0  0  0  0  0  0  0
   47.7910   32.5280   43.6630 N   0  0  0  0  0  0  0  0  0  0  0  0
   47.4900   32.3010   44.9650 C   0  0  0  0  0  0  0  0  0  0  0  0
   46.3110   32.7140   45.4530 N   0  0  0  0  0  0  0  0  0  0  0  0
   47.2150   33.4170   41.4690 N   0  0  0  0  0  0  0  0  0  0  0  0
   47.9900   34.5400   41.2940 C   0  0  0  0  0  0  0  0  0  0  0  0
   48.3390   34.9020   40.0020 C   0  0  0  0  0  0  0  0  0  0  0  0
   47.9360   34.1740   38.9160 C   0  0  0  0  0  0  0  0  0  0  0  0
   48.2630   34.5140   37.7380 O   0  0  0  0  0  0  0  0  0  0  0  0
   47.1700   33.0700   39.1450 N   0  0  0  0  0  0  0  0  0  0  0  0
   46.8200   32.7050   40.3960 C   0  0  0  0  0  0  0  0  0  0  0  0
   46.1230   31.7070   40.6600 O   0  0  0  0  0  0  0  0  0  0  0  0
   44.7370   34.2620   42.5710 N   0  0  0  0  0  0  0  0  0  0  0  0
   44.6620   35.5980   42.2010 C   0  0  0  0  0  0  0  0  0  0  0  0
   43.5400   35.7930   41.4830 N   0  0  0  0  0  0  0  0  0  0  0  0
   42.9210   34.5770   41.4090 C   0  0  0  0  0  0  0  0  0  0  0  0
   43.6580   33.6920   42.0650 N   0  0  0  0  0  0  0  0  0  0  0  0
   41.6400   34.2550   40.7280 C   0  0  1  0  0  0  0  0  0  0  0  0
   40.3700   34.6860   41.4750 C   0  0  0  0  0  0  0  0  0  0  0  0
   40.7850   35.2610   40.1180 C   0  0  2  0  0  0  0  0  0  0  0  0
   39.8480   34.9070   39.0030 C   0  0  0  0  0  0  0  0  0  0  0  0
   40.3890   35.2000   37.6100 C   0  0  0  0  0  0  0  0  0  0  0  0
   40.1560   33.8220   38.0450 C   0  0  0  0  0  0  0  0  0  0  0  0
   44.4580   33.6736   45.1082 H   0  0  0  0  0  0  0  0  0  0  0  0
   48.2078   31.7816   45.6169 H   0  0  0  0  0  0  0  0  0  0  0  0
   48.3241   35.1352   42.1566 H   0  0  0  0  0  0  0  0  0  0  0  0
   48.9566   35.7988   39.8458 H   0  0  0  0  0  0  0  0  0  0  0  0
   46.8517   32.5026   38.3465 H   0  0  0  0  0  0  0  0  0  0  0  0
   45.4007   36.3728   42.4539 H   0  0  0  0  0  0  0  0  0  0  0  0
   42.0707   33.3292   40.3189 H   0  0  0  0  0  0  0  0  0  0  0  0
   39.5097   34.0051   41.5542 H   0  0  0  0  0  0  0  0  0  0  0  0
   40.1280   35.0871   42.4703 H   0  0  0  0  0  0  0  0  0  0  0  0
   41.0185   36.2481   39.6925 H   0  0  0  0  0  0  0  0  0  0  0  0
   38.9615   35.1342   39.6133 H   0  0  0  0  0  0  0  0  0  0  0  0
   41.4163   35.5726   37.4842 H   0  0  0  0  0  0  0  0  0  0  0  0
   40.0638   35.8165   36.7590 H   0  0  0  0  0  0  0  0  0  0  0  0
   39.3349   33.2424   37.5979 H   0  0  0  0  0  0  0  0  0  0  0  0
   40.7820   32.9186   38.0893 H   0  0  0  0  0  0  0  0  0  0  0  0
  1  6  2  0
  2  1  1  0
  3  2  2  0
  3  4  1  0
  4  5  2  0
  5  6  1  0
  7  3  1  0
  8  7  1  0
  9  8  2  0
 10 12  1  0
 10  9  1  0
 11 10  2  0
 12 13  1  0
 13 14  2  0
 13  7  1  0
 15  2  1  0
 16 15  1  0
 17 16  2  0
 18 17  1  0
 18 19  2  0
 19 15  1  0
 20 18  1  0
 20 21  1  0
 22 20  1  0
 22 21  1  0
 23 22  1  0
 24 25  1  0
 24 23  1  0
 25 23  1  0
  1 26  1  0
  5 27  1  0
  8 28  1  0
  9 29  1  0
 12 30  1  0
 16 31  1  0
 20 32  1  6
 21 33  1  0
 21 34  1  0
 22 35  1  1
 23 36  1  0
 24 37  1  0
 24 38  1  0
 25 39  1  0
 25 40  1  0
M  ISO  8  26  14  27  14  28  14  29  14  30   9  31  14  32  13  33  13
M  ISO  7  34  13  35  13  36  13  37  13  38  13  39  13  40  13
M  END
>  <minimizedAffinity>  (1) 
-5.7344861

>  <minimizedRMSD>  (1) 
0.884738028

$$$$
