
     RDKit          3D

 40 44  0  0  1  0  0  0  0  0999 V2000
   45.4850   35.0250   41.9620 C   0  0  0  0  0  0  0  0  0  0  0  0
   44.9800   34.1390   40.9970 C   0  0  0  0  0  0  0  0  0  0  0  0
   45.8660   33.4570   40.2110 C   0  0  0  0  0  0  0  0  0  0  0  0
   47.1930   33.6570   40.3840 N   0  0  0  0  0  0  0  0  0  0  0  0
   47.6640   34.5140   41.3190 C   0  0  0  0  0  0  0  0  0  0  0  0
   46.7870   35.1950   42.1050 N   0  0  0  0  0  0  0  0  0  0  0  0
   45.3380   32.5660   39.2390 N   0  0  0  0  0  0  0  0  0  0  0  0
   45.1330   33.1690   38.0250 C   0  0  0  0  0  0  0  0  0  0  0  0
   44.6170   32.4050   36.9820 C   0  0  0  0  0  0  0  0  0  0  0  0
   44.3130   31.0820   37.1410 C   0  0  0  0  0  0  0  0  0  0  0  0
   43.8460   30.3870   36.2020 O   0  0  0  0  0  0  0  0  0  0  0  0
   44.5360   30.5300   38.3710 N   0  0  0  0  0  0  0  0  0  0  0  0
   45.0360   31.2610   39.3890 C   0  0  0  0  0  0  0  0  0  0  0  0
   45.2600   30.8050   40.5360 O   0  0  0  0  0  0  0  0  0  0  0  0
   43.5570   34.0190   40.9170 N   0  0  0  0  0  0  0  0  0  0  0  0
   42.7120   33.1040   41.4860 C   0  0  0  0  0  0  0  0  0  0  0  0
   41.4450   33.3860   41.1290 N   0  0  0  0  0  0  0  0  0  0  0  0
   41.5200   34.4890   40.3310 C   0  0  0  0  0  0  0  0  0  0  0  0
   42.7900   34.8510   40.2170 N   0  0  0  0  0  0  0  0  0  0  0  0
   40.3950   35.1910   39.6690 C   0  0  1  0  0  0  0  0  0  0  0  0
   39.9790   34.6500   38.2950 C   0  0  0  0  0  0  0  0  0  0  0  0
   39.0610   34.6480   39.5230 C   0  0  1  0  0  0  0  0  0  0  0  0
   38.6670   33.2970   39.9380 C   0  0  0  0  0  0  0  0  0  0  0  0
   38.6120   32.2240   39.0390 C   0  0  0  0  0  0  0  0  0  0  0  0
   38.2230   31.1080   39.6970 N   0  0  0  0  0  0  0  0  0  0  0  0
   38.0280   31.4470   40.9950 C   0  0  0  0  0  0  0  0  0  0  0  0
   38.3050   32.7610   41.0940 N   0  0  0  0  0  0  0  0  0  0  0  0
   44.7892   35.5833   42.6055 H   0  0  0  0  0  0  0  0  0  0  0  0
   48.7474   34.6590   41.4426 H   0  0  0  0  0  0  0  0  0  0  0  0
   45.3710   34.2329   37.8784 H   0  0  0  0  0  0  0  0  0  0  0  0
   44.4494   32.8788   36.0035 H   0  0  0  0  0  0  0  0  0  0  0  0
   44.3178   29.5351   38.5242 H   0  0  0  0  0  0  0  0  0  0  0  0
   43.0201   32.2696   42.1332 H   0  0  0  0  0  0  0  0  0  0  0  0
   40.7380   36.1414   40.1039 H   0  0  0  0  0  0  0  0  0  0  0  0
   40.4031   33.7103   37.9114 H   0  0  0  0  0  0  0  0  0  0  0  0
   39.9347   35.0342   37.2652 H   0  0  0  0  0  0  0  0  0  0  0  0
   38.0963   35.0676   39.8446 H   0  0  0  0  0  0  0  0  0  0  0  0
   38.8481   32.2802   37.9661 H   0  0  0  0  0  0  0  0  0  0  0  0
   37.7065   30.7795   41.8080 H   0  0  0  0  0  0  0  0  0  0  0  0
   38.2422   33.2923   41.9741 H   0  0  0  0  0  0  0  0  0  0  0  0
  1  6  2  0
  2  1  1  0
  3  4  1  0
  3  2  2  0
  4  5  2  0
  5  6  1  0
  7 13  1  0
  7  3  1  0
  8  7  1  0
  9 10  1  0
  9  8  2  0
 10 12  1  0
 11 10  2  0
 12 13  1  0
 13 14  2  0
 15  2  1  0
 15 16  1  0
 17 16  2  0
 18 17  1  0
 19 18  2  0
 19 15  1  0
 20 18  1  0
 21 22  1  0
 21 20  1  0
 22 20  1  0
 22 23  1  0
 23 27  1  0
 24 25  1  0
 24 23  2  0
 25 26  2  0
 26 27  1  0
  1 28  1  0
  5 29  1  0
  8 30  1  0
  9 31  1  0
 12 32  1  0
 16 33  1  0
 20 34  1  6
 21 35  1  0
 21 36  1  0
 22 37  1  6
 24 38  1  0
 26 39  1  0
 27 40  1  0
M  ISO  8  28  14  29  14  30  14  31  14  32   9  33  14  34  13  35  13
M  ISO  5  36  13  37  13  38  14  39  14  40   9
M  END
>  <minimizedAffinity>  (1) 
-5.89687014

>  <minimizedRMSD>  (1) 
4.56772661

$$$$
