
     RDKit          3D

 34 37  0  0  1  0  0  0  0  0999 V2000
   45.4960   33.5990   45.1750 C   0  0  0  0  0  0  0  0  0  0  0  0
   45.8350   33.8490   43.8320 C   0  0  0  0  0  0  0  0  0  0  0  0
   46.9450   33.2490   43.3100 C   0  0  0  0  0  0  0  0  0  0  0  0
   47.6880   32.4330   44.1000 N   0  0  0  0  0  0  0  0  0  0  0  0
   47.3510   32.2040   45.3830 C   0  0  0  0  0  0  0  0  0  0  0  0
   46.2630   32.7890   45.9050 N   0  0  0  0  0  0  0  0  0  0  0  0
   47.2690   33.5160   41.9470 N   0  0  0  0  0  0  0  0  0  0  0  0
   48.0630   34.6230   41.8030 C   0  0  0  0  0  0  0  0  0  0  0  0
   48.4530   34.9940   40.5250 C   0  0  0  0  0  0  0  0  0  0  0  0
   48.0600   34.2810   39.4240 C   0  0  0  0  0  0  0  0  0  0  0  0
   48.4260   34.6340   38.2590 O   0  0  0  0  0  0  0  0  0  0  0  0
   47.2720   33.1900   39.6210 N   0  0  0  0  0  0  0  0  0  0  0  0
   46.8880   32.8200   40.8560 C   0  0  0  0  0  0  0  0  0  0  0  0
   46.1630   31.8240   41.0970 O   0  0  0  0  0  0  0  0  0  0  0  0
   44.9700   34.7280   43.1100 N   0  0  0  0  0  0  0  0  0  0  0  0
   44.9660   36.1000   43.0390 C   0  0  0  0  0  0  0  0  0  0  0  0
   43.9630   36.4960   42.2340 N   0  0  0  0  0  0  0  0  0  0  0  0
   43.3470   35.3560   41.8100 C   0  0  0  0  0  0  0  0  0  0  0  0
   43.9660   34.3130   42.3450 N   0  0  0  0  0  0  0  0  0  0  0  0
   42.1690   35.2470   40.9020 C   0  0  1  0  0  0  0  0  0  0  0  0
   40.9730   34.4720   41.4700 C   0  0  0  0  0  0  0  0  0  0  0  0
   40.9240   35.9630   41.1180 C   0  0  2  0  0  0  0  0  0  0  0  0
   40.1490   36.2940   39.9850 O   0  0  0  0  0  0  0  0  0  0  0  0
   44.6054   34.0681   45.6186 H   0  0  0  0  0  0  0  0  0  0  0  0
   47.9680   31.5371   46.0032 H   0  0  0  0  0  0  0  0  0  0  0  0
   48.3836   35.2039   42.6804 H   0  0  0  0  0  0  0  0  0  0  0  0
   49.0916   35.8798   40.3929 H   0  0  0  0  0  0  0  0  0  0  0  0
   46.9634   32.6365   38.8090 H   0  0  0  0  0  0  0  0  0  0  0  0
   45.6699   36.7678   43.5572 H   0  0  0  0  0  0  0  0  0  0  0  0
   42.8289   35.1995   40.0232 H   0  0  0  0  0  0  0  0  0  0  0  0
   40.4406   33.7337   40.8524 H   0  0  0  0  0  0  0  0  0  0  0  0
   40.7714   33.8551   42.3581 H   0  0  0  0  0  0  0  0  0  0  0  0
   40.6688   36.8862   41.6589 H   0  0  0  0  0  0  0  0  0  0  0  0
   39.2791   36.6655   40.2773 H   0  0  0  0  0  0  0  0  0  0  0  0
  1  6  2  0
  2  1  1  0
  3  2  2  0
  3  4  1  0
  4  5  2  0
  5  6  1  0
  7  3  1  0
  8  7  1  0
  9  8  2  0
 10 12  1  0
 10  9  1  0
 11 10  2  0
 12 13  1  0
 13 14  2  0
 13  7  1  0
 15  2  1  0
 16 15  1  0
 17 16  2  0
 18 17  1  0
 18 19  2  0
 19 15  1  0
 20 22  1  0
 20 21  1  0
 20 18  1  0
 22 21  1  0
 23 22  1  0
  1 24  1  0
  5 25  1  0
  8 26  1  0
  9 27  1  0
 12 28  1  0
 16 29  1  0
 20 30  1  6
 21 31  1  0
 21 32  1  0
 22 33  1  1
 23 34  1  0
M  ISO  8  24  14  25  14  26  14  27  14  28   9  29  14  30  13  31  13
M  ISO  3  32  13  33  13  34   3
M  END
>  <minimizedAffinity>  (1) 
-5.05217409

>  <minimizedRMSD>  (1) 
0.158296809

$$$$
