
     RDKit          3D

 34 37  0  0  1  0  0  0  0  0999 V2000
   45.2620   33.4730   44.7360 C   0  0  0  0  0  0  0  0  0  0  0  0
   45.6350   33.7050   43.4060 C   0  0  0  0  0  0  0  0  0  0  0  0
   46.8580   33.2590   42.9790 C   0  0  0  0  0  0  0  0  0  0  0  0
   47.6620   32.6110   43.8580 N   0  0  0  0  0  0  0  0  0  0  0  0
   47.2840   32.3980   45.1330 C   0  0  0  0  0  0  0  0  0  0  0  0
   46.0870   32.8320   45.5560 N   0  0  0  0  0  0  0  0  0  0  0  0
   47.2220   33.5030   41.6300 N   0  0  0  0  0  0  0  0  0  0  0  0
   47.9410   34.6580   41.4800 C   0  0  0  0  0  0  0  0  0  0  0  0
   48.3570   35.0110   40.2010 C   0  0  0  0  0  0  0  0  0  0  0  0
   48.0710   34.2470   39.1120 C   0  0  0  0  0  0  0  0  0  0  0  0
   48.4600   34.5840   37.9510 O   0  0  0  0  0  0  0  0  0  0  0  0
   47.3520   33.1050   39.3150 N   0  0  0  0  0  0  0  0  0  0  0  0
   46.9410   32.7500   40.5460 C   0  0  0  0  0  0  0  0  0  0  0  0
   46.2790   31.7120   40.7860 O   0  0  0  0  0  0  0  0  0  0  0  0
   44.6920   34.3980   42.5860 N   0  0  0  0  0  0  0  0  0  0  0  0
   44.5520   35.7430   42.3510 C   0  0  0  0  0  0  0  0  0  0  0  0
   43.5230   35.9370   41.5060 N   0  0  0  0  0  0  0  0  0  0  0  0
   43.0280   34.6980   41.2220 C   0  0  0  0  0  0  0  0  0  0  0  0
   43.7420   33.7930   41.8770 N   0  0  0  0  0  0  0  0  0  0  0  0
   41.8760   34.3620   40.3350 C   0  0  1  0  0  0  0  0  0  0  0  0
   40.4930   34.7140   40.8960 C   0  0  0  0  0  0  0  0  0  0  0  0
   41.0860   35.3590   39.6390 C   0  0  2  0  0  0  0  0  0  0  0  0
   40.4040   34.7800   38.0380 S   0  0  0  0  0  0  0  0  0  0  0  0
   44.2850   33.8220   45.1016 H   0  0  0  0  0  0  0  0  0  0  0  0
   47.9551   31.8694   45.8260 H   0  0  0  0  0  0  0  0  0  0  0  0
   48.1831   35.2896   42.3474 H   0  0  0  0  0  0  0  0  0  0  0  0
   48.9354   35.9368   40.0654 H   0  0  0  0  0  0  0  0  0  0  0  0
   47.1198   32.5040   38.5114 H   0  0  0  0  0  0  0  0  0  0  0  0
   45.1803   36.5353   42.7840 H   0  0  0  0  0  0  0  0  0  0  0  0
   42.4020   33.4714   39.9606 H   0  0  0  0  0  0  0  0  0  0  0  0
   39.6596   34.0003   40.8187 H   0  0  0  0  0  0  0  0  0  0  0  0
   40.0869   35.0637   41.8566 H   0  0  0  0  0  0  0  0  0  0  0  0
   41.2427   36.4018   39.3260 H   0  0  0  0  0  0  0  0  0  0  0  0
   39.3746   33.9061   38.2694 H   0  0  0  0  0  0  0  0  0  0  0  0
  1  6  2  0
  2  1  1  0
  3  2  2  0
  3  4  1  0
  4  5  2  0
  5  6  1  0
  7  3  1  0
  8  7  1  0
  9  8  2  0
 10 12  1  0
 10  9  1  0
 11 10  2  0
 12 13  1  0
 13 14  2  0
 13  7  1  0
 15  2  1  0
 16 15  1  0
 17 16  2  0
 18 17  1  0
 18 19  2  0
 19 15  1  0
 20 21  1  0
 20 18  1  0
 22 20  1  0
 22 21  1  0
 23 22  1  0
  1 24  1  0
  5 25  1  0
  8 26  1  0
  9 27  1  0
 12 28  1  0
 16 29  1  0
 20 30  1  6
 21 31  1  0
 21 32  1  0
 22 33  1  1
 23 34  1  0
M  ISO  8  24  14  25  14  26  14  27  14  28   9  29  14  30  13  31  13
M  ISO  3  32  13  33  13  34  11
M  END
>  <minimizedAffinity>  (1) 
-5.14744139

>  <minimizedRMSD>  (1) 
0.78757143

$$$$
