
     RDKit          3D

 36 39  0  0  1  0  0  0  0  0999 V2000
   45.3500   33.3880   44.7250 C   0  0  0  0  0  0  0  0  0  0  0  0
   45.6960   33.6480   43.3910 C   0  0  0  0  0  0  0  0  0  0  0  0
   46.9050   33.1980   42.9300 C   0  0  0  0  0  0  0  0  0  0  0  0
   47.7240   32.5210   43.7680 N   0  0  0  0  0  0  0  0  0  0  0  0
   47.3640   32.2810   45.0590 C   0  0  0  0  0  0  0  0  0  0  0  0
   46.1770   32.7220   45.5170 N   0  0  0  0  0  0  0  0  0  0  0  0
   47.2440   33.4680   41.5770 N   0  0  0  0  0  0  0  0  0  0  0  0
   47.9810   34.6100   41.4390 C   0  0  0  0  0  0  0  0  0  0  0  0
   48.3820   34.9940   40.1680 C   0  0  0  0  0  0  0  0  0  0  0  0
   48.0530   34.2560   39.0600 C   0  0  0  0  0  0  0  0  0  0  0  0
   48.4180   34.6070   37.9010 O   0  0  0  0  0  0  0  0  0  0  0  0
   47.3140   33.1210   39.2550 N   0  0  0  0  0  0  0  0  0  0  0  0
   46.9230   32.7440   40.4860 C   0  0  0  0  0  0  0  0  0  0  0  0
   46.2470   31.7160   40.7080 O   0  0  0  0  0  0  0  0  0  0  0  0
   44.7500   34.3690   42.6100 N   0  0  0  0  0  0  0  0  0  0  0  0
   44.6350   35.7250   42.3910 C   0  0  0  0  0  0  0  0  0  0  0  0
   43.5830   35.9530   41.5810 N   0  0  0  0  0  0  0  0  0  0  0  0
   43.0510   34.7280   41.3010 C   0  0  0  0  0  0  0  0  0  0  0  0
   43.7620   33.8000   41.9250 N   0  0  0  0  0  0  0  0  0  0  0  0
   41.8630   34.4270   40.4440 C   0  0  1  0  0  0  0  0  0  0  0  0
   40.5020   34.6670   41.1150 C   0  0  0  0  0  0  0  0  0  0  0  0
   40.9960   35.4530   39.8960 C   0  0  2  0  0  0  0  0  0  0  0  0
   40.3440   35.1000   38.5840 C   0  0  0  0  0  0  0  0  0  0  0  0
   39.2190   34.5300   38.5790 O   0  0  0  0  0  0  0  0  0  0  0  0
   40.9480   35.3840   37.3730 O   0  0  0  0  0  0  0  0  0  0  0  0
   44.3842   33.7399   45.1167 H   0  0  0  0  0  0  0  0  0  0  0  0
   48.0414   31.7280   45.7264 H   0  0  0  0  0  0  0  0  0  0  0  0
   48.2510   35.2130   42.3185 H   0  0  0  0  0  0  0  0  0  0  0  0
   48.9772   35.9110   40.0460 H   0  0  0  0  0  0  0  0  0  0  0  0
   47.0518   32.5437   38.4433 H   0  0  0  0  0  0  0  0  0  0  0  0
   45.2964   36.4974   42.8105 H   0  0  0  0  0  0  0  0  0  0  0  0
   42.3979   33.6005   39.9533 H   0  0  0  0  0  0  0  0  0  0  0  0
   39.6911   33.9305   41.0149 H   0  0  0  0  0  0  0  0  0  0  0  0
   40.1419   34.9061   42.1265 H   0  0  0  0  0  0  0  0  0  0  0  0
   41.1119   36.5239   39.6731 H   0  0  0  0  0  0  0  0  0  0  0  0
   40.4970   35.1409   36.5259 H   0  0  0  0  0  0  0  0  0  0  0  0
  1  6  2  0
  2  1  1  0
  3  2  2  0
  3  4  1  0
  4  5  2  0
  5  6  1  0
  7  3  1  0
  8  7  1  0
  9  8  2  0
 10 12  1  0
 10  9  1  0
 11 10  2  0
 12 13  1  0
 13 14  2  0
 13  7  1  0
 15  2  1  0
 16 15  1  0
 17 16  2  0
 18 17  1  0
 18 19  2  0
 19 15  1  0
 20 21  1  0
 20 18  1  0
 22 20  1  0
 22 21  1  0
 23 22  1  0
 24 23  2  0
 25 23  1  0
  1 26  1  0
  5 27  1  0
  8 28  1  0
  9 29  1  0
 12 30  1  0
 16 31  1  0
 20 32  1  6
 21 33  1  0
 21 34  1  0
 22 35  1  1
 25 36  1  0
M  ISO  8  26  14  27  14  28  14  29  14  30   9  31  14  32  13  33  13
M  ISO  3  34  13  35  13  36   3
M  END
>  <minimizedAffinity>  (1) 
-5.61166143

>  <minimizedRMSD>  (1) 
0.889045715

$$$$
