
     RDKit          3D

 39 43  0  0  1  0  0  0  0  0999 V2000
   45.4270   33.7900   45.9100 C   0  0  0  0  0  0  0  0  0  0  0  0
   45.8410   33.7580   44.5610 C   0  0  0  0  0  0  0  0  0  0  0  0
   46.8620   32.9200   44.1970 C   0  0  0  0  0  0  0  0  0  0  0  0
   47.4420   32.1460   45.1470 N   0  0  0  0  0  0  0  0  0  0  0  0
   47.0390   32.1840   46.4320 C   0  0  0  0  0  0  0  0  0  0  0  0
   46.0360   33.0080   46.7950 N   0  0  0  0  0  0  0  0  0  0  0  0
   47.2600   32.9060   42.8310 N   0  0  0  0  0  0  0  0  0  0  0  0
   48.2390   33.8130   42.5660 C   0  0  0  0  0  0  0  0  0  0  0  0
   48.7220   33.9050   41.2650 C   0  0  0  0  0  0  0  0  0  0  0  0
   48.2370   33.1110   40.2650 C   0  0  0  0  0  0  0  0  0  0  0  0
   48.6830   33.2010   39.0840 O   0  0  0  0  0  0  0  0  0  0  0  0
   47.2540   32.2180   40.5860 N   0  0  0  0  0  0  0  0  0  0  0  0
   46.7820   32.1230   41.8410 C   0  0  0  0  0  0  0  0  0  0  0  0
   45.8820   31.3200   42.1890 O   0  0  0  0  0  0  0  0  0  0  0  0
   45.1510   34.6180   43.6700 N   0  0  0  0  0  0  0  0  0  0  0  0
   45.3750   35.9570   43.3780 C   0  0  0  0  0  0  0  0  0  0  0  0
   44.4710   36.3680   42.4710 N   0  0  0  0  0  0  0  0  0  0  0  0
   43.6870   35.2850   42.2010 C   0  0  0  0  0  0  0  0  0  0  0  0
   44.1130   34.2600   42.9270 N   0  0  0  0  0  0  0  0  0  0  0  0
   42.5340   35.2150   41.2670 C   0  0  1  0  0  0  0  0  0  0  0  0
   42.8940   34.9780   39.7920 C   0  0  0  0  0  0  0  0  0  0  0  0
   42.0770   33.9920   40.6340 C   0  0  2  0  0  0  0  0  0  0  0  0
   40.6360   33.9440   40.3470 N   0  0  0  0  0  0  0  0  0  0  0  0
   40.0260   34.7740   39.4810 C   0  0  0  0  0  0  0  0  0  0  0  0
   38.7060   34.4860   39.4330 N   0  0  0  0  0  0  0  0  0  0  0  0
   38.5060   33.4630   40.2820 C   0  0  0  0  0  0  0  0  0  0  0  0
   39.6970   33.1610   40.8170 N   0  0  0  0  0  0  0  0  0  0  0  0
   44.6093   34.4549   46.2252 H   0  0  0  0  0  0  0  0  0  0  0  0
   47.5269   31.5447   47.1825 H   0  0  0  0  0  0  0  0  0  0  0  0
   48.6390   34.4583   43.3620 H   0  0  0  0  0  0  0  0  0  0  0  0
   49.5131   34.6342   41.0360 H   0  0  0  0  0  0  0  0  0  0  0  0
   46.8675   31.6064   39.8529 H   0  0  0  0  0  0  0  0  0  0  0  0
   46.1659   36.5820   43.8184 H   0  0  0  0  0  0  0  0  0  0  0  0
   41.9896   35.9586   41.8676 H   0  0  0  0  0  0  0  0  0  0  0  0
   43.9276   34.7414   39.4992 H   0  0  0  0  0  0  0  0  0  0  0  0
   42.7623   35.5163   38.8418 H   0  0  0  0  0  0  0  0  0  0  0  0
   42.1744   32.9202   40.8614 H   0  0  0  0  0  0  0  0  0  0  0  0
   40.5246   35.5649   38.9015 H   0  0  0  0  0  0  0  0  0  0  0  0
   37.5474   32.9681   40.4966 H   0  0  0  0  0  0  0  0  0  0  0  0
  1  6  2  0
  2  1  1  0
  3  2  2  0
  3  4  1  0
  4  5  2  0
  5  6  1  0
  7  3  1  0
  8  7  1  0
  9  8  2  0
 10 12  1  0
 10  9  1  0
 11 10  2  0
 12 13  1  0
 13 14  2  0
 13  7  1  0
 15  2  1  0
 16 15  1  0
 17 16  2  0
 18 17  1  0
 18 19  2  0
 19 15  1  0
 20 18  1  0
 21 22  1  0
 21 20  1  0
 22 20  1  0
 23 22  1  0
 23 27  1  0
 24 23  1  0
 25 24  2  0
 25 26  1  0
 26 27  2  0
  1 28  1  0
  5 29  1  0
  8 30  1  0
  9 31  1  0
 12 32  1  0
 16 33  1  0
 20 34  1  6
 21 35  1  0
 21 36  1  0
 22 37  1  1
 24 38  1  0
 26 39  1  0
M  ISO  8  28  14  29  14  30  14  31  14  32   9  33  14  34  13  35  13
M  ISO  4  36  13  37  13  38  14  39  14
M  END
>  <minimizedAffinity>  (1) 
-5.60489988

>  <minimizedRMSD>  (1) 
1.78407884

$$$$
