
     RDKit          3D

 35 38  0  0  0  0  0  0  0  0999 V2000
   46.7210   34.7330   42.1270 C   0  0  0  0  0  0  0  0  0  0  0  0
   47.9540   35.2820   41.9030 C   0  0  0  0  0  0  0  0  0  0  0  0
   48.6610   35.1550   40.7270 C   0  0  0  0  0  0  0  0  0  0  0  0
   48.0940   34.4370   39.7260 N   0  0  0  0  0  0  0  0  0  0  0  0
   46.8920   33.8960   39.9270 C   0  0  0  0  0  0  0  0  0  0  0  0
   46.2080   34.0230   41.0740 N   0  0  0  0  0  0  0  0  0  0  0  0
   46.3560   33.1580   38.8430 N   0  0  0  0  0  0  0  0  0  0  0  0
   45.4110   32.2200   38.7370 N   0  0  0  0  0  0  0  0  0  0  0  0
   45.2900   31.8380   37.4500 C   0  0  0  0  0  0  0  0  0  0  0  0
   46.2050   32.5750   36.7190 C   0  0  0  0  0  0  0  0  0  0  0  0
   46.8550   33.3900   37.6130 C   0  0  0  0  0  0  0  0  0  0  0  0
   44.4300   35.8860   44.8830 C   0  0  0  0  0  0  0  0  0  0  0  0
   45.0630   35.8630   43.6290 C   0  0  0  0  0  0  0  0  0  0  0  0
   45.9880   34.8790   43.3780 C   0  0  0  0  0  0  0  0  0  0  0  0
   46.2500   33.9710   44.3530 N   0  0  0  0  0  0  0  0  0  0  0  0
   45.6480   33.9940   45.5390 C   0  0  0  0  0  0  0  0  0  0  0  0
   44.7330   34.9430   45.8300 N   0  0  0  0  0  0  0  0  0  0  0  0
   45.9740   32.9890   46.5440 C   0  0  0  0  0  0  0  0  0  0  0  0
   45.2070   32.8760   47.6860 C   0  0  0  0  0  0  0  0  0  0  0  0
   45.4420   31.9660   48.6730 C   0  0  0  0  0  0  0  0  0  0  0  0
   46.4950   31.1090   48.5380 C   0  0  0  0  0  0  0  0  0  0  0  0
   47.2810   31.2020   47.3980 C   0  0  0  0  0  0  0  0  0  0  0  0
   47.0400   32.1290   46.3930 C   0  0  0  0  0  0  0  0  0  0  0  0
   48.4118   35.8640   42.7164 H   0  0  0  0  0  0  0  0  0  0  0  0
   49.6505   35.6197   40.6045 H   0  0  0  0  0  0  0  0  0  0  0  0
   44.5947   31.0826   37.0551 H   0  0  0  0  0  0  0  0  0  0  0  0
   46.3779   32.5190   35.6341 H   0  0  0  0  0  0  0  0  0  0  0  0
   47.6489   34.1105   37.3666 H   0  0  0  0  0  0  0  0  0  0  0  0
   43.6867   36.6656   45.1060 H   0  0  0  0  0  0  0  0  0  0  0  0
   44.8231   36.6167   42.8646 H   0  0  0  0  0  0  0  0  0  0  0  0
   44.3551   33.5614   47.8067 H   0  0  0  0  0  0  0  0  0  0  0  0
   44.7950   31.9233   49.5616 H   0  0  0  0  0  0  0  0  0  0  0  0
   46.7158   30.3618   49.3145 H   0  0  0  0  0  0  0  0  0  0  0  0
   48.1306   30.5123   47.2860 H   0  0  0  0  0  0  0  0  0  0  0  0
   47.6821   32.1757   45.5011 H   0  0  0  0  0  0  0  0  0  0  0  0
  1 14  1  0
  2  1  2  0
  3  2  1  0
  4  5  1  0
  4  3  2  0
  5  6  2  0
  6  1  1  0
  7  5  1  0
  8  7  1  0
  9  8  2  0
 10  9  1  0
 10 11  2  0
 11  7  1  0
 12 17  2  0
 13 12  1  0
 14 13  2  0
 14 15  1  0
 15 16  2  0
 16 17  1  0
 16 18  1  0
 18 19  2  0
 19 20  1  0
 21 20  2  0
 22 21  1  0
 23 18  1  0
 23 22  2  0
  2 24  1  0
  3 25  1  0
  9 26  1  0
 10 27  1  0
 11 28  1  0
 12 29  1  0
 13 30  1  0
 19 31  1  0
 20 32  1  0
 21 33  1  0
 22 34  1  0
 23 35  1  0
M  ISO  8  24  14  25  14  26  14  27  14  28  14  29  14  30  14  31  14
M  ISO  4  32  14  33  14  34  14  35  14
M  END
>  <minimizedAffinity>  (1) 
-6.89869642

>  <minimizedRMSD>  (1) 
0.40914169

$$$$
