
     RDKit          3D

 32 35  0  0  0  0  0  0  0  0999 V2000
   46.6890   34.8130   42.0790 C   0  0  0  0  0  0  0  0  0  0  0  0
   47.9510   35.2880   41.8810 C   0  0  0  0  0  0  0  0  0  0  0  0
   48.6850   35.0930   40.7310 C   0  0  0  0  0  0  0  0  0  0  0  0
   48.1070   34.3800   39.7330 N   0  0  0  0  0  0  0  0  0  0  0  0
   46.8730   33.9070   39.9120 C   0  0  0  0  0  0  0  0  0  0  0  0
   46.1610   34.0980   41.0310 N   0  0  0  0  0  0  0  0  0  0  0  0
   46.3300   33.1690   38.8310 N   0  0  0  0  0  0  0  0  0  0  0  0
   45.3380   32.2810   38.7210 N   0  0  0  0  0  0  0  0  0  0  0  0
   45.2300   31.8670   37.4470 C   0  0  0  0  0  0  0  0  0  0  0  0
   46.2020   32.5300   36.7200 C   0  0  0  0  0  0  0  0  0  0  0  0
   46.8760   33.3380   37.6120 C   0  0  0  0  0  0  0  0  0  0  0  0
   44.3750   36.1750   44.7390 C   0  0  0  0  0  0  0  0  0  0  0  0
   45.0550   36.0760   43.5090 C   0  0  0  0  0  0  0  0  0  0  0  0
   45.9260   35.0290   43.3050 C   0  0  0  0  0  0  0  0  0  0  0  0
   46.0910   34.1370   44.3040 N   0  0  0  0  0  0  0  0  0  0  0  0
   45.4540   34.2210   45.4690 C   0  0  0  0  0  0  0  0  0  0  0  0
   44.5910   35.2310   45.7100 N   0  0  0  0  0  0  0  0  0  0  0  0
   45.6900   33.2130   46.4980 C   0  0  0  0  0  0  0  0  0  0  0  0
   46.5850   32.1820   46.5180 C   0  0  0  0  0  0  0  0  0  0  0  0
   46.4300   31.5100   47.6940 N   0  0  0  0  0  0  0  0  0  0  0  0
   45.4420   32.1070   48.4210 C   0  0  0  0  0  0  0  0  0  0  0  0
   45.0280   33.1210   47.6670 N   0  0  0  0  0  0  0  0  0  0  0  0
   48.4150   35.8659   42.6938 H   0  0  0  0  0  0  0  0  0  0  0  0
   49.7014   35.5004   40.6267 H   0  0  0  0  0  0  0  0  0  0  0  0
   44.5050   31.1380   37.0560 H   0  0  0  0  0  0  0  0  0  0  0  0
   46.3989   32.4322   35.6422 H   0  0  0  0  0  0  0  0  0  0  0  0
   47.7156   34.0059   37.3690 H   0  0  0  0  0  0  0  0  0  0  0  0
   43.6752   37.0043   44.9193 H   0  0  0  0  0  0  0  0  0  0  0  0
   44.8921   36.8261   42.7210 H   0  0  0  0  0  0  0  0  0  0  0  0
   47.3054   31.9365   45.7238 H   0  0  0  0  0  0  0  0  0  0  0  0
   45.0694   31.8138   49.4136 H   0  0  0  0  0  0  0  0  0  0  0  0
   44.2784   33.7691   47.9481 H   0  0  0  0  0  0  0  0  0  0  0  0
  1 14  1  0
  2  1  2  0
  3  2  1  0
  4  5  1  0
  4  3  2  0
  5  6  2  0
  6  1  1  0
  7  5  1  0
  8  7  1  0
  9  8  2  0
 10  9  1  0
 10 11  2  0
 11  7  1  0
 12 17  2  0
 13 12  1  0
 14 13  2  0
 14 15  1  0
 15 16  2  0
 16 17  1  0
 16 18  1  0
 18 19  2  0
 18 22  1  0
 19 20  1  0
 20 21  2  0
 22 21  1  0
  2 23  1  0
  3 24  1  0
  9 25  1  0
 10 26  1  0
 11 27  1  0
 12 28  1  0
 13 29  1  0
 19 30  1  0
 21 31  1  0
 22 32  1  0
M  ISO  8  23  14  24  14  25  14  26  14  27  14  28  14  29  14  30  14
M  ISO  2  31  14  32   9
M  END
>  <minimizedAffinity>  (1) 
-6.71458483

>  <minimizedRMSD>  (1) 
0.363545746

$$$$
