
     RDKit          3D

 41 44  0  0  0  0  0  0  0  0999 V2000
   46.8100   34.6940   42.0380 C   0  0  0  0  0  0  0  0  0  0  0  0
   48.0140   35.3260   41.8080 C   0  0  0  0  0  0  0  0  0  0  0  0
   48.7070   35.2640   40.6190 C   0  0  0  0  0  0  0  0  0  0  0  0
   48.1620   34.5350   39.6250 N   0  0  0  0  0  0  0  0  0  0  0  0
   47.0020   33.9160   39.8230 C   0  0  0  0  0  0  0  0  0  0  0  0
   46.3250   33.9770   40.9860 N   0  0  0  0  0  0  0  0  0  0  0  0
   46.4720   33.1590   38.7380 N   0  0  0  0  0  0  0  0  0  0  0  0
   45.5820   32.1830   38.6300 N   0  0  0  0  0  0  0  0  0  0  0  0
   45.4540   31.8250   37.3400 C   0  0  0  0  0  0  0  0  0  0  0  0
   46.3240   32.6360   36.5980 C   0  0  0  0  0  0  0  0  0  0  0  0
   46.9380   33.4540   37.5070 C   0  0  0  0  0  0  0  0  0  0  0  0
   44.5420   35.6860   44.8770 C   0  0  0  0  0  0  0  0  0  0  0  0
   45.1510   35.7200   43.6120 C   0  0  0  0  0  0  0  0  0  0  0  0
   46.1020   34.7770   43.3060 C   0  0  0  0  0  0  0  0  0  0  0  0
   46.3990   33.8650   44.2500 N   0  0  0  0  0  0  0  0  0  0  0  0
   45.8220   33.8300   45.4540 C   0  0  0  0  0  0  0  0  0  0  0  0
   44.8950   34.7300   45.7840 N   0  0  0  0  0  0  0  0  0  0  0  0
   46.1820   32.8010   46.4670 C   0  0  0  0  0  0  0  0  0  0  0  0
   46.1550   31.4000   45.8940 C   0  0  0  0  0  0  0  0  0  0  0  0
   46.5510   30.4710   47.0220 C   0  0  0  0  0  0  0  0  0  0  0  0
   45.3760   30.4710   48.0010 C   0  0  0  0  0  0  0  0  0  0  0  0
   45.3330   31.8400   48.6350 C   0  0  0  0  0  0  0  0  0  0  0  0
   45.2130   32.9100   47.6040 C   0  0  0  0  0  0  0  0  0  0  0  0
   48.4491   35.9178   42.6268 H   0  0  0  0  0  0  0  0  0  0  0  0
   49.6652   35.7877   40.4864 H   0  0  0  0  0  0  0  0  0  0  0  0
   44.7911   31.0427   36.9418 H   0  0  0  0  0  0  0  0  0  0  0  0
   46.4808   32.6184   35.5094 H   0  0  0  0  0  0  0  0  0  0  0  0
   47.6874   34.2244   37.2727 H   0  0  0  0  0  0  0  0  0  0  0  0
   43.7776   36.4329   45.1375 H   0  0  0  0  0  0  0  0  0  0  0  0
   44.8709   36.4896   42.8777 H   0  0  0  0  0  0  0  0  0  0  0  0
   47.2117   32.9841   46.8079 H   0  0  0  0  0  0  0  0  0  0  0  0
   45.1444   31.1546   45.5357 H   0  0  0  0  0  0  0  0  0  0  0  0
   46.8403   31.3049   45.0389 H   0  0  0  0  0  0  0  0  0  0  0  0
   46.7275   29.4559   46.6369 H   0  0  0  0  0  0  0  0  0  0  0  0
   47.4805   30.8016   47.5085 H   0  0  0  0  0  0  0  0  0  0  0  0
   44.4365   30.2731   47.4642 H   0  0  0  0  0  0  0  0  0  0  0  0
   45.4991   29.6878   48.7636 H   0  0  0  0  0  0  0  0  0  0  0  0
   44.4670   31.8949   49.3111 H   0  0  0  0  0  0  0  0  0  0  0  0
   46.2699   31.9956   49.1899 H   0  0  0  0  0  0  0  0  0  0  0  0
   45.3730   33.8799   48.0977 H   0  0  0  0  0  0  0  0  0  0  0  0
   44.2096   32.8052   47.1656 H   0  0  0  0  0  0  0  0  0  0  0  0
  1 14  1  0
  2  1  2  0
  3  2  1  0
  4  5  1  0
  4  3  2  0
  5  6  2  0
  6  1  1  0
  7  5  1  0
  8  7  1  0
  9  8  2  0
 10  9  1  0
 10 11  2  0
 11  7  1  0
 12 17  2  0
 13 12  1  0
 14 13  2  0
 14 15  1  0
 15 16  2  0
 16 17  1  0
 16 18  1  0
 18 23  1  0
 19 18  1  0
 19 20  1  0
 20 21  1  0
 21 22  1  0
 23 22  1  0
  2 24  1  0
  3 25  1  0
  9 26  1  0
 10 27  1  0
 11 28  1  0
 12 29  1  0
 13 30  1  0
 18 31  1  0
 19 32  1  0
 19 33  1  0
 20 34  1  0
 20 35  1  0
 21 36  1  0
 21 37  1  0
 22 38  1  0
 22 39  1  0
 23 40  1  0
 23 41  1  0
M  ISO  8  24  14  25  14  26  14  27  14  28  14  29  14  30  14  31  13
M  ISO  8  32  13  33  13  34  13  35  13  36  13  37  13  38  13  39  13
M  ISO  2  40  13  41  13
M  END
>  <minimizedAffinity>  (1) 
-6.82140589

>  <minimizedRMSD>  (1) 
0.467188567

$$$$
