
     RDKit          3D

 33 36  0  0  0  0  0  0  0  0999 V2000
   46.7020   34.7480   42.0400 C   0  0  0  0  0  0  0  0  0  0  0  0
   47.9540   35.2790   41.8260 C   0  0  0  0  0  0  0  0  0  0  0  0
   48.6640   35.1360   40.6550 C   0  0  0  0  0  0  0  0  0  0  0  0
   48.0870   34.4270   39.6620 N   0  0  0  0  0  0  0  0  0  0  0  0
   46.8740   33.9010   39.8450 C   0  0  0  0  0  0  0  0  0  0  0  0
   46.1860   34.0450   40.9910 N   0  0  0  0  0  0  0  0  0  0  0  0
   46.3230   33.1670   38.7660 N   0  0  0  0  0  0  0  0  0  0  0  0
   45.3670   32.2550   38.6580 N   0  0  0  0  0  0  0  0  0  0  0  0
   45.2450   31.8760   37.3690 C   0  0  0  0  0  0  0  0  0  0  0  0
   46.1860   32.6010   36.6320 C   0  0  0  0  0  0  0  0  0  0  0  0
   46.8360   33.3920   37.5400 C   0  0  0  0  0  0  0  0  0  0  0  0
   44.4300   35.9690   44.7810 C   0  0  0  0  0  0  0  0  0  0  0  0
   45.0660   35.9180   43.5370 C   0  0  0  0  0  0  0  0  0  0  0  0
   45.9720   34.9140   43.2880 C   0  0  0  0  0  0  0  0  0  0  0  0
   46.2000   34.0220   44.2710 N   0  0  0  0  0  0  0  0  0  0  0  0
   45.5910   34.0710   45.4610 C   0  0  0  0  0  0  0  0  0  0  0  0
   44.7050   35.0320   45.7360 N   0  0  0  0  0  0  0  0  0  0  0  0
   45.9170   33.0500   46.4500 C   0  0  0  0  0  0  0  0  0  0  0  0
   46.9740   32.1700   46.2030 C   0  0  0  0  0  0  0  0  0  0  0  0
   47.2360   31.2210   47.1780 C   0  0  0  0  0  0  0  0  0  0  0  0
   46.5030   31.1520   48.3150 N   0  0  0  0  0  0  0  0  0  0  0  0
   45.5000   32.0380   48.4770 C   0  0  0  0  0  0  0  0  0  0  0  0
   45.1690   32.9970   47.5820 N   0  0  0  0  0  0  0  0  0  0  0  0
   48.4163   35.8538   42.6420 H   0  0  0  0  0  0  0  0  0  0  0  0
   49.6622   35.5820   40.5336 H   0  0  0  0  0  0  0  0  0  0  0  0
   44.5366   31.1342   36.9717 H   0  0  0  0  0  0  0  0  0  0  0  0
   46.3663   32.5469   35.5482 H   0  0  0  0  0  0  0  0  0  0  0  0
   47.6468   34.0979   37.3069 H   0  0  0  0  0  0  0  0  0  0  0  0
   43.7041   36.7682   44.9918 H   0  0  0  0  0  0  0  0  0  0  0  0
   44.8444   36.6717   42.7670 H   0  0  0  0  0  0  0  0  0  0  0  0
   47.5690   32.2278   45.2796 H   0  0  0  0  0  0  0  0  0  0  0  0
   48.0586   30.5069   47.0251 H   0  0  0  0  0  0  0  0  0  0  0  0
   44.9087   31.9769   49.4026 H   0  0  0  0  0  0  0  0  0  0  0  0
  1 14  1  0
  2  1  2  0
  3  2  1  0
  4  5  1  0
  4  3  2  0
  5  6  2  0
  6  1  1  0
  7  5  1  0
  8  7  1  0
  9  8  2  0
 10  9  1  0
 10 11  2  0
 11  7  1  0
 12 17  2  0
 13 12  1  0
 14 13  2  0
 14 15  1  0
 15 16  2  0
 16 17  1  0
 16 18  1  0
 18 23  1  0
 19 18  2  0
 19 20  1  0
 20 21  2  0
 21 22  1  0
 23 22  2  0
  2 24  1  0
  3 25  1  0
  9 26  1  0
 10 27  1  0
 11 28  1  0
 12 29  1  0
 13 30  1  0
 19 31  1  0
 20 32  1  0
 22 33  1  0
M  ISO  8  24  14  25  14  26  14  27  14  28  14  29  14  30  14  31  14
M  ISO  2  32  14  33  14
M  END
>  <minimizedAffinity>  (1) 
-6.66565609

>  <minimizedRMSD>  (1) 
0.143473819

$$$$
