
     RDKit          3D

 38 41  0  0  0  0  0  0  0  0999 V2000
   46.7120   34.7670   42.0240 C   0  0  0  0  0  0  0  0  0  0  0  0
   47.9590   35.2780   41.7990 C   0  0  0  0  0  0  0  0  0  0  0  0
   48.6750   35.1320   40.6350 C   0  0  0  0  0  0  0  0  0  0  0  0
   48.0910   34.4260   39.6430 N   0  0  0  0  0  0  0  0  0  0  0  0
   46.8740   33.9130   39.8310 C   0  0  0  0  0  0  0  0  0  0  0  0
   46.1890   34.0620   40.9680 N   0  0  0  0  0  0  0  0  0  0  0  0
   46.3270   33.1820   38.7390 N   0  0  0  0  0  0  0  0  0  0  0  0
   45.3630   32.2790   38.6170 N   0  0  0  0  0  0  0  0  0  0  0  0
   45.2390   31.8940   37.3450 C   0  0  0  0  0  0  0  0  0  0  0  0
   46.1890   32.6020   36.6090 C   0  0  0  0  0  0  0  0  0  0  0  0
   46.8520   33.3970   37.5080 C   0  0  0  0  0  0  0  0  0  0  0  0
   44.4980   36.0410   44.7980 C   0  0  0  0  0  0  0  0  0  0  0  0
   45.1590   36.0020   43.5600 C   0  0  0  0  0  0  0  0  0  0  0  0
   45.9710   34.9340   43.2660 C   0  0  0  0  0  0  0  0  0  0  0  0
   46.0850   33.9760   44.1920 N   0  0  0  0  0  0  0  0  0  0  0  0
   45.4630   34.0010   45.3710 C   0  0  0  0  0  0  0  0  0  0  0  0
   44.6690   35.0190   45.6920 N   0  0  0  0  0  0  0  0  0  0  0  0
   45.6340   32.9430   46.3090 N   0  0  0  0  0  0  0  0  0  0  0  0
   46.2120   31.6700   45.9170 C   0  0  0  0  0  0  0  0  0  0  0  0
   47.4310   31.3920   46.7960 C   0  0  0  0  0  0  0  0  0  0  0  0
   47.4440   32.2660   47.8960 O   0  0  0  0  0  0  0  0  0  0  0  0
   46.2060   32.2230   48.5130 C   0  0  0  0  0  0  0  0  0  0  0  0
   45.2490   33.0610   47.7040 C   0  0  0  0  0  0  0  0  0  0  0  0
   48.4265   35.8511   42.6132 H   0  0  0  0  0  0  0  0  0  0  0  0
   49.6772   35.5699   40.5169 H   0  0  0  0  0  0  0  0  0  0  0  0
   44.5229   31.1575   36.9515 H   0  0  0  0  0  0  0  0  0  0  0  0
   46.3698   32.5359   35.5260 H   0  0  0  0  0  0  0  0  0  0  0  0
   47.6712   34.0916   37.2705 H   0  0  0  0  0  0  0  0  0  0  0  0
   43.8450   36.8900   45.0485 H   0  0  0  0  0  0  0  0  0  0  0  0
   45.0280   36.8176   42.8336 H   0  0  0  0  0  0  0  0  0  0  0  0
   45.4693   30.8697   46.0508 H   0  0  0  0  0  0  0  0  0  0  0  0
   46.5135   31.7058   44.8597 H   0  0  0  0  0  0  0  0  0  0  0  0
   47.3897   30.3538   47.1570 H   0  0  0  0  0  0  0  0  0  0  0  0
   48.3445   31.5468   46.2031 H   0  0  0  0  0  0  0  0  0  0  0  0
   45.8470   31.1841   48.5560 H   0  0  0  0  0  0  0  0  0  0  0  0
   46.2785   32.6119   49.5394 H   0  0  0  0  0  0  0  0  0  0  0  0
   45.3095   34.1122   48.0223 H   0  0  0  0  0  0  0  0  0  0  0  0
   44.2147   32.7161   47.8500 H   0  0  0  0  0  0  0  0  0  0  0  0
  1 14  1  0
  2  1  2  0
  3  2  1  0
  4  5  1  0
  4  3  2  0
  5  6  2  0
  6  1  1  0
  7  5  1  0
  8  7  1  0
  9  8  2  0
 10  9  1  0
 10 11  2  0
 11  7  1  0
 12 17  2  0
 13 12  1  0
 14 13  2  0
 14 15  1  0
 15 16  2  0
 16 17  1  0
 16 18  1  0
 18 23  1  0
 19 18  1  0
 19 20  1  0
 20 21  1  0
 21 22  1  0
 23 22  1  0
  2 24  1  0
  3 25  1  0
  9 26  1  0
 10 27  1  0
 11 28  1  0
 12 29  1  0
 13 30  1  0
 19 31  1  0
 19 32  1  0
 20 33  1  0
 20 34  1  0
 22 35  1  0
 22 36  1  0
 23 37  1  0
 23 38  1  0
M  ISO  8  24  14  25  14  26  14  27  14  28  14  29  14  30  14  31  13
M  ISO  7  32  13  33  13  34  13  35  13  36  13  37  13  38  13
M  END
>  <minimizedAffinity>  (1) 
-6.79389477

>  <minimizedRMSD>  (1) 
0.141321853

$$$$
