
     RDKit          3D

 31 34  0  0  0  0  0  0  0  0999 V2000
   46.7750   34.7210   42.1020 C   0  0  0  0  0  0  0  0  0  0  0  0
   47.9830   35.3030   41.8790 C   0  0  0  0  0  0  0  0  0  0  0  0
   48.6890   35.2100   40.7000 C   0  0  0  0  0  0  0  0  0  0  0  0
   48.1360   34.4880   39.7030 N   0  0  0  0  0  0  0  0  0  0  0  0
   46.9580   33.9110   39.8960 C   0  0  0  0  0  0  0  0  0  0  0  0
   46.2590   33.9970   41.0510 N   0  0  0  0  0  0  0  0  0  0  0  0
   46.4200   33.1640   38.8110 N   0  0  0  0  0  0  0  0  0  0  0  0
   45.4950   32.2210   38.6910 N   0  0  0  0  0  0  0  0  0  0  0  0
   45.3790   31.8540   37.4030 C   0  0  0  0  0  0  0  0  0  0  0  0
   46.2800   32.6090   36.6730 C   0  0  0  0  0  0  0  0  0  0  0  0
   46.9240   33.4240   37.5720 C   0  0  0  0  0  0  0  0  0  0  0  0
   44.4500   35.7580   44.8910 C   0  0  0  0  0  0  0  0  0  0  0  0
   45.0770   35.7520   43.6480 C   0  0  0  0  0  0  0  0  0  0  0  0
   46.0500   34.8300   43.3550 C   0  0  0  0  0  0  0  0  0  0  0  0
   46.3580   33.9420   44.3300 N   0  0  0  0  0  0  0  0  0  0  0  0
   45.7570   33.9410   45.5310 C   0  0  0  0  0  0  0  0  0  0  0  0
   44.8110   34.8320   45.8250 N   0  0  0  0  0  0  0  0  0  0  0  0
   46.1890   32.9250   46.4870 C   0  0  0  0  0  0  0  0  0  0  0  0
   45.2290   32.9300   47.5890 C   0  0  0  0  0  0  0  0  0  0  0  0
   45.8550   31.6010   48.7710 S   0  0  0  0  0  0  0  0  0  0  0  0
   47.2880   31.2900   47.5590 C   0  0  0  0  0  0  0  0  0  0  0  0
   47.1100   32.0180   46.7240 N   0  0  0  0  0  0  0  0  0  0  0  0
   48.4276   35.8889   42.6969 H   0  0  0  0  0  0  0  0  0  0  0  0
   49.6639   35.7041   40.5761 H   0  0  0  0  0  0  0  0  0  0  0  0
   44.6933   31.0928   37.0026 H   0  0  0  0  0  0  0  0  0  0  0  0
   46.4476   32.5652   35.5867 H   0  0  0  0  0  0  0  0  0  0  0  0
   47.7084   34.1574   37.3336 H   0  0  0  0  0  0  0  0  0  0  0  0
   43.6717   36.5017   45.1174 H   0  0  0  0  0  0  0  0  0  0  0  0
   44.7886   36.4961   42.8909 H   0  0  0  0  0  0  0  0  0  0  0  0
   44.3396   33.5671   47.7034 H   0  0  0  0  0  0  0  0  0  0  0  0
   48.1062   30.5611   47.6551 H   0  0  0  0  0  0  0  0  0  0  0  0
  1 14  1  0
  2  1  2  0
  3  2  1  0
  4  5  1  0
  4  3  2  0
  5  6  2  0
  6  1  1  0
  7  5  1  0
  8  7  1  0
  9  8  2  0
 10  9  1  0
 10 11  2  0
 11  7  1  0
 12 17  2  0
 13 12  1  0
 14 13  2  0
 14 15  1  0
 15 16  2  0
 16 17  1  0
 16 18  1  0
 18 22  1  0
 18 19  2  0
 19 20  1  0
 21 20  1  0
 22 21  2  0
  2 23  1  0
  3 24  1  0
  9 25  1  0
 10 26  1  0
 11 27  1  0
 12 28  1  0
 13 29  1  0
 19 30  1  0
 21 31  1  0
M  ISO  8  23  14  24  14  25  14  26  14  27  14  28  14  29  14  30  14
M  ISO  1  31  14
M  END
>  <minimizedAffinity>  (1) 
-6.30778933

>  <minimizedRMSD>  (1) 
0.28664881

$$$$
