
     RDKit          3D

 36 38  0  0  0  0  0  0  0  0999 V2000
   46.1870   34.7590   42.6740 C   0  0  0  0  0  0  0  0  0  0  0  0
   45.3110   34.4680   44.9930 C   0  0  0  0  0  0  0  0  0  0  0  0
   46.2460   34.0530   43.9940 C   0  0  0  0  0  0  0  0  0  0  0  0
   47.1160   33.0360   44.3330 C   0  0  0  0  0  0  0  0  0  0  0  0
   47.0500   32.4880   45.5670 N   0  0  0  0  0  0  0  0  0  0  0  0
   46.1410   32.9120   46.4960 C   0  0  0  0  0  0  0  0  0  0  0  0
   45.2860   33.8900   46.2040 N   0  0  0  0  0  0  0  0  0  0  0  0
   47.5120   35.4150   42.4250 C   0  0  0  0  0  0  0  0  0  0  0  0
   45.1090   35.8320   42.7680 C   0  0  0  0  0  0  0  0  0  0  0  0
   45.7590   33.7950   41.6230 C   0  0  0  0  0  0  0  0  0  0  0  0
   46.5980   33.7570   40.4120 C   0  0  0  0  0  0  0  0  0  0  0  0
   47.9450   34.1230   40.3260 C   0  0  0  0  0  0  0  0  0  0  0  0
   48.4350   34.0060   39.0700 N   0  0  0  0  0  0  0  0  0  0  0  0
   47.4270   33.5600   38.2980 C   0  0  0  0  0  0  0  0  0  0  0  0
   47.3460   33.2490   36.9330 C   0  0  0  0  0  0  0  0  0  0  0  0
   46.1610   32.7880   36.3760 C   0  0  0  0  0  0  0  0  0  0  0  0
   45.0490   32.6380   37.2020 C   0  0  0  0  0  0  0  0  0  0  0  0
   45.1370   32.9460   38.5400 C   0  0  0  0  0  0  0  0  0  0  0  0
   46.3080   33.4040   39.0960 C   0  0  0  0  0  0  0  0  0  0  0  0
   44.5995   35.2753   44.7649 H   0  0  0  0  0  0  0  0  0  0  0  0
   47.8570   32.6745   43.6048 H   0  0  0  0  0  0  0  0  0  0  0  0
   46.1158   32.4425   47.4904 H   0  0  0  0  0  0  0  0  0  0  0  0
   47.9904   35.6518   43.3868 H   0  0  0  0  0  0  0  0  0  0  0  0
   48.1574   34.7323   41.8528 H   0  0  0  0  0  0  0  0  0  0  0  0
   47.3604   36.3421   41.8528 H   0  0  0  0  0  0  0  0  0  0  0  0
   44.8950   36.0450   43.8257 H   0  0  0  0  0  0  0  0  0  0  0  0
   45.4606   36.7493   42.2731 H   0  0  0  0  0  0  0  0  0  0  0  0
   44.1933   35.4762   42.2731 H   0  0  0  0  0  0  0  0  0  0  0  0
   45.7600   32.7885   42.0668 H   0  0  0  0  0  0  0  0  0  0  0  0
   44.7669   34.1344   41.2904 H   0  0  0  0  0  0  0  0  0  0  0  0
   48.5403   34.4678   41.1843 H   0  0  0  0  0  0  0  0  0  0  0  0
   49.3953   34.2177   38.7637 H   0  0  0  0  0  0  0  0  0  0  0  0
   48.2336   33.3720   36.2950 H   0  0  0  0  0  0  0  0  0  0  0  0
   46.1011   32.5461   35.3046 H   0  0  0  0  0  0  0  0  0  0  0  0
   44.0994   32.2728   36.7838 H   0  0  0  0  0  0  0  0  0  0  0  0
   44.2504   32.8230   39.1794 H   0  0  0  0  0  0  0  0  0  0  0  0
  1  9  1  0
  1  3  1  0
  2  7  2  0
  3  4  2  0
  3  2  1  0
  4  5  1  0
  5  6  2  0
  7  6  1  0
  8  1  1  0
 10  1  1  0
 11 10  1  0
 12 11  2  0
 13 12  1  0
 14 13  1  0
 14 19  2  0
 15 14  1  0
 16 15  2  0
 16 17  1  0
 17 18  2  0
 18 19  1  0
 19 11  1  0
  2 20  1  0
  4 21  1  0
  6 22  1  0
  8 23  1  0
  8 24  1  0
  8 25  1  0
  9 26  1  0
  9 27  1  0
  9 28  1  0
 10 29  1  0
 10 30  1  0
 12 31  1  0
 13 32  1  0
 15 33  1  0
 16 34  1  0
 17 35  1  0
 18 36  1  0
M  ISO  8  20  14  21  14  22  14  23   8  24   8  25   8  26   8  27   8
M  ISO  8  28   8  29   8  30   8  31  14  32   9  33  14  34  14  35  14
M  ISO  1  36  14
M  END
>  <minimizedAffinity>  (1) 
-4.84756899

>  <minimizedRMSD>  (1) 
2.48959637

$$$$
