
     RDKit          3D

 33 36  0  0  0  0  0  0  0  0999 V2000
   46.7140   34.7450   42.0150 C   0  0  0  0  0  0  0  0  0  0  0  0
   47.9630   35.2830   41.7940 C   0  0  0  0  0  0  0  0  0  0  0  0
   48.6750   35.1440   40.6220 C   0  0  0  0  0  0  0  0  0  0  0  0
   48.0960   34.4300   39.6330 N   0  0  0  0  0  0  0  0  0  0  0  0
   46.9050   33.9070   39.8170 C   0  0  0  0  0  0  0  0  0  0  0  0
   46.2150   34.0470   40.9660 N   0  0  0  0  0  0  0  0  0  0  0  0
   46.3300   33.1620   38.7490 N   0  0  0  0  0  0  0  0  0  0  0  0
   45.3790   32.2460   38.6330 N   0  0  0  0  0  0  0  0  0  0  0  0
   45.2400   31.8720   37.3640 C   0  0  0  0  0  0  0  0  0  0  0  0
   46.1710   32.6020   36.6070 C   0  0  0  0  0  0  0  0  0  0  0  0
   46.8340   33.3960   37.5040 C   0  0  0  0  0  0  0  0  0  0  0  0
   44.4430   35.9480   44.7750 C   0  0  0  0  0  0  0  0  0  0  0  0
   45.0760   35.9060   43.5270 C   0  0  0  0  0  0  0  0  0  0  0  0
   45.9820   34.9080   43.2670 C   0  0  0  0  0  0  0  0  0  0  0  0
   46.2230   34.0010   44.2440 N   0  0  0  0  0  0  0  0  0  0  0  0
   45.6180   34.0440   45.4300 C   0  0  0  0  0  0  0  0  0  0  0  0
   44.7240   35.0120   45.7130 N   0  0  0  0  0  0  0  0  0  0  0  0
   45.9460   33.0190   46.4150 C   0  0  0  0  0  0  0  0  0  0  0  0
   46.9570   32.0960   46.2290 C   0  0  0  0  0  0  0  0  0  0  0  0
   47.1780   31.1610   47.2460 C   0  0  0  0  0  0  0  0  0  0  0  0
   46.4550   31.1320   48.3690 N   0  0  0  0  0  0  0  0  0  0  0  0
   45.4800   32.0480   48.5120 C   0  0  0  0  0  0  0  0  0  0  0  0
   45.2150   32.9870   47.5560 N   0  0  0  0  0  0  0  0  0  0  0  0
   48.4231   35.8626   42.6079 H   0  0  0  0  0  0  0  0  0  0  0  0
   49.6707   35.5947   40.4979 H   0  0  0  0  0  0  0  0  0  0  0  0
   44.5273   31.1281   36.9785 H   0  0  0  0  0  0  0  0  0  0  0  0
   46.3335   32.5473   35.5205 H   0  0  0  0  0  0  0  0  0  0  0  0
   47.6393   34.1047   37.2607 H   0  0  0  0  0  0  0  0  0  0  0  0
   43.7154   36.7433   44.9945 H   0  0  0  0  0  0  0  0  0  0  0  0
   44.8498   36.6645   42.7631 H   0  0  0  0  0  0  0  0  0  0  0  0
   47.5668   32.0962   45.3135 H   0  0  0  0  0  0  0  0  0  0  0  0
   47.9799   30.4194   47.1156 H   0  0  0  0  0  0  0  0  0  0  0  0
   44.8752   32.0405   49.4308 H   0  0  0  0  0  0  0  0  0  0  0  0
  1 14  1  0
  2  1  2  0
  3  2  1  0
  4  5  1  0
  4  3  2  0
  5  6  2  0
  6  1  1  0
  7  5  1  0
  8  7  1  0
  9  8  2  0
 10  9  1  0
 10 11  2  0
 11  7  1  0
 12 17  2  0
 13 12  1  0
 14 13  2  0
 14 15  1  0
 15 16  2  0
 16 17  1  0
 16 18  1  0
 18 23  1  0
 19 18  2  0
 19 20  1  0
 20 21  2  0
 21 22  1  0
 23 22  2  0
  2 24  1  0
  3 25  1  0
  9 26  1  0
 10 27  1  0
 11 28  1  0
 12 29  1  0
 13 30  1  0
 19 31  1  0
 20 32  1  0
 22 33  1  0
M  ISO  8  24  14  25  14  26  14  27  14  28  14  29  14  30  14  31  14
M  ISO  2  32  14  33  14
M  END
>  <minimizedAffinity>  (1) 
-6.65982246

>  <minimizedRMSD>  (1) 
0.121687338

$$$$
