
     RDKit          3D

 32 35  0  0  0  0  0  0  0  0999 V2000
   46.6960   34.7640   42.0090 C   0  0  0  0  0  0  0  0  0  0  0  0
   47.9580   35.2650   41.7980 C   0  0  0  0  0  0  0  0  0  0  0  0
   48.6780   35.1050   40.6370 C   0  0  0  0  0  0  0  0  0  0  0  0
   48.0950   34.4040   39.6400 N   0  0  0  0  0  0  0  0  0  0  0  0
   46.8710   33.9110   39.8270 C   0  0  0  0  0  0  0  0  0  0  0  0
   46.1650   34.0670   40.9650 N   0  0  0  0  0  0  0  0  0  0  0  0
   46.3050   33.1790   38.7400 N   0  0  0  0  0  0  0  0  0  0  0  0
   45.3280   32.2900   38.6170 N   0  0  0  0  0  0  0  0  0  0  0  0
   45.1990   31.9050   37.3470 C   0  0  0  0  0  0  0  0  0  0  0  0
   46.1510   32.5900   36.6170 C   0  0  0  0  0  0  0  0  0  0  0  0
   46.8390   33.3880   37.5050 C   0  0  0  0  0  0  0  0  0  0  0  0
   44.4160   36.0210   44.7410 C   0  0  0  0  0  0  0  0  0  0  0  0
   45.0600   35.9640   43.4870 C   0  0  0  0  0  0  0  0  0  0  0  0
   45.9570   34.9510   43.2520 C   0  0  0  0  0  0  0  0  0  0  0  0
   46.1810   34.0540   44.2450 N   0  0  0  0  0  0  0  0  0  0  0  0
   45.5710   34.1130   45.4270 C   0  0  0  0  0  0  0  0  0  0  0  0
   44.6870   35.0850   45.6970 N   0  0  0  0  0  0  0  0  0  0  0  0
   45.9030   33.0810   46.4110 C   0  0  0  0  0  0  0  0  0  0  0  0
   46.9560   32.1900   46.2770 C   0  0  0  0  0  0  0  0  0  0  0  0
   46.8740   31.4160   47.4400 C   0  0  0  0  0  0  0  0  0  0  0  0
   45.8330   31.8260   48.2150 N   0  0  0  0  0  0  0  0  0  0  0  0
   45.2460   32.8400   47.5830 N   0  0  0  0  0  0  0  0  0  0  0  0
   48.4254   35.8341   42.6151 H   0  0  0  0  0  0  0  0  0  0  0  0
   49.6864   35.5300   40.5249 H   0  0  0  0  0  0  0  0  0  0  0  0
   44.4718   31.1790   36.9546 H   0  0  0  0  0  0  0  0  0  0  0  0
   46.3263   32.5131   35.5338 H   0  0  0  0  0  0  0  0  0  0  0  0
   47.6677   34.0690   37.2609 H   0  0  0  0  0  0  0  0  0  0  0  0
   43.6925   36.8230   44.9492 H   0  0  0  0  0  0  0  0  0  0  0  0
   44.8478   36.7161   42.7128 H   0  0  0  0  0  0  0  0  0  0  0  0
   47.6818   32.1103   45.4543 H   0  0  0  0  0  0  0  0  0  0  0  0
   47.5561   30.5909   47.6927 H   0  0  0  0  0  0  0  0  0  0  0  0
   45.5518   31.4262   49.1216 H   0  0  0  0  0  0  0  0  0  0  0  0
  1 14  1  0
  2  1  2  0
  3  2  1  0
  4  5  1  0
  4  3  2  0
  5  6  2  0
  6  1  1  0
  7  5  1  0
  8  7  1  0
  9  8  2  0
 10  9  1  0
 10 11  2  0
 11  7  1  0
 12 17  2  0
 13 12  1  0
 14 13  2  0
 14 15  1  0
 15 16  2  0
 16 17  1  0
 16 18  1  0
 18 22  2  0
 19 18  1  0
 19 20  2  0
 20 21  1  0
 22 21  1  0
  2 23  1  0
  3 24  1  0
  9 25  1  0
 10 26  1  0
 11 27  1  0
 12 28  1  0
 13 29  1  0
 19 30  1  0
 20 31  1  0
 21 32  1  0
M  ISO  8  23  14  24  14  25  14  26  14  27  14  28  14  29  14  30  14
M  ISO  2  31  14  32   9
M  END
>  <minimizedAffinity>  (1) 
-6.34704447

>  <minimizedRMSD>  (1) 
0.417682081

$$$$
