
     RDKit          3D

 26 28  0  0  0  0  0  0  0  0999 V2000
   46.7230   34.7580   41.9840 C   0  0  0  0  0  0  0  0  0  0  0  0
   47.9700   35.2880   41.7830 C   0  0  0  0  0  0  0  0  0  0  0  0
   48.6910   35.1490   40.6230 C   0  0  0  0  0  0  0  0  0  0  0  0
   48.1250   34.4390   39.6160 N   0  0  0  0  0  0  0  0  0  0  0  0
   46.9140   33.9150   39.7860 C   0  0  0  0  0  0  0  0  0  0  0  0
   46.2140   34.0540   40.9220 N   0  0  0  0  0  0  0  0  0  0  0  0
   46.3760   33.1850   38.7020 N   0  0  0  0  0  0  0  0  0  0  0  0
   45.4040   32.2850   38.5780 N   0  0  0  0  0  0  0  0  0  0  0  0
   45.3090   31.9010   37.2860 C   0  0  0  0  0  0  0  0  0  0  0  0
   46.2690   32.5960   36.5720 C   0  0  0  0  0  0  0  0  0  0  0  0
   46.9200   33.3920   37.4860 C   0  0  0  0  0  0  0  0  0  0  0  0
   44.4580   35.9850   44.7270 C   0  0  0  0  0  0  0  0  0  0  0  0
   45.1170   35.9540   43.4890 C   0  0  0  0  0  0  0  0  0  0  0  0
   45.9760   34.9160   43.2210 C   0  0  0  0  0  0  0  0  0  0  0  0
   46.1380   33.9740   44.1800 N   0  0  0  0  0  0  0  0  0  0  0  0
   45.5100   34.0060   45.3590 C   0  0  0  0  0  0  0  0  0  0  0  0
   44.6620   35.0120   45.6470 N   0  0  0  0  0  0  0  0  0  0  0  0
   45.6760   33.0400   46.3440 O   0  0  0  0  0  0  0  0  0  0  0  0
   48.4232   35.8623   42.6044 H   0  0  0  0  0  0  0  0  0  0  0  0
   49.6899   35.5966   40.5146 H   0  0  0  0  0  0  0  0  0  0  0  0
   44.5976   31.1688   36.8763 H   0  0  0  0  0  0  0  0  0  0  0  0
   46.4707   32.5263   35.4929 H   0  0  0  0  0  0  0  0  0  0  0  0
   47.7466   34.0823   37.2619 H   0  0  0  0  0  0  0  0  0  0  0  0
   43.7667   36.8101   44.9536 H   0  0  0  0  0  0  0  0  0  0  0  0
   44.9488   36.7472   42.7456 H   0  0  0  0  0  0  0  0  0  0  0  0
   45.1837   33.1158   47.1996 H   0  0  0  0  0  0  0  0  0  0  0  0
  1 14  1  0
  2  1  2  0
  3  2  1  0
  4  5  1  0
  4  3  2  0
  5  6  2  0
  6  1  1  0
  7  5  1  0
  8  7  1  0
  9  8  2  0
 10  9  1  0
 10 11  2  0
 11  7  1  0
 12 17  2  0
 13 12  1  0
 14 13  2  0
 14 15  1  0
 15 16  2  0
 16 17  1  0
 16 18  1  0
  2 19  1  0
  3 20  1  0
  9 21  1  0
 10 22  1  0
 11 23  1  0
 12 24  1  0
 13 25  1  0
 18 26  1  0
M  ISO  8  19  14  20  14  21  14  22  14  23  14  24  14  25  14  26   3
M  END
>  <minimizedAffinity>  (1) 
-5.54795265

>  <minimizedRMSD>  (1) 
0.0445094518

$$$$
