
     RDKit          3D

 34 34  0  0  1  0  0  0  0  0999 V2000
   45.9940   34.8780   42.7820 C   0  0  2  0  0  0  0  0  0  0  0  0
   45.2240   34.4990   45.0980 C   0  0  0  0  0  0  0  0  0  0  0  0
   46.1210   34.1360   44.0540 C   0  0  0  0  0  0  0  0  0  0  0  0
   47.0250   33.1230   44.3320 C   0  0  0  0  0  0  0  0  0  0  0  0
   47.0180   32.5360   45.5500 N   0  0  0  0  0  0  0  0  0  0  0  0
   46.1500   32.9100   46.5160 C   0  0  0  0  0  0  0  0  0  0  0  0
   45.2620   33.8790   46.2950 N   0  0  0  0  0  0  0  0  0  0  0  0
   47.3690   35.2730   42.3010 C   0  0  0  0  0  0  0  0  0  0  0  0
   45.1610   36.1150   43.0020 C   0  0  0  0  0  0  0  0  0  0  0  0
   45.2810   34.0250   41.7620 C   0  0  0  0  0  0  0  0  0  0  0  0
   46.0570   33.8660   40.5040 C   0  0  0  0  0  0  0  0  0  0  0  0
   47.3430   34.4110   40.5700 C   0  0  0  0  0  0  0  0  0  0  0  0
   48.1730   34.3290   39.4620 C   0  0  0  0  0  0  0  0  0  0  0  0
   47.7260   33.7150   38.3050 C   0  0  0  0  0  0  0  0  0  0  0  0
   46.4410   33.1720   38.2410 C   0  0  0  0  0  0  0  0  0  0  0  0
   45.6120   33.2530   39.3500 C   0  0  0  0  0  0  0  0  0  0  0  0
   47.0012   35.1426   42.4276 H   0  0  0  0  0  0  0  0  0  0  0  0
   44.4880   35.2981   44.9256 H   0  0  0  0  0  0  0  0  0  0  0  0
   47.7444   32.7983   43.5658 H   0  0  0  0  0  0  0  0  0  0  0  0
   46.1767   32.4093   47.4951 H   0  0  0  0  0  0  0  0  0  0  0  0
   47.3690   35.2730   43.4010 H   0  0  0  0  0  0  0  0  0  0  0  0
   47.3690   36.3101   41.9343 H   0  0  0  0  0  0  0  0  0  0  0  0
   48.2671   34.7545   41.9343 H   0  0  0  0  0  0  0  0  0  0  0  0
   46.4709   34.7545   41.9343 H   0  0  0  0  0  0  0  0  0  0  0  0
   45.0429   36.2903   44.0815 H   0  0  0  0  0  0  0  0  0  0  0  0
   45.6611   36.9803   42.5425 H   0  0  0  0  0  0  0  0  0  0  0  0
   44.1711   35.9770   42.5425 H   0  0  0  0  0  0  0  0  0  0  0  0
   45.1064   33.0294   42.1960 H   0  0  0  0  0  0  0  0  0  0  0  0
   44.3369   34.5295   41.5085 H   0  0  0  0  0  0  0  0  0  0  0  0
   47.6927   34.8998   41.4913 H   0  0  0  0  0  0  0  0  0  0  0  0
   49.1875   34.7523   39.5028 H   0  0  0  0  0  0  0  0  0  0  0  0
   48.3882   33.6542   37.4288 H   0  0  0  0  0  0  0  0  0  0  0  0
   46.0896   32.6846   37.3196 H   0  0  0  0  0  0  0  0  0  0  0  0
   44.5982   32.8280   39.3099 H   0  0  0  0  0  0  0  0  0  0  0  0
  1 10  1  0
  1  9  1  0
  1  3  1  0
  2  7  2  0
  3  4  2  0
  3  2  1  0
  4  5  1  0
  5  6  2  0
  7  6  1  0
 11 12  2  0
 11 10  1  0
 13 12  1  0
 14 13  2  0
 15 14  1  0
 15 16  2  0
 16 11  1  0
  1 17  1  6
  2 18  1  0
  4 19  1  0
  6 20  1  0
  8 21  1  0
  8 22  1  0
  8 23  1  0
  8 24  1  0
  9 25  1  0
  9 26  1  0
  9 27  1  0
 10 28  1  0
 10 29  1  0
 12 30  1  0
 13 31  1  0
 14 32  1  0
 15 33  1  0
 16 34  1  0
M  ISO  8  17   8  18  14  19  14  20  14  21   8  22   8  23   8  24   8
M  ISO  8  25   8  26   8  27   8  28   8  29   8  30  14  31  14  32  14
M  ISO  2  33  14  34  14
M  END
>  <minimizedAffinity>  (1) 
-4.70028591

>  <minimizedRMSD>  (1) 
1.92249966

$$$$
