
     RDKit          3D

 28 30  0  0  0  0  0  0  0  0999 V2000
   46.8250   34.7040   41.9940 C   0  0  0  0  0  0  0  0  0  0  0  0
   48.0310   35.3320   41.7660 C   0  0  0  0  0  0  0  0  0  0  0  0
   48.7250   35.2670   40.5730 C   0  0  0  0  0  0  0  0  0  0  0  0
   48.1730   34.5380   39.5720 N   0  0  0  0  0  0  0  0  0  0  0  0
   47.0090   33.9270   39.7780 C   0  0  0  0  0  0  0  0  0  0  0  0
   46.3470   33.9980   40.9370 N   0  0  0  0  0  0  0  0  0  0  0  0
   46.4940   33.1800   38.6960 N   0  0  0  0  0  0  0  0  0  0  0  0
   45.5930   32.1970   38.5880 N   0  0  0  0  0  0  0  0  0  0  0  0
   45.4860   31.8320   37.2910 C   0  0  0  0  0  0  0  0  0  0  0  0
   46.3580   32.6200   36.5600 C   0  0  0  0  0  0  0  0  0  0  0  0
   46.9710   33.4500   37.4610 C   0  0  0  0  0  0  0  0  0  0  0  0
   44.5260   35.6920   44.8060 C   0  0  0  0  0  0  0  0  0  0  0  0
   45.1280   35.7160   43.5440 C   0  0  0  0  0  0  0  0  0  0  0  0
   46.1140   34.7920   43.2660 C   0  0  0  0  0  0  0  0  0  0  0  0
   46.4640   33.8930   44.2190 N   0  0  0  0  0  0  0  0  0  0  0  0
   45.8630   33.8950   45.4310 C   0  0  0  0  0  0  0  0  0  0  0  0
   44.9090   34.7690   45.7380 N   0  0  0  0  0  0  0  0  0  0  0  0
   46.2760   32.9080   46.4230 C   0  0  0  0  0  0  0  0  0  0  0  0
   45.7860   31.7720   46.5000 O   0  0  0  0  0  0  0  0  0  0  0  0
   47.2740   33.2170   47.3610 O   0  0  0  0  0  0  0  0  0  0  0  0
   48.4681   35.9218   42.5852 H   0  0  0  0  0  0  0  0  0  0  0  0
   49.6861   35.7855   40.4408 H   0  0  0  0  0  0  0  0  0  0  0  0
   44.8252   31.0499   36.8890 H   0  0  0  0  0  0  0  0  0  0  0  0
   46.5253   32.5865   35.4733 H   0  0  0  0  0  0  0  0  0  0  0  0
   47.7273   34.2112   37.2189 H   0  0  0  0  0  0  0  0  0  0  0  0
   43.7391   36.4208   45.0500 H   0  0  0  0  0  0  0  0  0  0  0  0
   44.8220   36.4555   42.7894 H   0  0  0  0  0  0  0  0  0  0  0  0
   47.5493   32.5424   48.0313 H   0  0  0  0  0  0  0  0  0  0  0  0
  1 14  1  0
  2  1  2  0
  3  2  1  0
  4  5  1  0
  4  3  2  0
  5  6  2  0
  6  1  1  0
  7  5  1  0
  8  7  1  0
  9  8  2  0
 10  9  1  0
 10 11  2  0
 11  7  1  0
 12 17  2  0
 13 12  1  0
 14 13  2  0
 14 15  1  0
 15 16  2  0
 16 17  1  0
 16 18  1  0
 18 19  2  0
 18 20  1  0
  2 21  1  0
  3 22  1  0
  9 23  1  0
 10 24  1  0
 11 25  1  0
 12 26  1  0
 13 27  1  0
 20 28  1  0
M  ISO  8  21  14  22  14  23  14  24  14  25  14  26  14  27  14  28   3
M  END
>  <minimizedAffinity>  (1) 
-6.20125818

>  <minimizedRMSD>  (1) 
0.314156622

$$$$
