
     RDKit          3D

 27 29  0  0  0  0  0  0  0  0999 V2000
   46.7280   34.7630   42.0050 C   0  0  0  0  0  0  0  0  0  0  0  0
   47.9650   35.2790   41.7830 C   0  0  0  0  0  0  0  0  0  0  0  0
   48.6720   35.1300   40.6070 C   0  0  0  0  0  0  0  0  0  0  0  0
   48.0900   34.4230   39.6150 N   0  0  0  0  0  0  0  0  0  0  0  0
   46.8760   33.9070   39.8100 C   0  0  0  0  0  0  0  0  0  0  0  0
   46.1940   34.0550   40.9540 N   0  0  0  0  0  0  0  0  0  0  0  0
   46.3260   33.1780   38.7310 N   0  0  0  0  0  0  0  0  0  0  0  0
   45.3660   32.2710   38.6120 N   0  0  0  0  0  0  0  0  0  0  0  0
   45.2340   31.8840   37.3370 C   0  0  0  0  0  0  0  0  0  0  0  0
   46.1720   32.5930   36.5940 C   0  0  0  0  0  0  0  0  0  0  0  0
   46.8440   33.3990   37.4900 C   0  0  0  0  0  0  0  0  0  0  0  0
   44.4550   35.9640   44.7640 C   0  0  0  0  0  0  0  0  0  0  0  0
   45.0950   35.9310   43.5140 C   0  0  0  0  0  0  0  0  0  0  0  0
   45.9930   34.9250   43.2490 C   0  0  0  0  0  0  0  0  0  0  0  0
   46.2080   34.0110   44.2250 N   0  0  0  0  0  0  0  0  0  0  0  0
   45.5970   34.0430   45.4130 C   0  0  0  0  0  0  0  0  0  0  0  0
   44.7170   35.0140   45.6990 N   0  0  0  0  0  0  0  0  0  0  0  0
   45.9200   32.9900   46.3870 C   0  0  0  0  0  0  0  0  0  0  0  0
   45.2360   32.9600   47.4450 O   0  0  0  0  0  0  0  0  0  0  0  0
   48.4345   35.8540   42.5948 H   0  0  0  0  0  0  0  0  0  0  0  0
   49.6721   35.5708   40.4827 H   0  0  0  0  0  0  0  0  0  0  0  0
   44.5180   31.1441   36.9498 H   0  0  0  0  0  0  0  0  0  0  0  0
   46.3437   32.5249   35.5096 H   0  0  0  0  0  0  0  0  0  0  0  0
   47.6568   34.0985   37.2451 H   0  0  0  0  0  0  0  0  0  0  0  0
   43.7358   36.7657   44.9876 H   0  0  0  0  0  0  0  0  0  0  0  0
   44.8803   36.7001   42.7574 H   0  0  0  0  0  0  0  0  0  0  0  0
   46.7226   32.2612   46.2006 H   0  0  0  0  0  0  0  0  0  0  0  0
  1 14  1  0
  2  1  2  0
  3  2  1  0
  4  5  1  0
  4  3  2  0
  5  6  2  0
  6  1  1  0
  7  5  1  0
  8  7  1  0
  9  8  2  0
 10  9  1  0
 10 11  2  0
 11  7  1  0
 12 17  2  0
 13 12  1  0
 14 13  2  0
 14 15  1  0
 15 16  2  0
 16 17  1  0
 16 18  1  0
 18 19  2  0
  2 20  1  0
  3 21  1  0
  9 22  1  0
 10 23  1  0
 11 24  1  0
 12 25  1  0
 13 26  1  0
 18 27  1  0
M  ISO  8  20  14  21  14  22  14  23  14  24  14  25  14  26  14  27   6
M  END
>  <minimizedAffinity>  (1) 
-5.6078763

>  <minimizedRMSD>  (1) 
0.0846552327

$$$$
