
     RDKit          3D

 27 29  0  0  0  0  0  0  0  0999 V2000
   46.6970   34.7770   41.9560 C   0  0  0  0  0  0  0  0  0  0  0  0
   47.9640   35.2740   41.7460 C   0  0  0  0  0  0  0  0  0  0  0  0
   48.6850   35.1040   40.5820 C   0  0  0  0  0  0  0  0  0  0  0  0
   48.0940   34.3980   39.5910 N   0  0  0  0  0  0  0  0  0  0  0  0
   46.8720   33.9070   39.7700 C   0  0  0  0  0  0  0  0  0  0  0  0
   46.1820   34.0790   40.9040 N   0  0  0  0  0  0  0  0  0  0  0  0
   46.3180   33.1780   38.6870 N   0  0  0  0  0  0  0  0  0  0  0  0
   45.3440   32.2780   38.5770 N   0  0  0  0  0  0  0  0  0  0  0  0
   45.2180   31.8920   37.2950 C   0  0  0  0  0  0  0  0  0  0  0  0
   46.1660   32.5910   36.5670 C   0  0  0  0  0  0  0  0  0  0  0  0
   46.8380   33.3860   37.4630 C   0  0  0  0  0  0  0  0  0  0  0  0
   44.5080   36.1270   44.7080 C   0  0  0  0  0  0  0  0  0  0  0  0
   45.1710   36.0630   43.4730 C   0  0  0  0  0  0  0  0  0  0  0  0
   45.9560   34.9700   43.1930 C   0  0  0  0  0  0  0  0  0  0  0  0
   46.0440   34.0120   44.1320 N   0  0  0  0  0  0  0  0  0  0  0  0
   45.4160   34.0690   45.3070 C   0  0  0  0  0  0  0  0  0  0  0  0
   44.6400   35.1250   45.6090 N   0  0  0  0  0  0  0  0  0  0  0  0
   45.5930   32.9770   46.2240 N   0  0  0  0  0  0  0  0  0  0  0  0
   48.4327   35.8449   42.5611 H   0  0  0  0  0  0  0  0  0  0  0  0
   49.6950   35.5237   40.4651 H   0  0  0  0  0  0  0  0  0  0  0  0
   44.4984   31.1599   36.8997 H   0  0  0  0  0  0  0  0  0  0  0  0
   46.3456   32.5230   35.4839 H   0  0  0  0  0  0  0  0  0  0  0  0
   47.6607   34.0751   37.2215 H   0  0  0  0  0  0  0  0  0  0  0  0
   43.8773   36.9963   44.9456 H   0  0  0  0  0  0  0  0  0  0  0  0
   45.0641   36.8758   42.7395 H   0  0  0  0  0  0  0  0  0  0  0  0
   45.1212   32.9916   47.1395 H   0  0  0  0  0  0  0  0  0  0  0  0
   46.1917   32.1796   45.9659 H   0  0  0  0  0  0  0  0  0  0  0  0
  1 14  1  0
  2  1  2  0
  3  2  1  0
  4  5  1  0
  4  3  2  0
  5  6  2  0
  6  1  1  0
  7  5  1  0
  8  7  1  0
  9  8  2  0
 10  9  1  0
 10 11  2  0
 11  7  1  0
 12 17  2  0
 13 12  1  0
 14 13  2  0
 14 15  1  0
 15 16  2  0
 16 17  1  0
 16 18  1  0
  2 19  1  0
  3 20  1  0
  9 21  1  0
 10 22  1  0
 11 23  1  0
 12 24  1  0
 13 25  1  0
 18 26  1  0
 18 27  1  0
M  ISO  7  19  14  20  14  21  14  22  14  23  14  24  14  25  14
M  END
>  <minimizedAffinity>  (1) 
-5.61378574

>  <minimizedRMSD>  (1) 
0.110837139

$$$$
