
     RDKit          3D

 35 36  0  0  0  0  0  0  0  0999 V2000
   45.3900   35.0280   42.7800 C   0  0  0  0  0  0  0  0  0  0  0  0
   45.0490   34.5470   45.2180 C   0  0  0  0  0  0  0  0  0  0  0  0
   45.7720   34.2700   44.0230 C   0  0  0  0  0  0  0  0  0  0  0  0
   46.7770   33.3060   44.0910 C   0  0  0  0  0  0  0  0  0  0  0  0
   47.0150   32.6820   45.2770 N   0  0  0  0  0  0  0  0  0  0  0  0
   46.2900   32.9860   46.3940 C   0  0  0  0  0  0  0  0  0  0  0  0
   45.3270   33.9020   46.3590 N   0  0  0  0  0  0  0  0  0  0  0  0
   46.5410   34.9590   41.8120 C   0  0  0  0  0  0  0  0  0  0  0  0
   45.1850   36.4760   43.1820 C   0  0  0  0  0  0  0  0  0  0  0  0
   44.1220   34.4850   42.2550 C   0  0  0  0  0  0  0  0  0  0  0  0
   43.3920   35.1650   41.1880 C   0  0  0  0  0  0  0  0  0  0  0  0
   43.2300   34.4840   39.8810 C   0  0  0  0  0  0  0  0  0  0  0  0
   42.0390   35.2250   39.2550 C   0  0  0  0  0  0  0  0  0  0  0  0
   41.1810   35.6670   40.4130 C   0  0  0  0  0  0  0  0  0  0  0  0
   41.9240   35.2440   41.6510 C   0  0  0  0  0  0  0  0  0  0  0  0
   44.2496   35.3025   45.2042 H   0  0  0  0  0  0  0  0  0  0  0  0
   47.3690   33.0534   43.1990 H   0  0  0  0  0  0  0  0  0  0  0  0
   46.5064   32.4644   47.3380 H   0  0  0  0  0  0  0  0  0  0  0  0
   47.4869   34.9023   42.3705 H   0  0  0  0  0  0  0  0  0  0  0  0
   46.4348   34.0656   41.1791 H   0  0  0  0  0  0  0  0  0  0  0  0
   46.5423   35.8587   41.1791 H   0  0  0  0  0  0  0  0  0  0  0  0
   45.1740   36.5539   44.2792 H   0  0  0  0  0  0  0  0  0  0  0  0
   46.0055   37.0880   42.7792 H   0  0  0  0  0  0  0  0  0  0  0  0
   44.2269   36.8362   42.7792 H   0  0  0  0  0  0  0  0  0  0  0  0
   44.3456   33.4737   41.8844 H   0  0  0  0  0  0  0  0  0  0  0  0
   43.4428   34.5887   43.1140 H   0  0  0  0  0  0  0  0  0  0  0  0
   43.9811   36.0807   41.0315 H   0  0  0  0  0  0  0  0  0  0  0  0
   44.1334   34.5931   39.2630 H   0  0  0  0  0  0  0  0  0  0  0  0
   43.0684   33.3998   39.9725 H   0  0  0  0  0  0  0  0  0  0  0  0
   42.3877   36.0963   38.6812 H   0  0  0  0  0  0  0  0  0  0  0  0
   41.4813   34.5824   38.5578 H   0  0  0  0  0  0  0  0  0  0  0  0
   41.0492   36.7590   40.3985 H   0  0  0  0  0  0  0  0  0  0  0  0
   40.1763   35.2213   40.3688 H   0  0  0  0  0  0  0  0  0  0  0  0
   41.5711   34.2640   42.0045 H   0  0  0  0  0  0  0  0  0  0  0  0
   41.7795   35.9376   42.4924 H   0  0  0  0  0  0  0  0  0  0  0  0
  1  9  1  0
  1  3  1  0
  2  7  2  0
  3  4  2  0
  3  2  1  0
  4  5  1  0
  5  6  2  0
  7  6  1  0
  8  1  1  0
 10  1  1  0
 11 15  1  0
 11 10  1  0
 12 11  1  0
 13 12  1  0
 13 14  1  0
 14 15  1  0
  2 16  1  0
  4 17  1  0
  6 18  1  0
  8 19  1  0
  8 20  1  0
  8 21  1  0
  9 22  1  0
  9 23  1  0
  9 24  1  0
 10 25  1  0
 10 26  1  0
 11 27  1  0
 12 28  1  0
 12 29  1  0
 13 30  1  0
 13 31  1  0
 14 32  1  0
 14 33  1  0
 15 34  1  0
 15 35  1  0
M  ISO  8  16  14  17  14  18  14  19   8  20   8  21   8  22   8  23   8
M  ISO  8  24   8  25   8  26   8  27  13  28  13  29  13  30  13  31  13
M  ISO  4  32  13  33  13  34  13  35  13
M  END
>  <minimizedAffinity>  (1) 
-4.58718109

>  <minimizedRMSD>  (1) 
1.29922318

$$$$
