
     RDKit          3D

 43 48  0  0  0  0  0  0  0  0999 V2000
   44.3540   35.8090   44.7230 C   0  0  0  0  0  0  0  0  0  0  0  0
   44.9760   35.7580   43.4730 C   0  0  0  0  0  0  0  0  0  0  0  0
   45.9880   34.8630   43.2460 C   0  0  0  0  0  0  0  0  0  0  0  0
   46.3420   34.0520   44.2750 N   0  0  0  0  0  0  0  0  0  0  0  0
   45.7430   34.1040   45.4760 C   0  0  0  0  0  0  0  0  0  0  0  0
   44.7630   34.9620   45.7120 N   0  0  0  0  0  0  0  0  0  0  0  0
   46.7180   34.7070   41.9960 C   0  0  0  0  0  0  0  0  0  0  0  0
   47.9620   35.2150   41.7690 C   0  0  0  0  0  0  0  0  0  0  0  0
   48.6730   35.0840   40.6060 C   0  0  0  0  0  0  0  0  0  0  0  0
   48.0860   34.3980   39.6140 N   0  0  0  0  0  0  0  0  0  0  0  0
   46.8720   33.8840   39.7910 C   0  0  0  0  0  0  0  0  0  0  0  0
   46.1840   34.0170   40.9360 N   0  0  0  0  0  0  0  0  0  0  0  0
   46.3130   33.1670   38.6950 N   0  0  0  0  0  0  0  0  0  0  0  0
   45.3340   32.2810   38.5690 N   0  0  0  0  0  0  0  0  0  0  0  0
   45.1920   31.8970   37.3080 C   0  0  0  0  0  0  0  0  0  0  0  0
   46.1400   32.5830   36.5820 C   0  0  0  0  0  0  0  0  0  0  0  0
   46.8440   33.3840   37.4690 C   0  0  0  0  0  0  0  0  0  0  0  0
   46.1240   33.2360   46.5720 C   0  0  0  0  0  0  0  0  0  0  0  0
   45.1410   32.9410   47.5250 C   0  0  0  0  0  0  0  0  0  0  0  0
   45.7610   32.1050   48.4450 C   0  0  0  0  0  0  0  0  0  0  0  0
   47.0670   31.9370   48.0110 C   0  0  0  0  0  0  0  0  0  0  0  0
   47.2270   32.6120   46.9210 O   0  0  0  0  0  0  0  0  0  0  0  0
   48.1720   31.2020   48.5260 N   0  0  0  0  0  0  0  0  0  0  0  0
   49.1980   31.5690   49.2830 C   0  0  0  0  0  0  0  0  0  0  0  0
   49.9540   30.4500   49.4720 N   0  0  0  0  0  0  0  0  0  0  0  0
   49.3870   29.4090   48.8300 C   0  0  0  0  0  0  0  0  0  0  0  0
   49.7610   28.0710   48.7140 C   0  0  0  0  0  0  0  0  0  0  0  0
   48.9920   27.2150   47.9920 N   0  0  0  0  0  0  0  0  0  0  0  0
   47.8830   27.6970   47.4070 C   0  0  0  0  0  0  0  0  0  0  0  0
   47.5100   28.9840   47.5100 N   0  0  0  0  0  0  0  0  0  0  0  0
   48.2270   29.8830   48.2100 C   0  0  0  0  0  0  0  0  0  0  0  0
   43.5409   36.5263   44.9086 H   0  0  0  0  0  0  0  0  0  0  0  0
   44.6528   36.4372   42.6703 H   0  0  0  0  0  0  0  0  0  0  0  0
   48.4343   35.7771   42.5882 H   0  0  0  0  0  0  0  0  0  0  0  0
   49.6763   35.5200   40.4909 H   0  0  0  0  0  0  0  0  0  0  0  0
   44.4610   31.1731   36.9185 H   0  0  0  0  0  0  0  0  0  0  0  0
   46.3081   32.5093   35.4974 H   0  0  0  0  0  0  0  0  0  0  0  0
   47.6732   34.0639   37.2236 H   0  0  0  0  0  0  0  0  0  0  0  0
   44.0999   33.2957   47.5415 H   0  0  0  0  0  0  0  0  0  0  0  0
   45.3047   31.6626   49.3428 H   0  0  0  0  0  0  0  0  0  0  0  0
   49.3987   32.5754   49.6792 H   0  0  0  0  0  0  0  0  0  0  0  0
   50.6762   27.7095   49.2057 H   0  0  0  0  0  0  0  0  0  0  0  0
   47.2549   27.0107   46.8201 H   0  0  0  0  0  0  0  0  0  0  0  0
  1  6  2  0
  2  1  1  0
  3  2  2  0
  3  4  1  0
  4  5  2  0
  5  6  1  0
  5 18  1  0
  7  3  1  0
  8  7  2  0
  9  8  1  0
 10 11  1  0
 10  9  2  0
 11 12  2  0
 12  7  1  0
 13 11  1  0
 14 13  1  0
 15 14  2  0
 16 15  1  0
 16 17  2  0
 17 13  1  0
 18 22  1  0
 18 19  2  0
 19 20  1  0
 21 20  2  0
 21 23  1  0
 22 21  1  0
 23 24  1  0
 24 25  2  0
 26 25  1  0
 27 26  2  0
 28 27  1  0
 29 30  1  0
 29 28  2  0
 30 31  2  0
 31 23  1  0
 31 26  1  0
  1 32  1  0
  2 33  1  0
  8 34  1  0
  9 35  1  0
 15 36  1  0
 16 37  1  0
 17 38  1  0
 19 39  1  0
 20 40  1  0
 24 41  1  0
 27 42  1  0
 29 43  1  0
M  ISO  8  32  14  33  14  34  14  35  14  36  14  37  14  38  14  39  14
M  ISO  4  40  14  41  14  42  14  43  14
M  END
>  <minimizedAffinity>  (1) 
-7.6351366

>  <minimizedRMSD>  (1) 
2.65004253

$$$$
