
     RDKit          3D

 35 38  0  0  0  0  0  0  0  0999 V2000
   44.5800   35.8580   44.6730 C   0  0  0  0  0  0  0  0  0  0  0  0
   45.2080   35.8720   43.4300 C   0  0  0  0  0  0  0  0  0  0  0  0
   46.1000   34.8810   43.1000 C   0  0  0  0  0  0  0  0  0  0  0  0
   46.3240   33.9220   44.0230 N   0  0  0  0  0  0  0  0  0  0  0  0
   45.7160   33.9090   45.2250 C   0  0  0  0  0  0  0  0  0  0  0  0
   44.8550   34.8490   45.5670 N   0  0  0  0  0  0  0  0  0  0  0  0
   46.8230   34.7720   41.8470 C   0  0  0  0  0  0  0  0  0  0  0  0
   48.0350   35.3710   41.6100 C   0  0  0  0  0  0  0  0  0  0  0  0
   48.7420   35.2880   40.4410 C   0  0  0  0  0  0  0  0  0  0  0  0
   48.2030   34.5600   39.4530 N   0  0  0  0  0  0  0  0  0  0  0  0
   47.0300   33.9600   39.6390 C   0  0  0  0  0  0  0  0  0  0  0  0
   46.3360   34.0460   40.7960 N   0  0  0  0  0  0  0  0  0  0  0  0
   46.4990   33.1990   38.5610 N   0  0  0  0  0  0  0  0  0  0  0  0
   45.5990   32.2460   38.4350 N   0  0  0  0  0  0  0  0  0  0  0  0
   45.4650   31.8580   37.1720 C   0  0  0  0  0  0  0  0  0  0  0  0
   46.3560   32.6300   36.4350 C   0  0  0  0  0  0  0  0  0  0  0  0
   47.0020   33.4720   37.3210 C   0  0  0  0  0  0  0  0  0  0  0  0
   45.9630   32.8720   46.2150 C   0  0  0  0  0  0  0  0  0  0  0  0
   46.9140   31.9070   45.9240 C   0  0  0  0  0  0  0  0  0  0  0  0
   46.9570   31.0520   47.0100 C   0  0  0  0  0  0  0  0  0  0  0  0
   46.0230   31.5440   47.9120 C   0  0  0  0  0  0  0  0  0  0  0  0
   45.4800   32.5970   47.3980 O   0  0  0  0  0  0  0  0  0  0  0  0
   45.7070   30.9500   49.2480 C   0  0  0  0  0  0  0  0  0  0  0  0
   44.8370   29.8970   49.1420 F   0  0  0  0  0  0  0  0  0  0  0  0
   45.1120   31.8860   50.0960 F   0  0  0  0  0  0  0  0  0  0  0  0
   46.8650   30.5410   49.8920 F   0  0  0  0  0  0  0  0  0  0  0  0
   43.8661   36.6514   44.9392 H   0  0  0  0  0  0  0  0  0  0  0  0
   44.9897   36.6767   42.7125 H   0  0  0  0  0  0  0  0  0  0  0  0
   48.4733   35.9655   42.4251 H   0  0  0  0  0  0  0  0  0  0  0  0
   49.7097   35.7962   40.3177 H   0  0  0  0  0  0  0  0  0  0  0  0
   44.7864   31.0827   36.7869 H   0  0  0  0  0  0  0  0  0  0  0  0
   46.5171   32.5801   35.3480 H   0  0  0  0  0  0  0  0  0  0  0  0
   47.7723   34.2177   37.0748 H   0  0  0  0  0  0  0  0  0  0  0  0
   47.5175   31.8351   45.0072 H   0  0  0  0  0  0  0  0  0  0  0  0
   47.5977   30.1665   47.1336 H   0  0  0  0  0  0  0  0  0  0  0  0
  1  6  2  0
  2  1  1  0
  3  2  2  0
  3  4  1  0
  4  5  2  0
  5  6  1  0
  5 18  1  0
  7  3  1  0
  8  7  2  0
  9  8  1  0
 10 11  1  0
 10  9  2  0
 11 12  2  0
 12  7  1  0
 13 11  1  0
 14 13  1  0
 15 14  2  0
 16 15  1  0
 16 17  2  0
 17 13  1  0
 18 22  1  0
 19 18  2  0
 19 20  1  0
 20 21  2  0
 21 23  1  0
 22 21  1  0
 23 26  1  0
 23 25  1  0
 24 23  1  0
  1 27  1  0
  2 28  1  0
  8 29  1  0
  9 30  1  0
 15 31  1  0
 16 32  1  0
 17 33  1  0
 19 34  1  0
 20 35  1  0
M  ISO  8  27  14  28  14  29  14  30  14  31  14  32  14  33  14  34  14
M  ISO  1  35  14
M  END
>  <minimizedAffinity>  (1) 
-7.18776321

>  <minimizedRMSD>  (1) 
0.489750743

$$$$
