
     RDKit          3D

 39 43  0  0  0  0  0  0  0  0999 V2000
   44.7070   35.5250   44.8630 C   0  0  0  0  0  0  0  0  0  0  0  0
   45.3610   35.6720   43.6410 C   0  0  0  0  0  0  0  0  0  0  0  0
   46.2830   34.7300   43.2280 C   0  0  0  0  0  0  0  0  0  0  0  0
   46.5050   33.6850   44.0630 N   0  0  0  0  0  0  0  0  0  0  0  0
   45.8770   33.5480   45.2330 C   0  0  0  0  0  0  0  0  0  0  0  0
   44.9850   34.4370   45.6550 N   0  0  0  0  0  0  0  0  0  0  0  0
   47.0270   34.7640   41.9930 C   0  0  0  0  0  0  0  0  0  0  0  0
   48.1570   35.4930   41.7930 C   0  0  0  0  0  0  0  0  0  0  0  0
   48.8830   35.5450   40.6330 C   0  0  0  0  0  0  0  0  0  0  0  0
   48.4350   34.8070   39.5990 N   0  0  0  0  0  0  0  0  0  0  0  0
   47.3350   34.0800   39.7500 C   0  0  0  0  0  0  0  0  0  0  0  0
   46.6390   34.0460   40.8990 N   0  0  0  0  0  0  0  0  0  0  0  0
   46.9070   33.3170   38.6190 N   0  0  0  0  0  0  0  0  0  0  0  0
   46.1200   32.2680   38.4450 N   0  0  0  0  0  0  0  0  0  0  0  0
   46.0420   31.9300   37.1660 C   0  0  0  0  0  0  0  0  0  0  0  0
   46.8350   32.8250   36.4740 C   0  0  0  0  0  0  0  0  0  0  0  0
   47.3800   33.7020   37.4050 C   0  0  0  0  0  0  0  0  0  0  0  0
   46.1210   32.4190   46.1250 C   0  0  0  0  0  0  0  0  0  0  0  0
   46.8150   32.6680   47.2950 C   0  0  0  0  0  0  0  0  0  0  0  0
   46.9180   31.4570   47.9610 C   0  0  0  0  0  0  0  0  0  0  0  0
   46.2710   30.5290   47.1450 C   0  0  0  0  0  0  0  0  0  0  0  0
   45.8250   31.1360   46.0910 O   0  0  0  0  0  0  0  0  0  0  0  0
   46.1410   29.1110   47.4660 C   0  0  0  0  0  0  0  0  0  0  0  0
   44.9780   28.4070   47.7080 C   0  0  0  0  0  0  0  0  0  0  0  0
   45.3390   27.1010   47.9690 C   0  0  0  0  0  0  0  0  0  0  0  0
   46.6990   27.0220   47.8850 N   0  0  0  0  0  0  0  0  0  0  0  0
   47.1530   28.2320   47.5850 N   0  0  0  0  0  0  0  0  0  0  0  0
   43.9728   36.2754   45.1914 H   0  0  0  0  0  0  0  0  0  0  0  0
   45.1422   36.5412   43.0033 H   0  0  0  0  0  0  0  0  0  0  0  0
   48.5207   36.0950   42.6387 H   0  0  0  0  0  0  0  0  0  0  0  0
   49.7904   36.1612   40.5494 H   0  0  0  0  0  0  0  0  0  0  0  0
   45.4601   31.0998   36.7391 H   0  0  0  0  0  0  0  0  0  0  0  0
   47.0040   32.8408   35.3872 H   0  0  0  0  0  0  0  0  0  0  0  0
   48.0600   34.5418   37.1993 H   0  0  0  0  0  0  0  0  0  0  0  0
   47.2087   33.6384   47.6315 H   0  0  0  0  0  0  0  0  0  0  0  0
   47.4065   31.2677   48.9282 H   0  0  0  0  0  0  0  0  0  0  0  0
   43.9552   28.8116   47.6951 H   0  0  0  0  0  0  0  0  0  0  0  0
   44.6540   26.2727   48.2027 H   0  0  0  0  0  0  0  0  0  0  0  0
   47.2694   26.1764   48.0285 H   0  0  0  0  0  0  0  0  0  0  0  0
  1  6  2  0
  2  1  1  0
  3  2  2  0
  3  4  1  0
  4  5  2  0
  5  6  1  0
  5 18  1  0
  7  3  1  0
  8  7  2  0
  9  8  1  0
 10 11  1  0
 10  9  2  0
 11 12  2  0
 12  7  1  0
 13 11  1  0
 14 13  1  0
 15 14  2  0
 16 15  1  0
 16 17  2  0
 17 13  1  0
 18 19  2  0
 19 20  1  0
 21 23  1  0
 21 20  2  0
 22 18  1  0
 22 21  1  0
 23 27  2  0
 23 24  1  0
 24 25  2  0
 26 25  1  0
 27 26  1  0
  1 28  1  0
  2 29  1  0
  8 30  1  0
  9 31  1  0
 15 32  1  0
 16 33  1  0
 17 34  1  0
 19 35  1  0
 20 36  1  0
 24 37  1  0
 25 38  1  0
 26 39  1  0
M  ISO  8  28  14  29  14  30  14  31  14  32  14  33  14  34  14  35  14
M  ISO  4  36  14  37  14  38  14  39   9
M  END
>  <minimizedAffinity>  (1) 
-6.66800642

>  <minimizedRMSD>  (1) 
1.99957621

$$$$
