
     RDKit          3D

 45 49  0  0  0  0  0  0  0  0999 V2000
   44.6220   35.6500   44.8280 C   0  0  0  0  0  0  0  0  0  0  0  0
   45.2820   35.7370   43.6080 C   0  0  0  0  0  0  0  0  0  0  0  0
   46.2080   34.8020   43.2490 C   0  0  0  0  0  0  0  0  0  0  0  0
   46.4530   33.7900   44.1300 N   0  0  0  0  0  0  0  0  0  0  0  0
   45.8170   33.7100   45.3000 C   0  0  0  0  0  0  0  0  0  0  0  0
   44.9090   34.6050   45.6800 N   0  0  0  0  0  0  0  0  0  0  0  0
   46.9600   34.7870   42.0070 C   0  0  0  0  0  0  0  0  0  0  0  0
   48.1300   35.4790   41.8170 C   0  0  0  0  0  0  0  0  0  0  0  0
   48.8630   35.4870   40.6600 C   0  0  0  0  0  0  0  0  0  0  0  0
   48.3950   34.7580   39.6380 N   0  0  0  0  0  0  0  0  0  0  0  0
   47.2640   34.0720   39.7800 C   0  0  0  0  0  0  0  0  0  0  0  0
   46.5530   34.0720   40.9190 N   0  0  0  0  0  0  0  0  0  0  0  0
   46.8260   33.3210   38.6550 N   0  0  0  0  0  0  0  0  0  0  0  0
   46.0000   32.2990   38.4870 N   0  0  0  0  0  0  0  0  0  0  0  0
   45.9150   31.9420   37.2180 C   0  0  0  0  0  0  0  0  0  0  0  0
   46.7490   32.8000   36.5190 C   0  0  0  0  0  0  0  0  0  0  0  0
   47.3160   33.6630   37.4360 C   0  0  0  0  0  0  0  0  0  0  0  0
   46.0750   32.6220   46.2540 C   0  0  0  0  0  0  0  0  0  0  0  0
   46.9170   32.9010   47.3240 C   0  0  0  0  0  0  0  0  0  0  0  0
   47.0070   31.7450   48.0710 C   0  0  0  0  0  0  0  0  0  0  0  0
   46.2010   30.8120   47.4050 C   0  0  0  0  0  0  0  0  0  0  0  0
   45.6830   31.3780   46.3510 O   0  0  0  0  0  0  0  0  0  0  0  0
   45.9940   29.4110   47.8530 C   0  0  0  0  0  0  0  0  0  0  0  0
   44.8010   28.8150   47.1660 C   0  0  0  0  0  0  0  0  0  0  0  0
   45.4610   28.1740   45.9410 C   0  0  0  0  0  0  0  0  0  0  0  0
   46.6130   27.4230   46.6180 C   0  0  0  0  0  0  0  0  0  0  0  0
   47.1930   28.5350   47.4680 C   0  0  0  0  0  0  0  0  0  0  0  0
   43.8772   36.4083   45.1112 H   0  0  0  0  0  0  0  0  0  0  0  0
   45.0552   36.5687   42.9247 H   0  0  0  0  0  0  0  0  0  0  0  0
   48.5090   36.0743   42.6608 H   0  0  0  0  0  0  0  0  0  0  0  0
   49.7943   36.0661   40.5738 H   0  0  0  0  0  0  0  0  0  0  0  0
   45.3050   31.1276   36.8002 H   0  0  0  0  0  0  0  0  0  0  0  0
   46.9267   32.7947   35.4335 H   0  0  0  0  0  0  0  0  0  0  0  0
   48.0285   34.4728   37.2200 H   0  0  0  0  0  0  0  0  0  0  0  0
   47.4154   33.8588   47.5345 H   0  0  0  0  0  0  0  0  0  0  0  0
   47.5873   31.5889   48.9924 H   0  0  0  0  0  0  0  0  0  0  0  0
   45.8582   29.4382   48.9443 H   0  0  0  0  0  0  0  0  0  0  0  0
   44.3046   28.0634   47.7974 H   0  0  0  0  0  0  0  0  0  0  0  0
   44.0064   29.5374   46.9277 H   0  0  0  0  0  0  0  0  0  0  0  0
   45.8284   28.9312   45.2327 H   0  0  0  0  0  0  0  0  0  0  0  0
   44.7940   27.5456   45.3324 H   0  0  0  0  0  0  0  0  0  0  0  0
   46.2489   26.5871   47.2334 H   0  0  0  0  0  0  0  0  0  0  0  0
   47.3259   26.9503   45.9265 H   0  0  0  0  0  0  0  0  0  0  0  0
   47.6745   28.1228   48.3670 H   0  0  0  0  0  0  0  0  0  0  0  0
   47.9642   29.1056   46.9297 H   0  0  0  0  0  0  0  0  0  0  0  0
  1  6  2  0
  2  1  1  0
  3  2  2  0
  3  4  1  0
  4  5  2  0
  5  6  1  0
  5 18  1  0
  7  3  1  0
  8  7  2  0
  9  8  1  0
 10 11  1  0
 10  9  2  0
 11 12  2  0
 12  7  1  0
 13 11  1  0
 14 13  1  0
 15 14  2  0
 16 15  1  0
 16 17  2  0
 17 13  1  0
 18 22  1  0
 18 19  2  0
 19 20  1  0
 21 23  1  0
 21 20  2  0
 22 21  1  0
 24 23  1  0
 25 26  1  0
 25 24  1  0
 26 27  1  0
 27 23  1  0
  1 28  1  0
  2 29  1  0
  8 30  1  0
  9 31  1  0
 15 32  1  0
 16 33  1  0
 17 34  1  0
 19 35  1  0
 20 36  1  0
 23 37  1  0
 24 38  1  0
 24 39  1  0
 25 40  1  0
 25 41  1  0
 26 42  1  0
 26 43  1  0
 27 44  1  0
 27 45  1  0
M  ISO  8  28  14  29  14  30  14  31  14  32  14  33  14  34  14  35  14
M  ISO  8  36  14  37  13  38  13  39  13  40  13  41  13  42  13  43  13
M  ISO  2  44  13  45  13
M  END
>  <minimizedAffinity>  (1) 
-6.6106658

>  <minimizedRMSD>  (1) 
1.53716123

$$$$
