
     RDKit          3D

 33 36  0  0  0  0  0  0  0  0999 V2000
   44.4000   36.0010   44.8340 C   0  0  0  0  0  0  0  0  0  0  0  0
   45.0530   35.9380   43.6040 C   0  0  0  0  0  0  0  0  0  0  0  0
   45.9560   34.9380   43.3570 C   0  0  0  0  0  0  0  0  0  0  0  0
   46.1820   34.0320   44.3380 N   0  0  0  0  0  0  0  0  0  0  0  0
   45.5470   34.1030   45.5190 C   0  0  0  0  0  0  0  0  0  0  0  0
   44.6660   35.0560   45.7950 N   0  0  0  0  0  0  0  0  0  0  0  0
   46.6980   34.7630   42.1230 C   0  0  0  0  0  0  0  0  0  0  0  0
   47.9400   35.2780   41.9010 C   0  0  0  0  0  0  0  0  0  0  0  0
   48.6680   35.1290   40.7440 C   0  0  0  0  0  0  0  0  0  0  0  0
   48.1020   34.4200   39.7590 N   0  0  0  0  0  0  0  0  0  0  0  0
   46.8950   33.9010   39.9280 C   0  0  0  0  0  0  0  0  0  0  0  0
   46.2020   34.0580   41.0680 N   0  0  0  0  0  0  0  0  0  0  0  0
   46.3450   33.1560   38.8450 N   0  0  0  0  0  0  0  0  0  0  0  0
   45.3880   32.2500   38.7220 N   0  0  0  0  0  0  0  0  0  0  0  0
   45.2620   31.8540   37.4550 C   0  0  0  0  0  0  0  0  0  0  0  0
   46.2020   32.5580   36.7270 C   0  0  0  0  0  0  0  0  0  0  0  0
   46.8810   33.3770   37.6170 C   0  0  0  0  0  0  0  0  0  0  0  0
   45.7890   33.1220   46.5860 C   0  0  0  0  0  0  0  0  0  0  0  0
   46.9260   32.3290   46.4730 C   0  0  0  0  0  0  0  0  0  0  0  0
   46.9180   31.5060   47.5860 C   0  0  0  0  0  0  0  0  0  0  0  0
   45.7840   31.8450   48.3090 C   0  0  0  0  0  0  0  0  0  0  0  0
   45.1480   32.7980   47.6860 O   0  0  0  0  0  0  0  0  0  0  0  0
   45.2660   31.3570   49.5030 O   0  0  0  0  0  0  0  0  0  0  0  0
   43.6750   36.8037   45.0342 H   0  0  0  0  0  0  0  0  0  0  0  0
   44.8430   36.6920   42.8311 H   0  0  0  0  0  0  0  0  0  0  0  0
   48.3977   35.8607   42.7140 H   0  0  0  0  0  0  0  0  0  0  0  0
   49.6688   35.5717   40.6327 H   0  0  0  0  0  0  0  0  0  0  0  0
   44.5493   31.1121   37.0656 H   0  0  0  0  0  0  0  0  0  0  0  0
   46.3788   32.4830   35.6439 H   0  0  0  0  0  0  0  0  0  0  0  0
   47.6978   34.0727   37.3744 H   0  0  0  0  0  0  0  0  0  0  0  0
   47.6749   32.3512   45.6676 H   0  0  0  0  0  0  0  0  0  0  0  0
   47.6614   30.7377   47.8449 H   0  0  0  0  0  0  0  0  0  0  0  0
   44.4268   31.7336   49.8691 H   0  0  0  0  0  0  0  0  0  0  0  0
  1  6  2  0
  2  1  1  0
  3  2  2  0
  3  4  1  0
  4  5  2  0
  5  6  1  0
  5 18  1  0
  7  3  1  0
  8  7  2  0
  9  8  1  0
 10 11  1  0
 10  9  2  0
 11 12  2  0
 12  7  1  0
 13 11  1  0
 14 13  1  0
 15 14  2  0
 16 15  1  0
 16 17  2  0
 17 13  1  0
 18 22  1  0
 19 18  2  0
 19 20  1  0
 20 21  2  0
 21 23  1  0
 22 21  1  0
  1 24  1  0
  2 25  1  0
  8 26  1  0
  9 27  1  0
 15 28  1  0
 16 29  1  0
 17 30  1  0
 19 31  1  0
 20 32  1  0
 23 33  1  0
M  ISO  8  24  14  25  14  26  14  27  14  28  14  29  14  30  14  31  14
M  ISO  2  32  14  33   3
M  END
>  <minimizedAffinity>  (1) 
-6.8402915

>  <minimizedRMSD>  (1) 
0.0167295299

$$$$
