
     RDKit          3D

 44 48  0  0  0  0  0  0  0  0999 V2000
   44.7030   35.5290   44.8670 C   0  0  0  0  0  0  0  0  0  0  0  0
   45.3500   35.6700   43.6350 C   0  0  0  0  0  0  0  0  0  0  0  0
   46.2610   34.7340   43.2370 C   0  0  0  0  0  0  0  0  0  0  0  0
   46.4960   33.6950   44.0730 N   0  0  0  0  0  0  0  0  0  0  0  0
   45.8780   33.5600   45.2500 C   0  0  0  0  0  0  0  0  0  0  0  0
   44.9860   34.4540   45.6670 N   0  0  0  0  0  0  0  0  0  0  0  0
   47.0050   34.7580   41.9840 C   0  0  0  0  0  0  0  0  0  0  0  0
   48.1480   35.4780   41.7840 C   0  0  0  0  0  0  0  0  0  0  0  0
   48.8660   35.5180   40.6190 C   0  0  0  0  0  0  0  0  0  0  0  0
   48.4020   34.7870   39.5980 N   0  0  0  0  0  0  0  0  0  0  0  0
   47.2920   34.0700   39.7490 C   0  0  0  0  0  0  0  0  0  0  0  0
   46.5930   34.0370   40.8970 N   0  0  0  0  0  0  0  0  0  0  0  0
   46.8610   33.3170   38.6150 N   0  0  0  0  0  0  0  0  0  0  0  0
   46.0420   32.2860   38.4480 N   0  0  0  0  0  0  0  0  0  0  0  0
   45.9710   31.9410   37.1640 C   0  0  0  0  0  0  0  0  0  0  0  0
   46.7930   32.8060   36.4790 C   0  0  0  0  0  0  0  0  0  0  0  0
   47.3530   33.6730   37.4040 C   0  0  0  0  0  0  0  0  0  0  0  0
   46.1250   32.4460   46.1550 C   0  0  0  0  0  0  0  0  0  0  0  0
   46.8400   32.7220   47.3250 C   0  0  0  0  0  0  0  0  0  0  0  0
   46.9540   31.5330   48.0220 C   0  0  0  0  0  0  0  0  0  0  0  0
   46.3020   30.5990   47.2330 C   0  0  0  0  0  0  0  0  0  0  0  0
   45.8410   31.1730   46.1690 O   0  0  0  0  0  0  0  0  0  0  0  0
   46.1720   29.2220   47.5690 N   0  0  0  0  0  0  0  0  0  0  0  0
   45.0220   28.5450   48.1350 C   0  0  0  0  0  0  0  0  0  0  0  0
   44.9510   27.3270   47.2150 C   0  0  0  0  0  0  0  0  0  0  0  0
   46.3540   27.1410   46.6600 C   0  0  0  0  0  0  0  0  0  0  0  0
   47.1830   28.1920   47.4110 C   0  0  0  0  0  0  0  0  0  0  0  0
   43.9683   36.2801   45.1927 H   0  0  0  0  0  0  0  0  0  0  0  0
   45.1258   36.5317   42.9891 H   0  0  0  0  0  0  0  0  0  0  0  0
   48.5227   36.0750   42.6285 H   0  0  0  0  0  0  0  0  0  0  0  0
   49.7806   36.1220   40.5263 H   0  0  0  0  0  0  0  0  0  0  0  0
   45.3723   31.1241   36.7348 H   0  0  0  0  0  0  0  0  0  0  0  0
   46.9731   32.8089   35.3938 H   0  0  0  0  0  0  0  0  0  0  0  0
   48.0590   34.4904   37.1956 H   0  0  0  0  0  0  0  0  0  0  0  0
   47.2369   33.7006   47.6328 H   0  0  0  0  0  0  0  0  0  0  0  0
   47.4519   31.3658   48.9885 H   0  0  0  0  0  0  0  0  0  0  0  0
   45.1933   28.2559   49.1824 H   0  0  0  0  0  0  0  0  0  0  0  0
   44.1032   29.1485   48.1761 H   0  0  0  0  0  0  0  0  0  0  0  0
   44.6429   26.4364   47.7825 H   0  0  0  0  0  0  0  0  0  0  0  0
   44.2146   27.4711   46.4107 H   0  0  0  0  0  0  0  0  0  0  0  0
   46.7264   26.1267   46.8662 H   0  0  0  0  0  0  0  0  0  0  0  0
   46.4004   27.2616   45.5676 H   0  0  0  0  0  0  0  0  0  0  0  0
   47.5417   27.8162   48.3806 H   0  0  0  0  0  0  0  0  0  0  0  0
   48.1048   28.5129   46.9037 H   0  0  0  0  0  0  0  0  0  0  0  0
  1  6  2  0
  2  1  1  0
  3  2  2  0
  3  4  1  0
  4  5  2  0
  5  6  1  0
  5 18  1  0
  7  3  1  0
  8  7  2  0
  9  8  1  0
 10 11  1  0
 10  9  2  0
 11 12  2  0
 12  7  1  0
 13 11  1  0
 14 13  1  0
 15 14  2  0
 16 15  1  0
 16 17  2  0
 17 13  1  0
 18 22  1  0
 18 19  2  0
 19 20  1  0
 21 23  1  0
 21 20  2  0
 22 21  1  0
 23 24  1  0
 25 24  1  0
 26 25  1  0
 26 27  1  0
 27 23  1  0
  1 28  1  0
  2 29  1  0
  8 30  1  0
  9 31  1  0
 15 32  1  0
 16 33  1  0
 17 34  1  0
 19 35  1  0
 20 36  1  0
 24 37  1  0
 24 38  1  0
 25 39  1  0
 25 40  1  0
 26 41  1  0
 26 42  1  0
 27 43  1  0
 27 44  1  0
M  ISO  8  28  14  29  14  30  14  31  14  32  14  33  14  34  14  35  14
M  ISO  8  36  14  37  13  38  13  39  13  40  13  41  13  42  13  43  13
M  ISO  1  44  13
M  END
>  <minimizedAffinity>  (1) 
-6.44502115

>  <minimizedRMSD>  (1) 
1.8423841

$$$$
