
     RDKit          3D

 46 50  0  0  0  0  0  0  0  0999 V2000
   44.7020   35.5170   44.8410 C   0  0  0  0  0  0  0  0  0  0  0  0
   45.3380   35.6450   43.6010 C   0  0  0  0  0  0  0  0  0  0  0  0
   46.2680   34.7120   43.2070 C   0  0  0  0  0  0  0  0  0  0  0  0
   46.5300   33.6910   44.0560 N   0  0  0  0  0  0  0  0  0  0  0  0
   45.9120   33.5740   45.2500 C   0  0  0  0  0  0  0  0  0  0  0  0
   45.0180   34.4560   45.6480 N   0  0  0  0  0  0  0  0  0  0  0  0
   46.9960   34.7290   41.9510 C   0  0  0  0  0  0  0  0  0  0  0  0
   48.1370   35.4540   41.7460 C   0  0  0  0  0  0  0  0  0  0  0  0
   48.8450   35.4910   40.5740 C   0  0  0  0  0  0  0  0  0  0  0  0
   48.3760   34.7530   39.5460 N   0  0  0  0  0  0  0  0  0  0  0  0
   47.2670   34.0380   39.7190 C   0  0  0  0  0  0  0  0  0  0  0  0
   46.5790   34.0060   40.8670 N   0  0  0  0  0  0  0  0  0  0  0  0
   46.8140   33.2780   38.6020 N   0  0  0  0  0  0  0  0  0  0  0  0
   46.0220   32.2390   38.4350 N   0  0  0  0  0  0  0  0  0  0  0  0
   45.9210   31.8870   37.1600 C   0  0  0  0  0  0  0  0  0  0  0  0
   46.7170   32.7790   36.4550 C   0  0  0  0  0  0  0  0  0  0  0  0
   47.2800   33.6590   37.3770 C   0  0  0  0  0  0  0  0  0  0  0  0
   46.1890   32.4760   46.1650 C   0  0  0  0  0  0  0  0  0  0  0  0
   46.8520   32.7810   47.3540 C   0  0  0  0  0  0  0  0  0  0  0  0
   47.0010   31.5890   48.0500 C   0  0  0  0  0  0  0  0  0  0  0  0
   46.4190   30.6320   47.2350 C   0  0  0  0  0  0  0  0  0  0  0  0
   45.9620   31.1850   46.1580 O   0  0  0  0  0  0  0  0  0  0  0  0
   46.3450   29.2480   47.5590 N   0  0  0  0  0  0  0  0  0  0  0  0
   47.4770   28.3620   47.4760 C   0  0  0  0  0  0  0  0  0  0  0  0
   46.9480   27.0610   46.8790 C   0  0  0  0  0  0  0  0  0  0  0  0
   45.7690   27.3460   46.0710 N   0  0  0  0  0  0  0  0  0  0  0  0
   44.6280   27.7110   46.9100 C   0  0  0  0  0  0  0  0  0  0  0  0
   45.0950   28.6570   47.9970 C   0  0  0  0  0  0  0  0  0  0  0  0
   43.9573   36.2594   45.1638 H   0  0  0  0  0  0  0  0  0  0  0  0
   45.0941   36.4913   42.9421 H   0  0  0  0  0  0  0  0  0  0  0  0
   48.5155   36.0537   42.5869 H   0  0  0  0  0  0  0  0  0  0  0  0
   49.7577   36.0969   40.4748 H   0  0  0  0  0  0  0  0  0  0  0  0
   45.3279   31.0581   36.7463 H   0  0  0  0  0  0  0  0  0  0  0  0
   46.8747   32.7894   35.3664 H   0  0  0  0  0  0  0  0  0  0  0  0
   47.9632   34.4936   37.1609 H   0  0  0  0  0  0  0  0  0  0  0  0
   47.1918   33.7758   47.6781 H   0  0  0  0  0  0  0  0  0  0  0  0
   47.4757   31.4381   49.0307 H   0  0  0  0  0  0  0  0  0  0  0  0
   48.2532   28.7930   46.8266 H   0  0  0  0  0  0  0  0  0  0  0  0
   47.9334   28.1968   48.4631 H   0  0  0  0  0  0  0  0  0  0  0  0
   47.7243   26.6040   46.2478 H   0  0  0  0  0  0  0  0  0  0  0  0
   46.6806   26.3661   47.6886 H   0  0  0  0  0  0  0  0  0  0  0  0
   45.9799   28.1264   45.4327 H   0  0  0  0  0  0  0  0  0  0  0  0
   43.8619   28.2059   46.2950 H   0  0  0  0  0  0  0  0  0  0  0  0
   44.1982   26.8065   47.3652 H   0  0  0  0  0  0  0  0  0  0  0  0
   45.2505   28.1031   48.9345 H   0  0  0  0  0  0  0  0  0  0  0  0
   44.3418   29.4380   48.1783 H   0  0  0  0  0  0  0  0  0  0  0  0
  1  6  2  0
  2  1  1  0
  3  2  2  0
  3  4  1  0
  4  5  2  0
  5  6  1  0
  5 18  1  0
  7  3  1  0
  8  7  2  0
  9  8  1  0
 10 11  1  0
 10  9  2  0
 11 12  2  0
 12  7  1  0
 13 11  1  0
 14 13  1  0
 15 14  2  0
 16 15  1  0
 16 17  2  0
 17 13  1  0
 18 19  2  0
 19 20  1  0
 21 23  1  0
 21 20  2  0
 22 18  1  0
 22 21  1  0
 23 28  1  0
 24 23  1  0
 25 24  1  0
 26 25  1  0
 26 27  1  0
 27 28  1  0
  1 29  1  0
  2 30  1  0
  8 31  1  0
  9 32  1  0
 15 33  1  0
 16 34  1  0
 17 35  1  0
 19 36  1  0
 20 37  1  0
 24 38  1  0
 24 39  1  0
 25 40  1  0
 25 41  1  0
 26 42  1  0
 27 43  1  0
 27 44  1  0
 28 45  1  0
 28 46  1  0
M  ISO  8  29  14  30  14  31  14  32  14  33  14  34  14  35  14  36  14
M  ISO  8  37  14  38  13  39  13  40  13  41  13  42   5  43  13  44  13
M  ISO  2  45  13  46  13
M  END
>  <minimizedAffinity>  (1) 
-6.51667929

>  <minimizedRMSD>  (1) 
2.22131705

$$$$
