
     RDKit          3D

 39 43  0  0  0  0  0  0  0  0999 V2000
   44.7420   35.4580   44.9110 C   0  0  0  0  0  0  0  0  0  0  0  0
   45.3830   35.6340   43.6860 C   0  0  0  0  0  0  0  0  0  0  0  0
   46.2850   34.6940   43.2550 C   0  0  0  0  0  0  0  0  0  0  0  0
   46.5000   33.6300   44.0670 N   0  0  0  0  0  0  0  0  0  0  0  0
   45.8860   33.4610   45.2400 C   0  0  0  0  0  0  0  0  0  0  0  0
   45.0040   34.3630   45.6820 N   0  0  0  0  0  0  0  0  0  0  0  0
   47.0300   34.7420   42.0040 C   0  0  0  0  0  0  0  0  0  0  0  0
   48.1570   35.4910   41.8130 C   0  0  0  0  0  0  0  0  0  0  0  0
   48.8740   35.5550   40.6520 C   0  0  0  0  0  0  0  0  0  0  0  0
   48.4310   34.8210   39.6220 N   0  0  0  0  0  0  0  0  0  0  0  0
   47.3370   34.0760   39.7600 C   0  0  0  0  0  0  0  0  0  0  0  0
   46.6330   34.0160   40.9110 N   0  0  0  0  0  0  0  0  0  0  0  0
   46.9150   33.3160   38.6280 N   0  0  0  0  0  0  0  0  0  0  0  0
   46.1380   32.2680   38.4520 N   0  0  0  0  0  0  0  0  0  0  0  0
   46.0600   31.9310   37.1730 C   0  0  0  0  0  0  0  0  0  0  0  0
   46.8540   32.8410   36.4850 C   0  0  0  0  0  0  0  0  0  0  0  0
   47.3910   33.7140   37.4170 C   0  0  0  0  0  0  0  0  0  0  0  0
   46.1260   32.3170   46.0990 C   0  0  0  0  0  0  0  0  0  0  0  0
   46.7470   32.5360   47.3150 C   0  0  0  0  0  0  0  0  0  0  0  0
   46.8620   31.3110   47.9420 C   0  0  0  0  0  0  0  0  0  0  0  0
   46.2950   30.3920   47.0550 C   0  0  0  0  0  0  0  0  0  0  0  0
   45.8860   31.0320   46.0060 O   0  0  0  0  0  0  0  0  0  0  0  0
   46.2190   29.0000   47.3360 N   0  0  0  0  0  0  0  0  0  0  0  0
   47.0930   28.0040   47.3300 N   0  0  0  0  0  0  0  0  0  0  0  0
   46.4590   26.8560   47.6870 C   0  0  0  0  0  0  0  0  0  0  0  0
   45.1320   27.1550   47.9270 C   0  0  0  0  0  0  0  0  0  0  0  0
   45.0010   28.5240   47.6970 C   0  0  0  0  0  0  0  0  0  0  0  0
   44.0179   36.2090   45.2597 H   0  0  0  0  0  0  0  0  0  0  0  0
   45.1676   36.5193   43.0697 H   0  0  0  0  0  0  0  0  0  0  0  0
   48.5157   36.0906   42.6626 H   0  0  0  0  0  0  0  0  0  0  0  0
   49.7745   36.1809   40.5664 H   0  0  0  0  0  0  0  0  0  0  0  0
   45.4833   31.0990   36.7426 H   0  0  0  0  0  0  0  0  0  0  0  0
   47.0248   32.8638   35.3986 H   0  0  0  0  0  0  0  0  0  0  0  0
   48.0664   34.5591   37.2180 H   0  0  0  0  0  0  0  0  0  0  0  0
   47.0861   33.5053   47.7093 H   0  0  0  0  0  0  0  0  0  0  0  0
   47.3046   31.1033   48.9274 H   0  0  0  0  0  0  0  0  0  0  0  0
   46.9221   25.8617   47.7703 H   0  0  0  0  0  0  0  0  0  0  0  0
   44.3407   26.4563   48.2362 H   0  0  0  0  0  0  0  0  0  0  0  0
   44.0763   29.1123   47.7913 H   0  0  0  0  0  0  0  0  0  0  0  0
  1  6  2  0
  2  1  1  0
  3  2  2  0
  3  4  1  0
  4  5  2  0
  5  6  1  0
  5 18  1  0
  7  3  1  0
  8  7  2  0
  9  8  1  0
 10 11  1  0
 10  9  2  0
 11 12  2  0
 12  7  1  0
 13 11  1  0
 14 13  1  0
 15 14  2  0
 16 15  1  0
 16 17  2  0
 17 13  1  0
 18 19  2  0
 19 20  1  0
 21 23  1  0
 21 20  2  0
 22 18  1  0
 22 21  1  0
 23 27  1  0
 24 23  1  0
 24 25  2  0
 25 26  1  0
 27 26  2  0
  1 28  1  0
  2 29  1  0
  8 30  1  0
  9 31  1  0
 15 32  1  0
 16 33  1  0
 17 34  1  0
 19 35  1  0
 20 36  1  0
 25 37  1  0
 26 38  1  0
 27 39  1  0
M  ISO  8  28  14  29  14  30  14  31  14  32  14  33  14  34  14  35  14
M  ISO  4  36  14  37  14  38  14  39  14
M  END
>  <minimizedAffinity>  (1) 
-6.43651772

>  <minimizedRMSD>  (1) 
2.11550355

$$$$
