
     RDKit          3D

 29 29  0  0  0  0  0  0  0  0999 V2000
   45.7460   34.9380   42.7540 C   0  0  0  0  0  0  0  0  0  0  0  0
   45.1530   34.5120   45.1360 C   0  0  0  0  0  0  0  0  0  0  0  0
   45.9820   34.1850   44.0270 C   0  0  0  0  0  0  0  0  0  0  0  0
   46.9340   33.1990   44.2240 C   0  0  0  0  0  0  0  0  0  0  0  0
   47.0360   32.5980   45.4380 N   0  0  0  0  0  0  0  0  0  0  0  0
   46.2260   32.9410   46.4640 C   0  0  0  0  0  0  0  0  0  0  0  0
   45.2850   33.8940   46.3210 N   0  0  0  0  0  0  0  0  0  0  0  0
   47.0690   35.1310   42.0610 C   0  0  0  0  0  0  0  0  0  0  0  0
   45.1530   36.2890   43.1090 C   0  0  0  0  0  0  0  0  0  0  0  0
   44.7630   34.1810   41.9190 C   0  0  0  0  0  0  0  0  0  0  0  0
   44.5630   34.6750   40.5960 N   0  0  0  0  0  0  0  0  0  0  0  0
   43.1750   34.8120   40.2330 C   0  0  0  0  0  0  0  0  0  0  0  0
   42.1960   34.4910   41.0140 N   0  0  0  0  0  0  0  0  0  0  0  0
   42.8200   35.3270   38.9500 N   0  0  0  0  0  0  0  0  0  0  0  0
   41.1990   34.5850   40.7670 H   0  0  0  0  0  0  0  0  0  0  0  0
   44.3846   35.2906   45.0199 H   0  0  0  0  0  0  0  0  0  0  0  0
   47.6036   32.9042   43.4025 H   0  0  0  0  0  0  0  0  0  0  0  0
   46.3372   32.4328   47.4332 H   0  0  0  0  0  0  0  0  0  0  0  0
   47.8634   35.2469   42.8130 H   0  0  0  0  0  0  0  0  0  0  0  0
   47.2847   34.2548   41.4319 H   0  0  0  0  0  0  0  0  0  0  0  0
   47.0254   36.0323   41.4319 H   0  0  0  0  0  0  0  0  0  0  0  0
   45.1072   36.3933   44.2031 H   0  0  0  0  0  0  0  0  0  0  0  0
   45.7834   37.0875   42.6906 H   0  0  0  0  0  0  0  0  0  0  0  0
   44.1386   36.3655   42.6906 H   0  0  0  0  0  0  0  0  0  0  0  0
   45.1153   33.1418   41.8417 H   0  0  0  0  0  0  0  0  0  0  0  0
   43.7936   34.2877   42.4278 H   0  0  0  0  0  0  0  0  0  0  0  0
   45.3377   34.9116   39.9598 H   0  0  0  0  0  0  0  0  0  0  0  0
   41.8280   35.4248   38.6908 H   0  0  0  0  0  0  0  0  0  0  0  0
   43.5559   35.6008   38.2834 H   0  0  0  0  0  0  0  0  0  0  0  0
  1  9  1  0
  1  3  1  0
  2  7  2  0
  3  4  2  0
  3  2  1  0
  4  5  1  0
  5  6  2  0
  7  6  1  0
  8  1  1  0
 10  1  1  0
 11 10  1  0
 12 11  1  0
 12 13  2  0
 14 12  1  0
 15 13  1  0
  2 16  1  0
  4 17  1  0
  6 18  1  0
  8 19  1  0
  8 20  1  0
  8 21  1  0
  9 22  1  0
  9 23  1  0
  9 24  1  0
 10 25  1  0
 10 26  1  0
 11 27  1  0
 14 28  1  0
 14 29  1  0
M  ISO  8  16  14  17  14  18  14  19   8  20   8  21   8  22   8  23   8
M  ISO  3  24   8  25   8  26   8
M  END
>  <minimizedAffinity>  (1) 
-4.40532351

>  <minimizedRMSD>  (1) 
0.811480641

$$$$
