
     RDKit          3D

 44 47  0  0  0  0  0  0  0  0999 V2000
   44.7640   35.6260   43.6700 C   0  0  0  0  0  0  0  0  0  0  0  0
   45.2090   35.4850   42.3520 C   0  0  0  0  0  0  0  0  0  0  0  0
   45.9900   34.4060   42.0040 C   0  0  0  0  0  0  0  0  0  0  0  0
   46.2830   33.5320   42.9820 N   0  0  0  0  0  0  0  0  0  0  0  0
   45.8680   33.6500   44.2420 C   0  0  0  0  0  0  0  0  0  0  0  0
   45.1090   34.6890   44.6080 N   0  0  0  0  0  0  0  0  0  0  0  0
   46.5150   34.1400   40.6800 C   0  0  0  0  0  0  0  0  0  0  0  0
   47.7420   34.5620   40.2410 C   0  0  0  0  0  0  0  0  0  0  0  0
   48.2710   34.3300   39.0010 C   0  0  0  0  0  0  0  0  0  0  0  0
   47.5090   33.6230   38.1410 N   0  0  0  0  0  0  0  0  0  0  0  0
   46.3130   33.1980   38.5330 C   0  0  0  0  0  0  0  0  0  0  0  0
   45.8130   33.4360   39.7530 N   0  0  0  0  0  0  0  0  0  0  0  0
   45.5480   32.4520   37.5760 N   0  0  0  0  0  0  0  0  0  0  0  0
   44.5290   31.6110   37.6450 N   0  0  0  0  0  0  0  0  0  0  0  0
   44.1750   31.1780   36.4440 C   0  0  0  0  0  0  0  0  0  0  0  0
   45.0290   31.7860   35.5440 C   0  0  0  0  0  0  0  0  0  0  0  0
   45.8980   32.5930   36.2650 C   0  0  0  0  0  0  0  0  0  0  0  0
   46.1890   32.7020   45.2910 C   0  0  0  0  0  0  0  0  0  0  0  0
   47.0940   31.6830   44.9650 C   0  0  0  0  0  0  0  0  0  0  0  0
   47.2330   30.9200   46.1190 C   0  0  0  0  0  0  0  0  0  0  0  0
   46.4110   31.5090   47.0810 C   0  0  0  0  0  0  0  0  0  0  0  0
   45.8340   32.5430   46.5280 O   0  0  0  0  0  0  0  0  0  0  0  0
   46.1910   31.0890   48.4880 C   0  0  0  0  0  0  0  0  0  0  0  0
   47.4910   30.7210   49.1730 C   0  0  0  0  0  0  0  0  0  0  0  0
   45.5710   32.1880   49.3210 C   0  0  0  0  0  0  0  0  0  0  0  0
   45.2740   29.8930   48.5840 C   0  0  0  0  0  0  0  0  0  0  0  0
   44.1392   36.4861   43.9527 H   0  0  0  0  0  0  0  0  0  0  0  0
   44.9356   36.2346   41.5948 H   0  0  0  0  0  0  0  0  0  0  0  0
   48.3564   35.1385   40.9482 H   0  0  0  0  0  0  0  0  0  0  0  0
   49.2674   34.7012   38.7193 H   0  0  0  0  0  0  0  0  0  0  0  0
   43.3626   30.4743   36.2099 H   0  0  0  0  0  0  0  0  0  0  0  0
   45.0215   31.6541   34.4520 H   0  0  0  0  0  0  0  0  0  0  0  0
   46.7063   33.2201   35.8607 H   0  0  0  0  0  0  0  0  0  0  0  0
   47.5911   31.5205   43.9973 H   0  0  0  0  0  0  0  0  0  0  0  0
   47.8652   30.0291   46.2481 H   0  0  0  0  0  0  0  0  0  0  0  0
   47.3544   30.7597   50.2638 H   0  0  0  0  0  0  0  0  0  0  0  0
   47.7867   29.7039   48.8763 H   0  0  0  0  0  0  0  0  0  0  0  0
   48.2759   31.4322   48.8763 H   0  0  0  0  0  0  0  0  0  0  0  0
   45.7014   31.9569   50.3885 H   0  0  0  0  0  0  0  0  0  0  0  0
   46.0625   33.1446   49.0903 H   0  0  0  0  0  0  0  0  0  0  0  0
   44.4980   32.2620   49.0903 H   0  0  0  0  0  0  0  0  0  0  0  0
   45.0915   29.6549   49.6423 H   0  0  0  0  0  0  0  0  0  0  0  0
   44.3185   30.1229   48.0898 H   0  0  0  0  0  0  0  0  0  0  0  0
   45.7440   29.0300   48.0898 H   0  0  0  0  0  0  0  0  0  0  0  0
  1  6  2  0
  2  1  1  0
  3  2  2  0
  3  4  1  0
  4  5  2  0
  5  6  1  0
  5 18  1  0
  7  3  1  0
  8  7  2  0
  9  8  1  0
 10 11  1  0
 10  9  2  0
 11 12  2  0
 12  7  1  0
 13 14  1  0
 13 11  1  0
 15 14  2  0
 16 17  2  0
 16 15  1  0
 17 13  1  0
 18 22  1  0
 19 18  2  0
 19 20  1  0
 20 21  2  0
 21 23  1  0
 22 21  1  0
 23 26  1  0
 23 24  1  0
 23 25  1  0
  1 27  1  0
  2 28  1  0
  8 29  1  0
  9 30  1  0
 15 31  1  0
 16 32  1  0
 17 33  1  0
 19 34  1  0
 20 35  1  0
 24 36  1  0
 24 37  1  0
 24 38  1  0
 25 39  1  0
 25 40  1  0
 25 41  1  0
 26 42  1  0
 26 43  1  0
 26 44  1  0
M  ISO  8  27  14  28  14  29  14  30  14  31  14  32  14  33  14  34  14
M  ISO  8  35  14  36   8  37   8  38   8  39   8  40   8  41   8  42   8
M  ISO  2  43   8  44   8
M  END
>  <minimizedAffinity>  (1) 
-5.96643257

>  <minimizedRMSD>  (1) 
1.58013499

$$$$
