
     RDKit          3D

 41 45  0  0  0  0  0  0  0  0999 V2000
   44.5050   36.0320   44.6410 C   0  0  0  0  0  0  0  0  0  0  0  0
   45.1640   35.9860   43.4140 C   0  0  0  0  0  0  0  0  0  0  0  0
   46.0420   34.9720   43.1280 C   0  0  0  0  0  0  0  0  0  0  0  0
   46.2390   34.0310   44.0790 N   0  0  0  0  0  0  0  0  0  0  0  0
   45.6030   34.0700   45.2680 C   0  0  0  0  0  0  0  0  0  0  0  0
   44.7430   35.0490   45.5670 N   0  0  0  0  0  0  0  0  0  0  0  0
   46.7850   34.8170   41.8920 C   0  0  0  0  0  0  0  0  0  0  0  0
   48.0210   35.3520   41.6590 C   0  0  0  0  0  0  0  0  0  0  0  0
   48.7450   35.2260   40.5160 C   0  0  0  0  0  0  0  0  0  0  0  0
   48.1980   34.5110   39.5210 N   0  0  0  0  0  0  0  0  0  0  0  0
   46.9880   33.9660   39.7020 C   0  0  0  0  0  0  0  0  0  0  0  0
   46.3080   34.1100   40.8330 N   0  0  0  0  0  0  0  0  0  0  0  0
   46.4400   33.2120   38.6170 N   0  0  0  0  0  0  0  0  0  0  0  0
   45.5000   32.2990   38.4930 N   0  0  0  0  0  0  0  0  0  0  0  0
   45.3770   31.9050   37.2280 C   0  0  0  0  0  0  0  0  0  0  0  0
   46.3000   32.6170   36.5020 C   0  0  0  0  0  0  0  0  0  0  0  0
   46.9810   33.4510   37.3810 C   0  0  0  0  0  0  0  0  0  0  0  0
   45.8060   33.0630   46.2960 C   0  0  0  0  0  0  0  0  0  0  0  0
   45.1250   33.2280   47.5130 C   0  0  0  0  0  0  0  0  0  0  0  0
   45.4710   32.1670   48.3150 C   0  0  0  0  0  0  0  0  0  0  0  0
   46.3480   31.3970   47.5530 C   0  0  0  0  0  0  0  0  0  0  0  0
   46.4970   31.9710   46.4020 O   0  0  0  0  0  0  0  0  0  0  0  0
   46.9640   30.1630   48.0290 C   0  0  0  0  0  0  0  0  0  0  0  0
   46.3840   29.0670   47.8450 O   0  0  0  0  0  0  0  0  0  0  0  0
   48.2490   30.1800   48.7180 C   0  0  0  0  0  0  0  0  0  0  0  0
   49.4200   29.7000   48.1510 C   0  0  0  0  0  0  0  0  0  0  0  0
   50.3750   29.8880   49.0850 N   0  0  0  0  0  0  0  0  0  0  0  0
   49.8260   30.4570   50.1790 C   0  0  0  0  0  0  0  0  0  0  0  0
   48.5030   30.6410   49.9560 N   0  0  0  0  0  0  0  0  0  0  0  0
   43.8017   36.8478   44.8643 H   0  0  0  0  0  0  0  0  0  0  0  0
   44.9780   36.7715   42.6668 H   0  0  0  0  0  0  0  0  0  0  0  0
   48.4717   35.9393   42.4726 H   0  0  0  0  0  0  0  0  0  0  0  0
   49.7367   35.6901   40.4110 H   0  0  0  0  0  0  0  0  0  0  0  0
   44.6728   31.1547   36.8393 H   0  0  0  0  0  0  0  0  0  0  0  0
   46.4701   32.5408   35.4179 H   0  0  0  0  0  0  0  0  0  0  0  0
   47.7878   34.1572   37.1351 H   0  0  0  0  0  0  0  0  0  0  0  0
   44.4435   34.0508   47.7748 H   0  0  0  0  0  0  0  0  0  0  0  0
   45.1283   31.9677   49.3411 H   0  0  0  0  0  0  0  0  0  0  0  0
   49.5439   29.2591   47.1509 H   0  0  0  0  0  0  0  0  0  0  0  0
   50.3643   30.7267   51.0996 H   0  0  0  0  0  0  0  0  0  0  0  0
   47.8220   31.0545   50.6089 H   0  0  0  0  0  0  0  0  0  0  0  0
  1  6  2  0
  2  1  1  0
  3  2  2  0
  3  4  1  0
  4  5  2  0
  5  6  1  0
  5 18  1  0
  7  3  1  0
  8  7  2  0
  9  8  1  0
 10 11  1  0
 10  9  2  0
 11 12  2  0
 12  7  1  0
 13 11  1  0
 14 13  1  0
 15 14  2  0
 16 15  1  0
 16 17  2  0
 17 13  1  0
 18 22  1  0
 18 19  2  0
 19 20  1  0
 21 23  1  0
 21 20  2  0
 22 21  1  0
 23 25  1  0
 24 23  2  0
 25 29  1  0
 26 25  2  0
 26 27  1  0
 27 28  2  0
 29 28  1  0
  1 30  1  0
  2 31  1  0
  8 32  1  0
  9 33  1  0
 15 34  1  0
 16 35  1  0
 17 36  1  0
 19 37  1  0
 20 38  1  0
 26 39  1  0
 28 40  1  0
 29 41  1  0
M  ISO  8  30  14  31  14  32  14  33  14  34  14  35  14  36  14  37  14
M  ISO  4  38  14  39  14  40  14  41   9
M  END
>  <minimizedAffinity>  (1) 
-7.38963747

>  <minimizedRMSD>  (1) 
2.33441257

$$$$
