
     RDKit          3D

 34 37  0  0  0  0  0  0  0  0999 V2000
   44.4360   36.1080   44.5830 C   0  0  0  0  0  0  0  0  0  0  0  0
   45.0920   36.0140   43.3540 C   0  0  0  0  0  0  0  0  0  0  0  0
   45.9770   35.0030   43.1210 C   0  0  0  0  0  0  0  0  0  0  0  0
   46.1940   34.1050   44.1170 N   0  0  0  0  0  0  0  0  0  0  0  0
   45.5630   34.1920   45.3040 C   0  0  0  0  0  0  0  0  0  0  0  0
   44.6910   35.1760   45.5550 N   0  0  0  0  0  0  0  0  0  0  0  0
   46.7190   34.7950   41.8910 C   0  0  0  0  0  0  0  0  0  0  0  0
   47.9860   35.2680   41.6650 C   0  0  0  0  0  0  0  0  0  0  0  0
   48.7130   35.0930   40.5200 C   0  0  0  0  0  0  0  0  0  0  0  0
   48.1300   34.3900   39.5300 N   0  0  0  0  0  0  0  0  0  0  0  0
   46.9020   33.9130   39.7090 C   0  0  0  0  0  0  0  0  0  0  0  0
   46.2120   34.1000   40.8390 N   0  0  0  0  0  0  0  0  0  0  0  0
   46.3270   33.1730   38.6260 N   0  0  0  0  0  0  0  0  0  0  0  0
   45.3440   32.3030   38.5040 N   0  0  0  0  0  0  0  0  0  0  0  0
   45.2050   31.8980   37.2470 C   0  0  0  0  0  0  0  0  0  0  0  0
   46.1720   32.5610   36.5160 C   0  0  0  0  0  0  0  0  0  0  0  0
   46.8790   33.3660   37.3930 C   0  0  0  0  0  0  0  0  0  0  0  0
   45.7800   33.2440   46.3830 C   0  0  0  0  0  0  0  0  0  0  0  0
   46.9190   32.4380   46.3060 C   0  0  0  0  0  0  0  0  0  0  0  0
   46.9160   31.6320   47.4160 C   0  0  0  0  0  0  0  0  0  0  0  0
   45.7600   31.9850   48.1300 C   0  0  0  0  0  0  0  0  0  0  0  0
   45.1550   32.9210   47.4730 O   0  0  0  0  0  0  0  0  0  0  0  0
   45.3760   31.3580   49.3890 C   0  0  0  0  0  0  0  0  0  0  0  0
   44.9390   30.1770   49.3800 O   0  0  0  0  0  0  0  0  0  0  0  0
   43.7209   36.9228   44.7694 H   0  0  0  0  0  0  0  0  0  0  0  0
   44.8939   36.7593   42.5696 H   0  0  0  0  0  0  0  0  0  0  0  0
   48.4599   35.8391   42.4770 H   0  0  0  0  0  0  0  0  0  0  0  0
   49.7264   35.5070   40.4125 H   0  0  0  0  0  0  0  0  0  0  0  0
   44.4669   31.1780   36.8640 H   0  0  0  0  0  0  0  0  0  0  0  0
   46.3481   32.4665   35.4343 H   0  0  0  0  0  0  0  0  0  0  0  0
   47.7199   34.0302   37.1448 H   0  0  0  0  0  0  0  0  0  0  0  0
   47.6747   32.4480   45.5068 H   0  0  0  0  0  0  0  0  0  0  0  0
   47.6614   30.8705   47.6888 H   0  0  0  0  0  0  0  0  0  0  0  0
   45.4670   31.9103   50.3360 H   0  0  0  0  0  0  0  0  0  0  0  0
  1  6  2  0
  2  1  1  0
  3  2  2  0
  3  4  1  0
  4  5  2  0
  5  6  1  0
  5 18  1  0
  7  3  1  0
  8  7  2  0
  9  8  1  0
 10 11  1  0
 10  9  2  0
 11 12  2  0
 12  7  1  0
 13 11  1  0
 14 13  1  0
 15 14  2  0
 16 15  1  0
 16 17  2  0
 17 13  1  0
 18 22  1  0
 19 18  2  0
 19 20  1  0
 20 21  2  0
 21 23  1  0
 22 21  1  0
 24 23  2  0
  1 25  1  0
  2 26  1  0
  8 27  1  0
  9 28  1  0
 15 29  1  0
 16 30  1  0
 17 31  1  0
 19 32  1  0
 20 33  1  0
 23 34  1  0
M  ISO  8  25  14  26  14  27  14  28  14  29  14  30  14  31  14  32  14
M  ISO  2  33  14  34   6
M  END
>  <minimizedAffinity>  (1) 
-6.77282667

>  <minimizedRMSD>  (1) 
0.451242864

$$$$
