
     RDKit          3D

 27 28  0  0  0  0  0  0  0  0999 V2000
   44.5440   35.4070   45.1390 C   0  0  0  0  0  0  0  0  0  0  0  0
   45.3460   35.2640   43.9970 C   0  0  0  0  0  0  0  0  0  0  0  0
   46.3060   34.2590   44.0230 C   0  0  0  0  0  0  0  0  0  0  0  0
   46.4360   33.4740   45.1120 N   0  0  0  0  0  0  0  0  0  0  0  0
   45.6390   33.6480   46.1970 C   0  0  0  0  0  0  0  0  0  0  0  0
   44.6950   34.6130   46.2070 N   0  0  0  0  0  0  0  0  0  0  0  0
   47.1850   33.9730   42.9720 N   0  0  0  0  0  0  0  0  0  0  0  0
   48.4250   34.4780   42.6990 C   0  0  0  0  0  0  0  0  0  0  0  0
   49.1340   34.0550   41.6040 C   0  0  0  0  0  0  0  0  0  0  0  0
   48.6580   33.1200   40.7320 C   0  0  0  0  0  0  0  0  0  0  0  0
   49.4530   32.7400   39.6280 N   0  0  0  0  0  0  0  0  0  0  0  0
   47.4350   32.6420   41.0270 N   0  0  0  0  0  0  0  0  0  0  0  0
   46.7190   33.0380   42.0910 C   0  0  0  0  0  0  0  0  0  0  0  0
   45.6160   32.4140   42.1050 O   0  0  0  0  0  0  0  0  0  0  0  0
   45.1820   36.1280   42.8400 C   0  0  0  0  0  0  0  0  0  0  0  0
   44.0290   35.6330   41.9970 C   0  0  0  0  0  0  0  0  0  0  0  0
   43.7721   36.1905   45.1578 H   0  0  0  0  0  0  0  0  0  0  0  0
   45.7634   32.9974   47.0752 H   0  0  0  0  0  0  0  0  0  0  0  0
   48.8610   35.2350   43.3675 H   0  0  0  0  0  0  0  0  0  0  0  0
   50.1285   34.4879   41.4210 H   0  0  0  0  0  0  0  0  0  0  0  0
   50.3801   33.1670   39.4897 H   0  0  0  0  0  0  0  0  0  0  0  0
   49.1056   32.0359   38.9613 H   0  0  0  0  0  0  0  0  0  0  0  0
   44.9754   37.1548   43.1762 H   0  0  0  0  0  0  0  0  0  0  0  0
   46.1045   36.1154   42.2409 H   0  0  0  0  0  0  0  0  0  0  0  0
   43.2179   35.2848   42.6534 H   0  0  0  0  0  0  0  0  0  0  0  0
   43.6607   36.4523   41.3621 H   0  0  0  0  0  0  0  0  0  0  0  0
   44.3694   34.8017   41.3621 H   0  0  0  0  0  0  0  0  0  0  0  0
  1  6  2  0
  2  3  2  0
  2  1  1  0
  3  4  1  0
  4  5  2  0
  5  6  1  0
  7  3  1  0
  8  7  1  0
  9  8  2  0
 10 12  2  0
 10  9  1  0
 11 10  1  0
 12 13  1  0
 13 14  2  0
 13  7  1  0
 15  2  1  0
 16 15  1  0
  1 17  1  0
  5 18  1  0
  8 19  1  0
  9 20  1  0
 11 21  1  0
 11 22  1  0
 15 23  1  0
 15 24  1  0
 16 25  1  0
 16 26  1  0
 16 27  1  0
M  ISO  8  17  14  18  14  19  14  20  14  23   8  24   8  25   8  26   8
M  ISO  1  27   8
M  END
>  <minimizedAffinity>  (1) 
-4.54291201

>  <minimizedRMSD>  (1) 
2.13905454

$$$$
