
     RDKit          3D

 27 29  0  0  0  0  0  0  0  0999 V2000
   45.7150   35.4780   43.2360 C   0  0  0  0  0  0  0  0  0  0  0  0
   46.3680   34.2770   43.5780 C   0  0  0  0  0  0  0  0  0  0  0  0
   46.0430   33.7270   44.8100 C   0  0  0  0  0  0  0  0  0  0  0  0
   45.1380   34.3440   45.6200 N   0  0  0  0  0  0  0  0  0  0  0  0
   44.5410   35.5010   45.2350 C   0  0  0  0  0  0  0  0  0  0  0  0
   44.8270   36.0700   44.0440 N   0  0  0  0  0  0  0  0  0  0  0  0
   46.5960   32.5210   45.3160 N   0  0  0  0  0  0  0  0  0  0  0  0
   47.3370   31.4820   44.8260 C   0  0  0  0  0  0  0  0  0  0  0  0
   47.5820   30.5960   45.7840 N   0  0  0  0  0  0  0  0  0  0  0  0
   46.9960   31.0580   46.9060 C   0  0  0  0  0  0  0  0  0  0  0  0
   47.0080   30.4400   48.1380 C   0  0  0  0  0  0  0  0  0  0  0  0
   46.3680   31.0430   49.1690 N   0  0  0  0  0  0  0  0  0  0  0  0
   45.7620   32.2270   48.8830 C   0  0  0  0  0  0  0  0  0  0  0  0
   45.7460   32.8350   47.6840 N   0  0  0  0  0  0  0  0  0  0  0  0
   46.3730   32.2620   46.6400 C   0  0  0  0  0  0  0  0  0  0  0  0
   47.3220   33.6510   42.6980 C   0  0  0  0  0  0  0  0  0  0  0  0
   48.6090   34.4700   42.6890 C   0  0  0  0  0  0  0  0  0  0  0  0
   45.9438   35.9471   42.2677 H   0  0  0  0  0  0  0  0  0  0  0  0
   43.8126   35.9827   45.9039 H   0  0  0  0  0  0  0  0  0  0  0  0
   47.6816   31.3926   43.7852 H   0  0  0  0  0  0  0  0  0  0  0  0
   47.5251   29.4797   48.2809 H   0  0  0  0  0  0  0  0  0  0  0  0
   45.2377   32.7326   49.7073 H   0  0  0  0  0  0  0  0  0  0  0  0
   47.5367   32.6323   43.0531 H   0  0  0  0  0  0  0  0  0  0  0  0
   46.9085   33.6014   41.6799 H   0  0  0  0  0  0  0  0  0  0  0  0
   48.9235   34.6701   43.7239 H   0  0  0  0  0  0  0  0  0  0  0  0
   49.3979   33.9075   42.1683 H   0  0  0  0  0  0  0  0  0  0  0  0
   48.4336   35.4229   42.1683 H   0  0  0  0  0  0  0  0  0  0  0  0
  1  2  2  0
  1  6  1  0
  2  3  1  0
  3  7  1  0
  3  4  2  0
  5  4  1  0
  6  5  2  0
  7 15  1  0
  8  7  1  0
  8  9  2  0
  9 10  1  0
 10 11  2  0
 11 12  1  0
 13 12  2  0
 14 13  1  0
 15 10  1  0
 15 14  2  0
 16  2  1  0
 17 16  1  0
  1 18  1  0
  5 19  1  0
  8 20  1  0
 11 21  1  0
 13 22  1  0
 16 23  1  0
 16 24  1  0
 17 25  1  0
 17 26  1  0
 17 27  1  0
M  ISO  8  18  14  19  14  20  14  21  14  22  14  23   8  24   8  25   8
M  ISO  2  26   8  27   8
M  END
>  <minimizedAffinity>  (1) 
-5.01744795

>  <minimizedRMSD>  (1) 
3.19670439

$$$$
