
     RDKit          3D

 37 38  0  0  0  0  0  0  0  0999 V2000
   46.8430   32.5710   44.2430 C   0  0  0  0  0  0  0  0  0  0  0  0
   46.9090   34.6310   42.8080 C   0  0  0  0  0  0  0  0  0  0  0  0
   47.5800   33.4970   43.3220 C   0  0  0  0  0  0  0  0  0  0  0  0
   48.9170   33.2970   42.9430 C   0  0  0  0  0  0  0  0  0  0  0  0
   49.5080   34.1980   42.1030 N   0  0  0  0  0  0  0  0  0  0  0  0
   48.8170   35.2780   41.6350 C   0  0  0  0  0  0  0  0  0  0  0  0
   47.5360   35.4790   41.9900 N   0  0  0  0  0  0  0  0  0  0  0  0
   47.3280   31.1710   44.0490 C   0  0  0  0  0  0  0  0  0  0  0  0
   45.3730   32.6430   43.8390 C   0  0  0  0  0  0  0  0  0  0  0  0
   46.9340   33.0900   45.6350 C   0  0  0  0  0  0  0  0  0  0  0  0
   46.4220   32.2960   46.6760 N   0  0  0  0  0  0  0  0  0  0  0  0
   47.1720   31.2270   47.1950 C   0  0  0  0  0  0  0  0  0  0  0  0
   47.3200   31.3260   48.7160 C   0  0  0  0  0  0  0  0  0  0  0  0
   45.9740   31.4920   49.3730 C   0  0  0  0  0  0  0  0  0  0  0  0
   44.8650   31.5940   48.3320 C   0  0  0  0  0  0  0  0  0  0  0  0
   45.2670   32.7120   47.3770 C   0  0  0  0  0  0  0  0  0  0  0  0
   45.8606   34.8158   43.0850 H   0  0  0  0  0  0  0  0  0  0  0  0
   49.4797   32.4287   43.3164 H   0  0  0  0  0  0  0  0  0  0  0  0
   49.3133   35.9912   40.9605 H   0  0  0  0  0  0  0  0  0  0  0  0
   47.4911   30.7002   45.0297 H   0  0  0  0  0  0  0  0  0  0  0  0
   46.5763   30.5971   43.4872 H   0  0  0  0  0  0  0  0  0  0  0  0
   48.2736   31.1851   43.4872 H   0  0  0  0  0  0  0  0  0  0  0  0
   44.7456   32.6737   44.7420 H   0  0  0  0  0  0  0  0  0  0  0  0
   45.2009   33.5507   43.2419 H   0  0  0  0  0  0  0  0  0  0  0  0
   45.1130   31.7565   43.2419 H   0  0  0  0  0  0  0  0  0  0  0  0
   47.9991   33.2618   45.8498 H   0  0  0  0  0  0  0  0  0  0  0  0
   46.2931   33.9840   45.6344 H   0  0  0  0  0  0  0  0  0  0  0  0
   46.6658   30.2825   46.9466 H   0  0  0  0  0  0  0  0  0  0  0  0
   48.1769   31.2643   46.7491 H   0  0  0  0  0  0  0  0  0  0  0  0
   47.7950   30.4082   49.0930 H   0  0  0  0  0  0  0  0  0  0  0  0
   47.9402   32.2027   48.9544 H   0  0  0  0  0  0  0  0  0  0  0  0
   45.7805   30.6240   50.0204 H   0  0  0  0  0  0  0  0  0  0  0  0
   45.9853   32.4197   49.9640 H   0  0  0  0  0  0  0  0  0  0  0  0
   44.7686   30.6442   47.7856 H   0  0  0  0  0  0  0  0  0  0  0  0
   43.8946   31.8055   48.8049 H   0  0  0  0  0  0  0  0  0  0  0  0
   45.4856   33.6278   47.9458 H   0  0  0  0  0  0  0  0  0  0  0  0
   44.4492   32.9243   46.6726 H   0  0  0  0  0  0  0  0  0  0  0  0
  1 10  1  0
  2  3  2  0
  3  1  1  0
  4  3  1  0
  5  4  2  0
  6  7  2  0
  6  5  1  0
  7  2  1  0
  8  1  1  0
  9  1  1  0
 10 11  1  0
 11 12  1  0
 11 16  1  0
 12 13  1  0
 13 14  1  0
 15 14  1  0
 16 15  1  0
  2 17  1  0
  4 18  1  0
  6 19  1  0
  8 20  1  0
  8 21  1  0
  8 22  1  0
  9 23  1  0
  9 24  1  0
  9 25  1  0
 10 26  1  0
 10 27  1  0
 12 28  1  0
 12 29  1  0
 13 30  1  0
 13 31  1  0
 14 32  1  0
 14 33  1  0
 15 34  1  0
 15 35  1  0
 16 36  1  0
 16 37  1  0
M  ISO  8  17  14  18  14  19  14  20   8  21   8  22   8  23   8  24   8
M  ISO  8  25   8  26   8  27   8  28  13  29  13  30  13  31  13  32  13
M  ISO  5  33  13  34  13  35  13  36  13  37  13
M  END
>  <minimizedAffinity>  (1) 
-4.17441177

>  <minimizedRMSD>  (1) 
6.69830179

$$$$
