
     RDKit          3D

 23 23  0  0  0  0  0  0  0  0999 V2000
   45.6080   34.6270   41.4640 C   0  0  0  0  0  0  0  0  0  0  0  0
   46.8660   34.0280   41.3000 C   0  0  0  0  0  0  0  0  0  0  0  0
   47.6060   33.7900   42.4470 C   0  0  0  0  0  0  0  0  0  0  0  0
   47.0860   34.1440   43.6690 N   0  0  0  0  0  0  0  0  0  0  0  0
   45.8690   34.7190   43.7810 C   0  0  0  0  0  0  0  0  0  0  0  0
   45.1350   34.9570   42.6740 N   0  0  0  0  0  0  0  0  0  0  0  0
   48.8830   33.1780   42.4890 N   0  0  0  0  0  0  0  0  0  0  0  0
   50.0960   33.9330   42.5860 C   0  0  0  0  0  0  0  0  0  0  0  0
   50.0350   35.1780   42.9990 N   0  0  0  0  0  0  0  0  0  0  0  0
   51.3810   33.4180   42.2580 N   0  0  0  0  0  0  0  0  0  0  0  0
   50.8310   35.8050   43.1050 H   0  0  0  0  0  0  0  0  0  0  0  0
   47.4050   33.6550   40.0230 C   0  0  0  0  0  0  0  0  0  0  0  0
   48.2690   34.7450   39.4550 C   0  0  0  0  0  0  0  0  0  0  0  0
   44.9929   34.8315   40.5752 H   0  0  0  0  0  0  0  0  0  0  0  0
   45.4773   34.9925   44.7718 H   0  0  0  0  0  0  0  0  0  0  0  0
   48.9412   32.1505   42.4482 H   0  0  0  0  0  0  0  0  0  0  0  0
   52.2145   34.0160   42.3506 H   0  0  0  0  0  0  0  0  0  0  0  0
   51.4778   32.4471   41.9279 H   0  0  0  0  0  0  0  0  0  0  0  0
   48.0097   32.7438   40.1417 H   0  0  0  0  0  0  0  0  0  0  0  0
   46.5681   33.4796   39.3310 H   0  0  0  0  0  0  0  0  0  0  0  0
   48.7234   35.3183   40.2765 H   0  0  0  0  0  0  0  0  0  0  0  0
   49.0619   34.2995   38.8363 H   0  0  0  0  0  0  0  0  0  0  0  0
   47.6542   35.4153   38.8363 H   0  0  0  0  0  0  0  0  0  0  0  0
  1  6  2  0
  2  1  1  0
  2  3  2  0
  3  7  1  0
  3  4  1  0
  4  5  2  0
  6  5  1  0
  7  8  1  0
  8  9  2  0
  9 11  1  0
 10  8  1  0
 12  2  1  0
 13 12  1  0
  1 14  1  0
  5 15  1  0
  7 16  1  0
 10 17  1  0
 10 18  1  0
 12 19  1  0
 12 20  1  0
 13 21  1  0
 13 22  1  0
 13 23  1  0
M  ISO  7  14  14  15  14  19   8  20   8  21   8  22   8  23   8
M  END
>  <minimizedAffinity>  (1) 
-4.38343287

>  <minimizedRMSD>  (1) 
2.0604775

$$$$
