
     RDKit          3D

 22 23  0  0  0  0  0  0  0  0999 V2000
   44.8590   34.9840   44.9430 C   0  0  0  0  0  0  0  0  0  0  0  0
   45.4300   35.1570   43.6820 C   0  0  0  0  0  0  0  0  0  0  0  0
   46.5200   34.3680   43.3570 C   0  0  0  0  0  0  0  0  0  0  0  0
   46.9810   33.4690   44.2770 N   0  0  0  0  0  0  0  0  0  0  0  0
   46.4080   33.3200   45.4940 C   0  0  0  0  0  0  0  0  0  0  0  0
   45.3460   34.0780   45.8300 N   0  0  0  0  0  0  0  0  0  0  0  0
   47.1440   34.4930   42.0960 N   0  0  0  0  0  0  0  0  0  0  0  0
   48.2450   35.3020   42.1130 C   0  0  0  0  0  0  0  0  0  0  0  0
   48.7780   35.3680   40.8790 N   0  0  0  0  0  0  0  0  0  0  0  0
   47.9890   34.5890   40.1010 C   0  0  0  0  0  0  0  0  0  0  0  0
   47.0040   34.0650   40.8510 N   0  0  0  0  0  0  0  0  0  0  0  0
   44.8560   36.1290   42.7920 C   0  0  0  0  0  0  0  0  0  0  0  0
   43.7470   35.4760   41.9910 C   0  0  0  0  0  0  0  0  0  0  0  0
   43.9912   35.5977   45.2265 H   0  0  0  0  0  0  0  0  0  0  0  0
   46.8077   32.5830   46.2060 H   0  0  0  0  0  0  0  0  0  0  0  0
   48.6363   35.8206   43.0006 H   0  0  0  0  0  0  0  0  0  0  0  0
   48.1318   34.4128   39.0246 H   0  0  0  0  0  0  0  0  0  0  0  0
   44.4448   36.9654   43.3762 H   0  0  0  0  0  0  0  0  0  0  0  0
   45.6307   36.5092   42.1099 H   0  0  0  0  0  0  0  0  0  0  0  0
   43.0065   35.0400   42.6777 H   0  0  0  0  0  0  0  0  0  0  0  0
   43.2591   36.2310   41.3570 H   0  0  0  0  0  0  0  0  0  0  0  0
   44.1706   34.6831   41.3570 H   0  0  0  0  0  0  0  0  0  0  0  0
  1  6  2  0
  2  1  1  0
  3  2  2  0
  3  4  1  0
  4  5  2  0
  5  6  1  0
  7  8  1  0
  7  3  1  0
  9  8  2  0
 10 11  2  0
 10  9  1  0
 11  7  1  0
 12  2  1  0
 13 12  1  0
  1 14  1  0
  5 15  1  0
  8 16  1  0
 10 17  1  0
 12 18  1  0
 12 19  1  0
 13 20  1  0
 13 21  1  0
 13 22  1  0
M  ISO  8  14  14  15  14  16  14  17  14  18   8  19   8  20   8  21   8
M  ISO  1  22   8
M  END
>  <minimizedAffinity>  (1) 
-4.21768236

>  <minimizedRMSD>  (1) 
2.45837164

$$$$
