
     RDKit          3D

 24 25  0  0  0  0  0  0  0  0999 V2000
   46.0640   34.7950   43.4310 C   0  0  0  0  0  0  0  0  0  0  0  0
   46.5610   33.7430   44.2450 C   0  0  0  0  0  0  0  0  0  0  0  0
   45.9900   33.6210   45.5050 C   0  0  0  0  0  0  0  0  0  0  0  0
   45.0200   34.4970   45.8610 N   0  0  0  0  0  0  0  0  0  0  0  0
   44.5730   35.4810   45.0690 C   0  0  0  0  0  0  0  0  0  0  0  0
   45.1020   35.6240   43.8490 N   0  0  0  0  0  0  0  0  0  0  0  0
   46.3650   32.6130   46.4820 C   0  0  0  0  0  0  0  0  0  0  0  0
   47.2250   32.6230   47.5580 C   0  0  0  0  0  0  0  0  0  0  0  0
   47.3830   31.5030   48.3440 C   0  0  0  0  0  0  0  0  0  0  0  0
   46.7260   30.3550   48.1200 N   0  0  0  0  0  0  0  0  0  0  0  0
   45.8900   30.3560   47.0690 C   0  0  0  0  0  0  0  0  0  0  0  0
   45.7090   31.4280   46.2790 N   0  0  0  0  0  0  0  0  0  0  0  0
   47.6140   32.8730   43.7690 C   0  0  0  0  0  0  0  0  0  0  0  0
   48.5970   33.7010   42.9480 C   0  0  0  0  0  0  0  0  0  0  0  0
   46.4842   34.9323   42.4237 H   0  0  0  0  0  0  0  0  0  0  0  0
   43.7821   36.1616   45.4173 H   0  0  0  0  0  0  0  0  0  0  0  0
   47.7921   33.5360   47.7922 H   0  0  0  0  0  0  0  0  0  0  0  0
   48.0795   31.5521   49.1940 H   0  0  0  0  0  0  0  0  0  0  0  0
   45.3278   29.4376   46.8445 H   0  0  0  0  0  0  0  0  0  0  0  0
   48.1357   32.4203   44.6251 H   0  0  0  0  0  0  0  0  0  0  0  0
   47.1869   32.0723   43.1473 H   0  0  0  0  0  0  0  0  0  0  0  0
   49.2603   34.2597   43.6246 H   0  0  0  0  0  0  0  0  0  0  0  0
   49.1984   33.0333   42.3136 H   0  0  0  0  0  0  0  0  0  0  0  0
   48.0412   34.4072   42.3136 H   0  0  0  0  0  0  0  0  0  0  0  0
  1  6  2  0
  1  2  1  0
  2  3  2  0
  3  4  1  0
  3  7  1  0
  5  4  2  0
  6  5  1  0
  7  8  2  0
  8  9  1  0
 10  9  2  0
 11 10  1  0
 12  7  1  0
 12 11  2  0
 13  2  1  0
 14 13  1  0
  1 15  1  0
  5 16  1  0
  8 17  1  0
  9 18  1  0
 11 19  1  0
 13 20  1  0
 13 21  1  0
 14 22  1  0
 14 23  1  0
 14 24  1  0
M  ISO  8  15  14  16  14  17  14  18  14  19  14  20   8  21   8  22   8
M  ISO  2  23   8  24   8
M  END
>  <minimizedAffinity>  (1) 
-4.32211542

>  <minimizedRMSD>  (1) 
3.88066697

$$$$
