
     RDKit          3D

 25 26  0  0  0  0  0  0  0  0999 V2000
   46.1160   35.0300   43.2210 C   0  0  0  0  0  0  0  0  0  0  0  0
   46.6180   33.9610   43.9760 C   0  0  0  0  0  0  0  0  0  0  0  0
   46.0170   33.7540   45.2080 C   0  0  0  0  0  0  0  0  0  0  0  0
   45.0150   34.5860   45.5780 N   0  0  0  0  0  0  0  0  0  0  0  0
   44.5600   35.5990   44.8350 C   0  0  0  0  0  0  0  0  0  0  0  0
   45.1160   35.8210   43.6480 N   0  0  0  0  0  0  0  0  0  0  0  0
   46.3860   32.7100   46.1510 C   0  0  0  0  0  0  0  0  0  0  0  0
   47.1230   32.6900   47.3130 C   0  0  0  0  0  0  0  0  0  0  0  0
   47.3080   31.5540   48.0350 C   0  0  0  0  0  0  0  0  0  0  0  0
   46.7880   30.3410   47.6770 C   0  0  0  0  0  0  0  0  0  0  0  0
   46.0530   30.3770   46.5120 C   0  0  0  0  0  0  0  0  0  0  0  0
   45.8660   31.4930   45.7960 N   0  0  0  0  0  0  0  0  0  0  0  0
   47.7040   33.1600   43.4750 C   0  0  0  0  0  0  0  0  0  0  0  0
   48.7280   34.0760   42.8200 C   0  0  0  0  0  0  0  0  0  0  0  0
   46.5601   35.2308   42.2349 H   0  0  0  0  0  0  0  0  0  0  0  0
   43.7410   36.2371   45.1985 H   0  0  0  0  0  0  0  0  0  0  0  0
   47.5780   33.6259   47.6695 H   0  0  0  0  0  0  0  0  0  0  0  0
   47.9073   31.6131   48.9555 H   0  0  0  0  0  0  0  0  0  0  0  0
   46.9419   29.4233   48.2636 H   0  0  0  0  0  0  0  0  0  0  0  0
   45.5973   29.4427   46.1523 H   0  0  0  0  0  0  0  0  0  0  0  0
   48.1745   32.6140   44.3059 H   0  0  0  0  0  0  0  0  0  0  0  0
   47.3254   32.4359   42.7386 H   0  0  0  0  0  0  0  0  0  0  0  0
   49.3073   34.5942   43.5984 H   0  0  0  0  0  0  0  0  0  0  0  0
   49.4072   33.4785   42.1941 H   0  0  0  0  0  0  0  0  0  0  0  0
   48.2096   34.8173   42.1941 H   0  0  0  0  0  0  0  0  0  0  0  0
  1  6  2  0
  1  2  1  0
  2  3  2  0
  3  4  1  0
  3  7  1  0
  5  4  2  0
  6  5  1  0
  7  8  2  0
  8  9  1  0
 10  9  2  0
 11 10  1  0
 12  7  1  0
 12 11  2  0
 13  2  1  0
 14 13  1  0
  1 15  1  0
  5 16  1  0
  8 17  1  0
  9 18  1  0
 10 19  1  0
 11 20  1  0
 13 21  1  0
 13 22  1  0
 14 23  1  0
 14 24  1  0
 14 25  1  0
M  ISO  8  15  14  16  14  17  14  18  14  19  14  20  14  21   8  22   8
M  ISO  3  23   8  24   8  25   8
M  END
>  <minimizedAffinity>  (1) 
-4.3928709

>  <minimizedRMSD>  (1) 
3.65696335

$$$$
