
     RDKit          3D

 23 24  0  0  0  0  0  0  0  0999 V2000
   45.3340   36.0150   43.1200 C   0  0  0  0  0  0  0  0  0  0  0  0
   46.1140   34.8550   43.0330 C   0  0  0  0  0  0  0  0  0  0  0  0
   46.1080   34.0070   44.1310 C   0  0  0  0  0  0  0  0  0  0  0  0
   45.3630   34.3150   45.2370 N   0  0  0  0  0  0  0  0  0  0  0  0
   44.6240   35.4530   45.2680 C   0  0  0  0  0  0  0  0  0  0  0  0
   44.6060   36.3010   44.2170 N   0  0  0  0  0  0  0  0  0  0  0  0
   46.8190   32.7980   44.2180 N   0  0  0  0  0  0  0  0  0  0  0  0
   46.5990   32.1730   45.4120 C   0  0  0  0  0  0  0  0  0  0  0  0
   47.3320   30.9810   45.4460 C   0  0  0  0  0  0  0  0  0  0  0  0
   47.9830   30.9120   44.2670 N   0  0  0  0  0  0  0  0  0  0  0  0
   47.6710   31.9950   43.5470 C   0  0  0  0  0  0  0  0  0  0  0  0
   46.8870   34.5560   41.8530 C   0  0  0  0  0  0  0  0  0  0  0  0
   48.1840   35.3670   41.8770 C   0  0  0  0  0  0  0  0  0  0  0  0
   45.3152   36.7119   42.2691 H   0  0  0  0  0  0  0  0  0  0  0  0
   44.0302   35.6884   46.1635 H   0  0  0  0  0  0  0  0  0  0  0  0
   45.9499   32.5464   46.2178 H   0  0  0  0  0  0  0  0  0  0  0  0
   47.3694   30.2498   46.2669 H   0  0  0  0  0  0  0  0  0  0  0  0
   48.0585   32.2040   42.5390 H   0  0  0  0  0  0  0  0  0  0  0  0
   46.3059   34.8194   40.9569 H   0  0  0  0  0  0  0  0  0  0  0  0
   47.1251   33.4823   41.8317 H   0  0  0  0  0  0  0  0  0  0  0  0
   48.4811   35.5527   42.9197 H   0  0  0  0  0  0  0  0  0  0  0  0
   48.9779   34.8042   41.3643 H   0  0  0  0  0  0  0  0  0  0  0  0
   48.0256   36.3272   41.3643 H   0  0  0  0  0  0  0  0  0  0  0  0
  1  6  2  0
  2  1  1  0
  2  3  2  0
  3  7  1  0
  3  4  1  0
  4  5  2  0
  6  5  1  0
  7  8  1  0
  8  9  2  0
 10  9  1  0
 11  7  1  0
 11 10  2  0
 12 13  1  0
 12  2  1  0
  1 14  1  0
  5 15  1  0
  8 16  1  0
  9 17  1  0
 11 18  1  0
 12 19  1  0
 12 20  1  0
 13 21  1  0
 13 22  1  0
 13 23  1  0
M  ISO  8  14  14  15  14  16  14  17  14  18  14  19   8  20   8  21   8
M  ISO  2  22   8  23   8
M  END
>  <minimizedAffinity>  (1) 
-3.98663306

>  <minimizedRMSD>  (1) 
1.90904522

$$$$
