
     RDKit          3D

 23 24  0  0  0  0  0  0  0  0999 V2000
   46.0010   34.6160   43.5650 C   0  0  0  0  0  0  0  0  0  0  0  0
   46.5240   33.6540   44.4420 C   0  0  0  0  0  0  0  0  0  0  0  0
   46.0010   33.6120   45.7310 C   0  0  0  0  0  0  0  0  0  0  0  0
   45.0290   34.4850   46.0770 N   0  0  0  0  0  0  0  0  0  0  0  0
   44.5520   35.4000   45.1980 C   0  0  0  0  0  0  0  0  0  0  0  0
   45.0370   35.4680   43.9410 N   0  0  0  0  0  0  0  0  0  0  0  0
   46.4520   32.6760   46.7010 N   0  0  0  0  0  0  0  0  0  0  0  0
   47.3980   32.5570   47.6210 N   0  0  0  0  0  0  0  0  0  0  0  0
   47.2940   31.3720   48.2490 C   0  0  0  0  0  0  0  0  0  0  0  0
   46.2140   30.6920   47.6930 C   0  0  0  0  0  0  0  0  0  0  0  0
   45.6980   31.5370   46.7170 C   0  0  0  0  0  0  0  0  0  0  0  0
   47.5690   32.7430   44.0090 C   0  0  0  0  0  0  0  0  0  0  0  0
   48.4590   33.4440   43.0020 C   0  0  0  0  0  0  0  0  0  0  0  0
   46.3935   34.6727   42.5390 H   0  0  0  0  0  0  0  0  0  0  0  0
   43.7601   36.0953   45.5134 H   0  0  0  0  0  0  0  0  0  0  0  0
   47.9452   31.0061   49.0566 H   0  0  0  0  0  0  0  0  0  0  0  0
   45.8453   29.6930   47.9688 H   0  0  0  0  0  0  0  0  0  0  0  0
   44.8335   31.3254   46.0705 H   0  0  0  0  0  0  0  0  0  0  0  0
   48.1694   32.4332   44.8771 H   0  0  0  0  0  0  0  0  0  0  0  0
   47.1149   31.8554   43.5444 H   0  0  0  0  0  0  0  0  0  0  0  0
   49.2156   34.0399   43.5336 H   0  0  0  0  0  0  0  0  0  0  0  0
   48.9594   32.6948   42.3708 H   0  0  0  0  0  0  0  0  0  0  0  0
   47.8479   34.1060   42.3708 H   0  0  0  0  0  0  0  0  0  0  0  0
  1  6  2  0
  1  2  1  0
  2  3  2  0
  3  4  1  0
  3  7  1  0
  5  4  2  0
  6  5  1  0
  7 11  1  0
  7  8  1  0
  8  9  2  0
 10  9  1  0
 11 10  2  0
 12  2  1  0
 13 12  1  0
  1 14  1  0
  5 15  1  0
  9 16  1  0
 10 17  1  0
 11 18  1  0
 12 19  1  0
 12 20  1  0
 13 21  1  0
 13 22  1  0
 13 23  1  0
M  ISO  8  14  14  15  14  16  14  17  14  18  14  19   8  20   8  21   8
M  ISO  2  22   8  23   8
M  END
>  <minimizedAffinity>  (1) 
-3.91735315

>  <minimizedRMSD>  (1) 
3.68745947

$$$$
