
     RDKit          3D

 30 31  0  0  0  0  0  0  0  0999 V2000
   45.3720   35.9230   43.0730 C   0  0  0  0  0  0  0  0  0  0  0  0
   46.2000   34.7900   43.0570 C   0  0  0  0  0  0  0  0  0  0  0  0
   46.1840   34.0070   44.2020 C   0  0  0  0  0  0  0  0  0  0  0  0
   45.4010   34.3520   45.2570 N   0  0  0  0  0  0  0  0  0  0  0  0
   44.6170   35.4620   45.2200 C   0  0  0  0  0  0  0  0  0  0  0  0
   44.6070   36.2460   44.1200 N   0  0  0  0  0  0  0  0  0  0  0  0
   46.9300   32.8220   44.3860 N   0  0  0  0  0  0  0  0  0  0  0  0
   47.8660   32.0850   43.5240 C   0  0  0  0  0  0  0  0  0  0  0  0
   47.2320   30.7480   43.1930 C   0  0  0  0  0  0  0  0  0  0  0  0
   47.1860   29.9760   44.3960 N   0  0  0  0  0  0  0  0  0  0  0  0
   47.5100   30.7500   45.5740 C   0  0  0  0  0  0  0  0  0  0  0  0
   46.8380   32.0760   45.6320 C   0  0  0  0  0  0  0  0  0  0  0  0
   47.0180   34.4490   41.9230 C   0  0  0  0  0  0  0  0  0  0  0  0
   48.1870   35.4040   41.8210 C   0  0  0  0  0  0  0  0  0  0  0  0
   45.3519   36.5730   42.1858 H   0  0  0  0  0  0  0  0  0  0  0  0
   43.9906   35.7218   46.0861 H   0  0  0  0  0  0  0  0  0  0  0  0
   48.0495   32.6519   42.5993 H   0  0  0  0  0  0  0  0  0  0  0  0
   48.8284   31.9389   44.0364 H   0  0  0  0  0  0  0  0  0  0  0  0
   46.2131   30.9021   42.8081 H   0  0  0  0  0  0  0  0  0  0  0  0
   47.8182   30.2250   42.4231 H   0  0  0  0  0  0  0  0  0  0  0  0
   46.2358   29.5936   44.5050 H   0  0  0  0  0  0  0  0  0  0  0  0
   47.2107   30.1718   46.4606 H   0  0  0  0  0  0  0  0  0  0  0  0
   48.5923   30.9436   45.5392 H   0  0  0  0  0  0  0  0  0  0  0  0
   47.3064   32.6703   46.4304 H   0  0  0  0  0  0  0  0  0  0  0  0
   45.7706   31.8926   45.8243 H   0  0  0  0  0  0  0  0  0  0  0  0
   47.3956   33.4227   42.0419 H   0  0  0  0  0  0  0  0  0  0  0  0
   46.4128   34.5207   41.0072 H   0  0  0  0  0  0  0  0  0  0  0  0
   48.5245   35.6797   42.8310 H   0  0  0  0  0  0  0  0  0  0  0  0
   49.0115   34.9178   41.2789 H   0  0  0  0  0  0  0  0  0  0  0  0
   47.8750   36.3089   41.2789 H   0  0  0  0  0  0  0  0  0  0  0  0
  1  6  2  0
  2  1  1  0
  2  3  2  0
  3  7  1  0
  3  4  1  0
  5  4  2  0
  6  5  1  0
  7 12  1  0
  8  7  1  0
  9  8  1  0
  9 10  1  0
 10 11  1  0
 11 12  1  0
 13  2  1  0
 14 13  1  0
  1 15  1  0
  5 16  1  0
  8 17  1  0
  8 18  1  0
  9 19  1  0
  9 20  1  0
 10 21  1  0
 11 22  1  0
 11 23  1  0
 12 24  1  0
 12 25  1  0
 13 26  1  0
 13 27  1  0
 14 28  1  0
 14 29  1  0
 14 30  1  0
M  ISO  8  15  14  16  14  17  13  18  13  19  13  20  13  21   5  22  13
M  ISO  8  23  13  24  13  25  13  26   8  27   8  28   8  29   8  30   8
M  END
>  <minimizedAffinity>  (1) 
-4.00498915

>  <minimizedRMSD>  (1) 
1.79457998

$$$$
