
     RDKit          3D

 29 30  0  0  0  0  0  0  0  0999 V2000
   45.6710   35.2090   42.8620 C   0  0  0  0  0  0  0  0  0  0  0  0
   45.0340   34.7040   45.1900 C   0  0  0  0  0  0  0  0  0  0  0  0
   45.8770   34.3990   44.0890 C   0  0  0  0  0  0  0  0  0  0  0  0
   46.8030   33.3850   44.2640 C   0  0  0  0  0  0  0  0  0  0  0  0
   46.8560   32.7440   45.4600 N   0  0  0  0  0  0  0  0  0  0  0  0
   46.0310   33.0660   46.4870 C   0  0  0  0  0  0  0  0  0  0  0  0
   45.1230   34.0450   46.3500 N   0  0  0  0  0  0  0  0  0  0  0  0
   46.9810   35.2540   42.0960 C   0  0  0  0  0  0  0  0  0  0  0  0
   45.2680   36.6100   43.2390 C   0  0  0  0  0  0  0  0  0  0  0  0
   44.5990   34.6060   42.0090 C   0  0  0  0  0  0  0  0  0  0  0  0
   43.6320   35.5840   41.4480 C   0  0  0  0  0  0  0  0  0  0  0  0
   42.8840   35.0530   40.2200 C   0  0  0  0  0  0  0  0  0  0  0  0
   42.1400   35.1280   41.4930 C   0  0  0  0  0  0  0  0  0  0  0  0
   44.2869   35.5047   45.0858 H   0  0  0  0  0  0  0  0  0  0  0  0
   47.4845   33.1032   43.4479 H   0  0  0  0  0  0  0  0  0  0  0  0
   46.1065   32.5208   47.4394 H   0  0  0  0  0  0  0  0  0  0  0  0
   47.8203   35.2828   42.8064 H   0  0  0  0  0  0  0  0  0  0  0  0
   47.0667   34.3583   41.4633 H   0  0  0  0  0  0  0  0  0  0  0  0
   47.0051   36.1535   41.4633 H   0  0  0  0  0  0  0  0  0  0  0  0
   45.2416   36.7016   44.3349 H   0  0  0  0  0  0  0  0  0  0  0  0
   45.9971   37.3242   42.8288 H   0  0  0  0  0  0  0  0  0  0  0  0
   44.2708   36.8276   42.8288 H   0  0  0  0  0  0  0  0  0  0  0  0
   45.0816   34.0815   41.1712 H   0  0  0  0  0  0  0  0  0  0  0  0
   44.0210   33.9357   42.6621 H   0  0  0  0  0  0  0  0  0  0  0  0
   44.1873   36.4924   41.7244 H   0  0  0  0  0  0  0  0  0  0  0  0
   42.6286   35.7407   39.4004 H   0  0  0  0  0  0  0  0  0  0  0  0
   43.0795   34.2476   39.4967 H   0  0  0  0  0  0  0  0  0  0  0  0
   41.8646   34.2040   42.0226 H   0  0  0  0  0  0  0  0  0  0  0  0
   41.1966   35.5949   41.8125 H   0  0  0  0  0  0  0  0  0  0  0  0
  1  9  1  0
  1  3  1  0
  2  7  2  0
  3  4  2  0
  3  2  1  0
  4  5  1  0
  5  6  2  0
  7  6  1  0
  8  1  1  0
 10  1  1  0
 11 13  1  0
 11 10  1  0
 12 11  1  0
 12 13  1  0
  2 14  1  0
  4 15  1  0
  6 16  1  0
  8 17  1  0
  8 18  1  0
  8 19  1  0
  9 20  1  0
  9 21  1  0
  9 22  1  0
 10 23  1  0
 10 24  1  0
 11 25  1  0
 12 26  1  0
 12 27  1  0
 13 28  1  0
 13 29  1  0
M  ISO  8  14  14  15  14  16  14  17   8  18   8  19   8  20   8  21   8
M  ISO  8  22   8  23   8  24   8  25  13  26  13  27  13  28  13  29  13
M  END
>  <minimizedAffinity>  (1) 
-4.13177204

>  <minimizedRMSD>  (1) 
0.939574659

$$$$
