
     RDKit          3D

 21 22  0  0  0  0  0  0  0  0999 V2000
   46.1730   35.1160   43.0100 C   0  0  0  0  0  0  0  0  0  0  0  0
   46.6090   34.0980   43.8660 C   0  0  0  0  0  0  0  0  0  0  0  0
   45.9470   33.9500   45.0750 C   0  0  0  0  0  0  0  0  0  0  0  0
   44.9170   34.7860   45.3790 N   0  0  0  0  0  0  0  0  0  0  0  0
   44.5230   35.7620   44.5220 C   0  0  0  0  0  0  0  0  0  0  0  0
   45.1390   35.9260   43.3550 N   0  0  0  0  0  0  0  0  0  0  0  0
   46.3470   32.9190   46.0040 C   0  0  0  0  0  0  0  0  0  0  0  0
   45.7980   31.6960   45.7370 N   0  0  0  0  0  0  0  0  0  0  0  0
   46.2250   30.8420   46.6380 O   0  0  0  0  0  0  0  0  0  0  0  0
   47.0210   31.4270   47.4830 C   0  0  0  0  0  0  0  0  0  0  0  0
   47.1050   32.7300   47.0950 N   0  0  0  0  0  0  0  0  0  0  0  0
   47.7000   33.2720   43.4320 C   0  0  0  0  0  0  0  0  0  0  0  0
   48.7720   34.1310   42.8030 C   0  0  0  0  0  0  0  0  0  0  0  0
   46.6758   35.2622   42.0426 H   0  0  0  0  0  0  0  0  0  0  0  0
   43.6871   36.4228   44.7951 H   0  0  0  0  0  0  0  0  0  0  0  0
   47.5269   30.9616   48.3418 H   0  0  0  0  0  0  0  0  0  0  0  0
   48.1205   32.7379   44.2968 H   0  0  0  0  0  0  0  0  0  0  0  0
   47.3342   32.5461   42.6909 H   0  0  0  0  0  0  0  0  0  0  0  0
   49.3691   34.6095   43.5933 H   0  0  0  0  0  0  0  0  0  0  0  0
   49.4253   33.5036   42.1789 H   0  0  0  0  0  0  0  0  0  0  0  0
   48.3021   34.9054   42.1789 H   0  0  0  0  0  0  0  0  0  0  0  0
  1  6  2  0
  1  2  1  0
  2  3  2  0
  3  4  1  0
  3  7  1  0
  5  4  2  0
  6  5  1  0
  7 11  1  0
  8  7  2  0
  8  9  1  0
  9 10  1  0
 11 10  2  0
 12  2  1  0
 13 12  1  0
  1 14  1  0
  5 15  1  0
 10 16  1  0
 12 17  1  0
 12 18  1  0
 13 19  1  0
 13 20  1  0
 13 21  1  0
M  ISO  8  14  14  15  14  16  14  17   8  18   8  19   8  20   8  21   8
M  END
>  <minimizedAffinity>  (1) 
-4.06482363

>  <minimizedRMSD>  (1) 
3.3297348

$$$$
