
     RDKit          3D

 23 24  0  0  0  0  0  0  0  0999 V2000
   45.2840   35.9110   43.0860 C   0  0  0  0  0  0  0  0  0  0  0  0
   46.2110   34.8510   42.9870 C   0  0  0  0  0  0  0  0  0  0  0  0
   46.3360   34.0200   44.0890 C   0  0  0  0  0  0  0  0  0  0  0  0
   45.5720   34.2620   45.1950 N   0  0  0  0  0  0  0  0  0  0  0  0
   44.7070   35.2860   45.2350 C   0  0  0  0  0  0  0  0  0  0  0  0
   44.5510   36.1150   44.1960 N   0  0  0  0  0  0  0  0  0  0  0  0
   46.9890   34.7110   41.7850 C   0  0  0  0  0  0  0  0  0  0  0  0
   48.2900   35.4700   41.9350 C   0  0  0  0  0  0  0  0  0  0  0  0
   47.2010   32.8450   44.2650 C   0  0  0  0  0  0  0  0  0  0  0  0
   46.6010   31.5080   44.5810 C   0  0  0  0  0  0  0  0  0  0  0  0
   47.3200   31.7310   43.2880 C   0  0  0  0  0  0  0  0  0  0  0  0
   45.1570   36.5905   42.2303 H   0  0  0  0  0  0  0  0  0  0  0  0
   44.1106   35.4487   46.1448 H   0  0  0  0  0  0  0  0  0  0  0  0
   46.4238   35.1168   40.9330 H   0  0  0  0  0  0  0  0  0  0  0  0
   47.2036   33.6466   41.6089 H   0  0  0  0  0  0  0  0  0  0  0  0
   48.5164   35.6021   43.0033 H   0  0  0  0  0  0  0  0  0  0  0  0
   49.1021   34.9040   41.4553 H   0  0  0  0  0  0  0  0  0  0  0  0
   48.1970   36.4555   41.4553 H   0  0  0  0  0  0  0  0  0  0  0  0
   47.9350   33.5248   44.7223 H   0  0  0  0  0  0  0  0  0  0  0  0
   47.0494   30.8724   45.3587 H   0  0  0  0  0  0  0  0  0  0  0  0
   45.6013   31.1487   44.8665 H   0  0  0  0  0  0  0  0  0  0  0  0
   46.7553   31.7654   42.3446 H   0  0  0  0  0  0  0  0  0  0  0  0
   48.1568   31.2388   42.7708 H   0  0  0  0  0  0  0  0  0  0  0  0
  1  6  2  0
  2  1  1  0
  2  3  2  0
  3  9  1  0
  3  4  1  0
  4  5  2  0
  6  5  1  0
  7  8  1  0
  7  2  1  0
  9 10  1  0
 11  9  1  0
 11 10  1  0
  1 12  1  0
  5 13  1  0
  7 14  1  0
  7 15  1  0
  8 16  1  0
  8 17  1  0
  8 18  1  0
  9 19  1  0
 10 20  1  0
 10 21  1  0
 11 22  1  0
 11 23  1  0
M  ISO  8  12  14  13  14  14   8  15   8  16   8  17   8  18   8  19  13
M  ISO  4  20  13  21  13  22  13  23  13
M  END
>  <minimizedAffinity>  (1) 
-3.71495271

>  <minimizedRMSD>  (1) 
1.16669214

$$$$
