
     RDKit          3D

 26 27  0  0  0  0  0  0  0  0999 V2000
   47.8420   35.1660   41.4760 C   0  0  0  0  0  0  0  0  0  0  0  0
   48.7640   33.0340   40.6500 C   0  0  0  0  0  0  0  0  0  0  0  0
   48.8720   34.1650   41.4910 C   0  0  0  0  0  0  0  0  0  0  0  0
   49.9990   34.2370   42.3020 C   0  0  0  0  0  0  0  0  0  0  0  0
   50.9210   33.2300   42.2420 N   0  0  0  0  0  0  0  0  0  0  0  0
   50.7740   32.1650   41.4200 C   0  0  0  0  0  0  0  0  0  0  0  0
   49.7040   32.0940   40.6480 N   0  0  0  0  0  0  0  0  0  0  0  0
   50.1760   35.3330   43.1690 N   0  0  0  0  0  0  0  0  0  0  0  0
   46.5000   34.5370   41.7030 C   0  0  0  0  0  0  0  0  0  0  0  0
   45.9350   34.6780   43.0440 C   0  0  0  0  0  0  0  0  0  0  0  0
   46.1160   33.7850   44.0890 C   0  0  0  0  0  0  0  0  0  0  0  0
   45.5200   34.0500   45.3040 C   0  0  0  0  0  0  0  0  0  0  0  0
   44.7600   35.1500   45.5200 N   0  0  0  0  0  0  0  0  0  0  0  0
   44.5990   36.0000   44.4930 C   0  0  0  0  0  0  0  0  0  0  0  0
   45.1680   35.7720   43.2920 N   0  0  0  0  0  0  0  0  0  0  0  0
   48.0378   35.8998   42.2717 H   0  0  0  0  0  0  0  0  0  0  0  0
   47.8419   35.6639   40.4951 H   0  0  0  0  0  0  0  0  0  0  0  0
   47.8910   32.9304   39.9888 H   0  0  0  0  0  0  0  0  0  0  0  0
   51.5341   31.3702   41.3949 H   0  0  0  0  0  0  0  0  0  0  0  0
   51.0114   35.3851   43.7693 H   0  0  0  0  0  0  0  0  0  0  0  0
   49.4701   36.0823   43.2027 H   0  0  0  0  0  0  0  0  0  0  0  0
   45.7932   34.9906   40.9926 H   0  0  0  0  0  0  0  0  0  0  0  0
   46.6558   33.4571   41.5634 H   0  0  0  0  0  0  0  0  0  0  0  0
   46.7253   32.8796   43.9511 H   0  0  0  0  0  0  0  0  0  0  0  0
   45.6678   33.3396   46.1307 H   0  0  0  0  0  0  0  0  0  0  0  0
   43.9884   36.9039   44.6349 H   0  0  0  0  0  0  0  0  0  0  0  0
  1  3  1  0
  1  9  1  0
  2  3  2  0
  3  4  1  0
  4  8  1  0
  5  4  2  0
  6  5  1  0
  7  2  1  0
  7  6  2  0
  9 10  1  0
 10 15  1  0
 10 11  2  0
 11 12  1  0
 12 13  2  0
 14 13  1  0
 15 14  2  0
  1 16  1  0
  1 17  1  0
  2 18  1  0
  6 19  1  0
  8 20  1  0
  8 21  1  0
  9 22  1  0
  9 23  1  0
 11 24  1  0
 12 25  1  0
 14 26  1  0
M  ISO  8  16   8  17   8  18  14  19  14  22   8  23   8  24  14  25  14
M  ISO  1  26  14
M  END
>  <minimizedAffinity>  (1) 
-5.37670898

>  <minimizedRMSD>  (1) 
5.08927631

$$$$
