
     RDKit          3D

 27 28  0  0  0  0  0  0  0  0999 V2000
   46.0090   34.9880   42.7240 C   0  0  0  0  0  0  0  0  0  0  0  0
   45.2710   34.4930   45.0460 C   0  0  0  0  0  0  0  0  0  0  0  0
   46.1290   34.1950   43.9720 C   0  0  0  0  0  0  0  0  0  0  0  0
   47.0360   33.1610   44.1730 C   0  0  0  0  0  0  0  0  0  0  0  0
   47.0550   32.5050   45.3570 N   0  0  0  0  0  0  0  0  0  0  0  0
   46.2010   32.8350   46.3660 C   0  0  0  0  0  0  0  0  0  0  0  0
   45.3140   33.8250   46.2040 N   0  0  0  0  0  0  0  0  0  0  0  0
   47.3790   35.3980   42.2600 C   0  0  0  0  0  0  0  0  0  0  0  0
   45.1720   36.2210   43.0470 C   0  0  0  0  0  0  0  0  0  0  0  0
   45.2660   34.2090   41.6840 C   0  0  0  0  0  0  0  0  0  0  0  0
   46.0500   33.9140   40.4760 C   0  0  0  0  0  0  0  0  0  0  0  0
   45.5390   33.2860   39.3920 N   0  0  0  0  0  0  0  0  0  0  0  0
   46.4520   33.1510   38.4620 O   0  0  0  0  0  0  0  0  0  0  0  0
   47.5880   33.6830   38.9000 C   0  0  0  0  0  0  0  0  0  0  0  0
   47.3340   34.1570   40.1550 N   0  0  0  0  0  0  0  0  0  0  0  0
   44.5380   35.3049   44.9293 H   0  0  0  0  0  0  0  0  0  0  0  0
   47.7356   32.8769   43.3731 H   0  0  0  0  0  0  0  0  0  0  0  0
   46.2403   32.2856   47.3182 H   0  0  0  0  0  0  0  0  0  0  0  0
   48.0198   35.5898   43.1333 H   0  0  0  0  0  0  0  0  0  0  0  0
   47.8173   34.5917   41.6536 H   0  0  0  0  0  0  0  0  0  0  0  0
   47.3023   36.3125   41.6536 H   0  0  0  0  0  0  0  0  0  0  0  0
   45.0941   36.3357   44.1382 H   0  0  0  0  0  0  0  0  0  0  0  0
   45.6521   37.1128   42.6179 H   0  0  0  0  0  0  0  0  0  0  0  0
   44.1659   36.1039   42.6179 H   0  0  0  0  0  0  0  0  0  0  0  0
   44.9476   33.2551   42.1298 H   0  0  0  0  0  0  0  0  0  0  0  0
   44.4194   34.8351   41.3657 H   0  0  0  0  0  0  0  0  0  0  0  0
   48.5442   33.7319   38.3585 H   0  0  0  0  0  0  0  0  0  0  0  0
  1  9  1  0
  1  3  1  0
  2  7  2  0
  3  4  2  0
  3  2  1  0
  4  5  1  0
  5  6  2  0
  7  6  1  0
  8  1  1  0
 10  1  1  0
 11 10  1  0
 12 11  2  0
 13 14  1  0
 13 12  1  0
 14 15  2  0
 15 11  1  0
  2 16  1  0
  4 17  1  0
  6 18  1  0
  8 19  1  0
  8 20  1  0
  8 21  1  0
  9 22  1  0
  9 23  1  0
  9 24  1  0
 10 25  1  0
 10 26  1  0
 14 27  1  0
M  ISO  8  16  14  17  14  18  14  19   8  20   8  21   8  22   8  23   8
M  ISO  4  24   8  25   8  26   8  27  14
M  END
>  <minimizedAffinity>  (1) 
-4.11534262

>  <minimizedRMSD>  (1) 
1.57522166

$$$$
