
     RDKit          3D

 31 32  0  0  0  0  0  0  0  0999 V2000
   46.0570   34.1430   43.6090 C   0  0  0  0  0  0  0  0  0  0  0  0
   45.4730   34.0410   44.8790 C   0  0  0  0  0  0  0  0  0  0  0  0
   44.7730   35.1470   45.3200 C   0  0  0  0  0  0  0  0  0  0  0  0
   44.6950   36.2450   44.5090 N   0  0  0  0  0  0  0  0  0  0  0  0
   45.2710   36.3030   43.2940 C   0  0  0  0  0  0  0  0  0  0  0  0
   45.9510   35.2360   42.8580 N   0  0  0  0  0  0  0  0  0  0  0  0
   45.6150   32.8390   45.6520 C   0  0  0  0  0  0  0  0  0  0  0  0
   46.9810   32.7920   46.2850 C   0  0  0  0  0  0  0  0  0  0  0  0
   46.7800   32.7800   47.8040 C   0  0  0  0  0  0  0  0  0  0  0  0
   45.4310   32.1880   48.1380 C   0  0  0  0  0  0  0  0  0  0  0  0
   45.7330   31.1730   49.2300 C   0  0  0  0  0  0  0  0  0  0  0  0
   47.0660   30.6170   48.7420 C   0  0  0  0  0  0  0  0  0  0  0  0
   47.8250   31.8950   48.4170 C   0  0  0  0  0  0  0  0  0  0  0  0
   44.1460   35.1560   46.5800 N   0  0  0  0  0  0  0  0  0  0  0  0
   46.6251   33.2860   43.2180 H   0  0  0  0  0  0  0  0  0  0  0  0
   45.1848   37.2071   42.6733 H   0  0  0  0  0  0  0  0  0  0  0  0
   44.8476   32.8197   46.4398 H   0  0  0  0  0  0  0  0  0  0  0  0
   45.4931   31.9682   44.9911 H   0  0  0  0  0  0  0  0  0  0  0  0
   47.5113   31.8818   45.9684 H   0  0  0  0  0  0  0  0  0  0  0  0
   47.5818   33.6611   45.9789 H   0  0  0  0  0  0  0  0  0  0  0  0
   46.8491   33.8092   48.1862 H   0  0  0  0  0  0  0  0  0  0  0  0
   44.7437   32.9643   48.5054 H   0  0  0  0  0  0  0  0  0  0  0  0
   44.9399   31.7352   47.2640 H   0  0  0  0  0  0  0  0  0  0  0  0
   45.8310   31.6543   50.2142 H   0  0  0  0  0  0  0  0  0  0  0  0
   44.9495   30.4150   49.3767 H   0  0  0  0  0  0  0  0  0  0  0  0
   47.5721   30.0377   49.5283 H   0  0  0  0  0  0  0  0  0  0  0  0
   46.9789   29.9189   47.8964 H   0  0  0  0  0  0  0  0  0  0  0  0
   48.6396   31.6976   47.7046 H   0  0  0  0  0  0  0  0  0  0  0  0
   48.3017   32.3452   49.3002 H   0  0  0  0  0  0  0  0  0  0  0  0
   43.6284   35.9901   46.8917 H   0  0  0  0  0  0  0  0  0  0  0  0
   44.2048   34.3284   47.1904 H   0  0  0  0  0  0  0  0  0  0  0  0
  1  2  2  0
  2  3  1  0
  2  7  1  0
  3 14  1  0
  4  3  2  0
  5  4  1  0
  6  5  2  0
  6  1  1  0
  7  8  1  0
  8  9  1  0
  9 10  1  0
  9 13  1  0
 10 11  1  0
 12 11  1  0
 13 12  1  0
  1 15  1  0
  5 16  1  0
  7 17  1  0
  7 18  1  0
  8 19  1  0
  8 20  1  0
  9 21  1  0
 10 22  1  0
 10 23  1  0
 11 24  1  0
 11 25  1  0
 12 26  1  0
 12 27  1  0
 13 28  1  0
 13 29  1  0
 14 30  1  0
 14 31  1  0
M  ISO  8  15  14  16  14  17   8  18   8  19   8  20   8  21  13  22  13
M  ISO  7  23  13  24  13  25  13  26  13  27  13  28  13  29  13
M  END
>  <minimizedAffinity>  (1) 
-5.09350348

>  <minimizedRMSD>  (1) 
6.6851635

$$$$
