
     RDKit          3D

 32 34  0  0  0  0  0  0  0  0999 V2000
   44.4440   35.8370   42.7130 C   0  0  0  0  0  0  0  0  0  0  0  0
   46.1930   34.0920   42.7120 C   0  0  0  0  0  0  0  0  0  0  0  0
   45.2540   34.8740   43.4160 C   0  0  0  0  0  0  0  0  0  0  0  0
   45.1650   34.6620   44.7830 C   0  0  0  0  0  0  0  0  0  0  0  0
   45.9750   33.7290   45.3530 N   0  0  0  0  0  0  0  0  0  0  0  0
   46.8670   32.9970   44.6350 C   0  0  0  0  0  0  0  0  0  0  0  0
   46.9680   33.1840   43.3310 N   0  0  0  0  0  0  0  0  0  0  0  0
   44.2660   35.3870   45.5700 N   0  0  0  0  0  0  0  0  0  0  0  0
   44.0560   35.2630   41.3570 C   0  0  0  0  0  0  0  0  0  0  0  0
   42.5900   34.9170   41.3730 C   0  0  0  0  0  0  0  0  0  0  0  0
   41.4540   35.6930   41.4510 C   0  0  0  0  0  0  0  0  0  0  0  0
   40.3810   34.8900   41.4280 N   0  0  0  0  0  0  0  0  0  0  0  0
   40.7490   33.5860   41.3380 C   0  0  0  0  0  0  0  0  0  0  0  0
   40.0940   32.3680   41.2790 C   0  0  0  0  0  0  0  0  0  0  0  0
   40.7890   31.1710   41.1870 C   0  0  0  0  0  0  0  0  0  0  0  0
   42.1520   31.1880   41.1530 C   0  0  0  0  0  0  0  0  0  0  0  0
   42.8070   32.4050   41.2110 C   0  0  0  0  0  0  0  0  0  0  0  0
   42.1260   33.6080   41.3040 C   0  0  0  0  0  0  0  0  0  0  0  0
   43.5363   36.0512   43.2962 H   0  0  0  0  0  0  0  0  0  0  0  0
   45.0117   36.7688   42.5734 H   0  0  0  0  0  0  0  0  0  0  0  0
   46.2944   34.2287   41.6252 H   0  0  0  0  0  0  0  0  0  0  0  0
   47.5020   32.2523   45.1372 H   0  0  0  0  0  0  0  0  0  0  0  0
   44.2146   35.2151   46.5842 H   0  0  0  0  0  0  0  0  0  0  0  0
   43.6548   36.0933   45.1358 H   0  0  0  0  0  0  0  0  0  0  0  0
   44.6468   34.3569   41.1572 H   0  0  0  0  0  0  0  0  0  0  0  0
   44.2547   36.0041   40.5688 H   0  0  0  0  0  0  0  0  0  0  0  0
   41.4314   36.7906   41.5207 H   0  0  0  0  0  0  0  0  0  0  0  0
   39.4059   35.2187   41.4727 H   0  0  0  0  0  0  0  0  0  0  0  0
   38.9945   32.3488   41.3057 H   0  0  0  0  0  0  0  0  0  0  0  0
   40.2450   30.2160   41.1418 H   0  0  0  0  0  0  0  0  0  0  0  0
   42.7213   30.2495   41.0807 H   0  0  0  0  0  0  0  0  0  0  0  0
   43.9065   32.4181   41.1823 H   0  0  0  0  0  0  0  0  0  0  0  0
  1  3  1  0
  2  7  2  0
  2  3  1  0
  3  4  2  0
  4  5  1  0
  4  8  1  0
  6  5  2  0
  7  6  1  0
  9 10  1  0
  9  1  1  0
 10 11  2  0
 12 11  1  0
 13 12  1  0
 14 13  2  0
 15 14  1  0
 16 15  2  0
 16 17  1  0
 17 18  2  0
 18 13  1  0
 18 10  1  0
  1 19  1  0
  1 20  1  0
  2 21  1  0
  6 22  1  0
  8 23  1  0
  8 24  1  0
  9 25  1  0
  9 26  1  0
 11 27  1  0
 12 28  1  0
 14 29  1  0
 15 30  1  0
 16 31  1  0
 17 32  1  0
M  ISO  8  19   8  20   8  21  14  22  14  25   8  26   8  27  14  28   9
M  ISO  4  29  14  30  14  31  14  32  14
M  END
>  <minimizedAffinity>  (1) 
-4.98249245

>  <minimizedRMSD>  (1) 
7.21618271

$$$$
