
     RDKit          3D

 32 33  0  0  0  0  0  0  0  0999 V2000
   46.4890   34.5590   41.8290 C   0  0  0  0  0  0  0  0  0  0  0  0
   45.1970   36.0140   43.3420 C   0  0  0  0  0  0  0  0  0  0  0  0
   45.8650   34.8000   43.1000 C   0  0  0  0  0  0  0  0  0  0  0  0
   45.8780   33.8850   44.1390 C   0  0  0  0  0  0  0  0  0  0  0  0
   45.2570   34.1960   45.3160 N   0  0  0  0  0  0  0  0  0  0  0  0
   44.6250   35.3940   45.4910 C   0  0  0  0  0  0  0  0  0  0  0  0
   44.5960   36.2870   44.5190 N   0  0  0  0  0  0  0  0  0  0  0  0
   46.5150   32.6470   43.9980 N   0  0  0  0  0  0  0  0  0  0  0  0
   47.8950   35.1540   41.8520 C   0  0  0  0  0  0  0  0  0  0  0  0
   48.6920   34.3770   40.9240 N   0  0  0  0  0  0  0  0  0  0  0  0
   48.9350   33.0670   41.4840 C   0  0  0  0  0  0  0  0  0  0  0  0
   49.8360   32.2610   40.5830 C   0  0  0  0  0  0  0  0  0  0  0  0
   49.6250   32.5110   39.1890 N   0  0  0  0  0  0  0  0  0  0  0  0
   48.3450   33.0910   38.8640 C   0  0  0  0  0  0  0  0  0  0  0  0
   48.0330   34.3390   39.6580 C   0  0  0  0  0  0  0  0  0  0  0  0
   45.8992   35.0342   41.0313 H   0  0  0  0  0  0  0  0  0  0  0  0
   46.5435   33.4771   41.6379 H   0  0  0  0  0  0  0  0  0  0  0  0
   45.1633   36.7686   42.5424 H   0  0  0  0  0  0  0  0  0  0  0  0
   44.1356   35.6169   46.4506 H   0  0  0  0  0  0  0  0  0  0  0  0
   46.5163   31.9765   44.7799 H   0  0  0  0  0  0  0  0  0  0  0  0
   46.9825   32.4063   43.1124 H   0  0  0  0  0  0  0  0  0  0  0  0
   47.8659   36.2075   41.5368 H   0  0  0  0  0  0  0  0  0  0  0  0
   48.3223   35.1198   42.8650 H   0  0  0  0  0  0  0  0  0  0  0  0
   49.4141   33.1781   42.4679 H   0  0  0  0  0  0  0  0  0  0  0  0
   47.9739   32.5416   41.5847 H   0  0  0  0  0  0  0  0  0  0  0  0
   50.8804   32.5063   40.8261 H   0  0  0  0  0  0  0  0  0  0  0  0
   49.6033   31.2004   40.7593 H   0  0  0  0  0  0  0  0  0  0  0  0
   50.3601   33.1553   38.8644 H   0  0  0  0  0  0  0  0  0  0  0  0
   48.3399   33.3477   37.7944 H   0  0  0  0  0  0  0  0  0  0  0  0
   47.5768   32.3450   39.1159 H   0  0  0  0  0  0  0  0  0  0  0  0
   48.3493   35.2147   39.0723 H   0  0  0  0  0  0  0  0  0  0  0  0
   46.9502   34.3422   39.8518 H   0  0  0  0  0  0  0  0  0  0  0  0
  1  9  1  0
  1  3  1  0
  2  7  2  0
  3  2  1  0
  3  4  2  0
  4  5  1  0
  5  6  2  0
  7  6  1  0
  8  4  1  0
 10 11  1  0
 10  9  1  0
 12 11  1  0
 13 12  1  0
 14 13  1  0
 14 15  1  0
 15 10  1  0
  1 16  1  0
  1 17  1  0
  2 18  1  0
  6 19  1  0
  8 20  1  0
  8 21  1  0
  9 22  1  0
  9 23  1  0
 11 24  1  0
 11 25  1  0
 12 26  1  0
 12 27  1  0
 13 28  1  0
 14 29  1  0
 14 30  1  0
 15 31  1  0
 15 32  1  0
M  ISO  8  16   8  17   8  18  14  19  14  22   8  23   8  24  13  25  13
M  ISO  7  26  13  27  13  28   5  29  13  30  13  31  13  32  13
M  END
>  <minimizedAffinity>  (1) 
-4.36162853

>  <minimizedRMSD>  (1) 
1.27188754

$$$$
