
     RDKit          3D

 29 30  0  0  0  0  0  0  0  0999 V2000
   45.9210   33.6000   42.1030 C   0  0  0  0  0  0  0  0  0  0  0  0
   44.8660   35.4250   43.3610 C   0  0  0  0  0  0  0  0  0  0  0  0
   45.4820   34.1760   43.3430 C   0  0  0  0  0  0  0  0  0  0  0  0
   45.6380   33.5470   44.5650 C   0  0  0  0  0  0  0  0  0  0  0  0
   45.1930   34.1580   45.7080 N   0  0  0  0  0  0  0  0  0  0  0  0
   44.5940   35.3860   45.6710 C   0  0  0  0  0  0  0  0  0  0  0  0
   44.4380   36.0030   44.5000 N   0  0  0  0  0  0  0  0  0  0  0  0
   46.2460   32.2850   44.6640 N   0  0  0  0  0  0  0  0  0  0  0  0
   47.2530   34.2020   41.7110 C   0  0  0  0  0  0  0  0  0  0  0  0
   47.4220   34.0490   40.2660 N   0  0  0  0  0  0  0  0  0  0  0  0
   46.7140   33.1250   39.5970 C   0  0  0  0  0  0  0  0  0  0  0  0
   46.7620   32.8610   38.2430 C   0  0  0  0  0  0  0  0  0  0  0  0
   47.6550   33.6670   37.5430 C   0  0  0  0  0  0  0  0  0  0  0  0
   47.7470   33.4380   36.1320 N   0  0  0  0  0  0  0  0  0  0  0  0
   48.3820   34.6080   38.1910 N   0  0  0  0  0  0  0  0  0  0  0  0
   48.2630   34.7880   39.5210 C   0  0  0  0  0  0  0  0  0  0  0  0
   48.9510   35.6720   40.1090 O   0  0  0  0  0  0  0  0  0  0  0  0
   46.0313   32.5121   42.2227 H   0  0  0  0  0  0  0  0  0  0  0  0
   45.1789   33.8091   41.3184 H   0  0  0  0  0  0  0  0  0  0  0  0
   44.7237   35.9592   42.4100 H   0  0  0  0  0  0  0  0  0  0  0  0
   44.2438   35.8608   46.5994 H   0  0  0  0  0  0  0  0  0  0  0  0
   46.3518   31.8351   45.5845 H   0  0  0  0  0  0  0  0  0  0  0  0
   46.5862   31.8093   43.8161 H   0  0  0  0  0  0  0  0  0  0  0  0
   47.2706   35.2694   41.9760 H   0  0  0  0  0  0  0  0  0  0  0  0
   48.0694   33.6916   42.2430 H   0  0  0  0  0  0  0  0  0  0  0  0
   46.0209   32.5122   40.1921 H   0  0  0  0  0  0  0  0  0  0  0  0
   46.1501   32.0842   37.7611 H   0  0  0  0  0  0  0  0  0  0  0  0
   47.1701   32.7081   35.6900 H   0  0  0  0  0  0  0  0  0  0  0  0
   48.3901   34.0032   35.5594 H   0  0  0  0  0  0  0  0  0  0  0  0
  1  3  1  0
  2  7  2  0
  3  2  1  0
  3  4  2  0
  4  8  1  0
  4  5  1  0
  6  5  2  0
  7  6  1  0
  9  1  1  0
 10  9  1  0
 11 10  1  0
 12 11  2  0
 13 15  2  0
 13 12  1  0
 14 13  1  0
 15 16  1  0
 16 17  2  0
 16 10  1  0
  1 18  1  0
  1 19  1  0
  2 20  1  0
  6 21  1  0
  8 22  1  0
  8 23  1  0
  9 24  1  0
  9 25  1  0
 11 26  1  0
 12 27  1  0
 14 28  1  0
 14 29  1  0
M  ISO  8  18   8  19   8  20  14  21  14  24   8  25   8  26  14  27  14
M  END
>  <minimizedAffinity>  (1) 
-4.37326479

>  <minimizedRMSD>  (1) 
1.98459458

$$$$
