
     RDKit          3D

 24 25  0  0  0  0  0  0  0  0999 V2000
   45.6190   33.9610   41.5700 C   0  0  0  0  0  0  0  0  0  0  0  0
   44.8710   35.7180   43.1420 C   0  0  0  0  0  0  0  0  0  0  0  0
   45.3170   34.4200   42.9080 C   0  0  0  0  0  0  0  0  0  0  0  0
   45.4550   33.5940   44.0300 C   0  0  0  0  0  0  0  0  0  0  0  0
   45.1520   34.0990   45.2530 N   0  0  0  0  0  0  0  0  0  0  0  0
   44.7210   35.3700   45.4320 C   0  0  0  0  0  0  0  0  0  0  0  0
   44.5860   36.1650   44.3690 N   0  0  0  0  0  0  0  0  0  0  0  0
   45.8990   32.2630   43.8990 N   0  0  0  0  0  0  0  0  0  0  0  0
   47.0500   34.3630   41.2230 C   0  0  0  0  0  0  0  0  0  0  0  0
   47.2260   34.0500   39.7630 C   0  0  0  0  0  0  0  0  0  0  0  0
   46.3410   33.1810   39.0790 C   0  0  0  0  0  0  0  0  0  0  0  0
   47.0390   33.1860   37.3810 S   0  0  0  0  0  0  0  0  0  0  0  0
   48.4280   34.3850   37.9120 C   0  0  0  0  0  0  0  0  0  0  0  0
   48.2000   34.5530   39.0250 N   0  0  0  0  0  0  0  0  0  0  0  0
   45.5210   32.8663   41.5238 H   0  0  0  0  0  0  0  0  0  0  0  0
   44.9192   34.4144   40.8526 H   0  0  0  0  0  0  0  0  0  0  0  0
   44.7489   36.3995   42.2872 H   0  0  0  0  0  0  0  0  0  0  0  0
   44.4854   35.7421   46.4400 H   0  0  0  0  0  0  0  0  0  0  0  0
   45.9954   31.6677   44.7340 H   0  0  0  0  0  0  0  0  0  0  0  0
   46.1271   31.8854   42.9682 H   0  0  0  0  0  0  0  0  0  0  0  0
   47.1997   35.4376   41.4043 H   0  0  0  0  0  0  0  0  0  0  0  0
   47.7816   33.8228   41.8419 H   0  0  0  0  0  0  0  0  0  0  0  0
   45.4629   32.6426   39.4652 H   0  0  0  0  0  0  0  0  0  0  0  0
   49.2416   34.8081   37.3045 H   0  0  0  0  0  0  0  0  0  0  0  0
  1  3  1  0
  2  7  2  0
  3  2  1  0
  3  4  2  0
  4  5  1  0
  5  6  2  0
  7  6  1  0
  8  4  1  0
  9  1  1  0
 10  9  1  0
 11 10  2  0
 12 13  1  0
 12 11  1  0
 13 14  2  0
 14 10  1  0
  1 15  1  0
  1 16  1  0
  2 17  1  0
  6 18  1  0
  8 19  1  0
  8 20  1  0
  9 21  1  0
  9 22  1  0
 11 23  1  0
 13 24  1  0
M  ISO  8  15   8  16   8  17  14  18  14  21   8  22   8  23  14  24  14
M  END
>  <minimizedAffinity>  (1) 
-3.80940461

>  <minimizedRMSD>  (1) 
1.85557914

$$$$
