
     RDKit          3D

 31 32  0  0  0  0  0  0  0  0999 V2000
   44.1450   34.8940   40.9120 C   0  0  0  0  0  0  0  0  0  0  0  0
   41.8080   35.3890   41.5100 C   0  0  0  0  0  0  0  0  0  0  0  0
   42.7730   35.0790   40.5290 C   0  0  0  0  0  0  0  0  0  0  0  0
   42.3180   34.9710   39.2300 C   0  0  0  0  0  0  0  0  0  0  0  0
   40.9970   35.1640   38.9690 N   0  0  0  0  0  0  0  0  0  0  0  0
   40.1040   35.4630   39.9530 C   0  0  0  0  0  0  0  0  0  0  0  0
   40.5160   35.5710   41.2040 N   0  0  0  0  0  0  0  0  0  0  0  0
   43.2150   34.6620   38.1850 N   0  0  0  0  0  0  0  0  0  0  0  0
   44.4260   33.4370   41.1760 C   0  0  0  0  0  0  0  0  0  0  0  0
   45.6470   32.9640   40.5860 N   0  0  0  0  0  0  0  0  0  0  0  0
   46.3980   33.5750   39.6310 C   0  0  0  0  0  0  0  0  0  0  0  0
   47.5400   32.9990   39.1670 C   0  0  0  0  0  0  0  0  0  0  0  0
   48.3450   33.6880   38.1210 C   0  0  0  0  0  0  0  0  0  0  0  0
   48.0010   31.7760   39.6290 C   0  0  0  0  0  0  0  0  0  0  0  0
   49.0580   31.2190   39.2160 O   0  0  0  0  0  0  0  0  0  0  0  0
   47.2230   31.2140   40.5720 N   0  0  0  0  0  0  0  0  0  0  0  0
   46.0920   31.7600   41.0470 C   0  0  0  0  0  0  0  0  0  0  0  0
   45.4480   31.1190   41.9420 O   0  0  0  0  0  0  0  0  0  0  0  0
   44.3475   35.4732   41.8250 H   0  0  0  0  0  0  0  0  0  0  0  0
   44.7932   35.2393   40.0931 H   0  0  0  0  0  0  0  0  0  0  0  0
   42.1258   35.4843   42.5588 H   0  0  0  0  0  0  0  0  0  0  0  0
   39.0426   35.6142   39.7070 H   0  0  0  0  0  0  0  0  0  0  0  0
   42.8708   34.5825   37.2175 H   0  0  0  0  0  0  0  0  0  0  0  0
   44.2138   34.5160   38.3899 H   0  0  0  0  0  0  0  0  0  0  0  0
   44.4864   33.2875   42.2641 H   0  0  0  0  0  0  0  0  0  0  0  0
   43.6065   32.8652   40.7162 H   0  0  0  0  0  0  0  0  0  0  0  0
   46.0781   34.5474   39.2285 H   0  0  0  0  0  0  0  0  0  0  0  0
   49.0968   34.3314   38.6015 H   0  0  0  0  0  0  0  0  0  0  0  0
   48.8505   32.9385   37.4944 H   0  0  0  0  0  0  0  0  0  0  0  0
   47.6825   34.3031   37.4944 H   0  0  0  0  0  0  0  0  0  0  0  0
   47.5147   30.3036   40.9553 H   0  0  0  0  0  0  0  0  0  0  0  0
  1  9  1  0
  3  1  1  0
  3  2  2  0
  4  3  1  0
  5  4  2  0
  5  6  1  0
  6  7  2  0
  7  2  1  0
  8  4  1  0
 10 17  1  0
 10  9  1  0
 11 10  1  0
 12 14  1  0
 12 11  2  0
 13 12  1  0
 14 16  1  0
 15 14  2  0
 16 17  1  0
 17 18  2  0
  1 19  1  0
  1 20  1  0
  2 21  1  0
  6 22  1  0
  8 23  1  0
  8 24  1  0
  9 25  1  0
  9 26  1  0
 11 27  1  0
 13 28  1  0
 13 29  1  0
 13 30  1  0
 16 31  1  0
M  ISO  8  19   8  20   8  21  14  22  14  25   8  26   8  27  14  28   8
M  ISO  3  29   8  30   8  31   9
M  END
>  <minimizedAffinity>  (1) 
-3.84521723

>  <minimizedRMSD>  (1) 
6.6013937

$$$$
