
     RDKit          3D

 33 35  0  0  0  0  0  0  0  0999 V2000
   45.1470   34.4260   42.6840 C   0  0  0  0  0  0  0  0  0  0  0  0
   45.1800   34.2980   45.1650 C   0  0  0  0  0  0  0  0  0  0  0  0
   45.7040   33.8450   43.9300 C   0  0  0  0  0  0  0  0  0  0  0  0
   46.7180   32.8760   43.9730 C   0  0  0  0  0  0  0  0  0  0  0  0
   47.1350   32.4310   45.1850 N   0  0  0  0  0  0  0  0  0  0  0  0
   46.6130   32.8840   46.3450 C   0  0  0  0  0  0  0  0  0  0  0  0
   45.6380   33.8150   46.3350 N   0  0  0  0  0  0  0  0  0  0  0  0
   46.2580   34.6860   41.7080 C   0  0  0  0  0  0  0  0  0  0  0  0
   44.4890   35.7540   43.0520 C   0  0  0  0  0  0  0  0  0  0  0  0
   44.0780   33.5320   42.1460 C   0  0  0  0  0  0  0  0  0  0  0  0
   43.8900   33.6550   40.7170 N   0  0  0  0  0  0  0  0  0  0  0  0
   43.1020   34.5160   40.0100 C   0  0  0  0  0  0  0  0  0  0  0  0
   43.2290   34.2820   38.7090 N   0  0  0  0  0  0  0  0  0  0  0  0
   44.0880   33.2780   38.5000 C   0  0  0  0  0  0  0  0  0  0  0  0
   44.5880   32.6270   37.3770 C   0  0  0  0  0  0  0  0  0  0  0  0
   45.4760   31.6160   37.5680 N   0  0  0  0  0  0  0  0  0  0  0  0
   45.8650   31.2490   38.8010 C   0  0  0  0  0  0  0  0  0  0  0  0
   45.3810   31.8810   39.9030 N   0  0  0  0  0  0  0  0  0  0  0  0
   44.4940   32.8930   39.7630 C   0  0  0  0  0  0  0  0  0  0  0  0
   44.3847   35.0579   45.1684 H   0  0  0  0  0  0  0  0  0  0  0  0
   47.1642   32.4864   43.0461 H   0  0  0  0  0  0  0  0  0  0  0  0
   46.9851   32.4915   47.3028 H   0  0  0  0  0  0  0  0  0  0  0  0
   47.1857   34.9031   42.2578 H   0  0  0  0  0  0  0  0  0  0  0  0
   46.4058   33.7982   41.0756 H   0  0  0  0  0  0  0  0  0  0  0  0
   45.9965   35.5472   41.0756 H   0  0  0  0  0  0  0  0  0  0  0  0
   44.4420   35.8489   44.1469 H   0  0  0  0  0  0  0  0  0  0  0  0
   45.0803   36.5836   42.6371 H   0  0  0  0  0  0  0  0  0  0  0  0
   43.4708   35.7861   42.6371 H   0  0  0  0  0  0  0  0  0  0  0  0
   44.3478   32.4902   42.3736 H   0  0  0  0  0  0  0  0  0  0  0  0
   43.1338   33.8316   42.6242 H   0  0  0  0  0  0  0  0  0  0  0  0
   42.4570   35.2895   40.4523 H   0  0  0  0  0  0  0  0  0  0  0  0
   44.2741   32.9216   36.3647 H   0  0  0  0  0  0  0  0  0  0  0  0
   46.5849   30.4259   38.9201 H   0  0  0  0  0  0  0  0  0  0  0  0
  1  9  1  0
  1  3  1  0
  2  7  2  0
  3  4  2  0
  3  2  1  0
  4  5  1  0
  5  6  2  0
  7  6  1  0
  8  1  1  0
 10  1  1  0
 11 10  1  0
 12 11  1  0
 13 12  2  0
 14 13  1  0
 14 19  2  0
 15 16  2  0
 15 14  1  0
 16 17  1  0
 17 18  2  0
 19 18  1  0
 19 11  1  0
  2 20  1  0
  4 21  1  0
  6 22  1  0
  8 23  1  0
  8 24  1  0
  8 25  1  0
  9 26  1  0
  9 27  1  0
  9 28  1  0
 10 29  1  0
 10 30  1  0
 12 31  1  0
 15 32  1  0
 17 33  1  0
M  ISO  8  20  14  21  14  22  14  23   8  24   8  25   8  26   8  27   8
M  ISO  6  28   8  29   8  30   8  31  14  32  14  33  14
M  END
>  <minimizedAffinity>  (1) 
-3.85226321

>  <minimizedRMSD>  (1) 
1.45659232

$$$$
