
     RDKit          3D

 30 32  0  0  0  0  0  0  0  0999 V2000
   48.7220   34.1760   42.7500 C   0  0  0  0  0  0  0  0  0  0  0  0
   49.5360   33.2860   41.8940 C   0  0  0  0  0  0  0  0  0  0  0  0
   50.8260   32.9020   42.2490 C   0  0  0  0  0  0  0  0  0  0  0  0
   51.3020   32.1000   41.2780 N   0  0  0  0  0  0  0  0  0  0  0  0
   50.3540   31.9630   40.3200 C   0  0  0  0  0  0  0  0  0  0  0  0
   49.2930   32.6880   40.7100 N   0  0  0  0  0  0  0  0  0  0  0  0
   48.0270   32.9070   40.0980 C   0  0  0  0  0  0  0  0  0  0  0  0
   47.2570   33.9360   39.7010 N   0  0  0  0  0  0  0  0  0  0  0  0
   46.1500   33.4330   39.1850 O   0  0  0  0  0  0  0  0  0  0  0  0
   46.1690   32.1280   39.2320 C   0  0  0  0  0  0  0  0  0  0  0  0
   47.3500   31.7590   39.8070 N   0  0  0  0  0  0  0  0  0  0  0  0
   47.7260   33.3410   43.5420 C   0  0  0  0  0  0  0  0  0  0  0  0
   46.1580   35.1370   42.9870 C   0  0  0  0  0  0  0  0  0  0  0  0
   46.5940   34.1710   43.8960 C   0  0  0  0  0  0  0  0  0  0  0  0
   45.9080   34.0620   45.1000 C   0  0  0  0  0  0  0  0  0  0  0  0
   44.8610   34.8990   45.3140 N   0  0  0  0  0  0  0  0  0  0  0  0
   44.4650   35.8250   44.4110 C   0  0  0  0  0  0  0  0  0  0  0  0
   45.1020   35.9400   43.2690 N   0  0  0  0  0  0  0  0  0  0  0  0
   46.2930   33.1170   46.0510 N   0  0  0  0  0  0  0  0  0  0  0  0
   48.1788   34.8956   42.1198 H   0  0  0  0  0  0  0  0  0  0  0  0
   49.3789   34.7212   43.4437 H   0  0  0  0  0  0  0  0  0  0  0  0
   51.3620   33.2011   43.1619 H   0  0  0  0  0  0  0  0  0  0  0  0
   50.4375   31.3701   39.3972 H   0  0  0  0  0  0  0  0  0  0  0  0
   45.3789   31.4514   38.8742 H   0  0  0  0  0  0  0  0  0  0  0  0
   47.3850   32.4936   42.9291 H   0  0  0  0  0  0  0  0  0  0  0  0
   48.2052   32.9560   44.4542 H   0  0  0  0  0  0  0  0  0  0  0  0
   46.6801   35.2487   42.0253 H   0  0  0  0  0  0  0  0  0  0  0  0
   43.6103   36.4808   44.6333 H   0  0  0  0  0  0  0  0  0  0  0  0
   45.7793   33.0428   46.9406 H   0  0  0  0  0  0  0  0  0  0  0  0
   47.0910   32.4934   45.8636 H   0  0  0  0  0  0  0  0  0  0  0  0
  1 12  1  0
  2  3  2  0
  2  1  1  0
  4  3  1  0
  5  6  1  0
  5  4  2  0
  6  2  1  0
  7  6  1  0
  8  7  2  0
  9 10  1  0
  9  8  1  0
 10 11  2  0
 11  7  1  0
 12 14  1  0
 13 18  2  0
 13 14  1  0
 14 15  2  0
 15 16  1  0
 15 19  1  0
 17 16  2  0
 18 17  1  0
  1 20  1  0
  1 21  1  0
  3 22  1  0
  5 23  1  0
 10 24  1  0
 12 25  1  0
 12 26  1  0
 13 27  1  0
 17 28  1  0
 19 29  1  0
 19 30  1  0
M  ISO  8  20   8  21   8  22  14  23  14  24  14  25   8  26   8  27  14
M  ISO  1  28  14
M  END
>  <minimizedAffinity>  (1) 
-4.9188242

>  <minimizedRMSD>  (1) 
3.73504233

$$$$
