
     RDKit          3D

 32 34  0  0  0  0  0  0  0  0999 V2000
   46.1650   34.1600   40.7650 C   0  0  0  0  0  0  0  0  0  0  0  0
   45.3010   33.5020   39.7400 C   0  0  0  0  0  0  0  0  0  0  0  0
   43.9570   33.2380   39.9460 C   0  0  0  0  0  0  0  0  0  0  0  0
   43.4730   32.6470   38.8420 N   0  0  0  0  0  0  0  0  0  0  0  0
   44.4870   32.5280   37.9330 C   0  0  0  0  0  0  0  0  0  0  0  0
   45.6070   33.0580   38.4970 N   0  0  0  0  0  0  0  0  0  0  0  0
   46.9510   33.2110   38.0270 C   0  0  0  0  0  0  0  0  0  0  0  0
   48.0910   32.4210   38.2220 C   0  0  0  0  0  0  0  0  0  0  0  0
   49.0960   33.0260   37.5560 N   0  0  0  0  0  0  0  0  0  0  0  0
   48.5810   34.1360   36.9820 C   0  0  0  0  0  0  0  0  0  0  0  0
   47.2780   34.2660   37.2580 N   0  0  0  0  0  0  0  0  0  0  0  0
   46.0480   33.3840   42.0580 C   0  0  0  0  0  0  0  0  0  0  0  0
   45.3520   35.6420   42.7890 C   0  0  0  0  0  0  0  0  0  0  0  0
   45.5660   34.2770   43.0970 C   0  0  0  0  0  0  0  0  0  0  0  0
   45.3000   33.8430   44.3930 C   0  0  0  0  0  0  0  0  0  0  0  0
   44.8470   34.7560   45.2950 N   0  0  0  0  0  0  0  0  0  0  0  0
   44.6570   36.0570   44.9570 C   0  0  0  0  0  0  0  0  0  0  0  0
   44.9050   36.4880   43.7230 N   0  0  0  0  0  0  0  0  0  0  0  0
   45.4960   32.5180   44.7520 N   0  0  0  0  0  0  0  0  0  0  0  0
   45.8312   35.1963   40.9222 H   0  0  0  0  0  0  0  0  0  0  0  0
   47.2112   34.1727   40.4254 H   0  0  0  0  0  0  0  0  0  0  0  0
   43.3854   33.4720   40.8562 H   0  0  0  0  0  0  0  0  0  0  0  0
   44.4117   32.0849   36.9290 H   0  0  0  0  0  0  0  0  0  0  0  0
   48.1544   31.4898   38.8041 H   0  0  0  0  0  0  0  0  0  0  0  0
   49.1586   34.8418   36.3670 H   0  0  0  0  0  0  0  0  0  0  0  0
   46.6516   35.0213   36.9450 H   0  0  0  0  0  0  0  0  0  0  0  0
   45.3400   32.5523   41.9274 H   0  0  0  0  0  0  0  0  0  0  0  0
   47.0303   32.9773   42.3404 H   0  0  0  0  0  0  0  0  0  0  0  0
   45.5552   36.0099   41.7725 H   0  0  0  0  0  0  0  0  0  0  0  0
   44.2924   36.7658   45.7151 H   0  0  0  0  0  0  0  0  0  0  0  0
   45.2953   32.2100   45.7142 H   0  0  0  0  0  0  0  0  0  0  0  0
   45.8423   31.8418   44.0565 H   0  0  0  0  0  0  0  0  0  0  0  0
  1 12  1  0
  2  3  2  0
  2  1  1  0
  4  3  1  0
  5  6  1  0
  5  4  2  0
  6  2  1  0
  7  8  2  0
  7  6  1  0
  9  8  1  0
 10 11  1  0
 10  9  2  0
 11  7  1  0
 12 14  1  0
 13 14  2  0
 13 18  1  0
 14 15  1  0
 15 19  1  0
 15 16  2  0
 17 16  1  0
 18 17  2  0
  1 20  1  0
  1 21  1  0
  3 22  1  0
  5 23  1  0
  8 24  1  0
 10 25  1  0
 11 26  1  0
 12 27  1  0
 12 28  1  0
 13 29  1  0
 17 30  1  0
 19 31  1  0
 19 32  1  0
M  ISO  8  20   8  21   8  22  14  23  14  24  14  25  14  26   9  27   8
M  ISO  3  28   8  29  14  30  14
M  END
>  <minimizedAffinity>  (1) 
-4.54661369

>  <minimizedRMSD>  (1) 
3.11928773

$$$$
