
     RDKit          3D

 41 43  0  0  0  0  0  0  0  0999 V2000
   46.3010   32.6040   41.6650 C   0  0  0  0  0  0  0  0  0  0  0  0
   45.6070   32.0300   40.4880 C   0  0  0  0  0  0  0  0  0  0  0  0
   44.3450   31.4440   40.5710 C   0  0  0  0  0  0  0  0  0  0  0  0
   44.0050   31.0290   39.3410 N   0  0  0  0  0  0  0  0  0  0  0  0
   45.0060   31.3290   38.4790 C   0  0  0  0  0  0  0  0  0  0  0  0
   45.9750   31.9390   39.1940 N   0  0  0  0  0  0  0  0  0  0  0  0
   47.2220   32.4280   38.6780 C   0  0  0  0  0  0  0  0  0  0  0  0
   46.9100   33.5580   37.7140 C   0  0  0  0  0  0  0  0  0  0  0  0
   48.1400   34.2850   37.2790 C   0  0  0  0  0  0  0  0  0  0  0  0
   49.1650   33.3010   36.7630 C   0  0  0  0  0  0  0  0  0  0  0  0
   48.6200   31.8870   36.6820 C   0  0  0  0  0  0  0  0  0  0  0  0
   48.0690   31.3930   38.0000 C   0  0  0  0  0  0  0  0  0  0  0  0
   45.4760   32.2810   42.9210 C   0  0  0  0  0  0  0  0  0  0  0  0
   44.7480   34.6280   42.8680 C   0  0  0  0  0  0  0  0  0  0  0  0
   45.1780   33.5150   43.6040 C   0  0  0  0  0  0  0  0  0  0  0  0
   45.2900   33.6820   44.9690 C   0  0  0  0  0  0  0  0  0  0  0  0
   44.9810   34.8960   45.5110 N   0  0  0  0  0  0  0  0  0  0  0  0
   44.5720   35.9370   44.7630 C   0  0  0  0  0  0  0  0  0  0  0  0
   44.4570   35.8010   43.4600 N   0  0  0  0  0  0  0  0  0  0  0  0
   45.7140   32.6230   45.7910 N   0  0  0  0  0  0  0  0  0  0  0  0
   46.3892   33.6943   41.5489 H   0  0  0  0  0  0  0  0  0  0  0  0
   47.3097   32.1746   41.7551 H   0  0  0  0  0  0  0  0  0  0  0  0
   43.7367   31.3403   41.4816 H   0  0  0  0  0  0  0  0  0  0  0  0
   45.0255   31.1158   37.4000 H   0  0  0  0  0  0  0  0  0  0  0  0
   47.8223   32.7655   39.5357 H   0  0  0  0  0  0  0  0  0  0  0  0
   46.4135   33.1392   36.8262 H   0  0  0  0  0  0  0  0  0  0  0  0
   46.2600   34.2763   38.2351 H   0  0  0  0  0  0  0  0  0  0  0  0
   47.8806   34.9943   36.4792 H   0  0  0  0  0  0  0  0  0  0  0  0
   48.5610   34.8293   38.1372 H   0  0  0  0  0  0  0  0  0  0  0  0
   49.4819   33.6156   35.7577 H   0  0  0  0  0  0  0  0  0  0  0  0
   50.0091   33.2952   37.4683 H   0  0  0  0  0  0  0  0  0  0  0  0
   47.8140   31.8637   35.9337 H   0  0  0  0  0  0  0  0  0  0  0  0
   49.4549   31.2266   36.4048 H   0  0  0  0  0  0  0  0  0  0  0  0
   47.4566   30.4980   37.8158 H   0  0  0  0  0  0  0  0  0  0  0  0
   48.9192   31.1645   38.6595 H   0  0  0  0  0  0  0  0  0  0  0  0
   44.5395   31.7820   42.6313 H   0  0  0  0  0  0  0  0  0  0  0  0
   46.0452   31.6122   43.5834 H   0  0  0  0  0  0  0  0  0  0  0  0
   44.6456   34.5401   41.7763 H   0  0  0  0  0  0  0  0  0  0  0  0
   44.3344   36.8993   45.2401 H   0  0  0  0  0  0  0  0  0  0  0  0
   45.7934   32.7609   46.8086 H   0  0  0  0  0  0  0  0  0  0  0  0
   45.9452   31.7093   45.3755 H   0  0  0  0  0  0  0  0  0  0  0  0
  1 13  1  0
  2  3  2  0
  2  1  1  0
  4  3  1  0
  5  6  1  0
  5  4  2  0
  6  2  1  0
  7  6  1  0
  8  7  1  0
  9  8  1  0
 10  9  1  0
 11 10  1  0
 11 12  1  0
 12  7  1  0
 13 15  1  0
 14 19  2  0
 14 15  1  0
 15 16  2  0
 16 17  1  0
 16 20  1  0
 18 17  2  0
 19 18  1  0
  1 21  1  0
  1 22  1  0
  3 23  1  0
  5 24  1  0
  7 25  1  0
  8 26  1  0
  8 27  1  0
  9 28  1  0
  9 29  1  0
 10 30  1  0
 10 31  1  0
 11 32  1  0
 11 33  1  0
 12 34  1  0
 12 35  1  0
 13 36  1  0
 13 37  1  0
 14 38  1  0
 18 39  1  0
 20 40  1  0
 20 41  1  0
M  ISO  8  21   8  22   8  23  14  24  14  25  13  26  13  27  13  28  13
M  ISO  8  29  13  30  13  31  13  32  13  33  13  34  13  35  13  36   8
M  ISO  3  37   8  38  14  39  14
M  END
>  <minimizedAffinity>  (1) 
-3.72945499

>  <minimizedRMSD>  (1) 
3.93249893

$$$$
