
     RDKit          3D

 23 23  0  0  0  0  0  0  0  0999 V2000
   45.8900   34.9300   42.7770 C   0  0  0  0  0  0  0  0  0  0  0  0
   45.2000   34.5070   45.0990 C   0  0  0  0  0  0  0  0  0  0  0  0
   46.0740   34.1620   44.0280 C   0  0  0  0  0  0  0  0  0  0  0  0
   46.9970   33.1560   44.2610 C   0  0  0  0  0  0  0  0  0  0  0  0
   47.0290   32.5520   45.4730 N   0  0  0  0  0  0  0  0  0  0  0  0
   46.1800   32.9050   46.4750 C   0  0  0  0  0  0  0  0  0  0  0  0
   45.2750   33.8720   46.2930 N   0  0  0  0  0  0  0  0  0  0  0  0
   47.2430   35.2020   42.1610 C   0  0  0  0  0  0  0  0  0  0  0  0
   45.2170   36.2450   43.0760 C   0  0  0  0  0  0  0  0  0  0  0  0
   45.0060   34.1510   41.8290 C   0  0  0  0  0  0  0  0  0  0  0  0
   45.9600   33.6200   40.3930 S   0  0  0  0  0  0  0  0  0  0  0  0
   44.4529   35.3012   44.9540 H   0  0  0  0  0  0  0  0  0  0  0  0
   47.6972   32.8505   43.4696 H   0  0  0  0  0  0  0  0  0  0  0  0
   46.2385   32.3897   47.4450 H   0  0  0  0  0  0  0  0  0  0  0  0
   47.9857   35.3513   42.9586 H   0  0  0  0  0  0  0  0  0  0  0  0
   47.5411   34.3458   41.5380 H   0  0  0  0  0  0  0  0  0  0  0  0
   47.1870   36.1069   41.5380 H   0  0  0  0  0  0  0  0  0  0  0  0
   45.1470   36.3818   44.1652 H   0  0  0  0  0  0  0  0  0  0  0  0
   45.8059   37.0657   42.6405 H   0  0  0  0  0  0  0  0  0  0  0  0
   44.2069   36.2473   42.6405 H   0  0  0  0  0  0  0  0  0  0  0  0
   44.6054   33.2674   42.3474 H   0  0  0  0  0  0  0  0  0  0  0  0
   44.1785   34.7944   41.4954 H   0  0  0  0  0  0  0  0  0  0  0  0
   47.0999   32.9855   40.8112 H   0  0  0  0  0  0  0  0  0  0  0  0
  1  9  1  0
  1  3  1  0
  2  7  2  0
  3  4  2  0
  3  2  1  0
  4  5  1  0
  5  6  2  0
  7  6  1  0
  8  1  1  0
 10  1  1  0
 11 10  1  0
  2 12  1  0
  4 13  1  0
  6 14  1  0
  8 15  1  0
  8 16  1  0
  8 17  1  0
  9 18  1  0
  9 19  1  0
  9 20  1  0
 10 21  1  0
 10 22  1  0
 11 23  1  0
M  ISO  8  12  14  13  14  14  14  15   8  16   8  17   8  18   8  19   8
M  ISO  4  20   8  21   8  22   8  23  11
M  END
>  <minimizedAffinity>  (1) 
-3.4592793

>  <minimizedRMSD>  (1) 
0.446652114

$$$$
