
     RDKit          3D

 40 43  0  0  1  0  0  0  0  0999 V2000
   45.3260   35.0060   43.3160 C   0  0  0  0  0  0  0  0  0  0  0  0
   45.0760   34.4930   44.5780 C   0  0  0  0  0  0  0  0  0  0  0  0
   46.1710   33.8000   44.9460 N   0  0  0  0  0  0  0  0  0  0  0  0
   47.0920   33.8620   43.9610 C   0  0  0  0  0  0  0  0  0  0  0  0
   46.5560   34.6110   42.9590 N   0  0  0  0  0  0  0  0  0  0  0  0
   47.1890   34.9360   41.7140 C   0  0  1  0  0  0  0  0  0  0  0  0
   48.6170   34.7350   41.4500 C   0  0  0  0  0  0  0  0  0  0  0  0
   47.6330   33.7210   40.9090 C   0  0  2  0  0  0  0  0  0  0  0  0
   47.5000   33.7440   39.4320 C   0  0  0  0  0  0  0  0  0  0  0  0
   48.4460   34.4450   38.7030 C   0  0  0  0  0  0  0  0  0  0  0  0
   48.3060   34.4570   37.3120 C   0  0  0  0  0  0  0  0  0  0  0  0
   47.2790   33.8020   36.7150 N   0  0  0  0  0  0  0  0  0  0  0  0
   46.3790   33.1290   37.4870 C   0  0  0  0  0  0  0  0  0  0  0  0
   46.4970   33.1050   38.8470 N   0  0  0  0  0  0  0  0  0  0  0  0
   44.3240   35.8400   42.5770 C   0  0  0  0  0  0  0  0  0  0  0  0
   44.0180   35.1320   41.2520 C   0  0  0  0  0  0  0  0  0  0  0  0
   41.6050   35.6230   41.1540 C   0  0  0  0  0  0  0  0  0  0  0  0
   42.6410   34.6880   41.2700 C   0  0  0  0  0  0  0  0  0  0  0  0
   42.2650   33.3680   41.3970 C   0  0  0  0  0  0  0  0  0  0  0  0
   40.9460   33.0420   41.4040 N   0  0  0  0  0  0  0  0  0  0  0  0
   39.9860   33.9820   41.2880 C   0  0  0  0  0  0  0  0  0  0  0  0
   40.3080   35.2590   41.1650 N   0  0  0  0  0  0  0  0  0  0  0  0
   43.2380   32.3670   41.5190 N   0  0  0  0  0  0  0  0  0  0  0  0
   44.1573   34.6262   45.1681 H   0  0  0  0  0  0  0  0  0  0  0  0
   48.0880   33.3951   43.9671 H   0  0  0  0  0  0  0  0  0  0  0  0
   46.5564   35.8275   41.5913 H   0  0  0  0  0  0  0  0  0  0  0  0
   49.1440   35.4076   40.7573 H   0  0  0  0  0  0  0  0  0  0  0  0
   49.5147   34.6736   42.0827 H   0  0  0  0  0  0  0  0  0  0  0  0
   47.4370   32.6416   40.9890 H   0  0  0  0  0  0  0  0  0  0  0  0
   49.2748   34.9716   39.1988 H   0  0  0  0  0  0  0  0  0  0  0  0
   49.0356   35.0028   36.6958 H   0  0  0  0  0  0  0  0  0  0  0  0
   45.5447   32.5970   37.0066 H   0  0  0  0  0  0  0  0  0  0  0  0
   43.4039   35.9358   43.1722 H   0  0  0  0  0  0  0  0  0  0  0  0
   44.7220   36.8488   42.3928 H   0  0  0  0  0  0  0  0  0  0  0  0
   44.6848   34.2653   41.1329 H   0  0  0  0  0  0  0  0  0  0  0  0
   44.1775   35.8240   40.4119 H   0  0  0  0  0  0  0  0  0  0  0  0
   41.8583   36.6884   41.0506 H   0  0  0  0  0  0  0  0  0  0  0  0
   38.9270   33.6845   41.2957 H   0  0  0  0  0  0  0  0  0  0  0  0
   42.9539   31.3815   41.6137 H   0  0  0  0  0  0  0  0  0  0  0  0
   44.2373   32.6167   41.5139 H   0  0  0  0  0  0  0  0  0  0  0  0
  1  2  2  0
  2  3  1  0
  4  3  2  0
  5  1  1  0
  5  4  1  0
  6  5  1  0
  7  6  1  0
  8  7  1  0
  8  6  1  0
  9  8  1  0
 10  9  2  0
 11 10  1  0
 12 11  2  0
 12 13  1  0
 13 14  2  0
 14  9  1  0
 15  1  1  0
 16 18  1  0
 16 15  1  0
 17 22  2  0
 17 18  1  0
 18 19  2  0
 19 20  1  0
 19 23  1  0
 21 20  2  0
 22 21  1  0
  2 24  1  0
  4 25  1  0
  6 26  1  6
  7 27  1  0
  7 28  1  0
  8 29  1  1
 10 30  1  0
 11 31  1  0
 13 32  1  0
 15 33  1  0
 15 34  1  0
 16 35  1  0
 16 36  1  0
 17 37  1  0
 21 38  1  0
 23 39  1  0
 23 40  1  0
M  ISO  8  24  14  25  14  26  13  27  13  28  13  29  13  30  14  31  14
M  ISO  7  32  14  33   8  34   8  35   8  36   8  37  14  38  14
M  END
>  <minimizedAffinity>  (1) 
-5.45894861

>  <minimizedRMSD>  (1) 
1.82830882

$$$$
