
     RDKit          3D

 42 45  0  0  1  0  0  0  0  0999 V2000
   45.1900   34.6080   43.2630 C   0  0  0  0  0  0  0  0  0  0  0  0
   45.1110   34.0560   44.5290 C   0  0  0  0  0  0  0  0  0  0  0  0
   46.3410   33.6950   44.8850 N   0  0  0  0  0  0  0  0  0  0  0  0
   47.2160   33.9950   43.8940 C   0  0  0  0  0  0  0  0  0  0  0  0
   46.4910   34.5570   42.9010 N   0  0  0  0  0  0  0  0  0  0  0  0
   47.0030   35.0350   41.6460 C   0  0  1  0  0  0  0  0  0  0  0  0
   48.4180   35.3000   41.3810 C   0  0  0  0  0  0  0  0  0  0  0  0
   47.8000   34.0240   40.8570 C   0  0  2  0  0  0  0  0  0  0  0  0
   47.5920   33.8520   39.4070 C   0  0  0  0  0  0  0  0  0  0  0  0
   48.4910   34.4520   38.5490 C   0  0  0  0  0  0  0  0  0  0  0  0
   48.3680   34.3390   37.1810 C   0  0  0  0  0  0  0  0  0  0  0  0
   47.3300   33.6160   36.6230 C   0  0  0  0  0  0  0  0  0  0  0  0
   46.4230   33.0130   37.4860 C   0  0  0  0  0  0  0  0  0  0  0  0
   46.5700   33.1400   38.8640 C   0  0  0  0  0  0  0  0  0  0  0  0
   44.0020   35.1330   42.5210 C   0  0  0  0  0  0  0  0  0  0  0  0
   43.5570   34.0670   41.5340 C   0  0  0  0  0  0  0  0  0  0  0  0
   41.9360   35.5300   40.3920 C   0  0  0  0  0  0  0  0  0  0  0  0
   42.2030   34.3570   41.0990 C   0  0  0  0  0  0  0  0  0  0  0  0
   41.1410   33.5170   41.3500 C   0  0  0  0  0  0  0  0  0  0  0  0
   39.9100   33.8650   40.9070 N   0  0  0  0  0  0  0  0  0  0  0  0
   39.6860   35.0110   40.2240 C   0  0  0  0  0  0  0  0  0  0  0  0
   40.6990   35.8270   39.9760 N   0  0  0  0  0  0  0  0  0  0  0  0
   41.3220   32.3170   42.0560 N   0  0  0  0  0  0  0  0  0  0  0  0
   44.1982   33.9373   45.1312 H   0  0  0  0  0  0  0  0  0  0  0  0
   48.3014   33.8164   43.8972 H   0  0  0  0  0  0  0  0  0  0  0  0
   46.1173   35.6739   41.5140 H   0  0  0  0  0  0  0  0  0  0  0  0
   48.7034   36.0980   40.6798 H   0  0  0  0  0  0  0  0  0  0  0  0
   49.2904   35.5343   42.0087 H   0  0  0  0  0  0  0  0  0  0  0  0
   48.0006   32.9460   40.9449 H   0  0  0  0  0  0  0  0  0  0  0  0
   49.3255   35.0342   38.9669 H   0  0  0  0  0  0  0  0  0  0  0  0
   49.1034   34.8292   36.5261 H   0  0  0  0  0  0  0  0  0  0  0  0
   47.2256   33.5212   35.5321 H   0  0  0  0  0  0  0  0  0  0  0  0
   45.5834   32.4315   37.0773 H   0  0  0  0  0  0  0  0  0  0  0  0
   45.8419   32.6527   39.5291 H   0  0  0  0  0  0  0  0  0  0  0  0
   43.1874   35.3515   43.2271 H   0  0  0  0  0  0  0  0  0  0  0  0
   44.2620   36.0608   41.9904 H   0  0  0  0  0  0  0  0  0  0  0  0
   44.2308   34.0659   40.6645 H   0  0  0  0  0  0  0  0  0  0  0  0
   43.5871   33.0793   42.0172 H   0  0  0  0  0  0  0  0  0  0  0  0
   42.7595   36.2253   40.1719 H   0  0  0  0  0  0  0  0  0  0  0  0
   38.6725   35.2625   39.8781 H   0  0  0  0  0  0  0  0  0  0  0  0
   40.5179   31.6990   42.2360 H   0  0  0  0  0  0  0  0  0  0  0  0
   42.2589   32.0546   42.3940 H   0  0  0  0  0  0  0  0  0  0  0  0
  1  2  2  0
  2  3  1  0
  4  3  2  0
  5  1  1  0
  5  4  1  0
  6  5  1  0
  7  6  1  0
  8  7  1  0
  8  6  1  0
  9  8  1  0
 10  9  2  0
 11 10  1  0
 12 11  2  0
 12 13  1  0
 13 14  2  0
 14  9  1  0
 15  1  1  0
 16 15  1  0
 17 18  2  0
 18 19  1  0
 18 16  1  0
 19 23  1  0
 20 19  2  0
 21 20  1  0
 22 21  2  0
 22 17  1  0
  2 24  1  0
  4 25  1  0
  6 26  1  6
  7 27  1  0
  7 28  1  0
  8 29  1  1
 10 30  1  0
 11 31  1  0
 12 32  1  0
 13 33  1  0
 14 34  1  0
 15 35  1  0
 15 36  1  0
 16 37  1  0
 16 38  1  0
 17 39  1  0
 21 40  1  0
 23 41  1  0
 23 42  1  0
M  ISO  8  24  14  25  14  26  13  27  13  28  13  29  13  30  14  31  14
M  ISO  8  32  14  33  14  34  14  35   8  36   8  37   8  38   8  39  14
M  ISO  1  40  14
M  END
>  <minimizedAffinity>  (1) 
-5.53974056

>  <minimizedRMSD>  (1) 
1.64328825

$$$$
