
     RDKit          3D

 48 52  0  0  1  0  0  0  0  0999 V2000
   45.6240   34.3750   42.7150 C   0  0  0  0  0  0  0  0  0  0  0  0
   45.0740   33.9300   43.9090 C   0  0  0  0  0  0  0  0  0  0  0  0
   46.0860   33.5690   44.7110 N   0  0  0  0  0  0  0  0  0  0  0  0
   47.2620   33.7670   44.0740 C   0  0  0  0  0  0  0  0  0  0  0  0
   46.9610   34.2650   42.8420 N   0  0  0  0  0  0  0  0  0  0  0  0
   47.9100   34.6230   41.8250 C   0  0  1  0  0  0  0  0  0  0  0  0
   49.3430   34.3330   41.9050 C   0  0  0  0  0  0  0  0  0  0  0  0
   48.4890   33.4260   41.0730 C   0  0  2  0  0  0  0  0  0  0  0  0
   48.5770   33.4490   39.6070 C   0  0  0  0  0  0  0  0  0  0  0  0
   48.0330   34.3820   38.7820 C   0  0  0  0  0  0  0  0  0  0  0  0
   48.1580   34.3340   37.4080 C   0  0  0  0  0  0  0  0  0  0  0  0
   48.8810   33.2700   36.8860 C   0  0  0  0  0  0  0  0  0  0  0  0
   49.4690   32.2740   37.6730 C   0  0  0  0  0  0  0  0  0  0  0  0
   50.1740   31.2420   37.0890 C   0  0  0  0  0  0  0  0  0  0  0  0
   50.7420   30.2740   37.8970 C   0  0  0  0  0  0  0  0  0  0  0  0
   50.5890   30.3630   39.2670 C   0  0  0  0  0  0  0  0  0  0  0  0
   49.8740   31.4150   39.8000 C   0  0  0  0  0  0  0  0  0  0  0  0
   49.2840   32.4120   39.0340 C   0  0  0  0  0  0  0  0  0  0  0  0
   44.7890   34.8580   41.5790 C   0  0  0  0  0  0  0  0  0  0  0  0
   43.5690   33.9430   41.4700 C   0  0  0  0  0  0  0  0  0  0  0  0
   42.4240   34.4880   39.3680 C   0  0  0  0  0  0  0  0  0  0  0  0
   42.5190   34.6400   40.7490 C   0  0  0  0  0  0  0  0  0  0  0  0
   41.5930   35.4600   41.3590 C   0  0  0  0  0  0  0  0  0  0  0  0
   40.6470   36.0700   40.6020 N   0  0  0  0  0  0  0  0  0  0  0  0
   40.5940   35.8910   39.2640 C   0  0  0  0  0  0  0  0  0  0  0  0
   41.4700   35.1110   38.6480 N   0  0  0  0  0  0  0  0  0  0  0  0
   41.6240   35.6620   42.7500 N   0  0  0  0  0  0  0  0  0  0  0  0
   44.0025   33.8822   44.1530 H   0  0  0  0  0  0  0  0  0  0  0  0
   48.2670   33.5652   44.4730 H   0  0  0  0  0  0  0  0  0  0  0  0
   47.3776   35.5632   41.6185 H   0  0  0  0  0  0  0  0  0  0  0  0
   50.0624   35.0048   41.4140 H   0  0  0  0  0  0  0  0  0  0  0  0
   50.0464   34.1731   42.7355 H   0  0  0  0  0  0  0  0  0  0  0  0
   48.2957   32.3438   41.0348 H   0  0  0  0  0  0  0  0  0  0  0  0
   47.4676   35.2129   39.2292 H   0  0  0  0  0  0  0  0  0  0  0  0
   47.7076   35.1000   36.7597 H   0  0  0  0  0  0  0  0  0  0  0  0
   48.9979   33.2066   35.7941 H   0  0  0  0  0  0  0  0  0  0  0  0
   50.2829   31.1898   35.9956 H   0  0  0  0  0  0  0  0  0  0  0  0
   51.3093   29.4424   37.4537 H   0  0  0  0  0  0  0  0  0  0  0  0
   51.0330   29.6025   39.9262 H   0  0  0  0  0  0  0  0  0  0  0  0
   49.7649   31.4674   40.8933 H   0  0  0  0  0  0  0  0  0  0  0  0
   44.4649   35.8923   41.7667 H   0  0  0  0  0  0  0  0  0  0  0  0
   45.3671   34.8388   40.6433 H   0  0  0  0  0  0  0  0  0  0  0  0
   43.8429   33.0260   40.9276 H   0  0  0  0  0  0  0  0  0  0  0  0
   43.2143   33.6747   42.4761 H   0  0  0  0  0  0  0  0  0  0  0  0
   43.1478   33.8414   38.8503 H   0  0  0  0  0  0  0  0  0  0  0  0
   39.8137   36.3993   38.6786 H   0  0  0  0  0  0  0  0  0  0  0  0
   40.9283   36.2762   43.1968 H   0  0  0  0  0  0  0  0  0  0  0  0
   42.3424   35.1958   43.3222 H   0  0  0  0  0  0  0  0  0  0  0  0
  1  5  1  0
  1  2  2  0
  2  3  1  0
  4  3  2  0
  5  4  1  0
  6  7  1  0
  6  5  1  0
  8  6  1  0
  8  7  1  0
  9  8  1  0
 10  9  2  0
 11 10  1  0
 12 11  2  0
 12 13  1  0
 13 18  2  0
 14 13  1  0
 14 15  2  0
 15 16  1  0
 16 17  2  0
 18  9  1  0
 18 17  1  0
 19  1  1  0
 20 19  1  0
 21 22  2  0
 22 23  1  0
 22 20  1  0
 23 27  1  0
 24 23  2  0
 25 24  1  0
 26 25  2  0
 26 21  1  0
  2 28  1  0
  4 29  1  0
  6 30  1  6
  7 31  1  0
  7 32  1  0
  8 33  1  1
 10 34  1  0
 11 35  1  0
 12 36  1  0
 14 37  1  0
 15 38  1  0
 16 39  1  0
 17 40  1  0
 19 41  1  0
 19 42  1  0
 20 43  1  0
 20 44  1  0
 21 45  1  0
 25 46  1  0
 27 47  1  0
 27 48  1  0
M  ISO  8  28  14  29  14  30  13  31  13  32  13  33  13  34  14  35  14
M  ISO  8  36  14  37  14  38  14  39  14  40  14  41   8  42   8  43   8
M  ISO  3  44   8  45  14  46  14
M  END
>  <minimizedAffinity>  (1) 
-5.93775654

>  <minimizedRMSD>  (1) 
3.184829

$$$$
