
     RDKit          3D

 45 48  0  0  1  0  0  0  0  0999 V2000
   44.8000   34.7400   43.3840 C   0  0  0  0  0  0  0  0  0  0  0  0
   44.3810   35.9380   43.9450 C   0  0  0  0  0  0  0  0  0  0  0  0
   44.5670   35.8430   45.2740 N   0  0  0  0  0  0  0  0  0  0  0  0
   45.0840   34.6380   45.5730 C   0  0  0  0  0  0  0  0  0  0  0  0
   45.2220   33.9660   44.3960 N   0  0  0  0  0  0  0  0  0  0  0  0
   45.7370   32.6300   44.2120 C   0  0  1  0  0  0  0  0  0  0  0  0
   47.1450   32.3850   43.8590 C   0  0  0  0  0  0  0  0  0  0  0  0
   46.6930   32.1630   45.2920 C   0  0  2  0  0  0  0  0  0  0  0  0
   46.8150   30.7270   45.6920 C   0  0  0  0  0  0  0  0  0  0  0  0
   47.6040   30.6990   47.0090 C   0  0  0  0  0  0  0  0  0  0  0  0
   46.7180   29.9810   48.0100 C   0  0  0  0  0  0  0  0  0  0  0  0
   45.3210   30.2790   47.4770 C   0  0  0  0  0  0  0  0  0  0  0  0
   45.5250   30.0380   46.0080 C   0  0  0  0  0  0  0  0  0  0  0  0
   44.7340   34.5040   41.9220 C   0  0  0  0  0  0  0  0  0  0  0  0
   43.4820   33.6780   41.6260 C   0  0  0  0  0  0  0  0  0  0  0  0
   42.8610   34.3100   39.3260 C   0  0  0  0  0  0  0  0  0  0  0  0
   42.6340   34.4100   40.7100 C   0  0  0  0  0  0  0  0  0  0  0  0
   41.5940   35.2140   41.1180 C   0  0  0  0  0  0  0  0  0  0  0  0
   40.8590   35.8550   40.1590 N   0  0  0  0  0  0  0  0  0  0  0  0
   41.1060   35.7350   38.8510 C   0  0  0  0  0  0  0  0  0  0  0  0
   42.1040   34.9660   38.4250 N   0  0  0  0  0  0  0  0  0  0  0  0
   41.3040   35.3660   42.4730 N   0  0  0  0  0  0  0  0  0  0  0  0
   43.9727   36.8042   43.4037 H   0  0  0  0  0  0  0  0  0  0  0  0
   45.3451   34.2666   46.5749 H   0  0  0  0  0  0  0  0  0  0  0  0
   44.7980   32.2858   43.7540 H   0  0  0  0  0  0  0  0  0  0  0  0
   47.4094   31.5232   43.2286 H   0  0  0  0  0  0  0  0  0  0  0  0
   47.9370   32.9813   43.3823 H   0  0  0  0  0  0  0  0  0  0  0  0
   46.8775   32.5343   46.3109 H   0  0  0  0  0  0  0  0  0  0  0  0
   47.2746   30.2124   44.8353 H   0  0  0  0  0  0  0  0  0  0  0  0
   48.5505   30.1545   46.8764 H   0  0  0  0  0  0  0  0  0  0  0  0
   47.8575   31.7138   47.3494 H   0  0  0  0  0  0  0  0  0  0  0  0
   46.9197   28.8997   48.0172 H   0  0  0  0  0  0  0  0  0  0  0  0
   46.8725   30.3068   49.0492 H   0  0  0  0  0  0  0  0  0  0  0  0
   44.5714   29.5939   47.8997 H   0  0  0  0  0  0  0  0  0  0  0  0
   44.9416   31.2809   47.7266 H   0  0  0  0  0  0  0  0  0  0  0  0
   44.6994   30.4713   45.4244 H   0  0  0  0  0  0  0  0  0  0  0  0
   45.5505   28.9669   45.7590 H   0  0  0  0  0  0  0  0  0  0  0  0
   44.6789   35.4662   41.3919 H   0  0  0  0  0  0  0  0  0  0  0  0
   45.6320   33.9663   41.5836 H   0  0  0  0  0  0  0  0  0  0  0  0
   43.7727   32.7193   41.1718 H   0  0  0  0  0  0  0  0  0  0  0  0
   42.9362   33.4864   42.5616 H   0  0  0  0  0  0  0  0  0  0  0  0
   43.6842   33.6749   38.9669 H   0  0  0  0  0  0  0  0  0  0  0  0
   40.4813   36.2745   38.1238 H   0  0  0  0  0  0  0  0  0  0  0  0
   40.5236   35.9700   42.7680 H   0  0  0  0  0  0  0  0  0  0  0  0
   41.8701   34.8743   43.1791 H   0  0  0  0  0  0  0  0  0  0  0  0
  1  2  2  0
  1  5  1  0
  2  3  1  0
  3  4  2  0
  5  4  1  0
  6  5  1  0
  6  8  1  0
  7  6  1  0
  7  8  1  0
  8  9  1  0
  9 13  1  0
  9 10  1  0
 10 11  1  0
 12 11  1  0
 13 12  1  0
 14  1  1  0
 15 14  1  0
 16 17  2  0
 17 18  1  0
 17 15  1  0
 18 22  1  0
 19 18  2  0
 20 19  1  0
 21 20  2  0
 21 16  1  0
  2 23  1  0
  4 24  1  0
  6 25  1  6
  7 26  1  0
  7 27  1  0
  8 28  1  1
  9 29  1  0
 10 30  1  0
 10 31  1  0
 11 32  1  0
 11 33  1  0
 12 34  1  0
 12 35  1  0
 13 36  1  0
 13 37  1  0
 14 38  1  0
 14 39  1  0
 15 40  1  0
 15 41  1  0
 16 42  1  0
 20 43  1  0
 22 44  1  0
 22 45  1  0
M  ISO  8  23  14  24  14  25  13  26  13  27  13  28  13  29  13  30  13
M  ISO  8  31  13  32  13  33  13  34  13  35  13  36  13  37  13  38   8
M  ISO  5  39   8  40   8  41   8  42  14  43  14
M  END
>  <minimizedAffinity>  (1) 
-5.37393856

>  <minimizedRMSD>  (1) 
5.38023806

$$$$
