
     RDKit          3D

 46 50  0  0  1  0  0  0  0  0999 V2000
   45.6110   34.1250   42.2490 C   0  0  0  0  0  0  0  0  0  0  0  0
   45.1670   33.0820   43.0470 C   0  0  0  0  0  0  0  0  0  0  0  0
   46.1770   32.7370   43.8440 N   0  0  0  0  0  0  0  0  0  0  0  0
   47.2480   33.5080   43.5950 C   0  0  0  0  0  0  0  0  0  0  0  0
   46.8930   34.3580   42.6150 N   0  0  0  0  0  0  0  0  0  0  0  0
   47.7190   35.3700   42.0230 C   0  0  1  0  0  0  0  0  0  0  0  0
   49.1830   35.3260   41.9880 C   0  0  0  0  0  0  0  0  0  0  0  0
   48.4170   34.9870   40.7390 C   0  0  1  0  0  0  0  0  0  0  0  0
   48.4740   33.6340   40.2880 N   0  0  0  0  0  0  0  0  0  0  0  0
   49.2110   32.6030   40.7400 C   0  0  0  0  0  0  0  0  0  0  0  0
   48.9260   31.5010   39.9930 N   0  0  0  0  0  0  0  0  0  0  0  0
   48.0080   31.8270   39.0670 C   0  0  0  0  0  0  0  0  0  0  0  0
   47.3830   31.0990   38.0720 C   0  0  0  0  0  0  0  0  0  0  0  0
   47.6220   29.8790   37.8820 O   0  0  0  0  0  0  0  0  0  0  0  0
   46.4680   31.6800   37.2470 N   0  0  0  0  0  0  0  0  0  0  0  0
   46.2070   32.9850   37.4460 C   0  0  0  0  0  0  0  0  0  0  0  0
   45.2830   33.7590   36.6820 N   0  0  0  0  0  0  0  0  0  0  0  0
   46.8190   33.6890   38.4150 N   0  0  0  0  0  0  0  0  0  0  0  0
   47.7330   33.1650   39.2620 C   0  0  0  0  0  0  0  0  0  0  0  0
   44.7530   34.7810   41.2240 C   0  0  0  0  0  0  0  0  0  0  0  0
   43.9380   33.7090   40.5240 C   0  0  0  0  0  0  0  0  0  0  0  0
   42.3230   35.1660   39.3640 C   0  0  0  0  0  0  0  0  0  0  0  0
   42.5900   34.1910   40.3130 C   0  0  0  0  0  0  0  0  0  0  0  0
   41.5050   33.7080   41.0440 C   0  0  0  0  0  0  0  0  0  0  0  0
   40.2740   34.2200   40.7770 N   0  0  0  0  0  0  0  0  0  0  0  0
   40.0680   35.1630   39.8490 C   0  0  0  0  0  0  0  0  0  0  0  0
   41.0860   35.6270   39.1520 N   0  0  0  0  0  0  0  0  0  0  0  0
   41.6760   32.7220   42.0250 N   0  0  0  0  0  0  0  0  0  0  0  0
   44.1669   32.6245   43.0260 H   0  0  0  0  0  0  0  0  0  0  0  0
   48.2261   33.4547   44.0956 H   0  0  0  0  0  0  0  0  0  0  0  0
   47.0260   36.1443   42.3838 H   0  0  0  0  0  0  0  0  0  0  0  0
   49.7595   36.2615   42.0389 H   0  0  0  0  0  0  0  0  0  0  0  0
   49.9533   34.8135   42.5829 H   0  0  0  0  0  0  0  0  0  0  0  0
   48.3506   35.3439   39.7006 H   0  0  0  0  0  0  0  0  0  0  0  0
   49.9258   32.6438   41.5751 H   0  0  0  0  0  0  0  0  0  0  0  0
   45.9969   31.1443   36.5040 H   0  0  0  0  0  0  0  0  0  0  0  0
   45.1417   34.7556   36.9005 H   0  0  0  0  0  0  0  0  0  0  0  0
   44.7574   33.3211   35.9121 H   0  0  0  0  0  0  0  0  0  0  0  0
   44.0791   35.5020   41.7099 H   0  0  0  0  0  0  0  0  0  0  0  0
   45.3782   35.3169   40.4947 H   0  0  0  0  0  0  0  0  0  0  0  0
   44.3992   33.4724   39.5538 H   0  0  0  0  0  0  0  0  0  0  0  0
   43.9108   32.8028   41.1469 H   0  0  0  0  0  0  0  0  0  0  0  0
   43.1534   35.5722   38.7679 H   0  0  0  0  0  0  0  0  0  0  0  0
   39.0537   35.5488   39.6691 H   0  0  0  0  0  0  0  0  0  0  0  0
   40.8633   32.3768   42.5554 H   0  0  0  0  0  0  0  0  0  0  0  0
   42.6144   32.3425   42.2156 H   0  0  0  0  0  0  0  0  0  0  0  0
  1  5  1  0
  1  2  2  0
  2  3  1  0
  4  3  2  0
  5  4  1  0
  6  5  1  0
  7  6  1  0
  8  7  1  0
  8  6  1  0
  9  8  1  0
  9 10  1  0
 11 10  2  0
 12 19  2  0
 12 11  1  0
 13 12  1  0
 14 13  2  0
 15 16  1  0
 15 13  1  0
 16 18  2  0
 17 16  1  0
 18 19  1  0
 19  9  1  0
 20  1  1  0
 21 20  1  0
 22 23  2  0
 23 21  1  0
 23 24  1  0
 24 28  1  0
 25 24  2  0
 26 25  1  0
 27 22  1  0
 27 26  2  0
  2 29  1  0
  4 30  1  0
  6 31  1  6
  7 32  1  0
  7 33  1  0
  8 34  1  6
 10 35  1  0
 15 36  1  0
 17 37  1  0
 17 38  1  0
 20 39  1  0
 20 40  1  0
 21 41  1  0
 21 42  1  0
 22 43  1  0
 26 44  1  0
 28 45  1  0
 28 46  1  0
M  ISO  8  29  14  30  14  31  13  32  13  33  13  34  13  35  14  36   9
M  ISO  6  39   8  40   8  41   8  42   8  43  14  44  14
M  END
>  <minimizedAffinity>  (1) 
-5.90099716

>  <minimizedRMSD>  (1) 
0.690023184

$$$$
