
     RDKit          3D

 45 49  0  0  1  0  0  0  0  0999 V2000
   45.4660   34.6820   43.1300 C   0  0  0  0  0  0  0  0  0  0  0  0
   45.4660   34.2100   44.4360 C   0  0  0  0  0  0  0  0  0  0  0  0
   46.6930   33.7360   44.6830 N   0  0  0  0  0  0  0  0  0  0  0  0
   47.4760   33.8870   43.5860 C   0  0  0  0  0  0  0  0  0  0  0  0
   46.7050   34.4680   42.6450 N   0  0  0  0  0  0  0  0  0  0  0  0
   47.1120   34.8180   41.3220 C   0  0  1  0  0  0  0  0  0  0  0  0
   48.5130   34.9270   40.9040 C   0  0  0  0  0  0  0  0  0  0  0  0
   47.7370   33.6940   40.5160 C   0  0  2  0  0  0  0  0  0  0  0  0
   47.4960   33.6290   39.0900 N   0  0  0  0  0  0  0  0  0  0  0  0
   48.2540   34.1920   38.1290 C   0  0  0  0  0  0  0  0  0  0  0  0
   47.7150   33.9170   36.9310 N   0  0  0  0  0  0  0  0  0  0  0  0
   46.6280   33.1870   37.1560 C   0  0  0  0  0  0  0  0  0  0  0  0
   45.7420   32.6640   36.2360 C   0  0  0  0  0  0  0  0  0  0  0  0
   44.7070   31.9500   36.7310 N   0  0  0  0  0  0  0  0  0  0  0  0
   44.5510   31.7600   38.0570 C   0  0  0  0  0  0  0  0  0  0  0  0
   45.4220   32.2720   38.9750 N   0  0  0  0  0  0  0  0  0  0  0  0
   46.4630   32.9880   38.5170 C   0  0  0  0  0  0  0  0  0  0  0  0
   45.8590   32.8330   34.8300 N   0  0  0  0  0  0  0  0  0  0  0  0
   44.2600   35.2880   42.4990 C   0  0  0  0  0  0  0  0  0  0  0  0
   43.4740   34.1710   41.7940 C   0  0  0  0  0  0  0  0  0  0  0  0
   42.7320   34.7150   39.5160 C   0  0  0  0  0  0  0  0  0  0  0  0
   42.5180   34.7770   40.8940 C   0  0  0  0  0  0  0  0  0  0  0  0
   41.3770   35.4300   41.3330 C   0  0  0  0  0  0  0  0  0  0  0  0
   40.5370   35.9700   40.4040 N   0  0  0  0  0  0  0  0  0  0  0  0
   40.7800   35.8880   39.0820 C   0  0  0  0  0  0  0  0  0  0  0  0
   41.8630   35.2700   38.6390 N   0  0  0  0  0  0  0  0  0  0  0  0
   41.0940   35.5330   42.6960 N   0  0  0  0  0  0  0  0  0  0  0  0
   44.6173   34.2232   45.1357 H   0  0  0  0  0  0  0  0  0  0  0  0
   48.5312   33.5935   43.4842 H   0  0  0  0  0  0  0  0  0  0  0  0
   46.2731   35.5244   41.2364 H   0  0  0  0  0  0  0  0  0  0  0  0
   48.7977   35.6583   40.1331 H   0  0  0  0  0  0  0  0  0  0  0  0
   49.4619   35.1051   41.4311 H   0  0  0  0  0  0  0  0  0  0  0  0
   47.7828   32.6041   40.6576 H   0  0  0  0  0  0  0  0  0  0  0  0
   49.1669   34.7817   38.2988 H   0  0  0  0  0  0  0  0  0  0  0  0
   43.6917   31.1718   38.4113 H   0  0  0  0  0  0  0  0  0  0  0  0
   46.6432   33.3750   34.4399 H   0  0  0  0  0  0  0  0  0  0  0  0
   45.1596   32.4135   34.2009 H   0  0  0  0  0  0  0  0  0  0  0  0
   43.6311   35.7557   43.2709 H   0  0  0  0  0  0  0  0  0  0  0  0
   44.5579   36.0591   41.7733 H   0  0  0  0  0  0  0  0  0  0  0  0
   44.1662   33.5332   41.2247 H   0  0  0  0  0  0  0  0  0  0  0  0
   42.9502   33.5528   42.5380 H   0  0  0  0  0  0  0  0  0  0  0  0
   43.6276   34.2032   39.1339 H   0  0  0  0  0  0  0  0  0  0  0  0
   40.0749   36.3369   38.3670 H   0  0  0  0  0  0  0  0  0  0  0  0
   40.2428   36.0208   43.0098 H   0  0  0  0  0  0  0  0  0  0  0  0
   41.7363   35.1212   43.3879 H   0  0  0  0  0  0  0  0  0  0  0  0
  1  2  2  0
  2  3  1  0
  4  3  2  0
  5  1  1  0
  5  4  1  0
  6  5  1  0
  7  6  1  0
  8  7  1  0
  8  6  1  0
  9  8  1  0
 10  9  1  0
 11 12  1  0
 11 10  2  0
 12 17  2  0
 13 14  2  0
 13 12  1  0
 14 15  1  0
 15 16  2  0
 17 16  1  0
 17  9  1  0
 18 13  1  0
 19  1  1  0
 20 19  1  0
 21 22  2  0
 22 23  1  0
 22 20  1  0
 23 27  1  0
 24 23  2  0
 25 24  1  0
 26 25  2  0
 26 21  1  0
  2 28  1  0
  4 29  1  0
  6 30  1  6
  7 31  1  0
  7 32  1  0
  8 33  1  1
 10 34  1  0
 15 35  1  0
 18 36  1  0
 18 37  1  0
 19 38  1  0
 19 39  1  0
 20 40  1  0
 20 41  1  0
 21 42  1  0
 25 43  1  0
 27 44  1  0
 27 45  1  0
M  ISO  8  28  14  29  14  30  13  31  13  32  13  33  13  34  14  35  14
M  ISO  6  38   8  39   8  40   8  41   8  42  14  43  14
M  END
>  <minimizedAffinity>  (1) 
-6.24926853

>  <minimizedRMSD>  (1) 
2.4936974

$$$$
