
     RDKit          3D

 39 42  0  0  1  0  0  0  0  0999 V2000
   44.2310   35.2960   41.8260 C   0  0  0  0  0  0  0  0  0  0  0  0
   45.3300   34.7270   42.6750 C   0  0  0  0  0  0  0  0  0  0  0  0
   45.0930   34.1280   43.9110 C   0  0  0  0  0  0  0  0  0  0  0  0
   46.2710   33.7340   44.3940 N   0  0  0  0  0  0  0  0  0  0  0  0
   47.2570   34.0580   43.5140 C   0  0  0  0  0  0  0  0  0  0  0  0
   46.6560   34.6640   42.4690 N   0  0  0  0  0  0  0  0  0  0  0  0
   47.3050   35.1730   41.3080 C   0  0  1  0  0  0  0  0  0  0  0  0
   48.7580   35.2450   41.1160 C   0  0  0  0  0  0  0  0  0  0  0  0
   48.0310   34.1100   40.4800 C   0  0  2  0  0  0  0  0  0  0  0  0
   47.7010   34.0560   39.0360 C   0  0  0  0  0  0  0  0  0  0  0  0
   48.5390   33.0690   38.2530 C   0  0  0  0  0  0  0  0  0  0  0  0
   48.5240   34.5640   37.9460 C   0  0  0  0  0  0  0  0  0  0  0  0
   43.8120   34.2260   40.8330 C   0  0  0  0  0  0  0  0  0  0  0  0
   41.9090   35.3210   39.7030 C   0  0  0  0  0  0  0  0  0  0  0  0
   42.3860   34.3550   40.5790 C   0  0  0  0  0  0  0  0  0  0  0  0
   41.4490   33.5330   41.1890 C   0  0  0  0  0  0  0  0  0  0  0  0
   40.1320   33.7260   40.8910 N   0  0  0  0  0  0  0  0  0  0  0  0
   39.7240   34.6700   40.0400 C   0  0  0  0  0  0  0  0  0  0  0  0
   40.5970   35.4590   39.4520 N   0  0  0  0  0  0  0  0  0  0  0  0
   41.8470   32.5270   42.0930 N   0  0  0  0  0  0  0  0  0  0  0  0
   43.3756   35.5753   42.4586 H   0  0  0  0  0  0  0  0  0  0  0  0
   44.5794   36.1958   41.2979 H   0  0  0  0  0  0  0  0  0  0  0  0
   44.1145   34.0035   44.3978 H   0  0  0  0  0  0  0  0  0  0  0  0
   48.3333   33.8639   43.6316 H   0  0  0  0  0  0  0  0  0  0  0  0
   46.5288   35.9446   41.1977 H   0  0  0  0  0  0  0  0  0  0  0  0
   49.1842   36.0391   40.4853 H   0  0  0  0  0  0  0  0  0  0  0  0
   49.6164   35.3148   41.8003 H   0  0  0  0  0  0  0  0  0  0  0  0
   48.1914   33.0218   40.4850 H   0  0  0  0  0  0  0  0  0  0  0  0
   46.6459   34.2662   39.2651 H   0  0  0  0  0  0  0  0  0  0  0  0
   49.4240   32.6029   38.7107 H   0  0  0  0  0  0  0  0  0  0  0  0
   48.3541   32.1418   37.6908 H   0  0  0  0  0  0  0  0  0  0  0  0
   49.4095   35.1775   38.1686 H   0  0  0  0  0  0  0  0  0  0  0  0
   48.3286   35.1659   37.0463 H   0  0  0  0  0  0  0  0  0  0  0  0
   44.3682   34.3559   39.8929 H   0  0  0  0  0  0  0  0  0  0  0  0
   44.0298   33.2291   41.2437 H   0  0  0  0  0  0  0  0  0  0  0  0
   42.6239   35.9902   39.2019 H   0  0  0  0  0  0  0  0  0  0  0  0
   38.6510   34.7889   39.8291 H   0  0  0  0  0  0  0  0  0  0  0  0
   41.1394   31.9249   42.5377 H   0  0  0  0  0  0  0  0  0  0  0  0
   42.8453   32.3941   42.3088 H   0  0  0  0  0  0  0  0  0  0  0  0
  1  2  1  0
  2  3  2  0
  3  4  1  0
  5  4  2  0
  6  2  1  0
  6  5  1  0
  7  6  1  0
  8  7  1  0
  9  8  1  0
  9  7  1  0
 10  9  1  0
 11 10  1  0
 12 11  1  0
 12 10  1  0
 13  1  1  0
 14 15  2  0
 15 13  1  0
 15 16  1  0
 16 20  1  0
 17 16  2  0
 18 17  1  0
 19 14  1  0
 19 18  2  0
  1 21  1  0
  1 22  1  0
  3 23  1  0
  5 24  1  0
  7 25  1  6
  8 26  1  0
  8 27  1  0
  9 28  1  1
 10 29  1  0
 11 30  1  0
 11 31  1  0
 12 32  1  0
 12 33  1  0
 13 34  1  0
 13 35  1  0
 14 36  1  0
 18 37  1  0
 20 38  1  0
 20 39  1  0
M  ISO  8  21   8  22   8  23  14  24  14  25  13  26  13  27  13  28  13
M  ISO  8  29  13  30  13  31  13  32  13  33  13  34   8  35   8  36  14
M  ISO  1  37  14
M  END
>  <minimizedAffinity>  (1) 
-5.01704407

>  <minimizedRMSD>  (1) 
0.995096684

$$$$
