
     RDKit          3D

 44 47  0  0  1  0  0  0  0  0999 V2000
   45.4400   34.8930   43.1710 C   0  0  0  0  0  0  0  0  0  0  0  0
   45.1950   34.2970   44.3950 C   0  0  0  0  0  0  0  0  0  0  0  0
   46.3050   33.6440   44.7400 N   0  0  0  0  0  0  0  0  0  0  0  0
   47.2440   33.8010   43.7800 C   0  0  0  0  0  0  0  0  0  0  0  0
   46.7010   34.5720   42.8190 N   0  0  0  0  0  0  0  0  0  0  0  0
   47.3390   35.0000   41.6020 C   0  0  1  0  0  0  0  0  0  0  0  0
   48.7460   34.7220   41.2650 C   0  0  0  0  0  0  0  0  0  0  0  0
   47.7050   33.8420   40.6570 C   0  0  2  0  0  0  0  0  0  0  0  0
   47.3580   34.0590   39.3040 N   0  0  0  0  0  0  0  0  0  0  0  0
   46.4580   33.1360   38.6990 C   0  0  0  0  0  0  0  0  0  0  0  0
   47.1400   32.5250   37.5080 C   0  0  0  0  0  0  0  0  0  0  0  0
   48.4330   33.3020   37.3440 C   0  0  0  0  0  0  0  0  0  0  0  0
   48.3750   34.4010   38.3860 C   0  0  0  0  0  0  0  0  0  0  0  0
   44.4150   35.7200   42.4580 C   0  0  0  0  0  0  0  0  0  0  0  0
   44.0380   35.0130   41.1630 C   0  0  0  0  0  0  0  0  0  0  0  0
   41.6170   35.3580   41.4270 C   0  0  0  0  0  0  0  0  0  0  0  0
   42.6960   34.4800   41.3010 C   0  0  0  0  0  0  0  0  0  0  0  0
   42.4170   33.1190   41.3130 C   0  0  0  0  0  0  0  0  0  0  0  0
   41.1180   32.7480   41.4480 N   0  0  0  0  0  0  0  0  0  0  0  0
   40.1110   33.6150   41.5660 C   0  0  0  0  0  0  0  0  0  0  0  0
   40.3500   34.9140   41.5570 N   0  0  0  0  0  0  0  0  0  0  0  0
   43.4450   32.1830   41.1910 N   0  0  0  0  0  0  0  0  0  0  0  0
   44.2613   34.3515   44.9740 H   0  0  0  0  0  0  0  0  0  0  0  0
   48.2597   33.3786   43.7834 H   0  0  0  0  0  0  0  0  0  0  0  0
   46.7695   35.9411   41.5999 H   0  0  0  0  0  0  0  0  0  0  0  0
   49.3011   35.4263   40.6280 H   0  0  0  0  0  0  0  0  0  0  0  0
   49.6504   34.5334   41.8620 H   0  0  0  0  0  0  0  0  0  0  0  0
   47.5492   32.7541   40.6102 H   0  0  0  0  0  0  0  0  0  0  0  0
   46.1920   32.3488   39.4198 H   0  0  0  0  0  0  0  0  0  0  0  0
   45.5386   33.6525   38.3860 H   0  0  0  0  0  0  0  0  0  0  0  0
   47.3505   31.4606   37.6887 H   0  0  0  0  0  0  0  0  0  0  0  0
   46.5133   32.5770   36.6055 H   0  0  0  0  0  0  0  0  0  0  0  0
   49.3001   32.6487   37.5211 H   0  0  0  0  0  0  0  0  0  0  0  0
   48.5416   33.7069   36.3270 H   0  0  0  0  0  0  0  0  0  0  0  0
   49.3412   34.4772   38.9063 H   0  0  0  0  0  0  0  0  0  0  0  0
   48.1627   35.3721   37.9150 H   0  0  0  0  0  0  0  0  0  0  0  0
   43.5232   35.8330   43.0920 H   0  0  0  0  0  0  0  0  0  0  0  0
   44.8231   36.7174   42.2374 H   0  0  0  0  0  0  0  0  0  0  0  0
   44.7446   34.1925   40.9694 H   0  0  0  0  0  0  0  0  0  0  0  0
   44.0765   35.7218   40.3227 H   0  0  0  0  0  0  0  0  0  0  0  0
   41.8058   36.4417   41.4200 H   0  0  0  0  0  0  0  0  0  0  0  0
   39.0796   33.2474   41.6710 H   0  0  0  0  0  0  0  0  0  0  0  0
   43.2285   31.1761   41.2010 H   0  0  0  0  0  0  0  0  0  0  0  0
   44.4202   32.4992   41.0910 H   0  0  0  0  0  0  0  0  0  0  0  0
  1  2  2  0
  2  3  1  0
  4  3  2  0
  5  1  1  0
  5  4  1  0
  6  5  1  0
  7  6  1  0
  8  7  1  0
  8  6  1  0
  9 10  1  0
  9  8  1  0
 11 10  1  0
 12 11  1  0
 12 13  1  0
 13  9  1  0
 14  1  1  0
 15 17  1  0
 15 14  1  0
 16 21  2  0
 17 18  2  0
 17 16  1  0
 18 19  1  0
 19 20  2  0
 21 20  1  0
 22 18  1  0
  2 23  1  0
  4 24  1  0
  6 25  1  6
  7 26  1  0
  7 27  1  0
  8 28  1  1
 10 29  1  0
 10 30  1  0
 11 31  1  0
 11 32  1  0
 12 33  1  0
 12 34  1  0
 13 35  1  0
 13 36  1  0
 14 37  1  0
 14 38  1  0
 15 39  1  0
 15 40  1  0
 16 41  1  0
 20 42  1  0
 22 43  1  0
 22 44  1  0
M  ISO  8  23  14  24  14  25  13  26  13  27  13  28  13  29  13  30  13
M  ISO  8  31  13  32  13  33  13  34  13  35  13  36  13  37   8  38   8
M  ISO  4  39   8  40   8  41  14  42  14
M  END
>  <minimizedAffinity>  (1) 
-5.04127645

>  <minimizedRMSD>  (1) 
1.56210554

$$$$
