
     RDKit          3D

 33 35  0  0  1  0  0  0  0  0999 V2000
   44.5440   35.2270   41.8080 C   0  0  0  0  0  0  0  0  0  0  0  0
   45.5150   34.5680   42.7190 C   0  0  0  0  0  0  0  0  0  0  0  0
   45.1250   33.7430   43.7590 C   0  0  0  0  0  0  0  0  0  0  0  0
   46.2440   33.3180   44.3770 N   0  0  0  0  0  0  0  0  0  0  0  0
   47.3300   33.8420   43.7640 C   0  0  0  0  0  0  0  0  0  0  0  0
   46.8640   34.6090   42.7460 N   0  0  0  0  0  0  0  0  0  0  0  0
   47.6680   35.3600   41.8240 C   0  0  1  0  0  0  0  0  0  0  0  0
   49.1300   35.3820   41.8320 C   0  0  0  0  0  0  0  0  0  0  0  0
   48.4420   34.5000   40.8310 C   0  0  2  0  0  0  0  0  0  0  0  0
   48.4500   34.8590   39.4850 O   0  0  0  0  0  0  0  0  0  0  0  0
   44.1140   34.2150   40.7470 C   0  0  0  0  0  0  0  0  0  0  0  0
   42.1710   35.3110   39.7110 C   0  0  0  0  0  0  0  0  0  0  0  0
   42.6850   34.3180   40.5540 C   0  0  0  0  0  0  0  0  0  0  0  0
   41.7800   33.4660   41.1730 C   0  0  0  0  0  0  0  0  0  0  0  0
   40.4480   33.6470   40.9240 N   0  0  0  0  0  0  0  0  0  0  0  0
   39.9960   34.6120   40.1100 C   0  0  0  0  0  0  0  0  0  0  0  0
   40.8410   35.4410   39.5040 N   0  0  0  0  0  0  0  0  0  0  0  0
   42.2150   32.4540   42.0250 N   0  0  0  0  0  0  0  0  0  0  0  0
   43.6659   35.5612   42.3800 H   0  0  0  0  0  0  0  0  0  0  0  0
   45.0087   36.1017   41.3294 H   0  0  0  0  0  0  0  0  0  0  0  0
   44.0916   33.4822   44.0311 H   0  0  0  0  0  0  0  0  0  0  0  0
   48.3830   33.6787   44.0368 H   0  0  0  0  0  0  0  0  0  0  0  0
   46.9396   36.1843   41.8267 H   0  0  0  0  0  0  0  0  0  0  0  0
   49.6630   36.2814   41.4899 H   0  0  0  0  0  0  0  0  0  0  0  0
   49.8948   35.2131   42.6044 H   0  0  0  0  0  0  0  0  0  0  0  0
   48.4750   33.4332   40.5646 H   0  0  0  0  0  0  0  0  0  0  0  0
   48.4720   35.8457   39.4068 H   0  0  0  0  0  0  0  0  0  0  0  0
   44.6310   34.4303   39.8002 H   0  0  0  0  0  0  0  0  0  0  0  0
   44.3735   33.1977   41.0752 H   0  0  0  0  0  0  0  0  0  0  0  0
   42.8641   36.0002   39.2063 H   0  0  0  0  0  0  0  0  0  0  0  0
   38.9142   34.7191   39.9416 H   0  0  0  0  0  0  0  0  0  0  0  0
   41.5302   31.8307   42.4761 H   0  0  0  0  0  0  0  0  0  0  0  0
   43.2215   32.3288   42.2041 H   0  0  0  0  0  0  0  0  0  0  0  0
  1  2  1  0
  2  6  1  0
  2  3  2  0
  3  4  1  0
  5  4  2  0
  6  5  1  0
  7  8  1  0
  7  6  1  0
  9  7  1  0
  9  8  1  0
 10  9  1  0
 11  1  1  0
 12 13  2  0
 13 11  1  0
 13 14  1  0
 14 18  1  0
 15 14  2  0
 16 15  1  0
 17 12  1  0
 17 16  2  0
  1 19  1  0
  1 20  1  0
  3 21  1  0
  5 22  1  0
  7 23  1  6
  8 24  1  0
  8 25  1  0
  9 26  1  6
 10 27  1  0
 11 28  1  0
 11 29  1  0
 12 30  1  0
 16 31  1  0
 18 32  1  0
 18 33  1  0
M  ISO  8  19   8  20   8  21  14  22  14  23  13  24  13  25  13  26  13
M  ISO  5  27   3  28   8  29   8  30  14  31  14
M  END
>  <minimizedAffinity>  (1) 
-4.90976334

>  <minimizedRMSD>  (1) 
0.386776268

$$$$
