
     RDKit          3D

 35 37  0  0  1  0  0  0  0  0999 V2000
   44.4670   35.3020   41.9260 C   0  0  0  0  0  0  0  0  0  0  0  0
   45.4480   34.6310   42.8320 C   0  0  0  0  0  0  0  0  0  0  0  0
   45.0620   33.8760   43.9270 C   0  0  0  0  0  0  0  0  0  0  0  0
   46.1790   33.4230   44.5160 N   0  0  0  0  0  0  0  0  0  0  0  0
   47.2590   33.8600   43.8400 C   0  0  0  0  0  0  0  0  0  0  0  0
   46.7990   34.6080   42.8010 N   0  0  0  0  0  0  0  0  0  0  0  0
   47.5990   35.2710   41.8180 C   0  0  1  0  0  0  0  0  0  0  0  0
   49.0710   35.2070   41.7750 C   0  0  0  0  0  0  0  0  0  0  0  0
   48.2960   34.3220   40.8330 C   0  0  2  0  0  0  0  0  0  0  0  0
   48.2700   34.6420   39.3760 C   0  0  0  0  0  0  0  0  0  0  0  0
   44.0910   34.3200   40.8300 C   0  0  0  0  0  0  0  0  0  0  0  0
   42.1170   35.3380   39.7840 C   0  0  0  0  0  0  0  0  0  0  0  0
   42.6660   34.3660   40.6130 C   0  0  0  0  0  0  0  0  0  0  0  0
   41.7800   33.4750   41.1970 C   0  0  0  0  0  0  0  0  0  0  0  0
   40.4500   33.5960   40.9350 N   0  0  0  0  0  0  0  0  0  0  0  0
   39.9700   34.5520   40.1270 C   0  0  0  0  0  0  0  0  0  0  0  0
   40.7920   35.4230   39.5500 N   0  0  0  0  0  0  0  0  0  0  0  0
   42.2410   32.4570   42.0520 N   0  0  0  0  0  0  0  0  0  0  0  0
   43.5697   35.5885   42.4942 H   0  0  0  0  0  0  0  0  0  0  0  0
   44.9093   36.2098   41.4899 H   0  0  0  0  0  0  0  0  0  0  0  0
   44.0295   33.6832   44.2537 H   0  0  0  0  0  0  0  0  0  0  0  0
   48.3117   33.6518   44.0819 H   0  0  0  0  0  0  0  0  0  0  0  0
   46.9150   36.1324   41.8054 H   0  0  0  0  0  0  0  0  0  0  0  0
   49.6416   36.0588   41.3764 H   0  0  0  0  0  0  0  0  0  0  0  0
   49.8522   35.0259   42.5280 H   0  0  0  0  0  0  0  0  0  0  0  0
   48.2635   33.2447   40.6129 H   0  0  0  0  0  0  0  0  0  0  0  0
   48.1816   35.7301   39.2411 H   0  0  0  0  0  0  0  0  0  0  0  0
   49.1998   34.2886   38.9063 H   0  0  0  0  0  0  0  0  0  0  0  0
   47.4094   34.1432   38.9063 H   0  0  0  0  0  0  0  0  0  0  0  0
   44.6126   34.5906   39.9001 H   0  0  0  0  0  0  0  0  0  0  0  0
   44.3839   33.3035   41.1315 H   0  0  0  0  0  0  0  0  0  0  0  0
   42.7881   36.0639   39.3016 H   0  0  0  0  0  0  0  0  0  0  0  0
   38.8879   34.6162   39.9401 H   0  0  0  0  0  0  0  0  0  0  0  0
   41.5717   31.8012   42.4796 H   0  0  0  0  0  0  0  0  0  0  0  0
   43.2478   32.3676   42.2502 H   0  0  0  0  0  0  0  0  0  0  0  0
  1  2  1  0
  2  3  2  0
  3  4  1  0
  5  4  2  0
  6  2  1  0
  6  5  1  0
  7  6  1  0
  8  7  1  0
  9  8  1  0
  9  7  1  0
 10  9  1  0
 11  1  1  0
 12 13  2  0
 13 11  1  0
 13 14  1  0
 14 18  1  0
 15 14  2  0
 16 15  1  0
 17 12  1  0
 17 16  2  0
  1 19  1  0
  1 20  1  0
  3 21  1  0
  5 22  1  0
  7 23  1  6
  8 24  1  0
  8 25  1  0
  9 26  1  6
 10 27  1  0
 10 28  1  0
 10 29  1  0
 11 30  1  0
 11 31  1  0
 12 32  1  0
 16 33  1  0
 18 34  1  0
 18 35  1  0
M  ISO  8  19   8  20   8  21  14  22  14  23  13  24  13  25  13  26  13
M  ISO  7  27   8  28   8  29   8  30   8  31   8  32  14  33  14
M  END
>  <minimizedAffinity>  (1) 
-4.8455801

>  <minimizedRMSD>  (1) 
0.485102236

$$$$
