
     RDKit          3D

 48 51  0  0  1  0  0  0  0  0999 V2000
   45.3310   35.1360   43.7070 C   0  0  0  0  0  0  0  0  0  0  0  0
   46.1180   33.8710   43.8600 C   0  0  0  0  0  0  0  0  0  0  0  0
   45.5960   32.7160   44.4080 C   0  0  0  0  0  0  0  0  0  0  0  0
   46.5720   31.7880   44.3880 N   0  0  0  0  0  0  0  0  0  0  0  0
   47.6890   32.3110   43.8500 C   0  0  0  0  0  0  0  0  0  0  0  0
   47.3980   33.6020   43.5250 N   0  0  0  0  0  0  0  0  0  0  0  0
   48.2930   34.5430   42.9230 C   0  0  1  0  0  0  0  0  0  0  0  0
   49.7110   34.2830   42.6280 C   0  0  0  0  0  0  0  0  0  0  0  0
   48.7290   34.1670   41.5010 C   0  0  2  0  0  0  0  0  0  0  0  0
   48.6200   35.1880   40.4220 C   0  0  0  0  0  0  0  0  0  0  0  0
   48.4400   34.6360   39.0320 C   0  0  0  0  0  0  0  0  0  0  0  0
   45.4100   35.5710   42.2520 C   0  0  0  0  0  0  0  0  0  0  0  0
   42.9500   35.7200   42.1380 C   0  0  0  0  0  0  0  0  0  0  0  0
   44.1580   35.2380   41.6040 C   0  0  0  0  0  0  0  0  0  0  0  0
   44.0610   34.4650   40.4720 C   0  0  0  0  0  0  0  0  0  0  0  0
   42.8270   34.2180   39.9500 N   0  0  0  0  0  0  0  0  0  0  0  0
   41.7030   34.6980   40.4930 C   0  0  0  0  0  0  0  0  0  0  0  0
   41.7620   35.4410   41.5770 N   0  0  0  0  0  0  0  0  0  0  0  0
   45.2290   33.9410   39.8720 N   0  0  0  0  0  0  0  0  0  0  0  0
   40.4540   34.3440   39.8150 C   0  0  0  0  0  0  0  0  0  0  0  0
   39.3590   33.8400   40.4830 C   0  0  0  0  0  0  0  0  0  0  0  0
   38.1750   33.5100   39.8200 C   0  0  0  0  0  0  0  0  0  0  0  0
   38.1370   33.7090   38.4360 C   0  0  0  0  0  0  0  0  0  0  0  0
   39.2070   34.2100   37.7250 C   0  0  0  0  0  0  0  0  0  0  0  0
   40.3560   34.5200   38.4490 C   0  0  0  0  0  0  0  0  0  0  0  0
   44.2820   34.9581   43.9861 H   0  0  0  0  0  0  0  0  0  0  0  0
   45.7405   35.9200   44.3610 H   0  0  0  0  0  0  0  0  0  0  0  0
   44.5735   32.5793   44.7898 H   0  0  0  0  0  0  0  0  0  0  0  0
   48.6499   31.7966   43.7015 H   0  0  0  0  0  0  0  0  0  0  0  0
   47.8149   35.3717   43.4658 H   0  0  0  0  0  0  0  0  0  0  0  0
   50.4303   35.1152   42.6391 H   0  0  0  0  0  0  0  0  0  0  0  0
   50.4698   33.6099   43.0536 H   0  0  0  0  0  0  0  0  0  0  0  0
   48.4984   33.3859   40.7616 H   0  0  0  0  0  0  0  0  0  0  0  0
   47.7560   35.8304   40.6475 H   0  0  0  0  0  0  0  0  0  0  0  0
   49.5787   35.7273   40.4143 H   0  0  0  0  0  0  0  0  0  0  0  0
   48.0995   33.5918   39.0934 H   0  0  0  0  0  0  0  0  0  0  0  0
   47.6906   35.2350   38.4938 H   0  0  0  0  0  0  0  0  0  0  0  0
   49.3984   34.6781   38.4938 H   0  0  0  0  0  0  0  0  0  0  0  0
   45.5785   36.6567   42.1979 H   0  0  0  0  0  0  0  0  0  0  0  0
   46.2427   35.0570   41.7497 H   0  0  0  0  0  0  0  0  0  0  0  0
   42.9787   36.3447   43.0429 H   0  0  0  0  0  0  0  0  0  0  0  0
   45.1566   33.3616   39.0235 H   0  0  0  0  0  0  0  0  0  0  0  0
   46.1524   34.1387   40.2834 H   0  0  0  0  0  0  0  0  0  0  0  0
   39.4194   33.6932   41.5715 H   0  0  0  0  0  0  0  0  0  0  0  0
   37.3071   33.1096   40.3644 H   0  0  0  0  0  0  0  0  0  0  0  0
   37.2151   33.4553   37.8921 H   0  0  0  0  0  0  0  0  0  0  0  0
   39.1556   34.3581   36.6362 H   0  0  0  0  0  0  0  0  0  0  0  0
   41.2247   34.9233   37.9079 H   0  0  0  0  0  0  0  0  0  0  0  0
  1  2  1  0
  2  3  2  0
  4  3  1  0
  5  4  2  0
  6  5  1  0
  6  2  1  0
  7  6  1  0
  8  7  1  0
  9  8  1  0
  9  7  1  0
 10  9  1  0
 11 10  1  0
 12  1  1  0
 14 13  2  0
 14 12  1  0
 15 14  1  0
 16 15  2  0
 16 17  1  0
 17 18  2  0
 18 13  1  0
 19 15  1  0
 20 21  2  0
 20 17  1  0
 22 21  1  0
 23 22  2  0
 24 23  1  0
 24 25  2  0
 25 20  1  0
  1 26  1  0
  1 27  1  0
  3 28  1  0
  5 29  1  0
  7 30  1  6
  8 31  1  0
  8 32  1  0
  9 33  1  6
 10 34  1  0
 10 35  1  0
 11 36  1  0
 11 37  1  0
 11 38  1  0
 12 39  1  0
 12 40  1  0
 13 41  1  0
 19 42  1  0
 19 43  1  0
 21 44  1  0
 22 45  1  0
 23 46  1  0
 24 47  1  0
 25 48  1  0
M  ISO  8  26   8  27   8  28  14  29  14  30  13  31  13  32  13  33  13
M  ISO  8  34   8  35   8  36   8  37   8  38   8  39   8  40   8  41  14
M  ISO  5  44  14  45  14  46  14  47  14  48  14
M  END
>  <minimizedAffinity>  (1) 
-6.30656719

>  <minimizedRMSD>  (1) 
2.24254584

$$$$
