
     RDKit          3D

 54 57  0  0  1  0  0  0  0  0999 V2000
   44.6970   35.1800   41.9740 C   0  0  0  0  0  0  0  0  0  0  0  0
   45.6240   34.5140   42.9370 C   0  0  0  0  0  0  0  0  0  0  0  0
   45.1800   33.7180   43.9840 C   0  0  0  0  0  0  0  0  0  0  0  0
   46.2710   33.2830   44.6460 N   0  0  0  0  0  0  0  0  0  0  0  0
   47.3830   33.7750   44.0520 C   0  0  0  0  0  0  0  0  0  0  0  0
   46.9640   34.5290   43.0050 N   0  0  0  0  0  0  0  0  0  0  0  0
   47.8160   35.2420   42.0980 C   0  0  1  0  0  0  0  0  0  0  0  0
   49.2740   35.1040   42.0240 C   0  0  0  0  0  0  0  0  0  0  0  0
   48.4440   34.3690   41.0130 C   0  0  2  0  0  0  0  0  0  0  0  0
   48.3510   34.7990   39.5840 C   0  0  0  0  0  0  0  0  0  0  0  0
   47.7370   33.7970   38.6530 C   0  0  0  0  0  0  0  0  0  0  0  0
   44.4780   34.2480   40.8080 C   0  0  0  0  0  0  0  0  0  0  0  0
   42.6590   35.1760   39.4140 C   0  0  0  0  0  0  0  0  0  0  0  0
   43.0770   34.2840   40.4260 C   0  0  0  0  0  0  0  0  0  0  0  0
   42.1160   33.4940   40.9930 C   0  0  0  0  0  0  0  0  0  0  0  0
   40.8340   33.6090   40.5600 N   0  0  0  0  0  0  0  0  0  0  0  0
   40.4720   34.4630   39.6000 C   0  0  0  0  0  0  0  0  0  0  0  0
   41.3670   35.2420   39.0270 N   0  0  0  0  0  0  0  0  0  0  0  0
   42.4560   32.5730   42.0160 N   0  0  0  0  0  0  0  0  0  0  0  0
   39.0070   34.4420   39.2590 C   0  0  0  0  0  0  0  0  0  0  0  0
   38.8080   34.3070   37.7710 C   0  0  0  0  0  0  0  0  0  0  0  0
   38.1700   33.0230   37.3460 C   0  0  0  0  0  0  0  0  0  0  0  0
   38.6060   31.8290   38.1580 C   0  0  0  0  0  0  0  0  0  0  0  0
   38.4480   32.0170   39.6320 C   0  0  0  0  0  0  0  0  0  0  0  0
   38.2410   33.4330   40.0610 C   0  0  0  0  0  0  0  0  0  0  0  0
   43.7367   35.3912   42.4672 H   0  0  0  0  0  0  0  0  0  0  0  0
   45.1298   36.1292   41.6252 H   0  0  0  0  0  0  0  0  0  0  0  0
   44.1329   33.4854   44.2281 H   0  0  0  0  0  0  0  0  0  0  0  0
   48.4244   33.5979   44.3586 H   0  0  0  0  0  0  0  0  0  0  0  0
   47.1891   36.1404   42.1971 H   0  0  0  0  0  0  0  0  0  0  0  0
   49.8865   35.9607   41.7063 H   0  0  0  0  0  0  0  0  0  0  0  0
   50.0523   34.8030   42.7407 H   0  0  0  0  0  0  0  0  0  0  0  0
   48.3820   33.3223   40.6806 H   0  0  0  0  0  0  0  0  0  0  0  0
   47.7453   35.7163   39.5437 H   0  0  0  0  0  0  0  0  0  0  0  0
   49.3864   34.9396   39.2403 H   0  0  0  0  0  0  0  0  0  0  0  0
   47.2504   33.0028   39.2382 H   0  0  0  0  0  0  0  0  0  0  0  0
   46.9893   34.2958   38.0189 H   0  0  0  0  0  0  0  0  0  0  0  0
   48.5209   33.3572   38.0189 H   0  0  0  0  0  0  0  0  0  0  0  0
   45.0995   34.5684   39.9588 H   0  0  0  0  0  0  0  0  0  0  0  0
   44.7570   33.2236   41.0955 H   0  0  0  0  0  0  0  0  0  0  0  0
   43.4005   35.8298   38.9316 H   0  0  0  0  0  0  0  0  0  0  0  0
   41.7271   31.9808   42.4389 H   0  0  0  0  0  0  0  0  0  0  0  0
   43.4319   32.4961   42.3362 H   0  0  0  0  0  0  0  0  0  0  0  0
   38.5782   35.4119   39.5513 H   0  0  0  0  0  0  0  0  0  0  0  0
   38.1697   35.1366   37.4328 H   0  0  0  0  0  0  0  0  0  0  0  0
   39.8102   34.3241   37.3179 H   0  0  0  0  0  0  0  0  0  0  0  0
   37.0794   33.1288   37.4429 H   0  0  0  0  0  0  0  0  0  0  0  0
   38.4842   32.8370   36.3084 H   0  0  0  0  0  0  0  0  0  0  0  0
   38.0031   30.9614   37.8516 H   0  0  0  0  0  0  0  0  0  0  0  0
   39.6790   31.6825   37.9650 H   0  0  0  0  0  0  0  0  0  0  0  0
   37.5791   31.4284   39.9615 H   0  0  0  0  0  0  0  0  0  0  0  0
   39.3921   31.6878   40.0906 H   0  0  0  0  0  0  0  0  0  0  0  0
   38.5509   33.5226   41.1126 H   0  0  0  0  0  0  0  0  0  0  0  0
   37.1745   33.6545   39.9075 H   0  0  0  0  0  0  0  0  0  0  0  0
  1  2  1  0
  2  6  1  0
  2  3  2  0
  3  4  1  0
  5  4  2  0
  6  5  1  0
  7  6  1  0
  8  7  1  0
  9  8  1  0
  9  7  1  0
 10  9  1  0
 11 10  1  0
 12  1  1  0
 13 14  2  0
 14 12  1  0
 14 15  1  0
 15 19  1  0
 16 15  2  0
 17 16  1  0
 18 13  1  0
 18 17  2  0
 20 17  1  0
 20 25  1  0
 21 20  1  0
 22 21  1  0
 22 23  1  0
 23 24  1  0
 24 25  1  0
  1 26  1  0
  1 27  1  0
  3 28  1  0
  5 29  1  0
  7 30  1  6
  8 31  1  0
  8 32  1  0
  9 33  1  6
 10 34  1  0
 10 35  1  0
 11 36  1  0
 11 37  1  0
 11 38  1  0
 12 39  1  0
 12 40  1  0
 13 41  1  0
 19 42  1  0
 19 43  1  0
 20 44  1  0
 21 45  1  0
 21 46  1  0
 22 47  1  0
 22 48  1  0
 23 49  1  0
 23 50  1  0
 24 51  1  0
 24 52  1  0
 25 53  1  0
 25 54  1  0
M  ISO  8  26   8  27   8  28  14  29  14  30  13  31  13  32  13  33  13
M  ISO  8  34   8  35   8  36   8  37   8  38   8  39   8  40   8  41  14
M  ISO  8  44  13  45  13  46  13  47  13  48  13  49  13  50  13  51  13
M  ISO  3  52  13  53  13  54  13
M  END
>  <minimizedAffinity>  (1) 
-6.74973679

>  <minimizedRMSD>  (1) 
0.535896957

$$$$
