
     RDKit          3D

 51 54  0  0  1  0  0  0  0  0999 V2000
   45.0750   35.2030   43.1480 C   0  0  0  0  0  0  0  0  0  0  0  0
   45.8980   34.0560   43.6140 C   0  0  0  0  0  0  0  0  0  0  0  0
   45.3670   32.9830   44.2960 C   0  0  0  0  0  0  0  0  0  0  0  0
   46.3830   32.1390   44.5610 N   0  0  0  0  0  0  0  0  0  0  0  0
   47.5260   32.6410   44.0720 C   0  0  0  0  0  0  0  0  0  0  0  0
   47.2250   33.8230   43.4870 N   0  0  0  0  0  0  0  0  0  0  0  0
   48.1450   34.6980   42.8380 C   0  0  1  0  0  0  0  0  0  0  0  0
   49.5680   34.4400   42.6610 C   0  0  0  0  0  0  0  0  0  0  0  0
   48.6570   34.1900   41.4940 C   0  0  2  0  0  0  0  0  0  0  0  0
   48.5980   35.1030   40.3170 C   0  0  0  0  0  0  0  0  0  0  0  0
   48.2010   34.4510   39.0250 C   0  0  0  0  0  0  0  0  0  0  0  0
   45.1690   35.2840   41.6430 C   0  0  0  0  0  0  0  0  0  0  0  0
   42.7220   35.5390   41.4810 C   0  0  0  0  0  0  0  0  0  0  0  0
   43.8960   34.8890   41.0650 C   0  0  0  0  0  0  0  0  0  0  0  0
   43.7520   33.9060   40.1230 C   0  0  0  0  0  0  0  0  0  0  0  0
   42.5030   33.6210   39.6520 N   0  0  0  0  0  0  0  0  0  0  0  0
   41.4070   34.2740   40.0830 C   0  0  0  0  0  0  0  0  0  0  0  0
   41.5150   35.2220   40.9880 N   0  0  0  0  0  0  0  0  0  0  0  0
   44.8750   33.2030   39.6510 N   0  0  0  0  0  0  0  0  0  0  0  0
   40.1410   33.9070   39.5340 N   0  0  0  0  0  0  0  0  0  0  0  0
   39.6680   34.5870   38.3430 C   0  0  0  0  0  0  0  0  0  0  0  0
   38.6290   33.8460   37.5780 C   0  0  0  0  0  0  0  0  0  0  0  0
   37.9750   32.8480   38.2530 O   0  0  0  0  0  0  0  0  0  0  0  0
   38.8030   32.0210   38.9830 C   0  0  0  0  0  0  0  0  0  0  0  0
   39.3250   32.8750   40.1420 C   0  0  0  0  0  0  0  0  0  0  0  0
   44.0270   35.0524   43.4462 H   0  0  0  0  0  0  0  0  0  0  0  0
   45.4430   36.1368   43.5981 H   0  0  0  0  0  0  0  0  0  0  0  0
   44.3116   32.8420   44.5722 H   0  0  0  0  0  0  0  0  0  0  0  0
   48.5220   32.1784   44.1347 H   0  0  0  0  0  0  0  0  0  0  0  0
   47.6271   35.5704   43.2630 H   0  0  0  0  0  0  0  0  0  0  0  0
   50.2741   35.2829   42.6294 H   0  0  0  0  0  0  0  0  0  0  0  0
   50.3081   33.8294   43.1990 H   0  0  0  0  0  0  0  0  0  0  0  0
   48.4789   33.3347   40.8257 H   0  0  0  0  0  0  0  0  0  0  0  0
   47.8680   35.8959   40.5370 H   0  0  0  0  0  0  0  0  0  0  0  0
   49.6213   35.4785   40.1689 H   0  0  0  0  0  0  0  0  0  0  0  0
   47.6396   33.5291   39.2369 H   0  0  0  0  0  0  0  0  0  0  0  0
   47.5691   35.1401   38.4455 H   0  0  0  0  0  0  0  0  0  0  0  0
   49.1033   34.2059   38.4455 H   0  0  0  0  0  0  0  0  0  0  0  0
   45.4050   36.3159   41.3437 H   0  0  0  0  0  0  0  0  0  0  0  0
   45.9629   34.6122   41.2847 H   0  0  0  0  0  0  0  0  0  0  0  0
   42.7948   36.3350   42.2367 H   0  0  0  0  0  0  0  0  0  0  0  0
   44.7598   32.4646   38.9422 H   0  0  0  0  0  0  0  0  0  0  0  0
   45.8126   33.4266   40.0141 H   0  0  0  0  0  0  0  0  0  0  0  0
   39.2449   35.5560   38.6464 H   0  0  0  0  0  0  0  0  0  0  0  0
   40.5362   34.6855   37.6747 H   0  0  0  0  0  0  0  0  0  0  0  0
   39.1164   33.3943   36.7014 H   0  0  0  0  0  0  0  0  0  0  0  0
   37.8568   34.5906   37.3343 H   0  0  0  0  0  0  0  0  0  0  0  0
   38.2407   31.1568   39.3664 H   0  0  0  0  0  0  0  0  0  0  0  0
   39.6249   31.6247   38.3686 H   0  0  0  0  0  0  0  0  0  0  0  0
   39.9294   32.2627   40.8274 H   0  0  0  0  0  0  0  0  0  0  0  0
   38.5019   33.3042   40.7322 H   0  0  0  0  0  0  0  0  0  0  0  0
  1  2  1  0
  2  3  2  0
  3  4  1  0
  5  4  2  0
  6  2  1  0
  6  5  1  0
  7  6  1  0
  8  7  1  0
  9  8  1  0
  9  7  1  0
 10  9  1  0
 11 10  1  0
 12  1  1  0
 14 13  2  0
 14 12  1  0
 15 14  1  0
 16 17  1  0
 16 15  2  0
 17 18  2  0
 18 13  1  0
 19 15  1  0
 20 17  1  0
 20 25  1  0
 21 20  1  0
 22 23  1  0
 22 21  1  0
 23 24  1  0
 24 25  1  0
  1 26  1  0
  1 27  1  0
  3 28  1  0
  5 29  1  0
  7 30  1  6
  8 31  1  0
  8 32  1  0
  9 33  1  6
 10 34  1  0
 10 35  1  0
 11 36  1  0
 11 37  1  0
 11 38  1  0
 12 39  1  0
 12 40  1  0
 13 41  1  0
 19 42  1  0
 19 43  1  0
 21 44  1  0
 21 45  1  0
 22 46  1  0
 22 47  1  0
 24 48  1  0
 24 49  1  0
 25 50  1  0
 25 51  1  0
M  ISO  8  26   8  27   8  28  14  29  14  30  13  31  13  32  13  33  13
M  ISO  8  34   8  35   8  36   8  37   8  38   8  39   8  40   8  41  14
M  ISO  8  44  13  45  13  46  13  47  13  48  13  49  13  50  13  51  13
M  END
>  <minimizedAffinity>  (1) 
-5.65814447

>  <minimizedRMSD>  (1) 
1.99825752

$$$$
