
     RDKit          3D

 41 43  0  0  1  0  0  0  0  0999 V2000
   45.6140   34.6750   43.0940 C   0  0  0  0  0  0  0  0  0  0  0  0
   45.3080   33.9140   44.2030 C   0  0  0  0  0  0  0  0  0  0  0  0
   46.4670   33.4430   44.6980 N   0  0  0  0  0  0  0  0  0  0  0  0
   47.4920   33.8790   43.9420 C   0  0  0  0  0  0  0  0  0  0  0  0
   46.9590   34.6390   42.9540 N   0  0  0  0  0  0  0  0  0  0  0  0
   47.6820   35.3090   41.9150 C   0  0  1  0  0  0  0  0  0  0  0  0
   49.1400   35.3200   41.7870 C   0  0  0  0  0  0  0  0  0  0  0  0
   48.3730   34.3690   40.9280 C   0  0  2  0  0  0  0  0  0  0  0  0
   48.1730   34.5910   39.4690 C   0  0  0  0  0  0  0  0  0  0  0  0
   47.3600   33.5130   38.7850 C   0  0  0  0  0  0  0  0  0  0  0  0
   44.5840   35.3680   42.2710 C   0  0  0  0  0  0  0  0  0  0  0  0
   44.3480   34.5540   41.0180 C   0  0  0  0  0  0  0  0  0  0  0  0
   42.0780   35.1450   40.2240 C   0  0  0  0  0  0  0  0  0  0  0  0
   42.9290   34.2600   40.9000 C   0  0  0  0  0  0  0  0  0  0  0  0
   42.3510   33.1310   41.4280 C   0  0  0  0  0  0  0  0  0  0  0  0
   41.0180   32.9320   41.2730 N   0  0  0  0  0  0  0  0  0  0  0  0
   40.2470   33.8170   40.6140 C   0  0  0  0  0  0  0  0  0  0  0  0
   40.7690   34.9180   40.0900 N   0  0  0  0  0  0  0  0  0  0  0  0
   43.1250   32.1850   42.1240 N   0  0  0  0  0  0  0  0  0  0  0  0
   38.8150   33.5900   40.4540 C   0  0  0  0  0  0  0  0  0  0  0  0
   38.1130   34.2570   39.6470 O   0  0  0  0  0  0  0  0  0  0  0  0
   38.0580   32.6670   41.1220 O   0  0  0  0  0  0  0  0  0  0  0  0
   44.3025   33.7268   44.6078 H   0  0  0  0  0  0  0  0  0  0  0  0
   48.5589   33.6602   44.0965 H   0  0  0  0  0  0  0  0  0  0  0  0
   46.9566   36.1359   41.9210 H   0  0  0  0  0  0  0  0  0  0  0  0
   49.6390   36.1862   41.3279 H   0  0  0  0  0  0  0  0  0  0  0  0
   49.9708   35.2074   42.4991 H   0  0  0  0  0  0  0  0  0  0  0  0
   48.4293   33.2864   40.7415 H   0  0  0  0  0  0  0  0  0  0  0  0
   47.6553   35.5521   39.3337 H   0  0  0  0  0  0  0  0  0  0  0  0
   49.1710   34.5768   39.0065 H   0  0  0  0  0  0  0  0  0  0  0  0
   46.8808   32.8777   39.5445 H   0  0  0  0  0  0  0  0  0  0  0  0
   46.5871   33.9797   38.1567 H   0  0  0  0  0  0  0  0  0  0  0  0
   48.0212   32.8981   38.1567 H   0  0  0  0  0  0  0  0  0  0  0  0
   43.6473   35.4520   42.8415 H   0  0  0  0  0  0  0  0  0  0  0  0
   44.9285   36.3785   42.0062 H   0  0  0  0  0  0  0  0  0  0  0  0
   44.6796   35.1266   40.1392 H   0  0  0  0  0  0  0  0  0  0  0  0
   44.9170   33.6143   41.0747 H   0  0  0  0  0  0  0  0  0  0  0  0
   42.5042   36.0604   39.7877 H   0  0  0  0  0  0  0  0  0  0  0  0
   42.6796   31.3426   42.5151 H   0  0  0  0  0  0  0  0  0  0  0  0
   44.1372   32.3346   42.2426 H   0  0  0  0  0  0  0  0  0  0  0  0
   37.0881   32.5950   40.9370 H   0  0  0  0  0  0  0  0  0  0  0  0
  1  2  2  0
  2  3  1  0
  4  3  2  0
  5  1  1  0
  5  4  1  0
  6  5  1  0
  7  6  1  0
  8  7  1  0
  8  6  1  0
  9  8  1  0
 10  9  1  0
 11  1  1  0
 12 11  1  0
 13 14  2  0
 14 12  1  0
 14 15  1  0
 15 19  1  0
 16 15  2  0
 17 16  1  0
 18 13  1  0
 18 17  2  0
 20 17  1  0
 20 22  1  0
 21 20  2  0
  2 23  1  0
  4 24  1  0
  6 25  1  6
  7 26  1  0
  7 27  1  0
  8 28  1  1
  9 29  1  0
  9 30  1  0
 10 31  1  0
 10 32  1  0
 10 33  1  0
 11 34  1  0
 11 35  1  0
 12 36  1  0
 12 37  1  0
 13 38  1  0
 19 39  1  0
 19 40  1  0
 22 41  1  0
M  ISO  8  23  14  24  14  25  13  26  13  27  13  28  13  29   8  30   8
M  ISO  8  31   8  32   8  33   8  34   8  35   8  36   8  37   8  38  14
M  ISO  1  41   3
M  END
>  <minimizedAffinity>  (1) 
-5.69965839

>  <minimizedRMSD>  (1) 
0.819480956

$$$$
