
     RDKit          3D

 45 48  0  0  1  0  0  0  0  0999 V2000
   45.4380   35.5680   43.1920 C   0  0  0  0  0  0  0  0  0  0  0  0
   46.0830   34.3240   43.7240 C   0  0  0  0  0  0  0  0  0  0  0  0
   45.3950   33.3890   44.4860 C   0  0  0  0  0  0  0  0  0  0  0  0
   46.2670   32.4150   44.7880 N   0  0  0  0  0  0  0  0  0  0  0  0
   47.4820   32.6950   44.2500 C   0  0  0  0  0  0  0  0  0  0  0  0
   47.3430   33.8820   43.5940 N   0  0  0  0  0  0  0  0  0  0  0  0
   48.3740   34.5700   42.8730 C   0  0  1  0  0  0  0  0  0  0  0  0
   49.6740   33.9980   42.5280 C   0  0  0  0  0  0  0  0  0  0  0  0
   48.6210   34.0340   41.4690 C   0  0  2  0  0  0  0  0  0  0  0  0
   48.6590   35.0110   40.3340 C   0  0  0  0  0  0  0  0  0  0  0  0
   48.2010   34.4530   39.0050 C   0  0  0  0  0  0  0  0  0  0  0  0
   45.3340   35.4320   41.6770 C   0  0  0  0  0  0  0  0  0  0  0  0
   42.9010   35.5490   42.1340 C   0  0  0  0  0  0  0  0  0  0  0  0
   43.9670   35.0750   41.3390 C   0  0  0  0  0  0  0  0  0  0  0  0
   43.6360   34.2830   40.2670 C   0  0  0  0  0  0  0  0  0  0  0  0
   42.3160   34.0140   40.0470 N   0  0  0  0  0  0  0  0  0  0  0  0
   41.3370   34.4770   40.8160 C   0  0  0  0  0  0  0  0  0  0  0  0
   41.6220   35.2390   41.8510 N   0  0  0  0  0  0  0  0  0  0  0  0
   44.6450   33.7670   39.4220 N   0  0  0  0  0  0  0  0  0  0  0  0
   40.0000   34.0710   40.4060 C   0  0  0  0  0  0  0  0  0  0  0  0
   39.2850   34.3520   39.2630 C   0  0  0  0  0  0  0  0  0  0  0  0
   38.0720   33.6800   39.4510 C   0  0  0  0  0  0  0  0  0  0  0  0
   38.1110   33.0580   40.6370 N   0  0  0  0  0  0  0  0  0  0  0  0
   39.2700   33.2830   41.2300 N   0  0  0  0  0  0  0  0  0  0  0  0
   44.4341   35.6834   43.6265 H   0  0  0  0  0  0  0  0  0  0  0  0
   46.0360   36.4525   43.4567 H   0  0  0  0  0  0  0  0  0  0  0  0
   44.3375   33.4376   44.7848 H   0  0  0  0  0  0  0  0  0  0  0  0
   48.3949   32.0863   44.3279 H   0  0  0  0  0  0  0  0  0  0  0  0
   48.1176   35.5130   43.3781 H   0  0  0  0  0  0  0  0  0  0  0  0
   50.5526   34.6545   42.4445 H   0  0  0  0  0  0  0  0  0  0  0  0
   50.2993   33.2024   42.9593 H   0  0  0  0  0  0  0  0  0  0  0  0
   48.1841   33.2803   40.7975 H   0  0  0  0  0  0  0  0  0  0  0  0
   48.0094   35.8606   40.5912 H   0  0  0  0  0  0  0  0  0  0  0  0
   49.7134   35.2965   40.2046 H   0  0  0  0  0  0  0  0  0  0  0  0
   47.5118   33.6133   39.1778 H   0  0  0  0  0  0  0  0  0  0  0  0
   47.6848   35.2398   38.4353 H   0  0  0  0  0  0  0  0  0  0  0  0
   49.0733   34.1001   38.4353 H   0  0  0  0  0  0  0  0  0  0  0  0
   45.5967   36.3876   41.1998 H   0  0  0  0  0  0  0  0  0  0  0  0
   46.0258   34.6548   41.3200 H   0  0  0  0  0  0  0  0  0  0  0  0
   43.1204   36.1856   43.0038 H   0  0  0  0  0  0  0  0  0  0  0  0
   44.3909   33.1735   38.6194 H   0  0  0  0  0  0  0  0  0  0  0  0
   45.6343   33.9845   39.6089 H   0  0  0  0  0  0  0  0  0  0  0  0
   39.5953   34.9627   38.4023 H   0  0  0  0  0  0  0  0  0  0  0  0
   37.2290   33.6650   38.7445 H   0  0  0  0  0  0  0  0  0  0  0  0
   37.3485   32.4875   41.0293 H   0  0  0  0  0  0  0  0  0  0  0  0
  1  2  1  0
  2  3  2  0
  3  4  1  0
  5  4  2  0
  6  2  1  0
  6  5  1  0
  7  6  1  0
  8  7  1  0
  9  8  1  0
  9  7  1  0
 10  9  1  0
 11 10  1  0
 12  1  1  0
 14 12  1  0
 14 13  2  0
 15 14  1  0
 16 15  2  0
 16 17  1  0
 17 18  2  0
 18 13  1  0
 19 15  1  0
 20 17  1  0
 20 24  2  0
 21 22  2  0
 21 20  1  0
 22 23  1  0
 23 24  1  0
  1 25  1  0
  1 26  1  0
  3 27  1  0
  5 28  1  0
  7 29  1  6
  8 30  1  0
  8 31  1  0
  9 32  1  6
 10 33  1  0
 10 34  1  0
 11 35  1  0
 11 36  1  0
 11 37  1  0
 12 38  1  0
 12 39  1  0
 13 40  1  0
 19 41  1  0
 19 42  1  0
 21 43  1  0
 22 44  1  0
 23 45  1  0
M  ISO  8  25   8  26   8  27  14  28  14  29  13  30  13  31  13  32  13
M  ISO  8  33   8  34   8  35   8  36   8  37   8  38   8  39   8  40  14
M  ISO  3  43  14  44  14  45   9
M  END
>  <minimizedAffinity>  (1) 
-5.88161802

>  <minimizedRMSD>  (1) 
1.85837233

$$$$
