
     RDKit          3D

 39 41  0  0  1  0  0  0  0  0999 V2000
   45.5610   34.6500   43.0040 C   0  0  0  0  0  0  0  0  0  0  0  0
   45.2050   33.8940   44.1070 C   0  0  0  0  0  0  0  0  0  0  0  0
   46.3380   33.4420   44.6650 N   0  0  0  0  0  0  0  0  0  0  0  0
   47.4000   33.8820   43.9590 C   0  0  0  0  0  0  0  0  0  0  0  0
   46.9070   34.6280   42.9340 N   0  0  0  0  0  0  0  0  0  0  0  0
   47.6840   35.2930   41.9300 C   0  0  1  0  0  0  0  0  0  0  0  0
   49.1480   35.2290   41.8220 C   0  0  0  0  0  0  0  0  0  0  0  0
   48.3530   34.3500   40.9270 C   0  0  2  0  0  0  0  0  0  0  0  0
   48.1890   34.6220   39.4690 C   0  0  0  0  0  0  0  0  0  0  0  0
   47.4310   33.5560   38.7180 C   0  0  0  0  0  0  0  0  0  0  0  0
   44.5720   35.3240   42.1200 C   0  0  0  0  0  0  0  0  0  0  0  0
   44.3750   34.4690   40.8810 C   0  0  0  0  0  0  0  0  0  0  0  0
   42.2580   35.2000   39.8110 C   0  0  0  0  0  0  0  0  0  0  0  0
   42.9500   34.2990   40.6480 C   0  0  0  0  0  0  0  0  0  0  0  0
   42.2180   33.2830   41.2130 C   0  0  0  0  0  0  0  0  0  0  0  0
   40.8780   33.2140   40.9280 N   0  0  0  0  0  0  0  0  0  0  0  0
   40.2710   34.0860   40.1330 C   0  0  0  0  0  0  0  0  0  0  0  0
   40.9500   35.0720   39.5770 N   0  0  0  0  0  0  0  0  0  0  0  0
   42.8290   32.3430   42.0600 N   0  0  0  0  0  0  0  0  0  0  0  0
   38.5090   33.9340   39.8030 S   0  0  0  0  0  0  0  0  0  0  0  0
   44.1818   33.6996   44.4609 H   0  0  0  0  0  0  0  0  0  0  0  0
   48.4597   33.6771   44.1712 H   0  0  0  0  0  0  0  0  0  0  0  0
   47.0006   36.1546   41.9517 H   0  0  0  0  0  0  0  0  0  0  0  0
   49.6991   36.0809   41.3972 H   0  0  0  0  0  0  0  0  0  0  0  0
   49.9596   35.0509   42.5428 H   0  0  0  0  0  0  0  0  0  0  0  0
   48.3621   33.2718   40.7092 H   0  0  0  0  0  0  0  0  0  0  0  0
   47.6486   35.5733   39.3551 H   0  0  0  0  0  0  0  0  0  0  0  0
   49.2011   34.6497   39.0389 H   0  0  0  0  0  0  0  0  0  0  0  0
   46.9475   32.8760   39.4348 H   0  0  0  0  0  0  0  0  0  0  0  0
   46.6644   34.0277   38.0857 H   0  0  0  0  0  0  0  0  0  0  0  0
   48.1283   32.9868   38.0857 H   0  0  0  0  0  0  0  0  0  0  0  0
   43.6148   35.4352   42.6505 H   0  0  0  0  0  0  0  0  0  0  0  0
   44.9376   36.3219   41.8361 H   0  0  0  0  0  0  0  0  0  0  0  0
   44.8345   34.9649   40.0133 H   0  0  0  0  0  0  0  0  0  0  0  0
   44.8487   33.4869   41.0266 H   0  0  0  0  0  0  0  0  0  0  0  0
   42.8094   36.0273   39.3403 H   0  0  0  0  0  0  0  0  0  0  0  0
   42.2695   31.5858   42.4776 H   0  0  0  0  0  0  0  0  0  0  0  0
   43.8364   32.4112   42.2633 H   0  0  0  0  0  0  0  0  0  0  0  0
   37.8257   33.8751   40.9890 H   0  0  0  0  0  0  0  0  0  0  0  0
  1  2  2  0
  2  3  1  0
  4  3  2  0
  5  1  1  0
  5  4  1  0
  6  5  1  0
  7  6  1  0
  8  7  1  0
  8  6  1  0
  9  8  1  0
 10  9  1  0
 11  1  1  0
 12 11  1  0
 13 14  2  0
 14 12  1  0
 14 15  1  0
 15 19  1  0
 16 15  2  0
 17 16  1  0
 18 13  1  0
 18 17  2  0
 20 17  1  0
  2 21  1  0
  4 22  1  0
  6 23  1  6
  7 24  1  0
  7 25  1  0
  8 26  1  6
  9 27  1  0
  9 28  1  0
 10 29  1  0
 10 30  1  0
 10 31  1  0
 11 32  1  0
 11 33  1  0
 12 34  1  0
 12 35  1  0
 13 36  1  0
 19 37  1  0
 19 38  1  0
 20 39  1  0
M  ISO  8  21  14  22  14  23  13  24  13  25  13  26  13  27   8  28   8
M  ISO  8  29   8  30   8  31   8  32   8  33   8  34   8  35   8  36  14
M  ISO  1  39  11
M  END
>  <minimizedAffinity>  (1) 
-5.09619951

>  <minimizedRMSD>  (1) 
0.385063708

$$$$
