
     RDKit          3D

 18 19  0  0  0  0  0  0  0  0999 V2000
   45.5950   35.8750   43.1240 C   0  0  0  0  0  0  0  0  0  0  0  0
   46.3560   34.7010   43.2240 C   0  0  0  0  0  0  0  0  0  0  0  0
   46.1840   33.9060   44.3610 C   0  0  0  0  0  0  0  0  0  0  0  0
   45.2800   34.3230   45.3100 N   0  0  0  0  0  0  0  0  0  0  0  0
   44.5680   35.4510   45.1830 C   0  0  0  0  0  0  0  0  0  0  0  0
   44.7290   36.2220   44.0930 N   0  0  0  0  0  0  0  0  0  0  0  0
   47.3350   34.1950   42.2550 C   0  0  0  0  0  0  0  0  0  0  0  0
   48.1430   35.2120   41.5310 C   0  0  0  0  0  0  0  0  0  0  0  0
   47.1470   34.4080   40.7760 C   0  0  0  0  0  0  0  0  0  0  0  0
   47.1010   32.3850   44.5950 S   0  0  0  0  0  0  0  0  0  0  0  0
   45.7080   36.5209   42.2408 H   0  0  0  0  0  0  0  0  0  0  0  0
   43.8548   35.7451   45.9671 H   0  0  0  0  0  0  0  0  0  0  0  0
   47.5244   33.3036   42.8710 H   0  0  0  0  0  0  0  0  0  0  0  0
   47.9619   36.2825   41.7078 H   0  0  0  0  0  0  0  0  0  0  0  0
   49.2198   35.4087   41.4220 H   0  0  0  0  0  0  0  0  0  0  0  0
   46.2280   34.8811   40.3998 H   0  0  0  0  0  0  0  0  0  0  0  0
   47.1784   33.7639   39.8848 H   0  0  0  0  0  0  0  0  0  0  0  0
   47.2476   32.1418   45.9352 H   0  0  0  0  0  0  0  0  0  0  0  0
  1  2  2  0
  1  6  1  0
  2  3  1  0
  3 10  1  0
  3  4  2  0
  5  4  1  0
  6  5  2  0
  7  2  1  0
  8  7  1  0
  9  8  1  0
  9  7  1  0
  1 11  1  0
  5 12  1  0
  7 13  1  0
  8 14  1  0
  8 15  1  0
  9 16  1  0
  9 17  1  0
 10 18  1  0
M  ISO  8  11  14  12  14  13  13  14  13  15  13  16  13  17  13  18  11
M  END
>  <minimizedAffinity>  (1) 
-3.7948451

>  <minimizedRMSD>  (1) 
2.34812069

$$$$
