
     RDKit          3D

 24 25  0  0  0  0  0  0  0  0999 V2000
   45.1360   34.2620   45.1860 C   0  0  0  0  0  0  0  0  0  0  0  0
   45.8050   33.9600   43.9860 C   0  0  0  0  0  0  0  0  0  0  0  0
   46.8850   33.0640   44.0610 C   0  0  0  0  0  0  0  0  0  0  0  0
   47.2300   32.5350   45.2850 N   0  0  0  0  0  0  0  0  0  0  0  0
   46.5480   32.8640   46.3940 C   0  0  0  0  0  0  0  0  0  0  0  0
   45.5150   33.7100   46.3730 N   0  0  0  0  0  0  0  0  0  0  0  0
   45.4340   34.5270   42.6930 C   0  0  0  0  0  0  0  0  0  0  0  0
   44.4400   33.5910   42.0500 C   0  0  0  0  0  0  0  0  0  0  0  0
   43.9060   34.4270   40.9310 C   0  0  0  0  0  0  0  0  0  0  0  0
   43.7850   35.7870   41.5370 C   0  0  0  0  0  0  0  0  0  0  0  0
   44.7870   35.8510   42.6800 C   0  0  0  0  0  0  0  0  0  0  0  0
   47.8130   32.6040   42.6010 S   0  0  0  0  0  0  0  0  0  0  0  0
   44.2865   34.9605   45.1658 H   0  0  0  0  0  0  0  0  0  0  0  0
   46.8511   32.4208   47.3541 H   0  0  0  0  0  0  0  0  0  0  0  0
   46.3977   34.6529   42.1779 H   0  0  0  0  0  0  0  0  0  0  0  0
   44.9327   32.6834   41.6711 H   0  0  0  0  0  0  0  0  0  0  0  0
   43.6650   33.2248   42.7394 H   0  0  0  0  0  0  0  0  0  0  0  0
   42.9254   34.0568   40.5973 H   0  0  0  0  0  0  0  0  0  0  0  0
   44.5507   34.4114   40.0399 H   0  0  0  0  0  0  0  0  0  0  0  0
   44.0167   36.5575   40.7870 H   0  0  0  0  0  0  0  0  0  0  0  0
   42.7621   35.9677   41.8989 H   0  0  0  0  0  0  0  0  0  0  0  0
   45.5293   36.6425   42.4998 H   0  0  0  0  0  0  0  0  0  0  0  0
   44.3046   36.0851   43.6404 H   0  0  0  0  0  0  0  0  0  0  0  0
   48.9936   32.0188   42.9759 H   0  0  0  0  0  0  0  0  0  0  0  0
  1  6  2  0
  2  3  2  0
  2  1  1  0
  3  4  1  0
  4  5  2  0
  6  5  1  0
  7  2  1  0
  8  7  1  0
  9 10  1  0
  9  8  1  0
 10 11  1  0
 11  7  1  0
 12  3  1  0
  1 13  1  0
  5 14  1  0
  7 15  1  0
  8 16  1  0
  8 17  1  0
  9 18  1  0
  9 19  1  0
 10 20  1  0
 10 21  1  0
 11 22  1  0
 11 23  1  0
 12 24  1  0
M  ISO  8  13  14  14  14  15  13  16  13  17  13  18  13  19  13  20  13
M  ISO  4  21  13  22  13  23  13  24  11
M  END
>  <minimizedAffinity>  (1) 
-3.49929309

>  <minimizedRMSD>  (1) 
2.29936147

$$$$
