
     RDKit          3D

 17 17  0  0  0  0  0  0  0  0999 V2000
   45.3480   36.0430   43.1620 C   0  0  0  0  0  0  0  0  0  0  0  0
   46.2060   34.9490   42.9680 C   0  0  0  0  0  0  0  0  0  0  0  0
   46.2780   34.0090   43.9830 C   0  0  0  0  0  0  0  0  0  0  0  0
   45.5150   34.1970   45.1060 N   0  0  0  0  0  0  0  0  0  0  0  0
   44.7060   35.2540   45.2550 C   0  0  0  0  0  0  0  0  0  0  0  0
   44.6210   36.1800   44.2830 N   0  0  0  0  0  0  0  0  0  0  0  0
   47.3300   32.5740   43.8600 S   0  0  0  0  0  0  0  0  0  0  0  0
   47.0440   34.6890   41.8000 C   0  0  0  0  0  0  0  0  0  0  0  0
   48.3150   35.4860   41.7340 C   0  0  0  0  0  0  0  0  0  0  0  0
   45.2690   36.8079   42.3755 H   0  0  0  0  0  0  0  0  0  0  0  0
   44.1105   35.3650   46.1732 H   0  0  0  0  0  0  0  0  0  0  0  0
   47.6520   32.1347   45.1171 H   0  0  0  0  0  0  0  0  0  0  0  0
   47.3114   33.6220   41.8039 H   0  0  0  0  0  0  0  0  0  0  0  0
   46.4494   34.9902   40.9249 H   0  0  0  0  0  0  0  0  0  0  0  0
   48.6640   35.7048   42.7540 H   0  0  0  0  0  0  0  0  0  0  0  0
   49.0832   34.9076   41.1998 H   0  0  0  0  0  0  0  0  0  0  0  0
   48.1289   36.4294   41.1998 H   0  0  0  0  0  0  0  0  0  0  0  0
  1  6  2  0
  2  1  1  0
  2  3  2  0
  3  4  1  0
  4  5  2  0
  6  5  1  0
  7  3  1  0
  8  2  1  0
  9  8  1  0
  1 10  1  0
  5 11  1  0
  7 12  1  0
  8 13  1  0
  8 14  1  0
  9 15  1  0
  9 16  1  0
  9 17  1  0
M  ISO  8  10  14  11  14  12  11  13   8  14   8  15   8  16   8  17   8
M  END
>  <minimizedAffinity>  (1) 
-3.59355664

>  <minimizedRMSD>  (1) 
1.88045812

$$$$
