
     RDKit          3D

 23 23  0  0  0  0  0  0  0  0999 V2000
   45.2160   34.5200   45.1320 C   0  0  0  0  0  0  0  0  0  0  0  0
   46.0770   34.1920   44.0710 C   0  0  0  0  0  0  0  0  0  0  0  0
   46.9980   33.1700   44.2700 C   0  0  0  0  0  0  0  0  0  0  0  0
   47.0180   32.5270   45.4970 N   0  0  0  0  0  0  0  0  0  0  0  0
   46.1750   32.8710   46.4860 C   0  0  0  0  0  0  0  0  0  0  0  0
   45.2860   33.8540   46.3090 N   0  0  0  0  0  0  0  0  0  0  0  0
   46.0160   34.9060   42.7860 C   0  0  0  0  0  0  0  0  0  0  0  0
   45.2020   36.1840   42.9880 C   0  0  0  0  0  0  0  0  0  0  0  0
   45.1870   34.0490   41.8210 C   0  0  0  0  0  0  0  0  0  0  0  0
   47.2910   35.2610   42.1410 C   0  0  0  0  0  0  0  0  0  0  0  0
   48.1370   32.6760   42.9870 S   0  0  0  0  0  0  0  0  0  0  0  0
   44.4779   35.3257   45.0052 H   0  0  0  0  0  0  0  0  0  0  0  0
   46.2169   32.3397   47.4483 H   0  0  0  0  0  0  0  0  0  0  0  0
   45.0804   36.3750   44.0644 H   0  0  0  0  0  0  0  0  0  0  0  0
   45.7275   37.0308   42.5225 H   0  0  0  0  0  0  0  0  0  0  0  0
   44.2124   36.0658   42.5225 H   0  0  0  0  0  0  0  0  0  0  0  0
   44.5352   33.3752   42.3965 H   0  0  0  0  0  0  0  0  0  0  0  0
   44.5701   34.7031   41.1873 H   0  0  0  0  0  0  0  0  0  0  0  0
   45.8612   33.4542   41.1873 H   0  0  0  0  0  0  0  0  0  0  0  0
   48.0462   35.4713   42.9126 H   0  0  0  0  0  0  0  0  0  0  0  0
   47.6306   34.4232   41.5142 H   0  0  0  0  0  0  0  0  0  0  0  0
   47.1488   36.1537   41.5142 H   0  0  0  0  0  0  0  0  0  0  0  0
   49.2799   32.1803   43.5570 H   0  0  0  0  0  0  0  0  0  0  0  0
  1  6  2  0
  2  3  2  0
  2  1  1  0
  3  4  1  0
  4  5  2  0
  6  5  1  0
  7  8  1  0
  7  2  1  0
  9  7  1  0
 10  7  1  0
 11  3  1  0
  1 12  1  0
  5 13  1  0
  8 14  1  0
  8 15  1  0
  8 16  1  0
  9 17  1  0
  9 18  1  0
  9 19  1  0
 10 20  1  0
 10 21  1  0
 10 22  1  0
 11 23  1  0
M  ISO  8  12  14  13  14  14   8  15   8  16   8  17   8  18   8  19   8
M  ISO  4  20   8  21   8  22   8  23  11
M  END
>  <minimizedAffinity>  (1) 
-3.63392925

>  <minimizedRMSD>  (1) 
1.99765491

$$$$
