
     RDKit          3D

 13 13  0  0  0  0  0  0  0  0999 V2000
   45.2950   36.0500   43.2670 C   0  0  0  0  0  0  0  0  0  0  0  0
   46.1480   34.9450   43.1150 C   0  0  0  0  0  0  0  0  0  0  0  0
   46.2290   34.0140   44.1360 C   0  0  0  0  0  0  0  0  0  0  0  0
   45.4580   34.2190   45.2650 N   0  0  0  0  0  0  0  0  0  0  0  0
   44.6480   35.2840   45.3890 C   0  0  0  0  0  0  0  0  0  0  0  0
   44.5610   36.1980   44.4030 N   0  0  0  0  0  0  0  0  0  0  0  0
   46.9540   34.7450   41.9190 C   0  0  0  0  0  0  0  0  0  0  0  0
   47.9850   35.4600   41.8370 O   0  0  0  0  0  0  0  0  0  0  0  0
   47.2800   32.5810   44.0390 S   0  0  0  0  0  0  0  0  0  0  0  0
   45.2199   36.7987   42.4647 H   0  0  0  0  0  0  0  0  0  0  0  0
   44.0505   35.4107   46.3039 H   0  0  0  0  0  0  0  0  0  0  0  0
   46.6797   34.0180   41.1404 H   0  0  0  0  0  0  0  0  0  0  0  0
   47.5913   32.1565   45.3038 H   0  0  0  0  0  0  0  0  0  0  0  0
  1  6  2  0
  2  1  1  0
  2  3  2  0
  3  4  1  0
  4  5  2  0
  6  5  1  0
  7  2  1  0
  8  7  2  0
  9  3  1  0
  1 10  1  0
  5 11  1  0
  7 12  1  0
  9 13  1  0
M  ISO  4  10  14  11  14  12   6  13  11
M  END
>  <minimizedAffinity>  (1) 
-3.31586957

>  <minimizedRMSD>  (1) 
1.89548922

$$$$
