
     RDKit          3D

 12 12  0  0  0  0  0  0  0  0999 V2000
   44.3150   35.7000   44.3750 C   0  0  0  0  0  0  0  0  0  0  0  0
   44.5310   34.9070   43.2370 C   0  0  0  0  0  0  0  0  0  0  0  0
   45.1790   33.6880   43.3710 C   0  0  0  0  0  0  0  0  0  0  0  0
   45.5820   33.3170   44.6400 N   0  0  0  0  0  0  0  0  0  0  0  0
   45.3620   34.0930   45.7070 C   0  0  0  0  0  0  0  0  0  0  0  0
   44.7330   35.2780   45.5830 N   0  0  0  0  0  0  0  0  0  0  0  0
   45.4850   32.6340   41.9630 S   0  0  0  0  0  0  0  0  0  0  0  0
   43.9920   35.4300   41.6170 S   0  0  0  0  0  0  0  0  0  0  0  0
   43.8028   36.6688   44.2794 H   0  0  0  0  0  0  0  0  0  0  0  0
   45.6992   33.7591   46.6994 H   0  0  0  0  0  0  0  0  0  0  0  0
   45.8473   31.3861   42.3969 H   0  0  0  0  0  0  0  0  0  0  0  0
   43.0131   36.3798   41.7460 H   0  0  0  0  0  0  0  0  0  0  0  0
  1  6  2  0
  2  3  2  0
  2  1  1  0
  3  4  1  0
  4  5  2  0
  6  5  1  0
  7  3  1  0
  8  2  1  0
  1  9  1  0
  5 10  1  0
  7 11  1  0
  8 12  1  0
M  ISO  4   9  14  10  14  11  11  12  11
M  END
>  <minimizedAffinity>  (1) 
-2.66816974

>  <minimizedRMSD>  (1) 
1.3352319

$$$$
