
     RDKit          3D

 29 30  0  0  0  0  0  0  0  0999 V2000
   44.2140   35.7880   44.1440 C   0  0  0  0  0  0  0  0  0  0  0  0
   44.4270   35.1440   42.9220 C   0  0  0  0  0  0  0  0  0  0  0  0
   45.1520   33.9550   42.9520 C   0  0  0  0  0  0  0  0  0  0  0  0
   45.6010   33.5060   44.1700 N   0  0  0  0  0  0  0  0  0  0  0  0
   45.3800   34.1450   45.3170 C   0  0  0  0  0  0  0  0  0  0  0  0
   44.6790   35.2990   45.3000 N   0  0  0  0  0  0  0  0  0  0  0  0
   43.9150   35.6770   41.6320 C   0  0  0  0  0  0  0  0  0  0  0  0
   42.7120   35.0350   41.2030 N   0  0  0  0  0  0  0  0  0  0  0  0
   41.5510   35.6690   41.7420 C   0  0  0  0  0  0  0  0  0  0  0  0
   40.3960   34.7070   41.5180 C   0  0  0  0  0  0  0  0  0  0  0  0
   40.1510   34.7180   40.0340 C   0  0  0  0  0  0  0  0  0  0  0  0
   41.3740   34.4370   39.2200 C   0  0  0  0  0  0  0  0  0  0  0  0
   42.6430   34.9850   39.7780 C   0  0  0  0  0  0  0  0  0  0  0  0
   45.4900   33.0390   41.4580 S   0  0  0  0  0  0  0  0  0  0  0  0
   43.6446   36.7291   44.1562 H   0  0  0  0  0  0  0  0  0  0  0  0
   45.7629   33.7387   46.2648 H   0  0  0  0  0  0  0  0  0  0  0  0
   43.7158   36.7523   41.7508 H   0  0  0  0  0  0  0  0  0  0  0  0
   44.6823   35.4848   40.8676 H   0  0  0  0  0  0  0  0  0  0  0  0
   41.6854   35.8589   42.8171 H   0  0  0  0  0  0  0  0  0  0  0  0
   41.3635   36.6382   41.2568 H   0  0  0  0  0  0  0  0  0  0  0  0
   40.6660   33.6957   41.8563 H   0  0  0  0  0  0  0  0  0  0  0  0
   39.5002   35.0037   42.0833 H   0  0  0  0  0  0  0  0  0  0  0  0
   39.3957   33.9530   39.8012 H   0  0  0  0  0  0  0  0  0  0  0  0
   39.8163   35.7324   39.7712 H   0  0  0  0  0  0  0  0  0  0  0  0
   41.2255   34.8712   38.2203 H   0  0  0  0  0  0  0  0  0  0  0  0
   41.4907   33.3433   39.2088 H   0  0  0  0  0  0  0  0  0  0  0  0
   43.4713   34.3561   39.4196 H   0  0  0  0  0  0  0  0  0  0  0  0
   42.7007   36.0283   39.4341 H   0  0  0  0  0  0  0  0  0  0  0  0
   45.9508   31.7902   41.7823 H   0  0  0  0  0  0  0  0  0  0  0  0
  1  6  2  0
  2  3  2  0
  2  1  1  0
  3  4  1  0
  4  5  2  0
  6  5  1  0
  7  2  1  0
  8  7  1  0
  8  9  1  0
 10  9  1  0
 11 10  1  0
 12 13  1  0
 12 11  1  0
 13  8  1  0
 14  3  1  0
  1 15  1  0
  5 16  1  0
  7 17  1  0
  7 18  1  0
  9 19  1  0
  9 20  1  0
 10 21  1  0
 10 22  1  0
 11 23  1  0
 11 24  1  0
 12 25  1  0
 12 26  1  0
 13 27  1  0
 13 28  1  0
 14 29  1  0
M  ISO  8  15  14  16  14  17   8  18   8  19  13  20  13  21  13  22  13
M  ISO  7  23  13  24  13  25  13  26  13  27  13  28  13  29  11
M  END
>  <minimizedAffinity>  (1) 
-4.21683645

>  <minimizedRMSD>  (1) 
1.7477138

$$$$
