
     RDKit          3D

 21 22  0  0  0  0  0  0  0  0999 V2000
   47.3330   32.9750   44.1540 C   0  0  0  0  0  0  0  0  0  0  0  0
   46.5760   34.0910   43.7990 C   0  0  0  0  0  0  0  0  0  0  0  0
   45.5940   34.5130   44.6970 C   0  0  0  0  0  0  0  0  0  0  0  0
   45.4410   33.8090   45.8570 N   0  0  0  0  0  0  0  0  0  0  0  0
   46.1780   32.7500   46.1680 C   0  0  0  0  0  0  0  0  0  0  0  0
   47.1190   32.3330   45.3250 N   0  0  0  0  0  0  0  0  0  0  0  0
   46.7840   34.8190   42.5250 C   0  0  0  0  0  0  0  0  0  0  0  0
   48.1760   34.6970   42.0240 C   0  0  0  0  0  0  0  0  0  0  0  0
   48.3070   34.8990   40.5080 C   0  0  0  0  0  0  0  0  0  0  0  0
   48.9600   35.8340   41.5150 C   0  0  0  0  0  0  0  0  0  0  0  0
   44.5590   35.9330   44.3490 S   0  0  0  0  0  0  0  0  0  0  0  0
   48.1156   32.6115   43.4717 H   0  0  0  0  0  0  0  0  0  0  0  0
   46.0118   32.2200   47.1175 H   0  0  0  0  0  0  0  0  0  0  0  0
   46.0990   34.4092   41.7681 H   0  0  0  0  0  0  0  0  0  0  0  0
   46.5872   35.8850   42.7120 H   0  0  0  0  0  0  0  0  0  0  0  0
   48.4207   33.9424   42.7860 H   0  0  0  0  0  0  0  0  0  0  0  0
   47.4439   35.2352   39.9146 H   0  0  0  0  0  0  0  0  0  0  0  0
   48.6458   34.2929   39.6548 H   0  0  0  0  0  0  0  0  0  0  0  0
   50.0542   35.8358   41.6276 H   0  0  0  0  0  0  0  0  0  0  0  0
   48.9342   36.9208   41.6827 H   0  0  0  0  0  0  0  0  0  0  0  0
   44.1473   36.4978   45.5273 H   0  0  0  0  0  0  0  0  0  0  0  0
  1  6  2  0
  2  1  1  0
  2  3  2  0
  3  4  1  0
  4  5  2  0
  6  5  1  0
  7  2  1  0
  8  7  1  0
  9 10  1  0
  9  8  1  0
 10  8  1  0
 11  3  1  0
  1 12  1  0
  5 13  1  0
  7 14  1  0
  7 15  1  0
  8 16  1  0
  9 17  1  0
  9 18  1  0
 10 19  1  0
 10 20  1  0
 11 21  1  0
M  ISO  8  12  14  13  14  14   8  15   8  16  13  17  13  18  13  19  13
M  ISO  2  20  13  21  11
M  END
>  <minimizedAffinity>  (1) 
-4.17396021

>  <minimizedRMSD>  (1) 
3.94799328

$$$$
