
     RDKit          3D

 21 22  0  0  0  0  0  0  0  0999 V2000
   44.7730   35.0820   44.9800 C   0  0  0  0  0  0  0  0  0  0  0  0
   45.4550   35.1770   43.7670 C   0  0  0  0  0  0  0  0  0  0  0  0
   46.5450   34.3210   43.6000 C   0  0  0  0  0  0  0  0  0  0  0  0
   46.8830   33.4490   44.6150 N   0  0  0  0  0  0  0  0  0  0  0  0
   46.1800   33.4100   45.7650 C   0  0  0  0  0  0  0  0  0  0  0  0
   45.1340   34.2190   45.9470 N   0  0  0  0  0  0  0  0  0  0  0  0
   45.0710   36.1190   42.6990 C   0  0  0  0  0  0  0  0  0  0  0  0
   43.9780   35.4660   41.9050 C   0  0  0  0  0  0  0  0  0  0  0  0
   44.0700   34.7070   40.7570 C   0  0  0  0  0  0  0  0  0  0  0  0
   42.7840   34.3440   40.4280 C   0  0  0  0  0  0  0  0  0  0  0  0
   41.9610   34.9040   41.4000 C   0  0  0  0  0  0  0  0  0  0  0  0
   42.7130   35.5640   42.2600 O   0  0  0  0  0  0  0  0  0  0  0  0
   47.5070   34.3380   42.0940 S   0  0  0  0  0  0  0  0  0  0  0  0
   43.9069   35.7377   45.1526 H   0  0  0  0  0  0  0  0  0  0  0  0
   46.4706   32.7063   46.5590 H   0  0  0  0  0  0  0  0  0  0  0  0
   44.7075   37.0596   43.1385 H   0  0  0  0  0  0  0  0  0  0  0  0
   45.9328   36.3551   42.0574 H   0  0  0  0  0  0  0  0  0  0  0  0
   44.9889   34.4440   40.2125 H   0  0  0  0  0  0  0  0  0  0  0  0
   42.4697   33.7334   39.5687 H   0  0  0  0  0  0  0  0  0  0  0  0
   40.8658   34.8118   41.4441 H   0  0  0  0  0  0  0  0  0  0  0  0
   48.8411   34.3616   42.4046 H   0  0  0  0  0  0  0  0  0  0  0  0
  1  6  2  0
  2  1  1  0
  3  2  2  0
  3  4  1  0
  4  5  2  0
  5  6  1  0
  7  2  1  0
  8 12  1  0
  8  7  1  0
  9  8  2  0
 10  9  1  0
 10 11  2  0
 11 12  1  0
 13  3  1  0
  1 14  1  0
  5 15  1  0
  7 16  1  0
  7 17  1  0
  9 18  1  0
 10 19  1  0
 11 20  1  0
 13 21  1  0
M  ISO  8  14  14  15  14  16   8  17   8  18  14  19  14  20  14  21  11
M  END
>  <minimizedAffinity>  (1) 
-3.94429779

>  <minimizedRMSD>  (1) 
0.577059865

$$$$
