
     RDKit          3D

 27 29  0  0  0  0  0  0  0  0999 V2000
   44.5280   35.5730   44.7310 C   0  0  0  0  0  0  0  0  0  0  0  0
   45.2280   35.0650   43.6370 C   0  0  0  0  0  0  0  0  0  0  0  0
   46.0400   33.9530   43.8540 C   0  0  0  0  0  0  0  0  0  0  0  0
   46.0870   33.4520   45.1230 N   0  0  0  0  0  0  0  0  0  0  0  0
   45.4060   33.9620   46.1450 C   0  0  0  0  0  0  0  0  0  0  0  0
   44.6320   35.0180   45.9450 N   0  0  0  0  0  0  0  0  0  0  0  0
   45.1230   35.6670   42.2840 C   0  0  0  0  0  0  0  0  0  0  0  0
   43.9030   35.1610   41.5670 C   0  0  0  0  0  0  0  0  0  0  0  0
   44.0060   34.2950   40.5200 C   0  0  0  0  0  0  0  0  0  0  0  0
   42.2770   33.9980   40.0170 S   0  0  0  0  0  0  0  0  0  0  0  0
   41.6730   35.1790   41.4060 C   0  0  0  0  0  0  0  0  0  0  0  0
   42.6690   35.4850   41.8590 N   0  0  0  0  0  0  0  0  0  0  0  0
   46.9750   33.2200   42.5370 S   0  0  0  0  0  0  0  0  0  0  0  0
   48.6930   33.6750   42.5600 C   0  0  0  0  0  0  0  0  0  0  0  0
   49.6710   32.7210   42.2600 C   0  0  0  0  0  0  0  0  0  0  0  0
   50.8750   33.4250   42.3750 C   0  0  0  0  0  0  0  0  0  0  0  0
   50.6230   34.7200   42.7240 N   0  0  0  0  0  0  0  0  0  0  0  0
   49.2880   34.8310   42.8260 N   0  0  0  0  0  0  0  0  0  0  0  0
   43.8764   36.4485   44.5936 H   0  0  0  0  0  0  0  0  0  0  0  0
   45.4846   33.5118   47.1456 H   0  0  0  0  0  0  0  0  0  0  0  0
   45.0568   36.7608   42.3803 H   0  0  0  0  0  0  0  0  0  0  0  0
   46.0143   35.3865   41.7036 H   0  0  0  0  0  0  0  0  0  0  0  0
   44.9209   33.8722   40.0793 H   0  0  0  0  0  0  0  0  0  0  0  0
   40.6510   35.4755   41.6844 H   0  0  0  0  0  0  0  0  0  0  0  0
   49.5271   31.6631   41.9952 H   0  0  0  0  0  0  0  0  0  0  0  0
   51.8751   32.9982   42.2089 H   0  0  0  0  0  0  0  0  0  0  0  0
   51.3180   35.4643   42.8785 H   0  0  0  0  0  0  0  0  0  0  0  0
  1  6  2  0
  2  3  2  0
  2  1  1  0
  3  4  1  0
  4  5  2  0
  6  5  1  0
  7  2  1  0
  8 12  1  0
  8  7  1  0
  9  8  2  0
 10  9  1  0
 10 11  1  0
 11 12  2  0
 13 14  1  0
 13  3  1  0
 14 18  2  0
 15 16  2  0
 15 14  1  0
 16 17  1  0
 17 18  1  0
  1 19  1  0
  5 20  1  0
  7 21  1  0
  7 22  1  0
  9 23  1  0
 11 24  1  0
 15 25  1  0
 16 26  1  0
 17 27  1  0
M  ISO  8  19  14  20  14  21   8  22   8  23  14  24  14  25  14  26  14
M  ISO  1  27   9
M  END
>  <minimizedAffinity>  (1) 
-5.23615551

>  <minimizedRMSD>  (1) 
0.348221511

$$$$
