
     RDKit          3D

 31 34  0  0  0  0  0  0  0  0999 V2000
   44.3600   35.7350   44.3220 C   0  0  0  0  0  0  0  0  0  0  0  0
   44.7970   34.9710   43.2390 C   0  0  0  0  0  0  0  0  0  0  0  0
   45.4810   33.7940   43.5400 C   0  0  0  0  0  0  0  0  0  0  0  0
   45.6670   33.4860   44.8450 N   0  0  0  0  0  0  0  0  0  0  0  0
   45.2410   34.2310   45.8610 C   0  0  0  0  0  0  0  0  0  0  0  0
   44.5850   35.3590   45.5890 N   0  0  0  0  0  0  0  0  0  0  0  0
   44.5500   35.3810   41.8400 C   0  0  0  0  0  0  0  0  0  0  0  0
   43.1620   34.9510   41.3970 C   0  0  0  0  0  0  0  0  0  0  0  0
   43.0220   33.9430   40.4920 C   0  0  0  0  0  0  0  0  0  0  0  0
   41.2090   33.8040   40.2890 S   0  0  0  0  0  0  0  0  0  0  0  0
   40.9660   35.2300   41.5510 C   0  0  0  0  0  0  0  0  0  0  0  0
   42.0500   35.4790   41.8190 N   0  0  0  0  0  0  0  0  0  0  0  0
   46.0890   32.7330   42.2340 S   0  0  0  0  0  0  0  0  0  0  0  0
   50.4890   34.8750   42.3730 N   0  0  0  0  0  0  0  0  0  0  0  0
   49.4430   35.7350   42.2470 C   0  0  0  0  0  0  0  0  0  0  0  0
   48.3180   35.0240   42.2230 N   0  0  0  0  0  0  0  0  0  0  0  0
   48.5910   33.6950   42.3300 C   0  0  0  0  0  0  0  0  0  0  0  0
   47.8650   32.5190   42.3630 C   0  0  0  0  0  0  0  0  0  0  0  0
   48.5300   31.3350   42.4870 N   0  0  0  0  0  0  0  0  0  0  0  0
   49.8630   31.3400   42.5720 C   0  0  0  0  0  0  0  0  0  0  0  0
   50.6400   32.4560   42.5460 N   0  0  0  0  0  0  0  0  0  0  0  0
   49.9820   33.6250   42.4250 C   0  0  0  0  0  0  0  0  0  0  0  0
   43.8159   36.6717   44.1308 H   0  0  0  0  0  0  0  0  0  0  0  0
   45.4256   33.9237   46.9009 H   0  0  0  0  0  0  0  0  0  0  0  0
   44.6316   36.4753   41.7637 H   0  0  0  0  0  0  0  0  0  0  0  0
   45.2959   34.8990   41.1909 H   0  0  0  0  0  0  0  0  0  0  0  0
   43.8102   33.3536   40.0007 H   0  0  0  0  0  0  0  0  0  0  0  0
   40.0344   35.6855   41.9180 H   0  0  0  0  0  0  0  0  0  0  0  0
   51.4857   35.1307   42.4201 H   0  0  0  0  0  0  0  0  0  0  0  0
   49.5144   36.8304   42.1769 H   0  0  0  0  0  0  0  0  0  0  0  0
   50.3703   30.3689   42.6704 H   0  0  0  0  0  0  0  0  0  0  0  0
  1  6  2  0
  2  3  2  0
  2  1  1  0
  3  4  1  0
  4  5  2  0
  6  5  1  0
  7  2  1  0
  8 12  1  0
  8  7  1  0
  9  8  2  0
 10  9  1  0
 10 11  1  0
 11 12  2  0
 13 18  1  0
 13  3  1  0
 14 22  1  0
 15 14  1  0
 16 15  2  0
 16 17  1  0
 17 18  1  0
 17 22  2  0
 18 19  2  0
 19 20  1  0
 21 20  2  0
 22 21  1  0
  1 23  1  0
  5 24  1  0
  7 25  1  0
  7 26  1  0
  9 27  1  0
 11 28  1  0
 14 29  1  0
 15 30  1  0
 20 31  1  0
M  ISO  8  23  14  24  14  25   8  26   8  27  14  28  14  29   9  30  14
M  ISO  1  31  14
M  END
>  <minimizedAffinity>  (1) 
-5.50204802

>  <minimizedRMSD>  (1) 
1.60902071

$$$$
