
     RDKit          3D

 29 30  0  0  0  0  0  0  0  0999 V2000
   44.8300   35.0180   45.0240 C   0  0  0  0  0  0  0  0  0  0  0  0
   45.6270   34.9000   43.8940 C   0  0  0  0  0  0  0  0  0  0  0  0
   46.6450   33.9450   43.9370 C   0  0  0  0  0  0  0  0  0  0  0  0
   46.7850   33.1990   45.0750 N   0  0  0  0  0  0  0  0  0  0  0  0
   45.9880   33.3540   46.1360 C   0  0  0  0  0  0  0  0  0  0  0  0
   45.0090   34.2610   46.1170 N   0  0  0  0  0  0  0  0  0  0  0  0
   45.4370   35.7330   42.6850 C   0  0  0  0  0  0  0  0  0  0  0  0
   44.3150   35.1950   41.8380 C   0  0  0  0  0  0  0  0  0  0  0  0
   44.5560   34.3550   40.7910 C   0  0  0  0  0  0  0  0  0  0  0  0
   42.8890   34.0110   40.1210 S   0  0  0  0  0  0  0  0  0  0  0  0
   42.1180   35.1360   41.4620 C   0  0  0  0  0  0  0  0  0  0  0  0
   43.0540   35.4720   42.0210 N   0  0  0  0  0  0  0  0  0  0  0  0
   47.7450   33.6820   42.5600 S   0  0  0  0  0  0  0  0  0  0  0  0
   49.2000   34.7270   42.6010 C   0  0  0  0  0  0  0  0  0  0  0  0
   49.0540   35.8150   41.5550 C   0  0  0  0  0  0  0  0  0  0  0  0
   50.4950   33.9940   42.4250 C   0  0  0  0  0  0  0  0  0  0  0  0
   44.0195   35.7616   45.0234 H   0  0  0  0  0  0  0  0  0  0  0  0
   46.1394   32.7309   47.0298 H   0  0  0  0  0  0  0  0  0  0  0  0
   45.1974   36.7624   42.9899 H   0  0  0  0  0  0  0  0  0  0  0  0
   46.3650   35.7156   42.0946 H   0  0  0  0  0  0  0  0  0  0  0  0
   45.5242   33.9742   40.4338 H   0  0  0  0  0  0  0  0  0  0  0  0
   41.0631   35.3892   41.6440 H   0  0  0  0  0  0  0  0  0  0  0  0
   49.2536   35.1588   43.6113 H   0  0  0  0  0  0  0  0  0  0  0  0
   48.9235   36.7872   42.0529 H   0  0  0  0  0  0  0  0  0  0  0  0
   49.9564   35.8430   40.9266 H   0  0  0  0  0  0  0  0  0  0  0  0
   48.1761   35.6041   40.9266 H   0  0  0  0  0  0  0  0  0  0  0  0
   50.9179   33.7546   43.4118 H   0  0  0  0  0  0  0  0  0  0  0  0
   50.3165   33.0630   41.8670 H   0  0  0  0  0  0  0  0  0  0  0  0
   51.2013   34.6263   41.8670 H   0  0  0  0  0  0  0  0  0  0  0  0
  1  6  2  0
  2  3  2  0
  2  1  1  0
  3  4  1  0
  4  5  2  0
  6  5  1  0
  7  2  1  0
  8 12  1  0
  8  7  1  0
  9  8  2  0
 10  9  1  0
 10 11  1  0
 11 12  2  0
 13 14  1  0
 13  3  1  0
 15 14  1  0
 16 14  1  0
  1 17  1  0
  5 18  1  0
  7 19  1  0
  7 20  1  0
  9 21  1  0
 11 22  1  0
 14 23  1  0
 15 24  1  0
 15 25  1  0
 15 26  1  0
 16 27  1  0
 16 28  1  0
 16 29  1  0
M  ISO  8  17  14  18  14  19   8  20   8  21  14  22  14  23   8  24   8
M  ISO  5  25   8  26   8  27   8  28   8  29   8
M  END
>  <minimizedAffinity>  (1) 
-4.82739973

>  <minimizedRMSD>  (1) 
0.755873621

$$$$
