
     RDKit          3D

 28 30  0  0  0  0  0  0  0  0999 V2000
   44.5160   35.7120   44.5540 C   0  0  0  0  0  0  0  0  0  0  0  0
   45.1000   34.9730   43.5130 C   0  0  0  0  0  0  0  0  0  0  0  0
   45.7320   33.7850   43.8360 C   0  0  0  0  0  0  0  0  0  0  0  0
   45.7370   33.4200   45.1610 N   0  0  0  0  0  0  0  0  0  0  0  0
   45.1730   34.1460   46.1260 C   0  0  0  0  0  0  0  0  0  0  0  0
   44.5580   35.2990   45.8180 N   0  0  0  0  0  0  0  0  0  0  0  0
   45.0460   35.4370   42.1110 C   0  0  0  0  0  0  0  0  0  0  0  0
   43.7570   35.0270   41.4500 C   0  0  0  0  0  0  0  0  0  0  0  0
   43.7560   34.1590   40.4030 C   0  0  0  0  0  0  0  0  0  0  0  0
   41.9700   34.0040   39.9840 S   0  0  0  0  0  0  0  0  0  0  0  0
   41.5390   35.2180   41.3910 C   0  0  0  0  0  0  0  0  0  0  0  0
   42.5760   35.4490   41.8040 N   0  0  0  0  0  0  0  0  0  0  0  0
   46.5130   32.7550   42.6220 S   0  0  0  0  0  0  0  0  0  0  0  0
   48.2750   33.0150   42.5060 C   0  0  0  0  0  0  0  0  0  0  0  0
   49.3090   32.1300   42.2860 C   0  0  0  0  0  0  0  0  0  0  0  0
   50.5970   32.6190   42.2430 C   0  0  0  0  0  0  0  0  0  0  0  0
   50.8820   33.9210   42.4060 N   0  0  0  0  0  0  0  0  0  0  0  0
   49.8640   34.7730   42.6180 C   0  0  0  0  0  0  0  0  0  0  0  0
   48.5700   34.3390   42.6700 N   0  0  0  0  0  0  0  0  0  0  0  0
   44.0093   36.6594   44.3179 H   0  0  0  0  0  0  0  0  0  0  0  0
   45.2112   33.8020   47.1701 H   0  0  0  0  0  0  0  0  0  0  0  0
   45.1251   36.5340   42.0930 H   0  0  0  0  0  0  0  0  0  0  0  0
   45.8805   34.9783   41.5604 H   0  0  0  0  0  0  0  0  0  0  0  0
   44.6151   33.6680   39.9224 H   0  0  0  0  0  0  0  0  0  0  0  0
   40.5571   35.5930   41.7154 H   0  0  0  0  0  0  0  0  0  0  0  0
   49.1104   31.0569   42.1478 H   0  0  0  0  0  0  0  0  0  0  0  0
   51.4239   31.9150   42.0683 H   0  0  0  0  0  0  0  0  0  0  0  0
   50.0779   35.8436   42.7526 H   0  0  0  0  0  0  0  0  0  0  0  0
  1  6  2  0
  2  3  2  0
  2  1  1  0
  3  4  1  0
  4  5  2  0
  6  5  1  0
  7  2  1  0
  8 12  1  0
  8  7  1  0
  9  8  2  0
 10  9  1  0
 10 11  1  0
 11 12  2  0
 13  3  1  0
 14 13  1  0
 14 19  1  0
 15 14  2  0
 16 15  1  0
 16 17  2  0
 17 18  1  0
 18 19  2  0
  1 20  1  0
  5 21  1  0
  7 22  1  0
  7 23  1  0
  9 24  1  0
 11 25  1  0
 15 26  1  0
 16 27  1  0
 18 28  1  0
M  ISO  8  20  14  21  14  22   8  23   8  24  14  25  14  26  14  27  14
M  ISO  1  28  14
M  END
>  <minimizedAffinity>  (1) 
-4.93636942

>  <minimizedRMSD>  (1) 
0.82027024

$$$$
