
     RDKit          3D

 33 35  0  0  0  0  0  0  0  0999 V2000
   44.5310   35.6250   44.6820 C   0  0  0  0  0  0  0  0  0  0  0  0
   45.2060   35.0670   43.6040 C   0  0  0  0  0  0  0  0  0  0  0  0
   45.9700   33.9320   43.8660 C   0  0  0  0  0  0  0  0  0  0  0  0
   46.0110   33.4410   45.1470 N   0  0  0  0  0  0  0  0  0  0  0  0
   45.3390   34.0190   46.1600 C   0  0  0  0  0  0  0  0  0  0  0  0
   44.5980   35.1120   45.9250 N   0  0  0  0  0  0  0  0  0  0  0  0
   45.1330   35.6280   42.2450 C   0  0  0  0  0  0  0  0  0  0  0  0
   43.8800   35.1410   41.5350 C   0  0  0  0  0  0  0  0  0  0  0  0
   43.9850   34.2850   40.4820 C   0  0  0  0  0  0  0  0  0  0  0  0
   42.2440   34.0100   39.9940 S   0  0  0  0  0  0  0  0  0  0  0  0
   41.6610   35.1750   41.3910 C   0  0  0  0  0  0  0  0  0  0  0  0
   42.6570   35.4690   41.8400 N   0  0  0  0  0  0  0  0  0  0  0  0
   46.8880   33.1090   42.5860 S   0  0  0  0  0  0  0  0  0  0  0  0
   48.6450   33.0400   42.8680 C   0  0  0  0  0  0  0  0  0  0  0  0
   49.2300   34.4020   42.4790 C   0  0  0  0  0  0  0  0  0  0  0  0
   50.7050   34.0810   42.5360 C   0  0  0  0  0  0  0  0  0  0  0  0
   50.7930   32.7260   41.8930 C   0  0  0  0  0  0  0  0  0  0  0  0
   49.3920   32.1370   41.9280 C   0  0  0  0  0  0  0  0  0  0  0  0
   43.9170   36.5220   44.5135 H   0  0  0  0  0  0  0  0  0  0  0  0
   45.3972   33.5975   47.1744 H   0  0  0  0  0  0  0  0  0  0  0  0
   45.1103   36.7260   42.3073 H   0  0  0  0  0  0  0  0  0  0  0  0
   46.0151   35.2989   41.6762 H   0  0  0  0  0  0  0  0  0  0  0  0
   44.8957   33.8615   40.0335 H   0  0  0  0  0  0  0  0  0  0  0  0
   40.6426   35.4757   41.6783 H   0  0  0  0  0  0  0  0  0  0  0  0
   48.7533   32.7116   43.9122 H   0  0  0  0  0  0  0  0  0  0  0  0
   48.9547   35.1854   43.2004 H   0  0  0  0  0  0  0  0  0  0  0  0
   48.8794   34.7980   41.5145 H   0  0  0  0  0  0  0  0  0  0  0  0
   51.2910   34.8224   41.9730 H   0  0  0  0  0  0  0  0  0  0  0  0
   51.1082   34.0971   43.5593 H   0  0  0  0  0  0  0  0  0  0  0  0
   51.4886   32.0843   42.4536 H   0  0  0  0  0  0  0  0  0  0  0  0
   51.1666   32.8001   40.8610 H   0  0  0  0  0  0  0  0  0  0  0  0
   48.9363   32.1507   40.9269 H   0  0  0  0  0  0  0  0  0  0  0  0
   49.3813   31.0855   42.2509 H   0  0  0  0  0  0  0  0  0  0  0  0
  1  6  2  0
  2  3  2  0
  2  1  1  0
  3  4  1  0
  4  5  2  0
  6  5  1  0
  7  2  1  0
  8 12  1  0
  8  7  1  0
  9  8  2  0
 10  9  1  0
 10 11  1  0
 11 12  2  0
 13 14  1  0
 13  3  1  0
 15 16  1  0
 15 14  1  0
 17 18  1  0
 17 16  1  0
 18 14  1  0
  1 19  1  0
  5 20  1  0
  7 21  1  0
  7 22  1  0
  9 23  1  0
 11 24  1  0
 14 25  1  0
 15 26  1  0
 15 27  1  0
 16 28  1  0
 16 29  1  0
 17 30  1  0
 17 31  1  0
 18 32  1  0
 18 33  1  0
M  ISO  8  19  14  20  14  21   8  22   8  23  14  24  14  25  13  26  13
M  ISO  7  27  13  28  13  29  13  30  13  31  13  32  13  33  13
M  END
>  <minimizedAffinity>  (1) 
-4.88242245

>  <minimizedRMSD>  (1) 
1.92463851

$$$$
