
     RDKit          3D

 32 34  0  0  1  0  0  0  0  0999 V2000
   44.4630   35.5200   44.7760 C   0  0  0  0  0  0  0  0  0  0  0  0
   45.2230   35.1880   43.6460 C   0  0  0  0  0  0  0  0  0  0  0  0
   46.1690   34.1830   43.7990 C   0  0  0  0  0  0  0  0  0  0  0  0
   46.2960   33.5950   45.0180 N   0  0  0  0  0  0  0  0  0  0  0  0
   45.5550   33.9360   46.0830 C   0  0  0  0  0  0  0  0  0  0  0  0
   44.6390   34.9010   45.9540 N   0  0  0  0  0  0  0  0  0  0  0  0
   45.0250   35.8710   42.3520 C   0  0  0  0  0  0  0  0  0  0  0  0
   43.8560   35.2740   41.6040 C   0  0  0  0  0  0  0  0  0  0  0  0
   44.0630   34.3930   40.5840 C   0  0  0  0  0  0  0  0  0  0  0  0
   42.3650   33.9830   40.0330 S   0  0  0  0  0  0  0  0  0  0  0  0
   41.6500   35.1510   41.3690 C   0  0  0  0  0  0  0  0  0  0  0  0
   42.6070   35.5320   41.8540 N   0  0  0  0  0  0  0  0  0  0  0  0
   47.1980   33.6710   42.4410 S   0  0  0  0  0  0  0  0  0  0  0  0
   49.0090   31.6830   42.7030 N   0  0  0  0  0  0  0  0  0  0  0  0
   50.3700   31.4970   42.2840 C   0  0  0  0  0  0  0  0  0  0  0  0
   50.8750   32.8550   41.8430 C   0  0  0  0  0  0  0  0  0  0  0  0
   49.9450   33.8350   42.5100 C   0  0  0  0  0  0  0  0  0  0  0  0
   48.8030   33.0470   43.0700 C   0  0  1  0  0  0  0  0  0  0  0  0
   43.7014   36.3095   44.6952 H   0  0  0  0  0  0  0  0  0  0  0  0
   45.6991   33.4289   47.0484 H   0  0  0  0  0  0  0  0  0  0  0  0
   44.8299   36.9382   42.5336 H   0  0  0  0  0  0  0  0  0  0  0  0
   45.9335   35.7459   41.7445 H   0  0  0  0  0  0  0  0  0  0  0  0
   45.0186   34.0190   40.1879 H   0  0  0  0  0  0  0  0  0  0  0  0
   40.6021   35.3891   41.6040 H   0  0  0  0  0  0  0  0  0  0  0  0
   48.8137   31.0770   43.5126 H   0  0  0  0  0  0  0  0  0  0  0  0
   50.9766   31.1195   43.1204 H   0  0  0  0  0  0  0  0  0  0  0  0
   50.4374   30.7636   41.4669 H   0  0  0  0  0  0  0  0  0  0  0  0
   51.9112   33.0123   42.1771 H   0  0  0  0  0  0  0  0  0  0  0  0
   50.8842   32.9639   40.7484 H   0  0  0  0  0  0  0  0  0  0  0  0
   50.4709   34.3638   43.3186 H   0  0  0  0  0  0  0  0  0  0  0  0
   49.5867   34.5863   41.7908 H   0  0  0  0  0  0  0  0  0  0  0  0
   48.7669   33.1465   44.1649 H   0  0  0  0  0  0  0  0  0  0  0  0
  1  6  2  0
  2  3  2  0
  2  1  1  0
  3  4  1  0
  4  5  2  0
  6  5  1  0
  7  2  1  0
  8 12  1  0
  8  7  1  0
  9  8  2  0
 10  9  1  0
 10 11  1  0
 11 12  2  0
 13  3  1  0
 14 18  1  0
 15 14  1  0
 16 15  1  0
 16 17  1  0
 17 18  1  0
 18 13  1  0
  1 19  1  0
  5 20  1  0
  7 21  1  0
  7 22  1  0
  9 23  1  0
 11 24  1  0
 14 25  1  0
 15 26  1  0
 15 27  1  0
 16 28  1  0
 16 29  1  0
 17 30  1  0
 17 31  1  0
 18 32  1  1
M  ISO  8  19  14  20  14  21   8  22   8  23  14  24  14  25   5  26  13
M  ISO  6  27  13  28  13  29  13  30  13  31  13  32  13
M  END
>  <minimizedAffinity>  (1) 
-4.53438139

>  <minimizedRMSD>  (1) 
1.02614129

$$$$
