
     RDKit          3D

 27 29  0  0  0  0  0  0  0  0999 V2000
   44.3810   35.7710   44.4590 C   0  0  0  0  0  0  0  0  0  0  0  0
   44.8670   35.2850   43.2510 C   0  0  0  0  0  0  0  0  0  0  0  0
   45.6700   34.1550   43.2720 C   0  0  0  0  0  0  0  0  0  0  0  0
   45.9250   33.5990   44.4950 N   0  0  0  0  0  0  0  0  0  0  0  0
   45.4450   34.0860   45.6430 C   0  0  0  0  0  0  0  0  0  0  0  0
   44.6670   35.1790   45.6240 N   0  0  0  0  0  0  0  0  0  0  0  0
   44.5460   35.9450   41.9580 C   0  0  0  0  0  0  0  0  0  0  0  0
   43.2680   35.4080   41.3770 C   0  0  0  0  0  0  0  0  0  0  0  0
   43.2680   34.7460   40.1870 C   0  0  0  0  0  0  0  0  0  0  0  0
   41.5010   34.3110   39.9430 S   0  0  0  0  0  0  0  0  0  0  0  0
   41.0710   35.1610   41.6020 C   0  0  0  0  0  0  0  0  0  0  0  0
   42.0940   35.5160   41.9280 N   0  0  0  0  0  0  0  0  0  0  0  0
   46.3520   33.4360   41.8000 S   0  0  0  0  0  0  0  0  0  0  0  0
   48.0230   33.9680   41.4340 C   0  0  0  0  0  0  0  0  0  0  0  0
   48.3800   34.8280   40.3070 C   0  0  0  0  0  0  0  0  0  0  0  0
   48.3260   35.4690   41.6990 C   0  0  0  0  0  0  0  0  0  0  0  0
   43.7434   36.6674   44.4571 H   0  0  0  0  0  0  0  0  0  0  0  0
   45.6860   33.5943   46.5970 H   0  0  0  0  0  0  0  0  0  0  0  0
   44.4379   37.0270   42.1244 H   0  0  0  0  0  0  0  0  0  0  0  0
   45.3632   35.7415   41.2504 H   0  0  0  0  0  0  0  0  0  0  0  0
   44.1218   34.5249   39.5296 H   0  0  0  0  0  0  0  0  0  0  0  0
   40.0972   35.2734   42.1012 H   0  0  0  0  0  0  0  0  0  0  0  0
   48.4088   32.9855   41.7436 H   0  0  0  0  0  0  0  0  0  0  0  0
   49.3511   34.6942   39.8080 H   0  0  0  0  0  0  0  0  0  0  0  0
   47.9047   35.0579   39.3420 H   0  0  0  0  0  0  0  0  0  0  0  0
   47.5162   36.1650   41.9633 H   0  0  0  0  0  0  0  0  0  0  0  0
   49.0111   36.0434   42.3398 H   0  0  0  0  0  0  0  0  0  0  0  0
  1  6  2  0
  2  3  2  0
  2  1  1  0
  3  4  1  0
  4  5  2  0
  6  5  1  0
  7  2  1  0
  8 12  1  0
  8  7  1  0
  9  8  2  0
 10  9  1  0
 10 11  1  0
 11 12  2  0
 13  3  1  0
 14 16  1  0
 14 13  1  0
 15 14  1  0
 15 16  1  0
  1 17  1  0
  5 18  1  0
  7 19  1  0
  7 20  1  0
  9 21  1  0
 11 22  1  0
 14 23  1  0
 15 24  1  0
 15 25  1  0
 16 26  1  0
 16 27  1  0
M  ISO  8  17  14  18  14  19   8  20   8  21  14  22  14  23  13  24  13
M  ISO  3  25  13  26  13  27  13
M  END
>  <minimizedAffinity>  (1) 
-4.59862661

>  <minimizedRMSD>  (1) 
0.928094327

$$$$
