
     RDKit          3D

 27 29  0  0  0  0  0  0  0  0999 V2000
   44.3350   35.6030   44.5920 C   0  0  0  0  0  0  0  0  0  0  0  0
   44.9810   35.3650   43.3750 C   0  0  0  0  0  0  0  0  0  0  0  0
   46.0260   34.4350   43.3650 C   0  0  0  0  0  0  0  0  0  0  0  0
   46.3390   33.8230   44.5520 N   0  0  0  0  0  0  0  0  0  0  0  0
   45.7000   34.0770   45.6930 C   0  0  0  0  0  0  0  0  0  0  0  0
   44.7020   34.9610   45.7190 N   0  0  0  0  0  0  0  0  0  0  0  0
   44.5890   36.0640   42.1320 C   0  0  0  0  0  0  0  0  0  0  0  0
   43.4030   35.3850   41.4840 C   0  0  0  0  0  0  0  0  0  0  0  0
   43.5730   34.5790   40.3990 C   0  0  0  0  0  0  0  0  0  0  0  0
   41.8730   34.0230   40.0150 S   0  0  0  0  0  0  0  0  0  0  0  0
   41.2040   35.0540   41.4920 C   0  0  0  0  0  0  0  0  0  0  0  0
   42.1680   35.5040   41.8860 N   0  0  0  0  0  0  0  0  0  0  0  0
   46.9180   34.0460   41.8910 S   0  0  0  0  0  0  0  0  0  0  0  0
   48.5330   33.7240   42.0090 C   0  0  0  0  0  0  0  0  0  0  0  0
   49.7550   34.1120   42.5750 C   0  0  0  0  0  0  0  0  0  0  0  0
   50.9380   33.4760   42.3600 C   0  0  0  0  0  0  0  0  0  0  0  0
   50.9110   32.3340   41.4900 C   0  0  0  0  0  0  0  0  0  0  0  0
   49.0790   32.2340   41.0040 S   0  0  0  0  0  0  0  0  0  0  0  0
   43.5099   36.3295   44.6305 H   0  0  0  0  0  0  0  0  0  0  0  0
   45.9963   33.5564   46.6156 H   0  0  0  0  0  0  0  0  0  0  0  0
   44.3222   37.1038   42.3720 H   0  0  0  0  0  0  0  0  0  0  0  0
   45.4362   36.0376   41.4309 H   0  0  0  0  0  0  0  0  0  0  0  0
   44.5080   34.3238   39.8787 H   0  0  0  0  0  0  0  0  0  0  0  0
   40.1726   35.1745   41.8548 H   0  0  0  0  0  0  0  0  0  0  0  0
   49.7576   34.9900   43.2377 H   0  0  0  0  0  0  0  0  0  0  0  0
   51.8710   33.8202   42.8302 H   0  0  0  0  0  0  0  0  0  0  0  0
   51.7420   31.6820   41.1828 H   0  0  0  0  0  0  0  0  0  0  0  0
  1  6  2  0
  2  1  1  0
  3  2  2  0
  3  4  1  0
  4  5  2  0
  5  6  1  0
  7  2  1  0
  8 12  1  0
  8  7  1  0
  9  8  2  0
 10  9  1  0
 10 11  1  0
 11 12  2  0
 13 14  1  0
 13  3  1  0
 14 15  2  0
 16 15  1  0
 17 16  2  0
 18 17  1  0
 18 14  1  0
  1 19  1  0
  5 20  1  0
  7 21  1  0
  7 22  1  0
  9 23  1  0
 11 24  1  0
 15 25  1  0
 16 26  1  0
 17 27  1  0
M  ISO  8  19  14  20  14  21   8  22   8  23  14  24  14  25  14  26  14
M  ISO  1  27  14
M  END
>  <minimizedAffinity>  (1) 
-4.77966833

>  <minimizedRMSD>  (1) 
1.14982164

$$$$
