
     RDKit          3D

 38 42  0  0  0  0  0  0  0  0999 V2000
   44.3730   35.4850   44.6690 C   0  0  0  0  0  0  0  0  0  0  0  0
   45.0370   35.3640   43.4420 C   0  0  0  0  0  0  0  0  0  0  0  0
   46.1360   34.5050   43.3770 C   0  0  0  0  0  0  0  0  0  0  0  0
   46.4860   33.8430   44.5190 N   0  0  0  0  0  0  0  0  0  0  0  0
   45.8370   33.9750   45.6750 C   0  0  0  0  0  0  0  0  0  0  0  0
   44.7880   34.7880   45.7570 N   0  0  0  0  0  0  0  0  0  0  0  0
   44.6040   36.1130   42.2460 C   0  0  0  0  0  0  0  0  0  0  0  0
   43.4490   35.4100   41.5610 C   0  0  0  0  0  0  0  0  0  0  0  0
   43.6710   34.5830   40.4870 C   0  0  0  0  0  0  0  0  0  0  0  0
   41.9960   34.0060   40.0480 S   0  0  0  0  0  0  0  0  0  0  0  0
   41.2550   35.0470   41.4780 C   0  0  0  0  0  0  0  0  0  0  0  0
   42.1970   35.5220   41.9130 N   0  0  0  0  0  0  0  0  0  0  0  0
   47.0430   34.2790   41.8930 S   0  0  0  0  0  0  0  0  0  0  0  0
   48.6220   33.7850   41.9890 C   0  0  0  0  0  0  0  0  0  0  0  0
   49.8920   34.0760   42.4740 C   0  0  0  0  0  0  0  0  0  0  0  0
   50.9870   33.3180   42.2920 C   0  0  0  0  0  0  0  0  0  0  0  0
   50.8230   32.1220   41.5400 C   0  0  0  0  0  0  0  0  0  0  0  0
   48.9920   32.1780   41.1250 S   0  0  0  0  0  0  0  0  0  0  0  0
   51.7030   31.1440   41.1740 N   0  0  0  0  0  0  0  0  0  0  0  0
   52.3390   30.1440   41.8290 C   0  0  0  0  0  0  0  0  0  0  0  0
   53.1290   29.4330   40.9810 N   0  0  0  0  0  0  0  0  0  0  0  0
   52.9940   29.9940   39.7500 C   0  0  0  0  0  0  0  0  0  0  0  0
   53.5940   29.6290   38.5610 C   0  0  0  0  0  0  0  0  0  0  0  0
   53.3090   30.3380   37.4470 N   0  0  0  0  0  0  0  0  0  0  0  0
   52.4420   31.3780   37.5650 C   0  0  0  0  0  0  0  0  0  0  0  0
   51.8600   31.7310   38.7250 N   0  0  0  0  0  0  0  0  0  0  0  0
   52.1070   31.0560   39.8790 C   0  0  0  0  0  0  0  0  0  0  0  0
   43.5036   36.1538   44.7520 H   0  0  0  0  0  0  0  0  0  0  0  0
   46.1684   33.4123   46.5602 H   0  0  0  0  0  0  0  0  0  0  0  0
   44.2847   37.1215   42.5478 H   0  0  0  0  0  0  0  0  0  0  0  0
   45.4476   36.1735   41.5427 H   0  0  0  0  0  0  0  0  0  0  0  0
   44.6278   34.3295   40.0071 H   0  0  0  0  0  0  0  0  0  0  0  0
   40.2068   35.1565   41.7932 H   0  0  0  0  0  0  0  0  0  0  0  0
   50.0105   35.0028   43.0545 H   0  0  0  0  0  0  0  0  0  0  0  0
   51.9640   33.6090   42.7052 H   0  0  0  0  0  0  0  0  0  0  0  0
   52.2310   29.9348   42.9035 H   0  0  0  0  0  0  0  0  0  0  0  0
   54.2900   28.7781   38.5218 H   0  0  0  0  0  0  0  0  0  0  0  0
   52.2036   31.9621   36.6639 H   0  0  0  0  0  0  0  0  0  0  0  0
  1  6  2  0
  2  1  1  0
  3  2  2  0
  3  4  1  0
  4  5  2  0
  5  6  1  0
  7  2  1  0
  8 12  1  0
  8  7  1  0
  9  8  2  0
 10  9  1  0
 10 11  1  0
 11 12  2  0
 13 14  1  0
 13  3  1  0
 14 15  2  0
 16 15  1  0
 17 16  2  0
 18 17  1  0
 18 14  1  0
 19 17  1  0
 19 20  1  0
 21 20  2  0
 22 27  2  0
 22 21  1  0
 23 22  1  0
 24 25  1  0
 24 23  2  0
 25 26  2  0
 26 27  1  0
 27 19  1  0
  1 28  1  0
  5 29  1  0
  7 30  1  0
  7 31  1  0
  9 32  1  0
 11 33  1  0
 15 34  1  0
 16 35  1  0
 20 36  1  0
 23 37  1  0
 25 38  1  0
M  ISO  8  28  14  29  14  30   8  31   8  32  14  33  14  34  14  35  14
M  ISO  3  36  14  37  14  38  14
M  END
>  <minimizedAffinity>  (1) 
-5.56913614

>  <minimizedRMSD>  (1) 
0.656737149

$$$$
