
     RDKit          3D

 41 45  0  0  0  0  0  0  0  0999 V2000
   48.5470   33.6840   41.8410 C   0  0  0  0  0  0  0  0  0  0  0  0
   49.7670   33.7750   42.5050 C   0  0  0  0  0  0  0  0  0  0  0  0
   50.8950   33.0800   42.1440 C   0  0  0  0  0  0  0  0  0  0  0  0
   50.7790   32.2270   41.0260 C   0  0  0  0  0  0  0  0  0  0  0  0
   48.9820   32.4590   40.5080 S   0  0  0  0  0  0  0  0  0  0  0  0
   51.6880   31.4050   40.4080 N   0  0  0  0  0  0  0  0  0  0  0  0
   52.6500   30.7360   41.0970 C   0  0  0  0  0  0  0  0  0  0  0  0
   53.4020   30.0080   40.2650 N   0  0  0  0  0  0  0  0  0  0  0  0
   52.8880   30.2330   39.0220 C   0  0  0  0  0  0  0  0  0  0  0  0
   53.2470   29.7570   37.7780 C   0  0  0  0  0  0  0  0  0  0  0  0
   54.2220   28.9610   37.6890 O   0  0  0  0  0  0  0  0  0  0  0  0
   52.5740   30.1330   36.6900 N   0  0  0  0  0  0  0  0  0  0  0  0
   51.5170   30.9930   36.7800 C   0  0  0  0  0  0  0  0  0  0  0  0
   50.8690   31.3280   35.5510 N   0  0  0  0  0  0  0  0  0  0  0  0
   51.1440   31.4770   37.9970 N   0  0  0  0  0  0  0  0  0  0  0  0
   51.8140   31.1080   39.1110 C   0  0  0  0  0  0  0  0  0  0  0  0
   46.9870   34.2300   41.8090 S   0  0  0  0  0  0  0  0  0  0  0  0
   44.4380   35.4550   44.6860 C   0  0  0  0  0  0  0  0  0  0  0  0
   45.0570   35.3390   43.4310 C   0  0  0  0  0  0  0  0  0  0  0  0
   46.1290   34.4630   43.3240 C   0  0  0  0  0  0  0  0  0  0  0  0
   46.5070   33.7790   44.4400 N   0  0  0  0  0  0  0  0  0  0  0  0
   45.9070   33.9040   45.6240 C   0  0  0  0  0  0  0  0  0  0  0  0
   44.8710   34.7430   45.7500 N   0  0  0  0  0  0  0  0  0  0  0  0
   44.5860   36.1160   42.2680 C   0  0  0  0  0  0  0  0  0  0  0  0
   43.4290   35.4140   41.5860 C   0  0  0  0  0  0  0  0  0  0  0  0
   43.6410   34.6090   40.4970 C   0  0  0  0  0  0  0  0  0  0  0  0
   41.9630   34.0270   40.0720 S   0  0  0  0  0  0  0  0  0  0  0  0
   41.2410   35.0350   41.5270 C   0  0  0  0  0  0  0  0  0  0  0  0
   42.1840   35.5130   41.9610 N   0  0  0  0  0  0  0  0  0  0  0  0
   49.8316   34.4462   43.3741 H   0  0  0  0  0  0  0  0  0  0  0  0
   51.8399   33.1829   42.6976 H   0  0  0  0  0  0  0  0  0  0  0  0
   52.7902   30.7865   42.1869 H   0  0  0  0  0  0  0  0  0  0  0  0
   52.8555   29.7695   35.7683 H   0  0  0  0  0  0  0  0  0  0  0  0
   50.0651   31.9719   35.5515 H   0  0  0  0  0  0  0  0  0  0  0  0
   51.2059   30.9255   34.6648 H   0  0  0  0  0  0  0  0  0  0  0  0
   43.5844   36.1384   44.8054 H   0  0  0  0  0  0  0  0  0  0  0  0
   46.2597   33.3234   46.4892 H   0  0  0  0  0  0  0  0  0  0  0  0
   44.2562   37.1091   42.6072 H   0  0  0  0  0  0  0  0  0  0  0  0
   45.4133   36.2126   41.5495 H   0  0  0  0  0  0  0  0  0  0  0  0
   44.5925   34.3709   39.9991 H   0  0  0  0  0  0  0  0  0  0  0  0
   40.1963   35.1297   41.8582 H   0  0  0  0  0  0  0  0  0  0  0  0
  1  2  2  0
  3  2  1  0
  4  3  2  0
  5  4  1  0
  5  1  1  0
  6  4  1  0
  6  7  1  0
  8  7  2  0
  9 16  2  0
  9  8  1  0
 10  9  1  0
 11 10  2  0
 12 13  1  0
 12 10  1  0
 13 15  2  0
 14 13  1  0
 15 16  1  0
 16  6  1  0
 17  1  1  0
 17 20  1  0
 18 23  2  0
 19 18  1  0
 20 19  2  0
 20 21  1  0
 21 22  2  0
 22 23  1  0
 24 19  1  0
 25 29  1  0
 25 24  1  0
 26 25  2  0
 27 26  1  0
 27 28  1  0
 28 29  2  0
  2 30  1  0
  3 31  1  0
  7 32  1  0
 12 33  1  0
 14 34  1  0
 14 35  1  0
 18 36  1  0
 22 37  1  0
 24 38  1  0
 24 39  1  0
 26 40  1  0
 28 41  1  0
M  ISO  8  30  14  31  14  32  14  33   9  36  14  37  14  38   8  39   8
M  ISO  2  40  14  41  14
M  END
>  <minimizedAffinity>  (1) 
-5.89749908

>  <minimizedRMSD>  (1) 
0.924420118

$$$$
