
     RDKit          3D

 34 37  0  0  0  0  0  0  0  0999 V2000
   44.3160   35.6950   44.5680 C   0  0  0  0  0  0  0  0  0  0  0  0
   44.9340   35.3290   43.3640 C   0  0  0  0  0  0  0  0  0  0  0  0
   45.8870   34.3130   43.4160 C   0  0  0  0  0  0  0  0  0  0  0  0
   46.1510   33.7470   44.6250 N   0  0  0  0  0  0  0  0  0  0  0  0
   45.5490   34.1130   45.7620 C   0  0  0  0  0  0  0  0  0  0  0  0
   44.6300   35.0870   45.7350 N   0  0  0  0  0  0  0  0  0  0  0  0
   44.6010   35.9830   42.0850 C   0  0  0  0  0  0  0  0  0  0  0  0
   43.3790   35.3370   41.4510 C   0  0  0  0  0  0  0  0  0  0  0  0
   43.4970   34.5240   40.3520 C   0  0  0  0  0  0  0  0  0  0  0  0
   41.7820   34.0270   40.0080 S   0  0  0  0  0  0  0  0  0  0  0  0
   41.1760   35.0750   41.5090 C   0  0  0  0  0  0  0  0  0  0  0  0
   42.1630   35.4960   41.8850 N   0  0  0  0  0  0  0  0  0  0  0  0
   46.7330   33.7610   41.9810 S   0  0  0  0  0  0  0  0  0  0  0  0
   48.3710   33.5420   42.0510 C   0  0  0  0  0  0  0  0  0  0  0  0
   49.5690   33.9660   42.6080 C   0  0  0  0  0  0  0  0  0  0  0  0
   50.7860   33.4560   42.3430 C   0  0  0  0  0  0  0  0  0  0  0  0
   50.8370   32.3880   41.4080 C   0  0  0  0  0  0  0  0  0  0  0  0
   49.0330   32.1790   40.9490 S   0  0  0  0  0  0  0  0  0  0  0  0
   51.8680   31.6080   40.8750 C   0  0  0  0  0  0  0  0  0  0  0  0
   52.1750   30.4040   41.4570 C   0  0  0  0  0  0  0  0  0  0  0  0
   53.2070   29.8770   40.7300 N   0  0  0  0  0  0  0  0  0  0  0  0
   53.4910   30.7710   39.7420 C   0  0  0  0  0  0  0  0  0  0  0  0
   52.6690   31.8450   39.8210 N   0  0  0  0  0  0  0  0  0  0  0  0
   43.5596   36.4936   44.5637 H   0  0  0  0  0  0  0  0  0  0  0  0
   45.8063   33.6187   46.7104 H   0  0  0  0  0  0  0  0  0  0  0  0
   44.3924   37.0475   42.2677 H   0  0  0  0  0  0  0  0  0  0  0  0
   45.4542   35.8725   41.3995 H   0  0  0  0  0  0  0  0  0  0  0  0
   44.4106   34.2406   39.8089 H   0  0  0  0  0  0  0  0  0  0  0  0
   40.1568   35.2243   41.8949 H   0  0  0  0  0  0  0  0  0  0  0  0
   49.5197   34.7934   43.3312 H   0  0  0  0  0  0  0  0  0  0  0  0
   51.6942   33.8461   42.8256 H   0  0  0  0  0  0  0  0  0  0  0  0
   51.6881   29.9523   42.3339 H   0  0  0  0  0  0  0  0  0  0  0  0
   54.2784   30.6391   38.9852 H   0  0  0  0  0  0  0  0  0  0  0  0
   52.6595   32.6695   39.2038 H   0  0  0  0  0  0  0  0  0  0  0  0
  1  6  2  0
  2  3  2  0
  2  1  1  0
  3  4  1  0
  4  5  2  0
  6  5  1  0
  7  2  1  0
  8 12  1  0
  8  7  1  0
  9  8  2  0
 10  9  1  0
 10 11  1  0
 11 12  2  0
 13 14  1  0
 13  3  1  0
 14 15  2  0
 16 15  1  0
 17 16  2  0
 18 17  1  0
 18 14  1  0
 19 17  1  0
 19 20  2  0
 21 20  1  0
 22 23  1  0
 22 21  2  0
 23 19  1  0
  1 24  1  0
  5 25  1  0
  7 26  1  0
  7 27  1  0
  9 28  1  0
 11 29  1  0
 15 30  1  0
 16 31  1  0
 20 32  1  0
 22 33  1  0
 23 34  1  0
M  ISO  8  24  14  25  14  26   8  27   8  28  14  29  14  30  14  31  14
M  ISO  3  32  14  33  14  34   9
M  END
>  <minimizedAffinity>  (1) 
-5.56302595

>  <minimizedRMSD>  (1) 
0.456253111

$$$$
