
     RDKit          3D

 40 44  0  0  0  0  0  0  0  0999 V2000
   46.9540   34.1270   41.8580 S   0  0  0  0  0  0  0  0  0  0  0  0
   44.3450   35.5750   44.5760 C   0  0  0  0  0  0  0  0  0  0  0  0
   44.9970   35.3730   43.3540 C   0  0  0  0  0  0  0  0  0  0  0  0
   46.0600   34.4650   43.3320 C   0  0  0  0  0  0  0  0  0  0  0  0
   46.3870   33.8420   44.4990 N   0  0  0  0  0  0  0  0  0  0  0  0
   45.7510   34.0520   45.6530 C   0  0  0  0  0  0  0  0  0  0  0  0
   44.7280   34.9210   45.6930 N   0  0  0  0  0  0  0  0  0  0  0  0
   44.5900   36.0810   42.1290 C   0  0  0  0  0  0  0  0  0  0  0  0
   43.4020   35.3850   41.4800 C   0  0  0  0  0  0  0  0  0  0  0  0
   43.5750   34.5610   40.3970 C   0  0  0  0  0  0  0  0  0  0  0  0
   41.8830   34.0030   40.0210 S   0  0  0  0  0  0  0  0  0  0  0  0
   41.2080   35.0420   41.4760 C   0  0  0  0  0  0  0  0  0  0  0  0
   42.1670   35.5030   41.8740 N   0  0  0  0  0  0  0  0  0  0  0  0
   48.5500   33.7070   41.9710 C   0  0  0  0  0  0  0  0  0  0  0  0
   49.7870   34.0260   42.5140 C   0  0  0  0  0  0  0  0  0  0  0  0
   50.9280   33.3390   42.3140 C   0  0  0  0  0  0  0  0  0  0  0  0
   50.8540   32.1950   41.4800 C   0  0  0  0  0  0  0  0  0  0  0  0
   49.0260   32.1870   41.0080 S   0  0  0  0  0  0  0  0  0  0  0  0
   51.7860   31.2860   41.0660 N   0  0  0  0  0  0  0  0  0  0  0  0
   52.2090   30.3260   41.9380 C   0  0  0  0  0  0  0  0  0  0  0  0
   53.1200   29.5220   41.3710 N   0  0  0  0  0  0  0  0  0  0  0  0
   53.3110   29.9460   40.1070 C   0  0  0  0  0  0  0  0  0  0  0  0
   54.0790   29.5910   39.0020 C   0  0  0  0  0  0  0  0  0  0  0  0
   54.0120   30.2750   37.8380 N   0  0  0  0  0  0  0  0  0  0  0  0
   53.1740   31.3420   37.7260 C   0  0  0  0  0  0  0  0  0  0  0  0
   52.4120   31.7090   38.7910 N   0  0  0  0  0  0  0  0  0  0  0  0
   52.4780   31.0360   39.9400 C   0  0  0  0  0  0  0  0  0  0  0  0
   54.9280   28.4570   39.2200 N   0  0  0  0  0  0  0  0  0  0  0  0
   43.5032   36.2812   44.6271 H   0  0  0  0  0  0  0  0  0  0  0  0
   46.0618   33.5182   46.5632 H   0  0  0  0  0  0  0  0  0  0  0  0
   44.3094   37.1136   42.3841 H   0  0  0  0  0  0  0  0  0  0  0  0
   45.4323   36.0804   41.4215 H   0  0  0  0  0  0  0  0  0  0  0  0
   44.5104   34.3002   39.8803 H   0  0  0  0  0  0  0  0  0  0  0  0
   40.1737   35.1611   41.8310 H   0  0  0  0  0  0  0  0  0  0  0  0
   49.8397   34.9137   43.1615 H   0  0  0  0  0  0  0  0  0  0  0  0
   51.8754   33.6517   42.7773 H   0  0  0  0  0  0  0  0  0  0  0  0
   51.8492   30.2246   42.9725 H   0  0  0  0  0  0  0  0  0  0  0  0
   53.1137   31.9028   36.7816 H   0  0  0  0  0  0  0  0  0  0  0  0
   55.5361   28.1157   38.4620 H   0  0  0  0  0  0  0  0  0  0  0  0
   54.9300   27.9834   40.1347 H   0  0  0  0  0  0  0  0  0  0  0  0
  1 14  1  0
  1  4  1  0
  2  7  2  0
  3  2  1  0
  4  3  2  0
  4  5  1  0
  5  6  2  0
  6  7  1  0
  8  3  1  0
  9 13  1  0
  9  8  1  0
 10  9  2  0
 11 10  1  0
 11 12  1  0
 12 13  2  0
 14 15  2  0
 16 15  1  0
 17 16  2  0
 18 17  1  0
 18 14  1  0
 19 17  1  0
 19 20  1  0
 21 20  2  0
 22 21  1  0
 23 28  1  0
 23 22  2  0
 24 23  1  0
 25 24  2  0
 25 26  1  0
 26 27  2  0
 27 22  1  0
 27 19  1  0
  2 29  1  0
  6 30  1  0
  8 31  1  0
  8 32  1  0
 10 33  1  0
 12 34  1  0
 15 35  1  0
 16 36  1  0
 20 37  1  0
 25 38  1  0
 28 39  1  0
 28 40  1  0
M  ISO  8  29  14  30  14  31   8  32   8  33  14  34  14  35  14  36  14
M  ISO  2  37  14  38  14
M  END
>  <minimizedAffinity>  (1) 
-5.65301418

>  <minimizedRMSD>  (1) 
0.284538984

$$$$
