
     RDKit          3D

 33 34  0  0  0  0  0  0  0  0999 V2000
   45.6090   35.0850   42.9130 C   0  0  0  0  0  0  0  0  0  0  0  0
   45.1020   34.5340   45.2710 C   0  0  0  0  0  0  0  0  0  0  0  0
   45.8880   34.2760   44.1200 C   0  0  0  0  0  0  0  0  0  0  0  0
   46.8590   33.2760   44.2320 C   0  0  0  0  0  0  0  0  0  0  0  0
   46.9940   32.6250   45.3980 N   0  0  0  0  0  0  0  0  0  0  0  0
   46.2270   32.8970   46.4790 C   0  0  0  0  0  0  0  0  0  0  0  0
   45.2720   33.8630   46.4110 N   0  0  0  0  0  0  0  0  0  0  0  0
   46.8350   35.1370   42.0460 C   0  0  0  0  0  0  0  0  0  0  0  0
   45.1950   36.4650   43.3080 C   0  0  0  0  0  0  0  0  0  0  0  0
   44.4460   34.4640   42.1700 C   0  0  0  0  0  0  0  0  0  0  0  0
   43.3360   35.2800   42.2850 O   0  0  0  0  0  0  0  0  0  0  0  0
   42.3920   35.3950   41.2830 C   0  0  0  0  0  0  0  0  0  0  0  0
   42.9180   35.0960   40.0330 C   0  0  0  0  0  0  0  0  0  0  0  0
   42.0890   35.1640   38.9120 C   0  0  0  0  0  0  0  0  0  0  0  0
   40.7640   35.5350   39.1190 C   0  0  0  0  0  0  0  0  0  0  0  0
   40.2140   35.8370   40.3490 C   0  0  0  0  0  0  0  0  0  0  0  0
   41.0760   35.7540   41.4220 C   0  0  0  0  0  0  0  0  0  0  0  0
   44.3267   35.3128   45.2224 H   0  0  0  0  0  0  0  0  0  0  0  0
   47.5034   33.0263   43.3762 H   0  0  0  0  0  0  0  0  0  0  0  0
   46.3760   32.3364   47.4136 H   0  0  0  0  0  0  0  0  0  0  0  0
   47.7321   35.1750   42.6814 H   0  0  0  0  0  0  0  0  0  0  0  0
   46.8733   34.2397   41.4109 H   0  0  0  0  0  0  0  0  0  0  0  0
   46.7972   36.0343   41.4109 H   0  0  0  0  0  0  0  0  0  0  0  0
   45.1722   36.5411   44.4051 H   0  0  0  0  0  0  0  0  0  0  0  0
   45.9143   37.1931   42.9049 H   0  0  0  0  0  0  0  0  0  0  0  0
   44.1937   36.6769   42.9049 H   0  0  0  0  0  0  0  0  0  0  0  0
   44.2213   33.4769   42.6002 H   0  0  0  0  0  0  0  0  0  0  0  0
   44.7086   34.3504   41.1079 H   0  0  0  0  0  0  0  0  0  0  0  0
   43.9747   34.8092   39.9276 H   0  0  0  0  0  0  0  0  0  0  0  0
   42.4680   34.9335   37.9054 H   0  0  0  0  0  0  0  0  0  0  0  0
   40.1068   35.5918   38.2387 H   0  0  0  0  0  0  0  0  0  0  0  0
   39.1586   36.1246   40.4651 H   0  0  0  0  0  0  0  0  0  0  0  0
   40.6935   35.9845   42.4273 H   0  0  0  0  0  0  0  0  0  0  0  0
  1  9  1  0
  1  3  1  0
  2  7  2  0
  3  4  2  0
  3  2  1  0
  4  5  1  0
  5  6  2  0
  7  6  1  0
  8  1  1  0
 10 11  1  0
 10  1  1  0
 12 17  1  0
 12 11  1  0
 13 12  2  0
 14 15  2  0
 14 13  1  0
 15 16  1  0
 16 17  2  0
  2 18  1  0
  4 19  1  0
  6 20  1  0
  8 21  1  0
  8 22  1  0
  8 23  1  0
  9 24  1  0
  9 25  1  0
  9 26  1  0
 10 27  1  0
 10 28  1  0
 13 29  1  0
 14 30  1  0
 15 31  1  0
 16 32  1  0
 17 33  1  0
M  ISO  8  18  14  19  14  20  14  21   8  22   8  23   8  24   8  25   8
M  ISO  8  26   8  27   8  28   8  29  14  30  14  31  14  32  14  33  14
M  END
>  <minimizedAffinity>  (1) 
-5.33387423

>  <minimizedRMSD>  (1) 
1.27502024

$$$$
