
     RDKit          3D

 34 36  0  0  0  0  0  0  0  0999 V2000
   44.3380   35.6780   44.6260 C   0  0  0  0  0  0  0  0  0  0  0  0
   44.9860   35.3330   43.4350 C   0  0  0  0  0  0  0  0  0  0  0  0
   45.9460   34.3270   43.4850 C   0  0  0  0  0  0  0  0  0  0  0  0
   46.1890   33.7460   44.6910 N   0  0  0  0  0  0  0  0  0  0  0  0
   45.5610   34.0880   45.8190 C   0  0  0  0  0  0  0  0  0  0  0  0
   44.6390   35.0500   45.7910 N   0  0  0  0  0  0  0  0  0  0  0  0
   44.6730   36.0070   42.1520 C   0  0  0  0  0  0  0  0  0  0  0  0
   43.4670   35.3710   41.4940 C   0  0  0  0  0  0  0  0  0  0  0  0
   43.6160   34.5700   40.3900 C   0  0  0  0  0  0  0  0  0  0  0  0
   41.9070   34.0640   39.9950 S   0  0  0  0  0  0  0  0  0  0  0  0
   41.2610   35.0940   41.4930 C   0  0  0  0  0  0  0  0  0  0  0  0
   42.2360   35.5140   41.8950 N   0  0  0  0  0  0  0  0  0  0  0  0
   46.8240   33.8120   42.0560 S   0  0  0  0  0  0  0  0  0  0  0  0
   48.4680   33.6330   42.1430 C   0  0  0  0  0  0  0  0  0  0  0  0
   49.6760   34.2310   42.4830 C   0  0  0  0  0  0  0  0  0  0  0  0
   50.8880   33.6610   42.3760 C   0  0  0  0  0  0  0  0  0  0  0  0
   50.9260   32.3350   41.8740 C   0  0  0  0  0  0  0  0  0  0  0  0
   49.1100   31.9730   41.5700 S   0  0  0  0  0  0  0  0  0  0  0  0
   51.9250   31.4330   41.6210 N   0  0  0  0  0  0  0  0  0  0  0  0
   52.5430   31.3300   40.3520 C   0  0  0  0  0  0  0  0  0  0  0  0
   52.0020   31.9150   39.3130 N   0  0  0  0  0  0  0  0  0  0  0  0
   53.7640   30.5640   40.2910 N   0  0  0  0  0  0  0  0  0  0  0  0
   52.5180   31.7930   38.4160 H   0  0  0  0  0  0  0  0  0  0  0  0
   43.5739   36.4693   44.6181 H   0  0  0  0  0  0  0  0  0  0  0  0
   45.8029   33.5796   46.7640 H   0  0  0  0  0  0  0  0  0  0  0  0
   44.4613   37.0692   42.3443 H   0  0  0  0  0  0  0  0  0  0  0  0
   45.5374   35.9060   41.4792 H   0  0  0  0  0  0  0  0  0  0  0  0
   44.5446   34.2975   39.8671 H   0  0  0  0  0  0  0  0  0  0  0  0
   40.2326   35.2352   41.8568 H   0  0  0  0  0  0  0  0  0  0  0  0
   49.6362   35.2588   42.8730 H   0  0  0  0  0  0  0  0  0  0  0  0
   51.8051   34.1961   42.6634 H   0  0  0  0  0  0  0  0  0  0  0  0
   52.2367   30.8092   42.3790 H   0  0  0  0  0  0  0  0  0  0  0  0
   54.2588   30.4541   39.3943 H   0  0  0  0  0  0  0  0  0  0  0  0
   54.1410   30.1270   41.1441 H   0  0  0  0  0  0  0  0  0  0  0  0
  1  6  2  0
  2  3  2  0
  2  1  1  0
  3  4  1  0
  4  5  2  0
  6  5  1  0
  7  2  1  0
  8 12  1  0
  8  7  1  0
  9  8  2  0
 10  9  1  0
 10 11  1  0
 11 12  2  0
 13 14  1  0
 13  3  1  0
 14 15  2  0
 16 15  1  0
 17 16  2  0
 18 17  1  0
 18 14  1  0
 19 17  1  0
 20 19  1  0
 21 20  2  0
 22 20  1  0
 23 21  1  0
  1 24  1  0
  5 25  1  0
  7 26  1  0
  7 27  1  0
  9 28  1  0
 11 29  1  0
 15 30  1  0
 16 31  1  0
 19 32  1  0
 22 33  1  0
 22 34  1  0
M  ISO  8  24  14  25  14  26   8  27   8  28  14  29  14  30  14  31  14
M  END
>  <minimizedAffinity>  (1) 
-5.66396189

>  <minimizedRMSD>  (1) 
0.491693079

$$$$
