
     RDKit          3D

 41 44  0  0  0  0  0  0  0  0999 V2000
   44.3450   35.5550   44.6030 C   0  0  0  0  0  0  0  0  0  0  0  0
   44.9990   35.3680   43.3730 C   0  0  0  0  0  0  0  0  0  0  0  0
   46.0710   34.4750   43.3400 C   0  0  0  0  0  0  0  0  0  0  0  0
   46.4100   33.8480   44.4970 N   0  0  0  0  0  0  0  0  0  0  0  0
   45.7700   34.0430   45.6510 C   0  0  0  0  0  0  0  0  0  0  0  0
   44.7390   34.8970   45.7040 N   0  0  0  0  0  0  0  0  0  0  0  0
   44.5780   36.0880   42.1550 C   0  0  0  0  0  0  0  0  0  0  0  0
   43.4020   35.3960   41.4970 C   0  0  0  0  0  0  0  0  0  0  0  0
   43.5900   34.5800   40.4090 C   0  0  0  0  0  0  0  0  0  0  0  0
   41.9000   34.0120   40.0180 S   0  0  0  0  0  0  0  0  0  0  0  0
   41.2170   35.0410   41.4800 C   0  0  0  0  0  0  0  0  0  0  0  0
   42.1700   35.5040   41.8850 N   0  0  0  0  0  0  0  0  0  0  0  0
   46.9680   34.1600   41.8580 S   0  0  0  0  0  0  0  0  0  0  0  0
   48.5580   33.7200   41.9690 C   0  0  0  0  0  0  0  0  0  0  0  0
   49.7990   34.0180   42.5190 C   0  0  0  0  0  0  0  0  0  0  0  0
   50.9350   33.3200   42.3080 C   0  0  0  0  0  0  0  0  0  0  0  0
   50.8430   32.1920   41.4510 C   0  0  0  0  0  0  0  0  0  0  0  0
   49.0200   32.2070   40.9770 S   0  0  0  0  0  0  0  0  0  0  0  0
   51.7640   31.2830   41.0180 N   0  0  0  0  0  0  0  0  0  0  0  0
   51.6430   29.9030   41.5150 C   0  0  0  0  0  0  0  0  0  0  0  0
   52.8040   29.7860   42.5120 C   0  0  0  0  0  0  0  0  0  0  0  0
   54.0020   29.8710   41.7240 N   0  0  0  0  0  0  0  0  0  0  0  0
   53.8040   30.2120   40.3510 C   0  0  0  0  0  0  0  0  0  0  0  0
   52.8970   31.3940   40.1190 C   0  0  0  0  0  0  0  0  0  0  0  0
   43.4963   36.2522   44.6640 H   0  0  0  0  0  0  0  0  0  0  0  0
   46.0876   33.5045   46.5561 H   0  0  0  0  0  0  0  0  0  0  0  0
   44.2869   37.1137   42.4255 H   0  0  0  0  0  0  0  0  0  0  0  0
   45.4192   36.1014   41.4463 H   0  0  0  0  0  0  0  0  0  0  0  0
   44.5308   34.3293   39.8971 H   0  0  0  0  0  0  0  0  0  0  0  0
   40.1809   35.1531   41.8321 H   0  0  0  0  0  0  0  0  0  0  0  0
   49.8606   34.8946   43.1806 H   0  0  0  0  0  0  0  0  0  0  0  0
   51.8862   33.6112   42.7775 H   0  0  0  0  0  0  0  0  0  0  0  0
   50.6760   29.7475   42.0157 H   0  0  0  0  0  0  0  0  0  0  0  0
   51.6853   29.1507   40.7136 H   0  0  0  0  0  0  0  0  0  0  0  0
   52.7664   30.6073   43.2428 H   0  0  0  0  0  0  0  0  0  0  0  0
   52.7578   28.8458   43.0810 H   0  0  0  0  0  0  0  0  0  0  0  0
   54.6106   30.5871   42.1456 H   0  0  0  0  0  0  0  0  0  0  0  0
   54.7853   30.4416   39.9102 H   0  0  0  0  0  0  0  0  0  0  0  0
   53.3112   29.3464   39.8842 H   0  0  0  0  0  0  0  0  0  0  0  0
   53.4429   32.3271   40.3223 H   0  0  0  0  0  0  0  0  0  0  0  0
   52.5519   31.4072   39.0746 H   0  0  0  0  0  0  0  0  0  0  0  0
  1  6  2  0
  2  1  1  0
  3  2  2  0
  3  4  1  0
  4  5  2  0
  5  6  1  0
  7  2  1  0
  8 12  1  0
  8  7  1  0
  9  8  2  0
 10  9  1  0
 10 11  1  0
 11 12  2  0
 13 14  1  0
 13  3  1  0
 14 15  2  0
 16 15  1  0
 17 16  2  0
 18 17  1  0
 18 14  1  0
 19 17  1  0
 19 20  1  0
 20 21  1  0
 22 21  1  0
 23 22  1  0
 24 23  1  0
 24 19  1  0
  1 25  1  0
  5 26  1  0
  7 27  1  0
  7 28  1  0
  9 29  1  0
 11 30  1  0
 15 31  1  0
 16 32  1  0
 20 33  1  0
 20 34  1  0
 21 35  1  0
 21 36  1  0
 22 37  1  0
 23 38  1  0
 23 39  1  0
 24 40  1  0
 24 41  1  0
M  ISO  8  25  14  26  14  27   8  28   8  29  14  30  14  31  14  32  14
M  ISO  8  33  13  34  13  35  13  36  13  37   5  38  13  39  13  40  13
M  ISO  1  41  13
M  END
>  <minimizedAffinity>  (1) 
-5.44295263

>  <minimizedRMSD>  (1) 
0.273869663

$$$$
