
     RDKit          3D

 35 38  0  0  0  0  0  0  0  0999 V2000
   44.3520   35.5830   44.5780 C   0  0  0  0  0  0  0  0  0  0  0  0
   45.0010   35.3560   43.3540 C   0  0  0  0  0  0  0  0  0  0  0  0
   46.0470   34.4380   43.3420 C   0  0  0  0  0  0  0  0  0  0  0  0
   46.3700   33.8220   44.5140 N   0  0  0  0  0  0  0  0  0  0  0  0
   45.7360   34.0540   45.6660 C   0  0  0  0  0  0  0  0  0  0  0  0
   44.7290   34.9320   45.7010 N   0  0  0  0  0  0  0  0  0  0  0  0
   44.6040   36.0570   42.1130 C   0  0  0  0  0  0  0  0  0  0  0  0
   43.4110   35.3680   41.4720 C   0  0  0  0  0  0  0  0  0  0  0  0
   43.5750   34.5360   40.3920 C   0  0  0  0  0  0  0  0  0  0  0  0
   41.8790   33.9850   40.0210 S   0  0  0  0  0  0  0  0  0  0  0  0
   41.2120   35.0440   41.4830 C   0  0  0  0  0  0  0  0  0  0  0  0
   42.1790   35.4980   41.8700 N   0  0  0  0  0  0  0  0  0  0  0  0
   46.9400   34.0700   41.8710 S   0  0  0  0  0  0  0  0  0  0  0  0
   48.5470   33.6870   41.9810 C   0  0  0  0  0  0  0  0  0  0  0  0
   49.7740   34.0280   42.5360 C   0  0  0  0  0  0  0  0  0  0  0  0
   50.9320   33.3740   42.3290 C   0  0  0  0  0  0  0  0  0  0  0  0
   50.8870   32.2510   41.4730 C   0  0  0  0  0  0  0  0  0  0  0  0
   49.0710   32.2050   40.9950 S   0  0  0  0  0  0  0  0  0  0  0  0
   51.8390   31.3360   41.0150 C   0  0  0  0  0  0  0  0  0  0  0  0
   52.1890   30.2130   41.7300 C   0  0  0  0  0  0  0  0  0  0  0  0
   53.1550   29.4290   41.0980 C   0  0  0  0  0  0  0  0  0  0  0  0
   53.7090   29.7200   39.9030 N   0  0  0  0  0  0  0  0  0  0  0  0
   53.3130   30.8380   39.2650 C   0  0  0  0  0  0  0  0  0  0  0  0
   52.3690   31.6520   39.8270 N   0  0  0  0  0  0  0  0  0  0  0  0
   43.5220   36.3034   44.6240 H   0  0  0  0  0  0  0  0  0  0  0  0
   46.0409   33.5254   46.5812 H   0  0  0  0  0  0  0  0  0  0  0  0
   44.3356   37.0961   42.3541 H   0  0  0  0  0  0  0  0  0  0  0  0
   45.4478   36.0376   41.4076 H   0  0  0  0  0  0  0  0  0  0  0  0
   44.5076   34.2667   39.8746 H   0  0  0  0  0  0  0  0  0  0  0  0
   40.1810   35.1737   41.8438 H   0  0  0  0  0  0  0  0  0  0  0  0
   49.8014   34.9050   43.1995 H   0  0  0  0  0  0  0  0  0  0  0  0
   51.8695   33.6987   42.8041 H   0  0  0  0  0  0  0  0  0  0  0  0
   51.7495   29.9581   42.7057 H   0  0  0  0  0  0  0  0  0  0  0  0
   53.4868   28.5127   41.6082 H   0  0  0  0  0  0  0  0  0  0  0  0
   53.7501   31.0969   38.2893 H   0  0  0  0  0  0  0  0  0  0  0  0
  1  6  2  0
  2  1  1  0
  3  2  2  0
  3  4  1  0
  4  5  2  0
  5  6  1  0
  7  2  1  0
  8 12  1  0
  8  7  1  0
  9  8  2  0
 10  9  1  0
 10 11  1  0
 11 12  2  0
 13 14  1  0
 13  3  1  0
 14 15  2  0
 16 15  1  0
 17 16  2  0
 18 17  1  0
 18 14  1  0
 19 17  1  0
 19 20  2  0
 21 20  1  0
 22 21  2  0
 23 24  2  0
 23 22  1  0
 24 19  1  0
  1 25  1  0
  5 26  1  0
  7 27  1  0
  7 28  1  0
  9 29  1  0
 11 30  1  0
 15 31  1  0
 16 32  1  0
 20 33  1  0
 21 34  1  0
 23 35  1  0
M  ISO  8  25  14  26  14  27   8  28   8  29  14  30  14  31  14  32  14
M  ISO  3  33  14  34  14  35  14
M  END
>  <minimizedAffinity>  (1) 
-5.32855749

>  <minimizedRMSD>  (1) 
0.11422132

$$$$
