
     RDKit          3D

 33 34  0  0  0  0  0  0  0  0999 V2000
   45.6330   35.0800   42.9220 C   0  0  0  0  0  0  0  0  0  0  0  0
   45.0860   34.5470   45.2990 C   0  0  0  0  0  0  0  0  0  0  0  0
   45.8930   34.2810   44.1540 C   0  0  0  0  0  0  0  0  0  0  0  0
   46.8660   33.2870   44.2780 C   0  0  0  0  0  0  0  0  0  0  0  0
   46.9940   32.6330   45.4620 N   0  0  0  0  0  0  0  0  0  0  0  0
   46.2140   32.9110   46.5160 C   0  0  0  0  0  0  0  0  0  0  0  0
   45.2620   33.8670   46.4330 N   0  0  0  0  0  0  0  0  0  0  0  0
   46.8690   35.1580   42.1020 C   0  0  0  0  0  0  0  0  0  0  0  0
   45.1530   36.4370   43.3170 C   0  0  0  0  0  0  0  0  0  0  0  0
   44.4860   34.4140   42.1710 C   0  0  0  0  0  0  0  0  0  0  0  0
   43.3940   35.2330   42.1580 O   0  0  0  0  0  0  0  0  0  0  0  0
   42.4190   35.3500   41.1840 C   0  0  0  0  0  0  0  0  0  0  0  0
   41.1210   35.7160   41.4400 C   0  0  0  0  0  0  0  0  0  0  0  0
   40.2040   35.8100   40.4010 C   0  0  0  0  0  0  0  0  0  0  0  0
   40.5570   35.5430   39.0950 C   0  0  0  0  0  0  0  0  0  0  0  0
   41.8620   35.1770   38.8480 C   0  0  0  0  0  0  0  0  0  0  0  0
   42.7880   35.0790   39.8700 C   0  0  0  0  0  0  0  0  0  0  0  0
   44.3082   35.3230   45.2465 H   0  0  0  0  0  0  0  0  0  0  0  0
   47.5195   33.0371   43.4292 H   0  0  0  0  0  0  0  0  0  0  0  0
   46.3497   32.3566   47.4563 H   0  0  0  0  0  0  0  0  0  0  0  0
   47.7455   35.2133   42.7643 H   0  0  0  0  0  0  0  0  0  0  0  0
   46.9450   34.2629   41.4672 H   0  0  0  0  0  0  0  0  0  0  0  0
   46.8318   36.0556   41.4672 H   0  0  0  0  0  0  0  0  0  0  0  0
   45.1266   36.5116   44.4141 H   0  0  0  0  0  0  0  0  0  0  0  0
   45.8361   37.1992   42.9140 H   0  0  0  0  0  0  0  0  0  0  0  0
   44.1426   36.6002   42.9140 H   0  0  0  0  0  0  0  0  0  0  0  0
   44.7991   34.2091   41.1366 H   0  0  0  0  0  0  0  0  0  0  0  0
   44.2236   33.4730   42.6767 H   0  0  0  0  0  0  0  0  0  0  0  0
   40.8062   35.9355   42.4709 H   0  0  0  0  0  0  0  0  0  0  0  0
   39.1685   36.1053   40.6260 H   0  0  0  0  0  0  0  0  0  0  0  0
   39.8228   35.6195   38.2795 H   0  0  0  0  0  0  0  0  0  0  0  0
   42.1738   34.9582   37.8161 H   0  0  0  0  0  0  0  0  0  0  0  0
   43.8233   34.7848   39.6428 H   0  0  0  0  0  0  0  0  0  0  0  0
  1  9  1  0
  1  3  1  0
  2  7  2  0
  3  4  2  0
  3  2  1  0
  4  5  1  0
  5  6  2  0
  7  6  1  0
  8  1  1  0
 10  1  1  0
 11 10  1  0
 12 13  2  0
 12 11  1  0
 14 13  1  0
 15 14  2  0
 16 15  1  0
 16 17  2  0
 17 12  1  0
  2 18  1  0
  4 19  1  0
  6 20  1  0
  8 21  1  0
  8 22  1  0
  8 23  1  0
  9 24  1  0
  9 25  1  0
  9 26  1  0
 10 27  1  0
 10 28  1  0
 13 29  1  0
 14 30  1  0
 15 31  1  0
 16 32  1  0
 17 33  1  0
M  ISO  8  18  14  19  14  20  14  21   8  22   8  23   8  24   8  25   8
M  ISO  8  26   8  27   8  28   8  29  14  30  14  31  14  32  14  33  14
M  END
>  <minimizedAffinity>  (1) 
-5.31574297

>  <minimizedRMSD>  (1) 
1.38329124

$$$$
