
     RDKit          3D

 33 36  0  0  0  0  0  0  0  0999 V2000
   44.3170   35.6850   44.6200 C   0  0  0  0  0  0  0  0  0  0  0  0
   44.9450   35.3600   43.4260 C   0  0  0  0  0  0  0  0  0  0  0  0
   45.9200   34.3600   43.4420 C   0  0  0  0  0  0  0  0  0  0  0  0
   46.1920   33.7660   44.6410 N   0  0  0  0  0  0  0  0  0  0  0  0
   45.5750   34.0950   45.7760 C   0  0  0  0  0  0  0  0  0  0  0  0
   44.6410   35.0510   45.7680 N   0  0  0  0  0  0  0  0  0  0  0  0
   44.6030   36.0450   42.1550 C   0  0  0  0  0  0  0  0  0  0  0  0
   43.3970   35.4030   41.5070 C   0  0  0  0  0  0  0  0  0  0  0  0
   43.5460   34.6290   40.3910 C   0  0  0  0  0  0  0  0  0  0  0  0
   41.8300   34.1040   40.0090 S   0  0  0  0  0  0  0  0  0  0  0  0
   41.2030   35.0860   41.5190 C   0  0  0  0  0  0  0  0  0  0  0  0
   42.1740   35.5130   41.9160 N   0  0  0  0  0  0  0  0  0  0  0  0
   46.7850   33.8600   41.9950 S   0  0  0  0  0  0  0  0  0  0  0  0
   48.4150   33.6040   42.0780 C   0  0  0  0  0  0  0  0  0  0  0  0
   49.6240   34.0980   42.5520 C   0  0  0  0  0  0  0  0  0  0  0  0
   50.8370   33.4960   42.3550 C   0  0  0  0  0  0  0  0  0  0  0  0
   50.8290   32.2980   41.6220 C   0  0  0  0  0  0  0  0  0  0  0  0
   49.0020   32.0630   41.2180 S   0  0  0  0  0  0  0  0  0  0  0  0
   51.8480   31.4140   41.2240 N   0  0  0  0  0  0  0  0  0  0  0  0
   52.1010   30.2390   41.8290 C   0  0  0  0  0  0  0  0  0  0  0  0
   53.1480   29.6690   41.1700 N   0  0  0  0  0  0  0  0  0  0  0  0
   53.5300   30.4890   40.1750 C   0  0  0  0  0  0  0  0  0  0  0  0
   52.7030   31.5710   40.2280 N   0  0  0  0  0  0  0  0  0  0  0  0
   43.5455   36.4690   44.6318 H   0  0  0  0  0  0  0  0  0  0  0  0
   45.8333   33.5823   46.7143 H   0  0  0  0  0  0  0  0  0  0  0  0
   44.3806   37.1019   42.3634 H   0  0  0  0  0  0  0  0  0  0  0  0
   45.4584   35.9620   41.4684 H   0  0  0  0  0  0  0  0  0  0  0  0
   44.4718   34.3805   39.8515 H   0  0  0  0  0  0  0  0  0  0  0  0
   40.1781   35.2051   41.9003 H   0  0  0  0  0  0  0  0  0  0  0  0
   49.6048   35.0370   43.1246 H   0  0  0  0  0  0  0  0  0  0  0  0
   51.7687   33.9274   42.7497 H   0  0  0  0  0  0  0  0  0  0  0  0
   51.5641   29.8185   42.6921 H   0  0  0  0  0  0  0  0  0  0  0  0
   54.3483   30.3199   39.4596 H   0  0  0  0  0  0  0  0  0  0  0  0
  1  6  2  0
  2  3  2  0
  2  1  1  0
  3  4  1  0
  4  5  2  0
  6  5  1  0
  7  2  1  0
  8 12  1  0
  8  7  1  0
  9  8  2  0
 10  9  1  0
 10 11  1  0
 11 12  2  0
 13 14  1  0
 13  3  1  0
 14 15  2  0
 16 15  1  0
 17 16  2  0
 18 17  1  0
 18 14  1  0
 19 17  1  0
 19 20  1  0
 21 20  2  0
 22 23  2  0
 22 21  1  0
 23 19  1  0
  1 24  1  0
  5 25  1  0
  7 26  1  0
  7 27  1  0
  9 28  1  0
 11 29  1  0
 15 30  1  0
 16 31  1  0
 20 32  1  0
 22 33  1  0
M  ISO  8  24  14  25  14  26   8  27   8  28  14  29  14  30  14  31  14
M  ISO  2  32  14  33  14
M  END
>  <minimizedAffinity>  (1) 
-5.27054739

>  <minimizedRMSD>  (1) 
0.469774157

$$$$
