
     RDKit          3D

 34 37  0  0  0  0  0  0  0  0999 V2000
   44.3360   35.6120   44.5890 C   0  0  0  0  0  0  0  0  0  0  0  0
   44.9790   35.3650   43.3610 C   0  0  0  0  0  0  0  0  0  0  0  0
   46.0120   34.4280   43.3610 C   0  0  0  0  0  0  0  0  0  0  0  0
   46.3220   33.8220   44.5400 N   0  0  0  0  0  0  0  0  0  0  0  0
   45.6940   34.0760   45.6920 C   0  0  0  0  0  0  0  0  0  0  0  0
   44.7040   34.9680   45.7180 N   0  0  0  0  0  0  0  0  0  0  0  0
   44.5840   36.0620   42.1210 C   0  0  0  0  0  0  0  0  0  0  0  0
   43.3960   35.3820   41.4800 C   0  0  0  0  0  0  0  0  0  0  0  0
   43.5540   34.5630   40.3920 C   0  0  0  0  0  0  0  0  0  0  0  0
   41.8580   34.0090   40.0160 S   0  0  0  0  0  0  0  0  0  0  0  0
   41.1940   35.0490   41.4940 C   0  0  0  0  0  0  0  0  0  0  0  0
   42.1650   35.5030   41.8830 N   0  0  0  0  0  0  0  0  0  0  0  0
   46.8930   34.0320   41.8990 S   0  0  0  0  0  0  0  0  0  0  0  0
   48.5060   33.6830   41.9930 C   0  0  0  0  0  0  0  0  0  0  0  0
   49.7190   34.0540   42.5620 C   0  0  0  0  0  0  0  0  0  0  0  0
   50.9180   33.4470   42.3470 C   0  0  0  0  0  0  0  0  0  0  0  0
   50.8930   32.3540   41.4690 C   0  0  0  0  0  0  0  0  0  0  0  0
   49.0840   32.2400   40.9730 S   0  0  0  0  0  0  0  0  0  0  0  0
   51.8890   31.4890   41.0010 C   0  0  0  0  0  0  0  0  0  0  0  0
   52.7550   31.4500   40.0240 C   0  0  0  0  0  0  0  0  0  0  0  0
   53.6050   30.3870   39.8850 C   0  0  0  0  0  0  0  0  0  0  0  0
   53.4780   29.3330   40.8740 C   0  0  0  0  0  0  0  0  0  0  0  0
   52.1130   29.9960   41.9320 S   0  0  0  0  0  0  0  0  0  0  0  0
   43.5167   36.3448   44.6299 H   0  0  0  0  0  0  0  0  0  0  0  0
   45.9921   33.5525   46.6124 H   0  0  0  0  0  0  0  0  0  0  0  0
   44.3185   37.1022   42.3606 H   0  0  0  0  0  0  0  0  0  0  0  0
   45.4285   36.0357   41.4167 H   0  0  0  0  0  0  0  0  0  0  0  0
   44.4855   34.3014   39.8686 H   0  0  0  0  0  0  0  0  0  0  0  0
   40.1643   35.1712   41.8611 H   0  0  0  0  0  0  0  0  0  0  0  0
   49.7088   34.9147   43.2469 H   0  0  0  0  0  0  0  0  0  0  0  0
   51.8447   33.7908   42.8297 H   0  0  0  0  0  0  0  0  0  0  0  0
   52.8014   32.2811   39.3049 H   0  0  0  0  0  0  0  0  0  0  0  0
   54.3423   30.3344   39.0703 H   0  0  0  0  0  0  0  0  0  0  0  0
   54.0415   28.3931   40.9691 H   0  0  0  0  0  0  0  0  0  0  0  0
  1  6  2  0
  2  1  1  0
  3  2  2  0
  3  4  1  0
  4  5  2  0
  5  6  1  0
  7  2  1  0
  8 12  1  0
  8  7  1  0
  9  8  2  0
 10  9  1  0
 10 11  1  0
 11 12  2  0
 13 14  1  0
 13  3  1  0
 14 15  2  0
 16 15  1  0
 17 16  2  0
 18 17  1  0
 18 14  1  0
 19 17  1  0
 19 23  1  0
 20 19  2  0
 21 20  1  0
 21 22  2  0
 22 23  1  0
  1 24  1  0
  5 25  1  0
  7 26  1  0
  7 27  1  0
  9 28  1  0
 11 29  1  0
 15 30  1  0
 16 31  1  0
 20 32  1  0
 21 33  1  0
 22 34  1  0
M  ISO  8  24  14  25  14  26   8  27   8  28  14  29  14  30  14  31  14
M  ISO  3  32  14  33  14  34  14
M  END
>  <minimizedAffinity>  (1) 
-5.26469231

>  <minimizedRMSD>  (1) 
0.0422743075

$$$$
