
     RDKit          3D

 42 45  0  0  0  0  0  0  0  0999 V2000
   44.3910   35.4880   44.6500 C   0  0  0  0  0  0  0  0  0  0  0  0
   45.0510   35.3400   43.4200 C   0  0  0  0  0  0  0  0  0  0  0  0
   46.1310   34.4670   43.3660 C   0  0  0  0  0  0  0  0  0  0  0  0
   46.4720   33.8160   44.5110 N   0  0  0  0  0  0  0  0  0  0  0  0
   45.8300   33.9720   45.6710 C   0  0  0  0  0  0  0  0  0  0  0  0
   44.7990   34.7980   45.7470 N   0  0  0  0  0  0  0  0  0  0  0  0
   44.6180   36.0870   42.2150 C   0  0  0  0  0  0  0  0  0  0  0  0
   43.4510   35.3920   41.5420 C   0  0  0  0  0  0  0  0  0  0  0  0
   43.6620   34.5600   40.4710 C   0  0  0  0  0  0  0  0  0  0  0  0
   41.9860   33.9870   40.0360 S   0  0  0  0  0  0  0  0  0  0  0  0
   41.2610   35.0490   41.4790 C   0  0  0  0  0  0  0  0  0  0  0  0
   42.2130   35.5140   41.9000 N   0  0  0  0  0  0  0  0  0  0  0  0
   47.0320   34.2030   41.8830 S   0  0  0  0  0  0  0  0  0  0  0  0
   48.6190   33.7430   41.9810 C   0  0  0  0  0  0  0  0  0  0  0  0
   49.8520   34.0330   42.5510 C   0  0  0  0  0  0  0  0  0  0  0  0
   50.9940   33.3060   42.3050 C   0  0  0  0  0  0  0  0  0  0  0  0
   50.8850   32.2090   41.4240 C   0  0  0  0  0  0  0  0  0  0  0  0
   49.0700   32.2590   40.9590 S   0  0  0  0  0  0  0  0  0  0  0  0
   51.7840   31.3010   40.9700 N   0  0  0  0  0  0  0  0  0  0  0  0
   52.4140   31.4720   39.6790 C   0  0  0  0  0  0  0  0  0  0  0  0
   53.0420   30.1940   39.1810 C   0  0  0  0  0  0  0  0  0  0  0  0
   53.8310   29.4750   40.2160 C   0  0  0  0  0  0  0  0  0  0  0  0
   53.4350   29.7110   41.6300 C   0  0  0  0  0  0  0  0  0  0  0  0
   52.0440   30.2030   41.8450 C   0  0  0  0  0  0  0  0  0  0  0  0
   43.5325   36.1714   44.7267 H   0  0  0  0  0  0  0  0  0  0  0  0
   46.1572   33.4153   46.5615 H   0  0  0  0  0  0  0  0  0  0  0  0
   44.3122   37.1016   42.5101 H   0  0  0  0  0  0  0  0  0  0  0  0
   45.4583   36.1315   41.5066 H   0  0  0  0  0  0  0  0  0  0  0  0
   44.6161   34.3003   39.9891 H   0  0  0  0  0  0  0  0  0  0  0  0
   40.2174   35.1711   41.8044 H   0  0  0  0  0  0  0  0  0  0  0  0
   49.9192   34.8907   43.2365 H   0  0  0  0  0  0  0  0  0  0  0  0
   51.9527   33.5691   42.7758 H   0  0  0  0  0  0  0  0  0  0  0  0
   51.6544   31.8000   38.9542 H   0  0  0  0  0  0  0  0  0  0  0  0
   53.2115   32.2217   39.7876 H   0  0  0  0  0  0  0  0  0  0  0  0
   52.2410   29.5272   38.8290 H   0  0  0  0  0  0  0  0  0  0  0  0
   53.7405   30.4700   38.3773 H   0  0  0  0  0  0  0  0  0  0  0  0
   53.7394   28.3969   40.0180 H   0  0  0  0  0  0  0  0  0  0  0  0
   54.8547   29.8680   40.1292 H   0  0  0  0  0  0  0  0  0  0  0  0
   53.5437   28.7607   42.1732 H   0  0  0  0  0  0  0  0  0  0  0  0
   54.0934   30.5141   41.9926 H   0  0  0  0  0  0  0  0  0  0  0  0
   51.9289   30.5312   42.8886 H   0  0  0  0  0  0  0  0  0  0  0  0
   51.3325   29.3911   41.6339 H   0  0  0  0  0  0  0  0  0  0  0  0
  1  6  2  0
  2  1  1  0
  3  2  2  0
  3  4  1  0
  4  5  2  0
  5  6  1  0
  7  2  1  0
  8 12  1  0
  8  7  1  0
  9  8  2  0
 10  9  1  0
 10 11  1  0
 11 12  2  0
 13 14  1  0
 13  3  1  0
 14 15  2  0
 16 15  1  0
 17 16  2  0
 18 17  1  0
 18 14  1  0
 19 17  1  0
 19 24  1  0
 20 19  1  0
 21 20  1  0
 21 22  1  0
 22 23  1  0
 23 24  1  0
  1 25  1  0
  5 26  1  0
  7 27  1  0
  7 28  1  0
  9 29  1  0
 11 30  1  0
 15 31  1  0
 16 32  1  0
 20 33  1  0
 20 34  1  0
 21 35  1  0
 21 36  1  0
 22 37  1  0
 22 38  1  0
 23 39  1  0
 23 40  1  0
 24 41  1  0
 24 42  1  0
M  ISO  8  25  14  26  14  27   8  28   8  29  14  30  14  31  14  32  14
M  ISO  8  33  13  34  13  35  13  36  13  37  13  38  13  39  13  40  13
M  ISO  2  41  13  42  13
M  END
>  <minimizedAffinity>  (1) 
-5.26580429

>  <minimizedRMSD>  (1) 
0.192946419

$$$$
