
     RDKit          3D

 34 36  0  0  0  0  0  0  0  0999 V2000
   45.4450   35.1870   42.9620 C   0  0  0  0  0  0  0  0  0  0  0  0
   44.9770   34.6470   45.3540 C   0  0  0  0  0  0  0  0  0  0  0  0
   45.7440   34.3840   44.1820 C   0  0  0  0  0  0  0  0  0  0  0  0
   46.7300   33.3800   44.2620 C   0  0  0  0  0  0  0  0  0  0  0  0
   46.8920   32.7290   45.4360 N   0  0  0  0  0  0  0  0  0  0  0  0
   46.1520   33.0030   46.5190 C   0  0  0  0  0  0  0  0  0  0  0  0
   45.1940   33.9600   46.4840 N   0  0  0  0  0  0  0  0  0  0  0  0
   46.5460   35.0390   41.9720 C   0  0  0  0  0  0  0  0  0  0  0  0
   45.2480   36.6120   43.3620 C   0  0  0  0  0  0  0  0  0  0  0  0
   44.1150   34.6990   42.4000 C   0  0  0  0  0  0  0  0  0  0  0  0
   43.6400   35.5840   41.4790 O   0  0  0  0  0  0  0  0  0  0  0  0
   41.5890   33.3420   38.0910 N   0  0  0  0  0  0  0  0  0  0  0  0
   42.8980   33.0440   38.1480 C   0  0  0  0  0  0  0  0  0  0  0  0
   43.4640   33.7230   39.1550 N   0  0  0  0  0  0  0  0  0  0  0  0
   42.5310   34.4560   39.7510 C   0  0  0  0  0  0  0  0  0  0  0  0
   42.4420   35.3560   40.8180 C   0  0  0  0  0  0  0  0  0  0  0  0
   41.2650   35.9190   41.1290 N   0  0  0  0  0  0  0  0  0  0  0  0
   40.1270   35.6680   40.4590 C   0  0  0  0  0  0  0  0  0  0  0  0
   40.1480   34.8070   39.4160 N   0  0  0  0  0  0  0  0  0  0  0  0
   41.3250   34.2240   39.0820 C   0  0  0  0  0  0  0  0  0  0  0  0
   44.1977   35.4230   45.3308 H   0  0  0  0  0  0  0  0  0  0  0  0
   47.3530   33.1319   43.3900 H   0  0  0  0  0  0  0  0  0  0  0  0
   46.3250   32.4428   47.4497 H   0  0  0  0  0  0  0  0  0  0  0  0
   47.5011   34.9106   42.5023 H   0  0  0  0  0  0  0  0  0  0  0  0
   46.3557   34.1584   41.3409 H   0  0  0  0  0  0  0  0  0  0  0  0
   46.5950   35.9386   41.3409 H   0  0  0  0  0  0  0  0  0  0  0  0
   45.2377   36.6867   44.4594 H   0  0  0  0  0  0  0  0  0  0  0  0
   46.0703   37.2225   42.9606 H   0  0  0  0  0  0  0  0  0  0  0  0
   44.2909   36.9765   42.9606 H   0  0  0  0  0  0  0  0  0  0  0  0
   44.2604   33.7194   41.9213 H   0  0  0  0  0  0  0  0  0  0  0  0
   43.3887   34.6115   43.2215 H   0  0  0  0  0  0  0  0  0  0  0  0
   40.9091   32.9665   37.4145 H   0  0  0  0  0  0  0  0  0  0  0  0
   43.4227   32.3512   37.4737 H   0  0  0  0  0  0  0  0  0  0  0  0
   39.1880   36.1579   40.7560 H   0  0  0  0  0  0  0  0  0  0  0  0
  1  9  1  0
  1  3  1  0
  2  7  2  0
  3  4  2  0
  3  2  1  0
  4  5  1  0
  5  6  2  0
  7  6  1  0
  8  1  1  0
 10  1  1  0
 11 10  1  0
 12 13  1  0
 12 20  1  0
 13 14  2  0
 14 15  1  0
 15 16  2  0
 16 17  1  0
 16 11  1  0
 18 17  2  0
 19 18  1  0
 20 19  2  0
 20 15  1  0
  2 21  1  0
  4 22  1  0
  6 23  1  0
  8 24  1  0
  8 25  1  0
  8 26  1  0
  9 27  1  0
  9 28  1  0
  9 29  1  0
 10 30  1  0
 10 31  1  0
 12 32  1  0
 13 33  1  0
 18 34  1  0
M  ISO  8  21  14  22  14  23  14  24   8  25   8  26   8  27   8  28   8
M  ISO  6  29   8  30   8  31   8  32   9  33  14  34  14
M  END
>  <minimizedAffinity>  (1) 
-5.24806404

>  <minimizedRMSD>  (1) 
1.27618027

$$$$
