
     RDKit          3D

 34 37  0  0  0  0  0  0  0  0999 V2000
   44.3500   35.5960   44.5910 C   0  0  0  0  0  0  0  0  0  0  0  0
   44.9930   35.3560   43.3620 C   0  0  0  0  0  0  0  0  0  0  0  0
   46.0260   34.4240   43.3560 C   0  0  0  0  0  0  0  0  0  0  0  0
   46.3440   33.8100   44.5320 N   0  0  0  0  0  0  0  0  0  0  0  0
   45.7190   34.0540   45.6860 C   0  0  0  0  0  0  0  0  0  0  0  0
   44.7210   34.9490   45.7170 N   0  0  0  0  0  0  0  0  0  0  0  0
   44.5980   36.0560   42.1270 C   0  0  0  0  0  0  0  0  0  0  0  0
   43.4070   35.3710   41.4790 C   0  0  0  0  0  0  0  0  0  0  0  0
   43.5690   34.5520   40.3910 C   0  0  0  0  0  0  0  0  0  0  0  0
   41.8730   34.0010   40.0180 S   0  0  0  0  0  0  0  0  0  0  0  0
   41.2090   35.0410   41.4910 C   0  0  0  0  0  0  0  0  0  0  0  0
   42.1760   35.4980   41.8880 N   0  0  0  0  0  0  0  0  0  0  0  0
   46.9080   34.0360   41.8890 S   0  0  0  0  0  0  0  0  0  0  0  0
   48.5220   33.6850   41.9940 C   0  0  0  0  0  0  0  0  0  0  0  0
   49.7410   34.0330   42.5640 C   0  0  0  0  0  0  0  0  0  0  0  0
   50.9150   33.4140   42.3340 C   0  0  0  0  0  0  0  0  0  0  0  0
   50.8970   32.3210   41.4340 C   0  0  0  0  0  0  0  0  0  0  0  0
   49.0890   32.2410   40.9460 S   0  0  0  0  0  0  0  0  0  0  0  0
   51.8540   31.4460   40.9430 C   0  0  0  0  0  0  0  0  0  0  0  0
   52.5650   31.4630   39.7840 C   0  0  0  0  0  0  0  0  0  0  0  0
   53.3820   30.3250   39.8320 C   0  0  0  0  0  0  0  0  0  0  0  0
   53.1400   29.6780   40.9940 N   0  0  0  0  0  0  0  0  0  0  0  0
   52.2190   30.3670   41.6470 N   0  0  0  0  0  0  0  0  0  0  0  0
   43.5281   36.3258   44.6352 H   0  0  0  0  0  0  0  0  0  0  0  0
   46.0198   33.5259   46.6028 H   0  0  0  0  0  0  0  0  0  0  0  0
   44.3287   37.0943   42.3708 H   0  0  0  0  0  0  0  0  0  0  0  0
   45.4433   36.0361   41.4234 H   0  0  0  0  0  0  0  0  0  0  0  0
   44.5007   34.2902   39.8682 H   0  0  0  0  0  0  0  0  0  0  0  0
   40.1774   35.1626   41.8529 H   0  0  0  0  0  0  0  0  0  0  0  0
   49.7475   34.8843   43.2605 H   0  0  0  0  0  0  0  0  0  0  0  0
   51.8443   33.7423   42.8225 H   0  0  0  0  0  0  0  0  0  0  0  0
   52.5106   32.2111   38.9794 H   0  0  0  0  0  0  0  0  0  0  0  0
   54.0973   30.0121   39.0571 H   0  0  0  0  0  0  0  0  0  0  0  0
   53.5902   28.8081   41.3124 H   0  0  0  0  0  0  0  0  0  0  0  0
  1  6  2  0
  2  1  1  0
  3  2  2  0
  3  4  1  0
  4  5  2  0
  5  6  1  0
  7  2  1  0
  8 12  1  0
  8  7  1  0
  9  8  2  0
 10  9  1  0
 10 11  1  0
 11 12  2  0
 13 14  1  0
 13  3  1  0
 14 15  2  0
 16 15  1  0
 17 16  2  0
 18 17  1  0
 18 14  1  0
 19 17  1  0
 19 23  2  0
 20 21  2  0
 20 19  1  0
 21 22  1  0
 22 23  1  0
  1 24  1  0
  5 25  1  0
  7 26  1  0
  7 27  1  0
  9 28  1  0
 11 29  1  0
 15 30  1  0
 16 31  1  0
 20 32  1  0
 21 33  1  0
 22 34  1  0
M  ISO  8  24  14  25  14  26   8  27   8  28  14  29  14  30  14  31  14
M  ISO  3  32  14  33  14  34   9
M  END
>  <minimizedAffinity>  (1) 
-5.25333548

>  <minimizedRMSD>  (1) 
0.142223492

$$$$
