
     RDKit          3D

 34 37  0  0  0  0  0  0  0  0999 V2000
   44.3240   35.5980   44.5910 C   0  0  0  0  0  0  0  0  0  0  0  0
   44.9740   35.3890   43.3790 C   0  0  0  0  0  0  0  0  0  0  0  0
   46.0360   34.4750   43.3580 C   0  0  0  0  0  0  0  0  0  0  0  0
   46.3590   33.8540   44.5260 N   0  0  0  0  0  0  0  0  0  0  0  0
   45.7190   34.0720   45.6770 C   0  0  0  0  0  0  0  0  0  0  0  0
   44.7040   34.9420   45.7130 N   0  0  0  0  0  0  0  0  0  0  0  0
   44.5710   36.0960   42.1540 C   0  0  0  0  0  0  0  0  0  0  0  0
   43.3920   35.4080   41.4940 C   0  0  0  0  0  0  0  0  0  0  0  0
   43.5660   34.5980   40.4020 C   0  0  0  0  0  0  0  0  0  0  0  0
   41.8720   34.0410   40.0160 S   0  0  0  0  0  0  0  0  0  0  0  0
   41.1980   35.0610   41.4850 C   0  0  0  0  0  0  0  0  0  0  0  0
   42.1570   35.5100   41.8770 N   0  0  0  0  0  0  0  0  0  0  0  0
   46.9340   34.1250   41.8900 S   0  0  0  0  0  0  0  0  0  0  0  0
   48.5380   33.7430   41.9990 C   0  0  0  0  0  0  0  0  0  0  0  0
   49.7630   34.1340   42.5300 C   0  0  0  0  0  0  0  0  0  0  0  0
   50.9400   33.4560   42.3380 C   0  0  0  0  0  0  0  0  0  0  0  0
   50.8730   32.2930   41.5460 C   0  0  0  0  0  0  0  0  0  0  0  0
   49.0480   32.2070   41.0840 S   0  0  0  0  0  0  0  0  0  0  0  0
   51.8350   31.3800   41.1480 N   0  0  0  0  0  0  0  0  0  0  0  0
   52.0820   30.2460   41.7860 C   0  0  0  0  0  0  0  0  0  0  0  0
   53.1080   29.6030   41.0860 C   0  0  0  0  0  0  0  0  0  0  0  0
   53.4530   30.3900   40.0270 N   0  0  0  0  0  0  0  0  0  0  0  0
   52.6640   31.4630   40.0870 C   0  0  0  0  0  0  0  0  0  0  0  0
   43.4861   36.3091   44.6388 H   0  0  0  0  0  0  0  0  0  0  0  0
   46.0245   33.5396   46.5898 H   0  0  0  0  0  0  0  0  0  0  0  0
   44.2884   37.1277   42.4103 H   0  0  0  0  0  0  0  0  0  0  0  0
   45.4177   36.0922   41.4518 H   0  0  0  0  0  0  0  0  0  0  0  0
   44.5022   34.3446   39.8830 H   0  0  0  0  0  0  0  0  0  0  0  0
   40.1658   35.1778   41.8469 H   0  0  0  0  0  0  0  0  0  0  0  0
   49.7895   35.0464   43.1439 H   0  0  0  0  0  0  0  0  0  0  0  0
   51.8863   33.8023   42.7793 H   0  0  0  0  0  0  0  0  0  0  0  0
   51.5772   29.8802   42.6923 H   0  0  0  0  0  0  0  0  0  0  0  0
   53.5577   28.6329   41.3443 H   0  0  0  0  0  0  0  0  0  0  0  0
   52.6859   32.2985   39.3719 H   0  0  0  0  0  0  0  0  0  0  0  0
  1  6  2  0
  2  1  1  0
  3  2  2  0
  3  4  1  0
  4  5  2  0
  5  6  1  0
  7  2  1  0
  8 12  1  0
  8  7  1  0
  9  8  2  0
 10  9  1  0
 10 11  1  0
 11 12  2  0
 13 14  1  0
 13  3  1  0
 14 15  2  0
 16 15  1  0
 17 16  2  0
 18 17  1  0
 18 14  1  0
 19 17  1  0
 19 20  1  0
 21 20  2  0
 22 23  2  0
 22 21  1  0
 23 19  1  0
  1 24  1  0
  5 25  1  0
  7 26  1  0
  7 27  1  0
  9 28  1  0
 11 29  1  0
 15 30  1  0
 16 31  1  0
 20 32  1  0
 21 33  1  0
 23 34  1  0
M  ISO  8  24  14  25  14  26   8  27   8  28  14  29  14  30  14  31  14
M  ISO  3  32  14  33  14  34  14
M  END
>  <minimizedAffinity>  (1) 
-5.24832916

>  <minimizedRMSD>  (1) 
0.144938484

$$$$
