
     RDKit          3D

 34 37  0  0  0  0  0  0  0  0999 V2000
   44.3610   35.5280   44.6240 C   0  0  0  0  0  0  0  0  0  0  0  0
   45.0190   35.3680   43.4020 C   0  0  0  0  0  0  0  0  0  0  0  0
   46.1010   34.4910   43.3570 C   0  0  0  0  0  0  0  0  0  0  0  0
   46.4430   33.8460   44.5070 N   0  0  0  0  0  0  0  0  0  0  0  0
   45.7980   34.0130   45.6640 C   0  0  0  0  0  0  0  0  0  0  0  0
   44.7610   34.8510   45.7270 N   0  0  0  0  0  0  0  0  0  0  0  0
   44.5890   36.1040   42.1950 C   0  0  0  0  0  0  0  0  0  0  0  0
   43.4300   35.3980   41.5210 C   0  0  0  0  0  0  0  0  0  0  0  0
   43.6270   34.5780   40.4400 C   0  0  0  0  0  0  0  0  0  0  0  0
   41.9520   33.9990   40.0290 S   0  0  0  0  0  0  0  0  0  0  0  0
   41.2360   35.0270   41.4760 C   0  0  0  0  0  0  0  0  0  0  0  0
   42.1830   35.4980   41.8920 N   0  0  0  0  0  0  0  0  0  0  0  0
   47.0050   34.2090   41.8780 S   0  0  0  0  0  0  0  0  0  0  0  0
   48.5920   33.7590   41.9820 C   0  0  0  0  0  0  0  0  0  0  0  0
   49.8290   34.0530   42.5410 C   0  0  0  0  0  0  0  0  0  0  0  0
   50.9670   33.3290   42.3070 C   0  0  0  0  0  0  0  0  0  0  0  0
   50.8500   32.2180   41.4400 C   0  0  0  0  0  0  0  0  0  0  0  0
   49.0440   32.2620   40.9810 S   0  0  0  0  0  0  0  0  0  0  0  0
   51.8290   31.2740   40.9970 C   0  0  0  0  0  0  0  0  0  0  0  0
   52.4260   31.4690   39.6390 C   0  0  0  0  0  0  0  0  0  0  0  0
   51.4290   30.4000   39.8990 C   0  0  0  0  0  0  0  0  0  0  0  0
   43.5044   36.2147   44.6915 H   0  0  0  0  0  0  0  0  0  0  0  0
   46.1195   33.4629   46.5606 H   0  0  0  0  0  0  0  0  0  0  0  0
   44.2755   37.1182   42.4832 H   0  0  0  0  0  0  0  0  0  0  0  0
   45.4324   36.1507   41.4904 H   0  0  0  0  0  0  0  0  0  0  0  0
   44.5743   34.3290   39.9394 H   0  0  0  0  0  0  0  0  0  0  0  0
   40.1941   35.1329   41.8126 H   0  0  0  0  0  0  0  0  0  0  0  0
   49.8985   34.9210   43.2131 H   0  0  0  0  0  0  0  0  0  0  0  0
   51.9270   33.5987   42.7714 H   0  0  0  0  0  0  0  0  0  0  0  0
   52.2465   31.1312   42.0046 H   0  0  0  0  0  0  0  0  0  0  0  0
   53.4793   31.2110   39.4549 H   0  0  0  0  0  0  0  0  0  0  0  0
   52.5132   32.3071   38.9319 H   0  0  0  0  0  0  0  0  0  0  0  0
   50.4169   30.4814   39.4760 H   0  0  0  0  0  0  0  0  0  0  0  0
   51.4091   29.3106   39.7482 H   0  0  0  0  0  0  0  0  0  0  0  0
  1  6  2  0
  2  1  1  0
  3  2  2  0
  3  4  1  0
  4  5  2  0
  5  6  1  0
  7  2  1  0
  8 12  1  0
  8  7  1  0
  9  8  2  0
 10  9  1  0
 10 11  1  0
 11 12  2  0
 13 14  1  0
 13  3  1  0
 14 15  2  0
 16 15  1  0
 17 16  2  0
 18 17  1  0
 18 14  1  0
 19 17  1  0
 20 21  1  0
 20 19  1  0
 21 19  1  0
  1 22  1  0
  5 23  1  0
  7 24  1  0
  7 25  1  0
  9 26  1  0
 11 27  1  0
 15 28  1  0
 16 29  1  0
 19 30  1  0
 20 31  1  0
 20 32  1  0
 21 33  1  0
 21 34  1  0
M  ISO  8  22  14  23  14  24   8  25   8  26  14  27  14  28  14  29  14
M  ISO  5  30  13  31  13  32  13  33  13  34  13
M  END
>  <minimizedAffinity>  (1) 
-5.02297544

>  <minimizedRMSD>  (1) 
0.138885781

$$$$
