
     RDKit          3D

 30 32  0  0  0  0  0  0  0  0999 V2000
   44.3370   35.5990   44.5950 C   0  0  0  0  0  0  0  0  0  0  0  0
   44.9790   35.3850   43.3750 C   0  0  0  0  0  0  0  0  0  0  0  0
   46.0310   34.4630   43.3490 C   0  0  0  0  0  0  0  0  0  0  0  0
   46.3530   33.8390   44.5150 N   0  0  0  0  0  0  0  0  0  0  0  0
   45.7240   34.0600   45.6680 C   0  0  0  0  0  0  0  0  0  0  0  0
   44.7160   34.9390   45.7120 N   0  0  0  0  0  0  0  0  0  0  0  0
   44.5730   36.1030   42.1400 C   0  0  0  0  0  0  0  0  0  0  0  0
   43.3850   35.4040   41.4930 C   0  0  0  0  0  0  0  0  0  0  0  0
   43.5660   34.5950   40.4010 C   0  0  0  0  0  0  0  0  0  0  0  0
   41.8820   34.0180   40.0170 S   0  0  0  0  0  0  0  0  0  0  0  0
   41.2000   35.0370   41.4930 C   0  0  0  0  0  0  0  0  0  0  0  0
   42.1550   35.5090   41.8990 N   0  0  0  0  0  0  0  0  0  0  0  0
   46.9140   34.1150   41.8700 S   0  0  0  0  0  0  0  0  0  0  0  0
   48.5180   33.7240   41.9710 C   0  0  0  0  0  0  0  0  0  0  0  0
   49.7290   34.0220   42.5800 C   0  0  0  0  0  0  0  0  0  0  0  0
   50.9070   33.3880   42.3310 C   0  0  0  0  0  0  0  0  0  0  0  0
   50.8590   32.3500   41.3730 C   0  0  0  0  0  0  0  0  0  0  0  0
   49.0540   32.3370   40.8590 S   0  0  0  0  0  0  0  0  0  0  0  0
   51.8840   31.4700   40.8610 C   0  0  0  0  0  0  0  0  0  0  0  0
   43.5067   36.3185   44.6489 H   0  0  0  0  0  0  0  0  0  0  0  0
   46.0310   33.5236   46.5779 H   0  0  0  0  0  0  0  0  0  0  0  0
   44.2924   37.1355   42.3954 H   0  0  0  0  0  0  0  0  0  0  0  0
   45.4159   36.1073   41.4333 H   0  0  0  0  0  0  0  0  0  0  0  0
   44.5044   34.3524   39.8809 H   0  0  0  0  0  0  0  0  0  0  0  0
   40.1650   35.1385   41.8513 H   0  0  0  0  0  0  0  0  0  0  0  0
   49.7372   34.8341   43.3219 H   0  0  0  0  0  0  0  0  0  0  0  0
   51.8395   33.6663   42.8439 H   0  0  0  0  0  0  0  0  0  0  0  0
   52.4230   31.0072   41.7008 H   0  0  0  0  0  0  0  0  0  0  0  0
   51.4197   30.6849   40.2462 H   0  0  0  0  0  0  0  0  0  0  0  0
   52.5898   32.0478   40.2462 H   0  0  0  0  0  0  0  0  0  0  0  0
  1  6  2  0
  2  1  1  0
  3  2  2  0
  3  4  1  0
  4  5  2  0
  5  6  1  0
  7  2  1  0
  8 12  1  0
  8  7  1  0
  9  8  2  0
 10  9  1  0
 10 11  1  0
 11 12  2  0
 13 14  1  0
 13  3  1  0
 14 15  2  0
 16 15  1  0
 17 16  2  0
 18 17  1  0
 18 14  1  0
 19 17  1  0
  1 20  1  0
  5 21  1  0
  7 22  1  0
  7 23  1  0
  9 24  1  0
 11 25  1  0
 15 26  1  0
 16 27  1  0
 19 28  1  0
 19 29  1  0
 19 30  1  0
M  ISO  8  20  14  21  14  22   8  23   8  24  14  25  14  26  14  27  14
M  ISO  3  28   8  29   8  30   8
M  END
>  <minimizedAffinity>  (1) 
-4.97102451

>  <minimizedRMSD>  (1) 
0.0756062269

$$$$
