
     RDKit          3D

 29 31  0  0  0  0  0  0  0  0999 V2000
   44.3830   35.6670   44.6040 C   0  0  0  0  0  0  0  0  0  0  0  0
   45.0190   35.2950   43.4140 C   0  0  0  0  0  0  0  0  0  0  0  0
   45.9560   34.2580   43.4880 C   0  0  0  0  0  0  0  0  0  0  0  0
   46.1800   33.6900   44.7040 N   0  0  0  0  0  0  0  0  0  0  0  0
   45.5570   34.0670   45.8200 C   0  0  0  0  0  0  0  0  0  0  0  0
   44.6590   35.0530   45.7730 N   0  0  0  0  0  0  0  0  0  0  0  0
   44.7320   35.9510   42.1280 C   0  0  0  0  0  0  0  0  0  0  0  0
   43.5030   35.3330   41.4750 C   0  0  0  0  0  0  0  0  0  0  0  0
   43.6350   34.5160   40.3810 C   0  0  0  0  0  0  0  0  0  0  0  0
   41.9150   34.0550   39.9960 S   0  0  0  0  0  0  0  0  0  0  0  0
   41.2990   35.1090   41.4650 C   0  0  0  0  0  0  0  0  0  0  0  0
   42.2830   35.5160   41.8760 N   0  0  0  0  0  0  0  0  0  0  0  0
   46.8250   33.7000   42.0640 S   0  0  0  0  0  0  0  0  0  0  0  0
   48.4720   33.5660   42.1300 C   0  0  0  0  0  0  0  0  0  0  0  0
   49.6370   34.1130   42.6560 C   0  0  0  0  0  0  0  0  0  0  0  0
   50.8950   33.6320   42.4140 C   0  0  0  0  0  0  0  0  0  0  0  0
   50.9890   32.5020   41.5680 C   0  0  0  0  0  0  0  0  0  0  0  0
   49.1910   32.1650   41.1400 S   0  0  0  0  0  0  0  0  0  0  0  0
   52.0720   31.7950   41.1380 N   0  0  0  0  0  0  0  0  0  0  0  0
   43.6409   36.4788   44.5856 H   0  0  0  0  0  0  0  0  0  0  0  0
   45.7816   33.5684   46.7744 H   0  0  0  0  0  0  0  0  0  0  0  0
   44.5498   37.0219   42.3009 H   0  0  0  0  0  0  0  0  0  0  0  0
   45.5952   35.8155   41.4598 H   0  0  0  0  0  0  0  0  0  0  0  0
   44.5562   34.2127   39.8619 H   0  0  0  0  0  0  0  0  0  0  0  0
   40.2716   35.2783   41.8197 H   0  0  0  0  0  0  0  0  0  0  0  0
   49.5410   34.9916   43.3108 H   0  0  0  0  0  0  0  0  0  0  0  0
   51.7876   34.1000   42.8547 H   0  0  0  0  0  0  0  0  0  0  0  0
   51.9440   30.9860   40.5134 H   0  0  0  0  0  0  0  0  0  0  0  0
   53.0184   32.0697   41.4376 H   0  0  0  0  0  0  0  0  0  0  0  0
  1  6  2  0
  2  3  2  0
  2  1  1  0
  3  4  1  0
  4  5  2  0
  6  5  1  0
  7  2  1  0
  8 12  1  0
  8  7  1  0
  9  8  2  0
 10  9  1  0
 10 11  1  0
 11 12  2  0
 13 14  1  0
 13  3  1  0
 14 15  2  0
 16 15  1  0
 17 16  2  0
 18 17  1  0
 18 14  1  0
 19 17  1  0
  1 20  1  0
  5 21  1  0
  7 22  1  0
  7 23  1  0
  9 24  1  0
 11 25  1  0
 15 26  1  0
 16 27  1  0
 19 28  1  0
 19 29  1  0
M  ISO  8  20  14  21  14  22   8  23   8  24  14  25  14  26  14  27  14
M  END
>  <minimizedAffinity>  (1) 
-5.15365982

>  <minimizedRMSD>  (1) 
0.198560208

$$$$
