
     RDKit          3D

 36 38  0  0  0  0  0  0  0  0999 V2000
   44.3360   35.6140   44.5980 C   0  0  0  0  0  0  0  0  0  0  0  0
   44.9770   35.3740   43.3750 C   0  0  0  0  0  0  0  0  0  0  0  0
   46.0130   34.4340   43.3670 C   0  0  0  0  0  0  0  0  0  0  0  0
   46.3270   33.8200   44.5440 N   0  0  0  0  0  0  0  0  0  0  0  0
   45.6980   34.0720   45.6910 C   0  0  0  0  0  0  0  0  0  0  0  0
   44.6990   34.9700   45.7210 N   0  0  0  0  0  0  0  0  0  0  0  0
   44.5790   36.0790   42.1470 C   0  0  0  0  0  0  0  0  0  0  0  0
   43.3890   35.4010   41.4980 C   0  0  0  0  0  0  0  0  0  0  0  0
   43.5560   34.6000   40.3960 C   0  0  0  0  0  0  0  0  0  0  0  0
   41.8620   34.0460   40.0190 S   0  0  0  0  0  0  0  0  0  0  0  0
   41.2050   35.0590   41.5090 C   0  0  0  0  0  0  0  0  0  0  0  0
   42.1650   35.4980   41.8880 N   0  0  0  0  0  0  0  0  0  0  0  0
   46.8900   34.0490   41.8940 S   0  0  0  0  0  0  0  0  0  0  0  0
   48.5010   33.7060   41.9960 C   0  0  0  0  0  0  0  0  0  0  0  0
   49.7130   34.0320   42.5840 C   0  0  0  0  0  0  0  0  0  0  0  0
   50.8970   33.4430   42.3510 C   0  0  0  0  0  0  0  0  0  0  0  0
   50.8990   32.3890   41.4120 C   0  0  0  0  0  0  0  0  0  0  0  0
   49.0830   32.3140   40.8990 S   0  0  0  0  0  0  0  0  0  0  0  0
   51.9230   31.5180   40.8880 C   0  0  0  0  0  0  0  0  0  0  0  0
   51.8840   30.2050   41.6400 C   0  0  0  0  0  0  0  0  0  0  0  0
   51.8010   31.2970   39.3950 C   0  0  0  0  0  0  0  0  0  0  0  0
   43.5165   36.3466   44.6401 H   0  0  0  0  0  0  0  0  0  0  0  0
   45.9955   33.5466   46.6105 H   0  0  0  0  0  0  0  0  0  0  0  0
   44.3107   37.1160   42.3975 H   0  0  0  0  0  0  0  0  0  0  0  0
   45.4227   36.0612   41.4414 H   0  0  0  0  0  0  0  0  0  0  0  0
   44.4884   34.3522   39.8676 H   0  0  0  0  0  0  0  0  0  0  0  0
   40.1780   35.1762   41.8852 H   0  0  0  0  0  0  0  0  0  0  0  0
   49.7041   34.8549   43.3139 H   0  0  0  0  0  0  0  0  0  0  0  0
   51.8155   33.7644   42.8640 H   0  0  0  0  0  0  0  0  0  0  0  0
   52.8968   32.0070   41.0384 H   0  0  0  0  0  0  0  0  0  0  0  0
   51.8899   30.4020   42.7222 H   0  0  0  0  0  0  0  0  0  0  0  0
   50.9692   29.6561   41.3722 H   0  0  0  0  0  0  0  0  0  0  0  0
   52.7647   29.6027   41.3722 H   0  0  0  0  0  0  0  0  0  0  0  0
   51.2773   30.3483   39.2064 H   0  0  0  0  0  0  0  0  0  0  0  0
   51.2323   32.1252   38.9470 H   0  0  0  0  0  0  0  0  0  0  0  0
   52.8048   31.2570   38.9470 H   0  0  0  0  0  0  0  0  0  0  0  0
  1  6  2  0
  2  1  1  0
  3  2  2  0
  3  4  1  0
  4  5  2  0
  5  6  1  0
  7  2  1  0
  8 12  1  0
  8  7  1  0
  9  8  2  0
 10  9  1  0
 10 11  1  0
 11 12  2  0
 13 14  1  0
 13  3  1  0
 14 15  2  0
 16 15  1  0
 17 16  2  0
 18 17  1  0
 18 14  1  0
 19 17  1  0
 19 20  1  0
 21 19  1  0
  1 22  1  0
  5 23  1  0
  7 24  1  0
  7 25  1  0
  9 26  1  0
 11 27  1  0
 15 28  1  0
 16 29  1  0
 19 30  1  0
 20 31  1  0
 20 32  1  0
 20 33  1  0
 21 34  1  0
 21 35  1  0
 21 36  1  0
M  ISO  8  22  14  23  14  24   8  25   8  26  14  27  14  28  14  29  14
M  ISO  7  30   8  31   8  32   8  33   8  34   8  35   8  36   8
M  END
>  <minimizedAffinity>  (1) 
-5.03531647

>  <minimizedRMSD>  (1) 
0.210709155

$$$$
