
     RDKit          3D

 28 30  0  0  0  0  0  0  0  0999 V2000
   44.3460   35.5700   44.5900 C   0  0  0  0  0  0  0  0  0  0  0  0
   44.9890   35.3760   43.3650 C   0  0  0  0  0  0  0  0  0  0  0  0
   46.0480   34.4750   43.3270 C   0  0  0  0  0  0  0  0  0  0  0  0
   46.3920   33.8410   44.4820 N   0  0  0  0  0  0  0  0  0  0  0  0
   45.7630   34.0410   45.6440 C   0  0  0  0  0  0  0  0  0  0  0  0
   44.7400   34.9060   45.7020 N   0  0  0  0  0  0  0  0  0  0  0  0
   44.5670   36.0970   42.1510 C   0  0  0  0  0  0  0  0  0  0  0  0
   43.3850   35.4080   41.4960 C   0  0  0  0  0  0  0  0  0  0  0  0
   43.5630   34.6030   40.4010 C   0  0  0  0  0  0  0  0  0  0  0  0
   41.8650   34.0390   40.0230 S   0  0  0  0  0  0  0  0  0  0  0  0
   41.1900   35.0500   41.4980 C   0  0  0  0  0  0  0  0  0  0  0  0
   42.1470   35.5050   41.8910 N   0  0  0  0  0  0  0  0  0  0  0  0
   46.9380   34.1450   41.8440 S   0  0  0  0  0  0  0  0  0  0  0  0
   48.5310   33.7160   41.9460 C   0  0  0  0  0  0  0  0  0  0  0  0
   49.7480   33.9410   42.5740 C   0  0  0  0  0  0  0  0  0  0  0  0
   50.9010   33.2940   42.2980 C   0  0  0  0  0  0  0  0  0  0  0  0
   50.8500   32.3050   41.2810 C   0  0  0  0  0  0  0  0  0  0  0  0
   49.0430   32.3740   40.7540 S   0  0  0  0  0  0  0  0  0  0  0  0
   52.0660   31.2680   40.6280 S   0  0  0  0  0  0  0  0  0  0  0  0
   43.5041   36.2752   44.6521 H   0  0  0  0  0  0  0  0  0  0  0  0
   46.0823   33.4997   46.5468 H   0  0  0  0  0  0  0  0  0  0  0  0
   44.2801   37.1235   42.4231 H   0  0  0  0  0  0  0  0  0  0  0  0
   45.4058   36.1085   41.4395 H   0  0  0  0  0  0  0  0  0  0  0  0
   44.4985   34.3565   39.8776 H   0  0  0  0  0  0  0  0  0  0  0  0
   40.1579   35.1587   41.8627 H   0  0  0  0  0  0  0  0  0  0  0  0
   49.7758   34.7091   43.3609 H   0  0  0  0  0  0  0  0  0  0  0  0
   51.8336   33.5222   42.8348 H   0  0  0  0  0  0  0  0  0  0  0  0
   52.7594   30.6767   41.6510 H   0  0  0  0  0  0  0  0  0  0  0  0
  1  6  2  0
  2  1  1  0
  3  2  2  0
  3  4  1  0
  4  5  2  0
  5  6  1  0
  7  2  1  0
  8 12  1  0
  8  7  1  0
  9  8  2  0
 10  9  1  0
 10 11  1  0
 11 12  2  0
 13 14  1  0
 13  3  1  0
 14 15  2  0
 16 15  1  0
 17 16  2  0
 18 17  1  0
 18 14  1  0
 19 17  1  0
  1 20  1  0
  5 21  1  0
  7 22  1  0
  7 23  1  0
  9 24  1  0
 11 25  1  0
 15 26  1  0
 16 27  1  0
 19 28  1  0
M  ISO  8  20  14  21  14  22   8  23   8  24  14  25  14  26  14  27  14
M  ISO  1  28  11
M  END
>  <minimizedAffinity>  (1) 
-4.96541309

>  <minimizedRMSD>  (1) 
0.137028366

$$$$
