
     RDKit          3D

 30 32  0  0  0  0  0  0  0  0999 V2000
   44.3650   35.5200   44.6360 C   0  0  0  0  0  0  0  0  0  0  0  0
   45.0160   35.3710   43.4010 C   0  0  0  0  0  0  0  0  0  0  0  0
   46.0970   34.4920   43.3510 C   0  0  0  0  0  0  0  0  0  0  0  0
   46.4440   33.8430   44.4970 N   0  0  0  0  0  0  0  0  0  0  0  0
   45.8070   34.0040   45.6580 C   0  0  0  0  0  0  0  0  0  0  0  0
   44.7730   34.8360   45.7330 N   0  0  0  0  0  0  0  0  0  0  0  0
   44.5780   36.1080   42.2080 C   0  0  0  0  0  0  0  0  0  0  0  0
   43.4200   35.4000   41.5300 C   0  0  0  0  0  0  0  0  0  0  0  0
   43.6270   34.5830   40.4470 C   0  0  0  0  0  0  0  0  0  0  0  0
   41.9500   34.0010   40.0320 S   0  0  0  0  0  0  0  0  0  0  0  0
   41.2310   35.0240   41.4780 C   0  0  0  0  0  0  0  0  0  0  0  0
   42.1750   35.5040   41.9070 N   0  0  0  0  0  0  0  0  0  0  0  0
   46.9930   34.2230   41.8660 S   0  0  0  0  0  0  0  0  0  0  0  0
   48.5720   33.7420   41.9560 C   0  0  0  0  0  0  0  0  0  0  0  0
   49.8070   34.0080   42.5370 C   0  0  0  0  0  0  0  0  0  0  0  0
   50.9510   33.2880   42.3000 C   0  0  0  0  0  0  0  0  0  0  0  0
   50.8290   32.2140   41.4030 C   0  0  0  0  0  0  0  0  0  0  0  0
   49.0170   32.2670   40.9050 S   0  0  0  0  0  0  0  0  0  0  0  0
   51.7920   31.2480   40.9100 C   0  0  0  0  0  0  0  0  0  0  0  0
   52.9390   31.8600   40.4000 F   0  0  0  0  0  0  0  0  0  0  0  0
   52.2270   30.5290   42.0010 F   0  0  0  0  0  0  0  0  0  0  0  0
   51.2160   30.4950   39.9330 F   0  0  0  0  0  0  0  0  0  0  0  0
   43.5077   36.2047   44.7149 H   0  0  0  0  0  0  0  0  0  0  0  0
   46.1361   33.4504   46.5498 H   0  0  0  0  0  0  0  0  0  0  0  0
   44.2586   37.1177   42.5054 H   0  0  0  0  0  0  0  0  0  0  0  0
   45.4187   36.1641   41.5008 H   0  0  0  0  0  0  0  0  0  0  0  0
   44.5767   34.3381   39.9489 H   0  0  0  0  0  0  0  0  0  0  0  0
   40.1867   35.1239   41.8089 H   0  0  0  0  0  0  0  0  0  0  0  0
   49.8715   34.8551   43.2357 H   0  0  0  0  0  0  0  0  0  0  0  0
   51.9069   33.5372   42.7839 H   0  0  0  0  0  0  0  0  0  0  0  0
  1  6  2  0
  2  1  1  0
  3  2  2  0
  3  4  1  0
  4  5  2  0
  5  6  1  0
  7  2  1  0
  8 12  1  0
  8  7  1  0
  9  8  2  0
 10  9  1  0
 10 11  1  0
 11 12  2  0
 13 14  1  0
 13  3  1  0
 14 15  2  0
 16 15  1  0
 17 16  2  0
 18 17  1  0
 18 14  1  0
 19 17  1  0
 19 21  1  0
 20 19  1  0
 22 19  1  0
  1 23  1  0
  5 24  1  0
  7 25  1  0
  7 26  1  0
  9 27  1  0
 11 28  1  0
 15 29  1  0
 16 30  1  0
M  ISO  8  23  14  24  14  25   8  26   8  27  14  28  14  29  14  30  14
M  END
>  <minimizedAffinity>  (1) 
-5.15381765

>  <minimizedRMSD>  (1) 
0.255703151

$$$$
