
     RDKit          3D

 30 32  0  0  0  0  0  0  0  0999 V2000
   44.3300   35.5720   44.6140 C   0  0  0  0  0  0  0  0  0  0  0  0
   44.9770   35.3890   43.3870 C   0  0  0  0  0  0  0  0  0  0  0  0
   46.0470   34.4910   43.3510 C   0  0  0  0  0  0  0  0  0  0  0  0
   46.3850   33.8590   44.5080 N   0  0  0  0  0  0  0  0  0  0  0  0
   45.7510   34.0510   45.6670 C   0  0  0  0  0  0  0  0  0  0  0  0
   44.7220   34.9080   45.7230 N   0  0  0  0  0  0  0  0  0  0  0  0
   44.5630   36.1050   42.1620 C   0  0  0  0  0  0  0  0  0  0  0  0
   43.3880   35.4130   41.5070 C   0  0  0  0  0  0  0  0  0  0  0  0
   43.5740   34.6020   40.4170 C   0  0  0  0  0  0  0  0  0  0  0  0
   41.8880   34.0280   40.0160 S   0  0  0  0  0  0  0  0  0  0  0  0
   41.1940   35.0560   41.4930 C   0  0  0  0  0  0  0  0  0  0  0  0
   42.1510   35.5150   41.8930 N   0  0  0  0  0  0  0  0  0  0  0  0
   46.9410   34.1740   41.8730 S   0  0  0  0  0  0  0  0  0  0  0  0
   48.5340   33.7400   41.9730 C   0  0  0  0  0  0  0  0  0  0  0  0
   49.7700   34.0280   42.5390 C   0  0  0  0  0  0  0  0  0  0  0  0
   50.9140   33.3500   42.3140 C   0  0  0  0  0  0  0  0  0  0  0  0
   50.8330   32.2550   41.4220 C   0  0  0  0  0  0  0  0  0  0  0  0
   49.0200   32.2610   40.9320 S   0  0  0  0  0  0  0  0  0  0  0  0
   51.7710   31.3310   40.9420 C   0  0  0  0  0  0  0  0  0  0  0  0
   51.5090   30.1050   40.9180 O   0  0  0  0  0  0  0  0  0  0  0  0
   52.9590   31.8920   40.5180 O   0  0  0  0  0  0  0  0  0  0  0  0
   43.4837   36.2719   44.6769 H   0  0  0  0  0  0  0  0  0  0  0  0
   46.0708   33.5097   46.5696 H   0  0  0  0  0  0  0  0  0  0  0  0
   44.2750   37.1335   42.4252 H   0  0  0  0  0  0  0  0  0  0  0  0
   45.4063   36.1127   41.4558 H   0  0  0  0  0  0  0  0  0  0  0  0
   44.5161   34.3556   39.9054 H   0  0  0  0  0  0  0  0  0  0  0  0
   40.1588   35.1664   41.8483 H   0  0  0  0  0  0  0  0  0  0  0  0
   49.8196   34.8824   43.2300 H   0  0  0  0  0  0  0  0  0  0  0  0
   51.8600   33.6335   42.7985 H   0  0  0  0  0  0  0  0  0  0  0  0
   53.6803   31.3143   40.1630 H   0  0  0  0  0  0  0  0  0  0  0  0
  1  6  2  0
  2  1  1  0
  3  2  2  0
  3  4  1  0
  4  5  2  0
  5  6  1  0
  7  2  1  0
  8 12  1  0
  8  7  1  0
  9  8  2  0
 10  9  1  0
 10 11  1  0
 11 12  2  0
 13 14  1  0
 13  3  1  0
 14 15  2  0
 16 15  1  0
 17 16  2  0
 18 17  1  0
 18 14  1  0
 19 17  1  0
 20 19  2  0
 21 19  1  0
  1 22  1  0
  5 23  1  0
  7 24  1  0
  7 25  1  0
  9 26  1  0
 11 27  1  0
 15 28  1  0
 16 29  1  0
 21 30  1  0
M  ISO  8  22  14  23  14  24   8  25   8  26  14  27  14  28  14  29  14
M  ISO  1  30   3
M  END
>  <minimizedAffinity>  (1) 
-5.32271767

>  <minimizedRMSD>  (1) 
0.14178516

$$$$
