
     RDKit          3D

 37 40  0  0  0  0  0  0  0  0999 V2000
   44.4070   35.4600   44.6800 C   0  0  0  0  0  0  0  0  0  0  0  0
   45.0620   35.3580   43.4420 C   0  0  0  0  0  0  0  0  0  0  0  0
   46.1600   34.4940   43.3760 C   0  0  0  0  0  0  0  0  0  0  0  0
   46.5180   33.8200   44.4940 N   0  0  0  0  0  0  0  0  0  0  0  0
   45.8800   33.9300   45.6670 C   0  0  0  0  0  0  0  0  0  0  0  0
   44.8200   34.7530   45.7630 N   0  0  0  0  0  0  0  0  0  0  0  0
   44.6230   36.1200   42.2590 C   0  0  0  0  0  0  0  0  0  0  0  0
   43.4660   35.4150   41.5730 C   0  0  0  0  0  0  0  0  0  0  0  0
   43.6850   34.5860   40.5010 C   0  0  0  0  0  0  0  0  0  0  0  0
   42.0150   34.0060   40.0560 S   0  0  0  0  0  0  0  0  0  0  0  0
   41.2740   35.0510   41.4880 C   0  0  0  0  0  0  0  0  0  0  0  0
   42.2170   35.5190   41.9130 N   0  0  0  0  0  0  0  0  0  0  0  0
   47.0640   34.2770   41.8830 S   0  0  0  0  0  0  0  0  0  0  0  0
   48.6450   33.7750   41.9700 C   0  0  0  0  0  0  0  0  0  0  0  0
   49.8870   33.9870   42.5360 C   0  0  0  0  0  0  0  0  0  0  0  0
   50.9830   33.2620   42.2850 C   0  0  0  0  0  0  0  0  0  0  0  0
   50.8550   32.2030   41.3730 C   0  0  0  0  0  0  0  0  0  0  0  0
   49.0600   32.3060   40.8910 S   0  0  0  0  0  0  0  0  0  0  0  0
   51.7650   31.2540   40.8770 C   0  0  0  0  0  0  0  0  0  0  0  0
   51.7950   30.0910   41.3680 O   0  0  0  0  0  0  0  0  0  0  0  0
   52.5770   31.6810   39.8610 O   0  0  0  0  0  0  0  0  0  0  0  0
   52.2030   31.4150   38.5260 C   0  0  0  0  0  0  0  0  0  0  0  0
   52.9850   30.5210   37.7880 C   0  0  0  0  0  0  0  0  0  0  0  0
   52.3540   30.4850   36.5410 C   0  0  0  0  0  0  0  0  0  0  0  0
   51.2760   31.3200   36.5900 N   0  0  0  0  0  0  0  0  0  0  0  0
   51.1970   31.8770   37.8020 N   0  0  0  0  0  0  0  0  0  0  0  0
   43.5387   36.1286   44.7745 H   0  0  0  0  0  0  0  0  0  0  0  0
   46.2188   33.3544   46.5410 H   0  0  0  0  0  0  0  0  0  0  0  0
   44.3004   37.1234   42.5737 H   0  0  0  0  0  0  0  0  0  0  0  0
   45.4628   36.1965   41.5527 H   0  0  0  0  0  0  0  0  0  0  0  0
   44.6425   34.3316   40.0231 H   0  0  0  0  0  0  0  0  0  0  0  0
   40.2274   35.1643   41.8072 H   0  0  0  0  0  0  0  0  0  0  0  0
   49.9826   34.8182   43.2501 H   0  0  0  0  0  0  0  0  0  0  0  0
   51.9432   33.4863   42.7725 H   0  0  0  0  0  0  0  0  0  0  0  0
   53.8836   29.9754   38.1119 H   0  0  0  0  0  0  0  0  0  0  0  0
   52.6709   29.8884   35.6729 H   0  0  0  0  0  0  0  0  0  0  0  0
   50.6235   31.4942   35.8123 H   0  0  0  0  0  0  0  0  0  0  0  0
  1  6  2  0
  2  1  1  0
  3  2  2  0
  3  4  1  0
  4  5  2  0
  5  6  1  0
  7  2  1  0
  8 12  1  0
  8  7  1  0
  9  8  2  0
 10  9  1  0
 10 11  1  0
 11 12  2  0
 13 14  1  0
 13  3  1  0
 14 15  2  0
 16 15  1  0
 17 16  2  0
 18 17  1  0
 18 14  1  0
 19 20  2  0
 19 17  1  0
 21 19  1  0
 22 21  1  0
 23 22  1  0
 24 25  1  0
 24 23  2  0
 25 26  1  0
 26 22  2  0
  1 27  1  0
  5 28  1  0
  7 29  1  0
  7 30  1  0
  9 31  1  0
 11 32  1  0
 15 33  1  0
 16 34  1  0
 23 35  1  0
 24 36  1  0
 25 37  1  0
M  ISO  8  27  14  28  14  29   8  30   8  31  14  32  14  33  14  34  14
M  ISO  3  35  14  36  14  37   9
M  END
>  <minimizedAffinity>  (1) 
-5.43425941

>  <minimizedRMSD>  (1) 
1.73343933

$$$$
