
     RDKit          3D

 45 48  0  0  0  0  0  0  0  0999 V2000
   44.3540   35.4810   44.6880 C   0  0  0  0  0  0  0  0  0  0  0  0
   45.0190   35.3910   43.4600 C   0  0  0  0  0  0  0  0  0  0  0  0
   46.1370   34.5570   43.3880 C   0  0  0  0  0  0  0  0  0  0  0  0
   46.5050   33.8900   44.5130 N   0  0  0  0  0  0  0  0  0  0  0  0
   45.8560   33.9870   45.6800 C   0  0  0  0  0  0  0  0  0  0  0  0
   44.7740   34.7890   45.7660 N   0  0  0  0  0  0  0  0  0  0  0  0
   44.5760   36.1420   42.2630 C   0  0  0  0  0  0  0  0  0  0  0  0
   43.4370   35.4340   41.5720 C   0  0  0  0  0  0  0  0  0  0  0  0
   43.6760   34.6110   40.4970 C   0  0  0  0  0  0  0  0  0  0  0  0
   42.0160   34.0200   40.0420 S   0  0  0  0  0  0  0  0  0  0  0  0
   41.2540   35.0550   41.4740 C   0  0  0  0  0  0  0  0  0  0  0  0
   42.1870   35.5300   41.9080 N   0  0  0  0  0  0  0  0  0  0  0  0
   47.0600   34.3530   41.9170 S   0  0  0  0  0  0  0  0  0  0  0  0
   48.6360   33.8310   42.0090 C   0  0  0  0  0  0  0  0  0  0  0  0
   49.9090   34.1060   42.4740 C   0  0  0  0  0  0  0  0  0  0  0  0
   50.9790   33.3230   42.2950 C   0  0  0  0  0  0  0  0  0  0  0  0
   50.7780   32.1350   41.5790 C   0  0  0  0  0  0  0  0  0  0  0  0
   48.9630   32.1940   41.1700 S   0  0  0  0  0  0  0  0  0  0  0  0
   51.6430   31.0870   41.1970 C   0  0  0  0  0  0  0  0  0  0  0  0
   52.2810   30.4310   42.0580 O   0  0  0  0  0  0  0  0  0  0  0  0
   51.7350   30.8410   39.8590 O   0  0  0  0  0  0  0  0  0  0  0  0
   54.1750   30.3020   36.6150 N   0  0  0  0  0  0  0  0  0  0  0  0
   54.8450   30.6840   37.8490 C   0  0  0  0  0  0  0  0  0  0  0  0
   53.9750   30.2820   39.0470 C   0  0  0  0  0  0  0  0  0  0  0  0
   52.8560   31.2620   39.1150 C   0  0  0  0  0  0  0  0  0  0  0  0
   52.3610   31.5230   37.7080 C   0  0  0  0  0  0  0  0  0  0  0  0
   52.7260   30.4050   36.7570 C   0  0  0  0  0  0  0  0  0  0  0  0
   43.4701   36.1299   44.7755 H   0  0  0  0  0  0  0  0  0  0  0  0
   46.2003   33.4202   46.5576 H   0  0  0  0  0  0  0  0  0  0  0  0
   44.2432   37.1445   42.5700 H   0  0  0  0  0  0  0  0  0  0  0  0
   45.4206   36.2145   41.5621 H   0  0  0  0  0  0  0  0  0  0  0  0
   44.6395   34.3680   40.0251 H   0  0  0  0  0  0  0  0  0  0  0  0
   40.2039   35.1573   41.7852 H   0  0  0  0  0  0  0  0  0  0  0  0
   50.0531   35.0413   43.0347 H   0  0  0  0  0  0  0  0  0  0  0  0
   51.9679   33.5981   42.6904 H   0  0  0  0  0  0  0  0  0  0  0  0
   54.4231   29.3295   36.3834 H   0  0  0  0  0  0  0  0  0  0  0  0
   55.8165   30.1720   37.9128 H   0  0  0  0  0  0  0  0  0  0  0  0
   55.0037   31.7724   37.8591 H   0  0  0  0  0  0  0  0  0  0  0  0
   53.5798   29.2655   38.9037 H   0  0  0  0  0  0  0  0  0  0  0  0
   54.5601   30.2862   39.9784 H   0  0  0  0  0  0  0  0  0  0  0  0
   53.2737   32.1461   39.6189 H   0  0  0  0  0  0  0  0  0  0  0  0
   51.2660   31.6251   37.7310 H   0  0  0  0  0  0  0  0  0  0  0  0
   52.8416   32.4441   37.3465 H   0  0  0  0  0  0  0  0  0  0  0  0
   52.2801   30.6084   35.7722 H   0  0  0  0  0  0  0  0  0  0  0  0
   52.3416   29.4569   37.1611 H   0  0  0  0  0  0  0  0  0  0  0  0
  1  6  2  0
  2  1  1  0
  3  2  2  0
  3  4  1  0
  4  5  2  0
  5  6  1  0
  7  2  1  0
  8 12  1  0
  8  7  1  0
  9  8  2  0
 10  9  1  0
 10 11  1  0
 11 12  2  0
 13 14  1  0
 13  3  1  0
 14 15  2  0
 16 15  1  0
 17 16  2  0
 18 17  1  0
 18 14  1  0
 19 17  1  0
 19 20  2  0
 21 19  1  0
 22 27  1  0
 22 23  1  0
 23 24  1  0
 24 25  1  0
 25 21  1  0
 26 25  1  0
 27 26  1  0
  1 28  1  0
  5 29  1  0
  7 30  1  0
  7 31  1  0
  9 32  1  0
 11 33  1  0
 15 34  1  0
 16 35  1  0
 22 36  1  0
 23 37  1  0
 23 38  1  0
 24 39  1  0
 24 40  1  0
 25 41  1  0
 26 42  1  0
 26 43  1  0
 27 44  1  0
 27 45  1  0
M  ISO  8  28  14  29  14  30   8  31   8  32  14  33  14  34  14  35  14
M  ISO  8  36   5  37  13  38  13  39  13  40  13  41  13  42  13  43  13
M  ISO  2  44  13  45  13
M  END
>  <minimizedAffinity>  (1) 
-5.33059216

>  <minimizedRMSD>  (1) 
1.03183925

$$$$
