
     RDKit          3D

 40 42  0  0  1  0  0  0  0  0999 V2000
   45.8400   33.5410   43.7180 C   0  0  2  0  0  0  0  0  0  0  0  0
   45.5260   34.1010   45.1390 C   0  0  0  0  0  0  0  0  0  0  0  0
   44.7790   35.3530   45.1550 C   0  0  0  0  0  0  0  0  0  0  0  0
   44.3510   35.9930   43.9010 C   0  0  0  0  0  0  0  0  0  0  0  0
   44.8000   35.3720   42.6470 C   0  0  0  0  0  0  0  0  0  0  0  0
   44.8430   33.8670   42.7720 C   0  0  0  0  0  0  0  0  0  0  0  0
   45.9870   31.2660   44.6240 C   0  0  0  0  0  0  0  0  0  0  0  0
   46.5390   32.3020   43.8600 C   0  0  0  0  0  0  0  0  0  0  0  0
   47.8390   32.2330   43.2270 C   0  0  0  0  0  0  0  0  0  0  0  0
   48.5040   31.0780   43.4370 N   0  0  0  0  0  0  0  0  0  0  0  0
   47.9630   30.0720   44.1860 C   0  0  0  0  0  0  0  0  0  0  0  0
   46.7370   30.1530   44.7670 N   0  0  0  0  0  0  0  0  0  0  0  0
   48.6120   33.1080   42.4170 C   0  0  0  0  0  0  0  0  0  0  0  0
   48.0690   33.1020   40.9950 C   0  0  0  0  0  0  0  0  0  0  0  0
   47.5440   34.4070   40.5200 C   0  0  0  0  0  0  0  0  0  0  0  0
   48.7190   35.3940   40.5430 C   0  0  0  0  0  0  0  0  0  0  0  0
   49.1330   35.5120   42.0010 C   0  0  0  0  0  0  0  0  0  0  0  0
   48.3690   34.5780   42.8760 C   0  0  0  0  0  0  0  0  0  0  0  0
   46.5987   34.0430   43.0996 H   0  0  0  0  0  0  0  0  0  0  0  0
   45.8440   33.5901   46.0598 H   0  0  0  0  0  0  0  0  0  0  0  0
   44.5321   35.8254   46.1172 H   0  0  0  0  0  0  0  0  0  0  0  0
   43.2511   36.0016   43.8916 H   0  0  0  0  0  0  0  0  0  0  0  0
   44.8229   36.9866   43.9123 H   0  0  0  0  0  0  0  0  0  0  0  0
   45.8070   35.7414   42.4033 H   0  0  0  0  0  0  0  0  0  0  0  0
   44.0886   35.6369   41.8509 H   0  0  0  0  0  0  0  0  0  0  0  0
   43.8668   33.4917   43.1127 H   0  0  0  0  0  0  0  0  0  0  0  0
   45.0709   33.4068   41.7992 H   0  0  0  0  0  0  0  0  0  0  0  0
   44.9920   31.3550   45.0845 H   0  0  0  0  0  0  0  0  0  0  0  0
   48.5483   29.1512   44.3258 H   0  0  0  0  0  0  0  0  0  0  0  0
   49.6618   32.7869   42.4863 H   0  0  0  0  0  0  0  0  0  0  0  0
   48.8817   32.7948   40.3204 H   0  0  0  0  0  0  0  0  0  0  0  0
   47.2157   32.4078   40.9939 H   0  0  0  0  0  0  0  0  0  0  0  0
   46.7422   34.7576   41.1864 H   0  0  0  0  0  0  0  0  0  0  0  0
   47.1239   34.3178   39.5073 H   0  0  0  0  0  0  0  0  0  0  0  0
   49.5535   35.0101   39.9378 H   0  0  0  0  0  0  0  0  0  0  0  0
   48.4358   36.3702   40.1225 H   0  0  0  0  0  0  0  0  0  0  0  0
   50.2051   35.2809   42.0855 H   0  0  0  0  0  0  0  0  0  0  0  0
   48.9199   36.5390   42.3325 H   0  0  0  0  0  0  0  0  0  0  0  0
   47.2957   34.8093   42.8081 H   0  0  0  0  0  0  0  0  0  0  0  0
   48.7078   34.6949   43.9160 H   0  0  0  0  0  0  0  0  0  0  0  0
  1  8  1  0
  1  2  1  0
  2  3  2  0
  4  3  1  0
  5  6  1  0
  5  4  1  0
  6  1  1  0
  7 12  2  0
  8  7  1  0
  9 10  1  0
  9  8  2  0
 10 11  2  0
 11 12  1  0
 13 18  1  0
 13  9  1  0
 14 13  1  0
 15 16  1  0
 15 14  1  0
 16 17  1  0
 17 18  1  0
  1 19  1  6
  2 20  1  0
  3 21  1  0
  4 22  1  0
  4 23  1  0
  5 24  1  0
  5 25  1  0
  6 26  1  0
  6 27  1  0
  7 28  1  0
 11 29  1  0
 13 30  1  0
 14 31  1  0
 14 32  1  0
 15 33  1  0
 15 34  1  0
 16 35  1  0
 16 36  1  0
 17 37  1  0
 17 38  1  0
 18 39  1  0
 18 40  1  0
M  ISO  8  19  13  20  13  21  13  22  13  23  13  24  13  25  13  26  13
M  ISO  8  27  13  28  14  29  14  30  13  31  13  32  13  33  13  34  13
M  ISO  6  35  13  36  13  37  13  38  13  39  13  40  13
M  END
>  <minimizedAffinity>  (1) 
-5.08211613

>  <minimizedRMSD>  (1) 
3.70950675

$$$$
