
     RDKit          3D

 38 41  0  0  1  0  0  0  0  0999 V2000
   45.1160   32.4410   47.6510 C   0  0  0  0  0  0  0  0  0  0  0  0
   46.3890   32.0230   47.1710 C   0  0  0  0  0  0  0  0  0  0  0  0
   47.1070   31.0460   47.8680 C   0  0  0  0  0  0  0  0  0  0  0  0
   46.5130   30.5410   49.0030 N   0  0  0  0  0  0  0  0  0  0  0  0
   45.3080   30.9410   49.4540 C   0  0  0  0  0  0  0  0  0  0  0  0
   44.6260   31.8740   48.7870 N   0  0  0  0  0  0  0  0  0  0  0  0
   46.8570   32.5780   45.9220 C   0  0  2  0  0  0  0  0  0  0  0  0
   45.9700   33.8400   45.5720 C   0  0  0  0  0  0  0  0  0  0  0  0
   45.9500   34.2750   44.2120 C   0  0  0  0  0  0  0  0  0  0  0  0
   46.7110   33.5500   43.2090 C   0  0  0  0  0  0  0  0  0  0  0  0
   47.7660   32.6760   43.7260 C   0  0  0  0  0  0  0  0  0  0  0  0
   47.1600   31.7630   44.8180 C   0  0  0  0  0  0  0  0  0  0  0  0
   48.3570   30.3830   47.6750 C   0  0  0  0  0  0  0  0  0  0  0  0
   48.7570   29.3740   46.9730 N   0  0  0  0  0  0  0  0  0  0  0  0
   49.7620   28.6320   46.7990 C   0  0  0  0  0  0  0  0  0  0  0  0
   50.7970   28.9470   47.5800 N   0  0  0  0  0  0  0  0  0  0  0  0
   50.6690   29.9940   48.4490 C   0  0  0  0  0  0  0  0  0  0  0  0
   51.7670   30.2040   49.2220 C   0  0  0  0  0  0  0  0  0  0  0  0
   51.7130   31.2020   50.1540 C   0  0  0  0  0  0  0  0  0  0  0  0
   50.5610   31.9520   50.2760 C   0  0  0  0  0  0  0  0  0  0  0  0
   49.5200   31.6400   49.4340 C   0  0  0  0  0  0  0  0  0  0  0  0
   49.4650   30.6540   48.4540 C   0  0  0  0  0  0  0  0  0  0  0  0
   44.5389   33.2081   47.1138 H   0  0  0  0  0  0  0  0  0  0  0  0
   44.8876   30.4996   50.3696 H   0  0  0  0  0  0  0  0  0  0  0  0
   47.9025   32.8378   46.1444 H   0  0  0  0  0  0  0  0  0  0  0  0
   45.3904   34.3629   46.3470 H   0  0  0  0  0  0  0  0  0  0  0  0
   45.3595   35.1574   43.9243 H   0  0  0  0  0  0  0  0  0  0  0  0
   47.1795   34.2876   42.5408 H   0  0  0  0  0  0  0  0  0  0  0  0
   45.9914   32.8881   42.7050 H   0  0  0  0  0  0  0  0  0  0  0  0
   48.1695   32.0593   42.9094 H   0  0  0  0  0  0  0  0  0  0  0  0
   48.5801   33.2811   44.1515 H   0  0  0  0  0  0  0  0  0  0  0  0
   46.2446   31.2827   44.4420 H   0  0  0  0  0  0  0  0  0  0  0  0
   47.8686   30.9707   45.1011 H   0  0  0  0  0  0  0  0  0  0  0  0
   49.7832   27.8053   46.0737 H   0  0  0  0  0  0  0  0  0  0  0  0
   52.6713   29.5895   49.1011 H   0  0  0  0  0  0  0  0  0  0  0  0
   52.5793   31.4055   50.8006 H   0  0  0  0  0  0  0  0  0  0  0  0
   50.4793   32.7634   51.0142 H   0  0  0  0  0  0  0  0  0  0  0  0
   48.6118   32.2496   49.5503 H   0  0  0  0  0  0  0  0  0  0  0  0
  1  6  2  0
  2  1  1  0
  2  3  2  0
  3  4  1  0
  4  5  2  0
  6  5  1  0
  7  2  1  0
  8  7  1  0
  9  8  2  0
 10 11  1  0
 10  9  1  0
 11 12  1  0
 12  7  1  0
 13  3  1  0
 13 22  1  0
 14 13  2  0
 15 14  1  0
 15 16  2  0
 16 17  1  0
 17 22  2  0
 17 18  1  0
 18 19  2  0
 19 20  1  0
 21 20  2  0
 22 21  1  0
  1 23  1  0
  5 24  1  0
  7 25  1  1
  8 26  1  0
  9 27  1  0
 10 28  1  0
 10 29  1  0
 11 30  1  0
 11 31  1  0
 12 32  1  0
 12 33  1  0
 15 34  1  0
 18 35  1  0
 19 36  1  0
 20 37  1  0
 21 38  1  0
M  ISO  8  23  14  24  14  25  13  26  13  27  13  28  13  29  13  30  13
M  ISO  8  31  13  32  13  33  13  34  14  35  14  36  14  37  14  38  14
M  END
>  <minimizedAffinity>  (1) 
-5.0385828

>  <minimizedRMSD>  (1) 
4.55531549

$$$$
