
     RDKit          3D

 31 32  0  0  0  0  0  0  0  0999 V2000
   45.6330   35.1030   42.9160 C   0  0  0  0  0  0  0  0  0  0  0  0
   45.0890   34.5570   45.2810 C   0  0  0  0  0  0  0  0  0  0  0  0
   45.8880   34.2960   44.1300 C   0  0  0  0  0  0  0  0  0  0  0  0
   46.8640   33.2830   44.2430 C   0  0  0  0  0  0  0  0  0  0  0  0
   46.9890   32.6230   45.4160 N   0  0  0  0  0  0  0  0  0  0  0  0
   46.2180   32.8970   46.4760 C   0  0  0  0  0  0  0  0  0  0  0  0
   45.2690   33.8650   46.4040 N   0  0  0  0  0  0  0  0  0  0  0  0
   46.8580   35.1580   42.0650 C   0  0  0  0  0  0  0  0  0  0  0  0
   45.2080   36.4780   43.3200 C   0  0  0  0  0  0  0  0  0  0  0  0
   44.4580   34.4850   42.1740 C   0  0  0  0  0  0  0  0  0  0  0  0
   43.3570   35.2870   42.2770 O   0  0  0  0  0  0  0  0  0  0  0  0
   42.4790   35.3800   41.1930 C   0  0  0  0  0  0  0  0  0  0  0  0
   41.1560   35.7590   41.3620 C   0  0  0  0  0  0  0  0  0  0  0  0
   40.2860   35.8540   40.3060 C   0  0  0  0  0  0  0  0  0  0  0  0
   40.7670   35.5620   39.0790 N   0  0  0  0  0  0  0  0  0  0  0  0
   42.0430   35.1930   38.8900 C   0  0  0  0  0  0  0  0  0  0  0  0
   42.8720   35.1070   39.9370 N   0  0  0  0  0  0  0  0  0  0  0  0
   44.3157   35.3382   45.2410 H   0  0  0  0  0  0  0  0  0  0  0  0
   47.5127   33.0344   43.3901 H   0  0  0  0  0  0  0  0  0  0  0  0
   46.3545   32.3341   47.4111 H   0  0  0  0  0  0  0  0  0  0  0  0
   47.7496   35.1980   42.7080 H   0  0  0  0  0  0  0  0  0  0  0  0
   46.9039   34.2610   41.4299 H   0  0  0  0  0  0  0  0  0  0  0  0
   46.8233   36.0555   41.4299 H   0  0  0  0  0  0  0  0  0  0  0  0
   45.1865   36.5475   44.4176 H   0  0  0  0  0  0  0  0  0  0  0  0
   45.9205   37.2144   42.9199 H   0  0  0  0  0  0  0  0  0  0  0  0
   44.2043   36.6839   42.9199 H   0  0  0  0  0  0  0  0  0  0  0  0
   44.2316   33.5004   42.6090 H   0  0  0  0  0  0  0  0  0  0  0  0
   44.7230   34.3761   41.1120 H   0  0  0  0  0  0  0  0  0  0  0  0
   40.7930   35.9906   42.3742 H   0  0  0  0  0  0  0  0  0  0  0  0
   39.2385   36.1560   40.4530 H   0  0  0  0  0  0  0  0  0  0  0  0
   42.4065   34.9619   37.8778 H   0  0  0  0  0  0  0  0  0  0  0  0
  1  9  1  0
  1  3  1  0
  2  7  2  0
  3  4  2  0
  3  2  1  0
  4  5  1  0
  5  6  2  0
  7  6  1  0
  8  1  1  0
 10 11  1  0
 10  1  1  0
 12 13  2  0
 12 11  1  0
 14 13  1  0
 15 14  2  0
 16 15  1  0
 16 17  2  0
 17 12  1  0
  2 18  1  0
  4 19  1  0
  6 20  1  0
  8 21  1  0
  8 22  1  0
  8 23  1  0
  9 24  1  0
  9 25  1  0
  9 26  1  0
 10 27  1  0
 10 28  1  0
 13 29  1  0
 14 30  1  0
 16 31  1  0
M  ISO  8  18  14  19  14  20  14  21   8  22   8  23   8  24   8  25   8
M  ISO  6  26   8  27   8  28   8  29  14  30  14  31  14
M  END
>  <minimizedAffinity>  (1) 
-4.97767162

>  <minimizedRMSD>  (1) 
1.29777801

$$$$
