
     RDKit          3D

 38 41  0  0  1  0  0  0  0  0999 V2000
   45.0080   32.5010   47.7460 C   0  0  0  0  0  0  0  0  0  0  0  0
   46.1100   32.0710   47.0010 C   0  0  0  0  0  0  0  0  0  0  0  0
   46.7180   30.8210   47.3190 C   0  0  0  0  0  0  0  0  0  0  0  0
   46.1930   30.0990   48.3460 N   0  0  0  0  0  0  0  0  0  0  0  0
   45.1150   30.5440   49.0580 C   0  0  0  0  0  0  0  0  0  0  0  0
   44.5330   31.7320   48.7580 N   0  0  0  0  0  0  0  0  0  0  0  0
   46.5840   32.8890   45.8880 C   0  0  2  0  0  0  0  0  0  0  0  0
   45.5060   34.0400   45.6840 C   0  0  0  0  0  0  0  0  0  0  0  0
   45.4420   34.6860   44.4180 C   0  0  0  0  0  0  0  0  0  0  0  0
   46.3380   34.2710   43.3560 C   0  0  0  0  0  0  0  0  0  0  0  0
   47.4590   33.3960   43.7450 C   0  0  0  0  0  0  0  0  0  0  0  0
   46.8540   32.2710   44.6160 C   0  0  0  0  0  0  0  0  0  0  0  0
   47.8590   30.1410   46.8050 C   0  0  0  0  0  0  0  0  0  0  0  0
   48.3020   29.4340   45.7050 C   0  0  0  0  0  0  0  0  0  0  0  0
   49.5480   28.9700   45.8200 N   0  0  0  0  0  0  0  0  0  0  0  0
   50.0200   29.3290   47.0020 C   0  0  0  0  0  0  0  0  0  0  0  0
   51.2370   29.1030   47.5890 C   0  0  0  0  0  0  0  0  0  0  0  0
   51.5130   29.5870   48.8490 C   0  0  0  0  0  0  0  0  0  0  0  0
   50.5350   30.3090   49.5170 C   0  0  0  0  0  0  0  0  0  0  0  0
   49.3290   30.5080   48.8830 C   0  0  0  0  0  0  0  0  0  0  0  0
   49.0030   30.0440   47.6170 C   0  0  0  0  0  0  0  0  0  0  0  0
   44.5264   33.4619   47.5120 H   0  0  0  0  0  0  0  0  0  0  0  0
   44.7157   29.9337   49.8815 H   0  0  0  0  0  0  0  0  0  0  0  0
   47.5882   33.2162   46.1956 H   0  0  0  0  0  0  0  0  0  0  0  0
   44.8276   34.3292   46.5002 H   0  0  0  0  0  0  0  0  0  0  0  0
   44.7172   35.4954   44.2458 H   0  0  0  0  0  0  0  0  0  0  0  0
   46.7641   35.1790   42.9044 H   0  0  0  0  0  0  0  0  0  0  0  0
   45.7210   33.6676   42.6740 H   0  0  0  0  0  0  0  0  0  0  0  0
   47.9365   32.9693   42.8506 H   0  0  0  0  0  0  0  0  0  0  0  0
   48.2289   33.9561   44.2960 H   0  0  0  0  0  0  0  0  0  0  0  0
   45.9251   31.8908   44.1659 H   0  0  0  0  0  0  0  0  0  0  0  0
   47.5332   31.4109   44.7104 H   0  0  0  0  0  0  0  0  0  0  0  0
   47.6820   29.2677   44.8117 H   0  0  0  0  0  0  0  0  0  0  0  0
   50.0558   28.4248   45.1088 H   0  0  0  0  0  0  0  0  0  0  0  0
   52.0030   28.5282   47.0478 H   0  0  0  0  0  0  0  0  0  0  0  0
   52.4916   29.4041   49.3170 H   0  0  0  0  0  0  0  0  0  0  0  0
   50.7176   30.7111   50.5244 H   0  0  0  0  0  0  0  0  0  0  0  0
   48.5620   31.0813   49.4242 H   0  0  0  0  0  0  0  0  0  0  0  0
  1  6  2  0
  2  3  2  0
  2  1  1  0
  3  4  1  0
  4  5  2  0
  6  5  1  0
  7  2  1  0
  8  7  1  0
  9  8  2  0
 10 11  1  0
 10  9  1  0
 11 12  1  0
 12  7  1  0
 13  3  1  0
 13 21  1  0
 14 15  1  0
 14 13  2  0
 15 16  1  0
 16 17  1  0
 16 21  2  0
 17 18  2  0
 18 19  1  0
 20 19  2  0
 21 20  1  0
  1 22  1  0
  5 23  1  0
  7 24  1  1
  8 25  1  0
  9 26  1  0
 10 27  1  0
 10 28  1  0
 11 29  1  0
 11 30  1  0
 12 31  1  0
 12 32  1  0
 14 33  1  0
 15 34  1  0
 17 35  1  0
 18 36  1  0
 19 37  1  0
 20 38  1  0
M  ISO  8  22  14  23  14  24  13  25  13  26  13  27  13  28  13  29  13
M  ISO  8  30  13  31  13  32  13  33  14  34   9  35  14  36  14  37  14
M  ISO  1  38  14
M  END
>  <minimizedAffinity>  (1) 
-4.86558056

>  <minimizedRMSD>  (1) 
3.45412755

$$$$
