
     RDKit          3D

 40 43  0  0  1  0  0  0  0  0999 V2000
   45.8670   32.7750   46.8730 C   0  0  0  0  0  0  0  0  0  0  0  0
   45.9540   32.7040   45.4910 C   0  0  0  0  0  0  0  0  0  0  0  0
   45.9500   31.4290   44.8660 C   0  0  0  0  0  0  0  0  0  0  0  0
   45.8670   30.3010   45.6310 N   0  0  0  0  0  0  0  0  0  0  0  0
   45.7860   30.4110   47.0020 C   0  0  0  0  0  0  0  0  0  0  0  0
   45.7860   31.6350   47.6010 N   0  0  0  0  0  0  0  0  0  0  0  0
   45.9490   33.9350   44.7350 C   0  0  2  0  0  0  0  0  0  0  0  0
   44.9210   34.9250   45.3810 C   0  0  0  0  0  0  0  0  0  0  0  0
   44.5280   36.0600   44.5680 C   0  0  0  0  0  0  0  0  0  0  0  0
   45.0540   36.2220   43.2200 C   0  0  0  0  0  0  0  0  0  0  0  0
   46.0720   35.2790   42.7640 C   0  0  0  0  0  0  0  0  0  0  0  0
   45.9180   33.9050   43.3070 C   0  0  0  0  0  0  0  0  0  0  0  0
   46.0020   30.9460   43.5200 C   0  0  0  0  0  0  0  0  0  0  0  0
   44.9340   30.5590   42.7230 C   0  0  0  0  0  0  0  0  0  0  0  0
   44.9160   30.1700   41.4000 C   0  0  0  0  0  0  0  0  0  0  0  0
   46.1510   30.1840   40.8430 C   0  0  0  0  0  0  0  0  0  0  0  0
   47.2910   30.5370   41.4860 C   0  0  0  0  0  0  0  0  0  0  0  0
   48.4960   30.5010   40.7860 C   0  0  0  0  0  0  0  0  0  0  0  0
   49.6590   30.8450   41.4100 C   0  0  0  0  0  0  0  0  0  0  0  0
   49.5820   31.2210   42.7340 C   0  0  0  0  0  0  0  0  0  0  0  0
   48.3900   31.2570   43.4290 C   0  0  0  0  0  0  0  0  0  0  0  0
   47.2180   30.9140   42.8150 C   0  0  0  0  0  0  0  0  0  0  0  0
   45.8637   33.7530   47.3765 H   0  0  0  0  0  0  0  0  0  0  0  0
   45.7207   29.5025   47.6187 H   0  0  0  0  0  0  0  0  0  0  0  0
   46.9807   34.3039   44.8327 H   0  0  0  0  0  0  0  0  0  0  0  0
   44.5202   34.7683   46.3933 H   0  0  0  0  0  0  0  0  0  0  0  0
   43.8268   36.8045   44.9731 H   0  0  0  0  0  0  0  0  0  0  0  0
   44.2040   36.1470   42.5258 H   0  0  0  0  0  0  0  0  0  0  0  0
   45.5688   37.1939   43.2406 H   0  0  0  0  0  0  0  0  0  0  0  0
   46.0234   35.2234   41.6665 H   0  0  0  0  0  0  0  0  0  0  0  0
   47.0382   35.6564   43.1300 H   0  0  0  0  0  0  0  0  0  0  0  0
   44.9569   33.4873   42.9727 H   0  0  0  0  0  0  0  0  0  0  0  0
   46.7455   33.2789   42.9420 H   0  0  0  0  0  0  0  0  0  0  0  0
   43.9536   30.5631   43.2218 H   0  0  0  0  0  0  0  0  0  0  0  0
   44.0030   29.8813   40.8587 H   0  0  0  0  0  0  0  0  0  0  0  0
   46.2351   29.8859   39.7875 H   0  0  0  0  0  0  0  0  0  0  0  0
   48.5089   30.1949   39.7295 H   0  0  0  0  0  0  0  0  0  0  0  0
   50.6212   30.8232   40.8773 H   0  0  0  0  0  0  0  0  0  0  0  0
   50.5073   31.5036   43.2574 H   0  0  0  0  0  0  0  0  0  0  0  0
   48.3832   31.5641   44.4852 H   0  0  0  0  0  0  0  0  0  0  0  0
  1  6  2  0
  2  1  1  0
  3  2  2  0
  3  4  1  0
  4  5  2  0
  5  6  1  0
  7  8  1  0
  7  2  1  0
  9  8  2  0
 10  9  1  0
 11 10  1  0
 11 12  1  0
 12  7  1  0
 13  3  1  0
 14 13  2  0
 15 14  1  0
 16 15  2  0
 16 17  1  0
 17 22  2  0
 18 19  2  0
 18 17  1  0
 19 20  1  0
 20 21  2  0
 22 21  1  0
 22 13  1  0
  1 23  1  0
  5 24  1  0
  7 25  1  6
  8 26  1  0
  9 27  1  0
 10 28  1  0
 10 29  1  0
 11 30  1  0
 11 31  1  0
 12 32  1  0
 12 33  1  0
 14 34  1  0
 15 35  1  0
 16 36  1  0
 18 37  1  0
 19 38  1  0
 20 39  1  0
 21 40  1  0
M  ISO  8  23  14  24  14  25  13  26  13  27  13  28  13  29  13  30  13
M  ISO  8  31  13  32  13  33  13  34  14  35  14  36  14  37  14  38  14
M  ISO  2  39  14  40  14
M  END
>  <minimizedAffinity>  (1) 
-4.71810865

>  <minimizedRMSD>  (1) 
1.09832537

$$$$
