
     RDKit          3D

 38 39  0  0  0  0  0  0  0  0999 V2000
   45.6270   35.1120   42.9110 C   0  0  0  0  0  0  0  0  0  0  0  0
   45.1070   34.5450   45.2690 C   0  0  0  0  0  0  0  0  0  0  0  0
   45.8990   34.2840   44.1240 C   0  0  0  0  0  0  0  0  0  0  0  0
   46.8640   33.2820   44.2160 C   0  0  0  0  0  0  0  0  0  0  0  0
   46.9950   32.6170   45.3830 N   0  0  0  0  0  0  0  0  0  0  0  0
   46.2280   32.8840   46.4590 C   0  0  0  0  0  0  0  0  0  0  0  0
   45.2790   33.8510   46.4040 N   0  0  0  0  0  0  0  0  0  0  0  0
   46.8540   35.1440   42.0510 C   0  0  0  0  0  0  0  0  0  0  0  0
   45.2400   36.5010   43.3490 C   0  0  0  0  0  0  0  0  0  0  0  0
   44.4310   34.5230   42.1750 C   0  0  0  0  0  0  0  0  0  0  0  0
   43.3500   35.3270   42.3530 O   0  0  0  0  0  0  0  0  0  0  0  0
   40.8200   35.6760   39.1070 N   0  0  0  0  0  0  0  0  0  0  0  0
   41.9530   34.8460   38.9610 C   0  0  0  0  0  0  0  0  0  0  0  0
   42.9350   34.7760   40.0540 C   0  0  0  0  0  0  0  0  0  0  0  0
   42.5430   35.5490   41.2730 C   0  0  0  0  0  0  0  0  0  0  0  0
   41.0880   35.2540   41.5190 C   0  0  0  0  0  0  0  0  0  0  0  0
   40.3290   35.9300   40.4080 C   0  0  0  0  0  0  0  0  0  0  0  0
   44.3378   35.3302   45.2267 H   0  0  0  0  0  0  0  0  0  0  0  0
   47.5049   33.0387   43.3558 H   0  0  0  0  0  0  0  0  0  0  0  0
   46.3730   32.3134   47.3882 H   0  0  0  0  0  0  0  0  0  0  0  0
   47.7491   35.1673   42.6900 H   0  0  0  0  0  0  0  0  0  0  0  0
   46.8802   34.2462   41.4159 H   0  0  0  0  0  0  0  0  0  0  0  0
   46.8333   36.0419   41.4159 H   0  0  0  0  0  0  0  0  0  0  0  0
   45.2267   36.5486   44.4479 H   0  0  0  0  0  0  0  0  0  0  0  0
   45.9706   37.2252   42.9594 H   0  0  0  0  0  0  0  0  0  0  0  0
   44.2402   36.7431   42.9594 H   0  0  0  0  0  0  0  0  0  0  0  0
   44.2125   33.5210   42.5729 H   0  0  0  0  0  0  0  0  0  0  0  0
   44.6606   34.4487   41.1018 H   0  0  0  0  0  0  0  0  0  0  0  0
   40.0542   35.2406   38.5734 H   0  0  0  0  0  0  0  0  0  0  0  0
   41.5834   33.8234   38.7946 H   0  0  0  0  0  0  0  0  0  0  0  0
   42.5126   35.3088   38.1348 H   0  0  0  0  0  0  0  0  0  0  0  0
   43.0612   33.7210   40.3389 H   0  0  0  0  0  0  0  0  0  0  0  0
   43.8649   35.2263   39.6764 H   0  0  0  0  0  0  0  0  0  0  0  0
   42.6835   36.6265   41.1020 H   0  0  0  0  0  0  0  0  0  0  0  0
   40.9099   34.1687   41.4972 H   0  0  0  0  0  0  0  0  0  0  0  0
   40.7658   35.6198   42.5051 H   0  0  0  0  0  0  0  0  0  0  0  0
   40.3666   37.0157   40.5807 H   0  0  0  0  0  0  0  0  0  0  0  0
   39.3097   35.5175   40.4373 H   0  0  0  0  0  0  0  0  0  0  0  0
  1  9  1  0
  1  3  1  0
  2  7  2  0
  3  4  2  0
  3  2  1  0
  4  5  1  0
  5  6  2  0
  7  6  1  0
  8  1  1  0
 10 11  1  0
 10  1  1  0
 12 17  1  0
 13 12  1  0
 13 14  1  0
 14 15  1  0
 15 16  1  0
 15 11  1  0
 17 16  1  0
  2 18  1  0
  4 19  1  0
  6 20  1  0
  8 21  1  0
  8 22  1  0
  8 23  1  0
  9 24  1  0
  9 25  1  0
  9 26  1  0
 10 27  1  0
 10 28  1  0
 12 29  1  0
 13 30  1  0
 13 31  1  0
 14 32  1  0
 14 33  1  0
 15 34  1  0
 16 35  1  0
 16 36  1  0
 17 37  1  0
 17 38  1  0
M  ISO  8  18  14  19  14  20  14  21   8  22   8  23   8  24   8  25   8
M  ISO  8  26   8  27   8  28   8  29   5  30  13  31  13  32  13  33  13
M  ISO  5  34  13  35  13  36  13  37  13  38  13
M  END
>  <minimizedAffinity>  (1) 
-4.96646166

>  <minimizedRMSD>  (1) 
1.36199331

$$$$
