
     RDKit          3D

 32 34  0  0  1  0  0  0  0  0999 V2000
   45.2070   32.9810   47.4510 C   0  0  0  0  0  0  0  0  0  0  0  0
   45.8040   32.7470   46.2150 C   0  0  0  0  0  0  0  0  0  0  0  0
   46.2340   31.4240   45.8980 C   0  0  0  0  0  0  0  0  0  0  0  0
   46.0460   30.4320   46.8250 N   0  0  0  0  0  0  0  0  0  0  0  0
   45.4560   30.7050   48.0300 C   0  0  0  0  0  0  0  0  0  0  0  0
   45.0460   31.9660   48.3250 N   0  0  0  0  0  0  0  0  0  0  0  0
   45.9120   33.8400   45.2740 C   0  0  2  0  0  0  0  0  0  0  0  0
   44.8590   34.9320   45.6330 C   0  0  0  0  0  0  0  0  0  0  0  0
   44.5170   35.8710   44.6010 C   0  0  0  0  0  0  0  0  0  0  0  0
   45.1160   35.7740   43.2770 C   0  0  0  0  0  0  0  0  0  0  0  0
   46.2450   34.8540   43.1340 C   0  0  0  0  0  0  0  0  0  0  0  0
   46.0560   33.5770   43.8800 C   0  0  0  0  0  0  0  0  0  0  0  0
   46.8250   30.7850   44.7600 C   0  0  0  0  0  0  0  0  0  0  0  0
   48.0670   30.7230   44.1710 C   0  0  0  0  0  0  0  0  0  0  0  0
   48.4320   30.0900   43.0210 C   0  0  0  0  0  0  0  0  0  0  0  0
   47.4540   29.4440   42.3810 N   0  0  0  0  0  0  0  0  0  0  0  0
   46.2090   29.4450   42.8760 C   0  0  0  0  0  0  0  0  0  0  0  0
   45.9130   30.0830   44.0050 N   0  0  0  0  0  0  0  0  0  0  0  0
   44.8667   33.9933   47.7147 H   0  0  0  0  0  0  0  0  0  0  0  0
   45.3131   29.8981   48.7638 H   0  0  0  0  0  0  0  0  0  0  0  0
   46.9340   34.2173   45.4263 H   0  0  0  0  0  0  0  0  0  0  0  0
   44.3989   34.9813   46.6309 H   0  0  0  0  0  0  0  0  0  0  0  0
   43.7943   36.6726   44.8132 H   0  0  0  0  0  0  0  0  0  0  0  0
   44.3307   35.4495   42.5785 H   0  0  0  0  0  0  0  0  0  0  0  0
   45.5283   36.7729   43.0715 H   0  0  0  0  0  0  0  0  0  0  0  0
   46.3735   34.6204   42.0668 H   0  0  0  0  0  0  0  0  0  0  0  0
   47.1303   35.3526   43.5556 H   0  0  0  0  0  0  0  0  0  0  0  0
   45.1525   33.0701   43.5103 H   0  0  0  0  0  0  0  0  0  0  0  0
   46.9358   32.9355   43.7239 H   0  0  0  0  0  0  0  0  0  0  0  0
   48.8722   31.2552   44.6987 H   0  0  0  0  0  0  0  0  0  0  0  0
   49.4652   30.1098   42.6442 H   0  0  0  0  0  0  0  0  0  0  0  0
   45.4150   28.9069   42.3375 H   0  0  0  0  0  0  0  0  0  0  0  0
  1  6  2  0
  2  1  1  0
  3  2  2  0
  3  4  1  0
  4  5  2  0
  5  6  1  0
  7  8  1  0
  7  2  1  0
  9  8  2  0
 10  9  1  0
 11 10  1  0
 11 12  1  0
 12  7  1  0
 13  3  1  0
 14 13  2  0
 15 14  1  0
 16 17  1  0
 16 15  2  0
 17 18  2  0
 18 13  1  0
  1 19  1  0
  5 20  1  0
  7 21  1  1
  8 22  1  0
  9 23  1  0
 10 24  1  0
 10 25  1  0
 11 26  1  0
 11 27  1  0
 12 28  1  0
 12 29  1  0
 14 30  1  0
 15 31  1  0
 17 32  1  0
M  ISO  8  19  14  20  14  21  13  22  13  23  13  24  13  25  13  26  13
M  ISO  6  27  13  28  13  29  13  30  14  31  14  32  14
M  END
>  <minimizedAffinity>  (1) 
-4.42895317

>  <minimizedRMSD>  (1) 
0.660760939

$$$$
