
     RDKit          3D

 33 35  0  0  1  0  0  0  0  0999 V2000
   45.2450   33.0270   47.4330 C   0  0  0  0  0  0  0  0  0  0  0  0
   45.7330   32.7570   46.1540 C   0  0  0  0  0  0  0  0  0  0  0  0
   46.0620   31.4110   45.8160 C   0  0  0  0  0  0  0  0  0  0  0  0
   45.8950   30.4350   46.7520 N   0  0  0  0  0  0  0  0  0  0  0  0
   45.4160   30.7390   48.0000 C   0  0  0  0  0  0  0  0  0  0  0  0
   45.0980   32.0160   48.3240 N   0  0  0  0  0  0  0  0  0  0  0  0
   45.8590   33.8400   45.2160 C   0  0  2  0  0  0  0  0  0  0  0  0
   44.8450   34.9570   45.5840 C   0  0  0  0  0  0  0  0  0  0  0  0
   44.5670   35.9280   44.5760 C   0  0  0  0  0  0  0  0  0  0  0  0
   45.1940   35.8490   43.2620 C   0  0  0  0  0  0  0  0  0  0  0  0
   46.2530   34.8530   43.0880 C   0  0  0  0  0  0  0  0  0  0  0  0
   45.9990   33.5770   43.8180 C   0  0  0  0  0  0  0  0  0  0  0  0
   46.5330   30.7780   44.6140 C   0  0  0  0  0  0  0  0  0  0  0  0
   47.9370   30.7000   44.5150 C   0  0  0  0  0  0  0  0  0  0  0  0
   48.7150   30.1850   43.4760 C   0  0  0  0  0  0  0  0  0  0  0  0
   47.9570   29.7040   42.4370 C   0  0  0  0  0  0  0  0  0  0  0  0
   46.5860   29.7440   42.4580 C   0  0  0  0  0  0  0  0  0  0  0  0
   46.0060   30.2580   43.5040 N   0  0  0  0  0  0  0  0  0  0  0  0
   44.9806   34.0562   47.7172 H   0  0  0  0  0  0  0  0  0  0  0  0
   45.2887   29.9396   48.7448 H   0  0  0  0  0  0  0  0  0  0  0  0
   46.8920   34.1899   45.3589 H   0  0  0  0  0  0  0  0  0  0  0  0
   44.3648   34.9977   46.5728 H   0  0  0  0  0  0  0  0  0  0  0  0
   43.8684   36.7493   44.7938 H   0  0  0  0  0  0  0  0  0  0  0  0
   44.4038   35.6240   42.5306 H   0  0  0  0  0  0  0  0  0  0  0  0
   45.6912   36.8206   43.1246 H   0  0  0  0  0  0  0  0  0  0  0  0
   46.3454   34.6275   42.0153 H   0  0  0  0  0  0  0  0  0  0  0  0
   47.1742   35.2855   43.5056 H   0  0  0  0  0  0  0  0  0  0  0  0
   45.0749   33.1166   43.4385 H   0  0  0  0  0  0  0  0  0  0  0  0
   46.8455   32.8926   43.6596 H   0  0  0  0  0  0  0  0  0  0  0  0
   48.4963   31.0995   45.3738 H   0  0  0  0  0  0  0  0  0  0  0  0
   49.8148   30.1667   43.4885 H   0  0  0  0  0  0  0  0  0  0  0  0
   48.4646   29.2735   41.5612 H   0  0  0  0  0  0  0  0  0  0  0  0
   45.9947   29.3536   41.6166 H   0  0  0  0  0  0  0  0  0  0  0  0
  1  6  2  0
  2  1  1  0
  3  2  2  0
  3  4  1  0
  4  5  2  0
  5  6  1  0
  7  8  1  0
  7  2  1  0
  9  8  2  0
 10  9  1  0
 11 10  1  0
 11 12  1  0
 12  7  1  0
 13  3  1  0
 14 13  2  0
 15 14  1  0
 16 17  1  0
 16 15  2  0
 17 18  2  0
 18 13  1  0
  1 19  1  0
  5 20  1  0
  7 21  1  1
  8 22  1  0
  9 23  1  0
 10 24  1  0
 10 25  1  0
 11 26  1  0
 11 27  1  0
 12 28  1  0
 12 29  1  0
 14 30  1  0
 15 31  1  0
 16 32  1  0
 17 33  1  0
M  ISO  8  19  14  20  14  21  13  22  13  23  13  24  13  25  13  26  13
M  ISO  7  27  13  28  13  29  13  30  14  31  14  32  14  33  14
M  END
>  <minimizedAffinity>  (1) 
-4.46394873

>  <minimizedRMSD>  (1) 
0.397407681

$$$$
