
     RDKit          3D

 31 33  0  0  1  0  0  0  0  0999 V2000
   46.0550   33.6050   45.5340 C   0  0  2  0  0  0  0  0  0  0  0  0
   44.9300   34.7190   45.8190 C   0  0  0  0  0  0  0  0  0  0  0  0
   44.5530   35.6370   44.7780 C   0  0  0  0  0  0  0  0  0  0  0  0
   45.1890   35.5350   43.4880 C   0  0  0  0  0  0  0  0  0  0  0  0
   46.2940   34.6150   43.3710 C   0  0  0  0  0  0  0  0  0  0  0  0
   46.1490   33.3410   44.1550 C   0  0  0  0  0  0  0  0  0  0  0  0
   45.2120   32.7850   47.7070 C   0  0  0  0  0  0  0  0  0  0  0  0
   45.8610   32.5570   46.4910 C   0  0  0  0  0  0  0  0  0  0  0  0
   46.1010   31.2280   46.2330 C   0  0  0  0  0  0  0  0  0  0  0  0
   45.7490   30.1850   47.0540 N   0  0  0  0  0  0  0  0  0  0  0  0
   45.1100   30.4790   48.2380 C   0  0  0  0  0  0  0  0  0  0  0  0
   44.8490   31.7750   48.5560 N   0  0  0  0  0  0  0  0  0  0  0  0
   46.6620   30.3950   45.2930 C   0  0  0  0  0  0  0  0  0  0  0  0
   47.9770   30.1140   45.8630 C   0  0  0  0  0  0  0  0  0  0  0  0
   48.8100   29.1910   45.2950 N   0  0  0  0  0  0  0  0  0  0  0  0
   48.0710   28.7520   44.2330 C   0  0  0  0  0  0  0  0  0  0  0  0
   46.9810   29.4930   44.3950 N   0  0  0  0  0  0  0  0  0  0  0  0
   47.0954   33.9122   45.7165 H   0  0  0  0  0  0  0  0  0  0  0  0
   44.4505   34.7785   46.8072 H   0  0  0  0  0  0  0  0  0  0  0  0
   43.7895   36.4068   44.9635 H   0  0  0  0  0  0  0  0  0  0  0  0
   44.4214   35.2248   42.7637 H   0  0  0  0  0  0  0  0  0  0  0  0
   45.6253   36.5283   43.3065 H   0  0  0  0  0  0  0  0  0  0  0  0
   46.4063   34.3507   42.3091 H   0  0  0  0  0  0  0  0  0  0  0  0
   47.1697   35.1335   43.7886 H   0  0  0  0  0  0  0  0  0  0  0  0
   45.2389   32.8179   43.8261 H   0  0  0  0  0  0  0  0  0  0  0  0
   47.0376   32.7174   43.9775 H   0  0  0  0  0  0  0  0  0  0  0  0
   44.9828   33.8217   47.9945 H   0  0  0  0  0  0  0  0  0  0  0  0
   44.8126   29.6705   48.9221 H   0  0  0  0  0  0  0  0  0  0  0  0
   48.3025   30.6541   46.7643 H   0  0  0  0  0  0  0  0  0  0  0  0
   48.3100   28.0013   43.4653 H   0  0  0  0  0  0  0  0  0  0  0  0
   46.2523   29.3298   43.6856 H   0  0  0  0  0  0  0  0  0  0  0  0
  1  2  1  0
  1  8  1  0
  3  2  2  0
  4  3  1  0
  5  4  1  0
  5  6  1  0
  6  1  1  0
  7 12  2  0
  8  7  1  0
  9  8  2  0
  9 10  1  0
 10 11  2  0
 11 12  1  0
 13 14  2  0
 13  9  1  0
 15 14  1  0
 16 17  1  0
 16 15  2  0
 17 13  1  0
  1 18  1  1
  2 19  1  0
  3 20  1  0
  4 21  1  0
  4 22  1  0
  5 23  1  0
  5 24  1  0
  6 25  1  0
  6 26  1  0
  7 27  1  0
 11 28  1  0
 14 29  1  0
 16 30  1  0
 17 31  1  0
M  ISO  8  18  13  19  13  20  13  21  13  22  13  23  13  24  13  25  13
M  ISO  6  26  13  27  14  28  14  29  14  30  14  31   9
M  END
>  <minimizedAffinity>  (1) 
-4.47526121

>  <minimizedRMSD>  (1) 
1.35209656

$$$$
