
     RDKit          3D

 34 36  0  0  1  0  0  0  0  0999 V2000
   45.2410   33.1600   47.2490 C   0  0  0  0  0  0  0  0  0  0  0  0
   45.8810   32.8740   46.0410 C   0  0  0  0  0  0  0  0  0  0  0  0
   46.7490   31.7520   45.9480 C   0  0  0  0  0  0  0  0  0  0  0  0
   46.9280   30.9900   47.0710 N   0  0  0  0  0  0  0  0  0  0  0  0
   46.2910   31.2940   48.2450 C   0  0  0  0  0  0  0  0  0  0  0  0
   45.4580   32.3640   48.3310 N   0  0  0  0  0  0  0  0  0  0  0  0
   45.6860   33.7140   44.8960 C   0  0  2  0  0  0  0  0  0  0  0  0
   44.9980   35.0370   45.3990 C   0  0  0  0  0  0  0  0  0  0  0  0
   44.4400   35.8930   44.4300 C   0  0  0  0  0  0  0  0  0  0  0  0
   44.4910   35.5420   43.0230 C   0  0  0  0  0  0  0  0  0  0  0  0
   45.3420   34.4160   42.6520 C   0  0  0  0  0  0  0  0  0  0  0  0
   45.1060   33.2660   43.6760 C   0  0  0  0  0  0  0  0  0  0  0  0
   47.5560   31.1780   44.9510 C   0  0  0  0  0  0  0  0  0  0  0  0
   47.9610   29.8390   45.1520 C   0  0  0  0  0  0  0  0  0  0  0  0
   48.7200   29.0470   44.2890 C   0  0  0  0  0  0  0  0  0  0  0  0
   49.0870   29.6770   43.1380 C   0  0  0  0  0  0  0  0  0  0  0  0
   48.7740   30.9700   42.7960 C   0  0  0  0  0  0  0  0  0  0  0  0
   48.0250   31.6290   43.7370 C   0  0  0  0  0  0  0  0  0  0  0  0
   44.5649   34.0244   47.3253 H   0  0  0  0  0  0  0  0  0  0  0  0
   46.4562   30.6629   49.1307 H   0  0  0  0  0  0  0  0  0  0  0  0
   46.7149   33.8013   44.5168 H   0  0  0  0  0  0  0  0  0  0  0  0
   44.9545   35.2844   46.4699 H   0  0  0  0  0  0  0  0  0  0  0  0
   43.9625   36.8336   44.7417 H   0  0  0  0  0  0  0  0  0  0  0  0
   43.4660   35.3029   42.7032 H   0  0  0  0  0  0  0  0  0  0  0  0
   44.9396   36.4151   42.5266 H   0  0  0  0  0  0  0  0  0  0  0  0
   45.0830   34.0717   41.6399 H   0  0  0  0  0  0  0  0  0  0  0  0
   46.3989   34.7207   42.6613 H   0  0  0  0  0  0  0  0  0  0  0  0
   44.0292   33.0837   43.8071 H   0  0  0  0  0  0  0  0  0  0  0  0
   45.5535   32.3204   43.3360 H   0  0  0  0  0  0  0  0  0  0  0  0
   47.6425   29.3684   46.0938 H   0  0  0  0  0  0  0  0  0  0  0  0
   48.9971   28.0073   44.5176 H   0  0  0  0  0  0  0  0  0  0  0  0
   49.6868   29.0993   42.4193 H   0  0  0  0  0  0  0  0  0  0  0  0
   49.0952   31.4350   41.8523 H   0  0  0  0  0  0  0  0  0  0  0  0
   47.7608   32.6669   43.4862 H   0  0  0  0  0  0  0  0  0  0  0  0
  1  6  2  0
  2  1  1  0
  3  2  2  0
  3  4  1  0
  4  5  2  0
  5  6  1  0
  7  8  1  0
  7  2  1  0
  9  8  2  0
 10  9  1  0
 11 10  1  0
 11 12  1  0
 12  7  1  0
 13 14  2  0
 13  3  1  0
 15 14  1  0
 16 15  2  0
 17 16  1  0
 17 18  2  0
 18 13  1  0
  1 19  1  0
  5 20  1  0
  7 21  1  6
  8 22  1  0
  9 23  1  0
 10 24  1  0
 10 25  1  0
 11 26  1  0
 11 27  1  0
 12 28  1  0
 12 29  1  0
 14 30  1  0
 15 31  1  0
 16 32  1  0
 17 33  1  0
 18 34  1  0
M  ISO  8  19  14  20  14  21  13  22  13  23  13  24  13  25  13  26  13
M  ISO  8  27  13  28  13  29  13  30  14  31  14  32  14  33  14  34  14
M  END
>  <minimizedAffinity>  (1) 
-4.43888855

>  <minimizedRMSD>  (1) 
1.266487

$$$$
