
     RDKit          3D

 35 37  0  0  1  0  0  0  0  0999 V2000
   45.2380   32.8730   47.5310 C   0  0  0  0  0  0  0  0  0  0  0  0
   45.7150   32.6240   46.2490 C   0  0  0  0  0  0  0  0  0  0  0  0
   46.0180   31.2740   45.8850 C   0  0  0  0  0  0  0  0  0  0  0  0
   45.8350   30.2830   46.7930 N   0  0  0  0  0  0  0  0  0  0  0  0
   45.3640   30.5710   48.0480 C   0  0  0  0  0  0  0  0  0  0  0  0
   45.0690   31.8460   48.4130 N   0  0  0  0  0  0  0  0  0  0  0  0
   45.8290   33.7000   45.2820 C   0  0  2  0  0  0  0  0  0  0  0  0
   44.8450   34.8510   45.7840 C   0  0  0  0  0  0  0  0  0  0  0  0
   44.5050   35.8940   44.8520 C   0  0  0  0  0  0  0  0  0  0  0  0
   45.0530   35.8350   43.5000 C   0  0  0  0  0  0  0  0  0  0  0  0
   45.9840   34.7580   43.1760 C   0  0  0  0  0  0  0  0  0  0  0  0
   45.5570   33.4740   43.8940 C   0  0  0  0  0  0  0  0  0  0  0  0
   46.5110   30.6690   44.7260 N   0  0  0  0  0  0  0  0  0  0  0  0
   47.8830   30.7110   44.7400 C   0  0  0  0  0  0  0  0  0  0  0  0
   48.6400   30.1570   43.7000 C   0  0  0  0  0  0  0  0  0  0  0  0
   47.9590   29.5660   42.6580 C   0  0  0  0  0  0  0  0  0  0  0  0
   48.6850   28.9800   41.5610 N   0  0  0  0  0  0  0  0  0  0  0  0
   46.6300   29.5320   42.6570 N   0  0  0  0  0  0  0  0  0  0  0  0
   45.9340   30.0690   43.6660 C   0  0  0  0  0  0  0  0  0  0  0  0
   44.6720   30.0910   43.7700 O   0  0  0  0  0  0  0  0  0  0  0  0
   44.9960   33.9020   47.8353 H   0  0  0  0  0  0  0  0  0  0  0  0
   45.2224   29.7553   48.7722 H   0  0  0  0  0  0  0  0  0  0  0  0
   46.9074   33.9166   45.2674 H   0  0  0  0  0  0  0  0  0  0  0  0
   44.4404   34.8477   46.8069 H   0  0  0  0  0  0  0  0  0  0  0  0
   43.8443   36.7204   45.1529 H   0  0  0  0  0  0  0  0  0  0  0  0
   44.2026   35.7495   42.8075 H   0  0  0  0  0  0  0  0  0  0  0  0
   45.6564   36.7505   43.4119 H   0  0  0  0  0  0  0  0  0  0  0  0
   45.9821   34.5874   42.0893 H   0  0  0  0  0  0  0  0  0  0  0  0
   46.9956   35.0397   43.5035 H   0  0  0  0  0  0  0  0  0  0  0  0
   44.4844   33.2858   43.7386 H   0  0  0  0  0  0  0  0  0  0  0  0
   46.0966   32.5951   43.5114 H   0  0  0  0  0  0  0  0  0  0  0  0
   48.3986   31.1897   45.5856 H   0  0  0  0  0  0  0  0  0  0  0  0
   49.7393   30.1924   43.7145 H   0  0  0  0  0  0  0  0  0  0  0  0
   48.1745   28.5386   40.7829 H   0  0  0  0  0  0  0  0  0  0  0  0
   49.7147   29.0023   41.5545 H   0  0  0  0  0  0  0  0  0  0  0  0
  1  6  2  0
  2  1  1  0
  3  2  2  0
  3  4  1  0
  4  5  2  0
  5  6  1  0
  7  8  1  0
  7  2  1  0
  9  8  2  0
 10  9  1  0
 11 10  1  0
 11 12  1  0
 12  7  1  0
 13 14  1  0
 13  3  1  0
 15 14  2  0
 16 15  1  0
 17 16  1  0
 18 16  2  0
 18 19  1  0
 19 20  2  0
 19 13  1  0
  1 21  1  0
  5 22  1  0
  7 23  1  6
  8 24  1  0
  9 25  1  0
 10 26  1  0
 10 27  1  0
 11 28  1  0
 11 29  1  0
 12 30  1  0
 12 31  1  0
 14 32  1  0
 15 33  1  0
 17 34  1  0
 17 35  1  0
M  ISO  8  21  14  22  14  23  13  24  13  25  13  26  13  27  13  28  13
M  ISO  5  29  13  30  13  31  13  32  14  33  14
M  END
>  <minimizedAffinity>  (1) 
-4.50575066

>  <minimizedRMSD>  (1) 
0.489975244

$$$$
