
     RDKit          3D

 33 34  0  0  1  0  0  0  0  0999 V2000
   47.4510   34.3340   42.7880 C   0  0  2  0  0  0  0  0  0  0  0  0
   46.6880   33.8530   41.5310 C   0  0  0  0  0  0  0  0  0  0  0  0
   47.2640   34.2930   40.2800 C   0  0  0  0  0  0  0  0  0  0  0  0
   48.4720   35.1110   40.2320 C   0  0  0  0  0  0  0  0  0  0  0  0
   48.9450   35.6620   41.5120 C   0  0  0  0  0  0  0  0  0  0  0  0
   48.8230   34.6510   42.6230 C   0  0  0  0  0  0  0  0  0  0  0  0
   46.0100   34.4110   44.7540 C   0  0  0  0  0  0  0  0  0  0  0  0
   46.8990   33.6990   43.9440 C   0  0  0  0  0  0  0  0  0  0  0  0
   47.3180   32.3540   44.2610 C   0  0  0  0  0  0  0  0  0  0  0  0
   46.8000   31.8370   45.4000 N   0  0  0  0  0  0  0  0  0  0  0  0
   45.9340   32.5460   46.1860 C   0  0  0  0  0  0  0  0  0  0  0  0
   45.5410   33.8130   45.8710 N   0  0  0  0  0  0  0  0  0  0  0  0
   48.1820   31.4590   43.5130 C   0  0  0  0  0  0  0  0  0  0  0  0
   49.2880   32.1730   42.7470 C   0  0  0  0  0  0  0  0  0  0  0  0
   47.3330   30.9250   42.3150 C   0  0  0  0  0  0  0  0  0  0  0  0
   47.2747   35.3930   43.0278 H   0  0  0  0  0  0  0  0  0  0  0  0
   45.7837   33.2290   41.5845 H   0  0  0  0  0  0  0  0  0  0  0  0
   46.7777   34.0029   39.3369 H   0  0  0  0  0  0  0  0  0  0  0  0
   49.2795   34.4899   39.8171 H   0  0  0  0  0  0  0  0  0  0  0  0
   48.2064   35.9855   39.6198 H   0  0  0  0  0  0  0  0  0  0  0  0
   50.0004   35.9542   41.4080 H   0  0  0  0  0  0  0  0  0  0  0  0
   48.3227   36.5329   41.7658 H   0  0  0  0  0  0  0  0  0  0  0  0
   49.3859   33.7425   42.3626 H   0  0  0  0  0  0  0  0  0  0  0  0
   49.2316   35.0635   43.5573 H   0  0  0  0  0  0  0  0  0  0  0  0
   45.7000   35.4325   44.4887 H   0  0  0  0  0  0  0  0  0  0  0  0
   45.5420   32.0791   47.1016 H   0  0  0  0  0  0  0  0  0  0  0  0
   48.5811   30.7394   44.2430 H   0  0  0  0  0  0  0  0  0  0  0  0
   49.9925   32.6278   43.4590 H   0  0  0  0  0  0  0  0  0  0  0  0
   49.8223   31.4489   42.1144 H   0  0  0  0  0  0  0  0  0  0  0  0
   48.8480   32.9580   42.1144 H   0  0  0  0  0  0  0  0  0  0  0  0
   46.4606   30.3763   42.6996 H   0  0  0  0  0  0  0  0  0  0  0  0
   46.9921   31.7716   41.7010 H   0  0  0  0  0  0  0  0  0  0  0  0
   47.9485   30.2511   41.7010 H   0  0  0  0  0  0  0  0  0  0  0  0
  1  8  1  0
  2  1  1  0
  3  2  2  0
  4  3  1  0
  4  5  1  0
  5  6  1  0
  6  1  1  0
  7 12  2  0
  8  9  2  0
  8  7  1  0
  9 10  1  0
 10 11  2  0
 12 11  1  0
 13  9  1  0
 14 13  1  0
 15 13  1  0
  1 16  1  1
  2 17  1  0
  3 18  1  0
  4 19  1  0
  4 20  1  0
  5 21  1  0
  5 22  1  0
  6 23  1  0
  6 24  1  0
  7 25  1  0
 11 26  1  0
 13 27  1  0
 14 28  1  0
 14 29  1  0
 14 30  1  0
 15 31  1  0
 15 32  1  0
 15 33  1  0
M  ISO  8  16  13  17  13  18  13  19  13  20  13  21  13  22  13  23  13
M  ISO  8  24  13  25  14  26  14  27   8  28   8  29   8  30   8  31   8
M  ISO  2  32   8  33   8
M  END
>  <minimizedAffinity>  (1) 
-4.40963268

>  <minimizedRMSD>  (1) 
3.23399854

$$$$
