
     RDKit          3D

 39 41  0  0  1  0  0  0  0  0999 V2000
   45.3400   33.0080   47.2420 C   0  0  0  0  0  0  0  0  0  0  0  0
   45.8100   32.7870   45.9560 C   0  0  0  0  0  0  0  0  0  0  0  0
   46.1110   31.4340   45.5980 C   0  0  0  0  0  0  0  0  0  0  0  0
   45.9380   30.4310   46.4870 N   0  0  0  0  0  0  0  0  0  0  0  0
   45.4710   30.7010   47.7480 C   0  0  0  0  0  0  0  0  0  0  0  0
   45.1760   31.9730   48.1160 N   0  0  0  0  0  0  0  0  0  0  0  0
   45.9110   33.8500   44.9840 C   0  0  2  0  0  0  0  0  0  0  0  0
   44.8750   34.9860   45.5160 C   0  0  0  0  0  0  0  0  0  0  0  0
   44.5360   36.0480   44.6100 C   0  0  0  0  0  0  0  0  0  0  0  0
   45.1270   36.0400   43.2580 C   0  0  0  0  0  0  0  0  0  0  0  0
   45.9110   34.8770   42.8500 C   0  0  0  0  0  0  0  0  0  0  0  0
   45.5000   33.6350   43.6140 C   0  0  0  0  0  0  0  0  0  0  0  0
   46.6620   30.8380   44.4510 N   0  0  0  0  0  0  0  0  0  0  0  0
   45.8670   30.0650   43.5070 C   0  0  0  0  0  0  0  0  0  0  0  0
   46.7670   29.4900   42.4530 C   0  0  0  0  0  0  0  0  0  0  0  0
   47.3770   30.6740   41.7240 C   0  0  0  0  0  0  0  0  0  0  0  0
   48.3200   31.3300   42.6960 C   0  0  0  0  0  0  0  0  0  0  0  0
   48.0850   30.9590   44.1200 C   0  0  0  0  0  0  0  0  0  0  0  0
   45.0961   34.0318   47.5618 H   0  0  0  0  0  0  0  0  0  0  0  0
   45.3346   29.8795   48.4667 H   0  0  0  0  0  0  0  0  0  0  0  0
   46.9905   34.0533   44.9263 H   0  0  0  0  0  0  0  0  0  0  0  0
   44.4507   34.9426   46.5299 H   0  0  0  0  0  0  0  0  0  0  0  0
   43.8499   36.8508   44.9178 H   0  0  0  0  0  0  0  0  0  0  0  0
   44.2994   36.1424   42.5406 H   0  0  0  0  0  0  0  0  0  0  0  0
   45.8550   36.8644   43.2760 H   0  0  0  0  0  0  0  0  0  0  0  0
   45.7582   34.7022   41.7748 H   0  0  0  0  0  0  0  0  0  0  0  0
   46.9699   35.0811   43.0668 H   0  0  0  0  0  0  0  0  0  0  0  0
   44.4100   33.4972   43.5600 H   0  0  0  0  0  0  0  0  0  0  0  0
   45.9662   32.7323   43.1924 H   0  0  0  0  0  0  0  0  0  0  0  0
   45.3563   29.2488   44.0390 H   0  0  0  0  0  0  0  0  0  0  0  0
   45.1182   30.7182   43.0351 H   0  0  0  0  0  0  0  0  0  0  0  0
   47.5562   28.8802   42.9169 H   0  0  0  0  0  0  0  0  0  0  0  0
   46.2107   28.8382   41.7633 H   0  0  0  0  0  0  0  0  0  0  0  0
   47.9252   30.3316   40.8339 H   0  0  0  0  0  0  0  0  0  0  0  0
   46.6015   31.3763   41.3843 H   0  0  0  0  0  0  0  0  0  0  0  0
   49.3471   31.0404   42.4291 H   0  0  0  0  0  0  0  0  0  0  0  0
   48.1493   32.4140   42.6194 H   0  0  0  0  0  0  0  0  0  0  0  0
   48.5743   29.9936   44.3165 H   0  0  0  0  0  0  0  0  0  0  0  0
   48.5015   31.7637   44.7437 H   0  0  0  0  0  0  0  0  0  0  0  0
  1  6  2  0
  2  1  1  0
  3  2  2  0
  3  4  1  0
  4  5  2  0
  5  6  1  0
  7  8  1  0
  7  2  1  0
  9  8  2  0
 10  9  1  0
 11 10  1  0
 11 12  1  0
 12  7  1  0
 13  3  1  0
 14 13  1  0
 15 14  1  0
 16 15  1  0
 16 17  1  0
 17 18  1  0
 18 13  1  0
  1 19  1  0
  5 20  1  0
  7 21  1  6
  8 22  1  0
  9 23  1  0
 10 24  1  0
 10 25  1  0
 11 26  1  0
 11 27  1  0
 12 28  1  0
 12 29  1  0
 14 30  1  0
 14 31  1  0
 15 32  1  0
 15 33  1  0
 16 34  1  0
 16 35  1  0
 17 36  1  0
 17 37  1  0
 18 38  1  0
 18 39  1  0
M  ISO  8  19  14  20  14  21  13  22  13  23  13  24  13  25  13  26  13
M  ISO  8  27  13  28  13  29  13  30  13  31  13  32  13  33  13  34  13
M  ISO  5  35  13  36  13  37  13  38  13  39  13
M  END
>  <minimizedAffinity>  (1) 
-4.41074467

>  <minimizedRMSD>  (1) 
0.957806349

$$$$
