
     RDKit          3D

 25 26  0  0  1  0  0  0  0  0999 V2000
   45.9780   33.7060   45.4750 C   0  0  2  0  0  0  0  0  0  0  0  0
   44.9110   34.7650   45.8660 C   0  0  0  0  0  0  0  0  0  0  0  0
   44.5270   35.6790   44.8350 C   0  0  0  0  0  0  0  0  0  0  0  0
   45.0960   35.5940   43.4960 C   0  0  0  0  0  0  0  0  0  0  0  0
   46.1250   34.5830   43.2520 C   0  0  0  0  0  0  0  0  0  0  0  0
   45.9470   33.3500   44.0710 C   0  0  0  0  0  0  0  0  0  0  0  0
   45.1540   32.8030   47.5870 C   0  0  0  0  0  0  0  0  0  0  0  0
   45.9630   32.6460   46.4610 C   0  0  0  0  0  0  0  0  0  0  0  0
   46.7420   31.4380   46.3090 C   0  0  0  0  0  0  0  0  0  0  0  0
   46.6660   30.4870   47.2800 N   0  0  0  0  0  0  0  0  0  0  0  0
   45.8650   30.6770   48.3720 C   0  0  0  0  0  0  0  0  0  0  0  0
   45.1230   31.8100   48.5230 N   0  0  0  0  0  0  0  0  0  0  0  0
   47.5360   31.2610   45.2130 O   0  0  0  0  0  0  0  0  0  0  0  0
   46.9939   34.1246   45.5264 H   0  0  0  0  0  0  0  0  0  0  0  0
   44.4766   34.8094   46.8756 H   0  0  0  0  0  0  0  0  0  0  0  0
   43.7871   36.4620   45.0573 H   0  0  0  0  0  0  0  0  0  0  0  0
   44.2679   35.3930   42.8004 H   0  0  0  0  0  0  0  0  0  0  0  0
   45.6140   36.5541   43.3551 H   0  0  0  0  0  0  0  0  0  0  0  0
   46.0942   34.3032   42.1886 H   0  0  0  0  0  0  0  0  0  0  0  0
   47.0908   35.0262   43.5365 H   0  0  0  0  0  0  0  0  0  0  0  0
   44.9801   32.8841   43.8302 H   0  0  0  0  0  0  0  0  0  0  0  0
   46.7563   32.6383   43.8508 H   0  0  0  0  0  0  0  0  0  0  0  0
   44.5504   33.7132   47.7184 H   0  0  0  0  0  0  0  0  0  0  0  0
   45.8186   29.8972   49.1464 H   0  0  0  0  0  0  0  0  0  0  0  0
   48.0669   30.4312   45.1152 H   0  0  0  0  0  0  0  0  0  0  0  0
  1  2  1  0
  1  8  1  0
  3  2  2  0
  4  3  1  0
  5  4  1  0
  5  6  1  0
  6  1  1  0
  7 12  2  0
  8  7  1  0
  9  8  2  0
  9 10  1  0
 10 11  2  0
 11 12  1  0
 13  9  1  0
  1 14  1  6
  2 15  1  0
  3 16  1  0
  4 17  1  0
  4 18  1  0
  5 19  1  0
  5 20  1  0
  6 21  1  0
  6 22  1  0
  7 23  1  0
 11 24  1  0
 13 25  1  0
M  ISO  8  14  13  15  13  16  13  17  13  18  13  19  13  20  13  21  13
M  ISO  4  22  13  23  14  24  14  25   3
M  END
>  <minimizedAffinity>  (1) 
-4.22615528

>  <minimizedRMSD>  (1) 
0.686066389

$$$$
