
     RDKit          3D

 30 32  0  0  1  0  0  0  0  0999 V2000
   45.8500   33.5470   45.4350 C   0  0  2  0  0  0  0  0  0  0  0  0
   44.9030   34.7430   45.8630 C   0  0  0  0  0  0  0  0  0  0  0  0
   44.5730   35.7000   44.8580 C   0  0  0  0  0  0  0  0  0  0  0  0
   45.0850   35.5450   43.5070 C   0  0  0  0  0  0  0  0  0  0  0  0
   46.1730   34.5810   43.3200 C   0  0  0  0  0  0  0  0  0  0  0  0
   45.7500   33.2800   44.0430 C   0  0  0  0  0  0  0  0  0  0  0  0
   45.2900   32.8320   47.7260 C   0  0  0  0  0  0  0  0  0  0  0  0
   45.6980   32.5090   46.4340 C   0  0  0  0  0  0  0  0  0  0  0  0
   45.9470   31.1600   46.1000 C   0  0  0  0  0  0  0  0  0  0  0  0
   45.7780   30.2060   47.0710 N   0  0  0  0  0  0  0  0  0  0  0  0
   45.3780   30.5510   48.3330 C   0  0  0  0  0  0  0  0  0  0  0  0
   45.1360   31.8520   48.6530 N   0  0  0  0  0  0  0  0  0  0  0  0
   46.4000   30.4930   44.9350 C   0  0  0  0  0  0  0  0  0  0  0  0
   47.9890   30.4670   44.7250 C   0  0  0  0  0  0  0  0  0  0  0  0
   48.0900   29.4870   43.1810 S   0  0  0  0  0  0  0  0  0  0  0  0
   46.2120   29.2670   43.0440 C   0  0  0  0  0  0  0  0  0  0  0  0
   45.7170   29.8590   44.0200 N   0  0  0  0  0  0  0  0  0  0  0  0
   46.9296   33.7559   45.4628 H   0  0  0  0  0  0  0  0  0  0  0  0
   44.5172   34.8314   46.8893 H   0  0  0  0  0  0  0  0  0  0  0  0
   43.9297   36.5570   45.1062 H   0  0  0  0  0  0  0  0  0  0  0  0
   44.2473   35.2297   42.8676 H   0  0  0  0  0  0  0  0  0  0  0  0
   45.5186   36.5225   43.2492 H   0  0  0  0  0  0  0  0  0  0  0  0
   46.3254   34.3858   42.2482 H   0  0  0  0  0  0  0  0  0  0  0  0
   47.1176   34.9692   43.7286 H   0  0  0  0  0  0  0  0  0  0  0  0
   44.7151   33.0167   43.7790 H   0  0  0  0  0  0  0  0  0  0  0  0
   46.3898   32.4341   43.7511 H   0  0  0  0  0  0  0  0  0  0  0  0
   45.0927   33.8802   47.9951 H   0  0  0  0  0  0  0  0  0  0  0  0
   45.2507   29.7696   49.0966 H   0  0  0  0  0  0  0  0  0  0  0  0
   48.7900   30.9110   45.3343 H   0  0  0  0  0  0  0  0  0  0  0  0
   45.6678   28.7236   42.2575 H   0  0  0  0  0  0  0  0  0  0  0  0
  1  2  1  0
  1  8  1  0
  3  2  2  0
  4  3  1  0
  5  4  1  0
  5  6  1  0
  6  1  1  0
  7 12  2  0
  8  7  1  0
  9  8  2  0
  9 10  1  0
 10 11  2  0
 11 12  1  0
 13  9  1  0
 14 13  2  0
 15 14  1  0
 16 15  1  0
 16 17  2  0
 17 13  1  0
  1 18  1  6
  2 19  1  0
  3 20  1  0
  4 21  1  0
  4 22  1  0
  5 23  1  0
  5 24  1  0
  6 25  1  0
  6 26  1  0
  7 27  1  0
 11 28  1  0
 14 29  1  0
 16 30  1  0
M  ISO  8  18  13  19  13  20  13  21  13  22  13  23  13  24  13  25  13
M  ISO  5  26  13  27  14  28  14  29  14  30  14
M  END
>  <minimizedAffinity>  (1) 
-4.25609493

>  <minimizedRMSD>  (1) 
0.852371931

$$$$
