
     RDKit          3D

 31 33  0  0  1  0  0  0  0  0999 V2000
   45.8320   33.8570   44.9790 C   0  0  2  0  0  0  0  0  0  0  0  0
   44.8980   34.9980   45.5050 C   0  0  0  0  0  0  0  0  0  0  0  0
   44.4670   35.9650   44.5590 C   0  0  0  0  0  0  0  0  0  0  0  0
   44.8730   35.8470   43.1670 C   0  0  0  0  0  0  0  0  0  0  0  0
   45.9680   34.9180   42.8540 C   0  0  0  0  0  0  0  0  0  0  0  0
   45.6290   33.5870   43.6030 C   0  0  0  0  0  0  0  0  0  0  0  0
   45.3070   33.0490   47.2540 C   0  0  0  0  0  0  0  0  0  0  0  0
   45.9040   32.8360   45.9920 C   0  0  0  0  0  0  0  0  0  0  0  0
   46.6300   31.6460   45.7230 C   0  0  0  0  0  0  0  0  0  0  0  0
   46.7100   30.7520   46.7620 N   0  0  0  0  0  0  0  0  0  0  0  0
   46.1330   30.9730   47.9720 C   0  0  0  0  0  0  0  0  0  0  0  0
   45.4340   32.1140   48.2150 N   0  0  0  0  0  0  0  0  0  0  0  0
   47.1700   31.0230   44.5830 C   0  0  0  0  0  0  0  0  0  0  0  0
   48.3010   31.0980   43.7460 C   0  0  0  0  0  0  0  0  0  0  0  0
   48.3620   30.3250   42.6570 C   0  0  0  0  0  0  0  0  0  0  0  0
   47.3410   29.4500   42.3300 C   0  0  0  0  0  0  0  0  0  0  0  0
   46.1760   29.7150   43.6470 S   0  0  0  0  0  0  0  0  0  0  0  0
   46.8949   34.1201   44.8738 H   0  0  0  0  0  0  0  0  0  0  0  0
   44.5896   35.0482   46.5597 H   0  0  0  0  0  0  0  0  0  0  0  0
   43.8276   36.8014   44.8778 H   0  0  0  0  0  0  0  0  0  0  0  0
   43.9921   35.5225   42.5936 H   0  0  0  0  0  0  0  0  0  0  0  0
   45.2662   36.8405   42.9055 H   0  0  0  0  0  0  0  0  0  0  0  0
   46.0231   34.7432   41.7694 H   0  0  0  0  0  0  0  0  0  0  0  0
   46.9419   35.3214   43.1684 H   0  0  0  0  0  0  0  0  0  0  0  0
   44.5833   33.2994   43.4191 H   0  0  0  0  0  0  0  0  0  0  0  0
   46.2592   32.7549   43.2560 H   0  0  0  0  0  0  0  0  0  0  0  0
   44.7422   33.9722   47.4507 H   0  0  0  0  0  0  0  0  0  0  0  0
   46.2326   30.2185   48.7662 H   0  0  0  0  0  0  0  0  0  0  0  0
   49.1253   31.7856   43.9862 H   0  0  0  0  0  0  0  0  0  0  0  0
   49.2456   30.3860   42.0047 H   0  0  0  0  0  0  0  0  0  0  0  0
   47.2685   28.7645   41.4728 H   0  0  0  0  0  0  0  0  0  0  0  0
  1  2  1  0
  1  8  1  0
  3  2  2  0
  4  3  1  0
  5  4  1  0
  5  6  1  0
  6  1  1  0
  7 12  2  0
  8  7  1  0
  9  8  2  0
  9 10  1  0
 10 11  2  0
 11 12  1  0
 13  9  1  0
 14 13  2  0
 15 14  1  0
 16 15  2  0
 16 17  1  0
 17 13  1  0
  1 18  1  6
  2 19  1  0
  3 20  1  0
  4 21  1  0
  4 22  1  0
  5 23  1  0
  5 24  1  0
  6 25  1  0
  6 26  1  0
  7 27  1  0
 11 28  1  0
 14 29  1  0
 15 30  1  0
 16 31  1  0
M  ISO  8  18  13  19  13  20  13  21  13  22  13  23  13  24  13  25  13
M  ISO  6  26  13  27  14  28  14  29  14  30  14  31  14
M  END
>  <minimizedAffinity>  (1) 
-4.26686907

>  <minimizedRMSD>  (1) 
1.06278634

$$$$
