
     RDKit          3D

 31 33  0  0  1  0  0  0  0  0999 V2000
   45.6650   33.7710   45.1860 C   0  0  2  0  0  0  0  0  0  0  0  0
   44.8310   34.9960   45.6930 C   0  0  0  0  0  0  0  0  0  0  0  0
   44.4590   35.9230   44.6500 C   0  0  0  0  0  0  0  0  0  0  0  0
   44.8440   35.6910   43.2380 C   0  0  0  0  0  0  0  0  0  0  0  0
   45.7220   34.5490   42.9550 C   0  0  0  0  0  0  0  0  0  0  0  0
   45.3010   33.3690   43.8780 C   0  0  0  0  0  0  0  0  0  0  0  0
   45.1880   33.0780   47.4980 C   0  0  0  0  0  0  0  0  0  0  0  0
   45.8580   32.8850   46.2980 C   0  0  0  0  0  0  0  0  0  0  0  0
   46.7640   31.8000   46.1540 C   0  0  0  0  0  0  0  0  0  0  0  0
   46.9540   30.9770   47.2190 N   0  0  0  0  0  0  0  0  0  0  0  0
   46.2790   31.1960   48.3890 C   0  0  0  0  0  0  0  0  0  0  0  0
   45.4060   32.2350   48.5240 N   0  0  0  0  0  0  0  0  0  0  0  0
   47.5700   31.2940   45.0240 C   0  0  0  0  0  0  0  0  0  0  0  0
   47.9730   29.7810   45.1640 C   0  0  0  0  0  0  0  0  0  0  0  0
   47.0560   30.2040   44.1300 C   0  0  0  0  0  0  0  0  0  0  0  0
   46.7117   33.9616   44.9065 H   0  0  0  0  0  0  0  0  0  0  0  0
   44.5537   35.1374   46.7480 H   0  0  0  0  0  0  0  0  0  0  0  0
   43.8776   36.8201   44.9092 H   0  0  0  0  0  0  0  0  0  0  0  0
   43.9175   35.5450   42.6633 H   0  0  0  0  0  0  0  0  0  0  0  0
   45.4353   36.5757   42.9592 H   0  0  0  0  0  0  0  0  0  0  0  0
   45.6182   34.2521   41.9009 H   0  0  0  0  0  0  0  0  0  0  0  0
   46.7710   34.8216   43.1427 H   0  0  0  0  0  0  0  0  0  0  0  0
   44.2161   33.1984   43.8150 H   0  0  0  0  0  0  0  0  0  0  0  0
   45.7883   32.4265   43.5876 H   0  0  0  0  0  0  0  0  0  0  0  0
   44.4830   33.9150   47.6097 H   0  0  0  0  0  0  0  0  0  0  0  0
   46.4443   30.5187   49.2399 H   0  0  0  0  0  0  0  0  0  0  0  0
   48.0304   32.2752   44.8359 H   0  0  0  0  0  0  0  0  0  0  0  0
   48.9896   29.4543   44.8997 H   0  0  0  0  0  0  0  0  0  0  0  0
   47.9471   29.0377   45.9745 H   0  0  0  0  0  0  0  0  0  0  0  0
   45.9984   29.9088   44.1963 H   0  0  0  0  0  0  0  0  0  0  0  0
   47.0436   30.0723   43.0380 H   0  0  0  0  0  0  0  0  0  0  0  0
  1  2  1  0
  1  8  1  0
  3  2  2  0
  4  3  1  0
  5  4  1  0
  5  6  1  0
  6  1  1  0
  7 12  2  0
  8  7  1  0
  9  8  2  0
  9 10  1  0
 10 11  2  0
 11 12  1  0
 13 14  1  0
 13  9  1  0
 15 13  1  0
 15 14  1  0
  1 16  1  6
  2 17  1  0
  3 18  1  0
  4 19  1  0
  4 20  1  0
  5 21  1  0
  5 22  1  0
  6 23  1  0
  6 24  1  0
  7 25  1  0
 11 26  1  0
 13 27  1  0
 14 28  1  0
 14 29  1  0
 15 30  1  0
 15 31  1  0
M  ISO  8  16  13  17  13  18  13  19  13  20  13  21  13  22  13  23  13
M  ISO  8  24  13  25  14  26  14  27  13  28  13  29  13  30  13  31  13
M  END
>  <minimizedAffinity>  (1) 
-4.23118305

>  <minimizedRMSD>  (1) 
1.28029001

$$$$
