
     RDKit          3D

 29 31  0  0  1  0  0  0  0  0999 V2000
   45.8790   33.6040   45.3860 C   0  0  2  0  0  0  0  0  0  0  0  0
   44.8910   34.7690   45.8350 C   0  0  0  0  0  0  0  0  0  0  0  0
   44.5550   35.7690   44.8720 C   0  0  0  0  0  0  0  0  0  0  0  0
   45.1160   35.6630   43.5160 C   0  0  0  0  0  0  0  0  0  0  0  0
   45.9570   34.5120   43.1920 C   0  0  0  0  0  0  0  0  0  0  0  0
   45.5770   33.3090   44.0140 C   0  0  0  0  0  0  0  0  0  0  0  0
   45.2020   32.8470   47.6300 C   0  0  0  0  0  0  0  0  0  0  0  0
   45.7550   32.5520   46.3820 C   0  0  0  0  0  0  0  0  0  0  0  0
   46.1210   31.1880   46.1000 C   0  0  0  0  0  0  0  0  0  0  0  0
   45.9250   30.2410   47.0450 N   0  0  0  0  0  0  0  0  0  0  0  0
   45.3800   30.5750   48.2580 C   0  0  0  0  0  0  0  0  0  0  0  0
   45.0250   31.8580   48.5440 N   0  0  0  0  0  0  0  0  0  0  0  0
   46.6930   30.5790   44.9390 C   0  0  0  0  0  0  0  0  0  0  0  0
   48.0060   30.7100   44.7000 N   0  0  0  0  0  0  0  0  0  0  0  0
   48.2630   30.0530   43.6030 O   0  0  0  0  0  0  0  0  0  0  0  0
   47.2160   29.4950   43.0960 C   0  0  0  0  0  0  0  0  0  0  0  0
   46.2060   29.8080   43.9160 N   0  0  0  0  0  0  0  0  0  0  0  0
   46.9543   33.8356   45.3728 H   0  0  0  0  0  0  0  0  0  0  0  0
   44.4801   34.8027   46.8548 H   0  0  0  0  0  0  0  0  0  0  0  0
   43.8892   36.6028   45.1392 H   0  0  0  0  0  0  0  0  0  0  0  0
   44.2684   35.6522   42.8149 H   0  0  0  0  0  0  0  0  0  0  0  0
   45.7990   36.5221   43.4417 H   0  0  0  0  0  0  0  0  0  0  0  0
   45.8377   34.2697   42.1257 H   0  0  0  0  0  0  0  0  0  0  0  0
   47.0021   34.7708   43.4174 H   0  0  0  0  0  0  0  0  0  0  0  0
   44.5020   33.1039   43.9029 H   0  0  0  0  0  0  0  0  0  0  0  0
   46.1349   32.4221   43.6791 H   0  0  0  0  0  0  0  0  0  0  0  0
   44.9100   33.8794   47.8726 H   0  0  0  0  0  0  0  0  0  0  0  0
   45.2266   29.7914   49.0146 H   0  0  0  0  0  0  0  0  0  0  0  0
   47.1644   28.8881   42.1800 H   0  0  0  0  0  0  0  0  0  0  0  0
  1  2  1  0
  1  8  1  0
  3  2  2  0
  4  3  1  0
  5  4  1  0
  5  6  1  0
  6  1  1  0
  7 12  2  0
  8  7  1  0
  9  8  2  0
  9 10  1  0
 10 11  2  0
 11 12  1  0
 13  9  1  0
 14 13  2  0
 15 14  1  0
 16 15  1  0
 16 17  2  0
 17 13  1  0
  1 18  1  6
  2 19  1  0
  3 20  1  0
  4 21  1  0
  4 22  1  0
  5 23  1  0
  5 24  1  0
  6 25  1  0
  6 26  1  0
  7 27  1  0
 11 28  1  0
 16 29  1  0
M  ISO  8  18  13  19  13  20  13  21  13  22  13  23  13  24  13  25  13
M  ISO  4  26  13  27  14  28  14  29  14
M  END
>  <minimizedAffinity>  (1) 
-4.28226471

>  <minimizedRMSD>  (1) 
0.710341036

$$$$
