
     RDKit          3D

 30 31  0  0  1  0  0  0  0  0999 V2000
   45.9750   33.5760   45.3810 C   0  0  2  0  0  0  0  0  0  0  0  0
   44.9520   34.7320   45.7950 C   0  0  0  0  0  0  0  0  0  0  0  0
   44.5470   35.6920   44.8380 C   0  0  0  0  0  0  0  0  0  0  0  0
   45.0510   35.5710   43.4930 C   0  0  0  0  0  0  0  0  0  0  0  0
   46.1580   34.6570   43.2700 C   0  0  0  0  0  0  0  0  0  0  0  0
   45.8930   33.3310   43.9970 C   0  0  0  0  0  0  0  0  0  0  0  0
   45.2040   32.8160   47.5970 C   0  0  0  0  0  0  0  0  0  0  0  0
   45.9230   32.6050   46.4150 C   0  0  0  0  0  0  0  0  0  0  0  0
   46.6060   31.3630   46.2160 C   0  0  0  0  0  0  0  0  0  0  0  0
   46.4980   30.4600   47.2230 N   0  0  0  0  0  0  0  0  0  0  0  0
   45.7970   30.6740   48.3700 C   0  0  0  0  0  0  0  0  0  0  0  0
   45.1530   31.8520   48.5520 N   0  0  0  0  0  0  0  0  0  0  0  0
   47.4700   30.9280   45.1830 C   0  0  0  0  0  0  0  0  0  0  0  0
   48.2810   29.7430   45.6350 C   0  0  0  0  0  0  0  0  0  0  0  0
   47.0569   33.7744   45.3744 H   0  0  0  0  0  0  0  0  0  0  0  0
   44.5633   34.7812   46.8228 H   0  0  0  0  0  0  0  0  0  0  0  0
   43.8649   36.5099   45.1133 H   0  0  0  0  0  0  0  0  0  0  0  0
   44.2168   35.2391   42.8574 H   0  0  0  0  0  0  0  0  0  0  0  0
   45.4573   36.5654   43.2560 H   0  0  0  0  0  0  0  0  0  0  0  0
   46.2633   34.4674   42.1916 H   0  0  0  0  0  0  0  0  0  0  0  0
   47.0835   35.1059   43.6598 H   0  0  0  0  0  0  0  0  0  0  0  0
   44.8902   32.9580   43.7416 H   0  0  0  0  0  0  0  0  0  0  0  0
   46.6314   32.5732   43.6962 H   0  0  0  0  0  0  0  0  0  0  0  0
   44.6769   33.7687   47.7534 H   0  0  0  0  0  0  0  0  0  0  0  0
   45.7536   29.8946   49.1450 H   0  0  0  0  0  0  0  0  0  0  0  0
   48.1499   31.7487   44.9106 H   0  0  0  0  0  0  0  0  0  0  0  0
   46.8636   30.6323   44.3142 H   0  0  0  0  0  0  0  0  0  0  0  0
   48.3027   29.7113   46.7343 H   0  0  0  0  0  0  0  0  0  0  0  0
   47.8253   28.8186   45.2505 H   0  0  0  0  0  0  0  0  0  0  0  0
   49.3077   29.8331   45.2505 H   0  0  0  0  0  0  0  0  0  0  0  0
  1  2  1  0
  1  8  1  0
  3  2  2  0
  4  3  1  0
  5  4  1  0
  5  6  1  0
  6  1  1  0
  7 12  2  0
  8  7  1  0
  9  8  2  0
  9 10  1  0
 10 11  2  0
 11 12  1  0
 13 14  1  0
 13  9  1  0
  1 15  1  6
  2 16  1  0
  3 17  1  0
  4 18  1  0
  4 19  1  0
  5 20  1  0
  5 21  1  0
  6 22  1  0
  6 23  1  0
  7 24  1  0
 11 25  1  0
 13 26  1  0
 13 27  1  0
 14 28  1  0
 14 29  1  0
 14 30  1  0
M  ISO  8  15  13  16  13  17  13  18  13  19  13  20  13  21  13  22  13
M  ISO  8  23  13  24  14  25  14  26   8  27   8  28   8  29   8  30   8
M  END
>  <minimizedAffinity>  (1) 
-4.22182703

>  <minimizedRMSD>  (1) 
0.669384062

$$$$
