
     RDKit          3D

 43 47  0  0  1  0  0  0  0  0999 V2000
   46.1320   32.0540   45.8460 C   0  0  0  0  0  0  0  0  0  0  0  0
   46.7660   32.4850   44.6920 C   0  0  0  0  0  0  0  0  0  0  0  0
   47.7200   31.6160   44.0820 C   0  0  0  0  0  0  0  0  0  0  0  0
   47.9730   30.4230   44.6390 N   0  0  0  0  0  0  0  0  0  0  0  0
   47.3310   30.0320   45.7760 C   0  0  0  0  0  0  0  0  0  0  0  0
   46.4160   30.8430   46.3760 N   0  0  0  0  0  0  0  0  0  0  0  0
   48.5010   31.7480   42.8900 C   0  0  0  0  0  0  0  0  0  0  0  0
   49.4980   32.6130   42.8150 N   0  0  0  0  0  0  0  0  0  0  0  0
   50.0180   32.5060   41.6190 O   0  0  0  0  0  0  0  0  0  0  0  0
   49.4370   31.6290   40.8910 C   0  0  0  0  0  0  0  0  0  0  0  0
   48.4750   31.1270   41.6520 N   0  0  0  0  0  0  0  0  0  0  0  0
   49.8060   31.3170   39.5530 N   0  0  0  0  0  0  0  0  0  0  0  0
   50.6080   30.3340   39.1030 C   0  0  0  0  0  0  0  0  0  0  0  0
   50.7230   30.3510   37.7620 N   0  0  0  0  0  0  0  0  0  0  0  0
   49.9680   31.3860   37.3060 C   0  0  0  0  0  0  0  0  0  0  0  0
   49.7260   31.8580   36.0320 C   0  0  0  0  0  0  0  0  0  0  0  0
   50.2280   31.3340   35.0070 O   0  0  0  0  0  0  0  0  0  0  0  0
   48.9230   32.9230   35.8360 N   0  0  0  0  0  0  0  0  0  0  0  0
   48.3910   33.4730   36.9530 C   0  0  0  0  0  0  0  0  0  0  0  0
   47.5390   34.5920   36.8420 N   0  0  0  0  0  0  0  0  0  0  0  0
   48.6140   33.0270   38.2120 N   0  0  0  0  0  0  0  0  0  0  0  0
   49.4190   31.9570   38.4350 C   0  0  0  0  0  0  0  0  0  0  0  0
   46.4910   33.8330   44.1880 C   0  0  2  0  0  0  0  0  0  0  0  0
   45.4730   34.5010   45.1280 C   0  0  0  0  0  0  0  0  0  0  0  0
   44.6420   35.5580   44.6180 C   0  0  0  0  0  0  0  0  0  0  0  0
   44.7980   35.9820   43.2160 C   0  0  0  0  0  0  0  0  0  0  0  0
   45.9120   35.3820   42.4680 C   0  0  0  0  0  0  0  0  0  0  0  0
   45.9940   33.8990   42.8090 C   0  0  0  0  0  0  0  0  0  0  0  0
   45.3908   32.7029   46.3355 H   0  0  0  0  0  0  0  0  0  0  0  0
   47.5548   29.0485   46.2148 H   0  0  0  0  0  0  0  0  0  0  0  0
   51.1100   29.6033   39.7541 H   0  0  0  0  0  0  0  0  0  0  0  0
   48.7266   33.2949   34.8958 H   0  0  0  0  0  0  0  0  0  0  0  0
   47.1313   35.0148   37.6881 H   0  0  0  0  0  0  0  0  0  0  0  0
   47.3247   34.9862   35.9148 H   0  0  0  0  0  0  0  0  0  0  0  0
   47.4578   34.3573   44.1698 H   0  0  0  0  0  0  0  0  0  0  0  0
   45.3820   34.1750   46.1746 H   0  0  0  0  0  0  0  0  0  0  0  0
   43.8987   36.0441   45.2671 H   0  0  0  0  0  0  0  0  0  0  0  0
   43.8670   35.7322   42.6860 H   0  0  0  0  0  0  0  0  0  0  0  0
   45.0244   37.0575   43.2613 H   0  0  0  0  0  0  0  0  0  0  0  0
   46.8535   35.8776   42.7472 H   0  0  0  0  0  0  0  0  0  0  0  0
   45.7458   35.5073   41.3879 H   0  0  0  0  0  0  0  0  0  0  0  0
   44.9997   33.4339   42.7375 H   0  0  0  0  0  0  0  0  0  0  0  0
   46.6546   33.3596   42.1142 H   0  0  0  0  0  0  0  0  0  0  0  0
  1  6  2  0
  2  1  1  0
  3  4  1  0
  3  2  2  0
  4  5  2  0
  5  6  1  0
  7  3  1  0
  8  7  2  0
  9  8  1  0
 10  9  1  0
 10 11  2  0
 11  7  1  0
 12 10  1  0
 13 12  1  0
 14 13  2  0
 15 14  1  0
 15 22  2  0
 16 15  1  0
 17 16  2  0
 18 16  1  0
 18 19  1  0
 19 21  2  0
 20 19  1  0
 21 22  1  0
 22 12  1  0
 23  2  1  0
 23 24  1  0
 25 24  2  0
 26 25  1  0
 27 28  1  0
 27 26  1  0
 28 23  1  0
  1 29  1  0
  5 30  1  0
 13 31  1  0
 18 32  1  0
 20 33  1  0
 20 34  1  0
 23 35  1  6
 24 36  1  0
 25 37  1  0
 26 38  1  0
 26 39  1  0
 27 40  1  0
 27 41  1  0
 28 42  1  0
 28 43  1  0
M  ISO  8  29  14  30  14  31  14  32   9  35  13  36  13  37  13  38  13
M  ISO  5  39  13  40  13  41  13  42  13  43  13
M  END
>  <minimizedAffinity>  (1) 
-6.36835718

>  <minimizedRMSD>  (1) 
3.47266555

$$$$
