
     RDKit          3D

 43 47  0  0  1  0  0  0  0  0999 V2000
   45.7420   32.2340   46.5120 C   0  0  0  0  0  0  0  0  0  0  0  0
   46.3430   32.4670   45.2760 C   0  0  0  0  0  0  0  0  0  0  0  0
   47.0950   31.4120   44.6720 C   0  0  0  0  0  0  0  0  0  0  0  0
   47.1910   30.2420   45.3250 N   0  0  0  0  0  0  0  0  0  0  0  0
   46.5940   30.0430   46.5320 C   0  0  0  0  0  0  0  0  0  0  0  0
   45.8740   31.0360   47.1190 N   0  0  0  0  0  0  0  0  0  0  0  0
   46.2490   33.8020   44.6800 C   0  0  2  0  0  0  0  0  0  0  0  0
   45.2280   34.6220   45.4810 C   0  0  0  0  0  0  0  0  0  0  0  0
   44.5510   35.7140   44.8370 C   0  0  0  0  0  0  0  0  0  0  0  0
   44.8700   36.0320   43.4310 C   0  0  0  0  0  0  0  0  0  0  0  0
   45.9660   35.2760   42.8210 C   0  0  0  0  0  0  0  0  0  0  0  0
   45.8810   33.8190   43.2550 C   0  0  0  0  0  0  0  0  0  0  0  0
   47.7790   31.3200   43.4330 C   0  0  0  0  0  0  0  0  0  0  0  0
   49.0950   31.2990   43.3660 N   0  0  0  0  0  0  0  0  0  0  0  0
   49.4360   31.2090   42.1180 O   0  0  0  0  0  0  0  0  0  0  0  0
   48.4320   31.1680   41.3230 C   0  0  0  0  0  0  0  0  0  0  0  0
   47.3900   31.2370   42.1170 N   0  0  0  0  0  0  0  0  0  0  0  0
   48.7440   31.0680   39.8910 C   0  0  0  0  0  0  0  0  0  0  0  0
   49.1220   29.9250   39.2480 N   0  0  0  0  0  0  0  0  0  0  0  0
   49.3910   29.8890   37.9540 C   0  0  0  0  0  0  0  0  0  0  0  0
   49.3170   30.9570   37.1700 N   0  0  0  0  0  0  0  0  0  0  0  0
   48.9490   32.1530   37.7060 C   0  0  0  0  0  0  0  0  0  0  0  0
   48.8750   33.2540   36.8840 C   0  0  0  0  0  0  0  0  0  0  0  0
   48.5050   34.4740   37.4050 C   0  0  0  0  0  0  0  0  0  0  0  0
   48.2170   34.5470   38.7510 C   0  0  0  0  0  0  0  0  0  0  0  0
   48.3110   33.4050   39.5160 C   0  0  0  0  0  0  0  0  0  0  0  0
   48.6720   32.1670   39.0610 C   0  0  0  0  0  0  0  0  0  0  0  0
   45.1572   33.0307   46.9950 H   0  0  0  0  0  0  0  0  0  0  0  0
   46.6948   29.0708   47.0367 H   0  0  0  0  0  0  0  0  0  0  0  0
   47.2588   34.2357   44.7269 H   0  0  0  0  0  0  0  0  0  0  0  0
   45.0176   34.3774   46.5326 H   0  0  0  0  0  0  0  0  0  0  0  0
   43.8036   36.3062   45.3854 H   0  0  0  0  0  0  0  0  0  0  0  0
   43.9648   35.8486   42.8335 H   0  0  0  0  0  0  0  0  0  0  0  0
   45.2086   37.0786   43.4396 H   0  0  0  0  0  0  0  0  0  0  0  0
   46.9282   35.6995   43.1448 H   0  0  0  0  0  0  0  0  0  0  0  0
   45.8884   35.3373   41.7255 H   0  0  0  0  0  0  0  0  0  0  0  0
   44.8580   33.4381   43.1192 H   0  0  0  0  0  0  0  0  0  0  0  0
   46.5473   33.1794   42.6575 H   0  0  0  0  0  0  0  0  0  0  0  0
   49.6899   28.9295   37.5067 H   0  0  0  0  0  0  0  0  0  0  0  0
   49.1107   33.1600   35.8137 H   0  0  0  0  0  0  0  0  0  0  0  0
   48.4410   35.3659   36.7644 H   0  0  0  0  0  0  0  0  0  0  0  0
   47.9169   35.5019   39.2071 H   0  0  0  0  0  0  0  0  0  0  0  0
   48.0750   33.4971   40.5864 H   0  0  0  0  0  0  0  0  0  0  0  0
  1  6  2  0
  2  1  1  0
  3  2  2  0
  3  4  1  0
  4  5  2  0
  5  6  1  0
  7  2  1  0
  7  8  1  0
  9  8  2  0
 10  9  1  0
 11 12  1  0
 11 10  1  0
 12  7  1  0
 13  3  1  0
 14 13  2  0
 15 14  1  0
 16 17  2  0
 16 15  1  0
 17 13  1  0
 18 16  1  0
 19 18  2  0
 20 19  1  0
 21 22  1  0
 21 20  2  0
 22 27  2  0
 23 24  2  0
 23 22  1  0
 24 25  1  0
 25 26  2  0
 27 26  1  0
 27 18  1  0
  1 28  1  0
  5 29  1  0
  7 30  1  6
  8 31  1  0
  9 32  1  0
 10 33  1  0
 10 34  1  0
 11 35  1  0
 11 36  1  0
 12 37  1  0
 12 38  1  0
 20 39  1  0
 23 40  1  0
 24 41  1  0
 25 42  1  0
 26 43  1  0
M  ISO  8  28  14  29  14  30  13  31  13  32  13  33  13  34  13  35  13
M  ISO  8  36  13  37  13  38  13  39  14  40  14  41  14  42  14  43  14
M  END
>  <minimizedAffinity>  (1) 
-5.5506711

>  <minimizedRMSD>  (1) 
3.50042224

$$$$
