
     RDKit          3D

 40 44  0  0  1  0  0  0  0  0999 V2000
   45.2880   32.9190   47.2410 C   0  0  0  0  0  0  0  0  0  0  0  0
   45.8250   32.7760   45.9730 C   0  0  0  0  0  0  0  0  0  0  0  0
   46.2910   31.4840   45.5810 C   0  0  0  0  0  0  0  0  0  0  0  0
   46.1960   30.4610   46.4430 N   0  0  0  0  0  0  0  0  0  0  0  0
   45.6620   30.6390   47.6840 C   0  0  0  0  0  0  0  0  0  0  0  0
   45.2100   31.8630   48.0810 N   0  0  0  0  0  0  0  0  0  0  0  0
   45.9370   33.9540   45.1140 C   0  0  2  0  0  0  0  0  0  0  0  0
   44.8860   34.9900   45.5740 C   0  0  0  0  0  0  0  0  0  0  0  0
   44.4450   35.9750   44.6490 C   0  0  0  0  0  0  0  0  0  0  0  0
   45.0030   36.0130   43.2960 C   0  0  0  0  0  0  0  0  0  0  0  0
   46.0730   35.0490   42.9980 C   0  0  0  0  0  0  0  0  0  0  0  0
   45.7610   33.7230   43.6800 C   0  0  0  0  0  0  0  0  0  0  0  0
   46.8620   31.0100   44.3580 C   0  0  0  0  0  0  0  0  0  0  0  0
   48.1720   30.9770   44.1810 N   0  0  0  0  0  0  0  0  0  0  0  0
   48.3940   30.5060   42.9810 O   0  0  0  0  0  0  0  0  0  0  0  0
   47.3190   30.2220   42.3470 C   0  0  0  0  0  0  0  0  0  0  0  0
   46.3240   30.5230   43.1750 N   0  0  0  0  0  0  0  0  0  0  0  0
   47.2960   29.6970   41.0270 N   0  0  0  0  0  0  0  0  0  0  0  0
   47.5450   28.4050   40.7350 C   0  0  0  0  0  0  0  0  0  0  0  0
   47.4450   28.2180   39.3960 N   0  0  0  0  0  0  0  0  0  0  0  0
   47.1320   29.4000   38.8370 C   0  0  0  0  0  0  0  0  0  0  0  0
   46.9060   29.8260   37.5570 C   0  0  0  0  0  0  0  0  0  0  0  0
   46.6020   31.1150   37.3150 N   0  0  0  0  0  0  0  0  0  0  0  0
   46.5110   32.0260   38.3250 C   0  0  0  0  0  0  0  0  0  0  0  0
   46.7330   31.6160   39.6060 N   0  0  0  0  0  0  0  0  0  0  0  0
   47.0390   30.3260   39.8740 C   0  0  0  0  0  0  0  0  0  0  0  0
   44.9208   33.9028   47.5684 H   0  0  0  0  0  0  0  0  0  0  0  0
   45.5947   29.7850   48.3740 H   0  0  0  0  0  0  0  0  0  0  0  0
   46.9747   34.3011   45.2265 H   0  0  0  0  0  0  0  0  0  0  0  0
   44.4866   34.9654   46.5986 H   0  0  0  0  0  0  0  0  0  0  0  0
   43.6836   36.7096   44.9501 H   0  0  0  0  0  0  0  0  0  0  0  0
   44.1801   35.8270   42.5902 H   0  0  0  0  0  0  0  0  0  0  0  0
   45.4711   37.0041   43.2029 H   0  0  0  0  0  0  0  0  0  0  0  0
   46.1377   34.8965   41.9105 H   0  0  0  0  0  0  0  0  0  0  0  0
   47.0327   35.4375   43.3697 H   0  0  0  0  0  0  0  0  0  0  0  0
   44.7259   33.4180   43.4665 H   0  0  0  0  0  0  0  0  0  0  0  0
   46.4197   32.9198   43.3181 H   0  0  0  0  0  0  0  0  0  0  0  0
   47.7911   27.6236   41.4691 H   0  0  0  0  0  0  0  0  0  0  0  0
   46.9729   29.1127   36.7223 H   0  0  0  0  0  0  0  0  0  0  0  0
   46.2623   33.0757   38.1097 H   0  0  0  0  0  0  0  0  0  0  0  0
  1  6  2  0
  2  1  1  0
  3  2  2  0
  3  4  1  0
  4  5  2  0
  5  6  1  0
  7  8  1  0
  7  2  1  0
  9  8  2  0
 10  9  1  0
 11 10  1  0
 11 12  1  0
 12  7  1  0
 13  3  1  0
 14 13  2  0
 15 14  1  0
 16 15  1  0
 16 17  2  0
 17 13  1  0
 18 16  1  0
 19 18  1  0
 20 19  2  0
 21 20  1  0
 21 26  2  0
 22 21  1  0
 23 22  2  0
 23 24  1  0
 24 25  2  0
 25 26  1  0
 26 18  1  0
  1 27  1  0
  5 28  1  0
  7 29  1  6
  8 30  1  0
  9 31  1  0
 10 32  1  0
 10 33  1  0
 11 34  1  0
 11 35  1  0
 12 36  1  0
 12 37  1  0
 19 38  1  0
 22 39  1  0
 24 40  1  0
M  ISO  8  27  14  28  14  29  13  30  13  31  13  32  13  33  13  34  13
M  ISO  6  35  13  36  13  37  13  38  14  39  14  40  14
M  END
>  <minimizedAffinity>  (1) 
-4.72513771

>  <minimizedRMSD>  (1) 
1.10752475

$$$$
