
     RDKit          3D

 42 46  0  0  1  0  0  0  0  0999 V2000
   45.3390   32.8250   47.1760 C   0  0  0  0  0  0  0  0  0  0  0  0
   45.9000   32.7420   45.9110 C   0  0  0  0  0  0  0  0  0  0  0  0
   46.4270   31.4850   45.4880 C   0  0  0  0  0  0  0  0  0  0  0  0
   46.3660   30.4350   46.3180 N   0  0  0  0  0  0  0  0  0  0  0  0
   45.8070   30.5530   47.5600 C   0  0  0  0  0  0  0  0  0  0  0  0
   45.2980   31.7400   47.9830 N   0  0  0  0  0  0  0  0  0  0  0  0
   45.9870   33.9500   45.0910 C   0  0  2  0  0  0  0  0  0  0  0  0
   44.9220   34.9490   45.5850 C   0  0  0  0  0  0  0  0  0  0  0  0
   44.4360   35.9550   44.6840 C   0  0  0  0  0  0  0  0  0  0  0  0
   44.9770   36.0120   43.3130 C   0  0  0  0  0  0  0  0  0  0  0  0
   46.0830   35.1010   43.0010 C   0  0  0  0  0  0  0  0  0  0  0  0
   45.8210   33.7470   43.6480 C   0  0  0  0  0  0  0  0  0  0  0  0
   47.0270   31.0710   44.2580 C   0  0  0  0  0  0  0  0  0  0  0  0
   48.3160   30.7870   44.1820 N   0  0  0  0  0  0  0  0  0  0  0  0
   48.5710   30.4430   42.9490 O   0  0  0  0  0  0  0  0  0  0  0  0
   47.5400   30.4770   42.1930 C   0  0  0  0  0  0  0  0  0  0  0  0
   46.5430   30.8680   42.9760 N   0  0  0  0  0  0  0  0  0  0  0  0
   47.2590   30.2150   40.8360 N   0  0  0  0  0  0  0  0  0  0  0  0
   46.5730   29.1990   40.2910 C   0  0  0  0  0  0  0  0  0  0  0  0
   46.5570   29.3550   38.9570 N   0  0  0  0  0  0  0  0  0  0  0  0
   47.2420   30.4850   38.6720 C   0  0  0  0  0  0  0  0  0  0  0  0
   47.5050   31.0720   37.4470 C   0  0  0  0  0  0  0  0  0  0  0  0
   48.2260   32.2160   37.4560 N   0  0  0  0  0  0  0  0  0  0  0  0
   48.6440   32.7210   38.6440 C   0  0  0  0  0  0  0  0  0  0  0  0
   48.4050   32.1750   39.8400 N   0  0  0  0  0  0  0  0  0  0  0  0
   47.6860   31.0290   39.8620 C   0  0  0  0  0  0  0  0  0  0  0  0
   47.0080   30.4450   36.2500 N   0  0  0  0  0  0  0  0  0  0  0  0
   44.9236   33.7813   47.5266 H   0  0  0  0  0  0  0  0  0  0  0  0
   45.7688   29.6772   48.2245 H   0  0  0  0  0  0  0  0  0  0  0  0
   47.0135   34.3260   45.2132 H   0  0  0  0  0  0  0  0  0  0  0  0
   44.5394   34.8916   46.6147 H   0  0  0  0  0  0  0  0  0  0  0  0
   43.6704   36.6738   45.0115 H   0  0  0  0  0  0  0  0  0  0  0  0
   44.1532   35.7850   42.6203 H   0  0  0  0  0  0  0  0  0  0  0  0
   45.3988   37.0228   43.2114 H   0  0  0  0  0  0  0  0  0  0  0  0
   46.1606   34.9779   41.9107 H   0  0  0  0  0  0  0  0  0  0  0  0
   47.0236   35.5182   43.3899 H   0  0  0  0  0  0  0  0  0  0  0  0
   44.7986   33.4081   43.4248 H   0  0  0  0  0  0  0  0  0  0  0  0
   46.5096   32.9784   43.2673 H   0  0  0  0  0  0  0  0  0  0  0  0
   46.1014   28.3742   40.8453 H   0  0  0  0  0  0  0  0  0  0  0  0
   49.2259   33.6542   38.6207 H   0  0  0  0  0  0  0  0  0  0  0  0
   46.4642   29.5726   36.3133 H   0  0  0  0  0  0  0  0  0  0  0  0
   47.1963   30.8689   35.3303 H   0  0  0  0  0  0  0  0  0  0  0  0
  1  6  2  0
  2  1  1  0
  3  2  2  0
  3  4  1  0
  4  5  2  0
  5  6  1  0
  7  8  1  0
  7  2  1  0
  9  8  2  0
 10  9  1  0
 11 10  1  0
 11 12  1  0
 12  7  1  0
 13  3  1  0
 14 13  2  0
 15 14  1  0
 16 15  1  0
 16 17  2  0
 17 13  1  0
 18 16  1  0
 19 18  1  0
 20 19  2  0
 21 20  1  0
 21 26  2  0
 22 23  2  0
 22 21  1  0
 23 24  1  0
 24 25  2  0
 25 26  1  0
 26 18  1  0
 27 22  1  0
  1 28  1  0
  5 29  1  0
  7 30  1  6
  8 31  1  0
  9 32  1  0
 10 33  1  0
 10 34  1  0
 11 35  1  0
 11 36  1  0
 12 37  1  0
 12 38  1  0
 19 39  1  0
 24 40  1  0
 27 41  1  0
 27 42  1  0
M  ISO  8  28  14  29  14  30  13  31  13  32  13  33  13  34  13  35  13
M  ISO  5  36  13  37  13  38  13  39  14  40  14
M  END
>  <minimizedAffinity>  (1) 
-5.08184099

>  <minimizedRMSD>  (1) 
1.7539494

$$$$
