
     RDKit          3D

 30 32  0  0  1  0  0  0  0  0999 V2000
   45.8470   33.5670   45.3860 C   0  0  2  0  0  0  0  0  0  0  0  0
   44.9710   34.7600   45.8230 C   0  0  0  0  0  0  0  0  0  0  0  0
   44.5230   35.6910   44.8340 C   0  0  0  0  0  0  0  0  0  0  0  0
   44.9230   35.4950   43.4390 C   0  0  0  0  0  0  0  0  0  0  0  0
   45.8240   34.3770   43.1380 C   0  0  0  0  0  0  0  0  0  0  0  0
   45.4790   33.1870   44.0220 C   0  0  0  0  0  0  0  0  0  0  0  0
   45.2000   32.8340   47.6350 C   0  0  0  0  0  0  0  0  0  0  0  0
   45.7300   32.5200   46.3960 C   0  0  0  0  0  0  0  0  0  0  0  0
   46.1980   31.1880   46.1790 C   0  0  0  0  0  0  0  0  0  0  0  0
   46.1100   30.2950   47.1750 N   0  0  0  0  0  0  0  0  0  0  0  0
   45.5840   30.6350   48.3830 C   0  0  0  0  0  0  0  0  0  0  0  0
   45.1290   31.9040   48.6130 N   0  0  0  0  0  0  0  0  0  0  0  0
   46.7560   30.5510   45.0290 C   0  0  0  0  0  0  0  0  0  0  0  0
   48.0270   30.7140   44.7020 N   0  0  0  0  0  0  0  0  0  0  0  0
   48.2460   30.0160   43.6180 O   0  0  0  0  0  0  0  0  0  0  0  0
   47.2080   29.3980   43.2000 C   0  0  0  0  0  0  0  0  0  0  0  0
   46.2440   29.7070   44.0580 N   0  0  0  0  0  0  0  0  0  0  0  0
   47.1750   28.3640   41.7510 S   0  0  0  0  0  0  0  0  0  0  0  0
   46.9186   33.8102   45.3349 H   0  0  0  0  0  0  0  0  0  0  0  0
   44.6952   34.8924   46.8796 H   0  0  0  0  0  0  0  0  0  0  0  0
   43.8868   36.5425   45.1173 H   0  0  0  0  0  0  0  0  0  0  0  0
   44.0049   35.3440   42.8522 H   0  0  0  0  0  0  0  0  0  0  0  0
   45.5034   36.3949   43.1874 H   0  0  0  0  0  0  0  0  0  0  0  0
   45.7125   34.0920   42.0814 H   0  0  0  0  0  0  0  0  0  0  0  0
   46.8625   34.6844   43.3304 H   0  0  0  0  0  0  0  0  0  0  0  0
   44.4022   32.9698   43.9647 H   0  0  0  0  0  0  0  0  0  0  0  0
   46.0158   32.2821   43.7010 H   0  0  0  0  0  0  0  0  0  0  0  0
   44.8320   33.8528   47.8262 H   0  0  0  0  0  0  0  0  0  0  0  0
   45.5242   29.8818   49.1824 H   0  0  0  0  0  0  0  0  0  0  0  0
   47.1330   27.0481   42.1299 H   0  0  0  0  0  0  0  0  0  0  0  0
  1  2  1  0
  1  8  1  0
  3  2  2  0
  4  3  1  0
  5  4  1  0
  5  6  1  0
  6  1  1  0
  7 12  2  0
  8  7  1  0
  9  8  2  0
  9 10  1  0
 10 11  2  0
 11 12  1  0
 13  9  1  0
 14 13  2  0
 15 14  1  0
 16 15  1  0
 16 17  2  0
 17 13  1  0
 18 16  1  0
  1 19  1  6
  2 20  1  0
  3 21  1  0
  4 22  1  0
  4 23  1  0
  5 24  1  0
  5 25  1  0
  6 26  1  0
  6 27  1  0
  7 28  1  0
 11 29  1  0
 18 30  1  0
M  ISO  8  19  13  20  13  21  13  22  13  23  13  24  13  25  13  26  13
M  ISO  4  27  13  28  14  29  14  30  11
M  END
>  <minimizedAffinity>  (1) 
-4.15288925

>  <minimizedRMSD>  (1) 
0.142626792

$$$$
