
     RDKit          3D

 35 38  0  0  1  0  0  0  0  0999 V2000
   45.1790   32.8220   47.6210 C   0  0  0  0  0  0  0  0  0  0  0  0
   45.7220   32.5320   46.3800 C   0  0  0  0  0  0  0  0  0  0  0  0
   46.1880   31.2030   46.1400 C   0  0  0  0  0  0  0  0  0  0  0  0
   46.0850   30.2910   47.1160 N   0  0  0  0  0  0  0  0  0  0  0  0
   45.5420   30.6110   48.3300 C   0  0  0  0  0  0  0  0  0  0  0  0
   45.0950   31.8640   48.5750 N   0  0  0  0  0  0  0  0  0  0  0  0
   45.8540   33.6010   45.3950 C   0  0  2  0  0  0  0  0  0  0  0  0
   44.9550   34.7740   45.8300 C   0  0  0  0  0  0  0  0  0  0  0  0
   44.5140   35.7190   44.8450 C   0  0  0  0  0  0  0  0  0  0  0  0
   44.9420   35.5470   43.4510 C   0  0  0  0  0  0  0  0  0  0  0  0
   45.8630   34.4500   43.1600 C   0  0  0  0  0  0  0  0  0  0  0  0
   45.5170   33.2370   44.0130 C   0  0  0  0  0  0  0  0  0  0  0  0
   46.7620   30.5880   44.9840 C   0  0  0  0  0  0  0  0  0  0  0  0
   48.0530   30.7020   44.7210 N   0  0  0  0  0  0  0  0  0  0  0  0
   48.2830   30.0430   43.6150 O   0  0  0  0  0  0  0  0  0  0  0  0
   47.2350   29.4990   43.1220 C   0  0  0  0  0  0  0  0  0  0  0  0
   46.2510   29.8170   43.9530 N   0  0  0  0  0  0  0  0  0  0  0  0
   47.0660   28.7120   41.9490 N   0  0  0  0  0  0  0  0  0  0  0  0
   48.1080   28.7080   41.0830 C   0  0  0  0  0  0  0  0  0  0  0  0
   47.7850   27.9230   40.0430 N   0  0  0  0  0  0  0  0  0  0  0  0
   46.5320   27.4510   40.2950 C   0  0  0  0  0  0  0  0  0  0  0  0
   46.1030   27.9500   41.4780 N   0  0  0  0  0  0  0  0  0  0  0  0
   44.8134   33.8375   47.8333 H   0  0  0  0  0  0  0  0  0  0  0  0
   45.4682   29.8428   49.1138 H   0  0  0  0  0  0  0  0  0  0  0  0
   46.9229   33.8600   45.3761 H   0  0  0  0  0  0  0  0  0  0  0  0
   44.6551   34.8855   46.8824 H   0  0  0  0  0  0  0  0  0  0  0  0
   43.8648   36.5601   45.1298 H   0  0  0  0  0  0  0  0  0  0  0  0
   44.0375   35.3877   42.8456 H   0  0  0  0  0  0  0  0  0  0  0  0
   45.5093   36.4598   43.2166 H   0  0  0  0  0  0  0  0  0  0  0  0
   45.7844   34.1813   42.0962 H   0  0  0  0  0  0  0  0  0  0  0  0
   46.8897   34.7710   43.3897 H   0  0  0  0  0  0  0  0  0  0  0  0
   44.4449   33.0053   43.9299 H   0  0  0  0  0  0  0  0  0  0  0  0
   46.0712   32.3448   43.6861 H   0  0  0  0  0  0  0  0  0  0  0  0
   49.0547   29.2535   41.2101 H   0  0  0  0  0  0  0  0  0  0  0  0
   45.9612   26.7739   39.6426 H   0  0  0  0  0  0  0  0  0  0  0  0
  1  6  2  0
  2  1  1  0
  3  2  2  0
  3  4  1  0
  4  5  2  0
  5  6  1  0
  7  8  1  0
  7  2  1  0
  9  8  2  0
 10  9  1  0
 11 10  1  0
 11 12  1  0
 12  7  1  0
 13  3  1  0
 14 13  2  0
 15 14  1  0
 16 15  1  0
 16 17  2  0
 17 13  1  0
 18 16  1  0
 19 18  1  0
 20 21  1  0
 20 19  2  0
 21 22  2  0
 22 18  1  0
  1 23  1  0
  5 24  1  0
  7 25  1  6
  8 26  1  0
  9 27  1  0
 10 28  1  0
 10 29  1  0
 11 30  1  0
 11 31  1  0
 12 32  1  0
 12 33  1  0
 19 34  1  0
 21 35  1  0
M  ISO  8  23  14  24  14  25  13  26  13  27  13  28  13  29  13  30  13
M  ISO  5  31  13  32  13  33  13  34  14  35  14
M  END
>  <minimizedAffinity>  (1) 
-4.19978333

>  <minimizedRMSD>  (1) 
0.0816295743

$$$$
