
     RDKit          3D

 31 33  0  0  1  0  0  0  0  0999 V2000
   45.1910   32.8200   47.6300 C   0  0  0  0  0  0  0  0  0  0  0  0
   45.7320   32.5300   46.3870 C   0  0  0  0  0  0  0  0  0  0  0  0
   46.1650   31.1910   46.1380 C   0  0  0  0  0  0  0  0  0  0  0  0
   46.0390   30.2640   47.1020 N   0  0  0  0  0  0  0  0  0  0  0  0
   45.5020   30.5850   48.3140 C   0  0  0  0  0  0  0  0  0  0  0  0
   45.0810   31.8570   48.5760 N   0  0  0  0  0  0  0  0  0  0  0  0
   45.8690   33.5910   45.4080 C   0  0  2  0  0  0  0  0  0  0  0  0
   44.9420   34.7630   45.8320 C   0  0  0  0  0  0  0  0  0  0  0  0
   44.5380   35.7200   44.8540 C   0  0  0  0  0  0  0  0  0  0  0  0
   45.0160   35.5750   43.4740 C   0  0  0  0  0  0  0  0  0  0  0  0
   45.9670   34.4880   43.2020 C   0  0  0  0  0  0  0  0  0  0  0  0
   45.5790   33.2630   44.0220 C   0  0  0  0  0  0  0  0  0  0  0  0
   46.7380   30.5770   44.9810 C   0  0  0  0  0  0  0  0  0  0  0  0
   48.0270   30.7070   44.7030 N   0  0  0  0  0  0  0  0  0  0  0  0
   48.2700   30.0510   43.6040 O   0  0  0  0  0  0  0  0  0  0  0  0
   47.2200   29.4860   43.1260 C   0  0  0  0  0  0  0  0  0  0  0  0
   46.2340   29.7900   43.9610 N   0  0  0  0  0  0  0  0  0  0  0  0
   47.0640   28.6910   41.9640 N   0  0  0  0  0  0  0  0  0  0  0  0
   44.8479   33.8417   47.8500 H   0  0  0  0  0  0  0  0  0  0  0  0
   45.4071   29.8103   49.0891 H   0  0  0  0  0  0  0  0  0  0  0  0
   46.9415   33.8352   45.4146 H   0  0  0  0  0  0  0  0  0  0  0  0
   44.6011   34.8541   46.8739 H   0  0  0  0  0  0  0  0  0  0  0  0
   43.8774   36.5550   45.1305 H   0  0  0  0  0  0  0  0  0  0  0  0
   44.1359   35.4120   42.8346 H   0  0  0  0  0  0  0  0  0  0  0  0
   45.5768   36.4991   43.2702 H   0  0  0  0  0  0  0  0  0  0  0  0
   45.9416   34.2367   42.1314 H   0  0  0  0  0  0  0  0  0  0  0  0
   46.9825   34.8092   43.4769 H   0  0  0  0  0  0  0  0  0  0  0  0
   44.5078   33.0455   43.8982 H   0  0  0  0  0  0  0  0  0  0  0  0
   46.1360   32.3718   43.6972 H   0  0  0  0  0  0  0  0  0  0  0  0
   46.1385   28.3095   41.7214 H   0  0  0  0  0  0  0  0  0  0  0  0
   47.8761   28.4944   41.3616 H   0  0  0  0  0  0  0  0  0  0  0  0
  1  6  2  0
  2  1  1  0
  3  2  2  0
  3  4  1  0
  4  5  2  0
  5  6  1  0
  7  8  1  0
  7  2  1  0
  9  8  2  0
 10  9  1  0
 11 10  1  0
 11 12  1  0
 12  7  1  0
 13  3  1  0
 14 13  2  0
 15 14  1  0
 16 15  1  0
 16 17  2  0
 17 13  1  0
 18 16  1  0
  1 19  1  0
  5 20  1  0
  7 21  1  6
  8 22  1  0
  9 23  1  0
 10 24  1  0
 10 25  1  0
 11 26  1  0
 11 27  1  0
 12 28  1  0
 12 29  1  0
 18 30  1  0
 18 31  1  0
M  ISO  8  19  14  20  14  21  13  22  13  23  13  24  13  25  13  26  13
M  ISO  3  27  13  28  13  29  13
M  END
>  <minimizedAffinity>  (1) 
-4.23531294

>  <minimizedRMSD>  (1) 
0.0598959699

$$$$
