
     RDKit          3D

 36 39  0  0  1  0  0  0  0  0999 V2000
   45.1650   32.7990   47.6200 C   0  0  0  0  0  0  0  0  0  0  0  0
   45.7260   32.5520   46.3680 C   0  0  0  0  0  0  0  0  0  0  0  0
   46.1740   31.2280   46.0790 C   0  0  0  0  0  0  0  0  0  0  0  0
   46.0440   30.2730   47.0100 N   0  0  0  0  0  0  0  0  0  0  0  0
   45.4880   30.5520   48.2270 C   0  0  0  0  0  0  0  0  0  0  0  0
   45.0540   31.8050   48.5260 N   0  0  0  0  0  0  0  0  0  0  0  0
   45.9020   33.6680   45.4350 C   0  0  2  0  0  0  0  0  0  0  0  0
   44.9430   34.7930   45.8370 C   0  0  0  0  0  0  0  0  0  0  0  0
   44.5010   35.7330   44.8390 C   0  0  0  0  0  0  0  0  0  0  0  0
   44.9970   35.5980   43.4570 C   0  0  0  0  0  0  0  0  0  0  0  0
   46.0540   34.5950   43.2440 C   0  0  0  0  0  0  0  0  0  0  0  0
   45.6850   33.3340   44.0190 C   0  0  0  0  0  0  0  0  0  0  0  0
   46.7460   30.6550   44.9050 C   0  0  0  0  0  0  0  0  0  0  0  0
   48.0480   30.6860   44.6810 N   0  0  0  0  0  0  0  0  0  0  0  0
   48.2780   30.0950   43.5390 O   0  0  0  0  0  0  0  0  0  0  0  0
   47.2080   29.6690   42.9810 C   0  0  0  0  0  0  0  0  0  0  0  0
   46.2190   29.9960   43.8000 N   0  0  0  0  0  0  0  0  0  0  0  0
   46.9980   28.9500   41.6950 C   0  0  0  0  0  0  0  0  0  0  0  0
   47.0190   29.7350   40.4070 C   0  0  0  0  0  0  0  0  0  0  0  0
   45.7640   29.1490   40.9340 C   0  0  0  0  0  0  0  0  0  0  0  0
   44.8108   33.8098   47.8709 H   0  0  0  0  0  0  0  0  0  0  0  0
   45.3904   29.7514   48.9750 H   0  0  0  0  0  0  0  0  0  0  0  0
   46.9575   33.9684   45.5100 H   0  0  0  0  0  0  0  0  0  0  0  0
   44.5956   34.8820   46.8769 H   0  0  0  0  0  0  0  0  0  0  0  0
   43.8029   36.5406   45.1043 H   0  0  0  0  0  0  0  0  0  0  0  0
   44.1432   35.3276   42.8182 H   0  0  0  0  0  0  0  0  0  0  0  0
   45.4551   36.5674   43.2111 H   0  0  0  0  0  0  0  0  0  0  0  0
   46.1343   34.3620   42.1720 H   0  0  0  0  0  0  0  0  0  0  0  0
   47.0209   34.9848   43.5950 H   0  0  0  0  0  0  0  0  0  0  0  0
   44.6321   33.0686   43.8432 H   0  0  0  0  0  0  0  0  0  0  0  0
   46.2890   32.4698   43.7054 H   0  0  0  0  0  0  0  0  0  0  0  0
   47.5291   28.0707   42.0884 H   0  0  0  0  0  0  0  0  0  0  0  0
   47.4930   29.3127   39.5087 H   0  0  0  0  0  0  0  0  0  0  0  0
   47.3510   30.7389   40.1036 H   0  0  0  0  0  0  0  0  0  0  0  0
   44.9786   29.8088   41.3312 H   0  0  0  0  0  0  0  0  0  0  0  0
   44.9985   28.4751   40.5219 H   0  0  0  0  0  0  0  0  0  0  0  0
  1  6  2  0
  2  1  1  0
  3  2  2  0
  3  4  1  0
  4  5  2  0
  5  6  1  0
  7  8  1  0
  7  2  1  0
  9  8  2  0
 10  9  1  0
 11 10  1  0
 11 12  1  0
 12  7  1  0
 13  3  1  0
 14 13  2  0
 15 14  1  0
 16 15  1  0
 16 17  2  0
 17 13  1  0
 18 16  1  0
 19 20  1  0
 19 18  1  0
 20 18  1  0
  1 21  1  0
  5 22  1  0
  7 23  1  6
  8 24  1  0
  9 25  1  0
 10 26  1  0
 10 27  1  0
 11 28  1  0
 11 29  1  0
 12 30  1  0
 12 31  1  0
 18 32  1  0
 19 33  1  0
 19 34  1  0
 20 35  1  0
 20 36  1  0
M  ISO  8  21  14  22  14  23  13  24  13  25  13  26  13  27  13  28  13
M  ISO  8  29  13  30  13  31  13  32  13  33  13  34  13  35  13  36  13
M  END
>  <minimizedAffinity>  (1) 
-4.06620741

>  <minimizedRMSD>  (1) 
0.564841092

$$$$
