
     RDKit          3D

 32 34  0  0  1  0  0  0  0  0999 V2000
   45.1670   32.7960   47.6350 C   0  0  0  0  0  0  0  0  0  0  0  0
   45.7310   32.5170   46.3880 C   0  0  0  0  0  0  0  0  0  0  0  0
   46.1790   31.1860   46.1330 C   0  0  0  0  0  0  0  0  0  0  0  0
   46.0460   30.2600   47.0920 N   0  0  0  0  0  0  0  0  0  0  0  0
   45.4900   30.5700   48.3010 C   0  0  0  0  0  0  0  0  0  0  0  0
   45.0530   31.8370   48.5640 N   0  0  0  0  0  0  0  0  0  0  0  0
   45.8920   33.6020   45.4160 C   0  0  2  0  0  0  0  0  0  0  0  0
   44.9660   34.7570   45.8360 C   0  0  0  0  0  0  0  0  0  0  0  0
   44.5290   35.7020   44.8460 C   0  0  0  0  0  0  0  0  0  0  0  0
   44.9920   35.5370   43.4470 C   0  0  0  0  0  0  0  0  0  0  0  0
   45.9700   34.4860   43.2070 C   0  0  0  0  0  0  0  0  0  0  0  0
   45.5970   33.2530   44.0240 C   0  0  0  0  0  0  0  0  0  0  0  0
   46.7580   30.5830   44.9780 C   0  0  0  0  0  0  0  0  0  0  0  0
   48.0480   30.7010   44.7090 N   0  0  0  0  0  0  0  0  0  0  0  0
   48.2880   30.0530   43.6010 O   0  0  0  0  0  0  0  0  0  0  0  0
   47.2390   29.5070   43.1100 C   0  0  0  0  0  0  0  0  0  0  0  0
   46.2530   29.8130   43.9420 N   0  0  0  0  0  0  0  0  0  0  0  0
   47.1560   28.7100   41.8810 C   0  0  0  0  0  0  0  0  0  0  0  0
   46.7060   27.5370   41.9470 O   0  0  0  0  0  0  0  0  0  0  0  0
   47.5850   29.2990   40.6750 O   0  0  0  0  0  0  0  0  0  0  0  0
   44.8127   33.8135   47.8568 H   0  0  0  0  0  0  0  0  0  0  0  0
   45.3933   29.7905   49.0711 H   0  0  0  0  0  0  0  0  0  0  0  0
   46.9591   33.8684   45.4323 H   0  0  0  0  0  0  0  0  0  0  0  0
   44.6423   34.8580   46.8824 H   0  0  0  0  0  0  0  0  0  0  0  0
   43.8629   36.5331   45.1209 H   0  0  0  0  0  0  0  0  0  0  0  0
   44.1100   35.3211   42.8262 H   0  0  0  0  0  0  0  0  0  0  0  0
   45.5068   36.4766   43.1976 H   0  0  0  0  0  0  0  0  0  0  0  0
   45.9782   34.2292   42.1374 H   0  0  0  0  0  0  0  0  0  0  0  0
   46.9687   34.8373   43.5057 H   0  0  0  0  0  0  0  0  0  0  0  0
   44.5284   33.0211   43.9040 H   0  0  0  0  0  0  0  0  0  0  0  0
   46.1564   32.3634   43.6989 H   0  0  0  0  0  0  0  0  0  0  0  0
   47.9320   30.2262   40.6729 H   0  0  0  0  0  0  0  0  0  0  0  0
  1  6  2  0
  2  1  1  0
  3  2  2  0
  3  4  1  0
  4  5  2  0
  5  6  1  0
  7  8  1  0
  7  2  1  0
  9  8  2  0
 10  9  1  0
 11 10  1  0
 11 12  1  0
 12  7  1  0
 13  3  1  0
 14 13  2  0
 15 14  1  0
 16 15  1  0
 16 17  2  0
 17 13  1  0
 18 19  2  0
 18 16  1  0
 20 18  1  0
  1 21  1  0
  5 22  1  0
  7 23  1  6
  8 24  1  0
  9 25  1  0
 10 26  1  0
 10 27  1  0
 11 28  1  0
 11 29  1  0
 12 30  1  0
 12 31  1  0
 20 32  1  0
M  ISO  8  21  14  22  14  23  13  24  13  25  13  26  13  27  13  28  13
M  ISO  4  29  13  30  13  31  13  32   3
M  END
>  <minimizedAffinity>  (1) 
-4.02480555

>  <minimizedRMSD>  (1) 
0.0681903139

$$$$
