
     RDKit          3D

 42 45  0  0  1  0  0  0  0  0999 V2000
   45.1590   32.8090   47.6440 C   0  0  0  0  0  0  0  0  0  0  0  0
   45.7260   32.5540   46.3990 C   0  0  0  0  0  0  0  0  0  0  0  0
   46.1740   31.2270   46.1220 C   0  0  0  0  0  0  0  0  0  0  0  0
   46.0370   30.2790   47.0610 N   0  0  0  0  0  0  0  0  0  0  0  0
   45.4790   30.5670   48.2710 C   0  0  0  0  0  0  0  0  0  0  0  0
   45.0430   31.8280   48.5570 N   0  0  0  0  0  0  0  0  0  0  0  0
   45.8960   33.6610   45.4550 C   0  0  2  0  0  0  0  0  0  0  0  0
   44.9350   34.7930   45.8470 C   0  0  0  0  0  0  0  0  0  0  0  0
   44.5140   35.7190   44.8460 C   0  0  0  0  0  0  0  0  0  0  0  0
   45.0220   35.5960   43.4750 C   0  0  0  0  0  0  0  0  0  0  0  0
   46.0470   34.5650   43.2460 C   0  0  0  0  0  0  0  0  0  0  0  0
   45.6890   33.3180   44.0430 C   0  0  0  0  0  0  0  0  0  0  0  0
   46.7460   30.6450   44.9510 C   0  0  0  0  0  0  0  0  0  0  0  0
   48.0440   30.7050   44.7140 N   0  0  0  0  0  0  0  0  0  0  0  0
   48.2780   30.0920   43.5850 O   0  0  0  0  0  0  0  0  0  0  0  0
   47.2170   29.6230   43.0480 C   0  0  0  0  0  0  0  0  0  0  0  0
   46.2270   29.9460   43.8720 N   0  0  0  0  0  0  0  0  0  0  0  0
   47.1060   27.5030   39.3360 C   0  0  0  0  0  0  0  0  0  0  0  0
   45.9950   27.4940   40.1860 C   0  0  0  0  0  0  0  0  0  0  0  0
   46.0280   28.1860   41.4000 C   0  0  0  0  0  0  0  0  0  0  0  0
   47.1460   28.8920   41.7930 C   0  0  0  0  0  0  0  0  0  0  0  0
   48.2010   28.8640   40.9210 C   0  0  0  0  0  0  0  0  0  0  0  0
   48.2390   28.2050   39.7110 C   0  0  0  0  0  0  0  0  0  0  0  0
   47.0760   26.6400   37.8140 S   0  0  0  0  0  0  0  0  0  0  0  0
   46.2940   25.3720   38.0120 O   0  0  0  0  0  0  0  0  0  0  0  0
   46.5250   27.4920   36.7270 O   0  0  0  0  0  0  0  0  0  0  0  0
   44.8025   33.8217   47.8836 H   0  0  0  0  0  0  0  0  0  0  0  0
   45.3790   29.7732   49.0260 H   0  0  0  0  0  0  0  0  0  0  0  0
   46.9512   33.9626   45.5295 H   0  0  0  0  0  0  0  0  0  0  0  0
   44.5769   34.8885   46.8827 H   0  0  0  0  0  0  0  0  0  0  0  0
   43.8095   36.5240   45.1020 H   0  0  0  0  0  0  0  0  0  0  0  0
   44.1673   35.3691   42.8207 H   0  0  0  0  0  0  0  0  0  0  0  0
   45.5187   36.5538   43.2608 H   0  0  0  0  0  0  0  0  0  0  0  0
   46.0877   34.3180   42.1749 H   0  0  0  0  0  0  0  0  0  0  0  0
   47.0287   34.9413   43.5694 H   0  0  0  0  0  0  0  0  0  0  0  0
   44.6388   33.0419   43.8677 H   0  0  0  0  0  0  0  0  0  0  0  0
   46.3085   32.4596   43.7440 H   0  0  0  0  0  0  0  0  0  0  0  0
   45.0901   26.9391   39.8973 H   0  0  0  0  0  0  0  0  0  0  0  0
   45.1446   28.1672   42.0552 H   0  0  0  0  0  0  0  0  0  0  0  0
   49.1038   29.4201   41.2137 H   0  0  0  0  0  0  0  0  0  0  0  0
   49.1323   28.2355   39.0699 H   0  0  0  0  0  0  0  0  0  0  0  0
   48.3477   26.3163   37.4203 H   0  0  0  0  0  0  0  0  0  0  0  0
  1  6  2  0
  2  1  1  0
  3  2  2  0
  3  4  1  0
  4  5  2  0
  5  6  1  0
  7  8  1  0
  7  2  1  0
  9  8  2  0
 10  9  1  0
 11 10  1  0
 11 12  1  0
 12  7  1  0
 13  3  1  0
 14 13  2  0
 15 14  1  0
 16 15  1  0
 16 17  2  0
 17 13  1  0
 18 23  2  0
 18 19  1  0
 19 20  2  0
 20 21  1  0
 21 16  1  0
 22 21  2  0
 23 22  1  0
 24 25  2  0
 24 18  1  0
 26 24  2  0
  1 27  1  0
  5 28  1  0
  7 29  1  6
  8 30  1  0
  9 31  1  0
 10 32  1  0
 10 33  1  0
 11 34  1  0
 11 35  1  0
 12 36  1  0
 12 37  1  0
 19 38  1  0
 20 39  1  0
 22 40  1  0
 23 41  1  0
 24 42  1  0
M  ISO  8  27  14  28  14  29  13  30  13  31  13  32  13  33  13  34  13
M  ISO  8  35  13  36  13  37  13  38  14  39  14  40  14  41  14  42  11
M  END
>  <minimizedAffinity>  (1) 
-3.8857379

>  <minimizedRMSD>  (1) 
0.328389138

$$$$
