
     RDKit          3D

 36 39  0  0  1  0  0  0  0  0999 V2000
   45.1750   32.8190   47.6170 C   0  0  0  0  0  0  0  0  0  0  0  0
   45.7220   32.5250   46.3810 C   0  0  0  0  0  0  0  0  0  0  0  0
   46.2040   31.2000   46.1550 C   0  0  0  0  0  0  0  0  0  0  0  0
   46.1160   30.2920   47.1340 N   0  0  0  0  0  0  0  0  0  0  0  0
   45.5710   30.6190   48.3450 C   0  0  0  0  0  0  0  0  0  0  0  0
   45.1040   31.8740   48.5830 N   0  0  0  0  0  0  0  0  0  0  0  0
   45.8620   33.5970   45.3910 C   0  0  2  0  0  0  0  0  0  0  0  0
   44.9810   34.7740   45.8260 C   0  0  0  0  0  0  0  0  0  0  0  0
   44.4970   35.6980   44.8330 C   0  0  0  0  0  0  0  0  0  0  0  0
   44.8770   35.4950   43.4240 C   0  0  0  0  0  0  0  0  0  0  0  0
   45.8580   34.4340   43.1560 C   0  0  0  0  0  0  0  0  0  0  0  0
   45.5170   33.2180   44.0130 C   0  0  0  0  0  0  0  0  0  0  0  0
   46.7650   30.5790   44.9950 C   0  0  0  0  0  0  0  0  0  0  0  0
   48.0450   30.6910   44.7010 N   0  0  0  0  0  0  0  0  0  0  0  0
   48.2610   30.0280   43.5970 O   0  0  0  0  0  0  0  0  0  0  0  0
   47.2060   29.4770   43.1310 C   0  0  0  0  0  0  0  0  0  0  0  0
   46.2370   29.7970   43.9790 N   0  0  0  0  0  0  0  0  0  0  0  0
   47.0010   28.6580   41.9370 C   0  0  0  0  0  0  0  0  0  0  0  0
   47.3650   27.3320   41.7280 C   0  0  0  0  0  0  0  0  0  0  0  0
   46.9530   27.0240   40.4510 C   0  0  0  0  0  0  0  0  0  0  0  0
   46.3570   28.1680   39.9380 C   0  0  0  0  0  0  0  0  0  0  0  0
   46.4060   29.1060   40.8440 O   0  0  0  0  0  0  0  0  0  0  0  0
   44.7938   33.8313   47.8167 H   0  0  0  0  0  0  0  0  0  0  0  0
   45.5096   29.8575   49.1364 H   0  0  0  0  0  0  0  0  0  0  0  0
   46.9302   33.8584   45.3653 H   0  0  0  0  0  0  0  0  0  0  0  0
   44.7212   34.9113   46.8860 H   0  0  0  0  0  0  0  0  0  0  0  0
   43.8536   36.5422   45.1220 H   0  0  0  0  0  0  0  0  0  0  0  0
   43.9623   35.2541   42.8625 H   0  0  0  0  0  0  0  0  0  0  0  0
   45.3683   36.4302   43.1172 H   0  0  0  0  0  0  0  0  0  0  0  0
   45.8218   34.1577   42.0919 H   0  0  0  0  0  0  0  0  0  0  0  0
   46.8693   34.7908   43.4007 H   0  0  0  0  0  0  0  0  0  0  0  0
   44.4453   32.9824   43.9363 H   0  0  0  0  0  0  0  0  0  0  0  0
   46.0669   32.3228   43.6870 H   0  0  0  0  0  0  0  0  0  0  0  0
   47.8772   26.6658   42.4378 H   0  0  0  0  0  0  0  0  0  0  0  0
   47.0728   26.0589   39.9370 H   0  0  0  0  0  0  0  0  0  0  0  0
   45.9167   28.2673   38.9349 H   0  0  0  0  0  0  0  0  0  0  0  0
  1  6  2  0
  2  1  1  0
  3  2  2  0
  3  4  1  0
  4  5  2  0
  5  6  1  0
  7  8  1  0
  7  2  1  0
  9  8  2  0
 10  9  1  0
 11 10  1  0
 11 12  1  0
 12  7  1  0
 13  3  1  0
 14 13  2  0
 15 14  1  0
 16 15  1  0
 16 17  2  0
 17 13  1  0
 18 16  1  0
 19 18  2  0
 20 19  1  0
 21 20  2  0
 21 22  1  0
 22 18  1  0
  1 23  1  0
  5 24  1  0
  7 25  1  6
  8 26  1  0
  9 27  1  0
 10 28  1  0
 10 29  1  0
 11 30  1  0
 11 31  1  0
 12 32  1  0
 12 33  1  0
 19 34  1  0
 20 35  1  0
 21 36  1  0
M  ISO  8  23  14  24  14  25  13  26  13  27  13  28  13  29  13  30  13
M  ISO  6  31  13  32  13  33  13  34  14  35  14  36  14
M  END
>  <minimizedAffinity>  (1) 
-3.9581151

>  <minimizedRMSD>  (1) 
0.106673025

$$$$
