
     RDKit          3D

 36 39  0  0  1  0  0  0  0  0999 V2000
   45.1720   32.8230   47.6060 C   0  0  0  0  0  0  0  0  0  0  0  0
   45.7170   32.5300   46.3640 C   0  0  0  0  0  0  0  0  0  0  0  0
   46.1810   31.2000   46.1260 C   0  0  0  0  0  0  0  0  0  0  0  0
   46.0790   30.2830   47.0970 N   0  0  0  0  0  0  0  0  0  0  0  0
   45.5340   30.6100   48.3110 C   0  0  0  0  0  0  0  0  0  0  0  0
   45.0870   31.8640   48.5590 N   0  0  0  0  0  0  0  0  0  0  0  0
   45.8530   33.6060   45.3780 C   0  0  2  0  0  0  0  0  0  0  0  0
   44.9740   34.7850   45.8230 C   0  0  0  0  0  0  0  0  0  0  0  0
   44.5000   35.7080   44.8380 C   0  0  0  0  0  0  0  0  0  0  0  0
   44.8800   35.5270   43.4290 C   0  0  0  0  0  0  0  0  0  0  0  0
   45.8430   34.4520   43.1430 C   0  0  0  0  0  0  0  0  0  0  0  0
   45.5040   33.2380   43.9990 C   0  0  0  0  0  0  0  0  0  0  0  0
   46.7470   30.5860   44.9660 C   0  0  0  0  0  0  0  0  0  0  0  0
   48.0360   30.6980   44.6890 N   0  0  0  0  0  0  0  0  0  0  0  0
   48.2650   30.0430   43.5840 O   0  0  0  0  0  0  0  0  0  0  0  0
   47.2120   29.5010   43.1000 C   0  0  0  0  0  0  0  0  0  0  0  0
   46.2310   29.8150   43.9360 N   0  0  0  0  0  0  0  0  0  0  0  0
   47.0590   28.7000   41.8990 C   0  0  0  0  0  0  0  0  0  0  0  0
   46.4550   29.0240   40.6970 C   0  0  0  0  0  0  0  0  0  0  0  0
   46.5380   27.9790   39.8460 N   0  0  0  0  0  0  0  0  0  0  0  0
   47.1920   26.9670   40.4710 C   0  0  0  0  0  0  0  0  0  0  0  0
   47.4830   27.4420   41.6910 N   0  0  0  0  0  0  0  0  0  0  0  0
   44.8072   33.8389   47.8178 H   0  0  0  0  0  0  0  0  0  0  0  0
   45.4585   29.8427   49.0955 H   0  0  0  0  0  0  0  0  0  0  0  0
   46.9221   33.8633   45.3498 H   0  0  0  0  0  0  0  0  0  0  0  0
   44.7130   34.9175   46.8833 H   0  0  0  0  0  0  0  0  0  0  0  0
   43.8547   36.5486   45.1331 H   0  0  0  0  0  0  0  0  0  0  0  0
   43.9629   35.3146   42.8599 H   0  0  0  0  0  0  0  0  0  0  0  0
   45.3893   36.4588   43.1422 H   0  0  0  0  0  0  0  0  0  0  0  0
   45.7858   34.1798   42.0787 H   0  0  0  0  0  0  0  0  0  0  0  0
   46.8618   34.7959   43.3747 H   0  0  0  0  0  0  0  0  0  0  0  0
   44.4314   33.0054   43.9251 H   0  0  0  0  0  0  0  0  0  0  0  0
   46.0544   32.3449   43.6683 H   0  0  0  0  0  0  0  0  0  0  0  0
   45.9784   29.9888   40.4688 H   0  0  0  0  0  0  0  0  0  0  0  0
   47.4314   25.9731   40.0650 H   0  0  0  0  0  0  0  0  0  0  0  0
   47.9853   26.8929   42.4031 H   0  0  0  0  0  0  0  0  0  0  0  0
  1  6  2  0
  2  1  1  0
  3  2  2  0
  3  4  1  0
  4  5  2  0
  5  6  1  0
  7  8  1  0
  7  2  1  0
  9  8  2  0
 10  9  1  0
 11 10  1  0
 11 12  1  0
 12  7  1  0
 13  3  1  0
 14 13  2  0
 15 14  1  0
 16 15  1  0
 16 17  2  0
 17 13  1  0
 18 16  1  0
 19 18  2  0
 20 21  2  0
 20 19  1  0
 21 22  1  0
 22 18  1  0
  1 23  1  0
  5 24  1  0
  7 25  1  6
  8 26  1  0
  9 27  1  0
 10 28  1  0
 10 29  1  0
 11 30  1  0
 11 31  1  0
 12 32  1  0
 12 33  1  0
 19 34  1  0
 21 35  1  0
 22 36  1  0
M  ISO  8  23  14  24  14  25  13  26  13  27  13  28  13  29  13  30  13
M  ISO  6  31  13  32  13  33  13  34  14  35  14  36   9
M  END
>  <minimizedAffinity>  (1) 
-3.96310139

>  <minimizedRMSD>  (1) 
0.0882924721

$$$$
