
     RDKit          3D

 46 49  0  0  1  0  0  0  0  0999 V2000
   45.1460   32.7740   47.5940 C   0  0  0  0  0  0  0  0  0  0  0  0
   45.7330   32.5020   46.3430 C   0  0  0  0  0  0  0  0  0  0  0  0
   46.2410   31.1930   46.1350 C   0  0  0  0  0  0  0  0  0  0  0  0
   46.1560   30.2820   47.1020 N   0  0  0  0  0  0  0  0  0  0  0  0
   45.5800   30.5920   48.2990 C   0  0  0  0  0  0  0  0  0  0  0  0
   45.0800   31.8340   48.5360 N   0  0  0  0  0  0  0  0  0  0  0  0
   45.8980   33.6120   45.3880 C   0  0  2  0  0  0  0  0  0  0  0  0
   45.0460   34.7650   45.7950 C   0  0  0  0  0  0  0  0  0  0  0  0
   44.4910   35.6400   44.7720 C   0  0  0  0  0  0  0  0  0  0  0  0
   44.8030   35.3880   43.3400 C   0  0  0  0  0  0  0  0  0  0  0  0
   45.8850   34.4280   43.1360 C   0  0  0  0  0  0  0  0  0  0  0  0
   45.5450   33.1800   43.9790 C   0  0  0  0  0  0  0  0  0  0  0  0
   46.8340   30.5940   44.9820 C   0  0  0  0  0  0  0  0  0  0  0  0
   48.1050   30.6820   44.7090 N   0  0  0  0  0  0  0  0  0  0  0  0
   48.3420   30.0410   43.5990 O   0  0  0  0  0  0  0  0  0  0  0  0
   47.3000   29.5220   43.0980 C   0  0  0  0  0  0  0  0  0  0  0  0
   46.3240   29.8330   43.9200 N   0  0  0  0  0  0  0  0  0  0  0  0
   47.1900   28.7380   41.8630 C   0  0  0  0  0  0  0  0  0  0  0  0
   48.0310   28.8840   40.9300 O   0  0  0  0  0  0  0  0  0  0  0  0
   46.1250   27.8060   41.7250 N   0  0  0  0  0  0  0  0  0  0  0  0
   46.1270   26.5480   42.4140 C   0  0  0  0  0  0  0  0  0  0  0  0
   45.8260   25.4880   41.3600 C   0  0  0  0  0  0  0  0  0  0  0  0
   44.3970   25.6630   40.9380 C   0  0  0  0  0  0  0  0  0  0  0  0
   43.9130   27.0750   41.0300 C   0  0  0  0  0  0  0  0  0  0  0  0
   44.9970   28.0940   40.8840 C   0  0  0  0  0  0  0  0  0  0  0  0
   44.7369   33.7749   47.7959 H   0  0  0  0  0  0  0  0  0  0  0  0
   45.5190   29.8250   49.0851 H   0  0  0  0  0  0  0  0  0  0  0  0
   46.9548   33.9171   45.3979 H   0  0  0  0  0  0  0  0  0  0  0  0
   44.8383   34.9533   46.8587 H   0  0  0  0  0  0  0  0  0  0  0  0
   43.8443   36.4830   45.0569 H   0  0  0  0  0  0  0  0  0  0  0  0
   43.8976   35.0004   42.8501 H   0  0  0  0  0  0  0  0  0  0  0  0
   45.1356   36.3442   42.9098 H   0  0  0  0  0  0  0  0  0  0  0  0
   45.9548   34.1578   42.0720 H   0  0  0  0  0  0  0  0  0  0  0  0
   46.8520   34.8556   43.4395 H   0  0  0  0  0  0  0  0  0  0  0  0
   44.4773   32.9279   43.8988 H   0  0  0  0  0  0  0  0  0  0  0  0
   46.0850   32.2782   43.6546 H   0  0  0  0  0  0  0  0  0  0  0  0
   47.1109   26.3642   42.8702 H   0  0  0  0  0  0  0  0  0  0  0  0
   45.3827   26.5322   43.2238 H   0  0  0  0  0  0  0  0  0  0  0  0
   46.4918   25.6197   40.4944 H   0  0  0  0  0  0  0  0  0  0  0  0
   45.9882   24.4795   41.7682 H   0  0  0  0  0  0  0  0  0  0  0  0
   43.7646   25.0361   41.5838 H   0  0  0  0  0  0  0  0  0  0  0  0
   44.3355   25.3698   39.8796 H   0  0  0  0  0  0  0  0  0  0  0  0
   43.1719   27.2403   40.2342 H   0  0  0  0  0  0  0  0  0  0  0  0
   43.4858   27.2029   42.0356 H   0  0  0  0  0  0  0  0  0  0  0  0
   45.3306   28.1095   39.8359 H   0  0  0  0  0  0  0  0  0  0  0  0
   44.5885   29.0694   41.1869 H   0  0  0  0  0  0  0  0  0  0  0  0
  1  6  2  0
  2  1  1  0
  3  2  2  0
  3  4  1  0
  4  5  2  0
  5  6  1  0
  7  8  1  0
  7  2  1  0
  9  8  2  0
 10  9  1  0
 11 10  1  0
 11 12  1  0
 12  7  1  0
 13  3  1  0
 14 13  2  0
 15 14  1  0
 16 15  1  0
 16 17  2  0
 17 13  1  0
 18 16  1  0
 19 18  2  0
 20 18  1  0
 20 21  1  0
 22 21  1  0
 23 24  1  0
 23 22  1  0
 25 24  1  0
 25 20  1  0
  1 26  1  0
  5 27  1  0
  7 28  1  6
  8 29  1  0
  9 30  1  0
 10 31  1  0
 10 32  1  0
 11 33  1  0
 11 34  1  0
 12 35  1  0
 12 36  1  0
 21 37  1  0
 21 38  1  0
 22 39  1  0
 22 40  1  0
 23 41  1  0
 23 42  1  0
 24 43  1  0
 24 44  1  0
 25 45  1  0
 25 46  1  0
M  ISO  8  26  14  27  14  28  13  29  13  30  13  31  13  32  13  33  13
M  ISO  8  34  13  35  13  36  13  37  13  38  13  39  13  40  13  41  13
M  ISO  5  42  13  43  13  44  13  45  13  46  13
M  END
>  <minimizedAffinity>  (1) 
-3.90282512

>  <minimizedRMSD>  (1) 
1.68032527

$$$$
