
     RDKit          3D

 43 46  0  0  1  0  0  0  0  0999 V2000
   45.1550   32.7960   47.6000 C   0  0  0  0  0  0  0  0  0  0  0  0
   45.7350   32.5090   46.3480 C   0  0  0  0  0  0  0  0  0  0  0  0
   46.2250   31.1910   46.1500 C   0  0  0  0  0  0  0  0  0  0  0  0
   46.1280   30.2930   47.1240 N   0  0  0  0  0  0  0  0  0  0  0  0
   45.5610   30.6130   48.3190 C   0  0  0  0  0  0  0  0  0  0  0  0
   45.0760   31.8730   48.5460 N   0  0  0  0  0  0  0  0  0  0  0  0
   45.8900   33.6010   45.3780 C   0  0  2  0  0  0  0  0  0  0  0  0
   45.0470   34.7640   45.7830 C   0  0  0  0  0  0  0  0  0  0  0  0
   44.4950   35.6470   44.7680 C   0  0  0  0  0  0  0  0  0  0  0  0
   44.8030   35.3900   43.3410 C   0  0  0  0  0  0  0  0  0  0  0  0
   45.8670   34.4050   43.1210 C   0  0  0  0  0  0  0  0  0  0  0  0
   45.5130   33.1720   43.9810 C   0  0  0  0  0  0  0  0  0  0  0  0
   46.8100   30.5750   45.0000 C   0  0  0  0  0  0  0  0  0  0  0  0
   48.0690   30.6960   44.6860 N   0  0  0  0  0  0  0  0  0  0  0  0
   48.2960   30.0270   43.5900 O   0  0  0  0  0  0  0  0  0  0  0  0
   47.2590   29.4580   43.1390 C   0  0  0  0  0  0  0  0  0  0  0  0
   46.2960   29.7620   43.9780 N   0  0  0  0  0  0  0  0  0  0  0  0
   47.1270   28.6270   41.9360 C   0  0  0  0  0  0  0  0  0  0  0  0
   47.8140   28.8670   40.9050 O   0  0  0  0  0  0  0  0  0  0  0  0
   46.2390   27.5270   41.8590 N   0  0  0  0  0  0  0  0  0  0  0  0
   46.3380   26.3890   42.7550 C   0  0  0  0  0  0  0  0  0  0  0  0
   44.8780   26.2880   43.1980 C   0  0  0  0  0  0  0  0  0  0  0  0
   44.1290   26.6550   41.9570 C   0  0  0  0  0  0  0  0  0  0  0  0
   45.1190   27.2560   40.9780 C   0  0  0  0  0  0  0  0  0  0  0  0
   44.7611   33.8044   47.7947 H   0  0  0  0  0  0  0  0  0  0  0  0
   45.4917   29.8519   49.1102 H   0  0  0  0  0  0  0  0  0  0  0  0
   46.9520   33.8877   45.3709 H   0  0  0  0  0  0  0  0  0  0  0  0
   44.8436   34.9529   46.8474 H   0  0  0  0  0  0  0  0  0  0  0  0
   43.8566   36.4954   45.0557 H   0  0  0  0  0  0  0  0  0  0  0  0
   43.8883   35.0241   42.8517 H   0  0  0  0  0  0  0  0  0  0  0  0
   45.1621   36.3408   42.9201 H   0  0  0  0  0  0  0  0  0  0  0  0
   45.9117   34.1259   42.0579 H   0  0  0  0  0  0  0  0  0  0  0  0
   46.8494   34.8139   43.3999 H   0  0  0  0  0  0  0  0  0  0  0  0
   44.4393   32.9418   43.9161 H   0  0  0  0  0  0  0  0  0  0  0  0
   46.0330   32.2584   43.6570 H   0  0  0  0  0  0  0  0  0  0  0  0
   46.6712   25.4815   42.2302 H   0  0  0  0  0  0  0  0  0  0  0  0
   47.0680   26.4977   43.5706 H   0  0  0  0  0  0  0  0  0  0  0  0
   44.6320   25.2659   43.5216 H   0  0  0  0  0  0  0  0  0  0  0  0
   44.6383   26.9312   44.0576 H   0  0  0  0  0  0  0  0  0  0  0  0
   43.6679   25.7574   41.5191 H   0  0  0  0  0  0  0  0  0  0  0  0
   43.3319   27.3767   42.1889 H   0  0  0  0  0  0  0  0  0  0  0  0
   44.7293   28.1784   40.5226 H   0  0  0  0  0  0  0  0  0  0  0  0
   45.3595   26.6121   40.1192 H   0  0  0  0  0  0  0  0  0  0  0  0
  1  6  2  0
  2  1  1  0
  3  2  2  0
  3  4  1  0
  4  5  2  0
  5  6  1  0
  7  8  1  0
  7  2  1  0
  9  8  2  0
 10  9  1  0
 11 10  1  0
 11 12  1  0
 12  7  1  0
 13  3  1  0
 14 13  2  0
 15 14  1  0
 16 15  1  0
 16 17  2  0
 17 13  1  0
 18 16  1  0
 19 18  2  0
 20 18  1  0
 20 21  1  0
 21 22  1  0
 23 22  1  0
 24 20  1  0
 24 23  1  0
  1 25  1  0
  5 26  1  0
  7 27  1  6
  8 28  1  0
  9 29  1  0
 10 30  1  0
 10 31  1  0
 11 32  1  0
 11 33  1  0
 12 34  1  0
 12 35  1  0
 21 36  1  0
 21 37  1  0
 22 38  1  0
 22 39  1  0
 23 40  1  0
 23 41  1  0
 24 42  1  0
 24 43  1  0
M  ISO  8  25  14  26  14  27  13  28  13  29  13  30  13  31  13  32  13
M  ISO  8  33  13  34  13  35  13  36  13  37  13  38  13  39  13  40  13
M  ISO  3  41  13  42  13  43  13
M  END
>  <minimizedAffinity>  (1) 
-3.93936396

>  <minimizedRMSD>  (1) 
1.37017775

$$$$
