
     RDKit          3D

 38 41  0  0  1  0  0  0  0  0999 V2000
   45.8210   32.5550   46.6830 C   0  0  0  0  0  0  0  0  0  0  0  0
   46.2730   32.7050   45.3560 C   0  0  0  0  0  0  0  0  0  0  0  0
   46.9300   31.5970   44.7620 C   0  0  0  0  0  0  0  0  0  0  0  0
   47.0990   30.4790   45.4600 N   0  0  0  0  0  0  0  0  0  0  0  0
   46.6500   30.3740   46.7390 C   0  0  0  0  0  0  0  0  0  0  0  0
   46.0120   31.4170   47.3430 N   0  0  0  0  0  0  0  0  0  0  0  0
   46.1520   34.0260   44.7210 C   0  0  2  0  0  0  0  0  0  0  0  0
   45.1340   34.8460   45.4360 C   0  0  0  0  0  0  0  0  0  0  0  0
   44.3620   35.8390   44.7080 C   0  0  0  0  0  0  0  0  0  0  0  0
   44.6240   36.0370   43.2610 C   0  0  0  0  0  0  0  0  0  0  0  0
   45.8270   35.3680   42.7640 C   0  0  0  0  0  0  0  0  0  0  0  0
   45.7650   33.9040   43.2600 C   0  0  0  0  0  0  0  0  0  0  0  0
   47.4390   31.4080   43.4430 C   0  0  0  0  0  0  0  0  0  0  0  0
   48.6140   31.8300   43.0700 N   0  0  0  0  0  0  0  0  0  0  0  0
   48.7970   31.5160   41.8160 O   0  0  0  0  0  0  0  0  0  0  0  0
   47.8080   30.9030   41.3150 C   0  0  0  0  0  0  0  0  0  0  0  0
   46.9270   30.8050   42.2850 N   0  0  0  0  0  0  0  0  0  0  0  0
   47.6540   30.4010   39.9440 C   0  0  0  0  0  0  0  0  0  0  0  0
   47.3160   29.1990   39.7340 O   0  0  0  0  0  0  0  0  0  0  0  0
   47.8900   31.2970   38.8190 C   0  0  0  0  0  0  0  0  0  0  0  0
   47.6900   30.9830   37.4920 C   0  0  0  0  0  0  0  0  0  0  0  0
   48.0160   32.0630   36.7360 N   0  0  0  0  0  0  0  0  0  0  0  0
   48.4110   33.0220   37.6240 C   0  0  0  0  0  0  0  0  0  0  0  0
   48.3340   32.5550   38.8870 N   0  0  0  0  0  0  0  0  0  0  0  0
   45.3039   33.3900   47.1783 H   0  0  0  0  0  0  0  0  0  0  0  0
   46.8032   29.4363   47.2933 H   0  0  0  0  0  0  0  0  0  0  0  0
   47.1343   34.5174   44.7805 H   0  0  0  0  0  0  0  0  0  0  0  0
   44.9670   34.7000   46.5134 H   0  0  0  0  0  0  0  0  0  0  0  0
   43.5942   36.4355   45.2225 H   0  0  0  0  0  0  0  0  0  0  0  0
   43.7600   35.6516   42.6997 H   0  0  0  0  0  0  0  0  0  0  0  0
   44.7845   37.1157   43.1173 H   0  0  0  0  0  0  0  0  0  0  0  0
   46.7260   35.8635   43.1594 H   0  0  0  0  0  0  0  0  0  0  0  0
   45.8753   35.4098   41.6659 H   0  0  0  0  0  0  0  0  0  0  0  0
   44.7508   33.4920   43.1521 H   0  0  0  0  0  0  0  0  0  0  0  0
   46.4178   33.2245   42.6925 H   0  0  0  0  0  0  0  0  0  0  0  0
   47.3267   30.0180   37.1089 H   0  0  0  0  0  0  0  0  0  0  0  0
   48.7450   34.0331   37.3482 H   0  0  0  0  0  0  0  0  0  0  0  0
   48.5732   33.0724   39.7449 H   0  0  0  0  0  0  0  0  0  0  0  0
  1  6  2  0
  2  1  1  0
  3  2  2  0
  3  4  1  0
  4  5  2  0
  5  6  1  0
  7  2  1  0
  7  8  1  0
  9  8  2  0
 10  9  1  0
 11 12  1  0
 11 10  1  0
 12  7  1  0
 13  3  1  0
 14 13  2  0
 15 14  1  0
 16 15  1  0
 16 17  2  0
 17 13  1  0
 18 16  1  0
 19 18  2  0
 20 24  1  0
 20 18  1  0
 21 20  2  0
 22 21  1  0
 22 23  2  0
 23 24  1  0
  1 25  1  0
  5 26  1  0
  7 27  1  6
  8 28  1  0
  9 29  1  0
 10 30  1  0
 10 31  1  0
 11 32  1  0
 11 33  1  0
 12 34  1  0
 12 35  1  0
 21 36  1  0
 23 37  1  0
 24 38  1  0
M  ISO  8  25  14  26  14  27  13  28  13  29  13  30  13  31  13  32  13
M  ISO  6  33  13  34  13  35  13  36  14  37  14  38   9
M  END
>  <minimizedAffinity>  (1) 
-4.23557091

>  <minimizedRMSD>  (1) 
3.59315753

$$$$
