
     RDKit          3D

 45 48  0  0  1  0  0  0  0  0999 V2000
   45.1780   32.8060   47.6530 C   0  0  0  0  0  0  0  0  0  0  0  0
   45.7420   32.4890   46.4050 C   0  0  0  0  0  0  0  0  0  0  0  0
   46.2300   31.1700   46.2300 C   0  0  0  0  0  0  0  0  0  0  0  0
   46.1470   30.2870   47.2230 N   0  0  0  0  0  0  0  0  0  0  0  0
   45.5940   30.6370   48.4180 C   0  0  0  0  0  0  0  0  0  0  0  0
   45.1110   31.9000   48.6230 N   0  0  0  0  0  0  0  0  0  0  0  0
   45.8870   33.5580   45.4070 C   0  0  2  0  0  0  0  0  0  0  0  0
   45.0620   34.7350   45.8030 C   0  0  0  0  0  0  0  0  0  0  0  0
   44.5090   35.6000   44.7720 C   0  0  0  0  0  0  0  0  0  0  0  0
   44.7930   35.3110   43.3440 C   0  0  0  0  0  0  0  0  0  0  0  0
   45.8430   34.3160   43.1340 C   0  0  0  0  0  0  0  0  0  0  0  0
   45.5010   33.1010   44.0240 C   0  0  0  0  0  0  0  0  0  0  0  0
   46.8000   30.5250   45.0860 C   0  0  0  0  0  0  0  0  0  0  0  0
   48.0350   30.6940   44.7110 N   0  0  0  0  0  0  0  0  0  0  0  0
   48.2480   29.9790   43.6430 O   0  0  0  0  0  0  0  0  0  0  0  0
   47.2270   29.3310   43.2680 C   0  0  0  0  0  0  0  0  0  0  0  0
   46.2850   29.6310   44.1340 N   0  0  0  0  0  0  0  0  0  0  0  0
   47.0950   28.4290   42.1150 C   0  0  0  0  0  0  0  0  0  0  0  0
   47.2100   28.8700   40.9390 O   0  0  0  0  0  0  0  0  0  0  0  0
   46.8300   27.0310   42.3540 N   0  0  0  0  0  0  0  0  0  0  0  0
   47.5540   26.2970   43.3640 C   0  0  0  0  0  0  0  0  0  0  0  0
   46.6120   25.4030   44.1410 C   0  0  0  0  0  0  0  0  0  0  0  0
   45.8430   24.5880   43.2170 N   0  0  0  0  0  0  0  0  0  0  0  0
   45.0080   25.4430   42.4190 C   0  0  0  0  0  0  0  0  0  0  0  0
   45.8190   26.3740   41.5580 C   0  0  0  0  0  0  0  0  0  0  0  0
   44.7864   33.8187   47.8293 H   0  0  0  0  0  0  0  0  0  0  0  0
   45.5353   29.8948   49.2277 H   0  0  0  0  0  0  0  0  0  0  0  0
   46.9497   33.8403   45.3756 H   0  0  0  0  0  0  0  0  0  0  0  0
   44.8730   34.9476   46.8656 H   0  0  0  0  0  0  0  0  0  0  0  0
   43.8847   36.4623   45.0489 H   0  0  0  0  0  0  0  0  0  0  0  0
   43.8686   34.9419   42.8758 H   0  0  0  0  0  0  0  0  0  0  0  0
   45.1509   36.2495   42.8955 H   0  0  0  0  0  0  0  0  0  0  0  0
   45.8704   34.0136   42.0767 H   0  0  0  0  0  0  0  0  0  0  0  0
   46.8297   34.7268   43.3942 H   0  0  0  0  0  0  0  0  0  0  0  0
   44.4276   32.8660   43.9729 H   0  0  0  0  0  0  0  0  0  0  0  0
   46.0227   32.1833   43.7149 H   0  0  0  0  0  0  0  0  0  0  0  0
   48.3248   25.6788   42.8806 H   0  0  0  0  0  0  0  0  0  0  0  0
   48.0230   27.0106   44.0573 H   0  0  0  0  0  0  0  0  0  0  0  0
   47.1936   24.7502   44.8086 H   0  0  0  0  0  0  0  0  0  0  0  0
   45.9278   26.0236   44.7383 H   0  0  0  0  0  0  0  0  0  0  0  0
   46.4836   24.0627   42.6050 H   0  0  0  0  0  0  0  0  0  0  0  0
   44.3762   24.8184   41.7704 H   0  0  0  0  0  0  0  0  0  0  0  0
   44.3961   26.0536   43.0992 H   0  0  0  0  0  0  0  0  0  0  0  0
   45.1552   27.1313   41.1154 H   0  0  0  0  0  0  0  0  0  0  0  0
   46.3081   25.7940   40.7615 H   0  0  0  0  0  0  0  0  0  0  0  0
  1  6  2  0
  2  1  1  0
  3  2  2  0
  3  4  1  0
  4  5  2  0
  5  6  1  0
  7  8  1  0
  7  2  1  0
  9  8  2  0
 10  9  1  0
 11 10  1  0
 11 12  1  0
 12  7  1  0
 13  3  1  0
 14 13  2  0
 15 14  1  0
 16 15  1  0
 16 17  2  0
 17 13  1  0
 18 20  1  0
 18 16  1  0
 19 18  2  0
 20 21  1  0
 21 22  1  0
 23 22  1  0
 24 23  1  0
 25 20  1  0
 25 24  1  0
  1 26  1  0
  5 27  1  0
  7 28  1  6
  8 29  1  0
  9 30  1  0
 10 31  1  0
 10 32  1  0
 11 33  1  0
 11 34  1  0
 12 35  1  0
 12 36  1  0
 21 37  1  0
 21 38  1  0
 22 39  1  0
 22 40  1  0
 23 41  1  0
 24 42  1  0
 24 43  1  0
 25 44  1  0
 25 45  1  0
M  ISO  8  26  14  27  14  28  13  29  13  30  13  31  13  32  13  33  13
M  ISO  8  34  13  35  13  36  13  37  13  38  13  39  13  40  13  41   5
M  ISO  4  42  13  43  13  44  13  45  13
M  END
>  <minimizedAffinity>  (1) 
-3.94182491

>  <minimizedRMSD>  (1) 
0.902708232

$$$$
