
     RDKit          3D

 32 34  0  0  1  0  0  0  0  0999 V2000
   45.1520   32.7910   47.5950 C   0  0  0  0  0  0  0  0  0  0  0  0
   45.7240   32.5100   46.3310 C   0  0  0  0  0  0  0  0  0  0  0  0
   46.1890   31.1830   46.1250 C   0  0  0  0  0  0  0  0  0  0  0  0
   46.0740   30.2790   47.0950 N   0  0  0  0  0  0  0  0  0  0  0  0
   45.5150   30.5980   48.2920 C   0  0  0  0  0  0  0  0  0  0  0  0
   45.0580   31.8590   48.5290 N   0  0  0  0  0  0  0  0  0  0  0  0
   45.8830   33.6090   45.3760 C   0  0  2  0  0  0  0  0  0  0  0  0
   45.0420   34.7740   45.7810 C   0  0  0  0  0  0  0  0  0  0  0  0
   44.4900   35.6490   44.7690 C   0  0  0  0  0  0  0  0  0  0  0  0
   44.7990   35.4040   43.3420 C   0  0  0  0  0  0  0  0  0  0  0  0
   45.8650   34.4220   43.1200 C   0  0  0  0  0  0  0  0  0  0  0  0
   45.5140   33.1820   43.9690 C   0  0  0  0  0  0  0  0  0  0  0  0
   46.7770   30.5750   44.9810 C   0  0  0  0  0  0  0  0  0  0  0  0
   48.0420   30.7020   44.6890 N   0  0  0  0  0  0  0  0  0  0  0  0
   48.2910   30.0450   43.5920 O   0  0  0  0  0  0  0  0  0  0  0  0
   47.2610   29.4760   43.1180 C   0  0  0  0  0  0  0  0  0  0  0  0
   46.2850   29.7730   43.9460 N   0  0  0  0  0  0  0  0  0  0  0  0
   47.1580   28.6580   41.9040 C   0  0  0  0  0  0  0  0  0  0  0  0
   46.6310   29.1280   40.8550 O   0  0  0  0  0  0  0  0  0  0  0  0
   47.6210   27.3570   41.8390 O   0  0  0  0  0  0  0  0  0  0  0  0
   44.7784   33.8041   47.8046 H   0  0  0  0  0  0  0  0  0  0  0  0
   45.4309   29.8312   49.0762 H   0  0  0  0  0  0  0  0  0  0  0  0
   46.9436   33.9006   45.3815 H   0  0  0  0  0  0  0  0  0  0  0  0
   44.8425   34.9668   46.8454 H   0  0  0  0  0  0  0  0  0  0  0  0
   43.8445   36.4913   45.0584 H   0  0  0  0  0  0  0  0  0  0  0  0
   43.8858   35.0400   42.8484 H   0  0  0  0  0  0  0  0  0  0  0  0
   45.1553   36.3581   42.9264 H   0  0  0  0  0  0  0  0  0  0  0  0
   45.9136   34.1503   42.0552 H   0  0  0  0  0  0  0  0  0  0  0  0
   46.8447   34.8318   43.4068 H   0  0  0  0  0  0  0  0  0  0  0  0
   44.4422   32.9454   43.8970 H   0  0  0  0  0  0  0  0  0  0  0  0
   46.0402   32.2729   43.6424 H   0  0  0  0  0  0  0  0  0  0  0  0
   47.5311   26.8410   40.9989 H   0  0  0  0  0  0  0  0  0  0  0  0
  1  6  2  0
  2  1  1  0
  3  2  2  0
  3  4  1  0
  4  5  2  0
  5  6  1  0
  7  8  1  0
  7  2  1  0
  9  8  2  0
 10  9  1  0
 11 10  1  0
 11 12  1  0
 12  7  1  0
 13  3  1  0
 14 13  2  0
 15 14  1  0
 16 15  1  0
 16 17  2  0
 17 13  1  0
 18 16  1  0
 19 18  2  0
 20 18  1  0
  1 21  1  0
  5 22  1  0
  7 23  1  6
  8 24  1  0
  9 25  1  0
 10 26  1  0
 10 27  1  0
 11 28  1  0
 11 29  1  0
 12 30  1  0
 12 31  1  0
 20 32  1  0
M  ISO  8  21  14  22  14  23  13  24  13  25  13  26  13  27  13  28  13
M  ISO  4  29  13  30  13  31  13  32   3
M  END
>  <minimizedAffinity>  (1) 
-3.8825388

>  <minimizedRMSD>  (1) 
0.0447708853

$$$$
