
     RDKit          3D

 41 44  0  0  1  0  0  0  0  0999 V2000
   45.1640   32.8200   47.6050 C   0  0  0  0  0  0  0  0  0  0  0  0
   45.7300   32.5160   46.3460 C   0  0  0  0  0  0  0  0  0  0  0  0
   46.1920   31.1910   46.1520 C   0  0  0  0  0  0  0  0  0  0  0  0
   46.0840   30.2960   47.1320 N   0  0  0  0  0  0  0  0  0  0  0  0
   45.5310   30.6350   48.3280 C   0  0  0  0  0  0  0  0  0  0  0  0
   45.0740   31.9020   48.5530 N   0  0  0  0  0  0  0  0  0  0  0  0
   45.8870   33.6040   45.3720 C   0  0  2  0  0  0  0  0  0  0  0  0
   45.0440   34.7700   45.7750 C   0  0  0  0  0  0  0  0  0  0  0  0
   44.4930   35.6590   44.7600 C   0  0  0  0  0  0  0  0  0  0  0  0
   44.7930   35.3830   43.3240 C   0  0  0  0  0  0  0  0  0  0  0  0
   45.8420   34.3960   43.1090 C   0  0  0  0  0  0  0  0  0  0  0  0
   45.4930   33.1680   43.9750 C   0  0  0  0  0  0  0  0  0  0  0  0
   46.7710   30.5670   45.0100 C   0  0  0  0  0  0  0  0  0  0  0  0
   48.0320   30.6960   44.6990 N   0  0  0  0  0  0  0  0  0  0  0  0
   48.2680   30.0200   43.6110 O   0  0  0  0  0  0  0  0  0  0  0  0
   47.2380   29.4340   43.1600 C   0  0  0  0  0  0  0  0  0  0  0  0
   46.2700   29.7410   43.9970 N   0  0  0  0  0  0  0  0  0  0  0  0
   47.0790   28.5800   41.9640 C   0  0  0  0  0  0  0  0  0  0  0  0
   47.8040   28.7510   40.9600 O   0  0  0  0  0  0  0  0  0  0  0  0
   46.0520   27.5540   42.0300 C   0  0  0  0  0  0  0  0  0  0  0  0
   44.9330   27.8490   41.2690 C   0  0  0  0  0  0  0  0  0  0  0  0
   43.8730   26.9680   41.2350 C   0  0  0  0  0  0  0  0  0  0  0  0
   43.9720   25.8100   41.9730 C   0  0  0  0  0  0  0  0  0  0  0  0
   45.1040   25.5420   42.7250 C   0  0  0  0  0  0  0  0  0  0  0  0
   46.1870   26.4050   42.7810 C   0  0  0  0  0  0  0  0  0  0  0  0
   44.7922   33.8368   47.7996 H   0  0  0  0  0  0  0  0  0  0  0  0
   45.4511   29.8793   49.1233 H   0  0  0  0  0  0  0  0  0  0  0  0
   46.9498   33.8872   45.3593 H   0  0  0  0  0  0  0  0  0  0  0  0
   44.8390   34.9577   46.8393 H   0  0  0  0  0  0  0  0  0  0  0  0
   43.8677   36.5174   45.0468 H   0  0  0  0  0  0  0  0  0  0  0  0
   43.8730   35.0178   42.8441 H   0  0  0  0  0  0  0  0  0  0  0  0
   45.1558   36.3270   42.8913 H   0  0  0  0  0  0  0  0  0  0  0  0
   45.8799   34.1107   42.0473 H   0  0  0  0  0  0  0  0  0  0  0  0
   46.8257   34.8034   43.3853 H   0  0  0  0  0  0  0  0  0  0  0  0
   44.4181   32.9406   43.9215 H   0  0  0  0  0  0  0  0  0  0  0  0
   46.0062   32.2513   43.6491 H   0  0  0  0  0  0  0  0  0  0  0  0
   44.8900   28.7849   40.6925 H   0  0  0  0  0  0  0  0  0  0  0  0
   42.9756   27.1837   40.6365 H   0  0  0  0  0  0  0  0  0  0  0  0
   43.1417   25.0885   41.9654 H   0  0  0  0  0  0  0  0  0  0  0  0
   45.1450   24.6059   43.3013 H   0  0  0  0  0  0  0  0  0  0  0  0
   47.0852   26.1901   43.3785 H   0  0  0  0  0  0  0  0  0  0  0  0
  1  6  2  0
  2  1  1  0
  3  2  2  0
  3  4  1  0
  4  5  2  0
  5  6  1  0
  7  8  1  0
  7  2  1  0
  9  8  2  0
 10  9  1  0
 11 10  1  0
 11 12  1  0
 12  7  1  0
 13  3  1  0
 14 13  2  0
 15 14  1  0
 16 15  1  0
 16 17  2  0
 17 13  1  0
 18 20  1  0
 18 16  1  0
 19 18  2  0
 20 25  1  0
 21 20  2  0
 22 21  1  0
 22 23  2  0
 23 24  1  0
 24 25  2  0
  1 26  1  0
  5 27  1  0
  7 28  1  6
  8 29  1  0
  9 30  1  0
 10 31  1  0
 10 32  1  0
 11 33  1  0
 11 34  1  0
 12 35  1  0
 12 36  1  0
 21 37  1  0
 22 38  1  0
 23 39  1  0
 24 40  1  0
 25 41  1  0
M  ISO  8  26  14  27  14  28  13  29  13  30  13  31  13  32  13  33  13
M  ISO  8  34  13  35  13  36  13  37  14  38  14  39  14  40  14  41  14
M  END
>  <minimizedAffinity>  (1) 
-3.7656188

>  <minimizedRMSD>  (1) 
1.56459367

$$$$
