
     RDKit          3D

 51 55  0  0  1  0  0  0  0  0999 V2000
   45.0190   32.5530   47.5980 C   0  0  0  0  0  0  0  0  0  0  0  0
   45.8920   32.3860   46.4810 C   0  0  0  0  0  0  0  0  0  0  0  0
   46.7140   31.2270   46.4940 C   0  0  0  0  0  0  0  0  0  0  0  0
   46.6600   30.3710   47.4930 N   0  0  0  0  0  0  0  0  0  0  0  0
   45.8110   30.5710   48.5400 C   0  0  0  0  0  0  0  0  0  0  0  0
   44.9910   31.6710   48.5830 N   0  0  0  0  0  0  0  0  0  0  0  0
   45.9860   33.4880   45.5040 C   0  0  2  0  0  0  0  0  0  0  0  0
   45.2060   34.6390   45.9210 C   0  0  0  0  0  0  0  0  0  0  0  0
   44.5080   35.4560   44.9230 C   0  0  0  0  0  0  0  0  0  0  0  0
   44.6250   35.1280   43.4760 C   0  0  0  0  0  0  0  0  0  0  0  0
   45.7490   34.2110   43.2230 C   0  0  0  0  0  0  0  0  0  0  0  0
   45.4610   32.9580   44.1310 C   0  0  0  0  0  0  0  0  0  0  0  0
   47.6280   30.7420   45.5130 C   0  0  0  0  0  0  0  0  0  0  0  0
   48.3380   29.6850   45.6450 N   0  0  0  0  0  0  0  0  0  0  0  0
   49.0750   29.5240   44.5820 O   0  0  0  0  0  0  0  0  0  0  0  0
   48.8930   30.4500   43.7110 C   0  0  0  0  0  0  0  0  0  0  0  0
   48.0040   31.2360   44.2320 N   0  0  0  0  0  0  0  0  0  0  0  0
   49.5690   30.5490   42.4230 C   0  0  0  0  0  0  0  0  0  0  0  0
   49.0540   30.0570   41.3710 O   0  0  0  0  0  0  0  0  0  0  0  0
   50.8820   31.2390   42.3180 C   0  0  1  0  0  0  0  0  0  0  0  0
   51.2360   31.9370   41.0970 C   0  0  0  0  0  0  0  0  0  0  0  0
   50.7560   32.7510   42.2820 C   0  0  1  0  0  0  0  0  0  0  0  0
   49.5480   33.5380   42.0310 C   0  0  0  0  0  0  0  0  0  0  0  0
   49.1170   33.6500   40.6200 C   0  0  0  0  0  0  0  0  0  0  0  0
   48.1850   34.8680   40.6780 C   0  0  0  0  0  0  0  0  0  0  0  0
   48.9790   35.8390   41.4900 C   0  0  0  0  0  0  0  0  0  0  0  0
   49.7460   35.0070   42.4650 C   0  0  0  0  0  0  0  0  0  0  0  0
   44.3577   33.4310   47.6402 H   0  0  0  0  0  0  0  0  0  0  0  0
   45.7824   29.8408   49.3622 H   0  0  0  0  0  0  0  0  0  0  0  0
   47.0332   33.8154   45.4251 H   0  0  0  0  0  0  0  0  0  0  0  0
   45.1383   34.8989   46.9877 H   0  0  0  0  0  0  0  0  0  0  0  0
   43.8971   36.3125   45.2444 H   0  0  0  0  0  0  0  0  0  0  0  0
   43.6919   34.6519   43.1402 H   0  0  0  0  0  0  0  0  0  0  0  0
   44.8077   36.0611   42.9228 H   0  0  0  0  0  0  0  0  0  0  0  0
   45.7810   33.9213   42.1623 H   0  0  0  0  0  0  0  0  0  0  0  0
   46.7205   34.6736   43.4513 H   0  0  0  0  0  0  0  0  0  0  0  0
   44.3877   32.7201   44.1691 H   0  0  0  0  0  0  0  0  0  0  0  0
   45.9262   32.0220   43.7883 H   0  0  0  0  0  0  0  0  0  0  0  0
   51.4198   30.4840   42.9102 H   0  0  0  0  0  0  0  0  0  0  0  0
   50.5966   31.8389   40.2073 H   0  0  0  0  0  0  0  0  0  0  0  0
   52.1312   31.9632   40.4582 H   0  0  0  0  0  0  0  0  0  0  0  0
   51.0842   33.5184   42.9986 H   0  0  0  0  0  0  0  0  0  0  0  0
   48.7921   32.9799   42.6029 H   0  0  0  0  0  0  0  0  0  0  0  0
   48.5792   32.7483   40.2917 H   0  0  0  0  0  0  0  0  0  0  0  0
   49.9468   33.7550   39.9055 H   0  0  0  0  0  0  0  0  0  0  0  0
   47.9823   35.2627   39.6714 H   0  0  0  0  0  0  0  0  0  0  0  0
   47.1951   34.6450   41.1027 H   0  0  0  0  0  0  0  0  0  0  0  0
   49.6655   36.4083   40.8461 H   0  0  0  0  0  0  0  0  0  0  0  0
   48.3341   36.5723   41.9964 H   0  0  0  0  0  0  0  0  0  0  0  0
   49.3584   35.1589   43.4832 H   0  0  0  0  0  0  0  0  0  0  0  0
   50.8112   35.2813   42.4737 H   0  0  0  0  0  0  0  0  0  0  0  0
  1  6  2  0
  2  3  2  0
  2  1  1  0
  3  4  1  0
  4  5  2  0
  5  6  1  0
  7  8  1  0
  7  2  1  0
  9  8  2  0
 10  9  1  0
 11 10  1  0
 11 12  1  0
 12  7  1  0
 13 14  2  0
 13  3  1  0
 15 14  1  0
 16 17  2  0
 16 15  1  0
 17 13  1  0
 18 16  1  0
 19 18  2  0
 20 18  1  0
 21 22  1  0
 21 20  1  0
 22 20  1  0
 23 22  1  0
 23 27  1  0
 24 25  1  0
 24 23  1  0
 25 26  1  0
 26 27  1  0
  1 28  1  0
  5 29  1  0
  7 30  1  6
  8 31  1  0
  9 32  1  0
 10 33  1  0
 10 34  1  0
 11 35  1  0
 11 36  1  0
 12 37  1  0
 12 38  1  0
 20 39  1  1
 21 40  1  0
 21 41  1  0
 22 42  1  1
 23 43  1  0
 24 44  1  0
 24 45  1  0
 25 46  1  0
 25 47  1  0
 26 48  1  0
 26 49  1  0
 27 50  1  0
 27 51  1  0
M  ISO  8  28  14  29  14  30  13  31  13  32  13  33  13  34  13  35  13
M  ISO  8  36  13  37  13  38  13  39  13  40  13  41  13  42  13  43  13
M  ISO  8  44  13  45  13  46  13  47  13  48  13  49  13  50  13  51  13
M  END
>  <minimizedAffinity>  (1) 
-6.1056633

>  <minimizedRMSD>  (1) 
4.15848923

$$$$
