
     RDKit          3D

 48 52  0  0  1  0  0  0  0  0999 V2000
   45.2830   32.0890   47.1750 C   0  0  0  0  0  0  0  0  0  0  0  0
   46.6510   31.6800   47.1520 C   0  0  0  0  0  0  0  0  0  0  0  0
   47.1820   31.1840   48.3750 C   0  0  0  0  0  0  0  0  0  0  0  0
   46.4310   31.1190   49.4560 N   0  0  0  0  0  0  0  0  0  0  0  0
   45.1320   31.5220   49.4310 C   0  0  0  0  0  0  0  0  0  0  0  0
   44.5660   32.0070   48.2780 N   0  0  0  0  0  0  0  0  0  0  0  0
   47.4260   31.9350   45.9240 C   0  0  2  0  0  0  0  0  0  0  0  0
   46.9460   33.1200   45.2340 C   0  0  0  0  0  0  0  0  0  0  0  0
   46.9640   33.1880   43.7690 C   0  0  0  0  0  0  0  0  0  0  0  0
   47.5010   32.0360   42.9910 C   0  0  0  0  0  0  0  0  0  0  0  0
   48.2550   31.1040   43.8240 C   0  0  0  0  0  0  0  0  0  0  0  0
   47.2780   30.6940   44.9860 C   0  0  0  0  0  0  0  0  0  0  0  0
   48.4700   30.6470   48.6640 C   0  0  0  0  0  0  0  0  0  0  0  0
   49.4350   31.3260   49.1650 N   0  0  0  0  0  0  0  0  0  0  0  0
   50.4770   30.5560   49.2990 O   0  0  0  0  0  0  0  0  0  0  0  0
   50.2560   29.3540   48.9000 C   0  0  0  0  0  0  0  0  0  0  0  0
   49.0240   29.3500   48.4950 N   0  0  0  0  0  0  0  0  0  0  0  0
   51.2140   28.2520   48.9140 C   0  0  0  0  0  0  0  0  0  0  0  0
   52.4090   28.4280   48.4910 O   0  0  0  0  0  0  0  0  0  0  0  0
   50.8080   26.9010   49.4300 C   0  0  1  0  0  0  0  0  0  0  0  0
   51.8470   26.0250   49.9470 C   0  0  0  0  0  0  0  0  0  0  0  0
   51.0570   26.8070   50.9450 C   0  0  1  0  0  0  0  0  0  0  0  0
   51.7720   27.8780   51.6430 C   0  0  0  0  0  0  0  0  0  0  0  0
   50.9450   28.8060   52.2880 C   0  0  0  0  0  0  0  0  0  0  0  0
   51.4230   29.8970   53.0240 C   0  0  0  0  0  0  0  0  0  0  0  0
   52.7860   30.0850   53.1290 C   0  0  0  0  0  0  0  0  0  0  0  0
   53.6190   29.1850   52.5030 C   0  0  0  0  0  0  0  0  0  0  0  0
   53.1210   28.1190   51.7870 C   0  0  0  0  0  0  0  0  0  0  0  0
   44.8198   32.4791   46.2567 H   0  0  0  0  0  0  0  0  0  0  0  0
   44.5267   31.4584   50.3473 H   0  0  0  0  0  0  0  0  0  0  0  0
   48.4795   32.1028   46.1924 H   0  0  0  0  0  0  0  0  0  0  0  0
   46.5660   33.9732   45.8151 H   0  0  0  0  0  0  0  0  0  0  0  0
   46.5849   34.0805   43.2497 H   0  0  0  0  0  0  0  0  0  0  0  0
   46.6593   31.4973   42.5314 H   0  0  0  0  0  0  0  0  0  0  0  0
   48.1875   32.4363   42.2304 H   0  0  0  0  0  0  0  0  0  0  0  0
   48.5509   30.2197   43.2405 H   0  0  0  0  0  0  0  0  0  0  0  0
   49.1799   31.5577   44.2095 H   0  0  0  0  0  0  0  0  0  0  0  0
   46.2450   30.5758   44.6269 H   0  0  0  0  0  0  0  0  0  0  0  0
   47.5055   29.7279   45.4603 H   0  0  0  0  0  0  0  0  0  0  0  0
   49.9877   26.7323   48.7168 H   0  0  0  0  0  0  0  0  0  0  0  0
   51.7159   24.9345   49.8866 H   0  0  0  0  0  0  0  0  0  0  0  0
   52.9228   25.9187   49.7436 H   0  0  0  0  0  0  0  0  0  0  0  0
   50.4210   26.6071   51.8200 H   0  0  0  0  0  0  0  0  0  0  0  0
   49.8561   28.6698   52.2120 H   0  0  0  0  0  0  0  0  0  0  0  0
   50.7235   30.5928   53.5105 H   0  0  0  0  0  0  0  0  0  0  0  0
   53.1965   30.9321   53.6982 H   0  0  0  0  0  0  0  0  0  0  0  0
   54.7081   29.3206   52.5765 H   0  0  0  0  0  0  0  0  0  0  0  0
   53.8320   27.4292   51.3088 H   0  0  0  0  0  0  0  0  0  0  0  0
  1  6  2  0
  2  1  1  0
  2  3  2  0
  3 13  1  0
  3  4  1  0
  5  4  2  0
  6  5  1  0
  7  2  1  0
  8  7  1  0
  9  8  2  0
 10  9  1  0
 10 11  1  0
 11 12  1  0
 12  7  1  0
 13 14  2  0
 14 15  1  0
 16 18  1  0
 16 15  1  0
 17 13  1  0
 17 16  2  0
 18 20  1  0
 19 18  2  0
 20 21  1  0
 20 22  1  0
 21 22  1  0
 22 23  1  0
 23 28  1  0
 23 24  2  0
 24 25  1  0
 25 26  2  0
 27 26  1  0
 28 27  2  0
  1 29  1  0
  5 30  1  0
  7 31  1  1
  8 32  1  0
  9 33  1  0
 10 34  1  0
 10 35  1  0
 11 36  1  0
 11 37  1  0
 12 38  1  0
 12 39  1  0
 20 40  1  1
 21 41  1  0
 21 42  1  0
 22 43  1  1
 24 44  1  0
 25 45  1  0
 26 46  1  0
 27 47  1  0
 28 48  1  0
M  ISO  8  29  14  30  14  31  13  32  13  33  13  34  13  35  13  36  13
M  ISO  8  37  13  38  13  39  13  40  13  41  13  42  13  43  13  44  14
M  ISO  4  45  14  46  14  47  14  48  14
M  END
>  <minimizedAffinity>  (1) 
-4.93869972

>  <minimizedRMSD>  (1) 
6.8920064

$$$$
