
     RDKit          3D

 27 27  0  0  0  0  0  0  0  0999 V2000
   45.6500   35.1200   42.9170 C   0  0  0  0  0  0  0  0  0  0  0  0
   45.1000   34.5540   45.2820 C   0  0  0  0  0  0  0  0  0  0  0  0
   45.9050   34.2930   44.1430 C   0  0  0  0  0  0  0  0  0  0  0  0
   46.8720   33.2870   44.2530 C   0  0  0  0  0  0  0  0  0  0  0  0
   46.9930   32.6220   45.4160 N   0  0  0  0  0  0  0  0  0  0  0  0
   46.2120   32.8940   46.4780 C   0  0  0  0  0  0  0  0  0  0  0  0
   45.2630   33.8620   46.4140 N   0  0  0  0  0  0  0  0  0  0  0  0
   46.8890   35.1590   42.0780 C   0  0  0  0  0  0  0  0  0  0  0  0
   45.2470   36.5020   43.3460 C   0  0  0  0  0  0  0  0  0  0  0  0
   44.4850   34.5040   42.1670 C   0  0  0  0  0  0  0  0  0  0  0  0
   43.3900   35.3130   42.2830 O   0  0  0  0  0  0  0  0  0  0  0  0
   42.4790   35.4280   41.2430 C   0  0  0  0  0  0  0  0  0  0  0  0
   41.2290   36.0550   41.5350 N   0  0  0  0  0  0  0  0  0  0  0  0
   42.8340   34.9640   40.1170 O   0  0  0  0  0  0  0  0  0  0  0  0
   44.3299   35.3379   45.2327 H   0  0  0  0  0  0  0  0  0  0  0  0
   47.5235   33.0437   43.4008 H   0  0  0  0  0  0  0  0  0  0  0  0
   46.3447   32.3244   47.4096 H   0  0  0  0  0  0  0  0  0  0  0  0
   47.7735   35.1868   42.7313 H   0  0  0  0  0  0  0  0  0  0  0  0
   46.9303   34.2617   41.4430 H   0  0  0  0  0  0  0  0  0  0  0  0
   46.8737   36.0571   41.4430 H   0  0  0  0  0  0  0  0  0  0  0  0
   45.2315   36.5550   44.4446 H   0  0  0  0  0  0  0  0  0  0  0  0
   45.9694   37.2330   42.9538 H   0  0  0  0  0  0  0  0  0  0  0  0
   44.2449   36.7301   42.9538 H   0  0  0  0  0  0  0  0  0  0  0  0
   44.2571   33.5152   42.5918 H   0  0  0  0  0  0  0  0  0  0  0  0
   44.7493   34.3946   41.1048 H   0  0  0  0  0  0  0  0  0  0  0  0
   40.5214   36.1626   40.7943 H   0  0  0  0  0  0  0  0  0  0  0  0
   41.0354   36.3994   42.4862 H   0  0  0  0  0  0  0  0  0  0  0  0
  1  9  1  0
  1  3  1  0
  2  7  2  0
  3  4  2  0
  3  2  1  0
  4  5  1  0
  5  6  2  0
  7  6  1  0
  8  1  1  0
 10 11  1  0
 10  1  1  0
 12 13  1  0
 12 11  1  0
 14 12  2  0
  2 15  1  0
  4 16  1  0
  6 17  1  0
  8 18  1  0
  8 19  1  0
  8 20  1  0
  9 21  1  0
  9 22  1  0
  9 23  1  0
 10 24  1  0
 10 25  1  0
 13 26  1  0
 13 27  1  0
M  ISO  8  15  14  16  14  17  14  18   8  19   8  20   8  21   8  22   8
M  ISO  3  23   8  24   8  25   8
M  END
>  <minimizedAffinity>  (1) 
-4.1400218

>  <minimizedRMSD>  (1) 
0.717816591

$$$$
