
     RDKit          3D

 51 55  0  0  1  0  0  0  0  0999 V2000
   46.4050   31.5910   45.7460 C   0  0  0  0  0  0  0  0  0  0  0  0
   46.8570   32.2980   44.5920 C   0  0  0  0  0  0  0  0  0  0  0  0
   47.7430   31.5960   43.7290 C   0  0  0  0  0  0  0  0  0  0  0  0
   48.1150   30.3620   44.0030 N   0  0  0  0  0  0  0  0  0  0  0  0
   47.6570   29.7280   45.1210 C   0  0  0  0  0  0  0  0  0  0  0  0
   46.7990   30.3550   45.9880 N   0  0  0  0  0  0  0  0  0  0  0  0
   46.5090   33.7260   44.4710 C   0  0  2  0  0  0  0  0  0  0  0  0
   45.7440   34.1850   45.6140 C   0  0  0  0  0  0  0  0  0  0  0  0
   44.6840   35.1900   45.4410 C   0  0  0  0  0  0  0  0  0  0  0  0
   44.4070   35.7460   44.0770 C   0  0  0  0  0  0  0  0  0  0  0  0
   45.4890   35.4640   43.1520 C   0  0  0  0  0  0  0  0  0  0  0  0
   45.6690   33.9040   43.1600 C   0  0  0  0  0  0  0  0  0  0  0  0
   48.3060   31.9880   42.4790 C   0  0  0  0  0  0  0  0  0  0  0  0
   49.1600   32.9320   42.3350 N   0  0  0  0  0  0  0  0  0  0  0  0
   49.4660   33.0460   41.0740 O   0  0  0  0  0  0  0  0  0  0  0  0
   48.8410   32.2010   40.3360 C   0  0  0  0  0  0  0  0  0  0  0  0
   48.1060   31.5160   41.1530 N   0  0  0  0  0  0  0  0  0  0  0  0
   48.9680   32.0840   38.8900 C   0  0  0  0  0  0  0  0  0  0  0  0
   49.4150   33.0460   38.1870 O   0  0  0  0  0  0  0  0  0  0  0  0
   48.5780   30.8200   38.2000 C   0  0  1  0  0  0  0  0  0  0  0  0
   49.0210   30.6080   36.8310 C   0  0  0  0  0  0  0  0  0  0  0  0
   49.7720   29.9130   37.9210 C   0  0  1  0  0  0  0  0  0  0  0  0
   51.0580   30.2280   38.3680 N   0  0  0  0  0  0  0  0  0  0  0  0
   51.5200   31.4660   37.7200 C   0  0  0  0  0  0  0  0  0  0  0  0
   53.0020   31.5890   37.8300 C   0  0  0  0  0  0  0  0  0  0  0  0
   53.3570   31.4020   39.1660 O   0  0  0  0  0  0  0  0  0  0  0  0
   52.2590   31.4820   40.0080 C   0  0  0  0  0  0  0  0  0  0  0  0
   51.3010   30.2920   39.7860 C   0  0  0  0  0  0  0  0  0  0  0  0
   45.7157   32.0851   46.4465 H   0  0  0  0  0  0  0  0  0  0  0  0
   47.9810   28.6978   45.3302 H   0  0  0  0  0  0  0  0  0  0  0  0
   47.4307   34.3253   44.4334 H   0  0  0  0  0  0  0  0  0  0  0  0
   45.9572   33.7801   46.6143 H   0  0  0  0  0  0  0  0  0  0  0  0
   44.0983   35.5314   46.3073 H   0  0  0  0  0  0  0  0  0  0  0  0
   43.4809   35.2959   43.6900 H   0  0  0  0  0  0  0  0  0  0  0  0
   44.3078   36.8379   44.1657 H   0  0  0  0  0  0  0  0  0  0  0  0
   46.4143   35.9573   43.4842 H   0  0  0  0  0  0  0  0  0  0  0  0
   45.2643   35.8387   42.1425 H   0  0  0  0  0  0  0  0  0  0  0  0
   44.7022   33.3830   43.2222 H   0  0  0  0  0  0  0  0  0  0  0  0
   46.1357   33.4896   42.2542 H   0  0  0  0  0  0  0  0  0  0  0  0
   47.5929   30.7420   38.6833 H   0  0  0  0  0  0  0  0  0  0  0  0
   49.4995   31.4316   36.2808 H   0  0  0  0  0  0  0  0  0  0  0  0
   48.5231   30.2700   35.9102 H   0  0  0  0  0  0  0  0  0  0  0  0
   50.0683   28.8697   38.1047 H   0  0  0  0  0  0  0  0  0  0  0  0
   51.0473   32.3298   38.2103 H   0  0  0  0  0  0  0  0  0  0  0  0
   51.2426   31.4365   36.6560 H   0  0  0  0  0  0  0  0  0  0  0  0
   53.4865   30.8240   37.2054 H   0  0  0  0  0  0  0  0  0  0  0  0
   53.3274   32.5818   37.4858 H   0  0  0  0  0  0  0  0  0  0  0  0
   52.6055   31.4745   41.0520 H   0  0  0  0  0  0  0  0  0  0  0  0
   51.7166   32.4132   39.7876 H   0  0  0  0  0  0  0  0  0  0  0  0
   50.3575   30.4565   40.3271 H   0  0  0  0  0  0  0  0  0  0  0  0
   51.7359   29.3534   40.1599 H   0  0  0  0  0  0  0  0  0  0  0  0
  1  6  2  0
  2  1  1  0
  3  4  1  0
  3  2  2  0
  4  5  2  0
  5  6  1  0
  7  2  1  0
  7  8  1  0
  9  8  2  0
 10  9  1  0
 11 12  1  0
 11 10  1  0
 12  7  1  0
 13  3  1  0
 14 13  2  0
 15 14  1  0
 16 15  1  0
 16 17  2  0
 17 13  1  0
 18 16  1  0
 19 18  2  0
 20 18  1  0
 21 22  1  0
 21 20  1  0
 22 20  1  0
 22 23  1  0
 23 28  1  0
 24 25  1  0
 24 23  1  0
 25 26  1  0
 26 27  1  0
 28 27  1  0
  1 29  1  0
  5 30  1  0
  7 31  1  6
  8 32  1  0
  9 33  1  0
 10 34  1  0
 10 35  1  0
 11 36  1  0
 11 37  1  0
 12 38  1  0
 12 39  1  0
 20 40  1  6
 21 41  1  0
 21 42  1  0
 22 43  1  6
 24 44  1  0
 24 45  1  0
 25 46  1  0
 25 47  1  0
 27 48  1  0
 27 49  1  0
 28 50  1  0
 28 51  1  0
M  ISO  8  29  14  30  14  31  13  32  13  33  13  34  13  35  13  36  13
M  ISO  8  37  13  38  13  39  13  40  13  41  13  42  13  43  13  44  13
M  ISO  7  45  13  46  13  47  13  48  13  49  13  50  13  51  13
M  END
>  <minimizedAffinity>  (1) 
-4.80910063

>  <minimizedRMSD>  (1) 
4.11046362

$$$$
