
     RDKit          3D

 32 32  0  0  0  0  0  0  0  0999 V2000
   45.5980   35.0760   42.8890 C   0  0  0  0  0  0  0  0  0  0  0  0
   45.0900   34.5440   45.2640 C   0  0  0  0  0  0  0  0  0  0  0  0
   45.8740   34.2760   44.1210 C   0  0  0  0  0  0  0  0  0  0  0  0
   46.8510   33.2830   44.2270 C   0  0  0  0  0  0  0  0  0  0  0  0
   46.9920   32.6380   45.4100 N   0  0  0  0  0  0  0  0  0  0  0  0
   46.2260   32.9160   46.4850 C   0  0  0  0  0  0  0  0  0  0  0  0
   45.2720   33.8720   46.4120 N   0  0  0  0  0  0  0  0  0  0  0  0
   46.8380   35.1340   42.0490 C   0  0  0  0  0  0  0  0  0  0  0  0
   45.1740   36.4620   43.3170 C   0  0  0  0  0  0  0  0  0  0  0  0
   44.4480   34.4450   42.1530 C   0  0  0  0  0  0  0  0  0  0  0  0
   43.3510   35.2660   42.2290 O   0  0  0  0  0  0  0  0  0  0  0  0
   42.3660   34.8840   41.3240 C   0  0  0  0  0  0  0  0  0  0  0  0
   42.8300   34.9730   39.8850 C   0  0  0  0  0  0  0  0  0  0  0  0
   41.1010   35.6730   41.4490 C   0  0  0  0  0  0  0  0  0  0  0  0
   44.3127   35.3207   45.2129 H   0  0  0  0  0  0  0  0  0  0  0  0
   47.4915   33.0305   43.3691 H   0  0  0  0  0  0  0  0  0  0  0  0
   46.3777   32.3634   47.4240 H   0  0  0  0  0  0  0  0  0  0  0  0
   47.7219   35.1753   42.7024 H   0  0  0  0  0  0  0  0  0  0  0  0
   46.8930   34.2374   41.4140 H   0  0  0  0  0  0  0  0  0  0  0  0
   46.8091   36.0318   41.4140 H   0  0  0  0  0  0  0  0  0  0  0  0
   45.1570   36.5174   44.4155 H   0  0  0  0  0  0  0  0  0  0  0  0
   45.8870   37.2014   42.9235 H   0  0  0  0  0  0  0  0  0  0  0  0
   44.1693   36.6760   42.9235 H   0  0  0  0  0  0  0  0  0  0  0  0
   44.2104   33.4724   42.6086 H   0  0  0  0  0  0  0  0  0  0  0  0
   44.7238   34.2981   41.0983 H   0  0  0  0  0  0  0  0  0  0  0  0
   42.1603   33.8359   41.5870 H   0  0  0  0  0  0  0  0  0  0  0  0
   43.9100   35.1802   39.8601 H   0  0  0  0  0  0  0  0  0  0  0  0
   42.6277   34.0197   39.3749 H   0  0  0  0  0  0  0  0  0  0  0  0
   42.2893   35.7838   39.3749 H   0  0  0  0  0  0  0  0  0  0  0  0
   40.8645   35.8205   42.5131 H   0  0  0  0  0  0  0  0  0  0  0  0
   41.2295   36.6514   40.9629 H   0  0  0  0  0  0  0  0  0  0  0  0
   40.2789   35.1272   40.9629 H   0  0  0  0  0  0  0  0  0  0  0  0
  1  9  1  0
  1  3  1  0
  2  7  2  0
  3  4  2  0
  3  2  1  0
  4  5  1  0
  5  6  2  0
  7  6  1  0
  8  1  1  0
 10 11  1  0
 10  1  1  0
 12 14  1  0
 12 11  1  0
 13 12  1  0
  2 15  1  0
  4 16  1  0
  6 17  1  0
  8 18  1  0
  8 19  1  0
  8 20  1  0
  9 21  1  0
  9 22  1  0
  9 23  1  0
 10 24  1  0
 10 25  1  0
 12 26  1  0
 13 27  1  0
 13 28  1  0
 13 29  1  0
 14 30  1  0
 14 31  1  0
 14 32  1  0
M  ISO  8  15  14  16  14  17  14  18   8  19   8  20   8  21   8  22   8
M  ISO  8  23   8  24   8  25   8  26   8  27   8  28   8  29   8  30   8
M  ISO  2  31   8  32   8
M  END
>  <minimizedAffinity>  (1) 
-4.09886169

>  <minimizedRMSD>  (1) 
0.513345003

$$$$
