
     RDKit          3D

 54 58  0  0  1  0  0  0  0  0999 V2000
   45.5770   32.6180   47.6000 C   0  0  0  0  0  0  0  0  0  0  0  0
   46.0610   31.6970   46.6220 C   0  0  0  0  0  0  0  0  0  0  0  0
   46.3500   30.3820   47.0860 C   0  0  0  0  0  0  0  0  0  0  0  0
   46.1710   30.0610   48.3530 N   0  0  0  0  0  0  0  0  0  0  0  0
   45.7070   30.9770   49.2470 C   0  0  0  0  0  0  0  0  0  0  0  0
   45.4130   32.2580   48.8530 N   0  0  0  0  0  0  0  0  0  0  0  0
   46.3620   32.2060   45.2700 C   0  0  2  0  0  0  0  0  0  0  0  0
   46.1330   33.6400   45.1830 C   0  0  0  0  0  0  0  0  0  0  0  0
   45.6110   34.2380   43.9490 C   0  0  0  0  0  0  0  0  0  0  0  0
   45.3390   33.3640   42.7690 C   0  0  0  0  0  0  0  0  0  0  0  0
   45.9640   32.0520   42.9020 C   0  0  0  0  0  0  0  0  0  0  0  0
   45.4240   31.4640   44.2570 C   0  0  0  0  0  0  0  0  0  0  0  0
   46.7840   29.2320   46.3670 C   0  0  0  0  0  0  0  0  0  0  0  0
   47.9580   29.1060   45.8630 N   0  0  0  0  0  0  0  0  0  0  0  0
   48.0430   27.9520   45.2640 O   0  0  0  0  0  0  0  0  0  0  0  0
   46.9520   27.2750   45.3420 C   0  0  0  0  0  0  0  0  0  0  0  0
   46.1340   28.0180   46.0160 N   0  0  0  0  0  0  0  0  0  0  0  0
   46.7250   25.9510   44.7750 C   0  0  0  0  0  0  0  0  0  0  0  0
   47.6530   25.0670   44.7890 O   0  0  0  0  0  0  0  0  0  0  0  0
   45.3960   25.6010   44.1720 C   0  0  1  0  0  0  0  0  0  0  0  0
   45.0980   24.2160   43.8800 C   0  0  0  0  0  0  0  0  0  0  0  0
   44.5570   24.7770   45.1710 C   0  0  2  0  0  0  0  0  0  0  0  0
   43.1450   25.2040   45.2900 C   0  0  0  0  0  0  0  0  0  0  0  0
   42.2600   23.9750   45.5290 C   0  0  0  0  0  0  0  0  0  0  0  0
   40.8380   24.4290   45.1800 C   0  0  0  0  0  0  0  0  0  0  0  0
   40.4530   25.4600   46.2180 C   0  0  0  0  0  0  0  0  0  0  0  0
   41.4160   26.6010   46.2830 C   0  0  0  0  0  0  0  0  0  0  0  0
   42.8540   26.1580   46.4220 C   0  0  0  0  0  0  0  0  0  0  0  0
   45.3369   33.6483   47.2987 H   0  0  0  0  0  0  0  0  0  0  0  0
   45.5660   30.6864   50.2985 H   0  0  0  0  0  0  0  0  0  0  0  0
   47.4213   32.0213   45.0382 H   0  0  0  0  0  0  0  0  0  0  0  0
   46.3530   34.2811   46.0493 H   0  0  0  0  0  0  0  0  0  0  0  0
   45.4217   35.3202   43.8935 H   0  0  0  0  0  0  0  0  0  0  0  0
   45.7322   33.8543   41.8663 H   0  0  0  0  0  0  0  0  0  0  0  0
   44.2512   33.2157   42.7009 H   0  0  0  0  0  0  0  0  0  0  0  0
   45.6786   31.4033   42.0607 H   0  0  0  0  0  0  0  0  0  0  0  0
   47.0618   32.1207   42.8960 H   0  0  0  0  0  0  0  0  0  0  0  0
   44.3661   31.7180   44.4192 H   0  0  0  0  0  0  0  0  0  0  0  0
   45.4443   30.3664   44.3260 H   0  0  0  0  0  0  0  0  0  0  0  0
   45.2979   26.5098   43.5600 H   0  0  0  0  0  0  0  0  0  0  0  0
   44.4038   23.9720   43.0624 H   0  0  0  0  0  0  0  0  0  0  0  0
   45.7170   23.3413   43.6315 H   0  0  0  0  0  0  0  0  0  0  0  0
   44.5950   24.4452   46.2191 H   0  0  0  0  0  0  0  0  0  0  0  0
   42.9346   25.7275   44.3457 H   0  0  0  0  0  0  0  0  0  0  0  0
   42.5701   23.1440   44.8784 H   0  0  0  0  0  0  0  0  0  0  0  0
   42.3327   23.6114   46.5646 H   0  0  0  0  0  0  0  0  0  0  0  0
   40.8168   24.8748   44.1746 H   0  0  0  0  0  0  0  0  0  0  0  0
   40.1370   23.5813   45.1802 H   0  0  0  0  0  0  0  0  0  0  0  0
   39.4566   25.8543   45.9696 H   0  0  0  0  0  0  0  0  0  0  0  0
   40.4609   24.9625   47.1990 H   0  0  0  0  0  0  0  0  0  0  0  0
   41.3199   27.1928   45.3607 H   0  0  0  0  0  0  0  0  0  0  0  0
   41.1667   27.1890   47.1786 H   0  0  0  0  0  0  0  0  0  0  0  0
   42.9994   25.6511   47.3874 H   0  0  0  0  0  0  0  0  0  0  0  0
   43.5319   27.0235   46.3838 H   0  0  0  0  0  0  0  0  0  0  0  0
  1  6  2  0
  2  3  2  0
  2  1  1  0
  3  4  1  0
  4  5  2  0
  6  5  1  0
  7  2  1  0
  8  7  1  0
  9  8  2  0
 10 11  1  0
 10  9  1  0
 11 12  1  0
 12  7  1  0
 13  3  1  0
 14 13  2  0
 15 16  1  0
 15 14  1  0
 16 17  2  0
 17 13  1  0
 18 19  2  0
 18 16  1  0
 20 18  1  0
 20 22  1  0
 21 20  1  0
 21 22  1  0
 22 23  1  0
 23 24  1  0
 23 28  1  0
 25 24  1  0
 25 26  1  0
 26 27  1  0
 27 28  1  0
  1 29  1  0
  5 30  1  0
  7 31  1  6
  8 32  1  0
  9 33  1  0
 10 34  1  0
 10 35  1  0
 11 36  1  0
 11 37  1  0
 12 38  1  0
 12 39  1  0
 20 40  1  6
 21 41  1  0
 21 42  1  0
 22 43  1  1
 23 44  1  0
 24 45  1  0
 24 46  1  0
 25 47  1  0
 25 48  1  0
 26 49  1  0
 26 50  1  0
 27 51  1  0
 27 52  1  0
 28 53  1  0
 28 54  1  0
M  ISO  8  29  14  30  14  31  13  32  13  33  13  34  13  35  13  36  13
M  ISO  8  37  13  38  13  39  13  40  13  41  13  42  13  43  13  44  13
M  ISO  8  45  13  46  13  47  13  48  13  49  13  50  13  51  13  52  13
M  ISO  2  53  13  54  13
M  END
>  <minimizedAffinity>  (1) 
-4.28617477

>  <minimizedRMSD>  (1) 
3.99228168

$$$$
