
     RDKit          3D

 45 49  0  0  1  0  0  0  0  0999 V2000
   45.5400   33.6460   45.8830 C   0  0  0  0  0  0  0  0  0  0  0  0
   46.1810   33.4310   44.6260 C   0  0  0  0  0  0  0  0  0  0  0  0
   47.1720   32.4130   44.5850 C   0  0  0  0  0  0  0  0  0  0  0  0
   47.4670   31.7210   45.6670 N   0  0  0  0  0  0  0  0  0  0  0  0
   46.8290   31.9610   46.8490 C   0  0  0  0  0  0  0  0  0  0  0  0
   45.8660   32.9280   46.9370 N   0  0  0  0  0  0  0  0  0  0  0  0
   45.8800   34.3690   43.5230 C   0  0  2  0  0  0  0  0  0  0  0  0
   45.0740   35.4850   43.9850 C   0  0  0  0  0  0  0  0  0  0  0  0
   44.0540   36.0760   43.1100 C   0  0  0  0  0  0  0  0  0  0  0  0
   43.8600   35.5310   41.7330 C   0  0  0  0  0  0  0  0  0  0  0  0
   44.9840   34.6940   41.3150 C   0  0  0  0  0  0  0  0  0  0  0  0
   45.1040   33.5790   42.4190 C   0  0  0  0  0  0  0  0  0  0  0  0
   47.9300   31.9170   43.4870 C   0  0  0  0  0  0  0  0  0  0  0  0
   48.8390   32.5850   42.8770 N   0  0  0  0  0  0  0  0  0  0  0  0
   49.3360   31.8560   41.9190 O   0  0  0  0  0  0  0  0  0  0  0  0
   48.7920   30.6950   41.8480 C   0  0  0  0  0  0  0  0  0  0  0  0
   47.9130   30.6730   42.7970 N   0  0  0  0  0  0  0  0  0  0  0  0
   49.1230   29.6480   40.8840 C   0  0  0  0  0  0  0  0  0  0  0  0
   48.9670   29.8500   39.6290 O   0  0  0  0  0  0  0  0  0  0  0  0
   49.6580   28.3250   41.3610 C   0  0  1  0  0  0  0  0  0  0  0  0
   50.3590   27.4880   40.3960 C   0  0  0  0  0  0  0  0  0  0  0  0
   51.1990   28.3320   41.3260 C   0  0  1  0  0  0  0  0  0  0  0  0
   51.8830   29.4070   40.6680 N   0  0  0  0  0  0  0  0  0  0  0  0
   52.3220   30.6000   41.1270 C   0  0  0  0  0  0  0  0  0  0  0  0
   52.9170   31.2510   40.0560 C   0  0  0  0  0  0  0  0  0  0  0  0
   52.8420   30.4700   38.9580 N   0  0  0  0  0  0  0  0  0  0  0  0
   52.2030   29.3510   39.3740 C   0  0  0  0  0  0  0  0  0  0  0  0
   44.7644   34.4209   45.9720 H   0  0  0  0  0  0  0  0  0  0  0  0
   47.0917   31.3711   47.7395 H   0  0  0  0  0  0  0  0  0  0  0  0
   46.8199   34.7802   43.1261 H   0  0  0  0  0  0  0  0  0  0  0  0
   45.2285   35.8898   44.9961 H   0  0  0  0  0  0  0  0  0  0  0  0
   43.4370   36.9142   43.4660 H   0  0  0  0  0  0  0  0  0  0  0  0
   42.9409   34.9269   41.7157 H   0  0  0  0  0  0  0  0  0  0  0  0
   43.7894   36.3798   41.0370 H   0  0  0  0  0  0  0  0  0  0  0  0
   44.7839   34.2429   40.3319 H   0  0  0  0  0  0  0  0  0  0  0  0
   45.9130   35.2745   41.2155 H   0  0  0  0  0  0  0  0  0  0  0  0
   44.1166   33.2473   42.7727 H   0  0  0  0  0  0  0  0  0  0  0  0
   45.5904   32.6499   42.0870 H   0  0  0  0  0  0  0  0  0  0  0  0
   48.8533   28.1038   42.0776 H   0  0  0  0  0  0  0  0  0  0  0  0
   50.3146   27.7394   39.3260 H   0  0  0  0  0  0  0  0  0  0  0  0
   50.3318   26.4149   40.1556 H   0  0  0  0  0  0  0  0  0  0  0  0
   51.9807   28.1969   42.0881 H   0  0  0  0  0  0  0  0  0  0  0  0
   52.2259   30.9820   42.1540 H   0  0  0  0  0  0  0  0  0  0  0  0
   53.3783   32.2488   40.0957 H   0  0  0  0  0  0  0  0  0  0  0  0
   51.9744   28.4956   38.7212 H   0  0  0  0  0  0  0  0  0  0  0  0
  1  6  2  0
  2  1  1  0
  3  2  2  0
  3  4  1  0
  4  5  2  0
  5  6  1  0
  7  8  1  0
  7  2  1  0
  9  8  2  0
 10  9  1  0
 11 10  1  0
 11 12  1  0
 12  7  1  0
 13  3  1  0
 14 13  2  0
 15 14  1  0
 16 15  1  0
 16 17  2  0
 17 13  1  0
 18 20  1  0
 18 16  1  0
 19 18  2  0
 21 22  1  0
 21 20  1  0
 22 20  1  0
 23 24  1  0
 23 22  1  0
 25 24  2  0
 26 27  2  0
 26 25  1  0
 27 23  1  0
  1 28  1  0
  5 29  1  0
  7 30  1  6
  8 31  1  0
  9 32  1  0
 10 33  1  0
 10 34  1  0
 11 35  1  0
 11 36  1  0
 12 37  1  0
 12 38  1  0
 20 39  1  1
 21 40  1  0
 21 41  1  0
 22 42  1  1
 24 43  1  0
 25 44  1  0
 27 45  1  0
M  ISO  8  28  14  29  14  30  13  31  13  32  13  33  13  34  13  35  13
M  ISO  8  36  13  37  13  38  13  39  13  40  13  41  13  42  13  43  14
M  ISO  2  44  14  45  14
M  END
>  <minimizedAffinity>  (1) 
-4.03407478

>  <minimizedRMSD>  (1) 
2.77402234

$$$$
