
     RDKit          3D

 46 50  0  0  1  0  0  0  0  0999 V2000
   45.5870   32.6660   47.2670 C   0  0  0  0  0  0  0  0  0  0  0  0
   46.3950   31.7310   46.5530 C   0  0  0  0  0  0  0  0  0  0  0  0
   46.9350   30.6540   47.3080 C   0  0  0  0  0  0  0  0  0  0  0  0
   46.6930   30.5470   48.5980 N   0  0  0  0  0  0  0  0  0  0  0  0
   45.9160   31.4670   49.2430 C   0  0  0  0  0  0  0  0  0  0  0  0
   45.3670   32.5240   48.5640 N   0  0  0  0  0  0  0  0  0  0  0  0
   46.7320   32.0380   45.1480 C   0  0  2  0  0  0  0  0  0  0  0  0
   46.6830   33.4640   44.8870 C   0  0  0  0  0  0  0  0  0  0  0  0
   46.2130   33.9590   43.5860 C   0  0  0  0  0  0  0  0  0  0  0  0
   45.8090   32.9930   42.5240 C   0  0  0  0  0  0  0  0  0  0  0  0
   46.2950   31.6430   42.8180 C   0  0  0  0  0  0  0  0  0  0  0  0
   45.7080   31.2890   44.2340 C   0  0  0  0  0  0  0  0  0  0  0  0
   47.7060   29.5320   46.8810 C   0  0  0  0  0  0  0  0  0  0  0  0
   48.9760   29.5460   46.7230 N   0  0  0  0  0  0  0  0  0  0  0  0
   49.3710   28.3720   46.3180 O   0  0  0  0  0  0  0  0  0  0  0  0
   48.4000   27.5400   46.1920 C   0  0  0  0  0  0  0  0  0  0  0  0
   47.3390   28.2030   46.5290 N   0  0  0  0  0  0  0  0  0  0  0  0
   48.5090   26.1510   45.7570 C   0  0  0  0  0  0  0  0  0  0  0  0
   49.3000   25.8320   44.8010 O   0  0  0  0  0  0  0  0  0  0  0  0
   47.6950   25.0820   46.4350 C   0  0  1  0  0  0  0  0  0  0  0  0
   48.3520   23.8090   46.7200 C   0  0  0  0  0  0  0  0  0  0  0  0
   48.2510   24.8090   47.8460 C   0  0  2  0  0  0  0  0  0  0  0  0
   47.3390   24.5240   48.9560 C   0  0  0  0  0  0  0  0  0  0  0  0
   47.6720   23.5080   49.8310 C   0  0  0  0  0  0  0  0  0  0  0  0
   46.8400   23.1900   50.9080 C   0  0  0  0  0  0  0  0  0  0  0  0
   45.7020   23.9030   51.0720 N   0  0  0  0  0  0  0  0  0  0  0  0
   45.3940   24.8810   50.2180 C   0  0  0  0  0  0  0  0  0  0  0  0
   46.1850   25.2120   49.1620 N   0  0  0  0  0  0  0  0  0  0  0  0
   45.1407   33.5169   46.7314 H   0  0  0  0  0  0  0  0  0  0  0  0
   45.7283   31.3583   50.3214 H   0  0  0  0  0  0  0  0  0  0  0  0
   47.7596   31.7060   44.9387 H   0  0  0  0  0  0  0  0  0  0  0  0
   46.9982   34.1758   45.6642 H   0  0  0  0  0  0  0  0  0  0  0  0
   46.1591   35.0410   43.3954 H   0  0  0  0  0  0  0  0  0  0  0  0
   46.2279   33.3228   41.5618 H   0  0  0  0  0  0  0  0  0  0  0  0
   44.7102   32.9642   42.4814 H   0  0  0  0  0  0  0  0  0  0  0  0
   45.9335   30.9303   42.0620 H   0  0  0  0  0  0  0  0  0  0  0  0
   47.3937   31.5911   42.8051 H   0  0  0  0  0  0  0  0  0  0  0  0
   44.6869   31.6777   44.3613 H   0  0  0  0  0  0  0  0  0  0  0  0
   45.6065   30.2127   44.4374 H   0  0  0  0  0  0  0  0  0  0  0  0
   46.7308   25.3234   45.9639 H   0  0  0  0  0  0  0  0  0  0  0  0
   47.7545   22.8862   46.7581 H   0  0  0  0  0  0  0  0  0  0  0  0
   49.1870   23.2613   46.2587 H   0  0  0  0  0  0  0  0  0  0  0  0
   48.9436   25.3228   48.5289 H   0  0  0  0  0  0  0  0  0  0  0  0
   48.6031   22.9426   49.6782 H   0  0  0  0  0  0  0  0  0  0  0  0
   47.1037   22.3806   51.6046 H   0  0  0  0  0  0  0  0  0  0  0  0
   44.4615   25.4430   50.3745 H   0  0  0  0  0  0  0  0  0  0  0  0
  1  6  2  0
  2  1  1  0
  2  3  2  0
  3  4  1  0
  4  5  2  0
  6  5  1  0
  7  2  1  0
  8  7  1  0
  9  8  2  0
 10 11  1  0
 10  9  1  0
 11 12  1  0
 12  7  1  0
 13  3  1  0
 14 13  2  0
 15 14  1  0
 16 15  1  0
 16 17  2  0
 17 13  1  0
 18 16  1  0
 18 20  1  0
 19 18  2  0
 20 21  1  0
 20 22  1  0
 21 22  1  0
 22 23  1  0
 23 28  1  0
 23 24  2  0
 24 25  1  0
 25 26  2  0
 27 26  1  0
 28 27  2  0
  1 29  1  0
  5 30  1  0
  7 31  1  6
  8 32  1  0
  9 33  1  0
 10 34  1  0
 10 35  1  0
 11 36  1  0
 11 37  1  0
 12 38  1  0
 12 39  1  0
 20 40  1  1
 21 41  1  0
 21 42  1  0
 22 43  1  1
 24 44  1  0
 25 45  1  0
 27 46  1  0
M  ISO  8  29  14  30  14  31  13  32  13  33  13  34  13  35  13  36  13
M  ISO  8  37  13  38  13  39  13  40  13  41  13  42  13  43  13  44  14
M  ISO  2  45  14  46  14
M  END
>  <minimizedAffinity>  (1) 
-4.39182711

>  <minimizedRMSD>  (1) 
4.32963705

$$$$
