
     RDKit          3D

 40 43  0  0  1  0  0  0  0  0999 V2000
   45.7350   32.6970   46.8750 C   0  0  0  0  0  0  0  0  0  0  0  0
   46.5990   31.6110   46.5640 C   0  0  0  0  0  0  0  0  0  0  0  0
   46.9350   30.7420   47.6390 C   0  0  0  0  0  0  0  0  0  0  0  0
   46.4640   30.9500   48.8520 N   0  0  0  0  0  0  0  0  0  0  0  0
   45.6370   32.0130   49.1070 C   0  0  0  0  0  0  0  0  0  0  0  0
   45.2790   32.8800   48.1090 N   0  0  0  0  0  0  0  0  0  0  0  0
   47.2040   31.5690   45.2200 C   0  0  2  0  0  0  0  0  0  0  0  0
   47.1920   32.8710   44.5830 C   0  0  0  0  0  0  0  0  0  0  0  0
   46.9660   32.9820   43.1370 C   0  0  0  0  0  0  0  0  0  0  0  0
   46.7860   31.7540   42.3130 C   0  0  0  0  0  0  0  0  0  0  0  0
   47.2470   30.5560   43.0380 C   0  0  0  0  0  0  0  0  0  0  0  0
   46.4030   30.5370   44.3640 C   0  0  0  0  0  0  0  0  0  0  0  0
   47.7000   29.5350   47.6390 C   0  0  0  0  0  0  0  0  0  0  0  0
   48.9760   29.4840   47.7410 N   0  0  0  0  0  0  0  0  0  0  0  0
   49.3620   28.2420   47.6970 O   0  0  0  0  0  0  0  0  0  0  0  0
   48.3790   27.4240   47.5660 C   0  0  0  0  0  0  0  0  0  0  0  0
   47.3200   28.1680   47.5250 N   0  0  0  0  0  0  0  0  0  0  0  0
   48.4790   25.9710   47.4830 C   0  0  0  0  0  0  0  0  0  0  0  0
   49.6040   25.4100   47.2350 O   0  0  0  0  0  0  0  0  0  0  0  0
   47.2590   25.1160   47.6960 C   0  0  1  0  0  0  0  0  0  0  0  0
   47.4500   23.7750   48.2320 C   0  0  0  0  0  0  0  0  0  0  0  0
   47.0470   24.8600   49.2010 C   0  0  2  0  0  0  0  0  0  0  0  0
   45.6720   24.8540   49.7310 C   0  0  0  0  0  0  0  0  0  0  0  0
   45.5750   24.3110   50.8320 O   0  0  0  0  0  0  0  0  0  0  0  0
   45.4393   33.3974   46.0800 H   0  0  0  0  0  0  0  0  0  0  0  0
   45.2559   32.1718   50.1266 H   0  0  0  0  0  0  0  0  0  0  0  0
   48.2585   31.2679   45.3061 H   0  0  0  0  0  0  0  0  0  0  0  0
   47.3526   33.7778   45.1846 H   0  0  0  0  0  0  0  0  0  0  0  0
   46.9295   33.9731   42.6612 H   0  0  0  0  0  0  0  0  0  0  0  0
   47.3656   31.8568   41.3838 H   0  0  0  0  0  0  0  0  0  0  0  0
   45.7153   31.6368   42.0899 H   0  0  0  0  0  0  0  0  0  0  0  0
   47.0581   29.6485   42.4458 H   0  0  0  0  0  0  0  0  0  0  0  0
   48.3288   30.5819   43.2356 H   0  0  0  0  0  0  0  0  0  0  0  0
   45.3679   30.8671   44.1922 H   0  0  0  0  0  0  0  0  0  0  0  0
   46.2921   29.5443   44.8248 H   0  0  0  0  0  0  0  0  0  0  0  0
   46.6834   25.4871   46.8352 H   0  0  0  0  0  0  0  0  0  0  0  0
   46.7324   22.9813   47.9769 H   0  0  0  0  0  0  0  0  0  0  0  0
   48.2780   23.0516   48.1988 H   0  0  0  0  0  0  0  0  0  0  0  0
   47.4413   25.2754   50.1401 H   0  0  0  0  0  0  0  0  0  0  0  0
   44.8164   25.2915   49.1958 H   0  0  0  0  0  0  0  0  0  0  0  0
  1  6  2  0
  2  1  1  0
  2  3  2  0
  3 13  1  0
  3  4  1  0
  4  5  2  0
  6  5  1  0
  7  2  1  0
  8  7  1  0
  9  8  2  0
 10 11  1  0
 10  9  1  0
 11 12  1  0
 12  7  1  0
 13 14  2  0
 15 14  1  0
 16 15  1  0
 17 16  2  0
 17 13  1  0
 18 16  1  0
 18 20  1  0
 19 18  2  0
 20 21  1  0
 20 22  1  0
 21 22  1  0
 22 23  1  0
 23 24  2  0
  1 25  1  0
  5 26  1  0
  7 27  1  1
  8 28  1  0
  9 29  1  0
 10 30  1  0
 10 31  1  0
 11 32  1  0
 11 33  1  0
 12 34  1  0
 12 35  1  0
 20 36  1  6
 21 37  1  0
 21 38  1  0
 22 39  1  1
 23 40  1  0
M  ISO  8  25  14  26  14  27  13  28  13  29  13  30  13  31  13  32  13
M  ISO  8  33  13  34  13  35  13  36  13  37  13  38  13  39  13  40   6
M  END
>  <minimizedAffinity>  (1) 
-3.94464731

>  <minimizedRMSD>  (1) 
4.74331474

$$$$
