
     RDKit          3D

 30 31  0  0  0  0  0  0  0  0999 V2000
   45.6260   35.1140   42.9040 C   0  0  0  0  0  0  0  0  0  0  0  0
   45.0820   34.5610   45.2620 C   0  0  0  0  0  0  0  0  0  0  0  0
   45.8850   34.3020   44.1220 C   0  0  0  0  0  0  0  0  0  0  0  0
   46.8560   33.3080   44.2330 C   0  0  0  0  0  0  0  0  0  0  0  0
   46.9730   32.6520   45.4160 N   0  0  0  0  0  0  0  0  0  0  0  0
   46.1970   32.9220   46.4750 C   0  0  0  0  0  0  0  0  0  0  0  0
   45.2600   33.8740   46.3860 N   0  0  0  0  0  0  0  0  0  0  0  0
   46.8730   35.1510   42.0550 C   0  0  0  0  0  0  0  0  0  0  0  0
   45.2360   36.5130   43.3230 C   0  0  0  0  0  0  0  0  0  0  0  0
   44.4700   34.5260   42.1480 C   0  0  0  0  0  0  0  0  0  0  0  0
   43.5200   35.5020   41.9270 O   0  0  0  0  0  0  0  0  0  0  0  0
   42.3930   34.8430   41.4230 C   0  0  0  0  0  0  0  0  0  0  0  0
   41.0840   35.6120   41.4170 C   0  0  0  0  0  0  0  0  0  0  0  0
   41.7800   35.2130   40.1370 C   0  0  0  0  0  0  0  0  0  0  0  0
   44.3045   35.3378   45.2156 H   0  0  0  0  0  0  0  0  0  0  0  0
   47.5106   33.0614   43.3840 H   0  0  0  0  0  0  0  0  0  0  0  0
   46.3295   32.3636   47.4134 H   0  0  0  0  0  0  0  0  0  0  0  0
   47.7592   35.1773   42.7061 H   0  0  0  0  0  0  0  0  0  0  0  0
   46.9110   34.2536   41.4200 H   0  0  0  0  0  0  0  0  0  0  0  0
   46.8578   36.0491   41.4200 H   0  0  0  0  0  0  0  0  0  0  0  0
   45.2186   36.5754   44.4211 H   0  0  0  0  0  0  0  0  0  0  0  0
   45.9680   37.2320   42.9264 H   0  0  0  0  0  0  0  0  0  0  0  0
   44.2376   36.7496   42.9264 H   0  0  0  0  0  0  0  0  0  0  0  0
   44.8243   34.1342   41.1831 H   0  0  0  0  0  0  0  0  0  0  0  0
   44.0259   33.7087   42.7352 H   0  0  0  0  0  0  0  0  0  0  0  0
   42.7610   33.8877   41.8253 H   0  0  0  0  0  0  0  0  0  0  0  0
   40.1484   35.1176   41.7175 H   0  0  0  0  0  0  0  0  0  0  0  0
   40.7199   36.5524   41.8565 H   0  0  0  0  0  0  0  0  0  0  0  0
   41.3414   34.4339   39.4962 H   0  0  0  0  0  0  0  0  0  0  0  0
   42.1266   35.7573   39.2461 H   0  0  0  0  0  0  0  0  0  0  0  0
  1  9  1  0
  1  3  1  0
  2  7  2  0
  3  4  2  0
  3  2  1  0
  4  5  1  0
  5  6  2  0
  7  6  1  0
  8  1  1  0
 10  1  1  0
 11 10  1  0
 12 11  1  0
 13 12  1  0
 14 13  1  0
 14 12  1  0
  2 15  1  0
  4 16  1  0
  6 17  1  0
  8 18  1  0
  8 19  1  0
  8 20  1  0
  9 21  1  0
  9 22  1  0
  9 23  1  0
 10 24  1  0
 10 25  1  0
 12 26  1  0
 13 27  1  0
 13 28  1  0
 14 29  1  0
 14 30  1  0
M  ISO  8  15  14  16  14  17  14  18   8  19   8  20   8  21   8  22   8
M  ISO  8  23   8  24   8  25   8  26  13  27  13  28  13  29  13  30  13
M  END
>  <minimizedAffinity>  (1) 
-4.0702858

>  <minimizedRMSD>  (1) 
0.672476947

$$$$
