
     RDKit          3D

 41 44  0  0  1  0  0  0  0  0999 V2000
   45.5890   32.6630   47.5710 C   0  0  0  0  0  0  0  0  0  0  0  0
   46.1450   31.7660   46.6120 C   0  0  0  0  0  0  0  0  0  0  0  0
   46.5790   30.5040   47.1060 C   0  0  0  0  0  0  0  0  0  0  0  0
   46.4640   30.2110   48.3850 N   0  0  0  0  0  0  0  0  0  0  0  0
   45.9300   31.0960   49.2620 C   0  0  0  0  0  0  0  0  0  0  0  0
   45.4920   32.3290   48.8420 N   0  0  0  0  0  0  0  0  0  0  0  0
   46.3600   32.2600   45.2380 C   0  0  2  0  0  0  0  0  0  0  0  0
   46.0790   33.6780   45.1320 C   0  0  0  0  0  0  0  0  0  0  0  0
   45.4850   34.2260   43.9080 C   0  0  0  0  0  0  0  0  0  0  0  0
   45.1820   33.3120   42.7600 C   0  0  0  0  0  0  0  0  0  0  0  0
   45.8680   32.0350   42.8910 C   0  0  0  0  0  0  0  0  0  0  0  0
   45.4290   31.4510   44.2810 C   0  0  0  0  0  0  0  0  0  0  0  0
   47.1040   29.3770   46.4080 C   0  0  0  0  0  0  0  0  0  0  0  0
   48.2750   29.3290   45.8900 N   0  0  0  0  0  0  0  0  0  0  0  0
   48.4430   28.1700   45.3200 O   0  0  0  0  0  0  0  0  0  0  0  0
   47.4140   27.4100   45.4280 C   0  0  0  0  0  0  0  0  0  0  0  0
   46.5480   28.1050   46.0960 N   0  0  0  0  0  0  0  0  0  0  0  0
   47.2830   26.0570   44.9000 C   0  0  0  0  0  0  0  0  0  0  0  0
   48.2300   25.5380   44.2090 O   0  0  0  0  0  0  0  0  0  0  0  0
   46.0400   25.2560   45.1670 C   0  0  1  0  0  0  0  0  0  0  0  0
   46.1350   23.8050   45.1130 C   0  0  0  0  0  0  0  0  0  0  0  0
   46.1950   24.4550   46.4750 C   0  0  2  0  0  0  0  0  0  0  0  0
   44.9990   24.3060   47.3760 C   0  0  0  0  0  0  0  0  0  0  0  0
   44.0210   23.6380   46.6430 F   0  0  0  0  0  0  0  0  0  0  0  0
   44.4750   25.5150   47.7200 F   0  0  0  0  0  0  0  0  0  0  0  0
   45.3110   23.4960   48.4460 F   0  0  0  0  0  0  0  0  0  0  0  0
   45.2347   33.6516   47.2439 H   0  0  0  0  0  0  0  0  0  0  0  0
   45.8461   30.8235   50.3244 H   0  0  0  0  0  0  0  0  0  0  0  0
   47.4154   32.1186   44.9619 H   0  0  0  0  0  0  0  0  0  0  0  0
   46.3124   34.3465   45.9738 H   0  0  0  0  0  0  0  0  0  0  0  0
   45.2634   35.3009   43.8333 H   0  0  0  0  0  0  0  0  0  0  0  0
   45.5039   33.7950   41.8256 H   0  0  0  0  0  0  0  0  0  0  0  0
   44.0990   33.1195   42.7525 H   0  0  0  0  0  0  0  0  0  0  0  0
   45.5697   31.3554   42.0791 H   0  0  0  0  0  0  0  0  0  0  0  0
   46.9597   32.1550   42.8301 H   0  0  0  0  0  0  0  0  0  0  0  0
   44.3664   31.6476   44.4865 H   0  0  0  0  0  0  0  0  0  0  0  0
   45.5211   30.3583   44.3682 H   0  0  0  0  0  0  0  0  0  0  0  0
   45.3282   25.9611   44.7128 H   0  0  0  0  0  0  0  0  0  0  0  0
   45.2511   23.2134   44.8325 H   0  0  0  0  0  0  0  0  0  0  0  0
   46.7887   23.1036   44.5738 H   0  0  0  0  0  0  0  0  0  0  0  0
   46.8884   24.4623   47.3289 H   0  0  0  0  0  0  0  0  0  0  0  0
  1  6  2  0
  2  3  2  0
  2  1  1  0
  3  4  1  0
  4  5  2  0
  6  5  1  0
  7  2  1  0
  8  7  1  0
  9  8  2  0
 10 11  1  0
 10  9  1  0
 11 12  1  0
 12  7  1  0
 13  3  1  0
 14 13  2  0
 15 16  1  0
 15 14  1  0
 16 17  2  0
 17 13  1  0
 18 20  1  0
 18 16  1  0
 19 18  2  0
 20 22  1  0
 21 20  1  0
 21 22  1  0
 22 23  1  0
 23 25  1  0
 23 26  1  0
 24 23  1  0
  1 27  1  0
  5 28  1  0
  7 29  1  6
  8 30  1  0
  9 31  1  0
 10 32  1  0
 10 33  1  0
 11 34  1  0
 11 35  1  0
 12 36  1  0
 12 37  1  0
 20 38  1  1
 21 39  1  0
 21 40  1  0
 22 41  1  1
M  ISO  8  27  14  28  14  29  13  30  13  31  13  32  13  33  13  34  13
M  ISO  7  35  13  36  13  37  13  38  13  39  13  40  13  41  13
M  END
>  <minimizedAffinity>  (1) 
-3.67868257

>  <minimizedRMSD>  (1) 
3.37205863

$$$$
