
     RDKit          3D

 50 53  0  0  1  0  0  0  0  0999 V2000
   45.1500   32.7500   47.6700 C   0  0  0  0  0  0  0  0  0  0  0  0
   45.7350   32.4340   46.4120 C   0  0  0  0  0  0  0  0  0  0  0  0
   46.2660   31.1190   46.2690 C   0  0  0  0  0  0  0  0  0  0  0  0
   46.2110   30.2580   47.2670 N   0  0  0  0  0  0  0  0  0  0  0  0
   45.6410   30.6100   48.4630 C   0  0  0  0  0  0  0  0  0  0  0  0
   45.1140   31.8580   48.6470 N   0  0  0  0  0  0  0  0  0  0  0  0
   45.9070   33.5210   45.4220 C   0  0  2  0  0  0  0  0  0  0  0  0
   45.1540   34.7020   45.7970 C   0  0  0  0  0  0  0  0  0  0  0  0
   44.4980   35.5210   44.7690 C   0  0  0  0  0  0  0  0  0  0  0  0
   44.6360   35.1490   43.3250 C   0  0  0  0  0  0  0  0  0  0  0  0
   45.7420   34.2100   43.1210 C   0  0  0  0  0  0  0  0  0  0  0  0
   45.4160   32.9790   44.0370 C   0  0  0  0  0  0  0  0  0  0  0  0
   46.8310   30.4760   45.1280 C   0  0  0  0  0  0  0  0  0  0  0  0
   48.0540   30.5870   44.7650 N   0  0  0  0  0  0  0  0  0  0  0  0
   48.2460   29.8870   43.6870 O   0  0  0  0  0  0  0  0  0  0  0  0
   47.1820   29.2880   43.2870 C   0  0  0  0  0  0  0  0  0  0  0  0
   46.2700   29.6150   44.1440 N   0  0  0  0  0  0  0  0  0  0  0  0
   47.0810   28.4310   42.1130 C   0  0  0  0  0  0  0  0  0  0  0  0
   48.0620   28.3120   41.3030 O   0  0  0  0  0  0  0  0  0  0  0  0
   45.8270   27.6710   41.8390 C   0  0  1  0  0  0  0  0  0  0  0  0
   45.8580   26.6050   40.8510 C   0  0  0  0  0  0  0  0  0  0  0  0
   45.8750   26.2440   42.3130 C   0  0  1  0  0  0  0  0  0  0  0  0
   46.9510   25.5510   43.0000 C   0  0  0  0  0  0  0  0  0  0  0  0
   47.7680   26.3430   43.9920 C   0  0  0  0  0  0  0  0  0  0  0  0
   47.9970   25.2180   41.8890 C   0  0  0  0  0  0  0  0  0  0  0  0
   46.5950   24.2130   43.5640 C   0  0  0  0  0  0  0  0  0  0  0  0
   44.7216   33.7500   47.8328 H   0  0  0  0  0  0  0  0  0  0  0  0
   45.6072   29.8794   49.2847 H   0  0  0  0  0  0  0  0  0  0  0  0
   46.9652   33.8175   45.3739 H   0  0  0  0  0  0  0  0  0  0  0  0
   45.0736   34.9861   46.8566 H   0  0  0  0  0  0  0  0  0  0  0  0
   43.9083   36.4033   45.0585 H   0  0  0  0  0  0  0  0  0  0  0  0
   43.7007   34.6806   42.9846 H   0  0  0  0  0  0  0  0  0  0  0  0
   44.8453   36.0627   42.7494 H   0  0  0  0  0  0  0  0  0  0  0  0
   45.7959   33.9017   42.0665 H   0  0  0  0  0  0  0  0  0  0  0  0
   46.7136   34.6609   43.3714 H   0  0  0  0  0  0  0  0  0  0  0  0
   44.3395   32.7533   44.0470 H   0  0  0  0  0  0  0  0  0  0  0  0
   45.8828   32.0344   43.7212 H   0  0  0  0  0  0  0  0  0  0  0  0
   45.1650   28.5392   41.9729 H   0  0  0  0  0  0  0  0  0  0  0  0
   44.9640   26.3939   40.2458 H   0  0  0  0  0  0  0  0  0  0  0  0
   46.5014   26.3691   39.9906 H   0  0  0  0  0  0  0  0  0  0  0  0
   45.2782   25.6356   43.0085 H   0  0  0  0  0  0  0  0  0  0  0  0
   47.4771   26.0610   45.0147 H   0  0  0  0  0  0  0  0  0  0  0  0
   48.8363   26.1277   43.8421 H   0  0  0  0  0  0  0  0  0  0  0  0
   47.5860   27.4174   43.8421 H   0  0  0  0  0  0  0  0  0  0  0  0
   48.9455   24.9160   42.3571 H   0  0  0  0  0  0  0  0  0  0  0  0
   47.6186   24.3959   41.2637 H   0  0  0  0  0  0  0  0  0  0  0  0
   48.1635   26.1075   41.2637 H   0  0  0  0  0  0  0  0  0  0  0  0
   46.6083   24.2629   44.6628 H   0  0  0  0  0  0  0  0  0  0  0  0
   45.5894   23.9267   43.2221 H   0  0  0  0  0  0  0  0  0  0  0  0
   47.3253   23.4649   43.2221 H   0  0  0  0  0  0  0  0  0  0  0  0
  1  6  2  0
  2  1  1  0
  3  2  2  0
  3  4  1  0
  4  5  2  0
  5  6  1  0
  7  8  1  0
  7  2  1  0
  9  8  2  0
 10  9  1  0
 11 10  1  0
 11 12  1  0
 12  7  1  0
 13  3  1  0
 14 13  2  0
 15 14  1  0
 16 15  1  0
 16 17  2  0
 17 13  1  0
 18 16  1  0
 19 18  2  0
 20 18  1  0
 20 22  1  0
 21 20  1  0
 21 22  1  0
 22 23  1  0
 23 26  1  0
 23 24  1  0
 25 23  1  0
  1 27  1  0
  5 28  1  0
  7 29  1  6
  8 30  1  0
  9 31  1  0
 10 32  1  0
 10 33  1  0
 11 34  1  0
 11 35  1  0
 12 36  1  0
 12 37  1  0
 20 38  1  1
 21 39  1  0
 21 40  1  0
 22 41  1  1
 24 42  1  0
 24 43  1  0
 24 44  1  0
 25 45  1  0
 25 46  1  0
 25 47  1  0
 26 48  1  0
 26 49  1  0
 26 50  1  0
M  ISO  8  27  14  28  14  29  13  30  13  31  13  32  13  33  13  34  13
M  ISO  8  35  13  36  13  37  13  38  13  39  13  40  13  41  13  42   8
M  ISO  8  43   8  44   8  45   8  46   8  47   8  48   8  49   8  50   8
M  END
>  <minimizedAffinity>  (1) 
-3.39933419

>  <minimizedRMSD>  (1) 
1.44990563

$$$$
