
     RDKit          3D

 40 43  0  0  1  0  0  0  0  0999 V2000
   47.1620   33.9520   41.5400 C   0  0  1  0  0  0  0  0  0  0  0  0
   48.0260   34.5410   40.4340 C   0  0  0  0  0  0  0  0  0  0  0  0
   48.8210   35.7240   40.8360 C   0  0  0  0  0  0  0  0  0  0  0  0
   49.5080   35.5680   42.1520 C   0  0  0  0  0  0  0  0  0  0  0  0
   49.0970   34.3380   42.9060 C   0  0  0  0  0  0  0  0  0  0  0  0
   47.5660   34.3300   42.9160 C   0  0  2  0  0  0  0  0  0  0  0  0
   47.1120   33.4180   43.9610 C   0  0  0  0  0  0  0  0  0  0  0  0
   46.3100   34.0850   44.8340 N   0  0  0  0  0  0  0  0  0  0  0  0
   45.7920   33.4350   45.9180 C   0  0  0  0  0  0  0  0  0  0  0  0
   46.0290   32.1210   46.1970 N   0  0  0  0  0  0  0  0  0  0  0  0
   46.8200   31.4590   45.3360 C   0  0  0  0  0  0  0  0  0  0  0  0
   47.1270   30.1250   45.4920 C   0  0  0  0  0  0  0  0  0  0  0  0
   47.9410   29.4850   44.5600 C   0  0  0  0  0  0  0  0  0  0  0  0
   48.4730   30.1440   43.4480 C   0  0  0  0  0  0  0  0  0  0  0  0
   48.1520   31.4730   43.3170 C   0  0  0  0  0  0  0  0  0  0  0  0
   47.3520   32.0960   44.2390 C   0  0  0  0  0  0  0  0  0  0  0  0
   43.9100   35.6700   41.7790 C   0  0  0  0  0  0  0  0  0  0  0  0
   43.0920   34.9470   40.8880 C   0  0  0  0  0  0  0  0  0  0  0  0
   43.6890   33.8610   40.2070 C   0  0  0  0  0  0  0  0  0  0  0  0
   44.9960   33.5780   40.4410 N   0  0  0  0  0  0  0  0  0  0  0  0
   45.7400   34.2860   41.2920 C   0  0  0  0  0  0  0  0  0  0  0  0
   45.1820   35.3120   41.9390 N   0  0  0  0  0  0  0  0  0  0  0  0
   47.3123   32.8631   41.4976 H   0  0  0  0  0  0  0  0  0  0  0  0
   47.3669   34.8365   39.6044 H   0  0  0  0  0  0  0  0  0  0  0  0
   48.7488   33.7604   40.1542 H   0  0  0  0  0  0  0  0  0  0  0  0
   49.5845   35.9071   40.0656 H   0  0  0  0  0  0  0  0  0  0  0  0
   48.1176   36.5634   40.9388 H   0  0  0  0  0  0  0  0  0  0  0  0
   50.5924   35.5197   41.9738 H   0  0  0  0  0  0  0  0  0  0  0  0
   49.2214   36.4330   42.7682 H   0  0  0  0  0  0  0  0  0  0  0  0
   49.4791   33.4376   42.4027 H   0  0  0  0  0  0  0  0  0  0  0  0
   49.5029   34.3421   43.9283 H   0  0  0  0  0  0  0  0  0  0  0  0
   47.1046   35.2988   43.1578 H   0  0  0  0  0  0  0  0  0  0  0  0
   45.1474   34.0033   46.6047 H   0  0  0  0  0  0  0  0  0  0  0  0
   46.7297   29.5657   46.3518 H   0  0  0  0  0  0  0  0  0  0  0  0
   48.1741   28.4198   44.7048 H   0  0  0  0  0  0  0  0  0  0  0  0
   49.1133   29.6268   42.7182 H   0  0  0  0  0  0  0  0  0  0  0  0
   48.5418   32.0443   42.4616 H   0  0  0  0  0  0  0  0  0  0  0  0
   43.5003   36.5240   42.3382 H   0  0  0  0  0  0  0  0  0  0  0  0
   42.0371   35.2152   40.7294 H   0  0  0  0  0  0  0  0  0  0  0  0
   43.1040   33.2554   39.4992 H   0  0  0  0  0  0  0  0  0  0  0  0
  1  6  1  0
  2  3  1  0
  2  1  1  0
  3  4  1  0
  4  5  1  0
  5  6  1  0
  6  7  1  0
  7 16  1  0
  7  8  2  0
  8  9  1  0
  9 10  2  0
 11 12  2  0
 11 10  1  0
 13 12  1  0
 14 13  2  0
 15 14  1  0
 15 16  2  0
 16 11  1  0
 17 22  2  0
 18 17  1  0
 19 20  1  0
 19 18  2  0
 20 21  2  0
 21  1  1  0
 21 22  1  0
  1 23  1  1
  2 24  1  0
  2 25  1  0
  3 26  1  0
  3 27  1  0
  4 28  1  0
  4 29  1  0
  5 30  1  0
  5 31  1  0
  6 32  1  1
  9 33  1  0
 12 34  1  0
 13 35  1  0
 14 36  1  0
 15 37  1  0
 17 38  1  0
 18 39  1  0
 19 40  1  0
M  ISO  8  23  13  24  13  25  13  26  13  27  13  28  13  29  13  30  13
M  ISO  8  31  13  32  13  33  14  34  14  35  14  36  14  37  14  38  14
M  ISO  2  39  14  40  14
M  END
>  <minimizedAffinity>  (1) 
-6.02994919

>  <minimizedRMSD>  (1) 
2.90854144

$$$$
