
     RDKit          3D

 39 41  0  0  1  0  0  0  0  0999 V2000
   47.1620   33.9040   41.7230 C   0  0  1  0  0  0  0  0  0  0  0  0
   47.9450   34.6310   40.6510 C   0  0  0  0  0  0  0  0  0  0  0  0
   48.8850   35.6700   41.1210 C   0  0  0  0  0  0  0  0  0  0  0  0
   49.6800   35.2730   42.3300 C   0  0  0  0  0  0  0  0  0  0  0  0
   49.2510   33.9700   42.9340 C   0  0  0  0  0  0  0  0  0  0  0  0
   47.7340   34.0090   43.0770 C   0  0  2  0  0  0  0  0  0  0  0  0
   44.1370   35.9150   42.4800 C   0  0  0  0  0  0  0  0  0  0  0  0
   43.1360   35.2180   41.7710 C   0  0  0  0  0  0  0  0  0  0  0  0
   43.5060   34.0690   41.0380 C   0  0  0  0  0  0  0  0  0  0  0  0
   44.8210   33.6900   41.0520 N   0  0  0  0  0  0  0  0  0  0  0  0
   45.7410   34.3930   41.7470 C   0  0  0  0  0  0  0  0  0  0  0  0
   45.4040   35.5020   42.4600 N   0  0  0  0  0  0  0  0  0  0  0  0
   46.1800   31.3380   45.9870 C   0  0  0  0  0  0  0  0  0  0  0  0
   46.0920   32.7060   46.1200 C   0  0  0  0  0  0  0  0  0  0  0  0
   46.6170   33.5280   45.1400 C   0  0  0  0  0  0  0  0  0  0  0  0
   47.2360   33.0070   44.0130 C   0  0  0  0  0  0  0  0  0  0  0  0
   47.3260   31.6280   43.8780 C   0  0  0  0  0  0  0  0  0  0  0  0
   46.7920   30.8170   44.8760 C   0  0  0  0  0  0  0  0  0  0  0  0
   45.5170   30.2850   47.2280 S   0  0  0  0  0  0  0  0  0  0  0  0
   44.5190   29.3690   46.5710 O   0  0  0  0  0  0  0  0  0  0  0  0
   44.7550   31.1340   48.2310 O   0  0  0  0  0  0  0  0  0  0  0  0
   47.2105   32.8400   41.4482 H   0  0  0  0  0  0  0  0  0  0  0  0
   47.2223   35.1128   39.9760 H   0  0  0  0  0  0  0  0  0  0  0  0
   48.5703   33.8634   40.1716 H   0  0  0  0  0  0  0  0  0  0  0  0
   49.5868   35.8961   40.3047 H   0  0  0  0  0  0  0  0  0  0  0  0
   48.2779   36.5401   41.4114 H   0  0  0  0  0  0  0  0  0  0  0  0
   50.7371   35.1886   42.0378 H   0  0  0  0  0  0  0  0  0  0  0  0
   49.5149   36.0494   43.0916 H   0  0  0  0  0  0  0  0  0  0  0  0
   49.5452   33.1372   42.2784 H   0  0  0  0  0  0  0  0  0  0  0  0
   49.7289   33.8209   43.9135 H   0  0  0  0  0  0  0  0  0  0  0  0
   47.4117   34.9596   43.5270 H   0  0  0  0  0  0  0  0  0  0  0  0
   43.8680   36.8118   43.0574 H   0  0  0  0  0  0  0  0  0  0  0  0
   42.0912   35.5617   41.7887 H   0  0  0  0  0  0  0  0  0  0  0  0
   42.7581   33.4947   40.4716 H   0  0  0  0  0  0  0  0  0  0  0  0
   45.6051   33.1437   47.0040 H   0  0  0  0  0  0  0  0  0  0  0  0
   46.5422   34.6193   45.2565 H   0  0  0  0  0  0  0  0  0  0  0  0
   47.8114   31.1833   42.9967 H   0  0  0  0  0  0  0  0  0  0  0  0
   46.8633   29.7245   44.7699 H   0  0  0  0  0  0  0  0  0  0  0  0
   46.5208   29.5841   47.8429 H   0  0  0  0  0  0  0  0  0  0  0  0
  1 11  1  0
  1  6  1  0
  2  3  1  0
  2  1  1  0
  3  4  1  0
  4  5  1  0
  5  6  1  0
  6 16  1  0
  8  7  2  0
  9 10  2  0
  9  8  1  0
 10 11  1  0
 11 12  2  0
 12  7  1  0
 13 14  2  0
 13 19  1  0
 15 14  1  0
 16 15  2  0
 17 16  1  0
 17 18  2  0
 18 13  1  0
 19 21  2  0
 20 19  2  0
  1 22  1  6
  2 23  1  0
  2 24  1  0
  3 25  1  0
  3 26  1  0
  4 27  1  0
  4 28  1  0
  5 29  1  0
  5 30  1  0
  6 31  1  1
  7 32  1  0
  8 33  1  0
  9 34  1  0
 14 35  1  0
 15 36  1  0
 17 37  1  0
 18 38  1  0
 19 39  1  0
M  ISO  8  22  13  23  13  24  13  25  13  26  13  27  13  28  13  29  13
M  ISO  8  30  13  31  13  32  14  33  14  34  14  35  14  36  14  37  14
M  ISO  2  38  14  39  11
M  END
>  <minimizedAffinity>  (1) 
-5.91319036

>  <minimizedRMSD>  (1) 
2.81634068

$$$$
