
     RDKit          3D

 37 39  0  0  1  0  0  0  0  0999 V2000
   47.2970   34.0270   41.5850 C   0  0  1  0  0  0  0  0  0  0  0  0
   48.1340   34.8430   40.6250 C   0  0  0  0  0  0  0  0  0  0  0  0
   49.0560   35.8270   41.2290 C   0  0  0  0  0  0  0  0  0  0  0  0
   49.7990   35.3060   42.4250 C   0  0  0  0  0  0  0  0  0  0  0  0
   49.3360   33.9540   42.8800 C   0  0  0  0  0  0  0  0  0  0  0  0
   47.8160   33.9980   42.9650 C   0  0  2  0  0  0  0  0  0  0  0  0
   47.2800   32.9730   43.7900 N   0  0  0  0  0  0  0  0  0  0  0  0
   46.7090   33.2340   45.0030 C   0  0  0  0  0  0  0  0  0  0  0  0
   46.1750   32.2760   45.8380 C   0  0  0  0  0  0  0  0  0  0  0  0
   46.2000   30.9550   45.4580 C   0  0  0  0  0  0  0  0  0  0  0  0
   45.6540   29.9880   46.3190 N   0  0  0  0  0  0  0  0  0  0  0  0
   46.7680   30.6920   44.2500 N   0  0  0  0  0  0  0  0  0  0  0  0
   47.2720   31.6690   43.4780 C   0  0  0  0  0  0  0  0  0  0  0  0
   47.7630   31.2880   42.3960 O   0  0  0  0  0  0  0  0  0  0  0  0
   44.2140   35.8500   42.5330 C   0  0  0  0  0  0  0  0  0  0  0  0
   43.2830   35.3840   41.5750 C   0  0  0  0  0  0  0  0  0  0  0  0
   43.7260   34.4560   40.6140 C   0  0  0  0  0  0  0  0  0  0  0  0
   45.0410   34.0470   40.6520 N   0  0  0  0  0  0  0  0  0  0  0  0
   45.8810   34.5210   41.5820 C   0  0  0  0  0  0  0  0  0  0  0  0
   45.4780   35.4180   42.5220 N   0  0  0  0  0  0  0  0  0  0  0  0
   47.3445   32.9905   41.2198 H   0  0  0  0  0  0  0  0  0  0  0  0
   47.4463   35.3908   39.9640 H   0  0  0  0  0  0  0  0  0  0  0  0
   48.7794   34.1162   40.1100 H   0  0  0  0  0  0  0  0  0  0  0  0
   49.7910   36.1266   40.4674 H   0  0  0  0  0  0  0  0  0  0  0  0
   48.4417   36.6710   41.5759 H   0  0  0  0  0  0  0  0  0  0  0  0
   50.8667   35.2394   42.1687 H   0  0  0  0  0  0  0  0  0  0  0  0
   49.6089   36.0061   43.2518 H   0  0  0  0  0  0  0  0  0  0  0  0
   49.6501   33.1862   42.1576 H   0  0  0  0  0  0  0  0  0  0  0  0
   49.7726   33.7027   43.8579 H   0  0  0  0  0  0  0  0  0  0  0  0
   47.4801   34.9110   43.4785 H   0  0  0  0  0  0  0  0  0  0  0  0
   46.6727   34.2815   45.3368 H   0  0  0  0  0  0  0  0  0  0  0  0
   45.7318   32.5665   46.8019 H   0  0  0  0  0  0  0  0  0  0  0  0
   45.6646   28.9939   46.0497 H   0  0  0  0  0  0  0  0  0  0  0  0
   45.2432   30.2733   47.2194 H   0  0  0  0  0  0  0  0  0  0  0  0
   43.8936   36.5758   43.2950 H   0  0  0  0  0  0  0  0  0  0  0  0
   42.2413   35.7373   41.5811 H   0  0  0  0  0  0  0  0  0  0  0  0
   43.0377   34.0660   39.8497 H   0  0  0  0  0  0  0  0  0  0  0  0
  1  6  1  0
  2  3  1  0
  2  1  1  0
  3  4  1  0
  4  5  1  0
  5  6  1  0
  6  7  1  0
  7  8  1  0
  8  9  2  0
 10  9  1  0
 10 11  1  0
 12 10  2  0
 13  7  1  0
 13 12  1  0
 14 13  2  0
 16 15  2  0
 17 18  2  0
 17 16  1  0
 18 19  1  0
 19  1  1  0
 19 20  2  0
 20 15  1  0
  1 21  1  6
  2 22  1  0
  2 23  1  0
  3 24  1  0
  3 25  1  0
  4 26  1  0
  4 27  1  0
  5 28  1  0
  5 29  1  0
  6 30  1  1
  8 31  1  0
  9 32  1  0
 11 33  1  0
 11 34  1  0
 15 35  1  0
 16 36  1  0
 17 37  1  0
M  ISO  8  21  13  22  13  23  13  24  13  25  13  26  13  27  13  28  13
M  ISO  7  29  13  30  13  31  14  32  14  35  14  36  14  37  14
M  END
>  <minimizedAffinity>  (1) 
-5.62350464

>  <minimizedRMSD>  (1) 
2.57557392

$$$$
