
     RDKit          3D

 40 42  0  0  1  0  0  0  0  0999 V2000
   46.4680   35.0070   41.9370 C   0  0  1  0  0  0  0  0  0  0  0  0
   47.9510   35.3220   41.9450 C   0  0  0  0  0  0  0  0  0  0  0  0
   48.8570   34.2400   41.5110 C   0  0  0  0  0  0  0  0  0  0  0  0
   48.3760   33.5080   40.2930 C   0  0  0  0  0  0  0  0  0  0  0  0
   46.9720   33.8440   39.8760 C   0  0  0  0  0  0  0  0  0  0  0  0
   46.1230   33.8190   41.1290 C   0  0  2  0  0  0  0  0  0  0  0  0
   46.0200   33.5470   45.3210 C   0  0  0  0  0  0  0  0  0  0  0  0
   45.0910   34.4250   45.8930 C   0  0  0  0  0  0  0  0  0  0  0  0
   44.6180   35.5170   45.1370 C   0  0  0  0  0  0  0  0  0  0  0  0
   45.1050   35.6620   43.8550 N   0  0  0  0  0  0  0  0  0  0  0  0
   45.9890   34.8010   43.3490 C   0  0  0  0  0  0  0  0  0  0  0  0
   46.4530   33.7430   44.0710 N   0  0  0  0  0  0  0  0  0  0  0  0
   44.7430   33.6510   40.8980 N   0  0  0  0  0  0  0  0  0  0  0  0
   44.0960   34.9750   40.9000 C   0  0  0  0  0  0  0  0  0  0  0  0
   42.8450   34.7740   40.0850 C   0  0  0  0  0  0  0  0  0  0  0  0
   42.1440   33.5690   40.3710 N   0  0  0  0  0  0  0  0  0  0  0  0
   42.5930   32.7730   41.4340 C   0  0  0  0  0  0  0  0  0  0  0  0
   44.0130   32.9220   41.8810 C   0  0  0  0  0  0  0  0  0  0  0  0
   45.9670   35.8683   41.4711 H   0  0  0  0  0  0  0  0  0  0  0  0
   48.1136   36.1816   41.2781 H   0  0  0  0  0  0  0  0  0  0  0  0
   48.2034   35.5074   42.9995 H   0  0  0  0  0  0  0  0  0  0  0  0
   49.8408   34.6785   41.2876 H   0  0  0  0  0  0  0  0  0  0  0  0
   48.9024   33.5081   42.3310 H   0  0  0  0  0  0  0  0  0  0  0  0
   49.0496   33.7512   39.4580 H   0  0  0  0  0  0  0  0  0  0  0  0
   48.3776   32.4386   40.5506 H   0  0  0  0  0  0  0  0  0  0  0  0
   46.9423   34.8441   39.4189 H   0  0  0  0  0  0  0  0  0  0  0  0
   46.5989   33.1235   39.1333 H   0  0  0  0  0  0  0  0  0  0  0  0
   46.3620   32.9123   41.7041 H   0  0  0  0  0  0  0  0  0  0  0  0
   46.3953   32.6921   45.9026 H   0  0  0  0  0  0  0  0  0  0  0  0
   44.7342   34.2644   46.9210 H   0  0  0  0  0  0  0  0  0  0  0  0
   43.8881   36.2265   45.5540 H   0  0  0  0  0  0  0  0  0  0  0  0
   43.8481   35.2869   41.9253 H   0  0  0  0  0  0  0  0  0  0  0  0
   44.7451   35.7626   40.4897 H   0  0  0  0  0  0  0  0  0  0  0  0
   43.1252   34.7648   39.0213 H   0  0  0  0  0  0  0  0  0  0  0  0
   42.1664   35.6005   40.3427 H   0  0  0  0  0  0  0  0  0  0  0  0
   41.1674   33.8257   40.5741 H   0  0  0  0  0  0  0  0  0  0  0  0
   41.9536   32.9962   42.3008 H   0  0  0  0  0  0  0  0  0  0  0  0
   42.5369   31.7452   41.0461 H   0  0  0  0  0  0  0  0  0  0  0  0
   44.4637   31.9269   42.0102 H   0  0  0  0  0  0  0  0  0  0  0  0
   44.0428   33.4633   42.8382 H   0  0  0  0  0  0  0  0  0  0  0  0
  1  2  1  0
  1 11  1  0
  3  2  1  0
  4  3  1  0
  5  4  1  0
  5  6  1  0
  6  1  1  0
  7  8  2  0
  9  8  1  0
 10  9  2  0
 11 10  1  0
 11 12  2  0
 12  7  1  0
 13 14  1  0
 13  6  1  0
 13 18  1  0
 15 16  1  0
 15 14  1  0
 16 17  1  0
 17 18  1  0
  1 19  1  6
  2 20  1  0
  2 21  1  0
  3 22  1  0
  3 23  1  0
  4 24  1  0
  4 25  1  0
  5 26  1  0
  5 27  1  0
  6 28  1  1
  7 29  1  0
  8 30  1  0
  9 31  1  0
 14 32  1  0
 14 33  1  0
 15 34  1  0
 15 35  1  0
 16 36  1  0
 17 37  1  0
 17 38  1  0
 18 39  1  0
 18 40  1  0
M  ISO  8  19  13  20  13  21  13  22  13  23  13  24  13  25  13  26  13
M  ISO  8  27  13  28  13  29  14  30  14  31  14  32  13  33  13  34  13
M  ISO  6  35  13  36   5  37  13  38  13  39  13  40  13
M  END
>  <minimizedAffinity>  (1) 
-5.15025854

>  <minimizedRMSD>  (1) 
3.58588076

$$$$
