
     RDKit          3D

 42 45  0  0  1  0  0  0  0  0999 V2000
   47.4370   34.1170   42.2970 C   0  0  1  0  0  0  0  0  0  0  0  0
   48.2910   35.2680   41.7790 C   0  0  0  0  0  0  0  0  0  0  0  0
   49.6570   35.3480   42.3470 C   0  0  0  0  0  0  0  0  0  0  0  0
   50.3670   34.0390   42.4200 C   0  0  0  0  0  0  0  0  0  0  0  0
   49.5000   32.8650   42.0890 C   0  0  0  0  0  0  0  0  0  0  0  0
   48.2040   32.9940   42.8900 C   0  0  2  0  0  0  0  0  0  0  0  0
   47.4730   31.7450   42.6820 C   0  0  0  0  0  0  0  0  0  0  0  0
   47.0040   31.6470   41.3650 C   0  0  0  0  0  0  0  0  0  0  0  0
   46.2480   30.5390   40.9660 C   0  0  0  0  0  0  0  0  0  0  0  0
   45.9400   29.5080   41.8510 C   0  0  0  0  0  0  0  0  0  0  0  0
   46.4120   29.6250   43.1410 C   0  0  0  0  0  0  0  0  0  0  0  0
   46.1850   28.6590   44.1020 C   0  0  0  0  0  0  0  0  0  0  0  0
   46.6750   28.7620   45.4080 C   0  0  0  0  0  0  0  0  0  0  0  0
   47.4290   29.8870   45.7700 C   0  0  0  0  0  0  0  0  0  0  0  0
   47.6370   30.8280   44.7940 C   0  0  0  0  0  0  0  0  0  0  0  0
   47.1540   30.7250   43.5100 C   0  0  0  0  0  0  0  0  0  0  0  0
   45.3370   34.4040   45.3180 C   0  0  0  0  0  0  0  0  0  0  0  0
   44.5370   35.5420   45.0280 C   0  0  0  0  0  0  0  0  0  0  0  0
   44.7380   36.1980   43.7940 C   0  0  0  0  0  0  0  0  0  0  0  0
   45.6860   35.7020   42.9570 N   0  0  0  0  0  0  0  0  0  0  0  0
   46.4250   34.6300   43.2550 C   0  0  0  0  0  0  0  0  0  0  0  0
   46.2410   34.0040   44.4200 N   0  0  0  0  0  0  0  0  0  0  0  0
   46.9413   33.6865   41.4144 H   0  0  0  0  0  0  0  0  0  0  0  0
   48.3823   35.1594   40.6882 H   0  0  0  0  0  0  0  0  0  0  0  0
   47.7782   36.1906   42.0885 H   0  0  0  0  0  0  0  0  0  0  0  0
   50.2519   36.0284   41.7200 H   0  0  0  0  0  0  0  0  0  0  0  0
   49.5484   35.7064   43.3813 H   0  0  0  0  0  0  0  0  0  0  0  0
   51.2082   34.0602   41.7115 H   0  0  0  0  0  0  0  0  0  0  0  0
   50.6982   33.9106   43.4611 H   0  0  0  0  0  0  0  0  0  0  0  0
   49.2744   32.8593   41.0124 H   0  0  0  0  0  0  0  0  0  0  0  0
   50.0144   31.9264   42.3430 H   0  0  0  0  0  0  0  0  0  0  0  0
   48.3742   33.1766   43.9613 H   0  0  0  0  0  0  0  0  0  0  0  0
   47.2311   32.4443   40.6419 H   0  0  0  0  0  0  0  0  0  0  0  0
   45.8881   30.4807   39.9282 H   0  0  0  0  0  0  0  0  0  0  0  0
   45.3459   28.6382   41.5341 H   0  0  0  0  0  0  0  0  0  0  0  0
   45.5944   27.7721   43.8288 H   0  0  0  0  0  0  0  0  0  0  0  0
   46.4710   27.9692   46.1427 H   0  0  0  0  0  0  0  0  0  0  0  0
   47.8335   30.0090   46.7856 H   0  0  0  0  0  0  0  0  0  0  0  0
   48.2262   31.7198   45.0539 H   0  0  0  0  0  0  0  0  0  0  0  0
   45.2137   33.8613   46.2668 H   0  0  0  0  0  0  0  0  0  0  0  0
   43.7832   35.9014   45.7440 H   0  0  0  0  0  0  0  0  0  0  0  0
   44.1455   37.0830   43.5190 H   0  0  0  0  0  0  0  0  0  0  0  0
  1  6  1  0
  1 21  1  0
  2  1  1  0
  2  3  1  0
  3  4  1  0
  5  4  1  0
  5  6  1  0
  7  6  1  0
  7 16  1  0
  8  7  2  0
  9  8  1  0
  9 10  2  0
 10 11  1  0
 11 16  2  0
 11 12  1  0
 12 13  2  0
 13 14  1  0
 15 14  2  0
 16 15  1  0
 18 17  2  0
 19 18  1  0
 20 21  1  0
 20 19  2  0
 21 22  2  0
 22 17  1  0
  1 23  1  6
  2 24  1  0
  2 25  1  0
  3 26  1  0
  3 27  1  0
  4 28  1  0
  4 29  1  0
  5 30  1  0
  5 31  1  0
  6 32  1  1
  8 33  1  0
  9 34  1  0
 10 35  1  0
 12 36  1  0
 13 37  1  0
 14 38  1  0
 15 39  1  0
 17 40  1  0
 18 41  1  0
 19 42  1  0
M  ISO  8  23  13  24  13  25  13  26  13  27  13  28  13  29  13  30  13
M  ISO  8  31  13  32  13  33  14  34  14  35  14  36  14  37  14  38  14
M  ISO  4  39  14  40  14  41  14  42  14
M  END
>  <minimizedAffinity>  (1) 
-5.40358543

>  <minimizedRMSD>  (1) 
0.821014822

$$$$
