
     RDKit          3D

 39 41  0  0  1  0  0  0  0  0999 V2000
   47.4540   34.0160   42.4300 C   0  0  1  0  0  0  0  0  0  0  0  0
   48.2100   35.1910   41.8480 C   0  0  0  0  0  0  0  0  0  0  0  0
   49.5970   35.3460   42.3340 C   0  0  0  0  0  0  0  0  0  0  0  0
   50.3640   34.0690   42.3870 C   0  0  0  0  0  0  0  0  0  0  0  0
   49.5360   32.8370   42.1760 C   0  0  0  0  0  0  0  0  0  0  0  0
   48.2890   32.9580   43.0340 C   0  0  2  0  0  0  0  0  0  0  0  0
   45.3800   34.2660   45.5000 C   0  0  0  0  0  0  0  0  0  0  0  0
   44.5700   35.3970   45.2130 C   0  0  0  0  0  0  0  0  0  0  0  0
   44.7560   36.0530   43.9780 C   0  0  0  0  0  0  0  0  0  0  0  0
   45.7020   35.5630   43.1300 N   0  0  0  0  0  0  0  0  0  0  0  0
   46.4490   34.4970   43.4290 C   0  0  0  0  0  0  0  0  0  0  0  0
   46.2870   33.8610   44.5980 N   0  0  0  0  0  0  0  0  0  0  0  0
   47.5550   31.6670   43.1640 C   0  0  0  0  0  0  0  0  0  0  0  0
   48.4150   30.5690   43.7470 C   0  0  0  0  0  0  0  0  0  0  0  0
   47.4200   29.3990   43.6320 C   0  0  0  0  0  0  0  0  0  0  0  0
   46.6820   29.6780   42.3170 C   0  0  0  0  0  0  0  0  0  0  0  0
   47.1930   31.0220   41.8300 C   0  0  0  0  0  0  0  0  0  0  0  0
   46.9639   33.5407   41.5675 H   0  0  0  0  0  0  0  0  0  0  0  0
   47.6571   36.1089   42.0965 H   0  0  0  0  0  0  0  0  0  0  0  0
   48.2832   35.0033   40.7666 H   0  0  0  0  0  0  0  0  0  0  0  0
   50.1242   36.0392   41.6620 H   0  0  0  0  0  0  0  0  0  0  0  0
   49.5340   35.7240   43.3651 H   0  0  0  0  0  0  0  0  0  0  0  0
   51.1381   34.1005   41.6061 H   0  0  0  0  0  0  0  0  0  0  0  0
   50.7801   33.9960   43.4026 H   0  0  0  0  0  0  0  0  0  0  0  0
   49.2534   32.7540   41.1162 H   0  0  0  0  0  0  0  0  0  0  0  0
   50.1073   31.9397   42.4560 H   0  0  0  0  0  0  0  0  0  0  0  0
   48.5640   33.2247   44.0651 H   0  0  0  0  0  0  0  0  0  0  0  0
   45.2648   33.7275   46.4523 H   0  0  0  0  0  0  0  0  0  0  0  0
   43.8185   35.7515   45.9338 H   0  0  0  0  0  0  0  0  0  0  0  0
   44.1549   36.9338   43.7082 H   0  0  0  0  0  0  0  0  0  0  0  0
   46.6873   31.9653   43.7707 H   0  0  0  0  0  0  0  0  0  0  0  0
   49.3244   30.3974   43.1524 H   0  0  0  0  0  0  0  0  0  0  0  0
   48.8068   30.7600   44.7570 H   0  0  0  0  0  0  0  0  0  0  0  0
   47.9500   28.4361   43.5878 H   0  0  0  0  0  0  0  0  0  0  0  0
   46.7418   29.3295   44.4952 H   0  0  0  0  0  0  0  0  0  0  0  0
   46.9054   28.8935   41.5790 H   0  0  0  0  0  0  0  0  0  0  0  0
   45.5914   29.6885   42.4604 H   0  0  0  0  0  0  0  0  0  0  0  0
   48.0719   30.9126   41.1777 H   0  0  0  0  0  0  0  0  0  0  0  0
   46.4809   31.5939   41.2170 H   0  0  0  0  0  0  0  0  0  0  0  0
  1  6  1  0
  1 11  1  0
  2  3  1  0
  2  1  1  0
  3  4  1  0
  5  4  1  0
  5  6  1  0
  6 13  1  0
  8  7  2  0
  9  8  1  0
 10 11  1  0
 10  9  2  0
 11 12  2  0
 12  7  1  0
 13 14  1  0
 15 14  1  0
 16 15  1  0
 17 16  1  0
 17 13  1  0
  1 18  1  6
  2 19  1  0
  2 20  1  0
  3 21  1  0
  3 22  1  0
  4 23  1  0
  4 24  1  0
  5 25  1  0
  5 26  1  0
  6 27  1  1
  7 28  1  0
  8 29  1  0
  9 30  1  0
 13 31  1  0
 14 32  1  0
 14 33  1  0
 15 34  1  0
 15 35  1  0
 16 36  1  0
 16 37  1  0
 17 38  1  0
 17 39  1  0
M  ISO  8  18  13  19  13  20  13  21  13  22  13  23  13  24  13  25  13
M  ISO  8  26  13  27  13  28  14  29  14  30  14  31  13  32  13  33  13
M  ISO  6  34  13  35  13  36  13  37  13  38  13  39  13
M  END
>  <minimizedAffinity>  (1) 
-4.9711771

>  <minimizedRMSD>  (1) 
0.297853976

$$$$
