
     RDKit          3D

 32 34  0  0  1  0  0  0  0  0999 V2000
   46.7900   35.0030   41.6850 C   0  0  1  0  0  0  0  0  0  0  0  0
   48.2610   35.3200   41.8780 C   0  0  0  0  0  0  0  0  0  0  0  0
   49.1690   34.1520   41.8100 C   0  0  0  0  0  0  0  0  0  0  0  0
   48.8800   33.2480   40.6580 C   0  0  0  0  0  0  0  0  0  0  0  0
   47.5740   33.5080   39.9570 C   0  0  0  0  0  0  0  0  0  0  0  0
   46.5040   33.7230   41.0070 C   0  0  2  0  0  0  0  0  0  0  0  0
   45.5290   34.0210   45.0280 C   0  0  0  0  0  0  0  0  0  0  0  0
   44.7280   35.1310   45.3990 C   0  0  0  0  0  0  0  0  0  0  0  0
   44.6510   36.2000   44.4820 C   0  0  0  0  0  0  0  0  0  0  0  0
   45.3340   36.1140   43.3120 N   0  0  0  0  0  0  0  0  0  0  0  0
   46.0820   35.0430   43.0000 C   0  0  0  0  0  0  0  0  0  0  0  0
   46.1780   33.9970   43.8610 N   0  0  0  0  0  0  0  0  0  0  0  0
   45.2330   33.7900   40.3280 N   0  0  0  0  0  0  0  0  0  0  0  0
   44.9420   33.1200   39.1760 C   0  0  0  0  0  0  0  0  0  0  0  0
   43.6810   33.3870   38.7960 N   0  0  0  0  0  0  0  0  0  0  0  0
   43.1810   34.2380   39.7280 C   0  0  0  0  0  0  0  0  0  0  0  0
   44.1510   34.4720   40.6590 N   0  0  0  0  0  0  0  0  0  0  0  0
   46.4163   35.7841   41.0066 H   0  0  0  0  0  0  0  0  0  0  0  0
   48.5619   36.0317   41.0951 H   0  0  0  0  0  0  0  0  0  0  0  0
   48.3565   35.7237   42.8968 H   0  0  0  0  0  0  0  0  0  0  0  0
   50.2023   34.5176   41.7167 H   0  0  0  0  0  0  0  0  0  0  0  0
   49.0186   33.5674   42.7296 H   0  0  0  0  0  0  0  0  0  0  0  0
   49.6904   33.3623   39.9230 H   0  0  0  0  0  0  0  0  0  0  0  0
   48.8081   32.2326   41.0748 H   0  0  0  0  0  0  0  0  0  0  0  0
   47.6624   34.4055   39.3271 H   0  0  0  0  0  0  0  0  0  0  0  0
   47.3106   32.6524   39.3178 H   0  0  0  0  0  0  0  0  0  0  0  0
   46.4838   32.9110   41.7488 H   0  0  0  0  0  0  0  0  0  0  0  0
   45.6173   33.1651   45.7133 H   0  0  0  0  0  0  0  0  0  0  0  0
   44.1910   35.1571   46.3586 H   0  0  0  0  0  0  0  0  0  0  0  0
   44.0466   37.0900   44.7115 H   0  0  0  0  0  0  0  0  0  0  0  0
   45.6369   32.4588   38.6376 H   0  0  0  0  0  0  0  0  0  0  0  0
   42.1676   34.6657   39.7321 H   0  0  0  0  0  0  0  0  0  0  0  0
  1  2  1  0
  1 11  1  0
  3  2  1  0
  4  3  1  0
  5  4  1  0
  5  6  1  0
  6  1  1  0
  7  8  2  0
  9  8  1  0
 10  9  2  0
 11 10  1  0
 11 12  2  0
 12  7  1  0
 13 17  1  0
 13  6  1  0
 14 13  1  0
 15 14  2  0
 15 16  1  0
 16 17  2  0
  1 18  1  6
  2 19  1  0
  2 20  1  0
  3 21  1  0
  3 22  1  0
  4 23  1  0
  4 24  1  0
  5 25  1  0
  5 26  1  0
  6 27  1  1
  7 28  1  0
  8 29  1  0
  9 30  1  0
 14 31  1  0
 16 32  1  0
M  ISO  8  18  13  19  13  20  13  21  13  22  13  23  13  24  13  25  13
M  ISO  7  26  13  27  13  28  14  29  14  30  14  31  14  32  14
M  END
>  <minimizedAffinity>  (1) 
-4.94882536

>  <minimizedRMSD>  (1) 
3.22282696

$$$$
