
     RDKit          3D

 32 34  0  0  1  0  0  0  0  0999 V2000
   47.4180   33.9930   42.4320 C   0  0  1  0  0  0  0  0  0  0  0  0
   48.1680   35.1690   41.8380 C   0  0  0  0  0  0  0  0  0  0  0  0
   49.5570   35.3670   42.3040 C   0  0  0  0  0  0  0  0  0  0  0  0
   50.3490   34.0970   42.4100 C   0  0  0  0  0  0  0  0  0  0  0  0
   49.5330   32.8590   42.1840 C   0  0  0  0  0  0  0  0  0  0  0  0
   48.2870   32.9770   43.0560 C   0  0  2  0  0  0  0  0  0  0  0  0
   45.3890   34.2810   45.5250 C   0  0  0  0  0  0  0  0  0  0  0  0
   44.5720   35.4070   45.2490 C   0  0  0  0  0  0  0  0  0  0  0  0
   44.7420   36.0470   44.0030 C   0  0  0  0  0  0  0  0  0  0  0  0
   45.6680   35.5570   43.1420 N   0  0  0  0  0  0  0  0  0  0  0  0
   46.4250   34.4860   43.4380 C   0  0  0  0  0  0  0  0  0  0  0  0
   46.2930   33.8410   44.6290 N   0  0  0  0  0  0  0  0  0  0  0  0
   47.5980   31.6600   43.1680 C   0  0  0  0  0  0  0  0  0  0  0  0
   46.8090   31.2010   42.1130 C   0  0  0  0  0  0  0  0  0  0  0  0
   46.1940   29.5560   42.7470 S   0  0  0  0  0  0  0  0  0  0  0  0
   47.1420   29.8160   44.3480 C   0  0  0  0  0  0  0  0  0  0  0  0
   47.6330   30.8250   44.1840 N   0  0  0  0  0  0  0  0  0  0  0  0
   46.9148   33.4946   41.5904 H   0  0  0  0  0  0  0  0  0  0  0  0
   47.6019   36.0816   42.0763 H   0  0  0  0  0  0  0  0  0  0  0  0
   48.2492   34.9504   40.7630 H   0  0  0  0  0  0  0  0  0  0  0  0
   50.0680   36.0359   41.5958 H   0  0  0  0  0  0  0  0  0  0  0  0
   49.4967   35.7915   43.3170 H   0  0  0  0  0  0  0  0  0  0  0  0
   51.1530   34.1251   41.6599 H   0  0  0  0  0  0  0  0  0  0  0  0
   50.7370   34.0440   43.4379 H   0  0  0  0  0  0  0  0  0  0  0  0
   49.2463   32.7843   41.1246 H   0  0  0  0  0  0  0  0  0  0  0  0
   50.1085   31.9582   42.4437 H   0  0  0  0  0  0  0  0  0  0  0  0
   48.5482   33.2804   44.0806 H   0  0  0  0  0  0  0  0  0  0  0  0
   45.2825   33.7583   46.4870 H   0  0  0  0  0  0  0  0  0  0  0  0
   43.8330   35.7681   45.9794 H   0  0  0  0  0  0  0  0  0  0  0  0
   44.1359   36.9252   43.7356 H   0  0  0  0  0  0  0  0  0  0  0  0
   46.6011   31.6870   41.1483 H   0  0  0  0  0  0  0  0  0  0  0  0
   47.2050   29.1550   45.2250 H   0  0  0  0  0  0  0  0  0  0  0  0
  1  6  1  0
  1 11  1  0
  2  3  1  0
  2  1  1  0
  3  4  1  0
  5  4  1  0
  5  6  1  0
  6 13  1  0
  8  7  2  0
  9  8  1  0
 10 11  1  0
 10  9  2  0
 11 12  2  0
 12  7  1  0
 13 17  1  0
 14 15  1  0
 14 13  2  0
 15 16  1  0
 17 16  2  0
  1 18  1  6
  2 19  1  0
  2 20  1  0
  3 21  1  0
  3 22  1  0
  4 23  1  0
  4 24  1  0
  5 25  1  0
  5 26  1  0
  6 27  1  1
  7 28  1  0
  8 29  1  0
  9 30  1  0
 14 31  1  0
 16 32  1  0
M  ISO  8  18  13  19  13  20  13  21  13  22  13  23  13  24  13  25  13
M  ISO  7  26  13  27  13  28  14  29  14  30  14  31  14  32  14
M  END
>  <minimizedAffinity>  (1) 
-4.92500353

>  <minimizedRMSD>  (1) 
0.148166418

$$$$
