
     RDKit          3D

 35 36  0  0  1  0  0  0  0  0999 V2000
   47.4190   34.0380   42.3810 C   0  0  1  0  0  0  0  0  0  0  0  0
   48.1880   35.2160   41.8170 C   0  0  0  0  0  0  0  0  0  0  0  0
   49.5770   35.3790   42.2850 C   0  0  0  0  0  0  0  0  0  0  0  0
   50.3480   34.1050   42.4230 C   0  0  0  0  0  0  0  0  0  0  0  0
   49.5180   32.8720   42.1130 C   0  0  0  0  0  0  0  0  0  0  0  0
   48.2610   32.9700   42.9460 C   0  0  2  0  0  0  0  0  0  0  0  0
   45.4050   34.2430   45.4900 C   0  0  0  0  0  0  0  0  0  0  0  0
   44.5910   35.3770   45.2320 C   0  0  0  0  0  0  0  0  0  0  0  0
   44.7460   36.0570   44.0040 C   0  0  0  0  0  0  0  0  0  0  0  0
   45.6740   35.5790   43.1350 N   0  0  0  0  0  0  0  0  0  0  0  0
   46.4280   34.5090   43.4030 C   0  0  0  0  0  0  0  0  0  0  0  0
   46.3030   33.8330   44.5760 N   0  0  0  0  0  0  0  0  0  0  0  0
   47.5700   31.6210   42.9370 C   0  0  0  0  0  0  0  0  0  0  0  0
   47.2910   31.1410   41.5360 C   0  0  0  0  0  0  0  0  0  0  0  0
   48.5330   30.6330   43.5850 C   0  0  0  0  0  0  0  0  0  0  0  0
   46.9012   33.5847   41.5229 H   0  0  0  0  0  0  0  0  0  0  0  0
   47.6372   36.1313   42.0793 H   0  0  0  0  0  0  0  0  0  0  0  0
   48.2651   35.0234   40.7367 H   0  0  0  0  0  0  0  0  0  0  0  0
   50.1063   36.0228   41.5670 H   0  0  0  0  0  0  0  0  0  0  0  0
   49.5140   35.8126   43.2940 H   0  0  0  0  0  0  0  0  0  0  0  0
   51.2022   34.1356   41.7306 H   0  0  0  0  0  0  0  0  0  0  0  0
   50.6715   34.0284   43.4716 H   0  0  0  0  0  0  0  0  0  0  0  0
   49.2623   32.8469   41.0434 H   0  0  0  0  0  0  0  0  0  0  0  0
   50.0751   31.9527   42.3465 H   0  0  0  0  0  0  0  0  0  0  0  0
   48.4790   33.2257   43.9934 H   0  0  0  0  0  0  0  0  0  0  0  0
   45.3012   33.6980   46.4399 H   0  0  0  0  0  0  0  0  0  0  0  0
   43.8543   35.7192   45.9737 H   0  0  0  0  0  0  0  0  0  0  0  0
   44.1379   36.9407   43.7604 H   0  0  0  0  0  0  0  0  0  0  0  0
   46.6098   31.7026   43.4675 H   0  0  0  0  0  0  0  0  0  0  0  0
   46.7386   30.1906   41.5772 H   0  0  0  0  0  0  0  0  0  0  0  0
   46.6889   31.8923   41.0041 H   0  0  0  0  0  0  0  0  0  0  0  0
   48.2419   30.9897   41.0041 H   0  0  0  0  0  0  0  0  0  0  0  0
   48.4569   30.7111   44.6796 H   0  0  0  0  0  0  0  0  0  0  0  0
   48.2754   29.6106   43.2715 H   0  0  0  0  0  0  0  0  0  0  0  0
   49.5617   30.8644   43.2715 H   0  0  0  0  0  0  0  0  0  0  0  0
  1  6  1  0
  1 11  1  0
  2  3  1  0
  2  1  1  0
  3  4  1  0
  5  4  1  0
  5  6  1  0
  8  7  2  0
  9  8  1  0
 10 11  1  0
 10  9  2  0
 11 12  2  0
 12  7  1  0
 13  6  1  0
 13 15  1  0
 14 13  1  0
  1 16  1  6
  2 17  1  0
  2 18  1  0
  3 19  1  0
  3 20  1  0
  4 21  1  0
  4 22  1  0
  5 23  1  0
  5 24  1  0
  6 25  1  1
  7 26  1  0
  8 27  1  0
  9 28  1  0
 13 29  1  0
 14 30  1  0
 14 31  1  0
 14 32  1  0
 15 33  1  0
 15 34  1  0
 15 35  1  0
M  ISO  8  16  13  17  13  18  13  19  13  20  13  21  13  22  13  23  13
M  ISO  8  24  13  25  13  26  14  27  14  28  14  29   8  30   8  31   8
M  ISO  4  32   8  33   8  34   8  35   8
M  END
>  <minimizedAffinity>  (1) 
-4.90343952

>  <minimizedRMSD>  (1) 
0.541145623

$$$$
