
     RDKit          3D

 38 40  0  0  1  0  0  0  0  0999 V2000
   47.0520   34.7190   41.8810 C   0  0  1  0  0  0  0  0  0  0  0  0
   48.4380   35.3020   42.0870 C   0  0  0  0  0  0  0  0  0  0  0  0
   49.5370   34.3270   42.2560 C   0  0  0  0  0  0  0  0  0  0  0  0
   49.4700   33.1650   41.3110 C   0  0  0  0  0  0  0  0  0  0  0  0
   48.2060   33.1060   40.5060 C   0  0  0  0  0  0  0  0  0  0  0  0
   47.0490   33.3060   41.4640 C   0  0  2  0  0  0  0  0  0  0  0  0
   45.6840   34.1060   45.2720 C   0  0  0  0  0  0  0  0  0  0  0  0
   44.7370   35.1550   45.4170 C   0  0  0  0  0  0  0  0  0  0  0  0
   44.5960   36.0550   44.3390 C   0  0  0  0  0  0  0  0  0  0  0  0
   45.3620   35.8770   43.2320 N   0  0  0  0  0  0  0  0  0  0  0  0
   46.2490   34.8680   43.1350 C   0  0  0  0  0  0  0  0  0  0  0  0
   46.4100   33.9830   44.1550 N   0  0  0  0  0  0  0  0  0  0  0  0
   45.7810   32.9070   40.9360 N   0  0  0  0  0  0  0  0  0  0  0  0
   45.1740   33.9180   40.1410 C   0  0  0  0  0  0  0  0  0  0  0  0
   43.8240   34.2430   40.7370 C   0  0  0  0  0  0  0  0  0  0  0  0
   43.4930   33.0350   41.6110 C   0  0  0  0  0  0  0  0  0  0  0  0
   44.8520   32.4530   41.9360 C   0  0  0  0  0  0  0  0  0  0  0  0
   46.6033   35.2884   41.0537 H   0  0  0  0  0  0  0  0  0  0  0  0
   48.6736   35.9252   41.2117 H   0  0  0  0  0  0  0  0  0  0  0  0
   48.3868   35.8559   43.0360 H   0  0  0  0  0  0  0  0  0  0  0  0
   50.4914   34.8497   42.0948 H   0  0  0  0  0  0  0  0  0  0  0  0
   49.4460   33.9169   43.2726 H   0  0  0  0  0  0  0  0  0  0  0  0
   50.3198   33.2348   40.6161 H   0  0  0  0  0  0  0  0  0  0  0  0
   49.4992   32.2529   41.9252 H   0  0  0  0  0  0  0  0  0  0  0  0
   48.2067   33.9013   39.7461 H   0  0  0  0  0  0  0  0  0  0  0  0
   48.1195   32.1389   39.9890 H   0  0  0  0  0  0  0  0  0  0  0  0
   47.1950   32.6446   42.3307 H   0  0  0  0  0  0  0  0  0  0  0  0
   45.8224   33.3841   46.0904 H   0  0  0  0  0  0  0  0  0  0  0  0
   44.1374   35.2616   46.3331 H   0  0  0  0  0  0  0  0  0  0  0  0
   43.8779   36.8864   44.3946 H   0  0  0  0  0  0  0  0  0  0  0  0
   45.8059   34.8184   40.1381 H   0  0  0  0  0  0  0  0  0  0  0  0
   45.0565   33.5664   39.1053 H   0  0  0  0  0  0  0  0  0  0  0  0
   43.8767   35.1592   41.3434 H   0  0  0  0  0  0  0  0  0  0  0  0
   43.0593   34.4256   39.9676 H   0  0  0  0  0  0  0  0  0  0  0  0
   42.9681   33.3441   42.5269 H   0  0  0  0  0  0  0  0  0  0  0  0
   42.8259   32.3155   41.1137 H   0  0  0  0  0  0  0  0  0  0  0  0
   44.7997   31.3543   41.9255 H   0  0  0  0  0  0  0  0  0  0  0  0
   45.1775   32.7777   42.9353 H   0  0  0  0  0  0  0  0  0  0  0  0
  1  2  1  0
  1 11  1  0
  2  3  1  0
  4  3  1  0
  5  4  1  0
  5  6  1  0
  6  1  1  0
  7  8  2  0
  9  8  1  0
 10  9  2  0
 11 10  1  0
 11 12  2  0
 12  7  1  0
 13 14  1  0
 13  6  1  0
 13 17  1  0
 14 15  1  0
 15 16  1  0
 16 17  1  0
  1 18  1  6
  2 19  1  0
  2 20  1  0
  3 21  1  0
  3 22  1  0
  4 23  1  0
  4 24  1  0
  5 25  1  0
  5 26  1  0
  6 27  1  1
  7 28  1  0
  8 29  1  0
  9 30  1  0
 14 31  1  0
 14 32  1  0
 15 33  1  0
 15 34  1  0
 16 35  1  0
 16 36  1  0
 17 37  1  0
 17 38  1  0
M  ISO  8  18  13  19  13  20  13  21  13  22  13  23  13  24  13  25  13
M  ISO  8  26  13  27  13  28  14  29  14  30  14  31  13  32  13  33  13
M  ISO  5  34  13  35  13  36  13  37  13  38  13
M  END
>  <minimizedAffinity>  (1) 
-4.86686087

>  <minimizedRMSD>  (1) 
2.17907977

$$$$
