
     RDKit          3D

 33 35  0  0  1  0  0  0  0  0999 V2000
   47.4500   34.0410   42.3620 C   0  0  1  0  0  0  0  0  0  0  0  0
   48.3060   35.2070   41.8990 C   0  0  0  0  0  0  0  0  0  0  0  0
   49.6870   35.2420   42.4330 C   0  0  0  0  0  0  0  0  0  0  0  0
   50.3720   33.9160   42.3890 C   0  0  0  0  0  0  0  0  0  0  0  0
   49.4710   32.7660   42.0510 C   0  0  0  0  0  0  0  0  0  0  0  0
   48.2260   32.9130   42.9130 C   0  0  2  0  0  0  0  0  0  0  0  0
   45.4350   34.2550   45.4530 C   0  0  0  0  0  0  0  0  0  0  0  0
   44.6000   35.3750   45.1950 C   0  0  0  0  0  0  0  0  0  0  0  0
   44.7480   36.0420   43.9600 C   0  0  0  0  0  0  0  0  0  0  0  0
   45.6870   35.5730   43.0800 N   0  0  0  0  0  0  0  0  0  0  0  0
   46.4510   34.5180   43.3600 C   0  0  0  0  0  0  0  0  0  0  0  0
   46.3270   33.8590   44.5430 N   0  0  0  0  0  0  0  0  0  0  0  0
   47.4640   31.6510   43.0570 C   0  0  0  0  0  0  0  0  0  0  0  0
   48.0230   30.2980   42.9780 C   0  0  0  0  0  0  0  0  0  0  0  0
   47.8320   30.8270   44.3340 C   0  0  0  0  0  0  0  0  0  0  0  0
   46.9424   33.6493   41.4682 H   0  0  0  0  0  0  0  0  0  0  0  0
   48.3690   35.1652   40.8016 H   0  0  0  0  0  0  0  0  0  0  0  0
   47.8130   36.1120   42.2834 H   0  0  0  0  0  0  0  0  0  0  0  0
   50.2733   35.9576   41.8378 H   0  0  0  0  0  0  0  0  0  0  0  0
   49.6197   35.5385   43.4901 H   0  0  0  0  0  0  0  0  0  0  0  0
   51.1676   33.9644   41.6310 H   0  0  0  0  0  0  0  0  0  0  0  0
   50.7569   33.7270   43.4020 H   0  0  0  0  0  0  0  0  0  0  0  0
   49.1996   32.7984   40.9855 H   0  0  0  0  0  0  0  0  0  0  0  0
   49.9707   31.8047   42.2412 H   0  0  0  0  0  0  0  0  0  0  0  0
   48.5001   33.1406   43.9537 H   0  0  0  0  0  0  0  0  0  0  0  0
   45.3460   33.7126   46.4058 H   0  0  0  0  0  0  0  0  0  0  0  0
   43.8601   35.7124   45.9358 H   0  0  0  0  0  0  0  0  0  0  0  0
   44.1263   36.9146   43.7110 H   0  0  0  0  0  0  0  0  0  0  0  0
   46.6013   32.1070   42.5493 H   0  0  0  0  0  0  0  0  0  0  0  0
   47.3853   29.4727   42.6284 H   0  0  0  0  0  0  0  0  0  0  0  0
   48.8915   29.8738   42.4529 H   0  0  0  0  0  0  0  0  0  0  0  0
   48.6997   31.1103   44.9478 H   0  0  0  0  0  0  0  0  0  0  0  0
   47.3062   30.5007   45.2434 H   0  0  0  0  0  0  0  0  0  0  0  0
  1  6  1  0
  1 11  1  0
  2  1  1  0
  2  3  1  0
  4  3  1  0
  5  4  1  0
  5  6  1  0
  6 13  1  0
  8  7  2  0
  9  8  1  0
 10 11  1  0
 10  9  2  0
 11 12  2  0
 12  7  1  0
 13 15  1  0
 14 13  1  0
 14 15  1  0
  1 16  1  6
  2 17  1  0
  2 18  1  0
  3 19  1  0
  3 20  1  0
  4 21  1  0
  4 22  1  0
  5 23  1  0
  5 24  1  0
  6 25  1  1
  7 26  1  0
  8 27  1  0
  9 28  1  0
 13 29  1  0
 14 30  1  0
 14 31  1  0
 15 32  1  0
 15 33  1  0
M  ISO  8  16  13  17  13  18  13  19  13  20  13  21  13  22  13  23  13
M  ISO  8  24  13  25  13  26  14  27  14  28  14  29  13  30  13  31  13
M  ISO  2  32  13  33  13
M  END
>  <minimizedAffinity>  (1) 
-4.8669734

>  <minimizedRMSD>  (1) 
0.439121246

$$$$
