
     RDKit          3D

 29 30  0  0  1  0  0  0  0  0999 V2000
   47.4510   34.0010   42.4410 C   0  0  1  0  0  0  0  0  0  0  0  0
   48.1760   35.1830   41.8260 C   0  0  0  0  0  0  0  0  0  0  0  0
   49.5640   35.3850   42.2910 C   0  0  0  0  0  0  0  0  0  0  0  0
   50.3670   34.1320   42.4100 C   0  0  0  0  0  0  0  0  0  0  0  0
   49.5720   32.8820   42.2000 C   0  0  0  0  0  0  0  0  0  0  0  0
   48.3090   32.9720   43.0560 C   0  0  2  0  0  0  0  0  0  0  0  0
   45.3900   34.2720   45.5170 C   0  0  0  0  0  0  0  0  0  0  0  0
   44.5710   35.3950   45.2340 C   0  0  0  0  0  0  0  0  0  0  0  0
   44.7510   36.0390   43.9900 C   0  0  0  0  0  0  0  0  0  0  0  0
   45.6900   35.5520   43.1370 N   0  0  0  0  0  0  0  0  0  0  0  0
   46.4470   34.4860   43.4400 C   0  0  0  0  0  0  0  0  0  0  0  0
   46.2950   33.8550   44.6200 N   0  0  0  0  0  0  0  0  0  0  0  0
   47.6780   31.5770   42.9530 C   0  0  0  0  0  0  0  0  0  0  0  0
   48.5580   30.7660   42.2230 F   0  0  0  0  0  0  0  0  0  0  0  0
   47.5110   31.0390   44.2150 F   0  0  0  0  0  0  0  0  0  0  0  0
   46.4840   31.5730   42.3020 F   0  0  0  0  0  0  0  0  0  0  0  0
   46.9651   33.4953   41.5935 H   0  0  0  0  0  0  0  0  0  0  0  0
   47.6034   36.0924   42.0609 H   0  0  0  0  0  0  0  0  0  0  0  0
   48.2443   34.9705   40.7489 H   0  0  0  0  0  0  0  0  0  0  0  0
   50.0714   36.0515   41.5780 H   0  0  0  0  0  0  0  0  0  0  0  0
   49.4955   35.8093   43.3036 H   0  0  0  0  0  0  0  0  0  0  0  0
   51.1701   34.1623   41.6589 H   0  0  0  0  0  0  0  0  0  0  0  0
   50.7536   34.0962   43.4392 H   0  0  0  0  0  0  0  0  0  0  0  0
   49.2972   32.7889   41.1389 H   0  0  0  0  0  0  0  0  0  0  0  0
   50.1647   32.0011   42.4874 H   0  0  0  0  0  0  0  0  0  0  0  0
   48.4772   33.2440   44.1085 H   0  0  0  0  0  0  0  0  0  0  0  0
   45.2823   33.7419   46.4748 H   0  0  0  0  0  0  0  0  0  0  0  0
   43.8228   35.7514   45.9573 H   0  0  0  0  0  0  0  0  0  0  0  0
   44.1445   36.9154   43.7177 H   0  0  0  0  0  0  0  0  0  0  0  0
  1  6  1  0
  1 11  1  0
  2  3  1  0
  2  1  1  0
  3  4  1  0
  5  4  1  0
  5  6  1  0
  8  7  2  0
  9  8  1  0
 10 11  1  0
 10  9  2  0
 11 12  2  0
 12  7  1  0
 13  6  1  0
 13 15  1  0
 14 13  1  0
 16 13  1  0
  1 17  1  6
  2 18  1  0
  2 19  1  0
  3 20  1  0
  3 21  1  0
  4 22  1  0
  4 23  1  0
  5 24  1  0
  5 25  1  0
  6 26  1  1
  7 27  1  0
  8 28  1  0
  9 29  1  0
M  ISO  8  17  13  18  13  19  13  20  13  21  13  22  13  23  13  24  13
M  ISO  5  25  13  26  13  27  14  28  14  29  14
M  END
>  <minimizedAffinity>  (1) 
-4.92467833

>  <minimizedRMSD>  (1) 
0.163402796

$$$$
