
     RDKit          3D

 27 28  0  0  1  0  0  0  0  0999 V2000
   47.2460   34.5510   41.8880 C   0  0  1  0  0  0  0  0  0  0  0  0
   48.4390   35.4850   41.9210 C   0  0  0  0  0  0  0  0  0  0  0  0
   49.7020   34.8980   42.4170 C   0  0  0  0  0  0  0  0  0  0  0  0
   49.9900   33.5400   41.8510 C   0  0  0  0  0  0  0  0  0  0  0  0
   48.8520   32.9230   41.0980 C   0  0  0  0  0  0  0  0  0  0  0  0
   47.5820   33.1140   41.9150 C   0  0  1  0  0  0  0  0  0  0  0  0
   45.3120   34.2670   45.0420 C   0  0  0  0  0  0  0  0  0  0  0  0
   44.5690   35.4750   45.0510 C   0  0  0  0  0  0  0  0  0  0  0  0
   44.7510   36.3670   43.9740 C   0  0  0  0  0  0  0  0  0  0  0  0
   45.6320   36.0250   42.9780 N   0  0  0  0  0  0  0  0  0  0  0  0
   46.3100   34.8640   43.0250 C   0  0  0  0  0  0  0  0  0  0  0  0
   46.1580   33.9810   44.0490 N   0  0  0  0  0  0  0  0  0  0  0  0
   47.8630   32.4660   43.5820 S   0  0  0  0  0  0  0  0  0  0  0  0
   46.7653   34.7337   40.9156 H   0  0  0  0  0  0  0  0  0  0  0  0
   48.6138   35.8456   40.8966 H   0  0  0  0  0  0  0  0  0  0  0  0
   48.1773   36.2788   42.6361 H   0  0  0  0  0  0  0  0  0  0  0  0
   50.5291   35.5710   42.1467 H   0  0  0  0  0  0  0  0  0  0  0  0
   49.6001   34.7810   43.5060 H   0  0  0  0  0  0  0  0  0  0  0  0
   50.8463   33.6285   41.1662 H   0  0  0  0  0  0  0  0  0  0  0  0
   50.1891   32.8811   42.7090 H   0  0  0  0  0  0  0  0  0  0  0  0
   48.7429   33.4142   40.1198 H   0  0  0  0  0  0  0  0  0  0  0  0
   49.0410   31.8518   40.9344 H   0  0  0  0  0  0  0  0  0  0  0  0
   46.7242   32.5621   41.5032 H   0  0  0  0  0  0  0  0  0  0  0  0
   45.1891   33.5519   45.8688 H   0  0  0  0  0  0  0  0  0  0  0  0
   43.8738   35.7084   45.8709 H   0  0  0  0  0  0  0  0  0  0  0  0
   44.1985   37.3173   43.9327 H   0  0  0  0  0  0  0  0  0  0  0  0
   47.4607   33.3937   44.5064 H   0  0  0  0  0  0  0  0  0  0  0  0
  1  6  1  0
  1  2  1  0
  1 11  1  0
  2  3  1  0
  4  3  1  0
  5  4  1  0
  5  6  1  0
  6 13  1  0
  7  8  2  0
  9  8  1  0
 10 11  1  0
 10  9  2  0
 11 12  2  0
 12  7  1  0
  1 14  1  6
  2 15  1  0
  2 16  1  0
  3 17  1  0
  3 18  1  0
  4 19  1  0
  4 20  1  0
  5 21  1  0
  5 22  1  0
  6 23  1  6
  7 24  1  0
  8 25  1  0
  9 26  1  0
 13 27  1  0
M  ISO  8  14  13  15  13  16  13  17  13  18  13  19  13  20  13  21  13
M  ISO  6  22  13  23  13  24  14  25  14  26  14  27  11
M  END
>  <minimizedAffinity>  (1) 
-4.6037221

>  <minimizedRMSD>  (1) 
0.836106598

$$$$
