
     RDKit          3D

 29 30  0  0  1  0  0  0  0  0999 V2000
   47.4210   33.9750   42.4600 C   0  0  1  0  0  0  0  0  0  0  0  0
   48.0960   35.1510   41.7800 C   0  0  0  0  0  0  0  0  0  0  0  0
   49.4820   35.4460   42.2020 C   0  0  0  0  0  0  0  0  0  0  0  0
   50.3380   34.2320   42.3750 C   0  0  0  0  0  0  0  0  0  0  0  0
   49.5940   32.9390   42.2520 C   0  0  0  0  0  0  0  0  0  0  0  0
   48.3450   33.0390   43.1270 C   0  0  2  0  0  0  0  0  0  0  0  0
   45.3350   34.2740   45.5170 C   0  0  0  0  0  0  0  0  0  0  0  0
   44.5540   35.4270   45.2370 C   0  0  0  0  0  0  0  0  0  0  0  0
   44.7680   36.0790   44.0030 C   0  0  0  0  0  0  0  0  0  0  0  0
   45.7000   35.5740   43.1560 N   0  0  0  0  0  0  0  0  0  0  0  0
   46.4210   34.4800   43.4530 C   0  0  0  0  0  0  0  0  0  0  0  0
   46.2370   33.8310   44.6340 N   0  0  0  0  0  0  0  0  0  0  0  0
   47.7360   31.6880   43.2800 C   0  0  0  0  0  0  0  0  0  0  0  0
   48.2950   30.7730   43.9750 O   0  0  0  0  0  0  0  0  0  0  0  0
   46.5510   31.2420   42.7290 O   0  0  0  0  0  0  0  0  0  0  0  0
   46.9357   33.4003   41.6574 H   0  0  0  0  0  0  0  0  0  0  0  0
   47.4880   36.0462   41.9776 H   0  0  0  0  0  0  0  0  0  0  0  0
   48.1661   34.8741   40.7177 H   0  0  0  0  0  0  0  0  0  0  0  0
   49.9456   36.0901   41.4402 H   0  0  0  0  0  0  0  0  0  0  0  0
   49.4176   35.9322   43.1866 H   0  0  0  0  0  0  0  0  0  0  0  0
   51.1256   34.2521   41.6074 H   0  0  0  0  0  0  0  0  0  0  0  0
   50.7415   34.2706   43.3976 H   0  0  0  0  0  0  0  0  0  0  0  0
   49.3052   32.7707   41.2040 H   0  0  0  0  0  0  0  0  0  0  0  0
   50.2253   32.0980   42.5748 H   0  0  0  0  0  0  0  0  0  0  0  0
   48.5835   33.4081   44.1354 H   0  0  0  0  0  0  0  0  0  0  0  0
   45.1968   33.7404   46.4689 H   0  0  0  0  0  0  0  0  0  0  0  0
   43.8090   35.7987   45.9559 H   0  0  0  0  0  0  0  0  0  0  0  0
   44.1918   36.9766   43.7342 H   0  0  0  0  0  0  0  0  0  0  0  0
   46.2427   30.3169   42.9002 H   0  0  0  0  0  0  0  0  0  0  0  0
  1  6  1  0
  1 11  1  0
  2  3  1  0
  2  1  1  0
  3  4  1  0
  5  4  1  0
  5  6  1  0
  6 13  1  0
  8  7  2  0
  9  8  1  0
 10 11  1  0
 10  9  2  0
 11 12  2  0
 12  7  1  0
 13 14  2  0
 15 13  1  0
  1 16  1  6
  2 17  1  0
  2 18  1  0
  3 19  1  0
  3 20  1  0
  4 21  1  0
  4 22  1  0
  5 23  1  0
  5 24  1  0
  6 25  1  1
  7 26  1  0
  8 27  1  0
  9 28  1  0
 15 29  1  0
M  ISO  8  16  13  17  13  18  13  19  13  20  13  21  13  22  13  23  13
M  ISO  6  24  13  25  13  26  14  27  14  28  14  29   3
M  END
>  <minimizedAffinity>  (1) 
-4.83586597

>  <minimizedRMSD>  (1) 
0.320888281

$$$$
