
     RDKit          3D

 28 29  0  0  1  0  0  0  0  0999 V2000
   47.4360   34.0160   42.4040 C   0  0  1  0  0  0  0  0  0  0  0  0
   48.1920   35.2010   41.8300 C   0  0  0  0  0  0  0  0  0  0  0  0
   49.5830   35.3720   42.2960 C   0  0  0  0  0  0  0  0  0  0  0  0
   50.3580   34.0910   42.4010 C   0  0  0  0  0  0  0  0  0  0  0  0
   49.5270   32.8510   42.1270 C   0  0  0  0  0  0  0  0  0  0  0  0
   48.2810   32.9640   42.9910 C   0  0  2  0  0  0  0  0  0  0  0  0
   45.3860   34.2490   45.4830 C   0  0  0  0  0  0  0  0  0  0  0  0
   44.5780   35.3890   45.2290 C   0  0  0  0  0  0  0  0  0  0  0  0
   44.7640   36.0550   43.9990 C   0  0  0  0  0  0  0  0  0  0  0  0
   45.6940   35.5770   43.1330 N   0  0  0  0  0  0  0  0  0  0  0  0
   46.4400   34.4940   43.4120 C   0  0  0  0  0  0  0  0  0  0  0  0
   46.2890   33.8330   44.5770 N   0  0  0  0  0  0  0  0  0  0  0  0
   47.5420   31.7090   43.0220 N   0  0  0  0  0  0  0  0  0  0  0  0
   46.9353   33.5412   41.5474 H   0  0  0  0  0  0  0  0  0  0  0  0
   47.6355   36.1132   42.0913 H   0  0  0  0  0  0  0  0  0  0  0  0
   48.2640   35.0100   40.7491 H   0  0  0  0  0  0  0  0  0  0  0  0
   50.1048   36.0340   41.5893 H   0  0  0  0  0  0  0  0  0  0  0  0
   49.5271   35.7920   43.3111 H   0  0  0  0  0  0  0  0  0  0  0  0
   51.1831   34.1237   41.6742 H   0  0  0  0  0  0  0  0  0  0  0  0
   50.7154   34.0156   43.4386 H   0  0  0  0  0  0  0  0  0  0  0  0
   49.2489   32.8077   41.0636 H   0  0  0  0  0  0  0  0  0  0  0  0
   50.0906   31.9358   42.3611 H   0  0  0  0  0  0  0  0  0  0  0  0
   48.5675   33.2055   44.0252 H   0  0  0  0  0  0  0  0  0  0  0  0
   45.2723   33.7009   46.4299 H   0  0  0  0  0  0  0  0  0  0  0  0
   43.8364   35.7390   45.9622 H   0  0  0  0  0  0  0  0  0  0  0  0
   44.1673   36.9440   43.7467 H   0  0  0  0  0  0  0  0  0  0  0  0
   47.3783   31.4310   44.0002 H   0  0  0  0  0  0  0  0  0  0  0  0
   46.6379   31.8310   42.5439 H   0  0  0  0  0  0  0  0  0  0  0  0
  1  6  1  0
  1 11  1  0
  2  3  1  0
  2  1  1  0
  3  4  1  0
  5  4  1  0
  5  6  1  0
  6 13  1  0
  8  7  2  0
  9  8  1  0
 10 11  1  0
 10  9  2  0
 11 12  2  0
 12  7  1  0
  1 14  1  6
  2 15  1  0
  2 16  1  0
  3 17  1  0
  3 18  1  0
  4 19  1  0
  4 20  1  0
  5 21  1  0
  5 22  1  0
  6 23  1  1
  7 24  1  0
  8 25  1  0
  9 26  1  0
 13 27  1  0
 13 28  1  0
M  ISO  8  14  13  15  13  16  13  17  13  18  13  19  13  20  13  21  13
M  ISO  7  22  13  23  13  24  14  25  14  26  14  27   5  28   5
M  END
>  <minimizedAffinity>  (1) 
-4.82661057

>  <minimizedRMSD>  (1) 
0.0250700302

$$$$
