
     RDKit          3D

 31 34  0  0  0  0  0  0  0  0999 V2000
   44.5520   35.8940   44.7070 C   0  0  0  0  0  0  0  0  0  0  0  0
   45.1600   35.7270   43.4440 C   0  0  0  0  0  0  0  0  0  0  0  0
   46.0010   34.6110   43.2890 C   0  0  0  0  0  0  0  0  0  0  0  0
   46.1810   33.7680   44.3410 N   0  0  0  0  0  0  0  0  0  0  0  0
   45.5710   33.9730   45.5440 C   0  0  0  0  0  0  0  0  0  0  0  0
   44.7710   35.0230   45.7140 N   0  0  0  0  0  0  0  0  0  0  0  0
   45.7720   33.0810   46.6320 N   0  0  0  0  0  0  0  0  0  0  0  0
   46.8790   32.3100   46.5990 C   0  0  0  0  0  0  0  0  0  0  0  0
   46.8310   31.5430   47.7660 C   0  0  0  0  0  0  0  0  0  0  0  0
   45.7190   31.8640   48.4600 N   0  0  0  0  0  0  0  0  0  0  0  0
   45.0640   32.8070   47.7700 C   0  0  0  0  0  0  0  0  0  0  0  0
   47.8390   30.5470   48.1640 C   0  0  0  0  0  0  0  0  0  0  0  0
   47.8640   29.1970   47.8820 C   0  0  0  0  0  0  0  0  0  0  0  0
   48.9540   28.6140   48.4220 N   0  0  0  0  0  0  0  0  0  0  0  0
   49.6290   29.5980   49.0520 C   0  0  0  0  0  0  0  0  0  0  0  0
   50.8030   29.5500   49.7610 C   0  0  0  0  0  0  0  0  0  0  0  0
   51.3270   30.7120   50.3370 C   0  0  0  0  0  0  0  0  0  0  0  0
   50.6940   31.9380   50.2200 C   0  0  0  0  0  0  0  0  0  0  0  0
   49.5140   31.8940   49.4870 C   0  0  0  0  0  0  0  0  0  0  0  0
   48.9540   30.7920   48.9010 C   0  0  0  0  0  0  0  0  0  0  0  0
   43.8852   36.7528   44.8739 H   0  0  0  0  0  0  0  0  0  0  0  0
   44.9843   36.4355   42.6211 H   0  0  0  0  0  0  0  0  0  0  0  0
   46.5063   34.4223   42.3303 H   0  0  0  0  0  0  0  0  0  0  0  0
   47.6544   32.2896   45.8191 H   0  0  0  0  0  0  0  0  0  0  0  0
   44.1171   33.2808   48.0680 H   0  0  0  0  0  0  0  0  0  0  0  0
   47.0985   28.6674   47.2959 H   0  0  0  0  0  0  0  0  0  0  0  0
   49.2175   27.6199   48.3650 H   0  0  0  0  0  0  0  0  0  0  0  0
   51.3342   28.5937   49.8768 H   0  0  0  0  0  0  0  0  0  0  0  0
   52.2701   30.6500   50.8997 H   0  0  0  0  0  0  0  0  0  0  0  0
   51.0891   32.8624   50.6665 H   0  0  0  0  0  0  0  0  0  0  0  0
   48.9740   32.8446   49.3654 H   0  0  0  0  0  0  0  0  0  0  0  0
  1  6  2  0
  2  1  1  0
  3  2  2  0
  3  4  1  0
  4  5  2  0
  5  6  1  0
  5  7  1  0
  7 11  1  0
  8  7  1  0
  8  9  2  0
  9 12  1  0
  9 10  1  0
 11 10  2  0
 12 20  1  0
 13 12  2  0
 13 14  1  0
 14 15  1  0
 15 16  2  0
 16 17  1  0
 18 17  2  0
 19 18  1  0
 20 15  1  0
 20 19  2  0
  1 21  1  0
  2 22  1  0
  3 23  1  0
  8 24  1  0
 11 25  1  0
 13 26  1  0
 14 27  1  0
 16 28  1  0
 17 29  1  0
 18 30  1  0
 19 31  1  0
M  ISO  8  21  14  22  14  23  14  24  14  25  14  26  14  27   9  28  14
M  ISO  3  29  14  30  14  31  14
M  END
>  <minimizedAffinity>  (1) 
-6.184412

>  <minimizedRMSD>  (1) 
0.74712646

$$$$
