
     RDKit          3D

 31 34  0  0  0  0  0  0  0  0999 V2000
   44.6150   35.8310   44.8060 C   0  0  0  0  0  0  0  0  0  0  0  0
   45.1520   35.6250   43.5370 C   0  0  0  0  0  0  0  0  0  0  0  0
   45.9280   34.4550   43.3360 C   0  0  0  0  0  0  0  0  0  0  0  0
   46.1040   33.6070   44.3750 N   0  0  0  0  0  0  0  0  0  0  0  0
   45.5540   33.8580   45.6010 C   0  0  0  0  0  0  0  0  0  0  0  0
   44.8260   34.9470   45.8100 N   0  0  0  0  0  0  0  0  0  0  0  0
   45.7450   32.9530   46.6970 N   0  0  0  0  0  0  0  0  0  0  0  0
   46.7910   32.1130   46.6280 C   0  0  0  0  0  0  0  0  0  0  0  0
   46.7840   31.3430   47.7710 C   0  0  0  0  0  0  0  0  0  0  0  0
   45.7410   31.7360   48.4970 N   0  0  0  0  0  0  0  0  0  0  0  0
   45.1020   32.7120   47.8570 C   0  0  0  0  0  0  0  0  0  0  0  0
   47.8380   30.3180   47.9640 C   0  0  0  0  0  0  0  0  0  0  0  0
   47.7720   29.0760   47.4810 N   0  0  0  0  0  0  0  0  0  0  0  0
   48.6740   28.1180   47.6170 C   0  0  0  0  0  0  0  0  0  0  0  0
   49.8080   28.3920   48.3230 N   0  0  0  0  0  0  0  0  0  0  0  0
   49.9890   29.6150   48.8610 C   0  0  0  0  0  0  0  0  0  0  0  0
   51.1380   29.8780   49.5720 C   0  0  0  0  0  0  0  0  0  0  0  0
   51.3620   31.1100   50.1380 C   0  0  0  0  0  0  0  0  0  0  0  0
   50.3660   32.0690   49.9510 C   0  0  0  0  0  0  0  0  0  0  0  0
   49.2390   31.7660   49.2390 C   0  0  0  0  0  0  0  0  0  0  0  0
   48.9930   30.5440   48.6640 C   0  0  0  0  0  0  0  0  0  0  0  0
   44.0082   36.7286   44.9960 H   0  0  0  0  0  0  0  0  0  0  0  0
   44.9805   36.3430   42.7215 H   0  0  0  0  0  0  0  0  0  0  0  0
   46.3776   34.2415   42.3550 H   0  0  0  0  0  0  0  0  0  0  0  0
   47.5211   32.0509   45.8076 H   0  0  0  0  0  0  0  0  0  0  0  0
   44.2018   33.2337   48.2139 H   0  0  0  0  0  0  0  0  0  0  0  0
   48.5133   27.1251   47.1717 H   0  0  0  0  0  0  0  0  0  0  0  0
   51.8922   29.0859   49.6895 H   0  0  0  0  0  0  0  0  0  0  0  0
   52.2772   31.3283   50.7078 H   0  0  0  0  0  0  0  0  0  0  0  0
   50.4883   33.0749   50.3790 H   0  0  0  0  0  0  0  0  0  0  0  0
   48.4797   32.5528   49.1190 H   0  0  0  0  0  0  0  0  0  0  0  0
  1  6  2  0
  2  1  1  0
  3  2  2  0
  3  4  1  0
  4  5  2  0
  5  6  1  0
  5  7  1  0
  7 11  1  0
  8  7  1  0
  8  9  2  0
  9 12  1  0
  9 10  1  0
 11 10  2  0
 12 21  2  0
 13 14  2  0
 13 12  1  0
 14 15  1  0
 15 16  2  0
 16 17  1  0
 17 18  2  0
 19 18  1  0
 20 19  2  0
 21 16  1  0
 21 20  1  0
  1 22  1  0
  2 23  1  0
  3 24  1  0
  8 25  1  0
 11 26  1  0
 14 27  1  0
 17 28  1  0
 18 29  1  0
 19 30  1  0
 20 31  1  0
M  ISO  8  22  14  23  14  24  14  25  14  26  14  27  14  28  14  29  14
M  ISO  2  30  14  31  14
M  END
>  <minimizedAffinity>  (1) 
-6.04071665

>  <minimizedRMSD>  (1) 
0.629469097

$$$$
