
     RDKit          3D

 30 33  0  0  0  0  0  0  0  0999 V2000
   44.5290   35.8530   44.7440 C   0  0  0  0  0  0  0  0  0  0  0  0
   45.1270   35.7170   43.4900 C   0  0  0  0  0  0  0  0  0  0  0  0
   46.0010   34.6200   43.3050 C   0  0  0  0  0  0  0  0  0  0  0  0
   46.2020   33.7730   44.3440 N   0  0  0  0  0  0  0  0  0  0  0  0
   45.5950   33.9470   45.5540 C   0  0  0  0  0  0  0  0  0  0  0  0
   44.7690   34.9760   45.7410 N   0  0  0  0  0  0  0  0  0  0  0  0
   45.8110   33.0540   46.6420 N   0  0  0  0  0  0  0  0  0  0  0  0
   46.9570   32.3210   46.5960 C   0  0  0  0  0  0  0  0  0  0  0  0
   46.9360   31.5360   47.7550 C   0  0  0  0  0  0  0  0  0  0  0  0
   45.8210   31.8030   48.4490 N   0  0  0  0  0  0  0  0  0  0  0  0
   45.1350   32.7300   47.7670 C   0  0  0  0  0  0  0  0  0  0  0  0
   47.9640   30.5960   48.1250 N   0  0  0  0  0  0  0  0  0  0  0  0
   47.9950   29.3000   47.7450 C   0  0  0  0  0  0  0  0  0  0  0  0
   49.0990   28.7660   48.2890 N   0  0  0  0  0  0  0  0  0  0  0  0
   49.7640   29.6950   49.0030 C   0  0  0  0  0  0  0  0  0  0  0  0
   50.9250   29.5880   49.7140 C   0  0  0  0  0  0  0  0  0  0  0  0
   51.3450   30.7170   50.3330 N   0  0  0  0  0  0  0  0  0  0  0  0
   50.6360   31.8580   50.2300 C   0  0  0  0  0  0  0  0  0  0  0  0
   49.4940   31.9750   49.5330 N   0  0  0  0  0  0  0  0  0  0  0  0
   49.0330   30.8700   48.8960 C   0  0  0  0  0  0  0  0  0  0  0  0
   51.6410   28.3610   49.7950 N   0  0  0  0  0  0  0  0  0  0  0  0
   43.8453   36.6958   44.9238 H   0  0  0  0  0  0  0  0  0  0  0  0
   44.9270   36.4331   42.6793 H   0  0  0  0  0  0  0  0  0  0  0  0
   46.5054   34.4583   42.3409 H   0  0  0  0  0  0  0  0  0  0  0  0
   47.7325   32.3411   45.8162 H   0  0  0  0  0  0  0  0  0  0  0  0
   44.1708   33.1608   48.0748 H   0  0  0  0  0  0  0  0  0  0  0  0
   47.2583   28.7831   47.1125 H   0  0  0  0  0  0  0  0  0  0  0  0
   51.0164   32.7499   50.7495 H   0  0  0  0  0  0  0  0  0  0  0  0
   52.5143   28.3093   50.3387 H   0  0  0  0  0  0  0  0  0  0  0  0
   51.2860   27.5246   49.3100 H   0  0  0  0  0  0  0  0  0  0  0  0
  1  6  2  0
  2  1  1  0
  3  2  2  0
  3  4  1  0
  4  5  2  0
  5  6  1  0
  5  7  1  0
  7 11  1  0
  8  7  1  0
  8  9  2  0
  9 12  1  0
  9 10  1  0
 11 10  2  0
 12 20  1  0
 13 12  1  0
 13 14  2  0
 14 15  1  0
 15 16  2  0
 16 21  1  0
 16 17  1  0
 18 17  2  0
 19 18  1  0
 20 15  1  0
 20 19  2  0
  1 22  1  0
  2 23  1  0
  3 24  1  0
  8 25  1  0
 11 26  1  0
 13 27  1  0
 18 28  1  0
 21 29  1  0
 21 30  1  0
M  ISO  7  22  14  23  14  24  14  25  14  26  14  27  14  28  14
M  END
>  <minimizedAffinity>  (1) 
-5.93577814

>  <minimizedRMSD>  (1) 
0.467787027

$$$$
