
     RDKit          3D

 28 31  0  0  0  0  0  0  0  0999 V2000
   44.5310   35.8490   44.7340 C   0  0  0  0  0  0  0  0  0  0  0  0
   45.1400   35.7130   43.4850 C   0  0  0  0  0  0  0  0  0  0  0  0
   46.0140   34.6300   43.3010 C   0  0  0  0  0  0  0  0  0  0  0  0
   46.2130   33.7850   44.3450 N   0  0  0  0  0  0  0  0  0  0  0  0
   45.6080   33.9470   45.5430 C   0  0  0  0  0  0  0  0  0  0  0  0
   44.7720   34.9680   45.7410 N   0  0  0  0  0  0  0  0  0  0  0  0
   45.8320   33.0460   46.6260 N   0  0  0  0  0  0  0  0  0  0  0  0
   46.9530   32.2850   46.5650 C   0  0  0  0  0  0  0  0  0  0  0  0
   46.9490   31.5080   47.7070 C   0  0  0  0  0  0  0  0  0  0  0  0
   45.8630   31.7950   48.4270 N   0  0  0  0  0  0  0  0  0  0  0  0
   45.1600   32.7430   47.7770 C   0  0  0  0  0  0  0  0  0  0  0  0
   47.9450   30.5400   48.0790 N   0  0  0  0  0  0  0  0  0  0  0  0
   48.0080   29.2490   47.6900 C   0  0  0  0  0  0  0  0  0  0  0  0
   49.0540   28.6260   48.2150 N   0  0  0  0  0  0  0  0  0  0  0  0
   49.6970   29.5460   48.9730 C   0  0  0  0  0  0  0  0  0  0  0  0
   50.8380   29.5010   49.7580 C   0  0  0  0  0  0  0  0  0  0  0  0
   51.2600   30.5780   50.4140 N   0  0  0  0  0  0  0  0  0  0  0  0
   50.5380   31.7300   50.2960 C   0  0  0  0  0  0  0  0  0  0  0  0
   49.4160   31.8210   49.5400 N   0  0  0  0  0  0  0  0  0  0  0  0
   48.9900   30.7210   48.8720 C   0  0  0  0  0  0  0  0  0  0  0  0
   43.8407   36.6878   44.9071 H   0  0  0  0  0  0  0  0  0  0  0  0
   44.9420   36.4291   42.6739 H   0  0  0  0  0  0  0  0  0  0  0  0
   46.5229   34.4706   42.3389 H   0  0  0  0  0  0  0  0  0  0  0  0
   47.7112   32.2863   45.7681 H   0  0  0  0  0  0  0  0  0  0  0  0
   44.2140   33.1929   48.1128 H   0  0  0  0  0  0  0  0  0  0  0  0
   47.2794   28.7714   47.0184 H   0  0  0  0  0  0  0  0  0  0  0  0
   51.4029   28.5607   49.8397 H   0  0  0  0  0  0  0  0  0  0  0  0
   50.8812   32.6237   50.8378 H   0  0  0  0  0  0  0  0  0  0  0  0
  1  6  2  0
  2  1  1  0
  3  2  2  0
  3  4  1  0
  4  5  2  0
  5  6  1  0
  5  7  1  0
  7 11  1  0
  8  7  1  0
  8  9  2  0
  9 12  1  0
  9 10  1  0
 11 10  2  0
 12 20  1  0
 13 12  1  0
 13 14  2  0
 14 15  1  0
 15 16  2  0
 16 17  1  0
 18 17  2  0
 19 18  1  0
 20 15  1  0
 20 19  2  0
  1 21  1  0
  2 22  1  0
  3 23  1  0
  8 24  1  0
 11 25  1  0
 13 26  1  0
 16 27  1  0
 18 28  1  0
M  ISO  8  21  14  22  14  23  14  24  14  25  14  26  14  27  14  28  14
M  END
>  <minimizedAffinity>  (1) 
-5.84368896

>  <minimizedRMSD>  (1) 
0.639831841

$$$$
