
     RDKit          3D

 28 30  0  0  0  0  0  0  0  0999 V2000
   44.4890   35.8440   44.6430 C   0  0  0  0  0  0  0  0  0  0  0  0
   45.1750   35.7270   43.4350 C   0  0  0  0  0  0  0  0  0  0  0  0
   46.1190   34.6990   43.3210 C   0  0  0  0  0  0  0  0  0  0  0  0
   46.3300   33.8680   44.3740 N   0  0  0  0  0  0  0  0  0  0  0  0
   45.6510   34.0070   45.5280 C   0  0  0  0  0  0  0  0  0  0  0  0
   44.7530   34.9800   45.6440 N   0  0  0  0  0  0  0  0  0  0  0  0
   45.8520   33.1490   46.6480 N   0  0  0  0  0  0  0  0  0  0  0  0
   47.0250   32.4700   46.6860 C   0  0  0  0  0  0  0  0  0  0  0  0
   46.9940   31.7130   47.8480 C   0  0  0  0  0  0  0  0  0  0  0  0
   45.8410   31.9380   48.4770 N   0  0  0  0  0  0  0  0  0  0  0  0
   45.1340   32.8150   47.7510 C   0  0  0  0  0  0  0  0  0  0  0  0
   47.9810   30.8300   48.3500 N   0  0  0  0  0  0  0  0  0  0  0  0
   48.7760   31.3160   49.3220 C   0  0  0  0  0  0  0  0  0  0  0  0
   49.7640   30.4860   49.8510 C   0  0  0  0  0  0  0  0  0  0  0  0
   49.8860   29.1980   49.3550 C   0  0  0  0  0  0  0  0  0  0  0  0
   50.9060   28.3780   49.9190 N   0  0  0  0  0  0  0  0  0  0  0  0
   49.0610   28.7450   48.3710 N   0  0  0  0  0  0  0  0  0  0  0  0
   48.1010   29.5730   47.8680 C   0  0  0  0  0  0  0  0  0  0  0  0
   47.3160   29.1930   46.9550 O   0  0  0  0  0  0  0  0  0  0  0  0
   43.7375   36.6357   44.7786 H   0  0  0  0  0  0  0  0  0  0  0  0
   44.9816   36.4177   42.6010 H   0  0  0  0  0  0  0  0  0  0  0  0
   46.6845   34.5659   42.3869 H   0  0  0  0  0  0  0  0  0  0  0  0
   47.8371   32.5111   45.9451 H   0  0  0  0  0  0  0  0  0  0  0  0
   44.1361   33.2008   48.0066 H   0  0  0  0  0  0  0  0  0  0  0  0
   48.6490   32.3446   49.6905 H   0  0  0  0  0  0  0  0  0  0  0  0
   50.4331   30.8467   50.6461 H   0  0  0  0  0  0  0  0  0  0  0  0
   51.0355   27.4130   49.5830 H   0  0  0  0  0  0  0  0  0  0  0  0
   51.5137   28.7503   50.6626 H   0  0  0  0  0  0  0  0  0  0  0  0
  1  6  2  0
  2  1  1  0
  3  2  2  0
  3  4  1  0
  4  5  2  0
  5  6  1  0
  5  7  1  0
  7  8  1  0
  7 11  1  0
  8  9  2  0
  9 12  1  0
  9 10  1  0
 11 10  2  0
 12 13  1  0
 13 14  2  0
 15 14  1  0
 15 16  1  0
 17 15  2  0
 18 12  1  0
 18 17  1  0
 19 18  2  0
  1 20  1  0
  2 21  1  0
  3 22  1  0
  8 23  1  0
 11 24  1  0
 13 25  1  0
 14 26  1  0
 16 27  1  0
 16 28  1  0
M  ISO  7  20  14  21  14  22  14  23  14  24  14  25  14  26  14
M  END
>  <minimizedAffinity>  (1) 
-5.66189909

>  <minimizedRMSD>  (1) 
0.76904875

$$$$
