
     RDKit          3D

 25 27  0  0  0  0  0  0  0  0999 V2000
   44.5550   35.7590   44.6710 C   0  0  0  0  0  0  0  0  0  0  0  0
   45.2440   35.6150   43.4660 C   0  0  0  0  0  0  0  0  0  0  0  0
   46.1740   34.5620   43.3850 C   0  0  0  0  0  0  0  0  0  0  0  0
   46.3380   33.7670   44.4680 N   0  0  0  0  0  0  0  0  0  0  0  0
   45.6550   33.9350   45.6150 C   0  0  0  0  0  0  0  0  0  0  0  0
   44.7600   34.9340   45.7180 N   0  0  0  0  0  0  0  0  0  0  0  0
   45.8300   33.0930   46.7570 N   0  0  0  0  0  0  0  0  0  0  0  0
   46.9830   32.4030   46.8030 C   0  0  0  0  0  0  0  0  0  0  0  0
   46.9420   31.6630   47.9790 C   0  0  0  0  0  0  0  0  0  0  0  0
   45.7810   31.9210   48.6070 N   0  0  0  0  0  0  0  0  0  0  0  0
   45.1040   32.7920   47.8610 C   0  0  0  0  0  0  0  0  0  0  0  0
   47.9720   30.7520   48.4730 C   0  0  0  0  0  0  0  0  0  0  0  0
   48.2810   29.5910   47.8270 C   0  0  0  0  0  0  0  0  0  0  0  0
   49.2500   28.7240   48.2820 C   0  0  0  0  0  0  0  0  0  0  0  0
   49.9110   29.0560   49.4200 N   0  0  0  0  0  0  0  0  0  0  0  0
   49.6120   30.1960   50.0600 C   0  0  0  0  0  0  0  0  0  0  0  0
   48.6610   31.0270   49.5940 N   0  0  0  0  0  0  0  0  0  0  0  0
   43.8207   36.5720   44.7701 H   0  0  0  0  0  0  0  0  0  0  0  0
   45.0682   36.2936   42.6183 H   0  0  0  0  0  0  0  0  0  0  0  0
   46.7526   34.3895   42.4655 H   0  0  0  0  0  0  0  0  0  0  0  0
   47.7944   32.4205   46.0605 H   0  0  0  0  0  0  0  0  0  0  0  0
   44.1124   33.2022   48.1027 H   0  0  0  0  0  0  0  0  0  0  0  0
   47.7349   29.3371   46.9065 H   0  0  0  0  0  0  0  0  0  0  0  0
   49.4803   27.7941   47.7413 H   0  0  0  0  0  0  0  0  0  0  0  0
   50.1532   30.4565   50.9816 H   0  0  0  0  0  0  0  0  0  0  0  0
  1  6  2  0
  2  1  1  0
  3  2  2  0
  3  4  1  0
  4  5  2  0
  5  6  1  0
  5  7  1  0
  7  8  1  0
  7 11  1  0
  8  9  2  0
  9 12  1  0
  9 10  1  0
 11 10  2  0
 12 17  2  0
 13 14  2  0
 13 12  1  0
 14 15  1  0
 15 16  2  0
 17 16  1  0
  1 18  1  0
  2 19  1  0
  3 20  1  0
  8 21  1  0
 11 22  1  0
 13 23  1  0
 14 24  1  0
 16 25  1  0
M  ISO  8  18  14  19  14  20  14  21  14  22  14  23  14  24  14  25  14
M  END
>  <minimizedAffinity>  (1) 
-5.43531179

>  <minimizedRMSD>  (1) 
0.743671119

$$$$
