
     RDKit          3D

 24 25  0  0  0  0  0  0  0  0999 V2000
   44.9230   35.1140   44.9280 C   0  0  0  0  0  0  0  0  0  0  0  0
   45.6630   34.8740   43.7720 C   0  0  0  0  0  0  0  0  0  0  0  0
   46.5700   33.8100   43.8090 C   0  0  0  0  0  0  0  0  0  0  0  0
   46.6910   33.0730   44.9410 N   0  0  0  0  0  0  0  0  0  0  0  0
   45.9410   33.3490   46.0490 C   0  0  0  0  0  0  0  0  0  0  0  0
   45.0660   34.3560   46.0490 N   0  0  0  0  0  0  0  0  0  0  0  0
   46.0660   32.5770   47.2400 N   0  0  0  0  0  0  0  0  0  0  0  0
   47.2230   31.8760   47.3950 C   0  0  0  0  0  0  0  0  0  0  0  0
   47.1060   31.2130   48.6170 C   0  0  0  0  0  0  0  0  0  0  0  0
   45.9260   31.5180   49.1490 N   0  0  0  0  0  0  0  0  0  0  0  0
   45.2860   32.3440   48.3250 C   0  0  0  0  0  0  0  0  0  0  0  0
   48.1410   30.3550   49.1400 N   0  0  0  0  0  0  0  0  0  0  0  0
   49.2130   30.9350   49.8470 C   0  0  0  0  0  0  0  0  0  0  0  0
   49.7170   32.0590   49.4870 N   0  0  0  0  0  0  0  0  0  0  0  0
   49.7610   30.2550   50.9950 N   0  0  0  0  0  0  0  0  0  0  0  0
   49.3410   32.5650   48.6630 H   0  0  0  0  0  0  0  0  0  0  0  0
   44.1999   35.9429   44.9346 H   0  0  0  0  0  0  0  0  0  0  0  0
   45.5395   35.4932   42.8713 H   0  0  0  0  0  0  0  0  0  0  0  0
   47.1812   33.5725   42.9258 H   0  0  0  0  0  0  0  0  0  0  0  0
   48.0747   31.8399   46.6998 H   0  0  0  0  0  0  0  0  0  0  0  0
   44.2860   32.7691   48.4961 H   0  0  0  0  0  0  0  0  0  0  0  0
   48.0971   29.3356   48.9990 H   0  0  0  0  0  0  0  0  0  0  0  0
   50.5446   30.6737   51.5160 H   0  0  0  0  0  0  0  0  0  0  0  0
   49.3687   29.3507   51.2937 H   0  0  0  0  0  0  0  0  0  0  0  0
  1  6  2  0
  2  3  2  0
  2  1  1  0
  3  4  1  0
  4  5  2  0
  5  6  1  0
  5  7  1  0
  7  8  1  0
  7 11  1  0
  8  9  2  0
  9 12  1  0
  9 10  1  0
 11 10  2  0
 12 13  1  0
 13 15  1  0
 14 13  2  0
 16 14  1  0
  1 17  1  0
  2 18  1  0
  3 19  1  0
  8 20  1  0
 11 21  1  0
 12 22  1  0
 15 23  1  0
 15 24  1  0
M  ISO  5  17  14  18  14  19  14  20  14  21  14
M  END
>  <minimizedAffinity>  (1) 
-5.25707626

>  <minimizedRMSD>  (1) 
1.34214211

$$$$
