
     RDKit          3D

 23 25  0  0  0  0  0  0  0  0999 V2000
   44.5480   35.7400   44.6550 C   0  0  0  0  0  0  0  0  0  0  0  0
   45.2580   35.5930   43.4650 C   0  0  0  0  0  0  0  0  0  0  0  0
   46.2000   34.5550   43.4130 C   0  0  0  0  0  0  0  0  0  0  0  0
   46.3950   33.7420   44.4870 N   0  0  0  0  0  0  0  0  0  0  0  0
   45.6700   33.9320   45.6300 C   0  0  0  0  0  0  0  0  0  0  0  0
   44.7710   34.9100   45.7040 N   0  0  0  0  0  0  0  0  0  0  0  0
   45.8390   33.1070   46.7770 N   0  0  0  0  0  0  0  0  0  0  0  0
   46.9910   32.4300   46.8610 C   0  0  0  0  0  0  0  0  0  0  0  0
   46.9790   31.6900   48.0260 C   0  0  0  0  0  0  0  0  0  0  0  0
   45.7960   31.9460   48.6310 N   0  0  0  0  0  0  0  0  0  0  0  0
   45.1140   32.8010   47.8720 C   0  0  0  0  0  0  0  0  0  0  0  0
   48.0550   30.7950   48.5150 C   0  0  0  0  0  0  0  0  0  0  0  0
   48.4410   29.6990   47.7650 C   0  0  0  0  0  0  0  0  0  0  0  0
   49.7970   28.9260   48.8110 S   0  0  0  0  0  0  0  0  0  0  0  0
   49.5510   30.2980   50.0970 C   0  0  0  0  0  0  0  0  0  0  0  0
   48.7290   30.9190   49.6450 N   0  0  0  0  0  0  0  0  0  0  0  0
   43.7974   36.5391   44.7446 H   0  0  0  0  0  0  0  0  0  0  0  0
   45.0877   36.2596   42.6067 H   0  0  0  0  0  0  0  0  0  0  0  0
   46.7864   34.3966   42.4959 H   0  0  0  0  0  0  0  0  0  0  0  0
   47.8088   32.4587   46.1259 H   0  0  0  0  0  0  0  0  0  0  0  0
   44.1138   33.1966   48.1024 H   0  0  0  0  0  0  0  0  0  0  0  0
   48.0498   29.3622   46.7936 H   0  0  0  0  0  0  0  0  0  0  0  0
   50.0808   30.4492   51.0491 H   0  0  0  0  0  0  0  0  0  0  0  0
  1  6  2  0
  2  1  1  0
  3  2  2  0
  3  4  1  0
  4  5  2  0
  5  6  1  0
  5  7  1  0
  7  8  1  0
  7 11  1  0
  8  9  2  0
  9 12  1  0
  9 10  1  0
 11 10  2  0
 12 16  1  0
 13 12  2  0
 13 14  1  0
 14 15  1  0
 16 15  2  0
  1 17  1  0
  2 18  1  0
  3 19  1  0
  8 20  1  0
 11 21  1  0
 13 22  1  0
 15 23  1  0
M  ISO  7  17  14  18  14  19  14  20  14  21  14  22  14  23  14
M  END
>  <minimizedAffinity>  (1) 
-5.27132177

>  <minimizedRMSD>  (1) 
0.321248859

$$$$
