
     RDKit          3D

 24 26  0  0  0  0  0  0  0  0999 V2000
   44.5300   35.7610   44.6290 C   0  0  0  0  0  0  0  0  0  0  0  0
   45.2640   35.5920   43.4340 C   0  0  0  0  0  0  0  0  0  0  0  0
   46.2200   34.5460   43.3950 C   0  0  0  0  0  0  0  0  0  0  0  0
   46.3780   33.7700   44.4930 N   0  0  0  0  0  0  0  0  0  0  0  0
   45.6430   33.9740   45.6250 C   0  0  0  0  0  0  0  0  0  0  0  0
   44.7390   34.9460   45.6950 N   0  0  0  0  0  0  0  0  0  0  0  0
   45.8220   33.1460   46.7770 N   0  0  0  0  0  0  0  0  0  0  0  0
   46.9990   32.4690   46.8630 C   0  0  0  0  0  0  0  0  0  0  0  0
   46.9010   31.7540   48.0610 C   0  0  0  0  0  0  0  0  0  0  0  0
   45.7350   31.9950   48.6450 N   0  0  0  0  0  0  0  0  0  0  0  0
   45.0690   32.8460   47.8680 C   0  0  0  0  0  0  0  0  0  0  0  0
   47.9680   30.8820   48.5390 C   0  0  0  0  0  0  0  0  0  0  0  0
   48.9040   30.9670   49.5710 C   0  0  0  0  0  0  0  0  0  0  0  0
   49.7520   29.9160   49.6920 C   0  0  0  0  0  0  0  0  0  0  0  0
   49.7490   28.7960   48.8810 C   0  0  0  0  0  0  0  0  0  0  0  0
   48.2950   29.2640   47.7100 S   0  0  0  0  0  0  0  0  0  0  0  0
   43.7799   36.5627   44.6970 H   0  0  0  0  0  0  0  0  0  0  0  0
   45.0999   36.2476   42.5661 H   0  0  0  0  0  0  0  0  0  0  0  0
   46.8211   34.3685   42.4911 H   0  0  0  0  0  0  0  0  0  0  0  0
   47.8378   32.4812   46.1514 H   0  0  0  0  0  0  0  0  0  0  0  0
   44.0652   33.2446   48.0764 H   0  0  0  0  0  0  0  0  0  0  0  0
   48.9508   31.8346   50.2456 H   0  0  0  0  0  0  0  0  0  0  0  0
   50.5001   29.9575   50.4974 H   0  0  0  0  0  0  0  0  0  0  0  0
   50.3889   27.9014   48.8996 H   0  0  0  0  0  0  0  0  0  0  0  0
  1  6  2  0
  2  1  1  0
  3  2  2  0
  3  4  1  0
  4  5  2  0
  5  6  1  0
  5  7  1  0
  7  8  1  0
  7 11  1  0
  8  9  2  0
  9 12  1  0
  9 10  1  0
 11 10  2  0
 12 13  2  0
 13 14  1  0
 15 14  2  0
 16 12  1  0
 16 15  1  0
  1 17  1  0
  2 18  1  0
  3 19  1  0
  8 20  1  0
 11 21  1  0
 13 22  1  0
 14 23  1  0
 15 24  1  0
M  ISO  8  17  14  18  14  19  14  20  14  21  14  22  14  23  14  24  14
M  END
>  <minimizedAffinity>  (1) 
-5.23827362

>  <minimizedRMSD>  (1) 
0.222888246

$$$$
