
     RDKit          3D

 31 33  0  0  0  0  0  0  0  0999 V2000
   44.3720   35.8580   44.6760 C   0  0  0  0  0  0  0  0  0  0  0  0
   45.0010   35.8030   43.4260 C   0  0  0  0  0  0  0  0  0  0  0  0
   45.9880   34.8190   43.2480 C   0  0  0  0  0  0  0  0  0  0  0  0
   46.2870   33.9810   44.2710 N   0  0  0  0  0  0  0  0  0  0  0  0
   45.6450   34.0750   45.4730 C   0  0  0  0  0  0  0  0  0  0  0  0
   44.7070   34.9970   45.6680 N   0  0  0  0  0  0  0  0  0  0  0  0
   45.9520   33.1970   46.5560 N   0  0  0  0  0  0  0  0  0  0  0  0
   47.1590   32.5680   46.5020 C   0  0  0  0  0  0  0  0  0  0  0  0
   47.2370   31.7820   47.6380 C   0  0  0  0  0  0  0  0  0  0  0  0
   46.1000   31.9430   48.3490 N   0  0  0  0  0  0  0  0  0  0  0  0
   45.3290   32.8020   47.6850 C   0  0  0  0  0  0  0  0  0  0  0  0
   48.3340   30.9270   48.0220 N   0  0  0  0  0  0  0  0  0  0  0  0
   48.6930   29.7970   47.2000 C   0  0  0  0  0  0  0  0  0  0  0  0
   49.4250   28.7330   47.9640 C   0  0  0  0  0  0  0  0  0  0  0  0
   49.1490   28.8040   49.3870 N   0  0  0  0  0  0  0  0  0  0  0  0
   49.6750   30.0440   49.9010 C   0  0  0  0  0  0  0  0  0  0  0  0
   49.0530   31.2400   49.2460 C   0  0  0  0  0  0  0  0  0  0  0  0
   43.5925   36.6130   44.8560 H   0  0  0  0  0  0  0  0  0  0  0  0
   44.7338   36.5002   42.6182 H   0  0  0  0  0  0  0  0  0  0  0  0
   46.5140   34.7292   42.2861 H   0  0  0  0  0  0  0  0  0  0  0  0
   47.9194   32.6654   45.7132 H   0  0  0  0  0  0  0  0  0  0  0  0
   44.3332   33.1389   48.0088 H   0  0  0  0  0  0  0  0  0  0  0  0
   49.3378   30.1485   46.3811 H   0  0  0  0  0  0  0  0  0  0  0  0
   47.7606   29.3521   46.8221 H   0  0  0  0  0  0  0  0  0  0  0  0
   49.1124   27.7471   47.5895 H   0  0  0  0  0  0  0  0  0  0  0  0
   50.5041   28.8881   47.8171 H   0  0  0  0  0  0  0  0  0  0  0  0
   48.1318   28.7677   49.5446 H   0  0  0  0  0  0  0  0  0  0  0  0
   49.4785   30.0906   50.9823 H   0  0  0  0  0  0  0  0  0  0  0  0
   50.7539   30.0663   49.6878 H   0  0  0  0  0  0  0  0  0  0  0  0
   49.8504   31.9589   49.0064 H   0  0  0  0  0  0  0  0  0  0  0  0
   48.3184   31.6496   49.9550 H   0  0  0  0  0  0  0  0  0  0  0  0
  1  6  2  0
  2  1  1  0
  3  2  2  0
  3  4  1  0
  4  5  2  0
  5  6  1  0
  5  7  1  0
  7 11  1  0
  8  7  1  0
  8  9  2  0
  9 12  1  0
  9 10  1  0
 11 10  2  0
 12 17  1  0
 13 14  1  0
 13 12  1  0
 14 15  1  0
 15 16  1  0
 17 16  1  0
  1 18  1  0
  2 19  1  0
  3 20  1  0
  8 21  1  0
 11 22  1  0
 13 23  1  0
 13 24  1  0
 14 25  1  0
 14 26  1  0
 15 27  1  0
 16 28  1  0
 16 29  1  0
 17 30  1  0
 17 31  1  0
M  ISO  8  18  14  19  14  20  14  21  14  22  14  23  13  24  13  25  13
M  ISO  6  26  13  27   5  28  13  29  13  30  13  31  13
M  END
>  <minimizedAffinity>  (1) 
-5.20410967

>  <minimizedRMSD>  (1) 
0.408172309

$$$$
