
     RDKit          3D

 24 26  0  0  0  0  0  0  0  0999 V2000
   44.5270   35.7120   44.6180 C   0  0  0  0  0  0  0  0  0  0  0  0
   45.2610   35.5610   43.4330 C   0  0  0  0  0  0  0  0  0  0  0  0
   46.2320   34.5530   43.3900 C   0  0  0  0  0  0  0  0  0  0  0  0
   46.3950   33.7930   44.4930 N   0  0  0  0  0  0  0  0  0  0  0  0
   45.6800   33.9510   45.6220 C   0  0  0  0  0  0  0  0  0  0  0  0
   44.7520   34.9020   45.6900 N   0  0  0  0  0  0  0  0  0  0  0  0
   45.8630   33.1420   46.7800 N   0  0  0  0  0  0  0  0  0  0  0  0
   47.0400   32.4880   46.8650 C   0  0  0  0  0  0  0  0  0  0  0  0
   47.0210   31.7670   48.0460 C   0  0  0  0  0  0  0  0  0  0  0  0
   45.8380   31.9950   48.6560 N   0  0  0  0  0  0  0  0  0  0  0  0
   45.1380   32.8300   47.8850 C   0  0  0  0  0  0  0  0  0  0  0  0
   48.0550   30.8960   48.6000 C   0  0  0  0  0  0  0  0  0  0  0  0
   48.5330   29.7260   48.0020 C   0  0  0  0  0  0  0  0  0  0  0  0
   49.5180   29.1480   48.8110 C   0  0  0  0  0  0  0  0  0  0  0  0
   49.5700   30.0350   49.8740 C   0  0  0  0  0  0  0  0  0  0  0  0
   48.7140   31.0130   49.7010 O   0  0  0  0  0  0  0  0  0  0  0  0
   43.7582   36.4960   44.6831 H   0  0  0  0  0  0  0  0  0  0  0  0
   45.0800   36.2129   42.5657 H   0  0  0  0  0  0  0  0  0  0  0  0
   46.8404   34.3866   42.4888 H   0  0  0  0  0  0  0  0  0  0  0  0
   47.8605   32.5216   46.1331 H   0  0  0  0  0  0  0  0  0  0  0  0
   44.1295   33.2072   48.1100 H   0  0  0  0  0  0  0  0  0  0  0  0
   48.1868   29.3206   47.0398 H   0  0  0  0  0  0  0  0  0  0  0  0
   50.0994   28.2289   48.6459 H   0  0  0  0  0  0  0  0  0  0  0  0
   50.2370   29.9329   50.7427 H   0  0  0  0  0  0  0  0  0  0  0  0
  1  6  2  0
  2  1  1  0
  3  2  2  0
  3  4  1  0
  4  5  2  0
  5  6  1  0
  5  7  1  0
  7  8  1  0
  7 11  1  0
  8  9  2  0
  9 12  1  0
  9 10  1  0
 11 10  2  0
 12 16  1  0
 13 12  2  0
 13 14  1  0
 14 15  2  0
 16 15  1  0
  1 17  1  0
  2 18  1  0
  3 19  1  0
  8 20  1  0
 11 21  1  0
 13 22  1  0
 14 23  1  0
 15 24  1  0
M  ISO  8  17  14  18  14  19  14  20  14  21  14  22  14  23  14  24  14
M  END
>  <minimizedAffinity>  (1) 
-5.23445034

>  <minimizedRMSD>  (1) 
0.662386

$$$$
