
     RDKit          3D

 19 20  0  0  0  0  0  0  0  0999 V2000
   44.5430   35.7410   44.6570 C   0  0  0  0  0  0  0  0  0  0  0  0
   45.2750   35.5670   43.4740 C   0  0  0  0  0  0  0  0  0  0  0  0
   46.2250   34.5160   43.4350 C   0  0  0  0  0  0  0  0  0  0  0  0
   46.3790   33.7390   44.5360 N   0  0  0  0  0  0  0  0  0  0  0  0
   45.6400   33.9530   45.6650 C   0  0  0  0  0  0  0  0  0  0  0  0
   44.7450   34.9320   45.7180 N   0  0  0  0  0  0  0  0  0  0  0  0
   45.8160   33.1230   46.8140 N   0  0  0  0  0  0  0  0  0  0  0  0
   46.9820   32.4310   46.9140 C   0  0  0  0  0  0  0  0  0  0  0  0
   46.8980   31.7220   48.0950 C   0  0  0  0  0  0  0  0  0  0  0  0
   45.7190   31.9790   48.6820 N   0  0  0  0  0  0  0  0  0  0  0  0
   45.0460   32.8410   47.9010 C   0  0  0  0  0  0  0  0  0  0  0  0
   47.8590   30.8390   48.6670 N   0  0  0  0  0  0  0  0  0  0  0  0
   43.7958   36.5458   44.7210 H   0  0  0  0  0  0  0  0  0  0  0  0
   45.1174   36.2238   42.6058 H   0  0  0  0  0  0  0  0  0  0  0  0
   46.8247   34.3343   42.5310 H   0  0  0  0  0  0  0  0  0  0  0  0
   47.8195   32.4353   46.2008 H   0  0  0  0  0  0  0  0  0  0  0  0
   44.0449   33.2488   48.1049 H   0  0  0  0  0  0  0  0  0  0  0  0
   47.6606   30.3730   49.5639 H   0  0  0  0  0  0  0  0  0  0  0  0
   48.7520   30.6667   48.1836 H   0  0  0  0  0  0  0  0  0  0  0  0
  1  6  2  0
  2  1  1  0
  3  2  2  0
  3  4  1  0
  4  5  2  0
  5  6  1  0
  5  7  1  0
  7  8  1  0
  7 11  1  0
  8  9  2  0
  9 12  1  0
  9 10  1  0
 11 10  2  0
  1 13  1  0
  2 14  1  0
  3 15  1  0
  8 16  1  0
 11 17  1  0
 12 18  1  0
 12 19  1  0
M  ISO  5  13  14  14  14  15  14  16  14  17  14
M  END
>  <minimizedAffinity>  (1) 
-4.43451405

>  <minimizedRMSD>  (1) 
0.172599494

$$$$
