
     RDKit          3D

 23 24  0  0  0  0  0  0  0  0999 V2000
   44.5630   35.7490   44.6890 C   0  0  0  0  0  0  0  0  0  0  0  0
   45.2540   35.5980   43.4730 C   0  0  0  0  0  0  0  0  0  0  0  0
   46.1750   34.5400   43.3950 C   0  0  0  0  0  0  0  0  0  0  0  0
   46.3470   33.7320   44.4770 N   0  0  0  0  0  0  0  0  0  0  0  0
   45.6490   33.9230   45.6360 C   0  0  0  0  0  0  0  0  0  0  0  0
   44.7680   34.9160   45.7480 N   0  0  0  0  0  0  0  0  0  0  0  0
   45.8450   33.0670   46.7550 N   0  0  0  0  0  0  0  0  0  0  0  0
   46.9980   32.3420   46.7930 C   0  0  0  0  0  0  0  0  0  0  0  0
   46.9360   31.6090   47.9610 C   0  0  0  0  0  0  0  0  0  0  0  0
   45.7930   31.8760   48.6070 N   0  0  0  0  0  0  0  0  0  0  0  0
   45.1090   32.7770   47.8710 C   0  0  0  0  0  0  0  0  0  0  0  0
   47.9570   30.6500   48.4750 C   0  0  0  0  0  0  0  0  0  0  0  0
   49.0390   31.4330   49.2260 C   0  0  0  0  0  0  0  0  0  0  0  0
   43.8333   36.5661   44.7884 H   0  0  0  0  0  0  0  0  0  0  0  0
   45.0815   36.2758   42.6240 H   0  0  0  0  0  0  0  0  0  0  0  0
   46.7490   34.3670   42.4727 H   0  0  0  0  0  0  0  0  0  0  0  0
   47.8082   32.3410   46.0490 H   0  0  0  0  0  0  0  0  0  0  0  0
   44.1279   33.2048   48.1250 H   0  0  0  0  0  0  0  0  0  0  0  0
   47.4789   29.9326   49.1582 H   0  0  0  0  0  0  0  0  0  0  0  0
   48.4088   30.1010   47.6357 H   0  0  0  0  0  0  0  0  0  0  0  0
   48.8861   31.3224   50.3097 H   0  0  0  0  0  0  0  0  0  0  0  0
   50.0304   31.0418   48.9537 H   0  0  0  0  0  0  0  0  0  0  0  0
   48.9773   32.4970   48.9537 H   0  0  0  0  0  0  0  0  0  0  0  0
  1  6  2  0
  2  1  1  0
  3  2  2  0
  3  4  1  0
  4  5  2  0
  5  6  1  0
  5  7  1  0
  7  8  1  0
  7 11  1  0
  8  9  2  0
  9 12  1  0
  9 10  1  0
 11 10  2  0
 12 13  1  0
  1 14  1  0
  2 15  1  0
  3 16  1  0
  8 17  1  0
 11 18  1  0
 12 19  1  0
 12 20  1  0
 13 21  1  0
 13 22  1  0
 13 23  1  0
M  ISO  8  14  14  15  14  16  14  17  14  18  14  19   8  20   8  21   8
M  ISO  2  22   8  23   8
M  END
>  <minimizedAffinity>  (1) 
-4.66655302

>  <minimizedRMSD>  (1) 
0.576797605

$$$$
