
     RDKit          3D

 43 47  0  0  0  0  0  0  0  0999 V2000
   47.9470   30.8000   48.3160 C   0  0  0  0  0  0  0  0  0  0  0  0
   48.6540   31.1370   49.4540 C   0  0  0  0  0  0  0  0  0  0  0  0
   49.6330   30.3030   49.9570 C   0  0  0  0  0  0  0  0  0  0  0  0
   49.8940   29.1090   49.2890 C   0  0  0  0  0  0  0  0  0  0  0  0
   49.1830   28.7840   48.1550 C   0  0  0  0  0  0  0  0  0  0  0  0
   48.2070   29.6250   47.6610 C   0  0  0  0  0  0  0  0  0  0  0  0
   44.4850   35.8740   44.6500 C   0  0  0  0  0  0  0  0  0  0  0  0
   45.2050   35.7600   43.4410 C   0  0  0  0  0  0  0  0  0  0  0  0
   46.1610   34.7310   43.3230 C   0  0  0  0  0  0  0  0  0  0  0  0
   46.3340   33.9140   44.3710 N   0  0  0  0  0  0  0  0  0  0  0  0
   45.6340   34.0400   45.5200 C   0  0  0  0  0  0  0  0  0  0  0  0
   44.7240   35.0030   45.6590 N   0  0  0  0  0  0  0  0  0  0  0  0
   45.8170   33.1620   46.6330 N   0  0  0  0  0  0  0  0  0  0  0  0
   46.9820   32.4850   46.6720 C   0  0  0  0  0  0  0  0  0  0  0  0
   46.9270   31.7110   47.8230 C   0  0  0  0  0  0  0  0  0  0  0  0
   45.7510   31.9310   48.4470 N   0  0  0  0  0  0  0  0  0  0  0  0
   45.0740   32.8120   47.7270 C   0  0  0  0  0  0  0  0  0  0  0  0
   47.5010   29.2030   46.4580 C   0  0  0  0  0  0  0  0  0  0  0  0
   48.0210   29.4940   45.2140 C   0  0  0  0  0  0  0  0  0  0  0  0
   47.4410   29.1490   44.0160 C   0  0  0  0  0  0  0  0  0  0  0  0
   46.2370   28.4520   44.1000 C   0  0  0  0  0  0  0  0  0  0  0  0
   45.6650   28.1310   45.2960 C   0  0  0  0  0  0  0  0  0  0  0  0
   44.4580   27.4330   45.3760 C   0  0  0  0  0  0  0  0  0  0  0  0
   43.9320   27.1380   46.6070 C   0  0  0  0  0  0  0  0  0  0  0  0
   44.5630   27.5130   47.7610 C   0  0  0  0  0  0  0  0  0  0  0  0
   45.7520   28.2010   47.6780 C   0  0  0  0  0  0  0  0  0  0  0  0
   46.2960   28.5050   46.4660 C   0  0  0  0  0  0  0  0  0  0  0  0
   48.4337   32.0845   49.9675 H   0  0  0  0  0  0  0  0  0  0  0  0
   50.1933   30.5752   50.8636 H   0  0  0  0  0  0  0  0  0  0  0  0
   50.6683   28.4253   49.6672 H   0  0  0  0  0  0  0  0  0  0  0  0
   49.3967   27.8387   47.6347 H   0  0  0  0  0  0  0  0  0  0  0  0
   43.7328   36.6673   44.7719 H   0  0  0  0  0  0  0  0  0  0  0  0
   45.0241   36.4580   42.6103 H   0  0  0  0  0  0  0  0  0  0  0  0
   46.7462   34.6027   42.4004 H   0  0  0  0  0  0  0  0  0  0  0  0
   47.8047   32.5354   45.9436 H   0  0  0  0  0  0  0  0  0  0  0  0
   44.0739   33.2005   47.9697 H   0  0  0  0  0  0  0  0  0  0  0  0
   48.9728   30.0443   45.1775 H   0  0  0  0  0  0  0  0  0  0  0  0
   47.8994   29.4074   43.0500 H   0  0  0  0  0  0  0  0  0  0  0  0
   45.7312   28.1507   43.1708 H   0  0  0  0  0  0  0  0  0  0  0  0
   43.9343   27.1228   44.4597 H   0  0  0  0  0  0  0  0  0  0  0  0
   42.9816   26.5876   46.6680 H   0  0  0  0  0  0  0  0  0  0  0  0
   44.1267   27.2684   48.7407 H   0  0  0  0  0  0  0  0  0  0  0  0
   46.2685   28.5086   48.5992 H   0  0  0  0  0  0  0  0  0  0  0  0
  1  2  2  0
  2  3  1  0
  4  3  2  0
  5  4  1  0
  6  5  2  0
  6  1  1  0
  7 12  2  0
  8  7  1  0
  9  8  2  0
  9 10  1  0
 10 11  2  0
 11 12  1  0
 11 13  1  0
 13 14  1  0
 13 17  1  0
 14 15  2  0
 15  1  1  0
 15 16  1  0
 17 16  2  0
 18 27  1  0
 18  6  1  0
 19 18  2  0
 20 21  2  0
 20 19  1  0
 21 22  1  0
 22 23  1  0
 22 27  2  0
 23 24  2  0
 24 25  1  0
 26 25  2  0
 27 26  1  0
  2 28  1  0
  3 29  1  0
  4 30  1  0
  5 31  1  0
  7 32  1  0
  8 33  1  0
  9 34  1  0
 14 35  1  0
 17 36  1  0
 19 37  1  0
 20 38  1  0
 21 39  1  0
 23 40  1  0
 24 41  1  0
 25 42  1  0
 26 43  1  0
M  ISO  8  28  14  29  14  30  14  31  14  32  14  33  14  34  14  35  14
M  ISO  8  36  14  37  14  38  14  39  14  40  14  41  14  42  14  43  14
M  END
>  <minimizedAffinity>  (1) 
-6.60633945

>  <minimizedRMSD>  (1) 
1.08468342

$$$$
