
     RDKit          3D

 36 39  0  0  0  0  0  0  0  0999 V2000
   47.8990   30.9820   48.2310 C   0  0  0  0  0  0  0  0  0  0  0  0
   48.8620   31.4630   49.1060 C   0  0  0  0  0  0  0  0  0  0  0  0
   49.8550   30.6380   49.5840 C   0  0  0  0  0  0  0  0  0  0  0  0
   49.8760   29.3120   49.1760 C   0  0  0  0  0  0  0  0  0  0  0  0
   48.9120   28.8330   48.3020 C   0  0  0  0  0  0  0  0  0  0  0  0
   47.9080   29.6570   47.8150 C   0  0  0  0  0  0  0  0  0  0  0  0
   44.4710   36.0020   44.4660 C   0  0  0  0  0  0  0  0  0  0  0  0
   45.1550   35.8410   43.2630 C   0  0  0  0  0  0  0  0  0  0  0  0
   46.0740   34.8010   43.1670 C   0  0  0  0  0  0  0  0  0  0  0  0
   46.2500   34.0110   44.2460 N   0  0  0  0  0  0  0  0  0  0  0  0
   45.5770   34.1870   45.4000 C   0  0  0  0  0  0  0  0  0  0  0  0
   44.6850   35.1720   45.5330 N   0  0  0  0  0  0  0  0  0  0  0  0
   45.7680   33.3450   46.5400 N   0  0  0  0  0  0  0  0  0  0  0  0
   46.9130   32.6340   46.5730 C   0  0  0  0  0  0  0  0  0  0  0  0
   46.8710   31.9040   47.7580 C   0  0  0  0  0  0  0  0  0  0  0  0
   45.7410   32.1770   48.3980 N   0  0  0  0  0  0  0  0  0  0  0  0
   45.0630   33.0520   47.6660 C   0  0  0  0  0  0  0  0  0  0  0  0
   46.8600   29.2450   46.8990 C   0  0  0  0  0  0  0  0  0  0  0  0
   45.7640   28.7350   47.5610 C   0  0  0  0  0  0  0  0  0  0  0  0
   44.6330   28.2760   46.8900 C   0  0  0  0  0  0  0  0  0  0  0  0
   44.6070   28.3320   45.5030 C   0  0  0  0  0  0  0  0  0  0  0  0
   45.7360   28.8540   44.8970 C   0  0  0  0  0  0  0  0  0  0  0  0
   46.8110   29.2900   45.5590 N   0  0  0  0  0  0  0  0  0  0  0  0
   48.8318   32.5163   49.4217 H   0  0  0  0  0  0  0  0  0  0  0  0
   50.6178   31.0230   50.2767 H   0  0  0  0  0  0  0  0  0  0  0  0
   50.6613   28.6374   49.5478 H   0  0  0  0  0  0  0  0  0  0  0  0
   48.9440   27.7790   47.9887 H   0  0  0  0  0  0  0  0  0  0  0  0
   43.7394   36.8180   44.5608 H   0  0  0  0  0  0  0  0  0  0  0  0
   44.9737   36.5164   42.4139 H   0  0  0  0  0  0  0  0  0  0  0  0
   46.6398   34.6282   42.2396 H   0  0  0  0  0  0  0  0  0  0  0  0
   47.7145   32.6312   45.8197 H   0  0  0  0  0  0  0  0  0  0  0  0
   44.0823   33.4751   47.9291 H   0  0  0  0  0  0  0  0  0  0  0  0
   45.7832   28.6887   48.6599 H   0  0  0  0  0  0  0  0  0  0  0  0
   43.7747   27.8758   47.4497 H   0  0  0  0  0  0  0  0  0  0  0  0
   43.7413   27.9826   44.9212 H   0  0  0  0  0  0  0  0  0  0  0  0
   45.7491   28.9138   43.7987 H   0  0  0  0  0  0  0  0  0  0  0  0
  1  2  2  0
  2  3  1  0
  4  3  2  0
  5  4  1  0
  6  1  1  0
  6  5  2  0
  7 12  2  0
  8  7  1  0
  9  8  2  0
  9 10  1  0
 10 11  2  0
 11 12  1  0
 11 13  1  0
 13 14  1  0
 13 17  1  0
 14 15  2  0
 15  1  1  0
 15 16  1  0
 17 16  2  0
 18 19  2  0
 18  6  1  0
 20 19  1  0
 21 20  2  0
 22 21  1  0
 22 23  2  0
 23 18  1  0
  2 24  1  0
  3 25  1  0
  4 26  1  0
  5 27  1  0
  7 28  1  0
  8 29  1  0
  9 30  1  0
 14 31  1  0
 17 32  1  0
 19 33  1  0
 20 34  1  0
 21 35  1  0
 22 36  1  0
M  ISO  8  24  14  25  14  26  14  27  14  28  14  29  14  30  14  31  14
M  ISO  5  32  14  33  14  34  14  35  14  36  14
M  END
>  <minimizedAffinity>  (1) 
-6.15770912

>  <minimizedRMSD>  (1) 
0.771517992

$$$$
