
     RDKit          3D

 37 40  0  0  0  0  0  0  0  0999 V2000
   47.9070   31.0400   48.2270 C   0  0  0  0  0  0  0  0  0  0  0  0
   48.8840   31.5440   49.0770 C   0  0  0  0  0  0  0  0  0  0  0  0
   49.8770   30.7390   49.5770 C   0  0  0  0  0  0  0  0  0  0  0  0
   49.8830   29.3990   49.2120 C   0  0  0  0  0  0  0  0  0  0  0  0
   48.8970   28.8950   48.3560 C   0  0  0  0  0  0  0  0  0  0  0  0
   47.9020   29.7190   47.8580 C   0  0  0  0  0  0  0  0  0  0  0  0
   44.4520   36.0360   44.4560 C   0  0  0  0  0  0  0  0  0  0  0  0
   45.1250   35.8680   43.2440 C   0  0  0  0  0  0  0  0  0  0  0  0
   46.0470   34.8230   43.1340 C   0  0  0  0  0  0  0  0  0  0  0  0
   46.2470   34.0180   44.2100 N   0  0  0  0  0  0  0  0  0  0  0  0
   45.5700   34.2160   45.3710 C   0  0  0  0  0  0  0  0  0  0  0  0
   44.6740   35.2130   45.5130 N   0  0  0  0  0  0  0  0  0  0  0  0
   45.7580   33.3830   46.5220 N   0  0  0  0  0  0  0  0  0  0  0  0
   46.9250   32.6750   46.5480 C   0  0  0  0  0  0  0  0  0  0  0  0
   46.8800   31.9590   47.7330 C   0  0  0  0  0  0  0  0  0  0  0  0
   45.7450   32.2290   48.3770 N   0  0  0  0  0  0  0  0  0  0  0  0
   45.0500   33.0930   47.6570 C   0  0  0  0  0  0  0  0  0  0  0  0
   46.8450   29.2610   46.9630 C   0  0  0  0  0  0  0  0  0  0  0  0
   46.8800   29.2400   45.5840 C   0  0  0  0  0  0  0  0  0  0  0  0
   45.8020   28.7790   44.8560 C   0  0  0  0  0  0  0  0  0  0  0  0
   44.6640   28.3270   45.4670 C   0  0  0  0  0  0  0  0  0  0  0  0
   44.6310   28.3480   46.8500 C   0  0  0  0  0  0  0  0  0  0  0  0
   45.7070   28.8100   47.6010 C   0  0  0  0  0  0  0  0  0  0  0  0
   48.8612   32.6082   49.3544 H   0  0  0  0  0  0  0  0  0  0  0  0
   50.6477   31.1445   50.2490 H   0  0  0  0  0  0  0  0  0  0  0  0
   50.6667   28.7303   49.5976 H   0  0  0  0  0  0  0  0  0  0  0  0
   48.9128   27.8315   48.0755 H   0  0  0  0  0  0  0  0  0  0  0  0
   43.7244   36.8548   44.5569 H   0  0  0  0  0  0  0  0  0  0  0  0
   44.9341   36.5420   42.3959 H   0  0  0  0  0  0  0  0  0  0  0  0
   46.5984   34.6562   42.1969 H   0  0  0  0  0  0  0  0  0  0  0  0
   47.7254   32.6734   45.7935 H   0  0  0  0  0  0  0  0  0  0  0  0
   44.0676   33.5090   47.9251 H   0  0  0  0  0  0  0  0  0  0  0  0
   47.7785   29.5952   45.0581 H   0  0  0  0  0  0  0  0  0  0  0  0
   45.8589   28.7748   43.7575 H   0  0  0  0  0  0  0  0  0  0  0  0
   43.8081   27.9609   44.8809 H   0  0  0  0  0  0  0  0  0  0  0  0
   43.7300   27.9899   47.3695 H   0  0  0  0  0  0  0  0  0  0  0  0
   45.6512   28.8159   48.6996 H   0  0  0  0  0  0  0  0  0  0  0  0
  1  2  2  0
  2  3  1  0
  4  3  2  0
  5  4  1  0
  6  1  1  0
  6  5  2  0
  7 12  2  0
  8  7  1  0
  9  8  2  0
  9 10  1  0
 10 11  2  0
 11 12  1  0
 11 13  1  0
 13 14  1  0
 13 17  1  0
 14 15  2  0
 15  1  1  0
 15 16  1  0
 17 16  2  0
 18 23  1  0
 18  6  1  0
 19 18  2  0
 20 21  2  0
 20 19  1  0
 21 22  1  0
 22 23  2  0
  2 24  1  0
  3 25  1  0
  4 26  1  0
  5 27  1  0
  7 28  1  0
  8 29  1  0
  9 30  1  0
 14 31  1  0
 17 32  1  0
 19 33  1  0
 20 34  1  0
 21 35  1  0
 22 36  1  0
 23 37  1  0
M  ISO  8  24  14  25  14  26  14  27  14  28  14  29  14  30  14  31  14
M  ISO  6  32  14  33  14  34  14  35  14  36  14  37  14
M  END
>  <minimizedAffinity>  (1) 
-6.14886522

>  <minimizedRMSD>  (1) 
0.726144075

$$$$
