
     RDKit          3D

 41 44  0  0  0  0  0  0  0  0999 V2000
   47.9920   31.0350   48.2410 C   0  0  0  0  0  0  0  0  0  0  0  0
   48.9160   31.5160   49.1420 C   0  0  0  0  0  0  0  0  0  0  0  0
   49.9130   30.7080   49.6390 C   0  0  0  0  0  0  0  0  0  0  0  0
   49.9740   29.3860   49.2140 C   0  0  0  0  0  0  0  0  0  0  0  0
   49.0500   28.9000   48.3120 C   0  0  0  0  0  0  0  0  0  0  0  0
   48.0640   29.7280   47.8320 C   0  0  0  0  0  0  0  0  0  0  0  0
   44.4490   35.9660   44.4690 C   0  0  0  0  0  0  0  0  0  0  0  0
   45.1700   35.8300   43.2780 C   0  0  0  0  0  0  0  0  0  0  0  0
   46.1260   34.8300   43.1740 C   0  0  0  0  0  0  0  0  0  0  0  0
   46.3050   34.0360   44.2480 N   0  0  0  0  0  0  0  0  0  0  0  0
   45.6060   34.1740   45.3950 C   0  0  0  0  0  0  0  0  0  0  0  0
   44.6790   35.1250   45.5250 N   0  0  0  0  0  0  0  0  0  0  0  0
   45.7990   33.3280   46.5350 N   0  0  0  0  0  0  0  0  0  0  0  0
   46.9890   32.6600   46.5750 C   0  0  0  0  0  0  0  0  0  0  0  0
   46.9580   31.9170   47.7430 C   0  0  0  0  0  0  0  0  0  0  0  0
   45.7890   32.1370   48.3750 N   0  0  0  0  0  0  0  0  0  0  0  0
   45.0880   32.9930   47.6390 C   0  0  0  0  0  0  0  0  0  0  0  0
   47.1490   29.1670   46.9090 N   0  0  0  0  0  0  0  0  0  0  0  0
   47.0120   29.2870   45.4720 C   0  0  0  0  0  0  0  0  0  0  0  0
   45.5510   29.2950   45.0780 C   0  0  0  0  0  0  0  0  0  0  0  0
   44.7810   29.8670   46.1400 N   0  0  0  0  0  0  0  0  0  0  0  0
   44.7330   28.8540   47.1940 C   0  0  0  0  0  0  0  0  0  0  0  0
   46.1090   28.2790   47.4500 C   0  0  0  0  0  0  0  0  0  0  0  0
   48.8560   32.5642   49.4700 H   0  0  0  0  0  0  0  0  0  0  0  0
   50.6470   31.1005   50.3582 H   0  0  0  0  0  0  0  0  0  0  0  0
   50.7633   28.7236   49.5989 H   0  0  0  0  0  0  0  0  0  0  0  0
   49.1025   27.8532   47.9782 H   0  0  0  0  0  0  0  0  0  0  0  0
   43.6894   36.7566   44.5582 H   0  0  0  0  0  0  0  0  0  0  0  0
   44.9810   36.5086   42.4331 H   0  0  0  0  0  0  0  0  0  0  0  0
   46.7129   34.6912   42.2540 H   0  0  0  0  0  0  0  0  0  0  0  0
   47.8016   32.7030   45.8349 H   0  0  0  0  0  0  0  0  0  0  0  0
   44.0854   33.3713   47.8875 H   0  0  0  0  0  0  0  0  0  0  0  0
   47.4815   30.2250   45.1406 H   0  0  0  0  0  0  0  0  0  0  0  0
   47.5046   28.4272   44.9945 H   0  0  0  0  0  0  0  0  0  0  0  0
   45.4195   29.8934   44.1644 H   0  0  0  0  0  0  0  0  0  0  0  0
   45.2132   28.2653   44.8893 H   0  0  0  0  0  0  0  0  0  0  0  0
   45.2330   30.7245   46.4881 H   0  0  0  0  0  0  0  0  0  0  0  0
   44.3566   29.3142   48.1195 H   0  0  0  0  0  0  0  0  0  0  0  0
   44.0657   28.0411   46.8715 H   0  0  0  0  0  0  0  0  0  0  0  0
   46.1857   27.2947   46.9649 H   0  0  0  0  0  0  0  0  0  0  0  0
   46.2561   28.1802   48.5356 H   0  0  0  0  0  0  0  0  0  0  0  0
  1  2  2  0
  2  3  1  0
  4  3  2  0
  5  4  1  0
  6  1  1  0
  6  5  2  0
  7 12  2  0
  8  7  1  0
  9  8  2  0
  9 10  1  0
 10 11  2  0
 11 12  1  0
 11 13  1  0
 13 14  1  0
 13 17  1  0
 14 15  2  0
 15  1  1  0
 15 16  1  0
 17 16  2  0
 18 23  1  0
 18  6  1  0
 19 18  1  0
 20 19  1  0
 20 21  1  0
 21 22  1  0
 22 23  1  0
  2 24  1  0
  3 25  1  0
  4 26  1  0
  5 27  1  0
  7 28  1  0
  8 29  1  0
  9 30  1  0
 14 31  1  0
 17 32  1  0
 19 33  1  0
 19 34  1  0
 20 35  1  0
 20 36  1  0
 21 37  1  0
 22 38  1  0
 22 39  1  0
 23 40  1  0
 23 41  1  0
M  ISO  8  24  14  25  14  26  14  27  14  28  14  29  14  30  14  31  14
M  ISO  8  32  14  33  13  34  13  35  13  36  13  37   5  38  13  39  13
M  ISO  2  40  13  41  13
M  END
>  <minimizedAffinity>  (1) 
-6.29076004

>  <minimizedRMSD>  (1) 
0.842649758

$$$$
