
     RDKit          3D

 40 44  0  0  0  0  0  0  0  0999 V2000
   47.9710   30.7900   48.3210 C   0  0  0  0  0  0  0  0  0  0  0  0
   48.7420   31.1780   49.3860 C   0  0  0  0  0  0  0  0  0  0  0  0
   49.7340   30.3760   49.9000 C   0  0  0  0  0  0  0  0  0  0  0  0
   49.9310   29.1340   49.2910 C   0  0  0  0  0  0  0  0  0  0  0  0
   49.1540   28.7460   48.2190 C   0  0  0  0  0  0  0  0  0  0  0  0
   48.1640   29.5720   47.7220 C   0  0  0  0  0  0  0  0  0  0  0  0
   44.4920   35.8680   44.6630 C   0  0  0  0  0  0  0  0  0  0  0  0
   45.2010   35.7400   43.4660 C   0  0  0  0  0  0  0  0  0  0  0  0
   46.1370   34.7210   43.3310 C   0  0  0  0  0  0  0  0  0  0  0  0
   46.3130   33.8940   44.3810 N   0  0  0  0  0  0  0  0  0  0  0  0
   45.6230   34.0240   45.5320 C   0  0  0  0  0  0  0  0  0  0  0  0
   44.7090   35.0000   45.7010 N   0  0  0  0  0  0  0  0  0  0  0  0
   45.8020   33.1480   46.6600 N   0  0  0  0  0  0  0  0  0  0  0  0
   46.9840   32.4720   46.6790 C   0  0  0  0  0  0  0  0  0  0  0  0
   46.9410   31.6990   47.8370 C   0  0  0  0  0  0  0  0  0  0  0  0
   45.7720   31.9200   48.4710 N   0  0  0  0  0  0  0  0  0  0  0  0
   45.0790   32.7980   47.7580 C   0  0  0  0  0  0  0  0  0  0  0  0
   47.3820   29.1320   46.6120 N   0  0  0  0  0  0  0  0  0  0  0  0
   47.5210   29.2900   45.2830 C   0  0  0  0  0  0  0  0  0  0  0  0
   46.4850   28.6630   44.6530 N   0  0  0  0  0  0  0  0  0  0  0  0
   45.6850   28.1040   45.5630 C   0  0  0  0  0  0  0  0  0  0  0  0
   44.5210   27.3620   45.5600 C   0  0  0  0  0  0  0  0  0  0  0  0
   43.9160   26.9170   46.6830 N   0  0  0  0  0  0  0  0  0  0  0  0
   44.4870   27.2190   47.8770 C   0  0  0  0  0  0  0  0  0  0  0  0
   45.6220   27.9410   47.9030 N   0  0  0  0  0  0  0  0  0  0  0  0
   46.2480   28.3980   46.8030 C   0  0  0  0  0  0  0  0  0  0  0  0
   43.9300   27.0510   44.3040 N   0  0  0  0  0  0  0  0  0  0  0  0
   48.5616   32.1618   49.8439 H   0  0  0  0  0  0  0  0  0  0  0  0
   50.3466   30.6988   50.7547 H   0  0  0  0  0  0  0  0  0  0  0  0
   50.7129   28.4593   49.6698 H   0  0  0  0  0  0  0  0  0  0  0  0
   49.3252   27.7644   47.7530 H   0  0  0  0  0  0  0  0  0  0  0  0
   43.7517   36.6741   44.7734 H   0  0  0  0  0  0  0  0  0  0  0  0
   45.0201   36.4399   42.6369 H   0  0  0  0  0  0  0  0  0  0  0  0
   46.7125   34.5943   42.4022 H   0  0  0  0  0  0  0  0  0  0  0  0
   47.7969   32.5249   45.9398 H   0  0  0  0  0  0  0  0  0  0  0  0
   44.0802   33.1815   48.0135 H   0  0  0  0  0  0  0  0  0  0  0  0
   48.3364   29.8354   44.7854 H   0  0  0  0  0  0  0  0  0  0  0  0
   44.0258   26.8764   48.8150 H   0  0  0  0  0  0  0  0  0  0  0  0
   43.0612   26.4990   44.2662 H   0  0  0  0  0  0  0  0  0  0  0  0
   44.3709   27.3778   43.4324 H   0  0  0  0  0  0  0  0  0  0  0  0
  1  2  2  0
  2  3  1  0
  4  3  2  0
  5  4  1  0
  6  5  2  0
  6  1  1  0
  7 12  2  0
  8  7  1  0
  9  8  2  0
  9 10  1  0
 10 11  2  0
 11 12  1  0
 11 13  1  0
 13 14  1  0
 13 17  1  0
 14 15  2  0
 15  1  1  0
 15 16  1  0
 17 16  2  0
 18 26  1  0
 18  6  1  0
 19 18  1  0
 20 19  2  0
 20 21  1  0
 21 26  2  0
 22 21  1  0
 22 23  2  0
 23 24  1  0
 24 25  2  0
 26 25  1  0
 27 22  1  0
  2 28  1  0
  3 29  1  0
  4 30  1  0
  5 31  1  0
  7 32  1  0
  8 33  1  0
  9 34  1  0
 14 35  1  0
 17 36  1  0
 19 37  1  0
 24 38  1  0
 27 39  1  0
 27 40  1  0
M  ISO  8  28  14  29  14  30  14  31  14  32  14  33  14  34  14  35  14
M  ISO  3  36  14  37  14  38  14
M  END
>  <minimizedAffinity>  (1) 
-6.33161449

>  <minimizedRMSD>  (1) 
0.904299736

$$$$
