
     RDKit          3D

 40 43  0  0  0  0  0  0  0  0999 V2000
   47.9200   31.0880   48.2730 C   0  0  0  0  0  0  0  0  0  0  0  0
   48.9170   31.5790   49.0750 C   0  0  0  0  0  0  0  0  0  0  0  0
   49.9170   30.7950   49.5880 C   0  0  0  0  0  0  0  0  0  0  0  0
   49.8830   29.4280   49.2540 C   0  0  0  0  0  0  0  0  0  0  0  0
   48.8880   28.9220   48.4490 C   0  0  0  0  0  0  0  0  0  0  0  0
   47.9070   29.7540   47.9590 C   0  0  0  0  0  0  0  0  0  0  0  0
   44.4420   36.0130   44.4260 C   0  0  0  0  0  0  0  0  0  0  0  0
   45.1350   35.8290   43.2160 C   0  0  0  0  0  0  0  0  0  0  0  0
   46.0710   34.7820   43.1360 C   0  0  0  0  0  0  0  0  0  0  0  0
   46.2520   34.0170   44.2190 N   0  0  0  0  0  0  0  0  0  0  0  0
   45.5640   34.2170   45.3830 C   0  0  0  0  0  0  0  0  0  0  0  0
   44.6620   35.2000   45.5090 N   0  0  0  0  0  0  0  0  0  0  0  0
   45.7620   33.3950   46.5370 N   0  0  0  0  0  0  0  0  0  0  0  0
   46.9260   32.6990   46.5760 C   0  0  0  0  0  0  0  0  0  0  0  0
   46.9030   31.9820   47.7680 C   0  0  0  0  0  0  0  0  0  0  0  0
   45.7470   32.2530   48.4110 N   0  0  0  0  0  0  0  0  0  0  0  0
   45.0580   33.1100   47.6630 C   0  0  0  0  0  0  0  0  0  0  0  0
   44.9490   27.9450   45.4840 C   0  0  0  0  0  0  0  0  0  0  0  0
   44.7300   28.1150   46.8310 C   0  0  0  0  0  0  0  0  0  0  0  0
   45.6830   28.7060   47.6660 C   0  0  0  0  0  0  0  0  0  0  0  0
   46.8910   29.1360   47.1170 C   0  0  0  0  0  0  0  0  0  0  0  0
   47.1290   28.9740   45.7610 C   0  0  0  0  0  0  0  0  0  0  0  0
   46.1540   28.3850   44.9830 C   0  0  0  0  0  0  0  0  0  0  0  0
   43.6780   27.1880   44.5500 S   0  0  0  0  0  0  0  0  0  0  0  0
   43.7810   25.6970   44.8410 O   0  0  0  0  0  0  0  0  0  0  0  0
   42.3390   27.6740   45.0630 O   0  0  0  0  0  0  0  0  0  0  0  0
   48.9144   32.6518   49.3181 H   0  0  0  0  0  0  0  0  0  0  0  0
   50.7071   31.2132   50.2290 H   0  0  0  0  0  0  0  0  0  0  0  0
   50.6621   28.7552   49.6416 H   0  0  0  0  0  0  0  0  0  0  0  0
   48.8767   27.8513   48.1969 H   0  0  0  0  0  0  0  0  0  0  0  0
   43.7068   36.8273   44.5058 H   0  0  0  0  0  0  0  0  0  0  0  0
   44.9498   36.4870   42.3542 H   0  0  0  0  0  0  0  0  0  0  0  0
   46.6371   34.5976   42.2111 H   0  0  0  0  0  0  0  0  0  0  0  0
   47.7247   32.7012   45.8197 H   0  0  0  0  0  0  0  0  0  0  0  0
   44.0710   33.5239   47.9169 H   0  0  0  0  0  0  0  0  0  0  0  0
   43.7773   27.7761   47.2641 H   0  0  0  0  0  0  0  0  0  0  0  0
   45.4830   28.8301   48.7405 H   0  0  0  0  0  0  0  0  0  0  0  0
   48.0768   29.3086   45.3141 H   0  0  0  0  0  0  0  0  0  0  0  0
   46.3489   28.2604   43.9076 H   0  0  0  0  0  0  0  0  0  0  0  0
   43.7913   27.4712   43.2144 H   0  0  0  0  0  0  0  0  0  0  0  0
  1  2  2  0
  2  3  1  0
  4  3  2  0
  5  4  1  0
  6  1  1  0
  6  5  2  0
  7 12  2  0
  8  7  1  0
  9  8  2  0
  9 10  1  0
 10 11  2  0
 11 12  1  0
 11 13  1  0
 13 14  1  0
 13 17  1  0
 14 15  2  0
 15  1  1  0
 15 16  1  0
 17 16  2  0
 18 19  2  0
 19 20  1  0
 21 20  2  0
 21  6  1  0
 22 21  1  0
 23 18  1  0
 23 22  2  0
 24 25  2  0
 24 26  2  0
 24 18  1  0
  2 27  1  0
  3 28  1  0
  4 29  1  0
  5 30  1  0
  7 31  1  0
  8 32  1  0
  9 33  1  0
 14 34  1  0
 17 35  1  0
 19 36  1  0
 20 37  1  0
 22 38  1  0
 23 39  1  0
 24 40  1  0
M  ISO  8  27  14  28  14  29  14  30  14  31  14  32  14  33  14  34  14
M  ISO  6  35  14  36  14  37  14  38  14  39  14  40  11
M  END
>  <minimizedAffinity>  (1) 
-5.99189997

>  <minimizedRMSD>  (1) 
1.28770375

$$$$
