
     RDKit          3D

 35 38  0  0  0  0  0  0  0  0999 V2000
   47.9120   30.9720   48.2240 C   0  0  0  0  0  0  0  0  0  0  0  0
   48.8490   31.4530   49.1080 C   0  0  0  0  0  0  0  0  0  0  0  0
   49.8360   30.6320   49.6110 C   0  0  0  0  0  0  0  0  0  0  0  0
   49.8530   29.2970   49.1940 C   0  0  0  0  0  0  0  0  0  0  0  0
   48.9040   28.8350   48.3070 C   0  0  0  0  0  0  0  0  0  0  0  0
   47.9240   29.6660   47.8130 C   0  0  0  0  0  0  0  0  0  0  0  0
   44.4740   36.0090   44.4830 C   0  0  0  0  0  0  0  0  0  0  0  0
   45.1630   35.8380   43.2610 C   0  0  0  0  0  0  0  0  0  0  0  0
   46.0770   34.7930   43.1500 C   0  0  0  0  0  0  0  0  0  0  0  0
   46.2490   34.0030   44.2210 N   0  0  0  0  0  0  0  0  0  0  0  0
   45.5830   34.1790   45.3820 C   0  0  0  0  0  0  0  0  0  0  0  0
   44.6850   35.1780   45.5410 N   0  0  0  0  0  0  0  0  0  0  0  0
   45.7670   33.3330   46.5330 N   0  0  0  0  0  0  0  0  0  0  0  0
   46.9250   32.6310   46.5500 C   0  0  0  0  0  0  0  0  0  0  0  0
   46.8930   31.8960   47.7300 C   0  0  0  0  0  0  0  0  0  0  0  0
   45.7430   32.1680   48.3800 N   0  0  0  0  0  0  0  0  0  0  0  0
   45.0580   33.0400   47.6540 C   0  0  0  0  0  0  0  0  0  0  0  0
   46.9420   29.1330   46.8770 C   0  0  0  0  0  0  0  0  0  0  0  0
   45.8650   28.5730   47.5510 C   0  0  0  0  0  0  0  0  0  0  0  0
   44.7890   27.9920   46.8860 C   0  0  0  0  0  0  0  0  0  0  0  0
   44.8570   28.0060   45.5230 N   0  0  0  0  0  0  0  0  0  0  0  0
   45.9140   28.5550   44.8830 C   0  0  0  0  0  0  0  0  0  0  0  0
   46.9430   29.1110   45.5370 N   0  0  0  0  0  0  0  0  0  0  0  0
   48.8106   32.5076   49.4183 H   0  0  0  0  0  0  0  0  0  0  0  0
   50.5866   31.0150   50.3181 H   0  0  0  0  0  0  0  0  0  0  0  0
   50.6261   28.6135   49.5750 H   0  0  0  0  0  0  0  0  0  0  0  0
   48.9304   27.7826   47.9881 H   0  0  0  0  0  0  0  0  0  0  0  0
   43.7509   36.8320   44.5818 H   0  0  0  0  0  0  0  0  0  0  0  0
   44.9811   36.5166   42.4146 H   0  0  0  0  0  0  0  0  0  0  0  0
   46.6371   34.6216   42.2189 H   0  0  0  0  0  0  0  0  0  0  0  0
   47.7216   32.6403   45.7915 H   0  0  0  0  0  0  0  0  0  0  0  0
   44.0751   33.4584   47.9166 H   0  0  0  0  0  0  0  0  0  0  0  0
   45.8619   28.5891   48.6509 H   0  0  0  0  0  0  0  0  0  0  0  0
   43.9380   27.5497   47.4248 H   0  0  0  0  0  0  0  0  0  0  0  0
   45.9298   28.5448   43.7832 H   0  0  0  0  0  0  0  0  0  0  0  0
  1  2  2  0
  2  3  1  0
  4  3  2  0
  5  4  1  0
  6  1  1  0
  6  5  2  0
  7 12  2  0
  8  7  1  0
  9  8  2  0
  9 10  1  0
 10 11  2  0
 11 12  1  0
 11 13  1  0
 13 14  1  0
 13 17  1  0
 14 15  2  0
 15  1  1  0
 15 16  1  0
 17 16  2  0
 18 19  2  0
 18  6  1  0
 20 19  1  0
 21 20  2  0
 22 21  1  0
 22 23  2  0
 23 18  1  0
  2 24  1  0
  3 25  1  0
  4 26  1  0
  5 27  1  0
  7 28  1  0
  8 29  1  0
  9 30  1  0
 14 31  1  0
 17 32  1  0
 19 33  1  0
 20 34  1  0
 22 35  1  0
M  ISO  8  24  14  25  14  26  14  27  14  28  14  29  14  30  14  31  14
M  ISO  4  32  14  33  14  34  14  35  14
M  END
>  <minimizedAffinity>  (1) 
-5.97816515

>  <minimizedRMSD>  (1) 
0.758881688

$$$$
