
     RDKit          3D

 34 36  0  0  0  0  0  0  0  0999 V2000
   47.9580   31.0550   48.2790 C   0  0  0  0  0  0  0  0  0  0  0  0
   48.9330   31.5910   49.0880 C   0  0  0  0  0  0  0  0  0  0  0  0
   49.9510   30.8260   49.6060 C   0  0  0  0  0  0  0  0  0  0  0  0
   49.9720   29.4760   49.2860 C   0  0  0  0  0  0  0  0  0  0  0  0
   48.9880   28.9550   48.4750 C   0  0  0  0  0  0  0  0  0  0  0  0
   47.9580   29.7040   47.9470 C   0  0  0  0  0  0  0  0  0  0  0  0
   44.4480   35.9700   44.4350 C   0  0  0  0  0  0  0  0  0  0  0  0
   45.1770   35.8320   43.2350 C   0  0  0  0  0  0  0  0  0  0  0  0
   46.1350   34.8270   43.1590 C   0  0  0  0  0  0  0  0  0  0  0  0
   46.3160   34.0370   44.2380 N   0  0  0  0  0  0  0  0  0  0  0  0
   45.5980   34.1900   45.3900 C   0  0  0  0  0  0  0  0  0  0  0  0
   44.6710   35.1420   45.5020 N   0  0  0  0  0  0  0  0  0  0  0  0
   45.8010   33.3480   46.5160 N   0  0  0  0  0  0  0  0  0  0  0  0
   46.9670   32.6800   46.5930 C   0  0  0  0  0  0  0  0  0  0  0  0
   46.9070   31.9450   47.7700 C   0  0  0  0  0  0  0  0  0  0  0  0
   45.7450   32.1720   48.3670 N   0  0  0  0  0  0  0  0  0  0  0  0
   45.0510   33.0250   47.6220 C   0  0  0  0  0  0  0  0  0  0  0  0
   46.9330   29.2130   47.0980 N   0  0  0  0  0  0  0  0  0  0  0  0
   45.8360   28.4730   47.5660 C   0  0  0  0  0  0  0  0  0  0  0  0
   45.1780   28.9350   48.5510 N   0  0  0  0  0  0  0  0  0  0  0  0
   45.4640   27.2430   46.9420 N   0  0  0  0  0  0  0  0  0  0  0  0
   45.3220   29.7980   49.0840 H   0  0  0  0  0  0  0  0  0  0  0  0
   48.8970   32.6640   49.3276 H   0  0  0  0  0  0  0  0  0  0  0  0
   50.7229   31.2692   50.2524 H   0  0  0  0  0  0  0  0  0  0  0  0
   50.7688   28.8264   49.6772 H   0  0  0  0  0  0  0  0  0  0  0  0
   49.0261   27.8821   48.2354 H   0  0  0  0  0  0  0  0  0  0  0  0
   43.6853   36.7586   44.5148 H   0  0  0  0  0  0  0  0  0  0  0  0
   44.9924   36.5017   42.3821 H   0  0  0  0  0  0  0  0  0  0  0  0
   46.7288   34.6800   42.2448 H   0  0  0  0  0  0  0  0  0  0  0  0
   47.7970   32.7100   45.8718 H   0  0  0  0  0  0  0  0  0  0  0  0
   44.0458   33.4083   47.8513 H   0  0  0  0  0  0  0  0  0  0  0  0
   46.9969   29.4091   46.0889 H   0  0  0  0  0  0  0  0  0  0  0  0
   44.6568   26.7097   47.2954 H   0  0  0  0  0  0  0  0  0  0  0  0
   46.0030   26.8894   46.1387 H   0  0  0  0  0  0  0  0  0  0  0  0
  1  2  2  0
  2  3  1  0
  4  3  2  0
  5  4  1  0
  6  1  1  0
  6  5  2  0
  7 12  2  0
  8  7  1  0
  9  8  2  0
  9 10  1  0
 10 11  2  0
 11 12  1  0
 11 13  1  0
 13 14  1  0
 13 17  1  0
 14 15  2  0
 15  1  1  0
 15 16  1  0
 17 16  2  0
 18 19  1  0
 18  6  1  0
 19 20  2  0
 20 22  1  0
 21 19  1  0
  2 23  1  0
  3 24  1  0
  4 25  1  0
  5 26  1  0
  7 27  1  0
  8 28  1  0
  9 29  1  0
 14 30  1  0
 17 31  1  0
 18 32  1  0
 21 33  1  0
 21 34  1  0
M  ISO  8  23  14  24  14  25  14  26  14  27  14  28  14  29  14  30  14
M  ISO  1  31  14
M  END
>  <minimizedAffinity>  (1) 
-6.0447998

>  <minimizedRMSD>  (1) 
0.680073261

$$$$
