
     RDKit          3D

 34 37  0  0  0  0  0  0  0  0999 V2000
   44.4360   35.8300   44.5670 C   0  0  0  0  0  0  0  0  0  0  0  0
   45.1530   35.6950   43.3760 C   0  0  0  0  0  0  0  0  0  0  0  0
   46.1430   34.7130   43.2780 C   0  0  0  0  0  0  0  0  0  0  0  0
   46.3470   33.9410   44.3640 N   0  0  0  0  0  0  0  0  0  0  0  0
   45.6420   34.0840   45.5140 C   0  0  0  0  0  0  0  0  0  0  0  0
   44.6920   35.0160   45.6270 N   0  0  0  0  0  0  0  0  0  0  0  0
   45.8610   33.2600   46.6680 N   0  0  0  0  0  0  0  0  0  0  0  0
   47.0640   32.6210   46.7160 C   0  0  0  0  0  0  0  0  0  0  0  0
   47.0370   31.8990   47.9050 C   0  0  0  0  0  0  0  0  0  0  0  0
   45.8700   32.1050   48.5320 N   0  0  0  0  0  0  0  0  0  0  0  0
   45.1490   32.9310   47.7850 C   0  0  0  0  0  0  0  0  0  0  0  0
   48.1070   31.0440   48.4110 C   0  0  0  0  0  0  0  0  0  0  0  0
   49.1330   31.6390   49.1350 C   0  0  0  0  0  0  0  0  0  0  0  0
   50.1640   30.8780   49.6340 C   0  0  0  0  0  0  0  0  0  0  0  0
   50.1600   29.5090   49.4040 C   0  0  0  0  0  0  0  0  0  0  0  0
   49.1280   28.9160   48.6770 C   0  0  0  0  0  0  0  0  0  0  0  0
   48.0880   29.6870   48.1730 C   0  0  0  0  0  0  0  0  0  0  0  0
   46.9620   29.1690   47.4000 C   0  0  0  0  0  0  0  0  0  0  0  0
   46.7660   28.8750   46.0610 C   0  0  0  0  0  0  0  0  0  0  0  0
   45.5040   28.4140   45.8880 N   0  0  0  0  0  0  0  0  0  0  0  0
   44.9390   28.4280   47.1060 C   0  0  0  0  0  0  0  0  0  0  0  0
   45.8000   28.8840   48.0580 N   0  0  0  0  0  0  0  0  0  0  0  0
   43.6567   36.6020   44.6489 H   0  0  0  0  0  0  0  0  0  0  0  0
   44.9405   36.3557   42.5226 H   0  0  0  0  0  0  0  0  0  0  0  0
   46.7287   34.5765   42.3569 H   0  0  0  0  0  0  0  0  0  0  0  0
   47.8775   32.6662   45.9770 H   0  0  0  0  0  0  0  0  0  0  0  0
   44.1388   33.2929   48.0272 H   0  0  0  0  0  0  0  0  0  0  0  0
   49.1204   32.7249   49.3100 H   0  0  0  0  0  0  0  0  0  0  0  0
   50.9785   31.3464   50.2060 H   0  0  0  0  0  0  0  0  0  0  0  0
   50.9772   28.8870   49.7982 H   0  0  0  0  0  0  0  0  0  0  0  0
   49.1376   27.8301   48.5014 H   0  0  0  0  0  0  0  0  0  0  0  0
   47.5154   28.9964   45.2650 H   0  0  0  0  0  0  0  0  0  0  0  0
   43.9060   28.1098   47.3103 H   0  0  0  0  0  0  0  0  0  0  0  0
   45.6132   28.9915   49.0652 H   0  0  0  0  0  0  0  0  0  0  0  0
  1  6  2  0
  2  1  1  0
  3  2  2  0
  3  4  1  0
  4  5  2  0
  5  6  1  0
  5  7  1  0
  7  8  1  0
  7 11  1  0
  8  9  2  0
  9 12  1  0
  9 10  1  0
 11 10  2  0
 12 13  2  0
 13 14  1  0
 15 14  2  0
 16 15  1  0
 17 12  1  0
 17 16  2  0
 18 22  1  0
 18 17  1  0
 19 18  2  0
 20 19  1  0
 20 21  2  0
 21 22  1  0
  1 23  1  0
  2 24  1  0
  3 25  1  0
  8 26  1  0
 11 27  1  0
 13 28  1  0
 14 29  1  0
 15 30  1  0
 16 31  1  0
 19 32  1  0
 21 33  1  0
 22 34  1  0
M  ISO  8  23  14  24  14  25  14  26  14  27  14  28  14  29  14  30  14
M  ISO  4  31  14  32  14  33  14  34   9
M  END
>  <minimizedAffinity>  (1) 
-5.9969759

>  <minimizedRMSD>  (1) 
0.911502242

$$$$
