
     RDKit          3D

 39 41  0  0  0  0  0  0  0  0999 V2000
   44.4560   35.9350   44.4200 C   0  0  0  0  0  0  0  0  0  0  0  0
   45.1670   35.7560   43.2130 C   0  0  0  0  0  0  0  0  0  0  0  0
   46.1190   34.7420   43.1500 C   0  0  0  0  0  0  0  0  0  0  0  0
   46.3080   33.9840   44.2550 N   0  0  0  0  0  0  0  0  0  0  0  0
   45.6030   34.1800   45.4110 C   0  0  0  0  0  0  0  0  0  0  0  0
   44.6790   35.1460   45.5100 N   0  0  0  0  0  0  0  0  0  0  0  0
   45.8170   33.3620   46.5480 N   0  0  0  0  0  0  0  0  0  0  0  0
   46.9870   32.7030   46.6360 C   0  0  0  0  0  0  0  0  0  0  0  0
   46.9450   31.9720   47.8030 C   0  0  0  0  0  0  0  0  0  0  0  0
   45.7610   32.1880   48.4190 N   0  0  0  0  0  0  0  0  0  0  0  0
   45.0760   33.0360   47.6520 C   0  0  0  0  0  0  0  0  0  0  0  0
   47.9860   31.0830   48.3230 C   0  0  0  0  0  0  0  0  0  0  0  0
   48.9200   31.6310   49.1590 C   0  0  0  0  0  0  0  0  0  0  0  0
   49.9510   30.8770   49.6900 C   0  0  0  0  0  0  0  0  0  0  0  0
   49.9870   29.5180   49.3250 C   0  0  0  0  0  0  0  0  0  0  0  0
   49.0350   28.9900   48.4840 C   0  0  0  0  0  0  0  0  0  0  0  0
   48.0080   29.7420   47.9570 C   0  0  0  0  0  0  0  0  0  0  0  0
   47.0150   29.0790   47.0640 C   0  0  0  0  0  0  0  0  0  0  0  0
   46.8690   29.8890   45.7610 C   0  0  0  0  0  0  0  0  0  0  0  0
   45.6250   29.3160   47.7170 C   0  0  0  0  0  0  0  0  0  0  0  0
   47.1110   27.6320   46.8750 C   0  0  0  0  0  0  0  0  0  0  0  0
   43.7014   36.7329   44.4828 H   0  0  0  0  0  0  0  0  0  0  0  0
   44.9734   36.4019   42.3439 H   0  0  0  0  0  0  0  0  0  0  0  0
   46.6984   34.5629   42.2323 H   0  0  0  0  0  0  0  0  0  0  0  0
   47.8170   32.7407   45.9151 H   0  0  0  0  0  0  0  0  0  0  0  0
   44.0677   33.4164   47.8727 H   0  0  0  0  0  0  0  0  0  0  0  0
   48.8493   32.6983   49.4155 H   0  0  0  0  0  0  0  0  0  0  0  0
   50.7030   31.3162   50.3620 H   0  0  0  0  0  0  0  0  0  0  0  0
   50.7855   28.8708   49.7167 H   0  0  0  0  0  0  0  0  0  0  0  0
   49.0963   27.9235   48.2215 H   0  0  0  0  0  0  0  0  0  0  0  0
   46.6787   30.9446   46.0049 H   0  0  0  0  0  0  0  0  0  0  0  0
   47.7959   29.8096   45.1741 H   0  0  0  0  0  0  0  0  0  0  0  0
   46.0281   29.4909   45.1741 H   0  0  0  0  0  0  0  0  0  0  0  0
   45.7266   29.2987   48.8122 H   0  0  0  0  0  0  0  0  0  0  0  0
   45.2332   30.2939   47.4005 H   0  0  0  0  0  0  0  0  0  0  0  0
   44.9312   28.5232   47.4005 H   0  0  0  0  0  0  0  0  0  0  0  0
   47.1439   27.1355   47.8560 H   0  0  0  0  0  0  0  0  0  0  0  0
   46.2345   27.2766   46.3134 H   0  0  0  0  0  0  0  0  0  0  0  0
   48.0268   27.3955   46.3134 H   0  0  0  0  0  0  0  0  0  0  0  0
  1  6  2  0
  2  1  1  0
  3  2  2  0
  3  4  1  0
  4  5  2  0
  5  6  1  0
  5  7  1  0
  7  8  1  0
  7 11  1  0
  8  9  2  0
  9 12  1  0
  9 10  1  0
 11 10  2  0
 12 13  2  0
 13 14  1  0
 15 14  2  0
 16 15  1  0
 17 12  1  0
 17 16  2  0
 18 20  1  0
 18 17  1  0
 19 18  1  0
 21 18  1  0
  1 22  1  0
  2 23  1  0
  3 24  1  0
  8 25  1  0
 11 26  1  0
 13 27  1  0
 14 28  1  0
 15 29  1  0
 16 30  1  0
 19 31  1  0
 19 32  1  0
 19 33  1  0
 20 34  1  0
 20 35  1  0
 20 36  1  0
 21 37  1  0
 21 38  1  0
 21 39  1  0
M  ISO  8  22  14  23  14  24  14  25  14  26  14  27  14  28  14  29  14
M  ISO  8  30  14  31   8  32   8  33   8  34   8  35   8  36   8  37   8
M  ISO  2  38   8  39   8
M  END
>  <minimizedAffinity>  (1) 
-5.90399599

>  <minimizedRMSD>  (1) 
0.593751252

$$$$
