
     RDKit          3D

 34 37  0  0  0  0  0  0  0  0999 V2000
   47.9700   31.0880   48.3040 C   0  0  0  0  0  0  0  0  0  0  0  0
   48.9420   31.5930   49.1280 C   0  0  0  0  0  0  0  0  0  0  0  0
   49.9450   30.8160   49.6550 C   0  0  0  0  0  0  0  0  0  0  0  0
   49.9480   29.4540   49.3170 C   0  0  0  0  0  0  0  0  0  0  0  0
   48.9630   28.9250   48.4780 C   0  0  0  0  0  0  0  0  0  0  0  0
   47.9800   29.7490   47.9780 C   0  0  0  0  0  0  0  0  0  0  0  0
   44.4410   35.9620   44.4450 C   0  0  0  0  0  0  0  0  0  0  0  0
   45.1520   35.8010   43.2370 C   0  0  0  0  0  0  0  0  0  0  0  0
   46.0980   34.7840   43.1600 C   0  0  0  0  0  0  0  0  0  0  0  0
   46.2950   33.9960   44.2440 N   0  0  0  0  0  0  0  0  0  0  0  0
   45.5960   34.1750   45.3940 C   0  0  0  0  0  0  0  0  0  0  0  0
   44.6770   35.1440   45.5030 N   0  0  0  0  0  0  0  0  0  0  0  0
   45.7880   33.3540   46.5480 N   0  0  0  0  0  0  0  0  0  0  0  0
   46.9640   32.6820   46.6100 C   0  0  0  0  0  0  0  0  0  0  0  0
   46.9420   31.9650   47.7840 C   0  0  0  0  0  0  0  0  0  0  0  0
   45.7740   32.2010   48.4130 N   0  0  0  0  0  0  0  0  0  0  0  0
   45.0770   33.0450   47.6590 C   0  0  0  0  0  0  0  0  0  0  0  0
   47.0180   29.1600   47.1400 N   0  0  0  0  0  0  0  0  0  0  0  0
   45.8650   28.6900   47.6160 N   0  0  0  0  0  0  0  0  0  0  0  0
   45.1080   28.1770   46.6460 C   0  0  0  0  0  0  0  0  0  0  0  0
   45.8020   28.3130   45.4390 C   0  0  0  0  0  0  0  0  0  0  0  0
   46.9810   28.9320   45.8140 C   0  0  0  0  0  0  0  0  0  0  0  0
   48.9180   32.6641   49.3775 H   0  0  0  0  0  0  0  0  0  0  0  0
   50.7141   31.2439   50.3148 H   0  0  0  0  0  0  0  0  0  0  0  0
   50.7336   28.7958   49.7164 H   0  0  0  0  0  0  0  0  0  0  0  0
   48.9733   27.8561   48.2187 H   0  0  0  0  0  0  0  0  0  0  0  0
   43.6874   36.7587   44.5307 H   0  0  0  0  0  0  0  0  0  0  0  0
   44.9632   36.4624   42.3785 H   0  0  0  0  0  0  0  0  0  0  0  0
   46.6746   34.6229   42.2372 H   0  0  0  0  0  0  0  0  0  0  0  0
   47.7757   32.7055   45.8679 H   0  0  0  0  0  0  0  0  0  0  0  0
   44.0764   33.4331   47.9001 H   0  0  0  0  0  0  0  0  0  0  0  0
   44.1127   27.7261   46.7725 H   0  0  0  0  0  0  0  0  0  0  0  0
   45.4858   28.0021   44.4323 H   0  0  0  0  0  0  0  0  0  0  0  0
   47.7868   29.2037   45.1163 H   0  0  0  0  0  0  0  0  0  0  0  0
  1  2  2  0
  2  3  1  0
  4  3  2  0
  5  4  1  0
  6  1  1  0
  6  5  2  0
  7 12  2  0
  8  7  1  0
  9  8  2  0
  9 10  1  0
 10 11  2  0
 11 12  1  0
 11 13  1  0
 13 14  1  0
 13 17  1  0
 14 15  2  0
 15  1  1  0
 15 16  1  0
 17 16  2  0
 18 19  1  0
 18  6  1  0
 20 19  2  0
 21 22  2  0
 21 20  1  0
 22 18  1  0
  2 23  1  0
  3 24  1  0
  4 25  1  0
  5 26  1  0
  7 27  1  0
  8 28  1  0
  9 29  1  0
 14 30  1  0
 17 31  1  0
 20 32  1  0
 21 33  1  0
 22 34  1  0
M  ISO  8  23  14  24  14  25  14  26  14  27  14  28  14  29  14  30  14
M  ISO  4  31  14  32  14  33  14  34  14
M  END
>  <minimizedAffinity>  (1) 
-5.820364

>  <minimizedRMSD>  (1) 
0.837952912

$$$$
