
     RDKit          3D

 28 30  0  0  0  0  0  0  0  0999 V2000
   44.4870   35.8540   44.6090 C   0  0  0  0  0  0  0  0  0  0  0  0
   45.1940   35.7220   43.3990 C   0  0  0  0  0  0  0  0  0  0  0  0
   46.1360   34.7050   43.2950 C   0  0  0  0  0  0  0  0  0  0  0  0
   46.3390   33.8870   44.3560 N   0  0  0  0  0  0  0  0  0  0  0  0
   45.6360   34.0430   45.5140 C   0  0  0  0  0  0  0  0  0  0  0  0
   44.7120   35.0110   45.6660 N   0  0  0  0  0  0  0  0  0  0  0  0
   45.8330   33.1890   46.6500 N   0  0  0  0  0  0  0  0  0  0  0  0
   47.0140   32.5190   46.6950 C   0  0  0  0  0  0  0  0  0  0  0  0
   46.9780   31.7760   47.8530 C   0  0  0  0  0  0  0  0  0  0  0  0
   45.8100   31.9960   48.4800 N   0  0  0  0  0  0  0  0  0  0  0  0
   45.1070   32.8570   47.7530 C   0  0  0  0  0  0  0  0  0  0  0  0
   48.0100   30.8850   48.3560 C   0  0  0  0  0  0  0  0  0  0  0  0
   48.8460   31.3130   49.3550 C   0  0  0  0  0  0  0  0  0  0  0  0
   49.8390   30.5240   49.8740 C   0  0  0  0  0  0  0  0  0  0  0  0
   49.9810   29.2410   49.3470 C   0  0  0  0  0  0  0  0  0  0  0  0
   49.1430   28.7990   48.3410 C   0  0  0  0  0  0  0  0  0  0  0  0
   48.1570   29.6220   47.8450 C   0  0  0  0  0  0  0  0  0  0  0  0
   47.3450   29.1270   46.8330 O   0  0  0  0  0  0  0  0  0  0  0  0
   43.7366   36.6521   44.7085 H   0  0  0  0  0  0  0  0  0  0  0  0
   45.0061   36.4056   42.5579 H   0  0  0  0  0  0  0  0  0  0  0  0
   46.7079   34.5664   42.3656 H   0  0  0  0  0  0  0  0  0  0  0  0
   47.8300   32.5615   45.9585 H   0  0  0  0  0  0  0  0  0  0  0  0
   44.1054   33.2383   48.0007 H   0  0  0  0  0  0  0  0  0  0  0  0
   48.7145   32.3291   49.7554 H   0  0  0  0  0  0  0  0  0  0  0  0
   50.4985   30.8887   50.6753 H   0  0  0  0  0  0  0  0  0  0  0  0
   50.7662   28.5755   49.7350 H   0  0  0  0  0  0  0  0  0  0  0  0
   49.2644   27.7842   47.9343 H   0  0  0  0  0  0  0  0  0  0  0  0
   46.6263   29.6925   46.4538 H   0  0  0  0  0  0  0  0  0  0  0  0
  1  6  2  0
  2  1  1  0
  3  2  2  0
  3  4  1  0
  4  5  2  0
  5  6  1  0
  5  7  1  0
  7  8  1  0
  7 11  1  0
  8  9  2  0
  9 12  1  0
  9 10  1  0
 11 10  2  0
 12 13  2  0
 13 14  1  0
 15 14  2  0
 16 15  1  0
 17 16  2  0
 17 12  1  0
 18 17  1  0
  1 19  1  0
  2 20  1  0
  3 21  1  0
  8 22  1  0
 11 23  1  0
 13 24  1  0
 14 25  1  0
 15 26  1  0
 16 27  1  0
 18 28  1  0
M  ISO  8  19  14  20  14  21  14  22  14  23  14  24  14  25  14  26  14
M  ISO  2  27  14  28   3
M  END
>  <minimizedAffinity>  (1) 
-5.67847633

>  <minimizedRMSD>  (1) 
0.185834959

$$$$
