
     RDKit          3D

 29 31  0  0  0  0  0  0  0  0999 V2000
   44.4600   35.8170   44.6010 C   0  0  0  0  0  0  0  0  0  0  0  0
   45.1720   35.6900   43.3910 C   0  0  0  0  0  0  0  0  0  0  0  0
   46.1540   34.6850   43.2960 C   0  0  0  0  0  0  0  0  0  0  0  0
   46.3510   33.9050   44.3710 N   0  0  0  0  0  0  0  0  0  0  0  0
   45.6590   34.0420   45.5190 C   0  0  0  0  0  0  0  0  0  0  0  0
   44.7220   34.9830   45.6490 N   0  0  0  0  0  0  0  0  0  0  0  0
   45.8780   33.2060   46.6570 N   0  0  0  0  0  0  0  0  0  0  0  0
   47.0690   32.5520   46.7010 C   0  0  0  0  0  0  0  0  0  0  0  0
   47.0350   31.8200   47.8830 C   0  0  0  0  0  0  0  0  0  0  0  0
   45.8760   32.0310   48.5120 N   0  0  0  0  0  0  0  0  0  0  0  0
   45.1620   32.8710   47.7780 C   0  0  0  0  0  0  0  0  0  0  0  0
   48.0910   30.9520   48.3760 C   0  0  0  0  0  0  0  0  0  0  0  0
   49.0320   31.4610   49.2320 C   0  0  0  0  0  0  0  0  0  0  0  0
   50.0590   30.6990   49.7360 C   0  0  0  0  0  0  0  0  0  0  0  0
   50.1250   29.3670   49.3500 C   0  0  0  0  0  0  0  0  0  0  0  0
   49.1860   28.8320   48.4870 C   0  0  0  0  0  0  0  0  0  0  0  0
   48.1680   29.6350   48.0020 C   0  0  0  0  0  0  0  0  0  0  0  0
   47.1970   29.0610   47.1020 C   0  0  0  0  0  0  0  0  0  0  0  0
   46.1490   28.4330   47.3640 O   0  0  0  0  0  0  0  0  0  0  0  0
   43.6877   36.5939   44.7012 H   0  0  0  0  0  0  0  0  0  0  0  0
   44.9658   36.3589   42.5425 H   0  0  0  0  0  0  0  0  0  0  0  0
   46.7383   34.5442   42.3747 H   0  0  0  0  0  0  0  0  0  0  0  0
   47.8829   32.5929   45.9621 H   0  0  0  0  0  0  0  0  0  0  0  0
   44.1564   33.2406   48.0273 H   0  0  0  0  0  0  0  0  0  0  0  0
   48.9631   32.5185   49.5268 H   0  0  0  0  0  0  0  0  0  0  0  0
   50.8033   31.1299   50.4218 H   0  0  0  0  0  0  0  0  0  0  0  0
   50.9342   28.7293   49.7354 H   0  0  0  0  0  0  0  0  0  0  0  0
   49.2477   27.7752   48.1879 H   0  0  0  0  0  0  0  0  0  0  0  0
   47.4101   29.1957   46.0313 H   0  0  0  0  0  0  0  0  0  0  0  0
  1  6  2  0
  2  1  1  0
  3  2  2  0
  3  4  1  0
  4  5  2  0
  5  6  1  0
  5  7  1  0
  7  8  1  0
  7 11  1  0
  8  9  2  0
  9 12  1  0
  9 10  1  0
 11 10  2  0
 12 13  2  0
 13 14  1  0
 15 14  2  0
 16 15  1  0
 17 12  1  0
 17 16  2  0
 18 19  2  0
 18 17  1  0
  1 20  1  0
  2 21  1  0
  3 22  1  0
  8 23  1  0
 11 24  1  0
 13 25  1  0
 14 26  1  0
 15 27  1  0
 16 28  1  0
 18 29  1  0
M  ISO  8  20  14  21  14  22  14  23  14  24  14  25  14  26  14  27  14
M  ISO  2  28  14  29   6
M  END
>  <minimizedAffinity>  (1) 
-5.53930855

>  <minimizedRMSD>  (1) 
0.457638413

$$$$
