
     RDKit          3D

 29 31  0  0  0  0  0  0  0  0999 V2000
   44.4600   35.8280   44.5850 C   0  0  0  0  0  0  0  0  0  0  0  0
   45.1800   35.7280   43.3980 C   0  0  0  0  0  0  0  0  0  0  0  0
   46.1650   34.7540   43.2910 C   0  0  0  0  0  0  0  0  0  0  0  0
   46.3820   33.9390   44.3550 N   0  0  0  0  0  0  0  0  0  0  0  0
   45.6540   34.0660   45.5060 C   0  0  0  0  0  0  0  0  0  0  0  0
   44.6980   34.9960   45.6380 N   0  0  0  0  0  0  0  0  0  0  0  0
   45.8840   33.2070   46.6200 N   0  0  0  0  0  0  0  0  0  0  0  0
   47.0740   32.5720   46.6800 C   0  0  0  0  0  0  0  0  0  0  0  0
   47.0370   31.8130   47.8430 C   0  0  0  0  0  0  0  0  0  0  0  0
   45.8530   31.9970   48.4530 N   0  0  0  0  0  0  0  0  0  0  0  0
   45.1430   32.8420   47.7200 C   0  0  0  0  0  0  0  0  0  0  0  0
   48.0950   30.9500   48.3450 C   0  0  0  0  0  0  0  0  0  0  0  0
   49.0510   31.4900   49.1760 C   0  0  0  0  0  0  0  0  0  0  0  0
   50.0760   30.7380   49.6870 C   0  0  0  0  0  0  0  0  0  0  0  0
   50.1260   29.3950   49.3410 C   0  0  0  0  0  0  0  0  0  0  0  0
   49.1720   28.8410   48.5080 C   0  0  0  0  0  0  0  0  0  0  0  0
   48.1470   29.6210   48.0050 C   0  0  0  0  0  0  0  0  0  0  0  0
   47.1840   29.0280   47.1560 N   0  0  0  0  0  0  0  0  0  0  0  0
   43.6794   36.5977   44.6755 H   0  0  0  0  0  0  0  0  0  0  0  0
   44.9727   36.4085   42.5590 H   0  0  0  0  0  0  0  0  0  0  0  0
   46.7538   34.6460   42.3682 H   0  0  0  0  0  0  0  0  0  0  0  0
   47.9010   32.6412   45.9580 H   0  0  0  0  0  0  0  0  0  0  0  0
   44.1272   33.1941   47.9529 H   0  0  0  0  0  0  0  0  0  0  0  0
   48.9900   32.5568   49.4373 H   0  0  0  0  0  0  0  0  0  0  0  0
   50.8333   31.1835   50.3488 H   0  0  0  0  0  0  0  0  0  0  0  0
   50.9355   28.7629   49.7348 H   0  0  0  0  0  0  0  0  0  0  0  0
   49.2285   27.7746   48.2440 H   0  0  0  0  0  0  0  0  0  0  0  0
   47.2516   28.0276   46.9202 H   0  0  0  0  0  0  0  0  0  0  0  0
   46.4150   29.5965   46.7734 H   0  0  0  0  0  0  0  0  0  0  0  0
  1  6  2  0
  2  1  1  0
  3  2  2  0
  3  4  1  0
  4  5  2  0
  5  6  1  0
  5  7  1  0
  7  8  1  0
  7 11  1  0
  8  9  2  0
  9 12  1  0
  9 10  1  0
 11 10  2  0
 12 13  2  0
 13 14  1  0
 15 14  2  0
 16 15  1  0
 17 12  1  0
 17 16  2  0
 18 17  1  0
  1 19  1  0
  2 20  1  0
  3 21  1  0
  8 22  1  0
 11 23  1  0
 13 24  1  0
 14 25  1  0
 15 26  1  0
 16 27  1  0
 18 28  1  0
 18 29  1  0
M  ISO  8  19  14  20  14  21  14  22  14  23  14  24  14  25  14  26  14
M  ISO  1  27  14
M  END
>  <minimizedAffinity>  (1) 
-5.57956886

>  <minimizedRMSD>  (1) 
0.359643698

$$$$
