
     RDKit          3D

 43 47  0  0  0  0  0  0  0  0999 V2000
   48.3980   31.1080   48.6040 C   0  0  0  0  0  0  0  0  0  0  0  0
   49.4120   31.7740   49.2680 C   0  0  0  0  0  0  0  0  0  0  0  0
   50.4870   31.1040   49.7880 C   0  0  0  0  0  0  0  0  0  0  0  0
   50.5450   29.7350   49.6380 C   0  0  0  0  0  0  0  0  0  0  0  0
   49.5340   29.0530   48.9740 C   0  0  0  0  0  0  0  0  0  0  0  0
   48.4490   29.7440   48.4510 C   0  0  0  0  0  0  0  0  0  0  0  0
   44.4330   35.5700   44.6730 C   0  0  0  0  0  0  0  0  0  0  0  0
   45.1590   35.4850   43.5000 C   0  0  0  0  0  0  0  0  0  0  0  0
   46.2110   34.5910   43.4340 C   0  0  0  0  0  0  0  0  0  0  0  0
   46.4840   33.8360   44.5220 N   0  0  0  0  0  0  0  0  0  0  0  0
   45.7410   33.9480   45.6710 C   0  0  0  0  0  0  0  0  0  0  0  0
   44.7190   34.8000   45.7690 N   0  0  0  0  0  0  0  0  0  0  0  0
   46.0350   33.1490   46.8120 N   0  0  0  0  0  0  0  0  0  0  0  0
   47.2650   32.5960   46.8870 C   0  0  0  0  0  0  0  0  0  0  0  0
   47.2860   31.8810   48.0770 C   0  0  0  0  0  0  0  0  0  0  0  0
   46.0920   32.0110   48.6900 N   0  0  0  0  0  0  0  0  0  0  0  0
   45.3290   32.7780   47.9310 C   0  0  0  0  0  0  0  0  0  0  0  0
   49.5690   27.6000   48.7990 C   0  0  0  0  0  0  0  0  0  0  0  0
   48.9290   27.0010   47.7110 C   0  0  0  0  0  0  0  0  0  0  0  0
   49.1320   25.6830   47.8180 N   0  0  0  0  0  0  0  0  0  0  0  0
   49.8690   25.3860   48.9170 C   0  0  0  0  0  0  0  0  0  0  0  0
   50.3610   24.2310   49.5000 C   0  0  0  0  0  0  0  0  0  0  0  0
   51.1040   24.3020   50.6660 C   0  0  0  0  0  0  0  0  0  0  0  0
   51.3600   25.5250   51.2550 C   0  0  0  0  0  0  0  0  0  0  0  0
   50.8860   26.7060   50.7060 C   0  0  0  0  0  0  0  0  0  0  0  0
   50.1420   26.5910   49.5320 C   0  0  0  0  0  0  0  0  0  0  0  0
   47.4390   29.0290   47.7830 N   0  0  0  0  0  0  0  0  0  0  0  0
   49.3536   32.8666   49.3809 H   0  0  0  0  0  0  0  0  0  0  0  0
   51.2867   31.6463   50.3138 H   0  0  0  0  0  0  0  0  0  0  0  0
   51.4001   29.1776   50.0481 H   0  0  0  0  0  0  0  0  0  0  0  0
   43.5958   36.2813   44.7283 H   0  0  0  0  0  0  0  0  0  0  0  0
   44.9046   36.1164   42.6360 H   0  0  0  0  0  0  0  0  0  0  0  0
   46.8122   34.4959   42.5177 H   0  0  0  0  0  0  0  0  0  0  0  0
   48.0815   32.6922   46.1562 H   0  0  0  0  0  0  0  0  0  0  0  0
   44.2939   33.0724   48.1587 H   0  0  0  0  0  0  0  0  0  0  0  0
   48.3659   27.5149   46.9180 H   0  0  0  0  0  0  0  0  0  0  0  0
   48.7745   24.9838   47.1515 H   0  0  0  0  0  0  0  0  0  0  0  0
   50.1611   23.2541   49.0356 H   0  0  0  0  0  0  0  0  0  0  0  0
   51.4920   23.3809   51.1253 H   0  0  0  0  0  0  0  0  0  0  0  0
   51.9534   25.5624   52.1805 H   0  0  0  0  0  0  0  0  0  0  0  0
   51.0860   27.6823   51.1716 H   0  0  0  0  0  0  0  0  0  0  0  0
   47.5099   28.0060   47.6867 H   0  0  0  0  0  0  0  0  0  0  0  0
   46.6284   29.5283   47.3900 H   0  0  0  0  0  0  0  0  0  0  0  0
  1  2  2  0
  2  3  1  0
  4  3  2  0
  5  4  1  0
  6  1  1  0
  6  5  2  0
  7 12  2  0
  8  7  1  0
  9  8  2  0
  9 10  1  0
 10 11  2  0
 11 12  1  0
 11 13  1  0
 13 14  1  0
 13 17  1  0
 14 15  2  0
 15  1  1  0
 15 16  1  0
 17 16  2  0
 18  5  1  0
 18 26  1  0
 19 20  1  0
 19 18  2  0
 20 21  1  0
 21 22  1  0
 21 26  2  0
 22 23  2  0
 23 24  1  0
 25 24  2  0
 26 25  1  0
 27  6  1  0
  2 28  1  0
  3 29  1  0
  4 30  1  0
  7 31  1  0
  8 32  1  0
  9 33  1  0
 14 34  1  0
 17 35  1  0
 19 36  1  0
 20 37  1  0
 22 38  1  0
 23 39  1  0
 24 40  1  0
 25 41  1  0
 27 42  1  0
 27 43  1  0
M  ISO  8  28  14  29  14  30  14  31  14  32  14  33  14  34  14  35  14
M  ISO  6  36  14  37   9  38  14  39  14  40  14  41  14
M  END
>  <minimizedAffinity>  (1) 
-6.35530615

>  <minimizedRMSD>  (1) 
0.846658945

$$$$
