
     RDKit          3D

 43 45  0  0  0  0  0  0  0  0999 V2000
   45.4620   34.9650   42.6820 C   0  0  0  0  0  0  0  0  0  0  0  0
   45.0990   34.5270   45.1090 C   0  0  0  0  0  0  0  0  0  0  0  0
   45.8080   34.2160   43.9350 C   0  0  0  0  0  0  0  0  0  0  0  0
   46.7820   33.2300   44.0290 C   0  0  0  0  0  0  0  0  0  0  0  0
   47.0020   32.6270   45.2150 N   0  0  0  0  0  0  0  0  0  0  0  0
   46.2980   32.9550   46.3260 C   0  0  0  0  0  0  0  0  0  0  0  0
   45.3470   33.9070   46.2670 N   0  0  0  0  0  0  0  0  0  0  0  0
   46.5970   34.8720   41.7100 C   0  0  0  0  0  0  0  0  0  0  0  0
   45.1780   36.3950   43.0490 C   0  0  0  0  0  0  0  0  0  0  0  0
   44.1830   34.3830   42.1160 C   0  0  0  0  0  0  0  0  0  0  0  0
   43.1890   35.3510   42.1520 O   0  0  0  0  0  0  0  0  0  0  0  0
   42.0790   35.1550   41.3300 C   0  0  0  0  0  0  0  0  0  0  0  0
   40.9940   36.0240   41.3010 C   0  0  0  0  0  0  0  0  0  0  0  0
   40.1100   35.4730   40.3580 C   0  0  0  0  0  0  0  0  0  0  0  0
   40.6530   34.3500   39.8700 N   0  0  0  0  0  0  0  0  0  0  0  0
   41.8200   34.1590   40.4440 N   0  0  0  0  0  0  0  0  0  0  0  0
   40.0270   33.5100   38.8750 C   0  0  0  0  0  0  0  0  0  0  0  0
   38.9530   34.2370   38.1080 C   0  0  0  0  0  0  0  0  0  0  0  0
   38.2600   33.0860   37.4040 C   0  0  0  0  0  0  0  0  0  0  0  0
   38.3940   31.9070   38.3610 C   0  0  0  0  0  0  0  0  0  0  0  0
   39.1870   32.4390   39.5600 C   0  0  0  0  0  0  0  0  0  0  0  0
   44.3189   35.3017   45.0734 H   0  0  0  0  0  0  0  0  0  0  0  0
   47.3687   32.9436   43.1437 H   0  0  0  0  0  0  0  0  0  0  0  0
   46.5038   32.4428   47.2775 H   0  0  0  0  0  0  0  0  0  0  0  0
   47.5460   34.7942   42.2608 H   0  0  0  0  0  0  0  0  0  0  0  0
   46.4661   33.9816   41.0775 H   0  0  0  0  0  0  0  0  0  0  0  0
   46.6128   35.7719   41.0775 H   0  0  0  0  0  0  0  0  0  0  0  0
   45.1581   36.4954   44.1442 H   0  0  0  0  0  0  0  0  0  0  0  0
   45.9650   37.0429   42.6356 H   0  0  0  0  0  0  0  0  0  0  0  0
   44.2031   36.6930   42.6356 H   0  0  0  0  0  0  0  0  0  0  0  0
   43.8747   33.5158   42.7184 H   0  0  0  0  0  0  0  0  0  0  0  0
   44.3499   34.0614   41.0774 H   0  0  0  0  0  0  0  0  0  0  0  0
   40.8573   36.9436   41.8889 H   0  0  0  0  0  0  0  0  0  0  0  0
   39.1355   35.8934   40.0690 H   0  0  0  0  0  0  0  0  0  0  0  0
   40.8556   33.1499   38.2475 H   0  0  0  0  0  0  0  0  0  0  0  0
   38.2660   34.7686   38.7828 H   0  0  0  0  0  0  0  0  0  0  0  0
   39.3322   35.0166   37.4309 H   0  0  0  0  0  0  0  0  0  0  0  0
   37.2005   33.3221   37.2260 H   0  0  0  0  0  0  0  0  0  0  0  0
   38.7028   32.8742   36.4196 H   0  0  0  0  0  0  0  0  0  0  0  0
   37.4014   31.5575   38.6814 H   0  0  0  0  0  0  0  0  0  0  0  0
   38.8976   31.0520   37.8863 H   0  0  0  0  0  0  0  0  0  0  0  0
   39.8144   31.6570   40.0127 H   0  0  0  0  0  0  0  0  0  0  0  0
   38.5709   32.8010   40.3963 H   0  0  0  0  0  0  0  0  0  0  0  0
  1  9  1  0
  1  3  1  0
  2  7  2  0
  3  4  2  0
  3  2  1  0
  4  5  1  0
  5  6  2  0
  7  6  1  0
  8  1  1  0
 10 11  1  0
 10  1  1  0
 12 11  1  0
 13 12  1  0
 14 13  2  0
 15 14  1  0
 15 16  1  0
 16 12  2  0
 17 21  1  0
 17 15  1  0
 18 17  1  0
 19 18  1  0
 19 20  1  0
 20 21  1  0
  2 22  1  0
  4 23  1  0
  6 24  1  0
  8 25  1  0
  8 26  1  0
  8 27  1  0
  9 28  1  0
  9 29  1  0
  9 30  1  0
 10 31  1  0
 10 32  1  0
 13 33  1  0
 14 34  1  0
 17 35  1  0
 18 36  1  0
 18 37  1  0
 19 38  1  0
 19 39  1  0
 20 40  1  0
 20 41  1  0
 21 42  1  0
 21 43  1  0
M  ISO  8  22  14  23  14  24  14  25   8  26   8  27   8  28   8  29   8
M  ISO  8  30   8  31   8  32   8  33  14  34  14  35  13  36  13  37  13
M  ISO  6  38  13  39  13  40  13  41  13  42  13  43  13
M  END
>  <minimizedAffinity>  (1) 
-5.84584999

>  <minimizedRMSD>  (1) 
1.59953606

$$$$
