
     RDKit          3D

 35 38  0  0  0  0  0  0  0  0999 V2000
   48.0590   31.0600   48.3710 C   0  0  0  0  0  0  0  0  0  0  0  0
   49.0270   31.6150   49.1770 C   0  0  0  0  0  0  0  0  0  0  0  0
   50.0490   30.8640   49.6980 C   0  0  0  0  0  0  0  0  0  0  0  0
   50.0860   29.5250   49.3930 C   0  0  0  0  0  0  0  0  0  0  0  0
   49.1110   28.9390   48.5740 C   0  0  0  0  0  0  0  0  0  0  0  0
   48.1030   29.7180   48.0690 C   0  0  0  0  0  0  0  0  0  0  0  0
   44.4440   35.8530   44.4900 C   0  0  0  0  0  0  0  0  0  0  0  0
   45.1760   35.7290   43.3090 C   0  0  0  0  0  0  0  0  0  0  0  0
   46.1580   34.7610   43.2430 C   0  0  0  0  0  0  0  0  0  0  0  0
   46.3780   33.9720   44.3140 N   0  0  0  0  0  0  0  0  0  0  0  0
   45.6360   34.1230   45.4640 C   0  0  0  0  0  0  0  0  0  0  0  0
   44.6680   35.0490   45.5800 N   0  0  0  0  0  0  0  0  0  0  0  0
   45.8740   33.2820   46.5880 N   0  0  0  0  0  0  0  0  0  0  0  0
   47.0530   32.6520   46.6680 C   0  0  0  0  0  0  0  0  0  0  0  0
   47.0120   31.9080   47.8530 C   0  0  0  0  0  0  0  0  0  0  0  0
   45.8150   32.1110   48.4500 N   0  0  0  0  0  0  0  0  0  0  0  0
   45.1150   32.9400   47.6960 C   0  0  0  0  0  0  0  0  0  0  0  0
   49.2860   27.4930   48.3360 C   0  0  0  0  0  0  0  0  0  0  0  0
   49.8980   26.7260   49.4280 C   0  0  0  0  0  0  0  0  0  0  0  0
   49.8960   25.0140   48.6600 S   0  0  0  0  0  0  0  0  0  0  0  0
   49.0920   25.6550   47.0610 C   0  0  0  0  0  0  0  0  0  0  0  0
   48.9390   26.8370   47.2290 N   0  0  0  0  0  0  0  0  0  0  0  0
   47.1240   29.1200   47.2600 N   0  0  0  0  0  0  0  0  0  0  0  0
   48.9794   32.6892   49.4092 H   0  0  0  0  0  0  0  0  0  0  0  0
   50.8163   31.3200   50.3409 H   0  0  0  0  0  0  0  0  0  0  0  0
   50.8959   28.9011   49.7991 H   0  0  0  0  0  0  0  0  0  0  0  0
   43.6598   36.6220   44.5500 H   0  0  0  0  0  0  0  0  0  0  0  0
   44.9755   36.3870   42.4506 H   0  0  0  0  0  0  0  0  0  0  0  0
   46.7541   34.6348   42.3272 H   0  0  0  0  0  0  0  0  0  0  0  0
   47.8839   32.7078   45.9493 H   0  0  0  0  0  0  0  0  0  0  0  0
   44.0980   33.2993   47.9120 H   0  0  0  0  0  0  0  0  0  0  0  0
   50.2552   27.0593   50.4136 H   0  0  0  0  0  0  0  0  0  0  0  0
   48.8232   25.0690   46.1698 H   0  0  0  0  0  0  0  0  0  0  0  0
   47.1765   28.1137   47.0467 H   0  0  0  0  0  0  0  0  0  0  0  0
   46.3532   29.6875   46.8797 H   0  0  0  0  0  0  0  0  0  0  0  0
  1  2  2  0
  2  3  1  0
  4  3  2  0
  5  4  1  0
  6  1  1  0
  6  5  2  0
  7 12  2  0
  8  7  1  0
  9  8  2  0
  9 10  1  0
 10 11  2  0
 11 12  1  0
 11 13  1  0
 13 14  1  0
 13 17  1  0
 14 15  2  0
 15  1  1  0
 15 16  1  0
 17 16  2  0
 18  5  1  0
 18 19  2  0
 20 19  1  0
 21 22  2  0
 21 20  1  0
 22 18  1  0
 23  6  1  0
  2 24  1  0
  3 25  1  0
  4 26  1  0
  7 27  1  0
  8 28  1  0
  9 29  1  0
 14 30  1  0
 17 31  1  0
 19 32  1  0
 21 33  1  0
 23 34  1  0
 23 35  1  0
M  ISO  8  24  14  25  14  26  14  27  14  28  14  29  14  30  14  31  14
M  ISO  2  32  14  33  14
M  END
>  <minimizedAffinity>  (1) 
-5.80559397

>  <minimizedRMSD>  (1) 
0.718536973

$$$$
