
     RDKit          3D

 42 45  0  0  0  0  0  0  0  0999 V2000
   48.0280   30.8720   48.4080 C   0  0  0  0  0  0  0  0  0  0  0  0
   48.8450   31.3250   49.4240 C   0  0  0  0  0  0  0  0  0  0  0  0
   49.8430   30.5420   49.9430 C   0  0  0  0  0  0  0  0  0  0  0  0
   50.0080   29.2600   49.4070 C   0  0  0  0  0  0  0  0  0  0  0  0
   49.1830   28.7900   48.3720 C   0  0  0  0  0  0  0  0  0  0  0  0
   48.1980   29.6140   47.8870 C   0  0  0  0  0  0  0  0  0  0  0  0
   44.4980   35.8050   44.6250 C   0  0  0  0  0  0  0  0  0  0  0  0
   45.2130   35.6670   43.4250 C   0  0  0  0  0  0  0  0  0  0  0  0
   46.1690   34.6620   43.3220 C   0  0  0  0  0  0  0  0  0  0  0  0
   46.3680   33.8550   44.3930 N   0  0  0  0  0  0  0  0  0  0  0  0
   45.6530   34.0200   45.5450 C   0  0  0  0  0  0  0  0  0  0  0  0
   44.7280   34.9730   45.6810 N   0  0  0  0  0  0  0  0  0  0  0  0
   45.8710   33.1630   46.6740 N   0  0  0  0  0  0  0  0  0  0  0  0
   47.0400   32.5010   46.7300 C   0  0  0  0  0  0  0  0  0  0  0  0
   46.9970   31.7520   47.9070 C   0  0  0  0  0  0  0  0  0  0  0  0
   45.8160   31.9840   48.5180 N   0  0  0  0  0  0  0  0  0  0  0  0
   45.1270   32.8350   47.7830 C   0  0  0  0  0  0  0  0  0  0  0  0
   49.5660   27.4390   47.9910 C   0  0  0  0  0  0  0  0  0  0  0  0
   49.3770   26.3770   49.0460 C   0  0  0  0  0  0  0  0  0  0  0  0
   50.0610   25.1870   48.3600 C   0  0  0  0  0  0  0  0  0  0  0  0
   51.0390   25.7900   47.3440 C   0  0  0  0  0  0  0  0  0  0  0  0
   51.0550   27.2890   47.7370 C   0  0  0  0  0  0  0  0  0  0  0  0
   47.3780   29.1250   46.8570 N   0  0  0  0  0  0  0  0  0  0  0  0
   48.6917   32.3373   49.8263 H   0  0  0  0  0  0  0  0  0  0  0  0
   50.4915   30.9085   50.7524 H   0  0  0  0  0  0  0  0  0  0  0  0
   50.7995   28.6074   49.8041 H   0  0  0  0  0  0  0  0  0  0  0  0
   43.7399   36.5970   44.7152 H   0  0  0  0  0  0  0  0  0  0  0  0
   45.0202   36.3432   42.5791 H   0  0  0  0  0  0  0  0  0  0  0  0
   46.7479   34.5257   42.3966 H   0  0  0  0  0  0  0  0  0  0  0  0
   47.8610   32.5414   45.9990 H   0  0  0  0  0  0  0  0  0  0  0  0
   44.1233   33.2189   48.0181 H   0  0  0  0  0  0  0  0  0  0  0  0
   48.9133   27.3004   47.1165 H   0  0  0  0  0  0  0  0  0  0  0  0
   49.8763   26.6458   49.9886 H   0  0  0  0  0  0  0  0  0  0  0  0
   48.3320   26.2009   49.3411 H   0  0  0  0  0  0  0  0  0  0  0  0
   50.6040   24.5800   49.0994 H   0  0  0  0  0  0  0  0  0  0  0  0
   49.3283   24.5277   47.8717 H   0  0  0  0  0  0  0  0  0  0  0  0
   50.6762   25.6534   46.3146 H   0  0  0  0  0  0  0  0  0  0  0  0
   52.0343   25.3221   47.3646 H   0  0  0  0  0  0  0  0  0  0  0  0
   51.6556   27.4798   48.6386 H   0  0  0  0  0  0  0  0  0  0  0  0
   51.4986   27.9814   47.0064 H   0  0  0  0  0  0  0  0  0  0  0  0
   46.6292   29.7169   46.4699 H   0  0  0  0  0  0  0  0  0  0  0  0
   47.5254   28.1745   46.4887 H   0  0  0  0  0  0  0  0  0  0  0  0
  1  2  2  0
  2  3  1  0
  4  3  2  0
  5  4  1  0
  6  5  2  0
  6  1  1  0
  7 12  2  0
  8  7  1  0
  9  8  2  0
  9 10  1  0
 10 11  2  0
 11 12  1  0
 11 13  1  0
 13 14  1  0
 13 17  1  0
 14 15  2  0
 15  1  1  0
 15 16  1  0
 17 16  2  0
 18  5  1  0
 18 19  1  0
 20 19  1  0
 21 22  1  0
 21 20  1  0
 22 18  1  0
 23  6  1  0
  2 24  1  0
  3 25  1  0
  4 26  1  0
  7 27  1  0
  8 28  1  0
  9 29  1  0
 14 30  1  0
 17 31  1  0
 18 32  1  0
 19 33  1  0
 19 34  1  0
 20 35  1  0
 20 36  1  0
 21 37  1  0
 21 38  1  0
 22 39  1  0
 22 40  1  0
 23 41  1  0
 23 42  1  0
M  ISO  8  24  14  25  14  26  14  27  14  28  14  29  14  30  14  31  14
M  ISO  8  32  13  33  13  34  13  35  13  36  13  37  13  38  13  39  13
M  ISO  1  40  13
M  END
>  <minimizedAffinity>  (1) 
-5.84087086

>  <minimizedRMSD>  (1) 
0.488009036

$$$$
