
     RDKit          3D

 34 37  0  0  0  0  0  0  0  0999 V2000
   48.1100   30.9760   48.3730 C   0  0  0  0  0  0  0  0  0  0  0  0
   49.0640   31.5340   49.1870 C   0  0  0  0  0  0  0  0  0  0  0  0
   50.0860   30.7810   49.7070 C   0  0  0  0  0  0  0  0  0  0  0  0
   50.1270   29.4230   49.3820 C   0  0  0  0  0  0  0  0  0  0  0  0
   49.1720   28.8650   48.5670 C   0  0  0  0  0  0  0  0  0  0  0  0
   48.1520   29.6500   48.0570 C   0  0  0  0  0  0  0  0  0  0  0  0
   44.4550   35.8120   44.5730 C   0  0  0  0  0  0  0  0  0  0  0  0
   45.1740   35.7120   43.3960 C   0  0  0  0  0  0  0  0  0  0  0  0
   46.1630   34.7530   43.2950 C   0  0  0  0  0  0  0  0  0  0  0  0
   46.3840   33.9470   44.3650 N   0  0  0  0  0  0  0  0  0  0  0  0
   45.6520   34.0700   45.5200 C   0  0  0  0  0  0  0  0  0  0  0  0
   44.6970   34.9890   45.6340 N   0  0  0  0  0  0  0  0  0  0  0  0
   45.9000   33.2180   46.6260 N   0  0  0  0  0  0  0  0  0  0  0  0
   47.0880   32.5850   46.6990 C   0  0  0  0  0  0  0  0  0  0  0  0
   47.0550   31.8360   47.8570 C   0  0  0  0  0  0  0  0  0  0  0  0
   45.8660   32.0190   48.4650 N   0  0  0  0  0  0  0  0  0  0  0  0
   45.1530   32.8570   47.7290 C   0  0  0  0  0  0  0  0  0  0  0  0
   49.2510   27.4450   48.2520 C   0  0  0  0  0  0  0  0  0  0  0  0
   49.1820   26.8370   47.0670 N   0  0  0  0  0  0  0  0  0  0  0  0
   49.3000   25.5550   47.2570 O   0  0  0  0  0  0  0  0  0  0  0  0
   49.4470   25.2650   48.5270 C   0  0  0  0  0  0  0  0  0  0  0  0
   49.4170   26.4520   49.1620 N   0  0  0  0  0  0  0  0  0  0  0  0
   47.1820   29.0350   47.2170 N   0  0  0  0  0  0  0  0  0  0  0  0
   49.0079   32.6060   49.4271 H   0  0  0  0  0  0  0  0  0  0  0  0
   50.8487   31.2320   50.3589 H   0  0  0  0  0  0  0  0  0  0  0  0
   50.9340   28.7925   49.7836 H   0  0  0  0  0  0  0  0  0  0  0  0
   43.6672   36.5752   44.6561 H   0  0  0  0  0  0  0  0  0  0  0  0
   44.9616   36.3859   42.5530 H   0  0  0  0  0  0  0  0  0  0  0  0
   46.7547   34.6454   42.3739 H   0  0  0  0  0  0  0  0  0  0  0  0
   47.9173   32.6522   45.9795 H   0  0  0  0  0  0  0  0  0  0  0  0
   44.1356   33.2070   47.9581 H   0  0  0  0  0  0  0  0  0  0  0  0
   49.5685   24.2683   48.9763 H   0  0  0  0  0  0  0  0  0  0  0  0
   47.2496   28.0299   47.0025 H   0  0  0  0  0  0  0  0  0  0  0  0
   46.4123   29.5950   46.8235 H   0  0  0  0  0  0  0  0  0  0  0  0
  1  2  2  0
  2  3  1  0
  4  3  2  0
  5  4  1  0
  6  1  1  0
  6  5  2  0
  7 12  2  0
  8  7  1  0
  9  8  2  0
  9 10  1  0
 10 11  2  0
 11 12  1  0
 11 13  1  0
 13 14  1  0
 13 17  1  0
 14 15  2  0
 15  1  1  0
 15 16  1  0
 17 16  2  0
 18  5  1  0
 18 22  1  0
 19 20  1  0
 19 18  2  0
 20 21  1  0
 21 22  2  0
 23  6  1  0
  2 24  1  0
  3 25  1  0
  4 26  1  0
  7 27  1  0
  8 28  1  0
  9 29  1  0
 14 30  1  0
 17 31  1  0
 21 32  1  0
 23 33  1  0
 23 34  1  0
M  ISO  8  24  14  25  14  26  14  27  14  28  14  29  14  30  14  31  14
M  ISO  1  32  14
M  END
>  <minimizedAffinity>  (1) 
-5.79336357

>  <minimizedRMSD>  (1) 
0.177688271

$$$$
