
     RDKit          3D

 39 42  0  0  0  0  0  0  0  0999 V2000
   48.0730   30.8240   48.4560 C   0  0  0  0  0  0  0  0  0  0  0  0
   48.8580   31.2760   49.4940 C   0  0  0  0  0  0  0  0  0  0  0  0
   49.8530   30.4970   50.0290 C   0  0  0  0  0  0  0  0  0  0  0  0
   50.0480   29.2280   49.4890 C   0  0  0  0  0  0  0  0  0  0  0  0
   49.2660   28.7770   48.4540 C   0  0  0  0  0  0  0  0  0  0  0  0
   48.2620   29.5840   47.9270 C   0  0  0  0  0  0  0  0  0  0  0  0
   44.5290   35.7330   44.6440 C   0  0  0  0  0  0  0  0  0  0  0  0
   45.2510   35.6000   43.4510 C   0  0  0  0  0  0  0  0  0  0  0  0
   46.2230   34.5990   43.3540 C   0  0  0  0  0  0  0  0  0  0  0  0
   46.4180   33.7980   44.4340 N   0  0  0  0  0  0  0  0  0  0  0  0
   45.6890   33.9610   45.5870 C   0  0  0  0  0  0  0  0  0  0  0  0
   44.7620   34.9090   45.6920 N   0  0  0  0  0  0  0  0  0  0  0  0
   45.9050   33.1170   46.7060 N   0  0  0  0  0  0  0  0  0  0  0  0
   47.0750   32.4540   46.7700 C   0  0  0  0  0  0  0  0  0  0  0  0
   47.0320   31.7130   47.9400 C   0  0  0  0  0  0  0  0  0  0  0  0
   45.8530   31.9330   48.5660 N   0  0  0  0  0  0  0  0  0  0  0  0
   45.1710   32.7870   47.8120 C   0  0  0  0  0  0  0  0  0  0  0  0
   49.5410   27.4350   47.9510 C   0  0  0  0  0  0  0  0  0  0  0  0
   50.3760   27.2110   46.8620 C   0  0  0  0  0  0  0  0  0  0  0  0
   50.5870   25.9080   46.4430 C   0  0  0  0  0  0  0  0  0  0  0  0
   49.9570   24.8740   47.1280 C   0  0  0  0  0  0  0  0  0  0  0  0
   49.1250   25.0670   48.2080 C   0  0  0  0  0  0  0  0  0  0  0  0
   48.9240   26.3890   48.6160 C   0  0  0  0  0  0  0  0  0  0  0  0
   47.4800   29.0900   46.8670 N   0  0  0  0  0  0  0  0  0  0  0  0
   48.6836   32.2823   49.9025 H   0  0  0  0  0  0  0  0  0  0  0  0
   50.4767   30.8631   50.8579 H   0  0  0  0  0  0  0  0  0  0  0  0
   50.8376   28.5794   49.8963 H   0  0  0  0  0  0  0  0  0  0  0  0
   43.7627   36.5174   44.7301 H   0  0  0  0  0  0  0  0  0  0  0  0
   45.0564   36.2729   42.6029 H   0  0  0  0  0  0  0  0  0  0  0  0
   46.8103   34.4647   42.4336 H   0  0  0  0  0  0  0  0  0  0  0  0
   47.8981   32.4927   46.0413 H   0  0  0  0  0  0  0  0  0  0  0  0
   44.1664   33.1714   48.0423 H   0  0  0  0  0  0  0  0  0  0  0  0
   50.8594   28.0521   46.3435 H   0  0  0  0  0  0  0  0  0  0  0  0
   51.2407   25.6946   45.5844 H   0  0  0  0  0  0  0  0  0  0  0  0
   50.1337   23.8431   46.7873 H   0  0  0  0  0  0  0  0  0  0  0  0
   48.6428   24.2235   48.7238 H   0  0  0  0  0  0  0  0  0  0  0  0
   48.2690   26.6003   49.4741 H   0  0  0  0  0  0  0  0  0  0  0  0
   46.7323   29.6724   46.4637 H   0  0  0  0  0  0  0  0  0  0  0  0
   47.6552   28.1460   46.4942 H   0  0  0  0  0  0  0  0  0  0  0  0
  1  2  2  0
  2  3  1  0
  4  3  2  0
  5  4  1  0
  6  5  2  0
  6  1  1  0
  7 12  2  0
  8  7  1  0
  9  8  2  0
  9 10  1  0
 10 11  2  0
 11 12  1  0
 11 13  1  0
 13 14  1  0
 13 17  1  0
 14 15  2  0
 15  1  1  0
 15 16  1  0
 17 16  2  0
 18  5  1  0
 18 23  1  0
 19 18  2  0
 20 19  1  0
 20 21  2  0
 21 22  1  0
 22 23  2  0
 24  6  1  0
  2 25  1  0
  3 26  1  0
  4 27  1  0
  7 28  1  0
  8 29  1  0
  9 30  1  0
 14 31  1  0
 17 32  1  0
 19 33  1  0
 20 34  1  0
 21 35  1  0
 22 36  1  0
 23 37  1  0
 24 38  1  0
 24 39  1  0
M  ISO  8  25  14  26  14  27  14  28  14  29  14  30  14  31  14  32  14
M  ISO  5  33  14  34  14  35  14  36  14  37  14
M  END
>  <minimizedAffinity>  (1) 
-5.79493904

>  <minimizedRMSD>  (1) 
0.503587067

$$$$
