
     RDKit          3D

 38 40  0  0  0  0  0  0  0  0999 V2000
   44.4430   35.8420   44.5220 C   0  0  0  0  0  0  0  0  0  0  0  0
   45.1700   35.7340   43.3470 C   0  0  0  0  0  0  0  0  0  0  0  0
   46.1560   34.7720   43.2630 C   0  0  0  0  0  0  0  0  0  0  0  0
   46.3720   33.9720   44.3380 N   0  0  0  0  0  0  0  0  0  0  0  0
   45.6420   34.1010   45.4780 C   0  0  0  0  0  0  0  0  0  0  0  0
   44.6790   35.0240   45.5890 N   0  0  0  0  0  0  0  0  0  0  0  0
   45.8680   33.2580   46.6100 N   0  0  0  0  0  0  0  0  0  0  0  0
   47.0600   32.6270   46.6780 C   0  0  0  0  0  0  0  0  0  0  0  0
   47.0320   31.8840   47.8480 C   0  0  0  0  0  0  0  0  0  0  0  0
   45.8490   32.0800   48.4490 N   0  0  0  0  0  0  0  0  0  0  0  0
   45.1330   32.9110   47.7080 C   0  0  0  0  0  0  0  0  0  0  0  0
   48.0900   31.0310   48.3620 C   0  0  0  0  0  0  0  0  0  0  0  0
   49.0330   31.5900   49.2020 C   0  0  0  0  0  0  0  0  0  0  0  0
   50.0570   30.8410   49.7220 C   0  0  0  0  0  0  0  0  0  0  0  0
   50.1200   29.5060   49.3810 C   0  0  0  0  0  0  0  0  0  0  0  0
   49.1770   28.9270   48.5350 C   0  0  0  0  0  0  0  0  0  0  0  0
   48.1590   29.6960   48.0250 C   0  0  0  0  0  0  0  0  0  0  0  0
   47.2090   29.1110   47.1720 N   0  0  0  0  0  0  0  0  0  0  0  0
   49.3550   27.4840   48.2460 C   0  0  0  0  0  0  0  0  0  0  0  0
   49.9420   26.8260   49.4940 C   0  0  0  0  0  0  0  0  0  0  0  0
   50.2980   27.2320   47.1020 C   0  0  0  0  0  0  0  0  0  0  0  0
   43.6556   36.6065   44.5967 H   0  0  0  0  0  0  0  0  0  0  0  0
   44.9651   36.4022   42.4976 H   0  0  0  0  0  0  0  0  0  0  0  0
   46.7529   34.6563   42.3463 H   0  0  0  0  0  0  0  0  0  0  0  0
   47.8848   32.6898   45.9530 H   0  0  0  0  0  0  0  0  0  0  0  0
   44.1165   33.2631   47.9378 H   0  0  0  0  0  0  0  0  0  0  0  0
   48.9612   32.6572   49.4589 H   0  0  0  0  0  0  0  0  0  0  0  0
   50.8055   31.2911   50.3908 H   0  0  0  0  0  0  0  0  0  0  0  0
   50.9327   28.8850   49.7860 H   0  0  0  0  0  0  0  0  0  0  0  0
   47.2782   28.1117   46.9324 H   0  0  0  0  0  0  0  0  0  0  0  0
   46.4430   29.6813   46.7860 H   0  0  0  0  0  0  0  0  0  0  0  0
   48.3737   27.0708   47.9697 H   0  0  0  0  0  0  0  0  0  0  0  0
   49.5190   27.3002   50.3919 H   0  0  0  0  0  0  0  0  0  0  0  0
   49.6946   25.7542   49.4942 H   0  0  0  0  0  0  0  0  0  0  0  0
   51.0350   26.9500   49.4942 H   0  0  0  0  0  0  0  0  0  0  0  0
   51.2901   26.9669   47.4962 H   0  0  0  0  0  0  0  0  0  0  0  0
   49.9150   26.4047   46.4865 H   0  0  0  0  0  0  0  0  0  0  0  0
   50.3787   28.1401   46.4865 H   0  0  0  0  0  0  0  0  0  0  0  0
  1  6  2  0
  2  1  1  0
  3  2  2  0
  3  4  1  0
  4  5  2  0
  5  6  1  0
  5  7  1  0
  7  8  1  0
  7 11  1  0
  8  9  2  0
  9 12  1  0
  9 10  1  0
 11 10  2  0
 12 13  2  0
 13 14  1  0
 15 14  2  0
 16 15  1  0
 17 12  1  0
 17 16  2  0
 18 17  1  0
 19 16  1  0
 19 20  1  0
 21 19  1  0
  1 22  1  0
  2 23  1  0
  3 24  1  0
  8 25  1  0
 11 26  1  0
 13 27  1  0
 14 28  1  0
 15 29  1  0
 18 30  1  0
 18 31  1  0
 19 32  1  0
 20 33  1  0
 20 34  1  0
 20 35  1  0
 21 36  1  0
 21 37  1  0
 21 38  1  0
M  ISO  8  22  14  23  14  24  14  25  14  26  14  27  14  28  14  29  14
M  ISO  7  32   8  33   8  34   8  35   8  36   8  37   8  38   8
M  END
>  <minimizedAffinity>  (1) 
-5.68960142

>  <minimizedRMSD>  (1) 
0.515976965

$$$$
