
     RDKit          3D

 35 37  0  0  0  0  0  0  0  0999 V2000
   44.4350   35.8500   44.5150 C   0  0  0  0  0  0  0  0  0  0  0  0
   45.1600   35.7370   43.3440 C   0  0  0  0  0  0  0  0  0  0  0  0
   46.1620   34.7670   43.2500 C   0  0  0  0  0  0  0  0  0  0  0  0
   46.3810   33.9710   44.3240 N   0  0  0  0  0  0  0  0  0  0  0  0
   45.6410   34.1160   45.4650 C   0  0  0  0  0  0  0  0  0  0  0  0
   44.6810   35.0370   45.5710 N   0  0  0  0  0  0  0  0  0  0  0  0
   45.8740   33.2750   46.5940 N   0  0  0  0  0  0  0  0  0  0  0  0
   47.0620   32.6440   46.6870 C   0  0  0  0  0  0  0  0  0  0  0  0
   47.0140   31.9090   47.8600 C   0  0  0  0  0  0  0  0  0  0  0  0
   45.8330   32.0930   48.4490 N   0  0  0  0  0  0  0  0  0  0  0  0
   45.1200   32.9190   47.7010 C   0  0  0  0  0  0  0  0  0  0  0  0
   48.0800   31.0580   48.3830 C   0  0  0  0  0  0  0  0  0  0  0  0
   49.0200   31.6140   49.2090 C   0  0  0  0  0  0  0  0  0  0  0  0
   50.0490   30.8940   49.7400 C   0  0  0  0  0  0  0  0  0  0  0  0
   50.1220   29.5400   49.4090 C   0  0  0  0  0  0  0  0  0  0  0  0
   49.1820   28.9720   48.5800 C   0  0  0  0  0  0  0  0  0  0  0  0
   48.1470   29.7320   48.0560 C   0  0  0  0  0  0  0  0  0  0  0  0
   47.1910   29.1190   47.2060 N   0  0  0  0  0  0  0  0  0  0  0  0
   49.2280   27.5220   48.2000 C   0  0  0  0  0  0  0  0  0  0  0  0
   49.8140   26.6780   49.2830 C   0  0  0  0  0  0  0  0  0  0  0  0
   43.6455   36.6121   44.5912 H   0  0  0  0  0  0  0  0  0  0  0  0
   44.9507   36.4037   42.4944 H   0  0  0  0  0  0  0  0  0  0  0  0
   46.7554   34.6533   42.3308 H   0  0  0  0  0  0  0  0  0  0  0  0
   47.8992   32.7013   45.9758 H   0  0  0  0  0  0  0  0  0  0  0  0
   44.0994   33.2653   47.9209 H   0  0  0  0  0  0  0  0  0  0  0  0
   48.9419   32.6836   49.4538 H   0  0  0  0  0  0  0  0  0  0  0  0
   50.7920   31.3616   50.4028 H   0  0  0  0  0  0  0  0  0  0  0  0
   50.9372   28.9223   49.8139 H   0  0  0  0  0  0  0  0  0  0  0  0
   47.2705   28.1174   46.9795 H   0  0  0  0  0  0  0  0  0  0  0  0
   46.4173   29.6755   46.8153 H   0  0  0  0  0  0  0  0  0  0  0  0
   48.2042   27.1760   47.9949 H   0  0  0  0  0  0  0  0  0  0  0  0
   49.8670   27.4243   47.3100 H   0  0  0  0  0  0  0  0  0  0  0  0
   49.5288   27.0887   50.2628 H   0  0  0  0  0  0  0  0  0  0  0  0
   49.4347   25.6495   49.1921 H   0  0  0  0  0  0  0  0  0  0  0  0
   50.9102   26.6739   49.1921 H   0  0  0  0  0  0  0  0  0  0  0  0
  1  6  2  0
  2  1  1  0
  3  2  2  0
  3  4  1  0
  4  5  2  0
  5  6  1  0
  5  7  1  0
  7  8  1  0
  7 11  1  0
  8  9  2  0
  9 12  1  0
  9 10  1  0
 11 10  2  0
 12 13  2  0
 13 14  1  0
 15 14  2  0
 16 15  1  0
 17 12  1  0
 17 16  2  0
 18 17  1  0
 19 16  1  0
 19 20  1  0
  1 21  1  0
  2 22  1  0
  3 23  1  0
  8 24  1  0
 11 25  1  0
 13 26  1  0
 14 27  1  0
 15 28  1  0
 18 29  1  0
 18 30  1  0
 19 31  1  0
 19 32  1  0
 20 33  1  0
 20 34  1  0
 20 35  1  0
M  ISO  8  21  14  22  14  23  14  24  14  25  14  26  14  27  14  28  14
M  ISO  5  31   8  32   8  33   8  34   8  35   8
M  END
>  <minimizedAffinity>  (1) 
-5.63811922

>  <minimizedRMSD>  (1) 
0.59572494

$$$$
