
     RDKit          3D

 32 34  0  0  0  0  0  0  0  0999 V2000
   44.4540   35.8040   44.5820 C   0  0  0  0  0  0  0  0  0  0  0  0
   45.1950   35.7080   43.3950 C   0  0  0  0  0  0  0  0  0  0  0  0
   46.1990   34.7440   43.2970 C   0  0  0  0  0  0  0  0  0  0  0  0
   46.4090   33.9390   44.3670 N   0  0  0  0  0  0  0  0  0  0  0  0
   45.6670   34.0580   45.5180 C   0  0  0  0  0  0  0  0  0  0  0  0
   44.7050   34.9720   45.6280 N   0  0  0  0  0  0  0  0  0  0  0  0
   45.9060   33.2020   46.6280 N   0  0  0  0  0  0  0  0  0  0  0  0
   47.0970   32.5780   46.6850 C   0  0  0  0  0  0  0  0  0  0  0  0
   47.0510   31.8190   47.8600 C   0  0  0  0  0  0  0  0  0  0  0  0
   45.8660   31.9970   48.4720 N   0  0  0  0  0  0  0  0  0  0  0  0
   45.1580   32.8380   47.7310 C   0  0  0  0  0  0  0  0  0  0  0  0
   48.1110   30.9610   48.3670 C   0  0  0  0  0  0  0  0  0  0  0  0
   49.0520   31.5080   49.2160 C   0  0  0  0  0  0  0  0  0  0  0  0
   50.0810   30.7700   49.7380 C   0  0  0  0  0  0  0  0  0  0  0  0
   50.1530   29.4220   49.3820 C   0  0  0  0  0  0  0  0  0  0  0  0
   49.2140   28.8750   48.5340 C   0  0  0  0  0  0  0  0  0  0  0  0
   48.1850   29.6430   48.0220 C   0  0  0  0  0  0  0  0  0  0  0  0
   49.2700   27.4250   48.1350 C   0  0  0  0  0  0  0  0  0  0  0  0
   49.6460   27.4340   46.7880 F   0  0  0  0  0  0  0  0  0  0  0  0
   48.0300   26.8130   48.2730 F   0  0  0  0  0  0  0  0  0  0  0  0
   50.2360   26.7620   48.8340 F   0  0  0  0  0  0  0  0  0  0  0  0
   47.2380   29.0380   47.1510 N   0  0  0  0  0  0  0  0  0  0  0  0
   43.6606   36.5611   44.6678 H   0  0  0  0  0  0  0  0  0  0  0  0
   44.9873   36.3839   42.5523 H   0  0  0  0  0  0  0  0  0  0  0  0
   46.8002   34.6408   42.3816 H   0  0  0  0  0  0  0  0  0  0  0  0
   47.9258   32.6490   45.9652 H   0  0  0  0  0  0  0  0  0  0  0  0
   44.1404   33.1889   47.9576 H   0  0  0  0  0  0  0  0  0  0  0  0
   48.9728   32.5723   49.4823 H   0  0  0  0  0  0  0  0  0  0  0  0
   50.8229   31.2225   50.4125 H   0  0  0  0  0  0  0  0  0  0  0  0
   50.9631   28.7933   49.7802 H   0  0  0  0  0  0  0  0  0  0  0  0
   47.3232   28.0400   46.9109 H   0  0  0  0  0  0  0  0  0  0  0  0
   46.4668   29.5977   46.7601 H   0  0  0  0  0  0  0  0  0  0  0  0
  1  6  2  0
  2  1  1  0
  3  2  2  0
  3  4  1  0
  4  5  2  0
  5  6  1  0
  5  7  1  0
  7  8  1  0
  7 11  1  0
  8  9  2  0
  9 12  1  0
  9 10  1  0
 11 10  2  0
 12 13  2  0
 13 14  1  0
 15 14  2  0
 16 15  1  0
 17 12  1  0
 17 16  2  0
 18 20  1  0
 18 16  1  0
 18 21  1  0
 19 18  1  0
 22 17  1  0
  1 23  1  0
  2 24  1  0
  3 25  1  0
  8 26  1  0
 11 27  1  0
 13 28  1  0
 14 29  1  0
 15 30  1  0
 22 31  1  0
 22 32  1  0
M  ISO  8  23  14  24  14  25  14  26  14  27  14  28  14  29  14  30  14
M  END
>  <minimizedAffinity>  (1) 
-5.67127323

>  <minimizedRMSD>  (1) 
0.22633867

$$$$
