
     RDKit          3D

 43 46  0  0  0  0  0  0  0  0999 V2000
   48.1000   31.0440   48.3830 C   0  0  0  0  0  0  0  0  0  0  0  0
   49.0330   31.6180   49.2350 C   0  0  0  0  0  0  0  0  0  0  0  0
   50.0520   30.8800   49.7590 C   0  0  0  0  0  0  0  0  0  0  0  0
   50.1290   29.5270   49.4110 C   0  0  0  0  0  0  0  0  0  0  0  0
   49.1930   28.9720   48.5620 C   0  0  0  0  0  0  0  0  0  0  0  0
   48.1760   29.7170   48.0420 C   0  0  0  0  0  0  0  0  0  0  0  0
   44.4480   35.8230   44.5050 C   0  0  0  0  0  0  0  0  0  0  0  0
   45.1880   35.7250   43.3390 C   0  0  0  0  0  0  0  0  0  0  0  0
   46.1870   34.7690   43.2700 C   0  0  0  0  0  0  0  0  0  0  0  0
   46.4080   33.9650   44.3380 N   0  0  0  0  0  0  0  0  0  0  0  0
   45.6550   34.0920   45.4740 C   0  0  0  0  0  0  0  0  0  0  0  0
   44.6740   35.0130   45.5730 N   0  0  0  0  0  0  0  0  0  0  0  0
   45.8710   33.2580   46.6100 N   0  0  0  0  0  0  0  0  0  0  0  0
   47.0550   32.6360   46.6870 C   0  0  0  0  0  0  0  0  0  0  0  0
   47.0320   31.8960   47.8570 C   0  0  0  0  0  0  0  0  0  0  0  0
   45.8470   32.0860   48.4560 N   0  0  0  0  0  0  0  0  0  0  0  0
   45.1400   32.9110   47.7020 C   0  0  0  0  0  0  0  0  0  0  0  0
   49.3200   27.5660   48.2400 C   0  0  0  0  0  0  0  0  0  0  0  0
   48.3660   26.7540   48.2560 O   0  0  0  0  0  0  0  0  0  0  0  0
   50.4570   26.7990   47.8540 N   0  0  0  0  0  0  0  0  0  0  0  0
   51.1880   27.1440   46.6510 C   0  0  0  0  0  0  0  0  0  0  0  0
   52.6370   27.0930   47.0640 C   0  0  0  0  0  0  0  0  0  0  0  0
   52.6890   26.1900   48.2770 C   0  0  0  0  0  0  0  0  0  0  0  0
   51.2560   25.6440   48.2800 C   0  0  0  0  0  0  0  0  0  0  0  0
   47.2380   29.1290   47.1770 N   0  0  0  0  0  0  0  0  0  0  0  0
   48.9489   32.6844   49.4912 H   0  0  0  0  0  0  0  0  0  0  0  0
   50.7914   31.3343   50.4350 H   0  0  0  0  0  0  0  0  0  0  0  0
   50.9392   28.9028   49.8159 H   0  0  0  0  0  0  0  0  0  0  0  0
   43.6524   36.5799   44.5692 H   0  0  0  0  0  0  0  0  0  0  0  0
   44.9869   36.3913   42.4872 H   0  0  0  0  0  0  0  0  0  0  0  0
   46.7942   34.6634   42.3589 H   0  0  0  0  0  0  0  0  0  0  0  0
   47.8816   32.7004   45.9641 H   0  0  0  0  0  0  0  0  0  0  0  0
   44.1210   33.2611   47.9237 H   0  0  0  0  0  0  0  0  0  0  0  0
   50.9168   28.1530   46.3068 H   0  0  0  0  0  0  0  0  0  0  0  0
   50.9661   26.4629   45.8162 H   0  0  0  0  0  0  0  0  0  0  0  0
   53.2524   26.6789   46.2517 H   0  0  0  0  0  0  0  0  0  0  0  0
   53.0291   28.0958   47.2890 H   0  0  0  0  0  0  0  0  0  0  0  0
   53.4297   25.3862   48.1535 H   0  0  0  0  0  0  0  0  0  0  0  0
   52.9909   26.6907   49.2088 H   0  0  0  0  0  0  0  0  0  0  0  0
   50.9627   25.3110   49.2865 H   0  0  0  0  0  0  0  0  0  0  0  0
   51.1271   24.7664   47.6295 H   0  0  0  0  0  0  0  0  0  0  0  0
   47.3153   28.1308   46.9353 H   0  0  0  0  0  0  0  0  0  0  0  0
   46.4730   29.6962   46.7846 H   0  0  0  0  0  0  0  0  0  0  0  0
  1  2  2  0
  2  3  1  0
  4  3  2  0
  5  4  1  0
  6  1  1  0
  6  5  2  0
  7 12  2  0
  8  7  1  0
  9  8  2  0
  9 10  1  0
 10 11  2  0
 11 12  1  0
 11 13  1  0
 13 14  1  0
 13 17  1  0
 14 15  2  0
 15  1  1  0
 15 16  1  0
 17 16  2  0
 18 19  2  0
 18  5  1  0
 20 18  1  0
 20 24  1  0
 21 22  1  0
 21 20  1  0
 22 23  1  0
 23 24  1  0
 25  6  1  0
  2 26  1  0
  3 27  1  0
  4 28  1  0
  7 29  1  0
  8 30  1  0
  9 31  1  0
 14 32  1  0
 17 33  1  0
 21 34  1  0
 21 35  1  0
 22 36  1  0
 22 37  1  0
 23 38  1  0
 23 39  1  0
 24 40  1  0
 24 41  1  0
 25 42  1  0
 25 43  1  0
M  ISO  8  26  14  27  14  28  14  29  14  30  14  31  14  32  14  33  14
M  ISO  8  34  13  35  13  36  13  37  13  38  13  39  13  40  13  41  13
M  END
>  <minimizedAffinity>  (1) 
-5.81021261

>  <minimizedRMSD>  (1) 
1.49106109

$$$$
