
     RDKit          3D

 42 43  0  0  0  0  0  0  0  0999 V2000
   45.7200   35.1580   42.8210 C   0  0  0  0  0  0  0  0  0  0  0  0
   45.0320   34.7150   45.1730 C   0  0  0  0  0  0  0  0  0  0  0  0
   45.8760   34.3840   44.0810 C   0  0  0  0  0  0  0  0  0  0  0  0
   46.7790   33.3590   44.2900 C   0  0  0  0  0  0  0  0  0  0  0  0
   46.8450   32.7180   45.4660 N   0  0  0  0  0  0  0  0  0  0  0  0
   46.0210   33.0590   46.4960 C   0  0  0  0  0  0  0  0  0  0  0  0
   45.1260   34.0570   46.3300 N   0  0  0  0  0  0  0  0  0  0  0  0
   47.0280   35.2420   42.1060 C   0  0  0  0  0  0  0  0  0  0  0  0
   45.2280   36.5430   43.1710 C   0  0  0  0  0  0  0  0  0  0  0  0
   44.6460   34.4870   41.9800 C   0  0  0  0  0  0  0  0  0  0  0  0
   43.9510   35.4500   41.2820 O   0  0  0  0  0  0  0  0  0  0  0  0
   42.6330   35.1960   40.9140 C   0  0  0  0  0  0  0  0  0  0  0  0
   41.5380   35.4460   41.7250 C   0  0  0  0  0  0  0  0  0  0  0  0
   40.4300   35.0450   40.9610 C   0  0  0  0  0  0  0  0  0  0  0  0
   40.8480   34.5860   39.7690 N   0  0  0  0  0  0  0  0  0  0  0  0
   42.1610   34.6760   39.7410 N   0  0  0  0  0  0  0  0  0  0  0  0
   40.0640   34.0670   38.6560 C   0  0  0  0  0  0  0  0  0  0  0  0
   40.7000   32.7730   38.1390 C   0  0  0  0  0  0  0  0  0  0  0  0
   38.6370   33.8390   39.0920 C   0  0  0  0  0  0  0  0  0  0  0  0
   40.0940   35.0520   37.5160 C   0  0  0  0  0  0  0  0  0  0  0  0
   44.2928   35.5223   45.0644 H   0  0  0  0  0  0  0  0  0  0  0  0
   47.4569   33.0631   43.4758 H   0  0  0  0  0  0  0  0  0  0  0  0
   46.0841   32.5255   47.4559 H   0  0  0  0  0  0  0  0  0  0  0  0
   47.8449   35.2945   42.8408 H   0  0  0  0  0  0  0  0  0  0  0  0
   47.1590   34.3504   41.4752 H   0  0  0  0  0  0  0  0  0  0  0  0
   47.0439   36.1430   41.4752 H   0  0  0  0  0  0  0  0  0  0  0  0
   45.1890   36.6527   44.2648 H   0  0  0  0  0  0  0  0  0  0  0  0
   45.9147   37.2930   42.7515 H   0  0  0  0  0  0  0  0  0  0  0  0
   44.2221   36.6917   42.7515 H   0  0  0  0  0  0  0  0  0  0  0  0
   45.1157   33.7872   41.2732 H   0  0  0  0  0  0  0  0  0  0  0  0
   43.9559   33.9338   42.6340 H   0  0  0  0  0  0  0  0  0  0  0  0
   41.5367   35.8655   42.7418 H   0  0  0  0  0  0  0  0  0  0  0  0
   39.3811   35.0984   41.2880 H   0  0  0  0  0  0  0  0  0  0  0  0
   41.0066   32.1491   38.9915 H   0  0  0  0  0  0  0  0  0  0  0  0
   39.9690   32.2241   37.5271 H   0  0  0  0  0  0  0  0  0  0  0  0
   41.5811   33.0165   37.5271 H   0  0  0  0  0  0  0  0  0  0  0  0
   38.5862   33.8309   40.1908 H   0  0  0  0  0  0  0  0  0  0  0  0
   38.0007   34.6469   38.7015 H   0  0  0  0  0  0  0  0  0  0  0  0
   38.2842   32.8731   38.7015 H   0  0  0  0  0  0  0  0  0  0  0  0
   40.1252   36.0759   37.9168 H   0  0  0  0  0  0  0  0  0  0  0  0
   40.9871   34.8722   36.8995 H   0  0  0  0  0  0  0  0  0  0  0  0
   39.1916   34.9269   36.8995 H   0  0  0  0  0  0  0  0  0  0  0  0
  1  9  1  0
  1  3  1  0
  2  7  2  0
  3  4  2  0
  3  2  1  0
  4  5  1  0
  5  6  2  0
  7  6  1  0
  8  1  1  0
 10  1  1  0
 11 10  1  0
 12 11  1  0
 12 13  1  0
 14 13  2  0
 15 14  1  0
 16 15  1  0
 16 12  2  0
 17 19  1  0
 17 15  1  0
 18 17  1  0
 20 17  1  0
  2 21  1  0
  4 22  1  0
  6 23  1  0
  8 24  1  0
  8 25  1  0
  8 26  1  0
  9 27  1  0
  9 28  1  0
  9 29  1  0
 10 30  1  0
 10 31  1  0
 13 32  1  0
 14 33  1  0
 18 34  1  0
 18 35  1  0
 18 36  1  0
 19 37  1  0
 19 38  1  0
 19 39  1  0
 20 40  1  0
 20 41  1  0
 20 42  1  0
M  ISO  8  21  14  22  14  23  14  24   8  25   8  26   8  27   8  28   8
M  ISO  8  29   8  30   8  31   8  32  14  33  14  34   8  35   8  36   8
M  ISO  6  37   8  38   8  39   8  40   8  41   8  42   8
M  END
>  <minimizedAffinity>  (1) 
-5.53156614

>  <minimizedRMSD>  (1) 
1.21473217

$$$$
