
     RDKit          3D

 41 44  0  0  0  0  0  0  0  0999 V2000
   48.1490   31.0180   48.4090 C   0  0  0  0  0  0  0  0  0  0  0  0
   49.0690   31.6090   49.2600 C   0  0  0  0  0  0  0  0  0  0  0  0
   50.1130   30.8870   49.7980 C   0  0  0  0  0  0  0  0  0  0  0  0
   50.2080   29.5280   49.4510 C   0  0  0  0  0  0  0  0  0  0  0  0
   49.2850   28.9720   48.6090 C   0  0  0  0  0  0  0  0  0  0  0  0
   48.2480   29.6850   48.0730 C   0  0  0  0  0  0  0  0  0  0  0  0
   44.4470   35.7930   44.5850 C   0  0  0  0  0  0  0  0  0  0  0  0
   45.1760   35.6950   43.4050 C   0  0  0  0  0  0  0  0  0  0  0  0
   46.1790   34.7420   43.3100 C   0  0  0  0  0  0  0  0  0  0  0  0
   46.3980   33.9430   44.3880 N   0  0  0  0  0  0  0  0  0  0  0  0
   45.6680   34.0610   45.5280 C   0  0  0  0  0  0  0  0  0  0  0  0
   44.6980   34.9750   45.6390 N   0  0  0  0  0  0  0  0  0  0  0  0
   45.9170   33.2140   46.6380 N   0  0  0  0  0  0  0  0  0  0  0  0
   47.1080   32.6110   46.7250 C   0  0  0  0  0  0  0  0  0  0  0  0
   47.0780   31.8550   47.8850 C   0  0  0  0  0  0  0  0  0  0  0  0
   45.8820   32.0170   48.4690 N   0  0  0  0  0  0  0  0  0  0  0  0
   45.1630   32.8390   47.7260 C   0  0  0  0  0  0  0  0  0  0  0  0
   47.3180   29.0810   47.2120 N   0  0  0  0  0  0  0  0  0  0  0  0
   49.4430   27.5630   48.2860 C   0  0  0  0  0  0  0  0  0  0  0  0
   49.1600   26.6090   49.0440 O   0  0  0  0  0  0  0  0  0  0  0  0
   49.9810   27.2210   46.9520 C   0  0  0  0  0  0  0  0  0  0  0  0
   49.4660   26.2290   46.1190 C   0  0  0  0  0  0  0  0  0  0  0  0
   50.0430   25.9920   44.8960 C   0  0  0  0  0  0  0  0  0  0  0  0
   51.1270   26.6930   44.4330 C   0  0  0  0  0  0  0  0  0  0  0  0
   51.6310   27.6650   45.2540 C   0  0  0  0  0  0  0  0  0  0  0  0
   51.0860   27.9350   46.4810 C   0  0  0  0  0  0  0  0  0  0  0  0
   48.9644   32.6748   49.5112 H   0  0  0  0  0  0  0  0  0  0  0  0
   50.8438   31.3564   50.4730 H   0  0  0  0  0  0  0  0  0  0  0  0
   51.0243   28.9122   49.8565 H   0  0  0  0  0  0  0  0  0  0  0  0
   43.6513   36.5482   44.6661 H   0  0  0  0  0  0  0  0  0  0  0  0
   44.9602   36.3639   42.5588 H   0  0  0  0  0  0  0  0  0  0  0  0
   46.7774   34.6361   42.3931 H   0  0  0  0  0  0  0  0  0  0  0  0
   47.9447   32.6983   46.0162 H   0  0  0  0  0  0  0  0  0  0  0  0
   44.1355   33.1680   47.9407 H   0  0  0  0  0  0  0  0  0  0  0  0
   47.4096   28.0833   46.9732 H   0  0  0  0  0  0  0  0  0  0  0  0
   46.5441   29.6356   46.8191 H   0  0  0  0  0  0  0  0  0  0  0  0
   48.5974   25.6362   46.4415 H   0  0  0  0  0  0  0  0  0  0  0  0
   49.6163   25.2038   44.2583 H   0  0  0  0  0  0  0  0  0  0  0  0
   51.5704   26.4839   43.4483 H   0  0  0  0  0  0  0  0  0  0  0  0
   52.5013   28.2478   44.9178 H   0  0  0  0  0  0  0  0  0  0  0  0
   51.5251   28.7267   47.1058 H   0  0  0  0  0  0  0  0  0  0  0  0
  1  2  2  0
  2  3  1  0
  4  3  2  0
  5  4  1  0
  6  1  1  0
  6  5  2  0
  7 12  2  0
  8  7  1  0
  9  8  2  0
  9 10  1  0
 10 11  2  0
 11 12  1  0
 11 13  1  0
 13 14  1  0
 13 17  1  0
 14 15  2  0
 15  1  1  0
 15 16  1  0
 17 16  2  0
 18  6  1  0
 19  5  1  0
 19 20  2  0
 21 19  1  0
 22 21  2  0
 23 22  1  0
 24 23  2  0
 24 25  1  0
 25 26  2  0
 26 21  1  0
  2 27  1  0
  3 28  1  0
  4 29  1  0
  7 30  1  0
  8 31  1  0
  9 32  1  0
 14 33  1  0
 17 34  1  0
 18 35  1  0
 18 36  1  0
 22 37  1  0
 23 38  1  0
 24 39  1  0
 25 40  1  0
 26 41  1  0
M  ISO  8  27  14  28  14  29  14  30  14  31  14  32  14  33  14  34  14
M  ISO  5  37  14  38  14  39  14  40  14  41  14
M  END
>  <minimizedAffinity>  (1) 
-5.54835749

>  <minimizedRMSD>  (1) 
0.517797053

$$$$
