
     RDKit          3D

 33 35  0  0  0  0  0  0  0  0999 V2000
   48.0950   30.9080   48.3290 C   0  0  0  0  0  0  0  0  0  0  0  0
   49.0410   31.4290   49.1750 C   0  0  0  0  0  0  0  0  0  0  0  0
   50.0430   30.6610   49.6820 C   0  0  0  0  0  0  0  0  0  0  0  0
   50.0940   29.3100   49.3230 C   0  0  0  0  0  0  0  0  0  0  0  0
   49.1480   28.7990   48.4800 C   0  0  0  0  0  0  0  0  0  0  0  0
   48.1320   29.5670   47.9630 C   0  0  0  0  0  0  0  0  0  0  0  0
   44.4670   35.8190   44.6110 C   0  0  0  0  0  0  0  0  0  0  0  0
   45.1850   35.7270   43.4310 C   0  0  0  0  0  0  0  0  0  0  0  0
   46.1730   34.7510   43.3140 C   0  0  0  0  0  0  0  0  0  0  0  0
   46.3910   33.9270   44.3670 N   0  0  0  0  0  0  0  0  0  0  0  0
   45.6600   34.0510   45.5130 C   0  0  0  0  0  0  0  0  0  0  0  0
   44.7050   34.9800   45.6530 N   0  0  0  0  0  0  0  0  0  0  0  0
   45.8840   33.1840   46.6330 N   0  0  0  0  0  0  0  0  0  0  0  0
   47.0770   32.5460   46.6690 C   0  0  0  0  0  0  0  0  0  0  0  0
   47.0510   31.7850   47.8230 C   0  0  0  0  0  0  0  0  0  0  0  0
   45.8610   31.9800   48.4450 N   0  0  0  0  0  0  0  0  0  0  0  0
   45.1520   32.8270   47.7240 C   0  0  0  0  0  0  0  0  0  0  0  0
   49.2280   27.3900   48.1260 C   0  0  0  0  0  0  0  0  0  0  0  0
   48.3470   26.5380   48.3620 O   0  0  0  0  0  0  0  0  0  0  0  0
   50.3970   26.9120   47.4560 N   0  0  0  0  0  0  0  0  0  0  0  0
   47.1620   29.0150   47.0920 N   0  0  0  0  0  0  0  0  0  0  0  0
   48.9881   32.4928   49.4499 H   0  0  0  0  0  0  0  0  0  0  0  0
   50.7955   31.0924   50.3585 H   0  0  0  0  0  0  0  0  0  0  0  0
   50.8912   28.6627   49.7172 H   0  0  0  0  0  0  0  0  0  0  0  0
   43.6866   36.5882   44.7072 H   0  0  0  0  0  0  0  0  0  0  0  0
   44.9786   36.4145   42.5975 H   0  0  0  0  0  0  0  0  0  0  0  0
   46.7611   34.6522   42.3897 H   0  0  0  0  0  0  0  0  0  0  0  0
   47.8939   32.6177   45.9358 H   0  0  0  0  0  0  0  0  0  0  0  0
   44.1398   33.1847   47.9638 H   0  0  0  0  0  0  0  0  0  0  0  0
   51.1634   27.5621   47.2305 H   0  0  0  0  0  0  0  0  0  0  0  0
   50.4728   25.9175   47.1988 H   0  0  0  0  0  0  0  0  0  0  0  0
   47.2087   28.0189   46.8342 H   0  0  0  0  0  0  0  0  0  0  0  0
   46.4096   29.6095   46.7161 H   0  0  0  0  0  0  0  0  0  0  0  0
  1  2  2  0
  2  3  1  0
  4  3  2  0
  5  4  1  0
  6  1  1  0
  6  5  2  0
  7 12  2  0
  8  7  1  0
  9  8  2  0
  9 10  1  0
 10 11  2  0
 11 12  1  0
 11 13  1  0
 13 14  1  0
 13 17  1  0
 14 15  2  0
 15  1  1  0
 15 16  1  0
 17 16  2  0
 18 19  2  0
 18  5  1  0
 20 18  1  0
 21  6  1  0
  2 22  1  0
  3 23  1  0
  4 24  1  0
  7 25  1  0
  8 26  1  0
  9 27  1  0
 14 28  1  0
 17 29  1  0
 20 30  1  0
 20 31  1  0
 21 32  1  0
 21 33  1  0
M  ISO  8  22  14  23  14  24  14  25  14  26  14  27  14  28  14  29  14
M  END
>  <minimizedAffinity>  (1) 
-5.58575869

>  <minimizedRMSD>  (1) 
0.404467225

$$$$
