
     RDKit          3D

 41 44  0  0  0  0  0  0  0  0999 V2000
   48.0740   30.9500   48.2960 C   0  0  0  0  0  0  0  0  0  0  0  0
   48.9980   31.4770   49.1760 C   0  0  0  0  0  0  0  0  0  0  0  0
   50.0070   30.7050   49.6880 C   0  0  0  0  0  0  0  0  0  0  0  0
   50.0790   29.3630   49.2960 C   0  0  0  0  0  0  0  0  0  0  0  0
   49.1500   28.8480   48.4180 C   0  0  0  0  0  0  0  0  0  0  0  0
   48.1500   29.6340   47.9190 C   0  0  0  0  0  0  0  0  0  0  0  0
   44.4500   35.8540   44.5670 C   0  0  0  0  0  0  0  0  0  0  0  0
   45.1600   35.7530   43.3820 C   0  0  0  0  0  0  0  0  0  0  0  0
   46.1410   34.7780   43.2630 C   0  0  0  0  0  0  0  0  0  0  0  0
   46.3550   33.9660   44.3290 N   0  0  0  0  0  0  0  0  0  0  0  0
   45.6420   34.0910   45.4760 C   0  0  0  0  0  0  0  0  0  0  0  0
   44.6780   35.0270   45.6320 N   0  0  0  0  0  0  0  0  0  0  0  0
   45.8790   33.2290   46.5830 N   0  0  0  0  0  0  0  0  0  0  0  0
   47.0600   32.5860   46.6300 C   0  0  0  0  0  0  0  0  0  0  0  0
   47.0280   31.8270   47.7930 C   0  0  0  0  0  0  0  0  0  0  0  0
   45.8490   32.0250   48.4130 N   0  0  0  0  0  0  0  0  0  0  0  0
   45.1440   32.8740   47.6870 C   0  0  0  0  0  0  0  0  0  0  0  0
   47.2050   29.0810   47.0150 N   0  0  0  0  0  0  0  0  0  0  0  0
   49.2620   27.4530   48.0320 C   0  0  0  0  0  0  0  0  0  0  0  0
   48.5510   26.9210   47.1530 O   0  0  0  0  0  0  0  0  0  0  0  0
   50.2210   26.4930   48.6250 C   0  0  0  0  0  0  0  0  0  0  0  0
   51.4910   26.3820   48.1030 C   0  0  0  0  0  0  0  0  0  0  0  0
   52.3970   25.4730   48.6630 C   0  0  0  0  0  0  0  0  0  0  0  0
   51.9850   24.7080   49.7350 C   0  0  0  0  0  0  0  0  0  0  0  0
   50.7070   24.8400   50.2370 C   0  0  0  0  0  0  0  0  0  0  0  0
   49.7740   25.7370   49.7020 C   0  0  0  0  0  0  0  0  0  0  0  0
   48.9227   32.5341   49.4708 H   0  0  0  0  0  0  0  0  0  0  0  0
   50.7415   31.1284   50.3889 H   0  0  0  0  0  0  0  0  0  0  0  0
   50.8787   28.7183   49.6896 H   0  0  0  0  0  0  0  0  0  0  0  0
   43.6737   36.6284   44.6547 H   0  0  0  0  0  0  0  0  0  0  0  0
   44.9493   36.4364   42.5462 H   0  0  0  0  0  0  0  0  0  0  0  0
   46.7244   34.6675   42.3370 H   0  0  0  0  0  0  0  0  0  0  0  0
   47.8801   32.6484   45.8996 H   0  0  0  0  0  0  0  0  0  0  0  0
   44.1338   33.2370   47.9275 H   0  0  0  0  0  0  0  0  0  0  0  0
   47.2737   28.0907   46.7401 H   0  0  0  0  0  0  0  0  0  0  0  0
   46.4508   29.6701   46.6341 H   0  0  0  0  0  0  0  0  0  0  0  0
   51.7926   27.0057   47.2486 H   0  0  0  0  0  0  0  0  0  0  0  0
   53.4144   25.3710   48.2574 H   0  0  0  0  0  0  0  0  0  0  0  0
   52.6801   23.9884   50.1921 H   0  0  0  0  0  0  0  0  0  0  0  0
   50.4086   24.2155   51.0920 H   0  0  0  0  0  0  0  0  0  0  0  0
   48.7561   25.8364   50.1069 H   0  0  0  0  0  0  0  0  0  0  0  0
  1  2  2  0
  2  3  1  0
  4  3  2  0
  5  4  1  0
  6  1  1  0
  6  5  2  0
  7 12  2  0
  8  7  1  0
  9  8  2  0
  9 10  1  0
 10 11  2  0
 11 12  1  0
 11 13  1  0
 13 14  1  0
 13 17  1  0
 14 15  2  0
 15  1  1  0
 15 16  1  0
 17 16  2  0
 18  6  1  0
 19  5  1  0
 19 21  1  0
 20 19  2  0
 21 26  1  0
 22 21  2  0
 22 23  1  0
 23 24  2  0
 24 25  1  0
 26 25  2  0
  2 27  1  0
  3 28  1  0
  4 29  1  0
  7 30  1  0
  8 31  1  0
  9 32  1  0
 14 33  1  0
 17 34  1  0
 18 35  1  0
 18 36  1  0
 22 37  1  0
 23 38  1  0
 24 39  1  0
 25 40  1  0
 26 41  1  0
M  ISO  8  27  14  28  14  29  14  30  14  31  14  32  14  33  14  34  14
M  ISO  5  37  14  38  14  39  14  40  14  41  14
M  END
>  <minimizedAffinity>  (1) 
-5.77974224

>  <minimizedRMSD>  (1) 
2.2107861

$$$$
