
     RDKit          3D

 39 42  0  0  0  0  0  0  0  0999 V2000
   48.1750   31.0330   48.4150 C   0  0  0  0  0  0  0  0  0  0  0  0
   49.0840   31.5980   49.2780 C   0  0  0  0  0  0  0  0  0  0  0  0
   50.1140   30.8700   49.8130 C   0  0  0  0  0  0  0  0  0  0  0  0
   50.2150   29.5190   49.4540 C   0  0  0  0  0  0  0  0  0  0  0  0
   49.2970   28.9660   48.5890 C   0  0  0  0  0  0  0  0  0  0  0  0
   48.2720   29.6990   48.0570 C   0  0  0  0  0  0  0  0  0  0  0  0
   44.4500   35.7750   44.5880 C   0  0  0  0  0  0  0  0  0  0  0  0
   45.1890   35.6910   43.4120 C   0  0  0  0  0  0  0  0  0  0  0  0
   46.2010   34.7420   43.3220 C   0  0  0  0  0  0  0  0  0  0  0  0
   46.4230   33.9360   44.3930 N   0  0  0  0  0  0  0  0  0  0  0  0
   45.6790   34.0510   45.5270 C   0  0  0  0  0  0  0  0  0  0  0  0
   44.6930   34.9610   45.6400 N   0  0  0  0  0  0  0  0  0  0  0  0
   45.9080   33.2090   46.6610 N   0  0  0  0  0  0  0  0  0  0  0  0
   47.1160   32.6120   46.7290 C   0  0  0  0  0  0  0  0  0  0  0  0
   47.1090   31.8650   47.8850 C   0  0  0  0  0  0  0  0  0  0  0  0
   45.8990   32.0270   48.4860 N   0  0  0  0  0  0  0  0  0  0  0  0
   45.1720   32.8410   47.7460 C   0  0  0  0  0  0  0  0  0  0  0  0
   47.3470   29.1010   47.1710 N   0  0  0  0  0  0  0  0  0  0  0  0
   49.4470   27.5630   48.2480 C   0  0  0  0  0  0  0  0  0  0  0  0
   49.1390   26.6130   49.0040 O   0  0  0  0  0  0  0  0  0  0  0  0
   49.9890   27.1860   46.9410 C   0  0  0  0  0  0  0  0  0  0  0  0
   51.0790   27.8630   46.4300 C   0  0  0  0  0  0  0  0  0  0  0  0
   51.6210   27.5290   45.1920 C   0  0  0  0  0  0  0  0  0  0  0  0
   51.0680   26.5260   44.4800 N   0  0  0  0  0  0  0  0  0  0  0  0
   50.0040   25.8650   44.9820 C   0  0  0  0  0  0  0  0  0  0  0  0
   49.4850   26.1920   46.1780 N   0  0  0  0  0  0  0  0  0  0  0  0
   48.9818   32.6601   49.5454 H   0  0  0  0  0  0  0  0  0  0  0  0
   50.8377   31.3306   50.5015 H   0  0  0  0  0  0  0  0  0  0  0  0
   51.0274   28.9004   49.8631 H   0  0  0  0  0  0  0  0  0  0  0  0
   43.6472   36.5231   44.6638 H   0  0  0  0  0  0  0  0  0  0  0  0
   44.9762   36.3638   42.5682 H   0  0  0  0  0  0  0  0  0  0  0  0
   46.8058   34.6463   42.4082 H   0  0  0  0  0  0  0  0  0  0  0  0
   47.9402   32.7038   46.0063 H   0  0  0  0  0  0  0  0  0  0  0  0
   44.1452   33.1674   47.9676 H   0  0  0  0  0  0  0  0  0  0  0  0
   47.4423   28.1063   46.9212 H   0  0  0  0  0  0  0  0  0  0  0  0
   46.5777   29.6600   46.7752 H   0  0  0  0  0  0  0  0  0  0  0  0
   51.5273   28.6816   47.0122 H   0  0  0  0  0  0  0  0  0  0  0  0
   52.4902   28.0768   44.7991 H   0  0  0  0  0  0  0  0  0  0  0  0
   49.5540   25.0451   44.4029 H   0  0  0  0  0  0  0  0  0  0  0  0
  1  2  2  0
  2  3  1  0
  4  3  2  0
  5  4  1  0
  6  1  1  0
  6  5  2  0
  7 12  2  0
  8  7  1  0
  9  8  2  0
  9 10  1  0
 10 11  2  0
 11 12  1  0
 11 13  1  0
 13 14  1  0
 13 17  1  0
 14 15  2  0
 15  1  1  0
 15 16  1  0
 17 16  2  0
 18  6  1  0
 19  5  1  0
 19 20  2  0
 21 19  1  0
 22 21  2  0
 23 22  1  0
 24 25  1  0
 24 23  2  0
 25 26  2  0
 26 21  1  0
  2 27  1  0
  3 28  1  0
  4 29  1  0
  7 30  1  0
  8 31  1  0
  9 32  1  0
 14 33  1  0
 17 34  1  0
 18 35  1  0
 18 36  1  0
 22 37  1  0
 23 38  1  0
 25 39  1  0
M  ISO  8  27  14  28  14  29  14  30  14  31  14  32  14  33  14  34  14
M  ISO  3  37  14  38  14  39  14
M  END
>  <minimizedAffinity>  (1) 
-5.52483892

>  <minimizedRMSD>  (1) 
0.636327028

$$$$
