
     RDKit          3D

 44 47  0  0  0  0  0  0  0  0999 V2000
   48.1670   31.0330   48.4170 C   0  0  0  0  0  0  0  0  0  0  0  0
   49.0680   31.6030   49.2880 C   0  0  0  0  0  0  0  0  0  0  0  0
   50.1030   30.8880   49.8290 C   0  0  0  0  0  0  0  0  0  0  0  0
   50.2130   29.5370   49.4590 C   0  0  0  0  0  0  0  0  0  0  0  0
   49.3020   28.9750   48.5830 C   0  0  0  0  0  0  0  0  0  0  0  0
   48.2770   29.7120   48.0560 C   0  0  0  0  0  0  0  0  0  0  0  0
   44.4410   35.7790   44.5780 C   0  0  0  0  0  0  0  0  0  0  0  0
   45.1830   35.6930   43.4050 C   0  0  0  0  0  0  0  0  0  0  0  0
   46.2080   34.7460   43.3070 C   0  0  0  0  0  0  0  0  0  0  0  0
   46.4240   33.9450   44.3890 N   0  0  0  0  0  0  0  0  0  0  0  0
   45.6820   34.0550   45.5180 C   0  0  0  0  0  0  0  0  0  0  0  0
   44.6940   34.9620   45.6270 N   0  0  0  0  0  0  0  0  0  0  0  0
   45.9150   33.2150   46.6390 N   0  0  0  0  0  0  0  0  0  0  0  0
   47.1210   32.6170   46.7200 C   0  0  0  0  0  0  0  0  0  0  0  0
   47.0910   31.8680   47.8850 C   0  0  0  0  0  0  0  0  0  0  0  0
   45.8910   32.0240   48.4760 N   0  0  0  0  0  0  0  0  0  0  0  0
   45.1720   32.8400   47.7270 C   0  0  0  0  0  0  0  0  0  0  0  0
   47.3640   29.1100   47.1660 N   0  0  0  0  0  0  0  0  0  0  0  0
   49.4770   27.5780   48.2450 C   0  0  0  0  0  0  0  0  0  0  0  0
   48.8210   26.6370   48.7270 O   0  0  0  0  0  0  0  0  0  0  0  0
   50.4820   27.0710   47.2590 C   0  0  0  0  0  0  0  0  0  0  0  0
   51.7390   26.7220   48.0290 C   0  0  0  0  0  0  0  0  0  0  0  0
   52.9090   26.9490   47.1260 C   0  0  0  0  0  0  0  0  0  0  0  0
   52.3140   27.5490   45.8650 C   0  0  0  0  0  0  0  0  0  0  0  0
   50.9580   28.1110   46.3000 C   0  0  0  0  0  0  0  0  0  0  0  0
   48.9532   32.6634   49.5571 H   0  0  0  0  0  0  0  0  0  0  0  0
   50.8183   31.3519   50.5241 H   0  0  0  0  0  0  0  0  0  0  0  0
   51.0284   28.9226   49.8684 H   0  0  0  0  0  0  0  0  0  0  0  0
   43.6349   36.5235   44.6546 H   0  0  0  0  0  0  0  0  0  0  0  0
   44.9657   36.3642   42.5610 H   0  0  0  0  0  0  0  0  0  0  0  0
   46.8148   34.6515   42.3944 H   0  0  0  0  0  0  0  0  0  0  0  0
   47.9554   32.7056   46.0087 H   0  0  0  0  0  0  0  0  0  0  0  0
   44.1435   33.1657   47.9419 H   0  0  0  0  0  0  0  0  0  0  0  0
   47.4703   28.1174   46.9125 H   0  0  0  0  0  0  0  0  0  0  0  0
   46.5908   29.6629   46.7693 H   0  0  0  0  0  0  0  0  0  0  0  0
   49.9929   26.2455   46.7211 H   0  0  0  0  0  0  0  0  0  0  0  0
   51.8230   27.3641   48.9182 H   0  0  0  0  0  0  0  0  0  0  0  0
   51.7074   25.6731   48.3590 H   0  0  0  0  0  0  0  0  0  0  0  0
   53.6246   27.6460   47.5866 H   0  0  0  0  0  0  0  0  0  0  0  0
   53.4634   26.0209   46.9230 H   0  0  0  0  0  0  0  0  0  0  0  0
   52.1834   26.7765   45.0929 H   0  0  0  0  0  0  0  0  0  0  0  0
   52.9625   28.3224   45.4278 H   0  0  0  0  0  0  0  0  0  0  0  0
   51.0702   29.0877   46.7934 H   0  0  0  0  0  0  0  0  0  0  0  0
   50.2657   28.2931   45.4648 H   0  0  0  0  0  0  0  0  0  0  0  0
  1  2  2  0
  2  3  1  0
  4  3  2  0
  5  4  1  0
  6  1  1  0
  6  5  2  0
  7 12  2  0
  8  7  1  0
  9  8  2  0
  9 10  1  0
 10 11  2  0
 11 12  1  0
 11 13  1  0
 13 14  1  0
 13 17  1  0
 14 15  2  0
 15  1  1  0
 15 16  1  0
 17 16  2  0
 18  6  1  0
 19  5  1  0
 19 20  2  0
 21 22  1  0
 21 19  1  0
 23 22  1  0
 24 25  1  0
 24 23  1  0
 25 21  1  0
  2 26  1  0
  3 27  1  0
  4 28  1  0
  7 29  1  0
  8 30  1  0
  9 31  1  0
 14 32  1  0
 17 33  1  0
 18 34  1  0
 18 35  1  0
 21 36  1  0
 22 37  1  0
 22 38  1  0
 23 39  1  0
 23 40  1  0
 24 41  1  0
 24 42  1  0
 25 43  1  0
 25 44  1  0
M  ISO  8  26  14  27  14  28  14  29  14  30  14  31  14  32  14  33  14
M  ISO  8  36  13  37  13  38  13  39  13  40  13  41  13  42  13  43  13
M  ISO  1  44  13
M  END
>  <minimizedAffinity>  (1) 
-5.52962017

>  <minimizedRMSD>  (1) 
1.05418026

$$$$
