
     RDKit          3D

 36 39  0  0  0  0  0  0  0  0999 V2000
   48.1330   31.0500   48.4030 C   0  0  0  0  0  0  0  0  0  0  0  0
   49.0740   31.6300   49.2350 C   0  0  0  0  0  0  0  0  0  0  0  0
   50.0920   30.8960   49.7720 C   0  0  0  0  0  0  0  0  0  0  0  0
   50.1640   29.5350   49.4610 C   0  0  0  0  0  0  0  0  0  0  0  0
   49.2270   28.9640   48.6320 C   0  0  0  0  0  0  0  0  0  0  0  0
   48.1970   29.7040   48.0880 C   0  0  0  0  0  0  0  0  0  0  0  0
   44.4370   35.8040   44.5470 C   0  0  0  0  0  0  0  0  0  0  0  0
   45.1810   35.7020   43.3700 C   0  0  0  0  0  0  0  0  0  0  0  0
   46.2020   34.7460   43.2790 C   0  0  0  0  0  0  0  0  0  0  0  0
   46.4200   33.9530   44.3570 N   0  0  0  0  0  0  0  0  0  0  0  0
   45.6730   34.0810   45.4940 C   0  0  0  0  0  0  0  0  0  0  0  0
   44.6840   34.9920   45.6080 N   0  0  0  0  0  0  0  0  0  0  0  0
   45.9070   33.2480   46.6200 N   0  0  0  0  0  0  0  0  0  0  0  0
   47.0920   32.6300   46.7090 C   0  0  0  0  0  0  0  0  0  0  0  0
   47.0790   31.8910   47.8690 C   0  0  0  0  0  0  0  0  0  0  0  0
   45.8740   32.0740   48.4720 N   0  0  0  0  0  0  0  0  0  0  0  0
   45.1610   32.8930   47.7210 C   0  0  0  0  0  0  0  0  0  0  0  0
   47.2430   29.1040   47.2400 N   0  0  0  0  0  0  0  0  0  0  0  0
   49.3270   27.5430   48.3240 C   0  0  0  0  0  0  0  0  0  0  0  0
   49.4430   26.6540   49.1920 O   0  0  0  0  0  0  0  0  0  0  0  0
   49.2930   27.1050   46.9140 C   0  0  0  0  0  0  0  0  0  0  0  0
   48.5010   26.1570   46.4400 N   0  0  0  0  0  0  0  0  0  0  0  0
   48.7130   26.0110   45.1710 O   0  0  0  0  0  0  0  0  0  0  0  0
   49.6510   26.8680   44.7980 C   0  0  0  0  0  0  0  0  0  0  0  0
   50.0240   27.5640   45.8890 N   0  0  0  0  0  0  0  0  0  0  0  0
   49.0005   32.7025   49.4681 H   0  0  0  0  0  0  0  0  0  0  0  0
   50.8368   31.3636   50.4327 H   0  0  0  0  0  0  0  0  0  0  0  0
   50.9728   28.9188   49.8807 H   0  0  0  0  0  0  0  0  0  0  0  0
   43.6365   36.5552   44.6166 H   0  0  0  0  0  0  0  0  0  0  0  0
   44.9675   36.3671   42.5202 H   0  0  0  0  0  0  0  0  0  0  0  0
   46.8053   34.6427   42.3650 H   0  0  0  0  0  0  0  0  0  0  0  0
   47.9207   32.7003   45.9890 H   0  0  0  0  0  0  0  0  0  0  0  0
   44.1387   33.2354   47.9393 H   0  0  0  0  0  0  0  0  0  0  0  0
   47.3096   28.1003   47.0187 H   0  0  0  0  0  0  0  0  0  0  0  0
   46.4797   29.6696   46.8420 H   0  0  0  0  0  0  0  0  0  0  0  0
   50.0528   26.9895   43.7812 H   0  0  0  0  0  0  0  0  0  0  0  0
  1  2  2  0
  2  3  1  0
  4  3  2  0
  5  4  1  0
  6  1  1  0
  6  5  2  0
  7 12  2  0
  8  7  1  0
  9  8  2  0
  9 10  1  0
 10 11  2  0
 11 12  1  0
 11 13  1  0
 13 14  1  0
 13 17  1  0
 14 15  2  0
 15  1  1  0
 15 16  1  0
 17 16  2  0
 18  6  1  0
 19  5  1  0
 19 20  2  0
 21 19  1  0
 22 21  2  0
 23 22  1  0
 24 23  1  0
 24 25  2  0
 25 21  1  0
  2 26  1  0
  3 27  1  0
  4 28  1  0
  7 29  1  0
  8 30  1  0
  9 31  1  0
 14 32  1  0
 17 33  1  0
 18 34  1  0
 18 35  1  0
 24 36  1  0
M  ISO  8  26  14  27  14  28  14  29  14  30  14  31  14  32  14  33  14
M  ISO  1  36  14
M  END
>  <minimizedAffinity>  (1) 
-5.49884605

>  <minimizedRMSD>  (1) 
0.0614924654

$$$$
