
     RDKit          3D

 38 41  0  0  0  0  0  0  0  0999 V2000
   48.0830   30.9530   48.3450 C   0  0  0  0  0  0  0  0  0  0  0  0
   49.0310   31.5060   49.1930 C   0  0  0  0  0  0  0  0  0  0  0  0
   50.0580   30.7410   49.7070 C   0  0  0  0  0  0  0  0  0  0  0  0
   50.1120   29.3830   49.3430 C   0  0  0  0  0  0  0  0  0  0  0  0
   49.1520   28.8600   48.4960 C   0  0  0  0  0  0  0  0  0  0  0  0
   48.1390   29.6240   47.9930 C   0  0  0  0  0  0  0  0  0  0  0  0
   44.4460   35.8230   44.5720 C   0  0  0  0  0  0  0  0  0  0  0  0
   45.1820   35.7220   43.3830 C   0  0  0  0  0  0  0  0  0  0  0  0
   46.1750   34.7610   43.2840 C   0  0  0  0  0  0  0  0  0  0  0  0
   46.3850   33.9560   44.3590 N   0  0  0  0  0  0  0  0  0  0  0  0
   45.6590   34.0750   45.4970 C   0  0  0  0  0  0  0  0  0  0  0  0
   44.6930   34.9970   45.6190 N   0  0  0  0  0  0  0  0  0  0  0  0
   45.9010   33.2210   46.6040 N   0  0  0  0  0  0  0  0  0  0  0  0
   47.0710   32.5770   46.6710 C   0  0  0  0  0  0  0  0  0  0  0  0
   47.0320   31.8240   47.8420 C   0  0  0  0  0  0  0  0  0  0  0  0
   45.8550   32.0270   48.4490 N   0  0  0  0  0  0  0  0  0  0  0  0
   45.1550   32.8760   47.7090 C   0  0  0  0  0  0  0  0  0  0  0  0
   47.1810   29.0610   47.1400 N   0  0  0  0  0  0  0  0  0  0  0  0
   49.2730   27.4570   48.1620 C   0  0  0  0  0  0  0  0  0  0  0  0
   48.4070   26.5780   48.3860 O   0  0  0  0  0  0  0  0  0  0  0  0
   50.4530   26.9030   47.5090 C   0  0  0  0  0  0  0  0  0  0  0  0
   51.1750   25.8010   47.8730 C   0  0  0  0  0  0  0  0  0  0  0  0
   52.2230   25.5920   47.0210 N   0  0  0  0  0  0  0  0  0  0  0  0
   52.1600   26.5860   46.0980 C   0  0  0  0  0  0  0  0  0  0  0  0
   51.1010   27.3470   46.4140 N   0  0  0  0  0  0  0  0  0  0  0  0
   48.9631   32.5710   49.4600 H   0  0  0  0  0  0  0  0  0  0  0  0
   50.8102   31.1788   50.3797 H   0  0  0  0  0  0  0  0  0  0  0  0
   50.9153   28.7393   49.7309 H   0  0  0  0  0  0  0  0  0  0  0  0
   43.6561   36.5838   44.6570 H   0  0  0  0  0  0  0  0  0  0  0  0
   44.9738   36.3970   42.5398 H   0  0  0  0  0  0  0  0  0  0  0  0
   46.7729   34.6531   42.3670 H   0  0  0  0  0  0  0  0  0  0  0  0
   47.8976   32.6311   45.9472 H   0  0  0  0  0  0  0  0  0  0  0  0
   44.1445   33.2442   47.9398 H   0  0  0  0  0  0  0  0  0  0  0  0
   47.2388   28.0642   46.8873 H   0  0  0  0  0  0  0  0  0  0  0  0
   46.4188   29.6439   46.7655 H   0  0  0  0  0  0  0  0  0  0  0  0
   50.9426   25.1646   48.7396 H   0  0  0  0  0  0  0  0  0  0  0  0
   52.8465   26.7384   45.2522 H   0  0  0  0  0  0  0  0  0  0  0  0
   50.8148   28.1790   45.8785 H   0  0  0  0  0  0  0  0  0  0  0  0
  1  2  2  0
  2  3  1  0
  4  3  2  0
  5  4  1  0
  6  1  1  0
  6  5  2  0
  7 12  2  0
  8  7  1  0
  9  8  2  0
  9 10  1  0
 10 11  2  0
 11 12  1  0
 11 13  1  0
 13 14  1  0
 13 17  1  0
 14 15  2  0
 15  1  1  0
 15 16  1  0
 17 16  2  0
 18  6  1  0
 19 20  2  0
 19  5  1  0
 21 22  2  0
 21 19  1  0
 23 22  1  0
 24 25  1  0
 24 23  2  0
 25 21  1  0
  2 26  1  0
  3 27  1  0
  4 28  1  0
  7 29  1  0
  8 30  1  0
  9 31  1  0
 14 32  1  0
 17 33  1  0
 18 34  1  0
 18 35  1  0
 22 36  1  0
 24 37  1  0
 25 38  1  0
M  ISO  8  26  14  27  14  28  14  29  14  30  14  31  14  32  14  33  14
M  ISO  3  36  14  37  14  38   9
M  END
>  <minimizedAffinity>  (1) 
-5.44746494

>  <minimizedRMSD>  (1) 
1.13850653

$$$$
