
     RDKit          3D

 40 43  0  0  0  0  0  0  0  0999 V2000
   47.9770   30.8680   48.3560 C   0  0  0  0  0  0  0  0  0  0  0  0
   48.6320   31.2210   49.5220 C   0  0  0  0  0  0  0  0  0  0  0  0
   49.6170   30.4310   50.0510 C   0  0  0  0  0  0  0  0  0  0  0  0
   49.9460   29.2600   49.3870 C   0  0  0  0  0  0  0  0  0  0  0  0
   49.2970   28.9140   48.2330 C   0  0  0  0  0  0  0  0  0  0  0  0
   48.3040   29.7100   47.7010 C   0  0  0  0  0  0  0  0  0  0  0  0
   44.4780   35.8590   44.6310 C   0  0  0  0  0  0  0  0  0  0  0  0
   45.1810   35.7390   43.4470 C   0  0  0  0  0  0  0  0  0  0  0  0
   46.1440   34.7270   43.3140 C   0  0  0  0  0  0  0  0  0  0  0  0
   46.3430   33.9000   44.3740 N   0  0  0  0  0  0  0  0  0  0  0  0
   45.6300   34.0510   45.5240 C   0  0  0  0  0  0  0  0  0  0  0  0
   44.6990   35.0180   45.6700 N   0  0  0  0  0  0  0  0  0  0  0  0
   45.8380   33.1830   46.6350 N   0  0  0  0  0  0  0  0  0  0  0  0
   46.9980   32.5190   46.7000 C   0  0  0  0  0  0  0  0  0  0  0  0
   46.9440   31.7580   47.8600 C   0  0  0  0  0  0  0  0  0  0  0  0
   45.7620   31.9780   48.4690 N   0  0  0  0  0  0  0  0  0  0  0  0
   45.0770   32.8440   47.7340 C   0  0  0  0  0  0  0  0  0  0  0  0
   47.6400   29.3430   46.5080 N   0  0  0  0  0  0  0  0  0  0  0  0
   49.6470   27.6740   47.5330 C   0  0  0  0  0  0  0  0  0  0  0  0
   49.0180   26.5980   47.7190 O   0  0  0  0  0  0  0  0  0  0  0  0
   50.7800   27.6760   46.5690 C   0  0  0  0  0  0  0  0  0  0  0  0
   51.3470   26.4040   46.1920 C   0  0  0  0  0  0  0  0  0  0  0  0
   52.6610   26.9470   45.0280 S   0  0  0  0  0  0  0  0  0  0  0  0
   52.2270   28.7720   45.2470 C   0  0  0  0  0  0  0  0  0  0  0  0
   51.3310   28.7130   46.0130 N   0  0  0  0  0  0  0  0  0  0  0  0
   52.9630   29.8250   44.5320 C   0  0  0  0  0  0  0  0  0  0  0  0
   52.0580   30.5420   43.7370 F   0  0  0  0  0  0  0  0  0  0  0  0
   53.5400   30.7320   45.3830 F   0  0  0  0  0  0  0  0  0  0  0  0
   53.8210   29.2090   43.6770 F   0  0  0  0  0  0  0  0  0  0  0  0
   48.3561   32.1546   50.0342 H   0  0  0  0  0  0  0  0  0  0  0  0
   50.1337   30.7182   50.9787 H   0  0  0  0  0  0  0  0  0  0  0  0
   50.7329   28.6052   49.7896 H   0  0  0  0  0  0  0  0  0  0  0  0
   43.7238   36.6534   44.7318 H   0  0  0  0  0  0  0  0  0  0  0  0
   44.9870   36.4318   42.6149 H   0  0  0  0  0  0  0  0  0  0  0  0
   46.7183   34.6071   42.3835 H   0  0  0  0  0  0  0  0  0  0  0  0
   47.8276   32.5666   45.9792 H   0  0  0  0  0  0  0  0  0  0  0  0
   44.0715   33.2271   47.9625 H   0  0  0  0  0  0  0  0  0  0  0  0
   46.9005   29.9480   46.1232 H   0  0  0  0  0  0  0  0  0  0  0  0
   47.8957   28.4707   46.0237 H   0  0  0  0  0  0  0  0  0  0  0  0
   51.0693   25.3891   46.5129 H   0  0  0  0  0  0  0  0  0  0  0  0
  1  2  2  0
  2  3  1  0
  4  3  2  0
  5  4  1  0
  6  5  2  0
  6  1  1  0
  7 12  2  0
  8  7  1  0
  9  8  2  0
  9 10  1  0
 10 11  2  0
 11 12  1  0
 11 13  1  0
 13 14  1  0
 13 17  1  0
 14 15  2  0
 15  1  1  0
 15 16  1  0
 17 16  2  0
 18  6  1  0
 19 20  2  0
 19  5  1  0
 21 19  1  0
 22 21  2  0
 23 24  1  0
 23 22  1  0
 24 25  2  0
 25 21  1  0
 26 24  1  0
 26 28  1  0
 27 26  1  0
 29 26  1  0
  2 30  1  0
  3 31  1  0
  4 32  1  0
  7 33  1  0
  8 34  1  0
  9 35  1  0
 14 36  1  0
 17 37  1  0
 18 38  1  0
 18 39  1  0
 22 40  1  0
M  ISO  8  30  14  31  14  32  14  33  14  34  14  35  14  36  14  37  14
M  ISO  1  40  14
M  END
>  <minimizedAffinity>  (1) 
-5.7690773

>  <minimizedRMSD>  (1) 
1.61134446

$$$$
