
     RDKit          3D

 43 46  0  0  0  0  0  0  0  0999 V2000
   48.0980   31.0000   48.4430 C   0  0  0  0  0  0  0  0  0  0  0  0
   48.9200   31.5040   49.4210 C   0  0  0  0  0  0  0  0  0  0  0  0
   49.9360   30.7590   49.9590 C   0  0  0  0  0  0  0  0  0  0  0  0
   50.1210   29.4640   49.4890 C   0  0  0  0  0  0  0  0  0  0  0  0
   49.3020   28.9610   48.5130 C   0  0  0  0  0  0  0  0  0  0  0  0
   48.2890   29.7130   47.9820 C   0  0  0  0  0  0  0  0  0  0  0  0
   44.4710   35.7890   44.5720 C   0  0  0  0  0  0  0  0  0  0  0  0
   45.1900   35.6730   43.4020 C   0  0  0  0  0  0  0  0  0  0  0  0
   46.1900   34.6960   43.3090 C   0  0  0  0  0  0  0  0  0  0  0  0
   46.4030   33.9040   44.3880 N   0  0  0  0  0  0  0  0  0  0  0  0
   45.6740   34.0470   45.5260 C   0  0  0  0  0  0  0  0  0  0  0  0
   44.7060   34.9790   45.6420 N   0  0  0  0  0  0  0  0  0  0  0  0
   45.8980   33.2130   46.6610 N   0  0  0  0  0  0  0  0  0  0  0  0
   47.0860   32.5830   46.7370 C   0  0  0  0  0  0  0  0  0  0  0  0
   47.0460   31.8470   47.9220 C   0  0  0  0  0  0  0  0  0  0  0  0
   45.8590   32.0520   48.5130 N   0  0  0  0  0  0  0  0  0  0  0  0
   45.1590   32.8730   47.7620 C   0  0  0  0  0  0  0  0  0  0  0  0
   47.4480   29.1800   46.9720 N   0  0  0  0  0  0  0  0  0  0  0  0
   49.5040   27.5970   48.0230 C   0  0  0  0  0  0  0  0  0  0  0  0
   48.9080   26.6060   48.5290 O   0  0  0  0  0  0  0  0  0  0  0  0
   50.4390   27.3650   46.8960 C   0  0  0  0  0  0  0  0  0  0  0  0
   51.3950   26.2770   47.0000 C   0  0  0  0  0  0  0  0  0  0  0  0
   52.2810   26.4220   45.3900 S   0  0  0  0  0  0  0  0  0  0  0  0
   51.2310   27.8900   44.8680 C   0  0  0  0  0  0  0  0  0  0  0  0
   50.5150   28.0340   45.7840 N   0  0  0  0  0  0  0  0  0  0  0  0
   51.4510   28.5480   43.5490 C   0  0  0  0  0  0  0  0  0  0  0  0
   52.0940   29.8950   43.6640 C   0  0  0  0  0  0  0  0  0  0  0  0
   48.7587   32.5308   49.7811 H   0  0  0  0  0  0  0  0  0  0  0  0
   50.5878   31.1744   50.7417 H   0  0  0  0  0  0  0  0  0  0  0  0
   50.9279   28.8410   49.9023 H   0  0  0  0  0  0  0  0  0  0  0  0
   43.6861   36.5563   44.6439 H   0  0  0  0  0  0  0  0  0  0  0  0
   44.9814   36.3391   42.5518 H   0  0  0  0  0  0  0  0  0  0  0  0
   46.7828   34.5757   42.3903 H   0  0  0  0  0  0  0  0  0  0  0  0
   47.9147   32.6373   46.0157 H   0  0  0  0  0  0  0  0  0  0  0  0
   44.1422   33.2297   47.9829 H   0  0  0  0  0  0  0  0  0  0  0  0
   47.5962   28.2189   46.6327 H   0  0  0  0  0  0  0  0  0  0  0  0
   46.6891   29.7541   46.5778 H   0  0  0  0  0  0  0  0  0  0  0  0
   51.5491   25.5593   47.8192 H   0  0  0  0  0  0  0  0  0  0  0  0
   50.4777   28.6662   43.0502 H   0  0  0  0  0  0  0  0  0  0  0  0
   52.1343   27.9068   42.9728 H   0  0  0  0  0  0  0  0  0  0  0  0
   52.2172   30.1530   44.7262 H   0  0  0  0  0  0  0  0  0  0  0  0
   53.0792   29.8740   43.1752 H   0  0  0  0  0  0  0  0  0  0  0  0
   51.4581   30.6478   43.1752 H   0  0  0  0  0  0  0  0  0  0  0  0
  1  2  2  0
  2  3  1  0
  4  3  2  0
  5  4  1  0
  6  1  1  0
  6  5  2  0
  7 12  2  0
  8  7  1  0
  9  8  2  0
  9 10  1  0
 10 11  2  0
 11 12  1  0
 11 13  1  0
 13 14  1  0
 13 17  1  0
 14 15  2  0
 15  1  1  0
 15 16  1  0
 17 16  2  0
 18  6  1  0
 19  5  1  0
 19 20  2  0
 21 22  2  0
 21 19  1  0
 23 22  1  0
 24 23  1  0
 24 25  2  0
 25 21  1  0
 26 27  1  0
 26 24  1  0
  2 28  1  0
  3 29  1  0
  4 30  1  0
  7 31  1  0
  8 32  1  0
  9 33  1  0
 14 34  1  0
 17 35  1  0
 18 36  1  0
 18 37  1  0
 22 38  1  0
 26 39  1  0
 26 40  1  0
 27 41  1  0
 27 42  1  0
 27 43  1  0
M  ISO  8  28  14  29  14  30  14  31  14  32  14  33  14  34  14  35  14
M  ISO  6  38  14  39   8  40   8  41   8  42   8  43   8
M  END
>  <minimizedAffinity>  (1) 
-5.45663834

>  <minimizedRMSD>  (1) 
0.481480986

$$$$
