
     RDKit          3D

 40 43  0  0  0  0  0  0  0  0999 V2000
   48.1380   30.9380   48.3680 C   0  0  0  0  0  0  0  0  0  0  0  0
   49.0390   31.4800   49.2500 C   0  0  0  0  0  0  0  0  0  0  0  0
   50.0680   30.7380   49.7700 C   0  0  0  0  0  0  0  0  0  0  0  0
   50.1790   29.4110   49.3790 C   0  0  0  0  0  0  0  0  0  0  0  0
   49.2790   28.8770   48.5000 C   0  0  0  0  0  0  0  0  0  0  0  0
   48.2500   29.6240   47.9820 C   0  0  0  0  0  0  0  0  0  0  0  0
   44.4590   35.7840   44.6120 C   0  0  0  0  0  0  0  0  0  0  0  0
   45.1940   35.6970   43.4280 C   0  0  0  0  0  0  0  0  0  0  0  0
   46.1980   34.7410   43.3210 C   0  0  0  0  0  0  0  0  0  0  0  0
   46.4190   33.9260   44.3850 N   0  0  0  0  0  0  0  0  0  0  0  0
   45.6860   34.0350   45.5250 C   0  0  0  0  0  0  0  0  0  0  0  0
   44.7110   34.9530   45.6510 N   0  0  0  0  0  0  0  0  0  0  0  0
   45.9230   33.1780   46.6330 N   0  0  0  0  0  0  0  0  0  0  0  0
   47.1110   32.5570   46.6960 C   0  0  0  0  0  0  0  0  0  0  0  0
   47.0770   31.7920   47.8640 C   0  0  0  0  0  0  0  0  0  0  0  0
   45.8950   31.9720   48.4570 N   0  0  0  0  0  0  0  0  0  0  0  0
   45.1830   32.8060   47.7280 C   0  0  0  0  0  0  0  0  0  0  0  0
   47.3220   29.0550   47.0690 N   0  0  0  0  0  0  0  0  0  0  0  0
   49.4030   27.4730   48.0900 C   0  0  0  0  0  0  0  0  0  0  0  0
   48.8160   26.5390   48.7050 O   0  0  0  0  0  0  0  0  0  0  0  0
   50.2470   27.1240   46.9090 C   0  0  0  0  0  0  0  0  0  0  0  0
   51.3920   26.2820   47.1060 C   0  0  0  0  0  0  0  0  0  0  0  0
   52.0560   26.1610   45.4170 S   0  0  0  0  0  0  0  0  0  0  0  0
   50.6840   27.2630   44.7170 C   0  0  0  0  0  0  0  0  0  0  0  0
   50.0570   27.5060   45.6830 N   0  0  0  0  0  0  0  0  0  0  0  0
   50.4740   27.7060   43.2690 C   0  0  0  0  0  0  0  0  0  0  0  0
   48.9332   32.5340   49.5466 H   0  0  0  0  0  0  0  0  0  0  0  0
   50.7848   31.1816   50.4766 H   0  0  0  0  0  0  0  0  0  0  0  0
   50.9931   28.7877   49.7774 H   0  0  0  0  0  0  0  0  0  0  0  0
   43.6637   36.5386   44.7020 H   0  0  0  0  0  0  0  0  0  0  0  0
   44.9813   36.3768   42.5897 H   0  0  0  0  0  0  0  0  0  0  0  0
   46.7955   34.6475   42.4022 H   0  0  0  0  0  0  0  0  0  0  0  0
   47.9397   32.6344   45.9768 H   0  0  0  0  0  0  0  0  0  0  0  0
   44.1633   33.1483   47.9584 H   0  0  0  0  0  0  0  0  0  0  0  0
   47.4158   28.0689   46.7868 H   0  0  0  0  0  0  0  0  0  0  0  0
   46.5554   29.6286   46.6893 H   0  0  0  0  0  0  0  0  0  0  0  0
   51.7692   25.8287   48.0346 H   0  0  0  0  0  0  0  0  0  0  0  0
   50.0029   28.6999   43.2543 H   0  0  0  0  0  0  0  0  0  0  0  0
   51.4456   27.7532   42.7554 H   0  0  0  0  0  0  0  0  0  0  0  0
   49.8224   26.9837   42.7554 H   0  0  0  0  0  0  0  0  0  0  0  0
  1  2  2  0
  2  3  1  0
  4  3  2  0
  5  4  1  0
  6  1  1  0
  6  5  2  0
  7 12  2  0
  8  7  1  0
  9  8  2  0
  9 10  1  0
 10 11  2  0
 11 12  1  0
 11 13  1  0
 13 14  1  0
 13 17  1  0
 14 15  2  0
 15  1  1  0
 15 16  1  0
 17 16  2  0
 18  6  1  0
 19  5  1  0
 19 20  2  0
 21 22  2  0
 21 19  1  0
 23 22  1  0
 24 23  1  0
 24 25  2  0
 25 21  1  0
 26 24  1  0
  2 27  1  0
  3 28  1  0
  4 29  1  0
  7 30  1  0
  8 31  1  0
  9 32  1  0
 14 33  1  0
 17 34  1  0
 18 35  1  0
 18 36  1  0
 22 37  1  0
 26 38  1  0
 26 39  1  0
 26 40  1  0
M  ISO  8  27  14  28  14  29  14  30  14  31  14  32  14  33  14  34  14
M  ISO  4  37  14  38   8  39   8  40   8
M  END
>  <minimizedAffinity>  (1) 
-5.49653339

>  <minimizedRMSD>  (1) 
0.0465382971

$$$$
