
     RDKit          3D

 36 37  0  0  0  0  0  0  0  0999 V2000
   45.5590   35.0490   42.7380 C   0  0  0  0  0  0  0  0  0  0  0  0
   45.1350   34.5250   45.1360 C   0  0  0  0  0  0  0  0  0  0  0  0
   45.8730   34.2430   43.9720 C   0  0  0  0  0  0  0  0  0  0  0  0
   46.8390   33.2370   44.0480 C   0  0  0  0  0  0  0  0  0  0  0  0
   47.0210   32.5890   45.2150 N   0  0  0  0  0  0  0  0  0  0  0  0
   46.2840   32.8940   46.3230 C   0  0  0  0  0  0  0  0  0  0  0  0
   45.3460   33.8590   46.2780 N   0  0  0  0  0  0  0  0  0  0  0  0
   46.7300   34.9990   41.8030 C   0  0  0  0  0  0  0  0  0  0  0  0
   45.2460   36.4470   43.1450 C   0  0  0  0  0  0  0  0  0  0  0  0
   44.3210   34.4660   42.0910 C   0  0  0  0  0  0  0  0  0  0  0  0
   43.2640   35.3450   42.2790 O   0  0  0  0  0  0  0  0  0  0  0  0
   42.2810   35.4020   41.2950 C   0  0  0  0  0  0  0  0  0  0  0  0
   40.9440   35.6570   41.5430 C   0  0  0  0  0  0  0  0  0  0  0  0
   40.3280   35.6220   40.2890 C   0  0  0  0  0  0  0  0  0  0  0  0
   41.2450   35.3600   39.3470 N   0  0  0  0  0  0  0  0  0  0  0  0
   42.3990   35.2310   39.9540 N   0  0  0  0  0  0  0  0  0  0  0  0
   41.0490   35.2330   37.9180 C   0  0  0  0  0  0  0  0  0  0  0  0
   41.3320   36.5260   37.1690 C   0  0  0  0  0  0  0  0  0  0  0  0
   44.3664   35.3114   45.1071 H   0  0  0  0  0  0  0  0  0  0  0  0
   47.4433   32.9772   43.1664 H   0  0  0  0  0  0  0  0  0  0  0  0
   46.4580   32.3464   47.2610 H   0  0  0  0  0  0  0  0  0  0  0  0
   47.6625   34.9592   42.3851 H   0  0  0  0  0  0  0  0  0  0  0  0
   46.6550   34.1032   41.1690 H   0  0  0  0  0  0  0  0  0  0  0  0
   46.7316   35.8979   41.1690 H   0  0  0  0  0  0  0  0  0  0  0  0
   45.2309   36.5146   44.2428 H   0  0  0  0  0  0  0  0  0  0  0  0
   46.0144   37.1257   42.7464 H   0  0  0  0  0  0  0  0  0  0  0  0
   44.2615   36.7332   42.7464 H   0  0  0  0  0  0  0  0  0  0  0  0
   44.0831   33.4969   42.5538 H   0  0  0  0  0  0  0  0  0  0  0  0
   44.4961   34.3155   41.0155 H   0  0  0  0  0  0  0  0  0  0  0  0
   40.4686   35.8464   42.5167 H   0  0  0  0  0  0  0  0  0  0  0  0
   39.2560   35.7844   40.1036 H   0  0  0  0  0  0  0  0  0  0  0  0
   41.7238   34.4516   37.5384 H   0  0  0  0  0  0  0  0  0  0  0  0
   39.9928   34.9759   37.7493 H   0  0  0  0  0  0  0  0  0  0  0  0
   41.5094   37.3367   37.8910 H   0  0  0  0  0  0  0  0  0  0  0  0
   42.2230   36.3962   36.5371 H   0  0  0  0  0  0  0  0  0  0  0  0
   40.4683   36.7803   36.5371 H   0  0  0  0  0  0  0  0  0  0  0  0
  1  9  1  0
  1  3  1  0
  2  7  2  0
  3  4  2  0
  3  2  1  0
  4  5  1  0
  5  6  2  0
  7  6  1  0
  8  1  1  0
 10 11  1  0
 10  1  1  0
 12 13  1  0
 12 11  1  0
 14 13  2  0
 15 16  1  0
 15 14  1  0
 16 12  2  0
 17 15  1  0
 18 17  1  0
  2 19  1  0
  4 20  1  0
  6 21  1  0
  8 22  1  0
  8 23  1  0
  8 24  1  0
  9 25  1  0
  9 26  1  0
  9 27  1  0
 10 28  1  0
 10 29  1  0
 13 30  1  0
 14 31  1  0
 17 32  1  0
 17 33  1  0
 18 34  1  0
 18 35  1  0
 18 36  1  0
M  ISO  8  19  14  20  14  21  14  22   8  23   8  24   8  25   8  26   8
M  ISO  8  27   8  28   8  29   8  30  14  31  14  32   8  33   8  34   8
M  ISO  2  35   8  36   8
M  END
>  <minimizedAffinity>  (1) 
-5.12776947

>  <minimizedRMSD>  (1) 
0.22612986

$$$$
