
     RDKit          3D

 30 32  0  0  1  0  0  0  0  0999 V2000
   46.3060   35.1040   42.3230 C   0  0  1  0  0  0  0  0  0  0  0  0
   45.4530   34.5740   41.2570 C   0  0  0  0  0  0  0  0  0  0  0  0
   45.8240   33.7280   40.2010 C   0  0  0  0  0  0  0  0  0  0  0  0
   44.7840   33.4490   39.3930 N   0  0  0  0  0  0  0  0  0  0  0  0
   43.6900   34.0800   39.8590 C   0  0  0  0  0  0  0  0  0  0  0  0
   42.3870   34.1330   39.4270 C   0  0  0  0  0  0  0  0  0  0  0  0
   41.4310   34.8620   40.0930 C   0  0  0  0  0  0  0  0  0  0  0  0
   41.8290   35.5450   41.2210 C   0  0  0  0  0  0  0  0  0  0  0  0
   43.1430   35.4820   41.6440 C   0  0  0  0  0  0  0  0  0  0  0  0
   44.1150   34.7490   40.9780 C   0  0  0  0  0  0  0  0  0  0  0  0
   45.2480   34.9250   44.5320 C   0  0  0  0  0  0  0  0  0  0  0  0
   46.2230   34.4430   43.6160 C   0  0  0  0  0  0  0  0  0  0  0  0
   47.0160   33.3880   44.0320 C   0  0  0  0  0  0  0  0  0  0  0  0
   46.8290   32.8800   45.2650 N   0  0  0  0  0  0  0  0  0  0  0  0
   45.8950   33.3600   46.1130 C   0  0  0  0  0  0  0  0  0  0  0  0
   45.0980   34.3860   45.7510 N   0  0  0  0  0  0  0  0  0  0  0  0
   47.7720   35.2170   41.9520 C   0  0  0  0  0  0  0  0  0  0  0  0
   45.8644   36.1051   42.4358 H   0  0  0  0  0  0  0  0  0  0  0  0
   46.8421   33.3394   40.0513 H   0  0  0  0  0  0  0  0  0  0  0  0
   44.8195   32.8507   38.5554 H   0  0  0  0  0  0  0  0  0  0  0  0
   42.1007   33.5763   38.5225 H   0  0  0  0  0  0  0  0  0  0  0  0
   40.3900   34.8985   39.7395 H   0  0  0  0  0  0  0  0  0  0  0  0
   41.0988   36.1423   41.7867 H   0  0  0  0  0  0  0  0  0  0  0  0
   43.4312   36.0375   42.5487 H   0  0  0  0  0  0  0  0  0  0  0  0
   44.5998   35.7619   44.2330 H   0  0  0  0  0  0  0  0  0  0  0  0
   47.7863   32.9713   43.3665 H   0  0  0  0  0  0  0  0  0  0  0  0
   45.7827   32.9095   47.1102 H   0  0  0  0  0  0  0  0  0  0  0  0
   48.3794   35.2638   42.8679 H   0  0  0  0  0  0  0  0  0  0  0  0
   48.0690   34.3391   41.3595 H   0  0  0  0  0  0  0  0  0  0  0  0
   47.9310   36.1301   41.3595 H   0  0  0  0  0  0  0  0  0  0  0  0
  1 12  1  0
  2  1  1  0
  3  2  2  0
  4  5  1  0
  4  3  1  0
  5 10  2  0
  6  5  1  0
  6  7  2  0
  7  8  1  0
  8  9  2  0
 10  2  1  0
 10  9  1  0
 11 16  2  0
 12 13  2  0
 12 11  1  0
 13 14  1  0
 14 15  2  0
 16 15  1  0
 17  1  1  0
  1 18  1  1
  3 19  1  0
  4 20  1  0
  6 21  1  0
  7 22  1  0
  8 23  1  0
  9 24  1  0
 11 25  1  0
 13 26  1  0
 15 27  1  0
 17 28  1  0
 17 29  1  0
 17 30  1  0
M  ISO  8  18   8  19  14  20   9  21  14  22  14  23  14  24  14  25  14
M  ISO  5  26  14  27  14  28   8  29   8  30   8
M  END
>  <minimizedAffinity>  (1) 
-5.28053856

>  <minimizedRMSD>  (1) 
1.1176306

$$$$
