
     RDKit          3D

 42 45  0  0  0  0  0  0  0  0999 V2000
   48.1630   31.0350   48.4590 C   0  0  0  0  0  0  0  0  0  0  0  0
   49.0800   31.6240   49.2750 C   0  0  0  0  0  0  0  0  0  0  0  0
   50.1180   30.9050   49.8170 C   0  0  0  0  0  0  0  0  0  0  0  0
   50.2150   29.5540   49.5140 C   0  0  0  0  0  0  0  0  0  0  0  0
   49.2880   28.9710   48.6930 C   0  0  0  0  0  0  0  0  0  0  0  0
   48.2580   29.7010   48.1600 C   0  0  0  0  0  0  0  0  0  0  0  0
   44.4820   35.7640   44.5560 C   0  0  0  0  0  0  0  0  0  0  0  0
   45.2210   35.6570   43.3910 C   0  0  0  0  0  0  0  0  0  0  0  0
   46.2260   34.7000   43.3140 C   0  0  0  0  0  0  0  0  0  0  0  0
   46.4530   33.8970   44.3810 N   0  0  0  0  0  0  0  0  0  0  0  0
   45.7000   34.0320   45.5170 C   0  0  0  0  0  0  0  0  0  0  0  0
   44.7120   34.9510   45.6330 N   0  0  0  0  0  0  0  0  0  0  0  0
   45.9270   33.1960   46.6450 N   0  0  0  0  0  0  0  0  0  0  0  0
   47.1360   32.5990   46.7500 C   0  0  0  0  0  0  0  0  0  0  0  0
   47.0950   31.8520   47.9220 C   0  0  0  0  0  0  0  0  0  0  0  0
   45.8800   32.0160   48.4810 N   0  0  0  0  0  0  0  0  0  0  0  0
   45.1650   32.8220   47.7260 C   0  0  0  0  0  0  0  0  0  0  0  0
   47.3050   29.0740   47.3080 N   0  0  0  0  0  0  0  0  0  0  0  0
   49.3930   27.5480   48.3770 C   0  0  0  0  0  0  0  0  0  0  0  0
   48.3890   26.7760   48.3950 O   0  0  0  0  0  0  0  0  0  0  0  0
   50.7120   26.9670   48.0220 C   0  0  0  0  0  0  0  0  0  0  0  0
   51.4140   26.1690   48.9900 C   0  0  0  0  0  0  0  0  0  0  0  0
   52.9360   25.7130   48.0710 S   0  0  0  0  0  0  0  0  0  0  0  0
   52.3850   26.6640   46.5420 C   0  0  0  0  0  0  0  0  0  0  0  0
   51.3400   27.0910   46.9020 N   0  0  0  0  0  0  0  0  0  0  0  0
   53.1570   26.7370   45.3580 N   0  0  0  0  0  0  0  0  0  0  0  0
   51.0660   25.7840   50.3580 C   0  0  0  0  0  0  0  0  0  0  0  0
   49.9350   24.9670   50.2520 F   0  0  0  0  0  0  0  0  0  0  0  0
   52.0380   24.9840   50.9400 F   0  0  0  0  0  0  0  0  0  0  0  0
   50.7320   26.8600   51.1430 F   0  0  0  0  0  0  0  0  0  0  0  0
   48.9882   32.6958   49.5048 H   0  0  0  0  0  0  0  0  0  0  0  0
   50.8546   31.3887   50.4754 H   0  0  0  0  0  0  0  0  0  0  0  0
   51.0355   28.9529   49.9330 H   0  0  0  0  0  0  0  0  0  0  0  0
   43.6882   36.5229   44.6183 H   0  0  0  0  0  0  0  0  0  0  0  0
   45.0159   36.3201   42.5377 H   0  0  0  0  0  0  0  0  0  0  0  0
   46.8285   34.5962   42.3996 H   0  0  0  0  0  0  0  0  0  0  0  0
   47.9803   32.6866   46.0503 H   0  0  0  0  0  0  0  0  0  0  0  0
   44.1319   33.1424   47.9261 H   0  0  0  0  0  0  0  0  0  0  0  0
   47.3890   28.0704   47.0920 H   0  0  0  0  0  0  0  0  0  0  0  0
   46.5316   29.6240   46.9077 H   0  0  0  0  0  0  0  0  0  0  0  0
   54.0659   26.2554   45.3053 H   0  0  0  0  0  0  0  0  0  0  0  0
   52.8099   27.2717   44.5490 H   0  0  0  0  0  0  0  0  0  0  0  0
  1  2  2  0
  2  3  1  0
  4  3  2  0
  5  4  1  0
  6  1  1  0
  6  5  2  0
  7 12  2  0
  8  7  1  0
  9  8  2  0
  9 10  1  0
 10 11  2  0
 11 12  1  0
 11 13  1  0
 13 14  1  0
 13 17  1  0
 14 15  2  0
 15  1  1  0
 15 16  1  0
 17 16  2  0
 18  6  1  0
 19 20  2  0
 19  5  1  0
 21 19  1  0
 21 22  2  0
 22 27  1  0
 23 22  1  0
 24 25  2  0
 24 23  1  0
 25 21  1  0
 26 24  1  0
 27 29  1  0
 27 30  1  0
 28 27  1  0
  2 31  1  0
  3 32  1  0
  4 33  1  0
  7 34  1  0
  8 35  1  0
  9 36  1  0
 14 37  1  0
 17 38  1  0
 18 39  1  0
 18 40  1  0
 26 41  1  0
 26 42  1  0
M  ISO  8  31  14  32  14  33  14  34  14  35  14  36  14  37  14  38  14
M  END
>  <minimizedAffinity>  (1) 
-5.86287355

>  <minimizedRMSD>  (1) 
1.39742625

$$$$
