
     RDKit          3D

 26 27  0  0  1  0  0  0  0  0999 V2000
   47.8710   35.1990   41.7230 C   0  0  2  0  0  0  0  0  0  0  0  0
   45.8370   35.5710   43.0190 C   0  0  0  0  0  0  0  0  0  0  0  0
   47.0020   34.8210   42.8400 C   0  0  0  0  0  0  0  0  0  0  0  0
   47.2480   33.7670   43.7430 C   0  0  0  0  0  0  0  0  0  0  0  0
   46.3340   33.5690   44.7130 N   0  0  0  0  0  0  0  0  0  0  0  0
   45.2320   34.3140   44.8460 C   0  0  0  0  0  0  0  0  0  0  0  0
   44.9660   35.3160   44.0130 N   0  0  0  0  0  0  0  0  0  0  0  0
   47.5000   34.4930   40.4710 C   0  0  0  0  0  0  0  0  0  0  0  0
   48.3610   34.7020   39.3960 C   0  0  0  0  0  0  0  0  0  0  0  0
   48.1420   34.1120   38.1740 C   0  0  0  0  0  0  0  0  0  0  0  0
   47.0530   33.2840   37.9640 C   0  0  0  0  0  0  0  0  0  0  0  0
   46.1960   33.0770   39.0380 C   0  0  0  0  0  0  0  0  0  0  0  0
   46.4150   33.6690   40.2650 C   0  0  0  0  0  0  0  0  0  0  0  0
   49.2880   34.8290   42.1160 C   0  0  0  0  0  0  0  0  0  0  0  0
   47.7703   36.2766   41.5265 H   0  0  0  0  0  0  0  0  0  0  0  0
   45.6245   36.3973   42.3246 H   0  0  0  0  0  0  0  0  0  0  0  0
   48.1447   33.1353   43.6597 H   0  0  0  0  0  0  0  0  0  0  0  0
   44.5293   34.0932   45.6630 H   0  0  0  0  0  0  0  0  0  0  0  0
   49.2367   35.3545   39.5282 H   0  0  0  0  0  0  0  0  0  0  0  0
   48.8443   34.3012   37.3488 H   0  0  0  0  0  0  0  0  0  0  0  0
   46.8735   32.8097   36.9879 H   0  0  0  0  0  0  0  0  0  0  0  0
   45.3203   32.4243   38.9067 H   0  0  0  0  0  0  0  0  0  0  0  0
   45.7132   33.4804   41.0908 H   0  0  0  0  0  0  0  0  0  0  0  0
   49.3706   34.8074   43.2127 H   0  0  0  0  0  0  0  0  0  0  0  0
   49.5338   33.8366   41.7102 H   0  0  0  0  0  0  0  0  0  0  0  0
   49.9876   35.5746   41.7102 H   0  0  0  0  0  0  0  0  0  0  0  0
  1 14  1  0
  1  3  1  0
  2  7  2  0
  3  2  1  0
  3  4  2  0
  4  5  1  0
  5  6  2  0
  7  6  1  0
  8  1  1  0
  9  8  2  0
 10  9  1  0
 11 10  2  0
 11 12  1  0
 12 13  2  0
 13  8  1  0
  1 15  1  6
  2 16  1  0
  4 17  1  0
  6 18  1  0
  9 19  1  0
 10 20  1  0
 11 21  1  0
 12 22  1  0
 13 23  1  0
 14 24  1  0
 14 25  1  0
 14 26  1  0
M  ISO  8  15   8  16  14  17  14  18  14  19  14  20  14  21  14  22  14
M  ISO  4  23  14  24   8  25   8  26   8
M  END
>  <minimizedAffinity>  (1) 
-4.57373905

>  <minimizedRMSD>  (1) 
1.66819012

$$$$
