
     RDKit          3D

 29 30  0  0  1  0  0  0  0  0999 V2000
   47.6290   35.1580   41.7370 C   0  0  2  0  0  0  0  0  0  0  0  0
   45.6440   35.5360   43.1840 C   0  0  0  0  0  0  0  0  0  0  0  0
   46.8310   34.7960   42.9110 C   0  0  0  0  0  0  0  0  0  0  0  0
   47.2040   33.7490   43.7900 C   0  0  0  0  0  0  0  0  0  0  0  0
   46.3920   33.5330   44.8340 N   0  0  0  0  0  0  0  0  0  0  0  0
   45.2840   34.2430   45.0680 C   0  0  0  0  0  0  0  0  0  0  0  0
   44.9080   35.2330   44.2580 N   0  0  0  0  0  0  0  0  0  0  0  0
   46.9900   33.1120   38.0270 C   0  0  0  0  0  0  0  0  0  0  0  0
   46.0520   32.9680   39.0490 C   0  0  0  0  0  0  0  0  0  0  0  0
   46.2740   33.6350   40.2410 C   0  0  0  0  0  0  0  0  0  0  0  0
   47.3520   34.4370   40.5060 C   0  0  0  0  0  0  0  0  0  0  0  0
   48.2570   34.5420   39.4420 C   0  0  0  0  0  0  0  0  0  0  0  0
   48.0910   33.9060   38.2410 C   0  0  0  0  0  0  0  0  0  0  0  0
   46.7680   32.3030   36.5150 S   0  0  0  0  0  0  0  0  0  0  0  0
   45.5030   32.7460   35.8150 O   0  0  0  0  0  0  0  0  0  0  0  0
   47.9110   32.6890   35.5920 O   0  0  0  0  0  0  0  0  0  0  0  0
   49.0840   35.0030   42.1020 C   0  0  0  0  0  0  0  0  0  0  0  0
   47.3480   36.1940   41.4966 H   0  0  0  0  0  0  0  0  0  0  0  0
   45.3351   36.3522   42.5144 H   0  0  0  0  0  0  0  0  0  0  0  0
   48.1097   33.1470   43.6246 H   0  0  0  0  0  0  0  0  0  0  0  0
   44.6688   34.0053   45.9483 H   0  0  0  0  0  0  0  0  0  0  0  0
   45.1590   32.3406   38.9112 H   0  0  0  0  0  0  0  0  0  0  0  0
   45.5260   33.5113   41.0380 H   0  0  0  0  0  0  0  0  0  0  0  0
   49.1499   35.1698   39.5789 H   0  0  0  0  0  0  0  0  0  0  0  0
   48.8406   34.0308   37.4457 H   0  0  0  0  0  0  0  0  0  0  0  0
   46.7094   30.9591   36.7747 H   0  0  0  0  0  0  0  0  0  0  0  0
   49.1882   34.9919   43.1970 H   0  0  0  0  0  0  0  0  0  0  0  0
   49.4674   34.0589   41.6876 H   0  0  0  0  0  0  0  0  0  0  0  0
   49.6577   35.8451   41.6876 H   0  0  0  0  0  0  0  0  0  0  0  0
  1 17  1  0
  1  3  1  0
  2  7  2  0
  3  2  1  0
  3  4  2  0
  4  5  1  0
  5  6  2  0
  7  6  1  0
  8 13  2  0
  8  9  1  0
  9 10  2  0
 10 11  1  0
 11  1  1  0
 12 11  2  0
 13 12  1  0
 14  8  1  0
 15 14  2  0
 16 14  2  0
  1 18  1  6
  2 19  1  0
  4 20  1  0
  6 21  1  0
  9 22  1  0
 10 23  1  0
 12 24  1  0
 13 25  1  0
 14 26  1  0
 17 27  1  0
 17 28  1  0
 17 29  1  0
M  ISO  8  18   8  19  14  20  14  21  14  22  14  23  14  24  14  25  14
M  ISO  4  26  11  27   8  28   8  29   8
M  END
>  <minimizedAffinity>  (1) 
-4.90513706

>  <minimizedRMSD>  (1) 
1.67820406

$$$$
