
     RDKit          3D

 23 24  0  0  1  0  0  0  0  0999 V2000
   45.4830   33.5830   44.8130 C   0  0  1  0  0  0  0  0  0  0  0  0
   47.6040   33.0970   43.7480 C   0  0  0  0  0  0  0  0  0  0  0  0
   46.4910   33.9430   43.8180 C   0  0  0  0  0  0  0  0  0  0  0  0
   46.4410   35.0280   42.9490 C   0  0  0  0  0  0  0  0  0  0  0  0
   47.4810   35.1830   42.0970 N   0  0  0  0  0  0  0  0  0  0  0  0
   48.5400   34.3710   42.0370 C   0  0  0  0  0  0  0  0  0  0  0  0
   48.6060   33.3300   42.8590 N   0  0  0  0  0  0  0  0  0  0  0  0
   46.1140   32.8100   45.8970 C   0  0  0  0  0  0  0  0  0  0  0  0
   46.1170   31.4500   46.1900 C   0  0  0  0  0  0  0  0  0  0  0  0
   46.8620   31.2570   47.3180 N   0  0  0  0  0  0  0  0  0  0  0  0
   47.3190   32.4370   47.7350 C   0  0  0  0  0  0  0  0  0  0  0  0
   46.8630   33.3660   46.8720 N   0  0  0  0  0  0  0  0  0  0  0  0
   44.9240   34.8890   45.3640 C   0  0  0  0  0  0  0  0  0  0  0  0
   44.6852   32.9683   44.3706 H   0  0  0  0  0  0  0  0  0  0  0  0
   47.6690   32.2305   44.4225 H   0  0  0  0  0  0  0  0  0  0  0  0
   45.5935   35.7292   42.9541 H   0  0  0  0  0  0  0  0  0  0  0  0
   49.3478   34.5623   41.3153 H   0  0  0  0  0  0  0  0  0  0  0  0
   45.6069   30.6651   45.6123 H   0  0  0  0  0  0  0  0  0  0  0  0
   47.9498   32.6187   48.6176 H   0  0  0  0  0  0  0  0  0  0  0  0
   47.0613   34.3739   46.9471 H   0  0  0  0  0  0  0  0  0  0  0  0
   44.9371   34.8585   46.4635 H   0  0  0  0  0  0  0  0  0  0  0  0
   45.5414   35.7291   45.0131 H   0  0  0  0  0  0  0  0  0  0  0  0
   43.8900   35.0222   45.0131 H   0  0  0  0  0  0  0  0  0  0  0  0
  1 13  1  0
  1  8  1  0
  2  3  2  0
  3  1  1  0
  4  3  1  0
  5  4  2  0
  6  5  1  0
  6  7  2  0
  7  2  1  0
  8  9  2  0
  8 12  1  0
  9 10  1  0
 10 11  2  0
 12 11  1  0
  1 14  1  6
  2 15  1  0
  4 16  1  0
  6 17  1  0
  9 18  1  0
 11 19  1  0
 12 20  1  0
 13 21  1  0
 13 22  1  0
 13 23  1  0
M  ISO  8  14   8  15  14  16  14  17  14  18  14  19  14  20   9  21   8
M  ISO  2  22   8  23   8
M  END
>  <minimizedAffinity>  (1) 
-4.17211342

>  <minimizedRMSD>  (1) 
5.50429869

$$$$
