
     RDKit          3D

 23 24  0  0  1  0  0  0  0  0999 V2000
   46.8480   35.1180   41.8950 C   0  0  2  0  0  0  0  0  0  0  0  0
   45.2250   36.0610   43.4680 C   0  0  0  0  0  0  0  0  0  0  0  0
   46.1380   35.0490   43.1470 C   0  0  0  0  0  0  0  0  0  0  0  0
   46.2900   34.0320   44.0830 C   0  0  0  0  0  0  0  0  0  0  0  0
   45.5710   34.0680   45.2220 N   0  0  0  0  0  0  0  0  0  0  0  0
   44.6950   35.0680   45.4960 C   0  0  0  0  0  0  0  0  0  0  0  0
   44.5150   36.0730   44.6200 N   0  0  0  0  0  0  0  0  0  0  0  0
   46.3040   34.2830   40.8270 N   0  0  0  0  0  0  0  0  0  0  0  0
   45.0700   33.8370   40.5160 C   0  0  0  0  0  0  0  0  0  0  0  0
   45.1500   33.0760   39.3860 C   0  0  0  0  0  0  0  0  0  0  0  0
   46.4410   33.0520   38.9930 N   0  0  0  0  0  0  0  0  0  0  0  0
   47.1380   33.7880   39.8760 C   0  0  0  0  0  0  0  0  0  0  0  0
   48.3160   34.8710   42.1460 C   0  0  0  0  0  0  0  0  0  0  0  0
   46.7087   36.1352   41.5001 H   0  0  0  0  0  0  0  0  0  0  0  0
   45.0784   36.8829   42.7518 H   0  0  0  0  0  0  0  0  0  0  0  0
   46.9910   33.2054   43.8953 H   0  0  0  0  0  0  0  0  0  0  0  0
   44.1293   35.0566   46.4393 H   0  0  0  0  0  0  0  0  0  0  0  0
   44.1504   34.0513   41.0802 H   0  0  0  0  0  0  0  0  0  0  0  0
   44.3110   32.5716   38.8844 H   0  0  0  0  0  0  0  0  0  0  0  0
   48.2231   33.9634   39.8345 H   0  0  0  0  0  0  0  0  0  0  0  0
   48.5025   34.8396   43.2296 H   0  0  0  0  0  0  0  0  0  0  0  0
   48.6086   33.9110   41.6956 H   0  0  0  0  0  0  0  0  0  0  0  0
   48.9066   35.6824   41.6956 H   0  0  0  0  0  0  0  0  0  0  0  0
  1 13  1  0
  1  3  1  0
  2  7  2  0
  3  2  1  0
  3  4  2  0
  4  5  1  0
  5  6  2  0
  7  6  1  0
  8  1  1  0
  9  8  1  0
 10  9  2  0
 11 10  1  0
 11 12  2  0
 12  8  1  0
  1 14  1  6
  2 15  1  0
  4 16  1  0
  6 17  1  0
  9 18  1  0
 10 19  1  0
 12 20  1  0
 13 21  1  0
 13 22  1  0
 13 23  1  0
M  ISO  8  14   8  15  14  16  14  17  14  18  14  19  14  20  14  21   8
M  ISO  2  22   8  23   8
M  END
>  <minimizedAffinity>  (1) 
-3.92527723

>  <minimizedRMSD>  (1) 
0.962140322

$$$$
