
     RDKit          3D

 17 17  0  0  1  0  0  0  0  0999 V2000
   45.1650   35.3180   44.1040 C   0  0  0  0  0  0  0  0  0  0  0  0
   46.2410   34.7230   43.3790 C   0  0  0  0  0  0  0  0  0  0  0  0
   46.9480   33.6850   43.9500 C   0  0  0  0  0  0  0  0  0  0  0  0
   46.5660   33.2760   45.2050 N   0  0  0  0  0  0  0  0  0  0  0  0
   45.5340   33.8640   45.8680 C   0  0  0  0  0  0  0  0  0  0  0  0
   44.8190   34.8840   45.3410 N   0  0  0  0  0  0  0  0  0  0  0  0
   46.4970   35.2070   42.0720 C   0  0  1  0  0  0  0  0  0  0  0  0
   48.0060   35.1020   41.7920 C   0  0  0  0  0  0  0  0  0  0  0  0
   45.8940   34.2830   41.1500 O   0  0  0  0  0  0  0  0  0  0  0  0
   44.6038   36.1474   43.6488 H   0  0  0  0  0  0  0  0  0  0  0  0
   47.7843   33.2039   43.4216 H   0  0  0  0  0  0  0  0  0  0  0  0
   45.2710   33.4960   46.8707 H   0  0  0  0  0  0  0  0  0  0  0  0
   46.1241   36.2373   41.9750 H   0  0  0  0  0  0  0  0  0  0  0  0
   48.5540   35.0639   42.7450 H   0  0  0  0  0  0  0  0  0  0  0  0
   48.2092   34.1875   41.2154 H   0  0  0  0  0  0  0  0  0  0  0  0
   48.3339   35.9795   41.2154 H   0  0  0  0  0  0  0  0  0  0  0  0
   45.4285   33.5697   41.6546 H   0  0  0  0  0  0  0  0  0  0  0  0
  1  6  2  0
  2  3  2  0
  2  1  1  0
  3  4  1  0
  4  5  2  0
  6  5  1  0
  7  2  1  0
  8  7  1  0
  9  7  1  0
  1 10  1  0
  3 11  1  0
  5 12  1  0
  7 13  1  1
  8 14  1  0
  8 15  1  0
  8 16  1  0
  9 17  1  0
M  ISO  8  10  14  11  14  12  14  13   8  14   8  15   8  16   8  17   3
M  END
>  <minimizedAffinity>  (1) 
-3.15499949

>  <minimizedRMSD>  (1) 
0.245712057

$$$$
