
     RDKit          3D

 37 40  0  0  1  0  0  0  0  0999 V2000
   46.5370   33.3280   41.5970 C   0  0  2  0  0  0  0  0  0  0  0  0
   48.8490   32.5860   41.2060 C   0  0  0  0  0  0  0  0  0  0  0  0
   47.9490   33.4380   41.8240 C   0  0  0  0  0  0  0  0  0  0  0  0
   48.4830   34.4230   42.7040 C   0  0  0  0  0  0  0  0  0  0  0  0
   49.8280   34.4760   42.8890 N   0  0  0  0  0  0  0  0  0  0  0  0
   50.6510   33.6180   42.2570 C   0  0  0  0  0  0  0  0  0  0  0  0
   50.1760   32.6900   41.4320 N   0  0  0  0  0  0  0  0  0  0  0  0
   45.7650   34.5540   42.0040 C   0  0  0  0  0  0  0  0  0  0  0  0
   44.4630   34.7750   41.5600 C   0  0  0  0  0  0  0  0  0  0  0  0
   44.1130   35.9700   42.1340 C   0  0  0  0  0  0  0  0  0  0  0  0
   45.1920   36.4290   42.8940 C   0  0  0  0  0  0  0  0  0  0  0  0
   46.1450   35.5510   42.7820 O   0  0  0  0  0  0  0  0  0  0  0  0
   45.9750   32.1010   42.2440 C   0  0  0  0  0  0  0  0  0  0  0  0
   46.5630   31.7300   43.4890 N   0  0  0  0  0  0  0  0  0  0  0  0
   47.4420   30.8260   43.8970 C   0  0  0  0  0  0  0  0  0  0  0  0
   47.6970   30.8720   45.2130 N   0  0  0  0  0  0  0  0  0  0  0  0
   46.9570   31.8550   45.7290 C   0  0  0  0  0  0  0  0  0  0  0  0
   46.7850   32.3780   46.9930 C   0  0  0  0  0  0  0  0  0  0  0  0
   47.4320   31.8830   47.9520 O   0  0  0  0  0  0  0  0  0  0  0  0
   45.9470   33.4020   47.2330 N   0  0  0  0  0  0  0  0  0  0  0  0
   45.2980   33.8740   46.1750 C   0  0  0  0  0  0  0  0  0  0  0  0
   44.3900   34.9580   46.3430 N   0  0  0  0  0  0  0  0  0  0  0  0
   45.4280   33.4040   44.9350 N   0  0  0  0  0  0  0  0  0  0  0  0
   46.2740   32.3650   44.6690 C   0  0  0  0  0  0  0  0  0  0  0  0
   46.4156   33.2375   40.5075 H   0  0  0  0  0  0  0  0  0  0  0  0
   48.4764   31.8115   40.5194 H   0  0  0  0  0  0  0  0  0  0  0  0
   47.8182   35.1281   43.2244 H   0  0  0  0  0  0  0  0  0  0  0  0
   51.7358   33.6861   42.4263 H   0  0  0  0  0  0  0  0  0  0  0  0
   43.8556   34.1375   40.9007 H   0  0  0  0  0  0  0  0  0  0  0  0
   43.1461   36.4811   42.0161 H   0  0  0  0  0  0  0  0  0  0  0  0
   45.2286   37.3601   43.4785 H   0  0  0  0  0  0  0  0  0  0  0  0
   44.9019   32.2714   42.4153 H   0  0  0  0  0  0  0  0  0  0  0  0
   46.1925   31.2732   41.5530 H   0  0  0  0  0  0  0  0  0  0  0  0
   47.9190   30.1037   43.2182 H   0  0  0  0  0  0  0  0  0  0  0  0
   45.8170   33.7947   48.1763 H   0  0  0  0  0  0  0  0  0  0  0  0
   43.8803   35.3335   45.5305 H   0  0  0  0  0  0  0  0  0  0  0  0
   44.2430   35.3666   47.2770 H   0  0  0  0  0  0  0  0  0  0  0  0
  1  3  1  0
  1  8  1  0
  1 13  1  0
  2  7  2  0
  2  3  1  0
  3  4  2  0
  4  5  1  0
  6  5  2  0
  7  6  1  0
  8 12  1  0
  9  8  2  0
  9 10  1  0
 10 11  2  0
 12 11  1  0
 13 14  1  0
 14 15  1  0
 14 24  1  0
 15 16  2  0
 16 17  1  0
 17 18  1  0
 18 20  1  0
 18 19  2  0
 21 22  1  0
 21 20  1  0
 23 21  2  0
 24 23  1  0
 24 17  2  0
  1 25  1  6
  2 26  1  0
  4 27  1  0
  6 28  1  0
  9 29  1  0
 10 30  1  0
 11 31  1  0
 13 32  1  0
 13 33  1  0
 15 34  1  0
 20 35  1  0
 22 36  1  0
 22 37  1  0
M  ISO  8  25   8  26  14  27  14  28  14  29  14  30  14  31  14  32   8
M  ISO  3  33   8  34  14  35   9
M  END
>  <minimizedAffinity>  (1) 
-5.78843832

>  <minimizedRMSD>  (1) 
5.42097712

$$$$
