
     RDKit          3D

 30 32  0  0  1  0  0  0  0  0999 V2000
   46.4190   34.0220   41.8920 C   0  0  2  0  0  0  0  0  0  0  0  0
   45.3540   35.9200   43.0220 C   0  0  0  0  0  0  0  0  0  0  0  0
   45.7900   34.6050   43.0420 C   0  0  0  0  0  0  0  0  0  0  0  0
   45.5910   33.8810   44.2510 C   0  0  0  0  0  0  0  0  0  0  0  0
   44.9990   34.5010   45.2970 N   0  0  0  0  0  0  0  0  0  0  0  0
   44.5980   35.7850   45.2120 C   0  0  0  0  0  0  0  0  0  0  0  0
   44.7700   36.4800   44.1020 N   0  0  0  0  0  0  0  0  0  0  0  0
   45.4740   33.7880   40.7490 C   0  0  0  0  0  0  0  0  0  0  0  0
   45.8790   33.2200   39.5480 C   0  0  0  0  0  0  0  0  0  0  0  0
   44.7530   33.1750   38.7750 C   0  0  0  0  0  0  0  0  0  0  0  0
   43.7080   33.7080   39.5150 C   0  0  0  0  0  0  0  0  0  0  0  0
   44.1830   34.0540   40.6710 O   0  0  0  0  0  0  0  0  0  0  0  0
   47.1000   32.7230   42.2650 C   0  0  0  0  0  0  0  0  0  0  0  0
   48.5530   32.8570   42.1790 C   0  0  0  0  0  0  0  0  0  0  0  0
   49.4690   33.7910   42.6400 C   0  0  0  0  0  0  0  0  0  0  0  0
   50.7820   33.5720   42.3570 C   0  0  0  0  0  0  0  0  0  0  0  0
   51.1640   32.3890   41.5970 C   0  0  0  0  0  0  0  0  0  0  0  0
   49.4400   31.6330   41.3370 S   0  0  0  0  0  0  0  0  0  0  0  0
   47.1635   34.7543   41.5464 H   0  0  0  0  0  0  0  0  0  0  0  0
   45.4864   36.5187   42.1087 H   0  0  0  0  0  0  0  0  0  0  0  0
   45.9139   32.8327   44.3334 H   0  0  0  0  0  0  0  0  0  0  0  0
   44.1200   36.2616   46.0806 H   0  0  0  0  0  0  0  0  0  0  0  0
   46.8893   32.8795   39.2772 H   0  0  0  0  0  0  0  0  0  0  0  0
   44.6871   32.7854   37.7484 H   0  0  0  0  0  0  0  0  0  0  0  0
   42.6654   33.8174   39.1818 H   0  0  0  0  0  0  0  0  0  0  0  0
   46.8228   32.4529   43.2947 H   0  0  0  0  0  0  0  0  0  0  0  0
   46.7754   31.9400   41.5639 H   0  0  0  0  0  0  0  0  0  0  0  0
   49.1469   34.6738   43.2117 H   0  0  0  0  0  0  0  0  0  0  0  0
   51.5488   34.2825   42.6993 H   0  0  0  0  0  0  0  0  0  0  0  0
   52.1544   32.0383   41.2711 H   0  0  0  0  0  0  0  0  0  0  0  0
  1 13  1  0
  1  3  1  0
  2  3  2  0
  2  7  1  0
  3  4  1  0
  4  5  2  0
  6  5  1  0
  7  6  2  0
  8  1  1  0
  9  8  2  0
 10 11  2  0
 10  9  1  0
 11 12  1  0
 12  8  1  0
 14 13  1  0
 14 15  2  0
 16 15  1  0
 17 16  2  0
 18 17  1  0
 18 14  1  0
  1 19  1  6
  2 20  1  0
  4 21  1  0
  6 22  1  0
  9 23  1  0
 10 24  1  0
 11 25  1  0
 13 26  1  0
 13 27  1  0
 15 28  1  0
 16 29  1  0
 17 30  1  0
M  ISO  8  19   8  20  14  21  14  22  14  23  14  24  14  25  14  26   8
M  ISO  4  27   8  28  14  29  14  30  14
M  END
>  <minimizedAffinity>  (1) 
-4.36062765

>  <minimizedRMSD>  (1) 
3.09738541

$$$$
