
     RDKit          3D

 40 43  0  0  1  0  0  0  0  0999 V2000
   44.5840   34.6030   42.0810 C   0  0  2  0  0  0  0  0  0  0  0  0
   46.9820   35.0770   41.7550 C   0  0  0  0  0  0  0  0  0  0  0  0
   45.8050   34.4680   41.3690 C   0  0  0  0  0  0  0  0  0  0  0  0
   45.8550   33.7080   40.1970 C   0  0  0  0  0  0  0  0  0  0  0  0
   47.0050   33.5860   39.4890 N   0  0  0  0  0  0  0  0  0  0  0  0
   48.1270   34.2150   39.9300 C   0  0  0  0  0  0  0  0  0  0  0  0
   48.1090   34.9370   41.0320 N   0  0  0  0  0  0  0  0  0  0  0  0
   44.7740   34.6000   43.5900 C   0  0  0  0  0  0  0  0  0  0  0  0
   44.3820   35.7030   44.3590 C   0  0  0  0  0  0  0  0  0  0  0  0
   44.7170   35.3150   45.6460 C   0  0  0  0  0  0  0  0  0  0  0  0
   45.2850   34.0270   45.5960 C   0  0  0  0  0  0  0  0  0  0  0  0
   45.2940   33.6500   44.3460 O   0  0  0  0  0  0  0  0  0  0  0  0
   43.5240   33.6800   41.6490 C   0  0  0  0  0  0  0  0  0  0  0  0
   42.3670   34.3920   41.1530 N   0  0  0  0  0  0  0  0  0  0  0  0
   41.9360   35.4700   41.8000 N   0  0  0  0  0  0  0  0  0  0  0  0
   40.8710   36.0110   41.2430 C   0  0  0  0  0  0  0  0  0  0  0  0
   40.5670   35.2420   40.1510 C   0  0  0  0  0  0  0  0  0  0  0  0
   41.5250   34.2540   40.1410 C   0  0  0  0  0  0  0  0  0  0  0  0
   41.6880   33.1690   39.2100 N   0  0  0  0  0  0  0  0  0  0  0  0
   40.8490   32.1410   39.4480 C   0  0  0  0  0  0  0  0  0  0  0  0
   40.8660   31.0100   38.6500 C   0  0  0  0  0  0  0  0  0  0  0  0
   41.7740   30.9550   37.5890 C   0  0  0  0  0  0  0  0  0  0  0  0
   41.8110   29.9460   36.8520 O   0  0  0  0  0  0  0  0  0  0  0  0
   42.5870   32.0180   37.4030 N   0  0  0  0  0  0  0  0  0  0  0  0
   42.5610   33.1110   38.1870 C   0  0  0  0  0  0  0  0  0  0  0  0
   43.2960   34.1090   38.0450 O   0  0  0  0  0  0  0  0  0  0  0  0
   44.2192   35.6045   41.8089 H   0  0  0  0  0  0  0  0  0  0  0  0
   46.9995   35.6877   42.6698 H   0  0  0  0  0  0  0  0  0  0  0  0
   44.9458   33.2001   39.8429 H   0  0  0  0  0  0  0  0  0  0  0  0
   49.0623   34.1198   39.3590 H   0  0  0  0  0  0  0  0  0  0  0  0
   43.9220   36.6444   44.0240 H   0  0  0  0  0  0  0  0  0  0  0  0
   44.5647   35.9136   46.5562 H   0  0  0  0  0  0  0  0  0  0  0  0
   45.6537   33.4450   46.4535 H   0  0  0  0  0  0  0  0  0  0  0  0
   43.9164   33.0353   40.8488 H   0  0  0  0  0  0  0  0  0  0  0  0
   43.2132   33.0822   42.5185 H   0  0  0  0  0  0  0  0  0  0  0  0
   40.3316   36.9055   41.5878 H   0  0  0  0  0  0  0  0  0  0  0  0
   39.7401   35.3830   39.4394 H   0  0  0  0  0  0  0  0  0  0  0  0
   40.1412   32.2017   40.2878 H   0  0  0  0  0  0  0  0  0  0  0  0
   40.1799   30.1730   38.8467 H   0  0  0  0  0  0  0  0  0  0  0  0
   43.2593   31.9902   36.6232 H   0  0  0  0  0  0  0  0  0  0  0  0
  1  8  1  0
  3  2  2  0
  3  1  1  0
  4  3  1  0
  5  6  1  0
  5  4  2  0
  6  7  2  0
  7  2  1  0
  8 12  1  0
  8  9  2  0
  9 10  1  0
 11 10  2  0
 12 11  1  0
 13  1  1  0
 14 13  1  0
 14 15  1  0
 16 15  2  0
 17 16  1  0
 18 17  2  0
 18 14  1  0
 19 20  1  0
 19 18  1  0
 21 20  2  0
 22 21  1  0
 23 22  2  0
 24 22  1  0
 24 25  1  0
 25 19  1  0
 26 25  2  0
  1 27  1  6
  2 28  1  0
  4 29  1  0
  6 30  1  0
  9 31  1  0
 10 32  1  0
 11 33  1  0
 13 34  1  0
 13 35  1  0
 16 36  1  0
 17 37  1  0
 20 38  1  0
 21 39  1  0
 24 40  1  0
M  ISO  8  27   8  28  14  29  14  30  14  31  14  32  14  33  14  34   8
M  ISO  6  35   8  36  14  37  14  38  14  39  14  40   9
M  END
>  <minimizedAffinity>  (1) 
-5.64534092

>  <minimizedRMSD>  (1) 
5.88387823

$$$$
