
     RDKit          3D

 36 39  0  0  1  0  0  0  0  0999 V2000
   44.5380   34.5290   42.0290 C   0  0  2  0  0  0  0  0  0  0  0  0
   45.8790   33.7090   40.1350 C   0  0  0  0  0  0  0  0  0  0  0  0
   45.7580   34.4220   41.3070 C   0  0  0  0  0  0  0  0  0  0  0  0
   46.9130   35.0370   41.7850 C   0  0  0  0  0  0  0  0  0  0  0  0
   48.0860   34.9250   41.1160 N   0  0  0  0  0  0  0  0  0  0  0  0
   48.1380   34.2050   39.9630 C   0  0  0  0  0  0  0  0  0  0  0  0
   47.0540   33.6150   39.4900 N   0  0  0  0  0  0  0  0  0  0  0  0
   44.7380   34.5880   43.5340 C   0  0  0  0  0  0  0  0  0  0  0  0
   44.3360   35.7040   44.2640 C   0  0  0  0  0  0  0  0  0  0  0  0
   44.6880   35.3740   45.5620 C   0  0  0  0  0  0  0  0  0  0  0  0
   45.2730   34.1050   45.5590 C   0  0  0  0  0  0  0  0  0  0  0  0
   45.2760   33.6860   44.3270 O   0  0  0  0  0  0  0  0  0  0  0  0
   43.5130   33.5430   41.6350 C   0  0  0  0  0  0  0  0  0  0  0  0
   42.2540   34.1750   41.3420 N   0  0  0  0  0  0  0  0  0  0  0  0
   42.2380   35.4370   40.9390 N   0  0  0  0  0  0  0  0  0  0  0  0
   41.0300   35.8930   40.7130 C   0  0  0  0  0  0  0  0  0  0  0  0
   40.1700   34.8900   40.9720 C   0  0  0  0  0  0  0  0  0  0  0  0
   40.9500   33.8250   41.3640 C   0  0  0  0  0  0  0  0  0  0  0  0
   40.5530   32.4860   41.7590 C   0  0  0  0  0  0  0  0  0  0  0  0
   39.3330   32.1640   41.0180 C   0  0  0  0  0  0  0  0  0  0  0  0
   38.7910   30.4770   41.4240 S   0  0  0  0  0  0  0  0  0  0  0  0
   40.3160   30.3500   42.6050 C   0  0  0  0  0  0  0  0  0  0  0  0
   40.4280   31.3330   42.2170 N   0  0  0  0  0  0  0  0  0  0  0  0
   44.1288   35.5053   41.7301 H   0  0  0  0  0  0  0  0  0  0  0  0
   44.9945   33.2055   39.7178 H   0  0  0  0  0  0  0  0  0  0  0  0
   46.8723   35.6205   42.7166 H   0  0  0  0  0  0  0  0  0  0  0  0
   49.0901   34.1131   39.4198 H   0  0  0  0  0  0  0  0  0  0  0  0
   43.8558   36.6237   43.8984 H   0  0  0  0  0  0  0  0  0  0  0  0
   44.5328   36.0062   46.4487 H   0  0  0  0  0  0  0  0  0  0  0  0
   45.6588   33.5618   46.4343 H   0  0  0  0  0  0  0  0  0  0  0  0
   43.8597   33.0062   40.7396 H   0  0  0  0  0  0  0  0  0  0  0  0
   43.3621   32.8495   42.4754 H   0  0  0  0  0  0  0  0  0  0  0  0
   40.7678   36.9063   40.3748 H   0  0  0  0  0  0  0  0  0  0  0  0
   39.0735   34.9159   40.8880 H   0  0  0  0  0  0  0  0  0  0  0  0
   38.8203   32.8417   40.3195 H   0  0  0  0  0  0  0  0  0  0  0  0
   40.8012   29.6468   43.2979 H   0  0  0  0  0  0  0  0  0  0  0  0
  1  8  1  0
  2  3  2  0
  3  4  1  0
  3  1  1  0
  5  4  2  0
  6  5  1  0
  7  6  2  0
  7  2  1  0
  8  9  2  0
  8 12  1  0
  9 10  1  0
 11 10  2  0
 12 11  1  0
 13  1  1  0
 14 18  1  0
 14 13  1  0
 15 14  1  0
 16 15  2  0
 16 17  1  0
 17 18  2  0
 18 19  1  0
 19 23  1  0
 20 21  1  0
 20 19  2  0
 21 22  1  0
 23 22  2  0
  1 24  1  6
  2 25  1  0
  4 26  1  0
  6 27  1  0
  9 28  1  0
 10 29  1  0
 11 30  1  0
 13 31  1  0
 13 32  1  0
 16 33  1  0
 17 34  1  0
 20 35  1  0
 22 36  1  0
M  ISO  8  24   8  25  14  26  14  27  14  28  14  29  14  30  14  31   8
M  ISO  5  32   8  33  14  34  14  35  14  36  14
M  END
>  <minimizedAffinity>  (1) 
-5.5161376

>  <minimizedRMSD>  (1) 
6.16820192

$$$$
