
     RDKit          3D

 33 35  0  0  1  0  0  0  0  0999 V2000
   46.6500   34.2250   40.7600 C   0  0  2  0  0  0  0  0  0  0  0  0
   48.5850   35.5190   41.5560 C   0  0  0  0  0  0  0  0  0  0  0  0
   47.9070   34.3330   41.4070 C   0  0  0  0  0  0  0  0  0  0  0  0
   48.5410   33.1960   41.9130 C   0  0  0  0  0  0  0  0  0  0  0  0
   49.7560   33.2730   42.5130 N   0  0  0  0  0  0  0  0  0  0  0  0
   50.3620   34.4860   42.6210 C   0  0  0  0  0  0  0  0  0  0  0  0
   49.7860   35.5860   42.1510 N   0  0  0  0  0  0  0  0  0  0  0  0
   45.4980   34.7180   41.6210 C   0  0  0  0  0  0  0  0  0  0  0  0
   44.2190   34.8810   41.0640 C   0  0  0  0  0  0  0  0  0  0  0  0
   43.4810   35.3360   42.1550 C   0  0  0  0  0  0  0  0  0  0  0  0
   44.3200   35.4220   43.2730 C   0  0  0  0  0  0  0  0  0  0  0  0
   45.5120   35.0420   42.9030 O   0  0  0  0  0  0  0  0  0  0  0  0
   46.3770   32.8930   40.1830 C   0  0  0  0  0  0  0  0  0  0  0  0
   46.1260   32.9700   38.7680 N   0  0  0  0  0  0  0  0  0  0  0  0
   44.9020   32.7200   38.2890 N   0  0  0  0  0  0  0  0  0  0  0  0
   44.8300   32.8130   36.9820 C   0  0  0  0  0  0  0  0  0  0  0  0
   46.0720   33.1440   36.5440 C   0  0  0  0  0  0  0  0  0  0  0  0
   46.8390   33.2300   37.6870 C   0  0  0  0  0  0  0  0  0  0  0  0
   48.2870   33.5610   37.7420 C   0  0  0  0  0  0  0  0  0  0  0  0
   48.8480   33.6070   36.4790 F   0  0  0  0  0  0  0  0  0  0  0  0
   48.9950   32.8070   38.6390 F   0  0  0  0  0  0  0  0  0  0  0  0
   48.4100   34.8790   38.2180 F   0  0  0  0  0  0  0  0  0  0  0  0
   46.7262   34.9070   39.9003 H   0  0  0  0  0  0  0  0  0  0  0  0
   48.1281   36.4442   41.1749 H   0  0  0  0  0  0  0  0  0  0  0  0
   48.0454   32.2180   41.8234 H   0  0  0  0  0  0  0  0  0  0  0  0
   51.3466   34.5568   43.1063 H   0  0  0  0  0  0  0  0  0  0  0  0
   43.8856   34.6969   40.0320 H   0  0  0  0  0  0  0  0  0  0  0  0
   42.4102   35.5875   42.1404 H   0  0  0  0  0  0  0  0  0  0  0  0
   44.0269   35.7506   44.2810 H   0  0  0  0  0  0  0  0  0  0  0  0
   47.2478   32.2436   40.3563 H   0  0  0  0  0  0  0  0  0  0  0  0
   45.4792   32.4845   40.6700 H   0  0  0  0  0  0  0  0  0  0  0  0
   43.9361   32.6536   36.3611 H   0  0  0  0  0  0  0  0  0  0  0  0
   46.3954   33.3076   35.5054 H   0  0  0  0  0  0  0  0  0  0  0  0
  1  3  1  0
  1  8  1  0
  2  7  2  0
  3  2  1  0
  3  4  2  0
  4  5  1  0
  5  6  2  0
  7  6  1  0
  8 12  1  0
  9  8  2  0
  9 10  1  0
 10 11  2  0
 12 11  1  0
 13  1  1  0
 14 13  1  0
 15 14  1  0
 16 15  2  0
 17 16  1  0
 17 18  2  0
 18 19  1  0
 18 14  1  0
 19 22  1  0
 19 21  1  0
 20 19  1  0
  1 23  1  6
  2 24  1  0
  4 25  1  0
  6 26  1  0
  9 27  1  0
 10 28  1  0
 11 29  1  0
 13 30  1  0
 13 31  1  0
 16 32  1  0
 17 33  1  0
M  ISO  8  23   8  24  14  25  14  26  14  27  14  28  14  29  14  30   8
M  ISO  3  31   8  32  14  33  14
M  END
>  <minimizedAffinity>  (1) 
-4.79353189

>  <minimizedRMSD>  (1) 
0.760645509

$$$$
