
     RDKit          3D

 40 43  0  0  1  0  0  0  0  0999 V2000
   46.4360   34.1900   40.6120 C   0  0  2  0  0  0  0  0  0  0  0  0
   48.4630   35.4670   41.1670 C   0  0  0  0  0  0  0  0  0  0  0  0
   47.6450   34.3750   41.3280 C   0  0  0  0  0  0  0  0  0  0  0  0
   48.0820   33.4090   42.2380 C   0  0  0  0  0  0  0  0  0  0  0  0
   49.2470   33.5490   42.9150 N   0  0  0  0  0  0  0  0  0  0  0  0
   50.0040   34.6630   42.7000 C   0  0  0  0  0  0  0  0  0  0  0  0
   49.6160   35.6090   41.8370 N   0  0  0  0  0  0  0  0  0  0  0  0
   45.2170   34.7100   41.3620 C   0  0  0  0  0  0  0  0  0  0  0  0
   43.9460   34.6650   40.7680 C   0  0  0  0  0  0  0  0  0  0  0  0
   43.1350   35.2170   41.7470 C   0  0  0  0  0  0  0  0  0  0  0  0
   43.9320   35.5590   42.8540 C   0  0  0  0  0  0  0  0  0  0  0  0
   45.1620   35.2350   42.5700 O   0  0  0  0  0  0  0  0  0  0  0  0
   46.2330   32.8180   40.1030 C   0  0  0  0  0  0  0  0  0  0  0  0
   46.4760   32.7280   38.6950 N   0  0  0  0  0  0  0  0  0  0  0  0
   45.5080   32.9840   37.8180 N   0  0  0  0  0  0  0  0  0  0  0  0
   45.8750   32.8590   36.5660 C   0  0  0  0  0  0  0  0  0  0  0  0
   47.1920   32.4920   36.5880 C   0  0  0  0  0  0  0  0  0  0  0  0
   47.5090   32.4260   37.9310 C   0  0  0  0  0  0  0  0  0  0  0  0
   48.8570   32.0620   38.3420 C   0  0  0  0  0  0  0  0  0  0  0  0
   49.8480   32.0950   37.3500 C   0  0  0  0  0  0  0  0  0  0  0  0
   51.1780   31.7700   37.5150 C   0  0  0  0  0  0  0  0  0  0  0  0
   51.5780   31.3740   38.7720 C   0  0  0  0  0  0  0  0  0  0  0  0
   50.6450   31.3220   39.7850 C   0  0  0  0  0  0  0  0  0  0  0  0
   49.3250   31.6580   39.5710 C   0  0  0  0  0  0  0  0  0  0  0  0
   46.5524   34.8167   39.7155 H   0  0  0  0  0  0  0  0  0  0  0  0
   48.1606   36.2550   40.4616 H   0  0  0  0  0  0  0  0  0  0  0  0
   47.4657   32.5140   42.4087 H   0  0  0  0  0  0  0  0  0  0  0  0
   50.9509   34.7860   43.2461 H   0  0  0  0  0  0  0  0  0  0  0  0
   43.6642   34.2864   39.7744 H   0  0  0  0  0  0  0  0  0  0  0  0
   42.0475   35.3634   41.6707 H   0  0  0  0  0  0  0  0  0  0  0  0
   43.5808   36.0172   43.7903 H   0  0  0  0  0  0  0  0  0  0  0  0
   46.9222   32.1391   40.6266 H   0  0  0  0  0  0  0  0  0  0  0  0
   45.1848   32.5389   40.2859 H   0  0  0  0  0  0  0  0  0  0  0  0
   45.2488   33.0176   35.6757 H   0  0  0  0  0  0  0  0  0  0  0  0
   47.8507   32.2939   35.7296 H   0  0  0  0  0  0  0  0  0  0  0  0
   49.5343   32.4103   36.3440 H   0  0  0  0  0  0  0  0  0  0  0  0
   51.8895   31.8247   36.6779 H   0  0  0  0  0  0  0  0  0  0  0  0
   52.6266   31.1032   38.9646 H   0  0  0  0  0  0  0  0  0  0  0  0
   50.9614   31.0044   40.7895 H   0  0  0  0  0  0  0  0  0  0  0  0
   48.6204   31.6009   40.4137 H   0  0  0  0  0  0  0  0  0  0  0  0
  1  3  1  0
  1  8  1  0
  2  3  2  0
  2  7  1  0
  3  4  1  0
  4  5  2  0
  6  5  1  0
  7  6  2  0
  8 12  1  0
  9  8  2  0
  9 10  1  0
 10 11  2  0
 12 11  1  0
 13  1  1  0
 14 13  1  0
 15 14  1  0
 16 17  1  0
 16 15  2  0
 17 18  2  0
 18 19  1  0
 18 14  1  0
 19 24  2  0
 20 21  2  0
 20 19  1  0
 21 22  1  0
 22 23  2  0
 24 23  1  0
  1 25  1  6
  2 26  1  0
  4 27  1  0
  6 28  1  0
  9 29  1  0
 10 30  1  0
 11 31  1  0
 13 32  1  0
 13 33  1  0
 16 34  1  0
 17 35  1  0
 20 36  1  0
 21 37  1  0
 22 38  1  0
 23 39  1  0
 24 40  1  0
M  ISO  8  25   8  26  14  27  14  28  14  29  14  30  14  31  14  32   8
M  ISO  8  33   8  34  14  35  14  36  14  37  14  38  14  39  14  40  14
M  END
>  <minimizedAffinity>  (1) 
-4.67670822

>  <minimizedRMSD>  (1) 
0.521107495

$$$$
