
     RDKit          3D

 37 39  0  0  0  0  0  0  0  0999 V2000
   45.9660   35.0410   42.6300 C   0  0  0  0  0  0  0  0  0  0  0  0
   45.3270   34.5520   45.0000 C   0  0  0  0  0  0  0  0  0  0  0  0
   46.0620   34.1770   43.8390 C   0  0  0  0  0  0  0  0  0  0  0  0
   46.8180   33.0160   43.9420 C   0  0  0  0  0  0  0  0  0  0  0  0
   46.8320   32.3140   45.0840 N   0  0  0  0  0  0  0  0  0  0  0  0
   46.1190   32.7050   46.1630 C   0  0  0  0  0  0  0  0  0  0  0  0
   45.3690   33.8240   46.1130 N   0  0  0  0  0  0  0  0  0  0  0  0
   47.3240   35.3140   42.0820 C   0  0  0  0  0  0  0  0  0  0  0  0
   45.2920   36.3300   43.0280 C   0  0  0  0  0  0  0  0  0  0  0  0
   45.0740   34.3530   41.6150 C   0  0  0  0  0  0  0  0  0  0  0  0
   43.8730   34.0290   42.2130 O   0  0  0  0  0  0  0  0  0  0  0  0
   42.6970   34.3550   41.5550 C   0  0  0  0  0  0  0  0  0  0  0  0
   41.9560   35.5040   41.8130 C   0  0  0  0  0  0  0  0  0  0  0  0
   40.8670   35.4610   40.9580 C   0  0  0  0  0  0  0  0  0  0  0  0
   40.9480   34.3440   40.2230 N   0  0  0  0  0  0  0  0  0  0  0  0
   42.0400   33.6740   40.5720 N   0  0  0  0  0  0  0  0  0  0  0  0
   39.9550   34.0360   39.2510 C   0  0  0  0  0  0  0  0  0  0  0  0
   38.6520   33.6360   39.5000 C   0  0  0  0  0  0  0  0  0  0  0  0
   37.9920   33.4300   38.2880 C   0  0  0  0  0  0  0  0  0  0  0  0
   38.9110   33.7080   37.3470 N   0  0  0  0  0  0  0  0  0  0  0  0
   40.0730   34.0680   37.9100 N   0  0  0  0  0  0  0  0  0  0  0  0
   44.7113   35.4632   44.9760 H   0  0  0  0  0  0  0  0  0  0  0  0
   47.4089   32.6705   43.0809 H   0  0  0  0  0  0  0  0  0  0  0  0
   46.1507   32.1077   47.0862 H   0  0  0  0  0  0  0  0  0  0  0  0
   48.0323   35.4564   42.9115 H   0  0  0  0  0  0  0  0  0  0  0  0
   47.6483   34.4631   41.4649 H   0  0  0  0  0  0  0  0  0  0  0  0
   47.2942   36.2241   41.4649 H   0  0  0  0  0  0  0  0  0  0  0  0
   45.2550   36.4009   44.1251 H   0  0  0  0  0  0  0  0  0  0  0  0
   45.8606   37.1809   42.6246 H   0  0  0  0  0  0  0  0  0  0  0  0
   44.2688   36.3485   42.6246 H   0  0  0  0  0  0  0  0  0  0  0  0
   45.5648   33.4368   41.2549 H   0  0  0  0  0  0  0  0  0  0  0  0
   44.8937   35.0267   40.7643 H   0  0  0  0  0  0  0  0  0  0  0  0
   42.1882   36.2887   42.5481 H   0  0  0  0  0  0  0  0  0  0  0  0
   40.0702   36.2166   40.8935 H   0  0  0  0  0  0  0  0  0  0  0  0
   38.2074   33.5018   40.4972 H   0  0  0  0  0  0  0  0  0  0  0  0
   36.9503   33.1108   38.1361 H   0  0  0  0  0  0  0  0  0  0  0  0
   38.7449   33.6520   36.3320 H   0  0  0  0  0  0  0  0  0  0  0  0
  1  9  1  0
  1  3  1  0
  2  7  2  0
  3  4  2  0
  3  2  1  0
  4  5  1  0
  5  6  2  0
  7  6  1  0
  8  1  1  0
 10 11  1  0
 10  1  1  0
 12 13  1  0
 12 11  1  0
 14 13  2  0
 15 16  1  0
 15 14  1  0
 16 12  2  0
 17 18  1  0
 17 15  1  0
 19 18  2  0
 20 21  1  0
 20 19  1  0
 21 17  2  0
  2 22  1  0
  4 23  1  0
  6 24  1  0
  8 25  1  0
  8 26  1  0
  8 27  1  0
  9 28  1  0
  9 29  1  0
  9 30  1  0
 10 31  1  0
 10 32  1  0
 13 33  1  0
 14 34  1  0
 18 35  1  0
 19 36  1  0
 20 37  1  0
M  ISO  8  22  14  23  14  24  14  25   8  26   8  27   8  28   8  29   8
M  ISO  8  30   8  31   8  32   8  33  14  34  14  35  14  36  14  37   9
M  END
>  <minimizedAffinity>  (1) 
-5.33084917

>  <minimizedRMSD>  (1) 
1.66298568

$$$$
