
     RDKit          3D

 38 41  0  0  1  0  0  0  0  0999 V2000
   46.5090   34.2530   40.7580 C   0  0  2  0  0  0  0  0  0  0  0  0
   48.5370   35.4810   41.3930 C   0  0  0  0  0  0  0  0  0  0  0  0
   47.7580   34.3430   41.4210 C   0  0  0  0  0  0  0  0  0  0  0  0
   48.2830   33.2500   42.1150 C   0  0  0  0  0  0  0  0  0  0  0  0
   49.4900   33.3150   42.7210 N   0  0  0  0  0  0  0  0  0  0  0  0
   50.2080   34.4720   42.6530 C   0  0  0  0  0  0  0  0  0  0  0  0
   49.7330   35.5390   41.9970 N   0  0  0  0  0  0  0  0  0  0  0  0
   45.3490   34.7700   41.5930 C   0  0  0  0  0  0  0  0  0  0  0  0
   44.0750   34.8950   41.0520 C   0  0  0  0  0  0  0  0  0  0  0  0
   43.3300   35.3870   42.1070 C   0  0  0  0  0  0  0  0  0  0  0  0
   44.1680   35.5340   43.2170 C   0  0  0  0  0  0  0  0  0  0  0  0
   45.3600   35.1520   42.8540 O   0  0  0  0  0  0  0  0  0  0  0  0
   46.2760   32.9070   40.2000 C   0  0  0  0  0  0  0  0  0  0  0  0
   46.4400   32.8570   38.7860 N   0  0  0  0  0  0  0  0  0  0  0  0
   45.4270   33.1090   37.9710 N   0  0  0  0  0  0  0  0  0  0  0  0
   45.7490   32.9970   36.7060 C   0  0  0  0  0  0  0  0  0  0  0  0
   47.0550   32.6490   36.6600 C   0  0  0  0  0  0  0  0  0  0  0  0
   47.4500   32.5720   37.9990 C   0  0  0  0  0  0  0  0  0  0  0  0
   48.8180   32.1840   38.2640 C   0  0  0  0  0  0  0  0  0  0  0  0
   49.7770   32.1210   37.2790 C   0  0  0  0  0  0  0  0  0  0  0  0
   51.0890   31.7590   37.4590 C   0  0  0  0  0  0  0  0  0  0  0  0
   51.5280   31.4290   38.6840 N   0  0  0  0  0  0  0  0  0  0  0  0
   50.6260   31.4770   39.6740 C   0  0  0  0  0  0  0  0  0  0  0  0
   49.4110   31.8340   39.3820 N   0  0  0  0  0  0  0  0  0  0  0  0
   46.5623   34.9371   39.8982 H   0  0  0  0  0  0  0  0  0  0  0  0
   48.1659   36.3681   40.8589 H   0  0  0  0  0  0  0  0  0  0  0  0
   47.7024   32.3173   42.1695 H   0  0  0  0  0  0  0  0  0  0  0  0
   51.1908   34.5301   43.1436 H   0  0  0  0  0  0  0  0  0  0  0  0
   43.7404   34.6593   40.0310 H   0  0  0  0  0  0  0  0  0  0  0  0
   42.2561   35.6237   42.0784 H   0  0  0  0  0  0  0  0  0  0  0  0
   43.8756   35.9032   44.2111 H   0  0  0  0  0  0  0  0  0  0  0  0
   46.9891   32.2077   40.6610 H   0  0  0  0  0  0  0  0  0  0  0  0
   45.2336   32.6339   40.4212 H   0  0  0  0  0  0  0  0  0  0  0  0
   45.0834   33.1559   35.8448 H   0  0  0  0  0  0  0  0  0  0  0  0
   47.6704   32.4668   35.7667 H   0  0  0  0  0  0  0  0  0  0  0  0
   49.4648   32.3838   36.2575 H   0  0  0  0  0  0  0  0  0  0  0  0
   51.7784   31.7394   36.6021 H   0  0  0  0  0  0  0  0  0  0  0  0
   50.9066   31.2210   40.7063 H   0  0  0  0  0  0  0  0  0  0  0  0
  1  3  1  0
  1  8  1  0
  2  3  2  0
  2  7  1  0
  3  4  1  0
  4  5  2  0
  6  5  1  0
  7  6  2  0
  8 12  1  0
  9  8  2  0
  9 10  1  0
 10 11  2  0
 12 11  1  0
 13  1  1  0
 14 13  1  0
 15 14  1  0
 16 15  2  0
 17 16  1  0
 17 18  2  0
 18 19  1  0
 18 14  1  0
 19 24  2  0
 20 21  2  0
 20 19  1  0
 21 22  1  0
 22 23  2  0
 24 23  1  0
  1 25  1  6
  2 26  1  0
  4 27  1  0
  6 28  1  0
  9 29  1  0
 10 30  1  0
 11 31  1  0
 13 32  1  0
 13 33  1  0
 16 34  1  0
 17 35  1  0
 20 36  1  0
 21 37  1  0
 23 38  1  0
M  ISO  8  25   8  26  14  27  14  28  14  29  14  30  14  31  14  32   8
M  ISO  6  33   8  34  14  35  14  36  14  37  14  38  14
M  END
>  <minimizedAffinity>  (1) 
-4.78856087

>  <minimizedRMSD>  (1) 
0.39424184

$$$$
