
     RDKit          3D

 37 40  0  0  1  0  0  0  0  0999 V2000
   46.5130   34.1030   40.7220 C   0  0  2  0  0  0  0  0  0  0  0  0
   48.4570   35.3220   41.6110 C   0  0  0  0  0  0  0  0  0  0  0  0
   47.8000   34.1510   41.3170 C   0  0  0  0  0  0  0  0  0  0  0  0
   48.4840   32.9700   41.6110 C   0  0  0  0  0  0  0  0  0  0  0  0
   49.7260   32.9900   42.1560 N   0  0  0  0  0  0  0  0  0  0  0  0
   50.3110   34.1900   42.4190 C   0  0  0  0  0  0  0  0  0  0  0  0
   49.6870   35.3260   42.1520 N   0  0  0  0  0  0  0  0  0  0  0  0
   45.4260   34.6860   41.6140 C   0  0  0  0  0  0  0  0  0  0  0  0
   44.1460   34.9440   41.0960 C   0  0  0  0  0  0  0  0  0  0  0  0
   43.4810   35.4570   42.2030 C   0  0  0  0  0  0  0  0  0  0  0  0
   44.3520   35.4860   43.2900 C   0  0  0  0  0  0  0  0  0  0  0  0
   45.5030   35.0170   42.8950 O   0  0  0  0  0  0  0  0  0  0  0  0
   46.1390   32.7810   40.1900 C   0  0  0  0  0  0  0  0  0  0  0  0
   46.1650   32.7700   38.7430 N   0  0  0  0  0  0  0  0  0  0  0  0
   45.1380   33.2740   38.0730 N   0  0  0  0  0  0  0  0  0  0  0  0
   45.2920   33.1840   36.7660 C   0  0  0  0  0  0  0  0  0  0  0  0
   46.4960   32.5850   36.5400 C   0  0  0  0  0  0  0  0  0  0  0  0
   46.9980   32.3490   37.8040 C   0  0  0  0  0  0  0  0  0  0  0  0
   48.2510   31.7330   38.1850 N   0  0  0  0  0  0  0  0  0  0  0  0
   49.3680   32.4670   37.9410 C   0  0  0  0  0  0  0  0  0  0  0  0
   50.4450   31.7360   38.3590 C   0  0  0  0  0  0  0  0  0  0  0  0
   49.9810   30.5890   38.8430 N   0  0  0  0  0  0  0  0  0  0  0  0
   48.6400   30.5810   38.7400 C   0  0  0  0  0  0  0  0  0  0  0  0
   46.5959   34.7587   39.8427 H   0  0  0  0  0  0  0  0  0  0  0  0
   47.9628   36.2813   41.3977 H   0  0  0  0  0  0  0  0  0  0  0  0
   48.0057   32.0030   41.3962 H   0  0  0  0  0  0  0  0  0  0  0  0
   51.3182   34.2162   42.8604 H   0  0  0  0  0  0  0  0  0  0  0  0
   43.7674   34.7816   40.0761 H   0  0  0  0  0  0  0  0  0  0  0  0
   42.4321   35.7881   42.2186 H   0  0  0  0  0  0  0  0  0  0  0  0
   44.1113   35.8417   44.3027 H   0  0  0  0  0  0  0  0  0  0  0  0
   46.8482   32.0294   40.5669 H   0  0  0  0  0  0  0  0  0  0  0  0
   45.1155   32.5505   40.5207 H   0  0  0  0  0  0  0  0  0  0  0  0
   44.5811   33.5283   36.0004 H   0  0  0  0  0  0  0  0  0  0  0  0
   46.9607   32.3449   35.5723 H   0  0  0  0  0  0  0  0  0  0  0  0
   49.4000   33.4691   37.4885 H   0  0  0  0  0  0  0  0  0  0  0  0
   51.5005   32.0410   38.3047 H   0  0  0  0  0  0  0  0  0  0  0  0
   47.9756   29.7643   39.0587 H   0  0  0  0  0  0  0  0  0  0  0  0
  1  3  1  0
  1  8  1  0
  2  7  2  0
  3  2  1  0
  3  4  2  0
  4  5  1  0
  5  6  2  0
  7  6  1  0
  8 12  1  0
  9  8  2  0
  9 10  1  0
 10 11  2  0
 12 11  1  0
 13  1  1  0
 14 13  1  0
 15 14  1  0
 16 15  2  0
 17 16  1  0
 17 18  2  0
 18 19  1  0
 18 14  1  0
 19 23  1  0
 20 19  1  0
 20 21  2  0
 21 22  1  0
 23 22  2  0
  1 24  1  6
  2 25  1  0
  4 26  1  0
  6 27  1  0
  9 28  1  0
 10 29  1  0
 11 30  1  0
 13 31  1  0
 13 32  1  0
 16 33  1  0
 17 34  1  0
 20 35  1  0
 21 36  1  0
 23 37  1  0
M  ISO  8  24   8  25  14  26  14  27  14  28  14  29  14  30  14  31   8
M  ISO  6  32   8  33  14  34  14  35  14  36  14  37  14
M  END
>  <minimizedAffinity>  (1) 
-4.43666363

>  <minimizedRMSD>  (1) 
0.663511872

$$$$
