
     RDKit          3D

 37 40  0  0  1  0  0  0  0  0999 V2000
   46.5010   34.1870   40.9440 C   0  0  2  0  0  0  0  0  0  0  0  0
   48.5090   35.4470   41.6060 C   0  0  0  0  0  0  0  0  0  0  0  0
   47.8010   34.2720   41.5070 C   0  0  0  0  0  0  0  0  0  0  0  0
   48.4460   33.1240   41.9700 C   0  0  0  0  0  0  0  0  0  0  0  0
   49.6980   33.1760   42.4840 N   0  0  0  0  0  0  0  0  0  0  0  0
   50.3360   34.3770   42.5490 C   0  0  0  0  0  0  0  0  0  0  0  0
   49.7470   35.4980   42.1160 N   0  0  0  0  0  0  0  0  0  0  0  0
   45.4280   34.7900   41.8380 C   0  0  0  0  0  0  0  0  0  0  0  0
   44.1500   35.0510   41.3280 C   0  0  0  0  0  0  0  0  0  0  0  0
   43.4880   35.5840   42.4230 C   0  0  0  0  0  0  0  0  0  0  0  0
   44.3730   35.6210   43.5110 C   0  0  0  0  0  0  0  0  0  0  0  0
   45.5190   35.1350   43.1090 O   0  0  0  0  0  0  0  0  0  0  0  0
   46.1430   32.8380   40.4610 C   0  0  0  0  0  0  0  0  0  0  0  0
   45.8860   32.8240   39.0520 N   0  0  0  0  0  0  0  0  0  0  0  0
   44.6530   32.6680   38.5860 N   0  0  0  0  0  0  0  0  0  0  0  0
   44.5780   32.6640   37.2760 C   0  0  0  0  0  0  0  0  0  0  0  0
   45.8470   32.8310   36.8180 C   0  0  0  0  0  0  0  0  0  0  0  0
   46.6170   32.9230   37.9580 C   0  0  0  0  0  0  0  0  0  0  0  0
   48.0930   33.0990   37.8710 C   0  0  0  0  0  0  0  0  0  0  0  0
   48.5660   34.5670   37.6520 C   0  0  0  0  0  0  0  0  0  0  0  0
   48.6320   33.6280   36.5250 C   0  0  0  0  0  0  0  0  0  0  0  0
   46.5446   34.8145   40.0416 H   0  0  0  0  0  0  0  0  0  0  0  0
   48.0420   36.3786   41.2537 H   0  0  0  0  0  0  0  0  0  0  0  0
   47.9262   32.1561   41.9163 H   0  0  0  0  0  0  0  0  0  0  0  0
   51.3532   34.4268   42.9646 H   0  0  0  0  0  0  0  0  0  0  0  0
   43.7670   34.8765   40.3117 H   0  0  0  0  0  0  0  0  0  0  0  0
   42.4414   35.9222   42.4367 H   0  0  0  0  0  0  0  0  0  0  0  0
   44.1442   35.9921   44.5209 H   0  0  0  0  0  0  0  0  0  0  0  0
   46.9744   32.1510   40.6773 H   0  0  0  0  0  0  0  0  0  0  0  0
   45.2237   32.5247   40.9775 H   0  0  0  0  0  0  0  0  0  0  0  0
   43.6682   32.5484   36.6686 H   0  0  0  0  0  0  0  0  0  0  0  0
   46.1840   32.8814   35.7721 H   0  0  0  0  0  0  0  0  0  0  0  0
   48.3339   32.2682   38.5504 H   0  0  0  0  0  0  0  0  0  0  0  0
   47.8284   35.3830   37.6410 H   0  0  0  0  0  0  0  0  0  0  0  0
   49.2934   35.2246   38.1505 H   0  0  0  0  0  0  0  0  0  0  0  0
   47.9451   33.7502   35.6745 H   0  0  0  0  0  0  0  0  0  0  0  0
   49.4334   33.3071   35.8433 H   0  0  0  0  0  0  0  0  0  0  0  0
  1  3  1  0
  1  8  1  0
  2  7  2  0
  3  2  1  0
  3  4  2  0
  4  5  1  0
  5  6  2  0
  7  6  1  0
  8 12  1  0
  9  8  2  0
  9 10  1  0
 10 11  2  0
 12 11  1  0
 13  1  1  0
 14 13  1  0
 15 14  1  0
 16 15  2  0
 17 16  1  0
 17 18  2  0
 18 14  1  0
 19 18  1  0
 20 19  1  0
 21 20  1  0
 21 19  1  0
  1 22  1  6
  2 23  1  0
  4 24  1  0
  6 25  1  0
  9 26  1  0
 10 27  1  0
 11 28  1  0
 13 29  1  0
 13 30  1  0
 16 31  1  0
 17 32  1  0
 19 33  1  0
 20 34  1  0
 20 35  1  0
 21 36  1  0
 21 37  1  0
M  ISO  8  22   8  23  14  24  14  25  14  26  14  27  14  28  14  29   8
M  ISO  8  30   8  31  14  32  14  33  13  34  13  35  13  36  13  37  13
M  END
>  <minimizedAffinity>  (1) 
-4.58722353

>  <minimizedRMSD>  (1) 
0.819078147

$$$$
