
     RDKit          3D

 39 41  0  0  1  0  0  0  0  0999 V2000
   46.5740   34.1880   40.7810 C   0  0  2  0  0  0  0  0  0  0  0  0
   48.5160   35.4660   41.5840 C   0  0  0  0  0  0  0  0  0  0  0  0
   47.8490   34.2770   41.3960 C   0  0  0  0  0  0  0  0  0  0  0  0
   48.5140   33.1250   41.8150 C   0  0  0  0  0  0  0  0  0  0  0  0
   49.7470   33.1760   42.3700 N   0  0  0  0  0  0  0  0  0  0  0  0
   50.3470   34.3920   42.5240 C   0  0  0  0  0  0  0  0  0  0  0  0
   49.7370   35.5180   42.1360 N   0  0  0  0  0  0  0  0  0  0  0  0
   45.4570   34.7330   41.6560 C   0  0  0  0  0  0  0  0  0  0  0  0
   44.1830   34.9530   41.1200 C   0  0  0  0  0  0  0  0  0  0  0  0
   43.4760   35.4410   42.2080 C   0  0  0  0  0  0  0  0  0  0  0  0
   44.3360   35.4910   43.3230 C   0  0  0  0  0  0  0  0  0  0  0  0
   45.5050   35.0570   42.9330 O   0  0  0  0  0  0  0  0  0  0  0  0
   46.2830   32.8540   40.2380 C   0  0  0  0  0  0  0  0  0  0  0  0
   46.0070   32.8720   38.8410 N   0  0  0  0  0  0  0  0  0  0  0  0
   44.7690   32.7120   38.3870 N   0  0  0  0  0  0  0  0  0  0  0  0
   44.6780   32.7400   37.0800 C   0  0  0  0  0  0  0  0  0  0  0  0
   45.9540   32.9330   36.6070 C   0  0  0  0  0  0  0  0  0  0  0  0
   46.7210   33.0060   37.7430 C   0  0  0  0  0  0  0  0  0  0  0  0
   48.1830   33.2010   37.6270 C   0  0  0  0  0  0  0  0  0  0  0  0
   48.5580   34.6670   37.6210 C   0  0  0  0  0  0  0  0  0  0  0  0
   48.5390   32.7180   36.2060 C   0  0  0  0  0  0  0  0  0  0  0  0
   46.6205   34.8533   39.9062 H   0  0  0  0  0  0  0  0  0  0  0  0
   48.0323   36.4033   41.2716 H   0  0  0  0  0  0  0  0  0  0  0  0
   48.0229   32.1485   41.6910 H   0  0  0  0  0  0  0  0  0  0  0  0
   51.3489   34.4474   42.9747 H   0  0  0  0  0  0  0  0  0  0  0  0
   43.8307   34.7815   40.0922 H   0  0  0  0  0  0  0  0  0  0  0  0
   42.4175   35.7401   42.2019 H   0  0  0  0  0  0  0  0  0  0  0  0
   44.0720   35.8323   44.3348 H   0  0  0  0  0  0  0  0  0  0  0  0
   47.1535   32.2054   40.4154 H   0  0  0  0  0  0  0  0  0  0  0  0
   45.3828   32.4797   40.7474 H   0  0  0  0  0  0  0  0  0  0  0  0
   43.7622   32.6307   36.4805 H   0  0  0  0  0  0  0  0  0  0  0  0
   46.2841   33.0109   35.5606 H   0  0  0  0  0  0  0  0  0  0  0  0
   48.6841   32.6858   38.4598 H   0  0  0  0  0  0  0  0  0  0  0  0
   48.6499   35.0262   38.6566 H   0  0  0  0  0  0  0  0  0  0  0  0
   49.5185   34.7977   37.1010 H   0  0  0  0  0  0  0  0  0  0  0  0
   47.7782   35.2428   37.1010 H   0  0  0  0  0  0  0  0  0  0  0  0
   49.1905   31.8341   36.2716 H   0  0  0  0  0  0  0  0  0  0  0  0
   47.6172   32.4548   35.6665 H   0  0  0  0  0  0  0  0  0  0  0  0
   49.0632   33.5206   35.6665 H   0  0  0  0  0  0  0  0  0  0  0  0
  1  3  1  0
  1  8  1  0
  2  7  2  0
  3  2  1  0
  3  4  2  0
  4  5  1  0
  5  6  2  0
  7  6  1  0
  8 12  1  0
  9  8  2  0
  9 10  1  0
 10 11  2  0
 12 11  1  0
 13  1  1  0
 14 13  1  0
 15 14  1  0
 16 15  2  0
 17 16  1  0
 17 18  2  0
 18 14  1  0
 19 18  1  0
 20 19  1  0
 21 19  1  0
  1 22  1  6
  2 23  1  0
  4 24  1  0
  6 25  1  0
  9 26  1  0
 10 27  1  0
 11 28  1  0
 13 29  1  0
 13 30  1  0
 16 31  1  0
 17 32  1  0
 19 33  1  0
 20 34  1  0
 20 35  1  0
 20 36  1  0
 21 37  1  0
 21 38  1  0
 21 39  1  0
M  ISO  8  22   8  23  14  24  14  25  14  26  14  27  14  28  14  29   8
M  ISO  8  30   8  31  14  32  14  33   8  34   8  35   8  36   8  37   8
M  ISO  2  38   8  39   8
M  END
>  <minimizedAffinity>  (1) 
-4.64685774

>  <minimizedRMSD>  (1) 
0.61412406

$$$$
