
     RDKit          3D

 37 40  0  0  1  0  0  0  0  0999 V2000
   46.4850   34.1100   40.7890 C   0  0  2  0  0  0  0  0  0  0  0  0
   48.4820   35.3420   41.5410 C   0  0  0  0  0  0  0  0  0  0  0  0
   47.7730   34.1750   41.3810 C   0  0  0  0  0  0  0  0  0  0  0  0
   48.4000   33.0070   41.8210 C   0  0  0  0  0  0  0  0  0  0  0  0
   49.6390   33.0370   42.3730 N   0  0  0  0  0  0  0  0  0  0  0  0
   50.2800   34.2320   42.4990 C   0  0  0  0  0  0  0  0  0  0  0  0
   49.7050   35.3670   42.0880 N   0  0  0  0  0  0  0  0  0  0  0  0
   45.3970   34.7150   41.6640 C   0  0  0  0  0  0  0  0  0  0  0  0
   44.1170   34.9580   41.1390 C   0  0  0  0  0  0  0  0  0  0  0  0
   43.4450   35.5000   42.2250 C   0  0  0  0  0  0  0  0  0  0  0  0
   44.3240   35.5570   43.3250 C   0  0  0  0  0  0  0  0  0  0  0  0
   45.4710   35.0770   42.9330 O   0  0  0  0  0  0  0  0  0  0  0  0
   46.1070   32.7810   40.2800 C   0  0  0  0  0  0  0  0  0  0  0  0
   46.2570   32.7020   38.8440 N   0  0  0  0  0  0  0  0  0  0  0  0
   45.3240   33.2250   38.0580 N   0  0  0  0  0  0  0  0  0  0  0  0
   45.5850   33.0700   36.7770 C   0  0  0  0  0  0  0  0  0  0  0  0
   46.7680   32.4010   36.6880 C   0  0  0  0  0  0  0  0  0  0  0  0
   47.1440   32.1970   38.0000 C   0  0  0  0  0  0  0  0  0  0  0  0
   48.3240   31.5360   38.5150 N   0  0  0  0  0  0  0  0  0  0  0  0
   49.4380   32.2720   38.4280 N   0  0  0  0  0  0  0  0  0  0  0  0
   50.4870   31.6200   38.9120 C   0  0  0  0  0  0  0  0  0  0  0  0
   49.9850   30.3980   39.3270 C   0  0  0  0  0  0  0  0  0  0  0  0
   48.6240   30.3570   39.0720 C   0  0  0  0  0  0  0  0  0  0  0  0
   46.5736   34.7448   39.8951 H   0  0  0  0  0  0  0  0  0  0  0  0
   48.0296   36.2879   41.2085 H   0  0  0  0  0  0  0  0  0  0  0  0
   47.8789   32.0438   41.7179 H   0  0  0  0  0  0  0  0  0  0  0  0
   51.2849   34.2639   42.9452 H   0  0  0  0  0  0  0  0  0  0  0  0
   43.7419   34.7667   40.1228 H   0  0  0  0  0  0  0  0  0  0  0  0
   42.3961   35.8315   42.2271 H   0  0  0  0  0  0  0  0  0  0  0  0
   44.0861   35.9367   44.3296 H   0  0  0  0  0  0  0  0  0  0  0  0
   46.7505   32.0221   40.7490 H   0  0  0  0  0  0  0  0  0  0  0  0
   45.0498   32.6043   40.5272 H   0  0  0  0  0  0  0  0  0  0  0  0
   44.9646   33.4156   35.9370 H   0  0  0  0  0  0  0  0  0  0  0  0
   47.3024   32.0932   35.7771 H   0  0  0  0  0  0  0  0  0  0  0  0
   51.5273   31.9727   38.9708 H   0  0  0  0  0  0  0  0  0  0  0  0
   50.5728   29.5893   39.7857 H   0  0  0  0  0  0  0  0  0  0  0  0
   47.9333   29.5274   39.2835 H   0  0  0  0  0  0  0  0  0  0  0  0
  1  3  1  0
  1  8  1  0
  2  7  2  0
  3  2  1  0
  3  4  2  0
  4  5  1  0
  5  6  2  0
  7  6  1  0
  8 12  1  0
  9  8  2  0
  9 10  1  0
 10 11  2  0
 12 11  1  0
 13  1  1  0
 14 13  1  0
 15 14  1  0
 16 15  2  0
 17 16  1  0
 17 18  2  0
 18 19  1  0
 18 14  1  0
 19 23  1  0
 20 19  1  0
 20 21  2  0
 21 22  1  0
 23 22  2  0
  1 24  1  6
  2 25  1  0
  4 26  1  0
  6 27  1  0
  9 28  1  0
 10 29  1  0
 11 30  1  0
 13 31  1  0
 13 32  1  0
 16 33  1  0
 17 34  1  0
 21 35  1  0
 22 36  1  0
 23 37  1  0
M  ISO  8  24   8  25  14  26  14  27  14  28  14  29  14  30  14  31   8
M  ISO  6  32   8  33  14  34  14  35  14  36  14  37  14
M  END
>  <minimizedAffinity>  (1) 
-4.36845064

>  <minimizedRMSD>  (1) 
0.719910026

$$$$
