
     RDKit          3D

 33 35  0  0  1  0  0  0  0  0999 V2000
   46.5760   34.2080   40.7520 C   0  0  2  0  0  0  0  0  0  0  0  0
   48.5520   35.4670   41.5110 C   0  0  0  0  0  0  0  0  0  0  0  0
   47.8390   34.2960   41.3910 C   0  0  0  0  0  0  0  0  0  0  0  0
   48.4430   33.1530   41.9210 C   0  0  0  0  0  0  0  0  0  0  0  0
   49.6600   33.2080   42.5170 N   0  0  0  0  0  0  0  0  0  0  0  0
   50.3040   34.4050   42.5970 C   0  0  0  0  0  0  0  0  0  0  0  0
   49.7580   35.5010   42.1060 N   0  0  0  0  0  0  0  0  0  0  0  0
   45.4370   34.7300   41.6120 C   0  0  0  0  0  0  0  0  0  0  0  0
   44.1530   34.8840   41.0650 C   0  0  0  0  0  0  0  0  0  0  0  0
   43.4240   35.3720   42.1410 C   0  0  0  0  0  0  0  0  0  0  0  0
   44.2820   35.4850   43.2590 C   0  0  0  0  0  0  0  0  0  0  0  0
   45.4680   35.0890   42.8850 O   0  0  0  0  0  0  0  0  0  0  0  0
   46.2780   32.8780   40.1860 C   0  0  0  0  0  0  0  0  0  0  0  0
   46.3730   32.8900   38.7440 N   0  0  0  0  0  0  0  0  0  0  0  0
   45.2920   33.1210   38.0100 N   0  0  0  0  0  0  0  0  0  0  0  0
   45.5290   33.0870   36.7160 C   0  0  0  0  0  0  0  0  0  0  0  0
   46.8550   32.8140   36.5590 C   0  0  0  0  0  0  0  0  0  0  0  0
   47.3330   32.7010   37.8370 C   0  0  0  0  0  0  0  0  0  0  0  0
   48.7380   32.4050   38.3030 C   0  0  0  0  0  0  0  0  0  0  0  0
   46.6590   34.8842   39.8884 H   0  0  0  0  0  0  0  0  0  0  0  0
   48.1251   36.3983   41.1104 H   0  0  0  0  0  0  0  0  0  0  0  0
   47.9201   32.1876   41.8534 H   0  0  0  0  0  0  0  0  0  0  0  0
   51.2922   34.4589   43.0772 H   0  0  0  0  0  0  0  0  0  0  0  0
   43.8108   34.6715   40.0414 H   0  0  0  0  0  0  0  0  0  0  0  0
   42.3545   35.6286   42.1261 H   0  0  0  0  0  0  0  0  0  0  0  0
   44.0012   35.8415   44.2610 H   0  0  0  0  0  0  0  0  0  0  0  0
   46.9969   32.1483   40.5868 H   0  0  0  0  0  0  0  0  0  0  0  0
   45.2500   32.6034   40.4649 H   0  0  0  0  0  0  0  0  0  0  0  0
   44.7952   33.2485   35.9126 H   0  0  0  0  0  0  0  0  0  0  0  0
   47.4148   32.7083   35.6180 H   0  0  0  0  0  0  0  0  0  0  0  0
   48.7660   32.3991   39.4026 H   0  0  0  0  0  0  0  0  0  0  0  0
   49.0508   31.4213   37.9230 H   0  0  0  0  0  0  0  0  0  0  0  0
   49.4211   33.1790   37.9230 H   0  0  0  0  0  0  0  0  0  0  0  0
  1  3  1  0
  1  8  1  0
  2  7  2  0
  3  2  1  0
  3  4  2  0
  4  5  1  0
  5  6  2  0
  7  6  1  0
  8 12  1  0
  9  8  2  0
  9 10  1  0
 10 11  2  0
 12 11  1  0
 13  1  1  0
 14 13  1  0
 15 14  1  0
 16 15  2  0
 17 16  1  0
 17 18  2  0
 18 19  1  0
 18 14  1  0
  1 20  1  6
  2 21  1  0
  4 22  1  0
  6 23  1  0
  9 24  1  0
 10 25  1  0
 11 26  1  0
 13 27  1  0
 13 28  1  0
 16 29  1  0
 17 30  1  0
 19 31  1  0
 19 32  1  0
 19 33  1  0
M  ISO  8  20   8  21  14  22  14  23  14  24  14  25  14  26  14  27   8
M  ISO  6  28   8  29  14  30  14  31   8  32   8  33   8
M  END
>  <minimizedAffinity>  (1) 
-4.32000256

>  <minimizedRMSD>  (1) 
0.0988848731

$$$$
