
     RDKit          3D

 48 52  0  0  1  0  0  0  0  0999 V2000
   46.2630   32.7600   40.0330 C   0  0  0  0  0  0  0  0  0  0  0  0
   46.3350   32.7510   38.5880 N   0  0  0  0  0  0  0  0  0  0  0  0
   45.3170   33.1920   37.8810 N   0  0  0  0  0  0  0  0  0  0  0  0
   45.5240   33.1010   36.5800 C   0  0  0  0  0  0  0  0  0  0  0  0
   46.7620   32.5660   36.4050 C   0  0  0  0  0  0  0  0  0  0  0  0
   47.2300   32.3660   37.7050 C   0  0  0  0  0  0  0  0  0  0  0  0
   47.5000   32.2450   35.1850 C   0  0  0  0  0  0  0  0  0  0  0  0
   48.6840   32.8060   34.7530 C   0  0  0  0  0  0  0  0  0  0  0  0
   49.2430   32.3770   33.5660 C   0  0  0  0  0  0  0  0  0  0  0  0
   48.6730   31.4030   32.7750 C   0  0  0  0  0  0  0  0  0  0  0  0
   47.4910   30.8420   33.2020 C   0  0  0  0  0  0  0  0  0  0  0  0
   46.8910   29.8560   32.4240 C   0  0  0  0  0  0  0  0  0  0  0  0
   45.7120   29.2820   32.8300 C   0  0  0  0  0  0  0  0  0  0  0  0
   45.1070   29.6690   34.0050 C   0  0  0  0  0  0  0  0  0  0  0  0
   45.7480   30.6490   34.7330 C   0  0  0  0  0  0  0  0  0  0  0  0
   46.9300   31.2710   34.3910 C   0  0  0  0  0  0  0  0  0  0  0  0
   48.4990   31.8200   38.1140 N   0  0  0  0  0  0  0  0  0  0  0  0
   46.5870   34.0740   40.5880 C   0  0  2  0  0  0  0  0  0  0  0  0
   48.4670   35.3580   41.4890 C   0  0  0  0  0  0  0  0  0  0  0  0
   47.8230   34.1820   41.2460 C   0  0  0  0  0  0  0  0  0  0  0  0
   48.4880   33.0400   41.6640 C   0  0  0  0  0  0  0  0  0  0  0  0
   49.6990   33.0790   42.2730 N   0  0  0  0  0  0  0  0  0  0  0  0
   50.2700   34.3110   42.4750 C   0  0  0  0  0  0  0  0  0  0  0  0
   49.6630   35.4150   42.0900 N   0  0  0  0  0  0  0  0  0  0  0  0
   45.4220   34.6300   41.4270 C   0  0  0  0  0  0  0  0  0  0  0  0
   44.1480   34.7810   40.8530 C   0  0  0  0  0  0  0  0  0  0  0  0
   43.4020   35.2950   41.9020 C   0  0  0  0  0  0  0  0  0  0  0  0
   44.2460   35.4240   43.0280 C   0  0  0  0  0  0  0  0  0  0  0  0
   45.4440   35.0150   42.6960 O   0  0  0  0  0  0  0  0  0  0  0  0
   46.9755   32.0214   40.4290 H   0  0  0  0  0  0  0  0  0  0  0  0
   45.2315   32.5124   40.3241 H   0  0  0  0  0  0  0  0  0  0  0  0
   44.8251   33.4019   35.7856 H   0  0  0  0  0  0  0  0  0  0  0  0
   49.1779   33.5877   35.3488 H   0  0  0  0  0  0  0  0  0  0  0  0
   50.1876   32.8340   33.2360 H   0  0  0  0  0  0  0  0  0  0  0  0
   49.1466   31.0848   31.8345 H   0  0  0  0  0  0  0  0  0  0  0  0
   47.3621   29.5364   31.4828 H   0  0  0  0  0  0  0  0  0  0  0  0
   45.2448   28.5034   32.2092 H   0  0  0  0  0  0  0  0  0  0  0  0
   44.1621   29.2200   34.3449 H   0  0  0  0  0  0  0  0  0  0  0  0
   45.2724   30.9637   35.6736 H   0  0  0  0  0  0  0  0  0  0  0  0
   48.7204   31.7258   39.1155 H   0  0  0  0  0  0  0  0  0  0  0  0
   49.1848   31.5238   37.4049 H   0  0  0  0  0  0  0  0  0  0  0  0
   46.7237   34.7152   39.7047 H   0  0  0  0  0  0  0  0  0  0  0  0
   47.9859   36.2976   41.1795 H   0  0  0  0  0  0  0  0  0  0  0  0
   48.0140   32.0619   41.4948 H   0  0  0  0  0  0  0  0  0  0  0  0
   51.2516   34.3775   42.9670 H   0  0  0  0  0  0  0  0  0  0  0  0
   43.8240   34.5492   39.8277 H   0  0  0  0  0  0  0  0  0  0  0  0
   42.3345   35.5578   41.8644 H   0  0  0  0  0  0  0  0  0  0  0  0
   43.9468   35.8038   44.0160 H   0  0  0  0  0  0  0  0  0  0  0  0
  1 18  1  0
  2  1  1  0
  3  2  1  0
  4  3  2  0
  5  4  1  0
  5  6  2  0
  6 17  1  0
  6  2  1  0
  7  5  1  0
  8  7  2  0
  9  8  1  0
 10 11  1  0
 10  9  2  0
 11 16  2  0
 12 13  2  0
 12 11  1  0
 13 14  1  0
 14 15  2  0
 16 15  1  0
 16  7  1  0
 18 20  1  0
 18 25  1  0
 19 24  2  0
 20 19  1  0
 20 21  2  0
 21 22  1  0
 22 23  2  0
 24 23  1  0
 25 29  1  0
 26 25  2  0
 26 27  1  0
 27 28  2  0
 29 28  1  0
  1 30  1  0
  1 31  1  0
  4 32  1  0
  8 33  1  0
  9 34  1  0
 10 35  1  0
 12 36  1  0
 13 37  1  0
 14 38  1  0
 15 39  1  0
 17 40  1  0
 17 41  1  0
 18 42  1  6
 19 43  1  0
 21 44  1  0
 23 45  1  0
 26 46  1  0
 27 47  1  0
 28 48  1  0
M  ISO  8  30   8  31   8  32  14  33  14  34  14  35  14  36  14  37  14
M  ISO  8  38  14  39  14  42   8  43  14  44  14  45  14  46  14  47  14
M  ISO  1  48  14
M  END
>  <minimizedAffinity>  (1) 
-5.81399488

>  <minimizedRMSD>  (1) 
1.90916228

$$$$
