
     RDKit          3D

 42 45  0  0  1  0  0  0  0  0999 V2000
   46.4600   33.0160   39.8570 C   0  0  0  0  0  0  0  0  0  0  0  0
   47.0050   33.0480   38.5050 N   0  0  0  0  0  0  0  0  0  0  0  0
   47.8200   34.0310   38.1430 N   0  0  0  0  0  0  0  0  0  0  0  0
   48.2240   33.9280   36.8940 C   0  0  0  0  0  0  0  0  0  0  0  0
   47.6510   32.8130   36.3830 C   0  0  0  0  0  0  0  0  0  0  0  0
   46.9040   32.3060   37.4280 C   0  0  0  0  0  0  0  0  0  0  0  0
   47.7520   32.2240   35.0520 C   0  0  0  0  0  0  0  0  0  0  0  0
   46.9560   31.2650   34.4760 C   0  0  0  0  0  0  0  0  0  0  0  0
   47.2540   30.8620   33.1890 C   0  0  0  0  0  0  0  0  0  0  0  0
   48.3040   31.3750   32.4610 C   0  0  0  0  0  0  0  0  0  0  0  0
   49.1030   32.3440   33.0520 C   0  0  0  0  0  0  0  0  0  0  0  0
   48.8240   32.7550   34.3260 C   0  0  0  0  0  0  0  0  0  0  0  0
   46.0810   31.1110   37.4560 N   0  0  0  0  0  0  0  0  0  0  0  0
   46.7330   34.2630   40.5700 C   0  0  2  0  0  0  0  0  0  0  0  0
   48.6570   35.4550   41.5210 C   0  0  0  0  0  0  0  0  0  0  0  0
   47.9400   34.3200   41.2870 C   0  0  0  0  0  0  0  0  0  0  0  0
   48.4990   33.1470   41.7870 C   0  0  0  0  0  0  0  0  0  0  0  0
   49.6730   33.1230   42.4600 N   0  0  0  0  0  0  0  0  0  0  0  0
   50.3270   34.3160   42.6490 C   0  0  0  0  0  0  0  0  0  0  0  0
   49.8210   35.4430   42.1860 N   0  0  0  0  0  0  0  0  0  0  0  0
   45.5240   34.7020   41.4160 C   0  0  0  0  0  0  0  0  0  0  0  0
   44.2350   34.7020   40.8580 C   0  0  0  0  0  0  0  0  0  0  0  0
   43.4480   35.1480   41.9080 C   0  0  0  0  0  0  0  0  0  0  0  0
   44.2870   35.3880   43.0210 C   0  0  0  0  0  0  0  0  0  0  0  0
   45.5200   35.1070   42.6810 O   0  0  0  0  0  0  0  0  0  0  0  0
   46.9173   32.1809   40.4079 H   0  0  0  0  0  0  0  0  0  0  0  0
   45.3697   32.8869   39.7887 H   0  0  0  0  0  0  0  0  0  0  0  0
   48.8992   34.6174   36.3659 H   0  0  0  0  0  0  0  0  0  0  0  0
   46.1063   30.8306   35.0232 H   0  0  0  0  0  0  0  0  0  0  0  0
   46.6209   30.0929   32.7224 H   0  0  0  0  0  0  0  0  0  0  0  0
   48.5045   31.0259   31.4373 H   0  0  0  0  0  0  0  0  0  0  0  0
   49.9514   32.7766   32.5015 H   0  0  0  0  0  0  0  0  0  0  0  0
   49.4587   33.5230   34.7923 H   0  0  0  0  0  0  0  0  0  0  0  0
   45.5753   30.8540   38.3157 H   0  0  0  0  0  0  0  0  0  0  0  0
   46.0026   30.5199   36.6162 H   0  0  0  0  0  0  0  0  0  0  0  0
   46.8911   35.0006   39.7694 H   0  0  0  0  0  0  0  0  0  0  0  0
   48.2670   36.4148   41.1512 H   0  0  0  0  0  0  0  0  0  0  0  0
   47.9636   32.1993   41.6283 H   0  0  0  0  0  0  0  0  0  0  0  0
   51.2833   34.3319   43.1924 H   0  0  0  0  0  0  0  0  0  0  0  0
   43.9269   34.4186   39.8408 H   0  0  0  0  0  0  0  0  0  0  0  0
   42.3577   35.2908   41.8805 H   0  0  0  0  0  0  0  0  0  0  0  0
   43.9590   35.7499   44.0066 H   0  0  0  0  0  0  0  0  0  0  0  0
  1 14  1  0
  2  1  1  0
  3  2  1  0
  4  3  2  0
  5  4  1  0
  5  6  2  0
  6 13  1  0
  6  2  1  0
  7  5  1  0
  8  7  2  0
  9  8  1  0
 10 11  1  0
 10  9  2  0
 11 12  2  0
 12  7  1  0
 14 16  1  0
 14 21  1  0
 15 20  2  0
 16 15  1  0
 16 17  2  0
 17 18  1  0
 18 19  2  0
 20 19  1  0
 21 25  1  0
 22 21  2  0
 22 23  1  0
 23 24  2  0
 25 24  1  0
  1 26  1  0
  1 27  1  0
  4 28  1  0
  8 29  1  0
  9 30  1  0
 10 31  1  0
 11 32  1  0
 12 33  1  0
 13 34  1  0
 13 35  1  0
 14 36  1  6
 15 37  1  0
 17 38  1  0
 19 39  1  0
 22 40  1  0
 23 41  1  0
 24 42  1  0
M  ISO  8  26   8  27   8  28  14  29  14  30  14  31  14  32  14  33  14
M  ISO  7  36   8  37  14  38  14  39  14  40  14  41  14  42  14
M  END
>  <minimizedAffinity>  (1) 
-5.38327932

>  <minimizedRMSD>  (1) 
1.40098298

$$$$
