
     RDKit          3D

 47 50  0  0  1  0  0  0  0  0999 V2000
   46.6270   34.2160   40.7540 C   0  0  2  0  0  0  0  0  0  0  0  0
   48.5680   35.4780   41.5780 C   0  0  0  0  0  0  0  0  0  0  0  0
   47.8760   34.3180   41.3900 C   0  0  0  0  0  0  0  0  0  0  0  0
   48.5060   33.1620   41.8520 C   0  0  0  0  0  0  0  0  0  0  0  0
   49.7230   33.1840   42.4470 N   0  0  0  0  0  0  0  0  0  0  0  0
   50.3440   34.3990   42.5930 C   0  0  0  0  0  0  0  0  0  0  0  0
   49.7720   35.5090   42.1670 N   0  0  0  0  0  0  0  0  0  0  0  0
   45.4740   34.7430   41.6280 C   0  0  0  0  0  0  0  0  0  0  0  0
   44.1870   34.8950   41.0810 C   0  0  0  0  0  0  0  0  0  0  0  0
   43.4640   35.3810   42.1620 C   0  0  0  0  0  0  0  0  0  0  0  0
   44.3330   35.4940   43.2740 C   0  0  0  0  0  0  0  0  0  0  0  0
   45.5220   35.0990   42.9010 O   0  0  0  0  0  0  0  0  0  0  0  0
   46.3010   32.9190   40.1610 C   0  0  0  0  0  0  0  0  0  0  0  0
   46.5840   32.8980   38.7340 N   0  0  0  0  0  0  0  0  0  0  0  0
   47.4530   33.7560   38.2130 N   0  0  0  0  0  0  0  0  0  0  0  0
   47.5960   33.6210   36.9170 C   0  0  0  0  0  0  0  0  0  0  0  0
   46.7780   32.6140   36.5310 C   0  0  0  0  0  0  0  0  0  0  0  0
   46.1740   32.2010   37.7030 C   0  0  0  0  0  0  0  0  0  0  0  0
   46.5540   32.0690   35.2510 N   0  0  0  0  0  0  0  0  0  0  0  0
   45.3650   32.1620   34.4400 C   0  0  0  0  0  0  0  0  0  0  0  0
   45.1480   30.8530   33.7410 C   0  0  0  0  0  0  0  0  0  0  0  0
   45.7950   29.6870   34.4050 C   0  0  0  0  0  0  0  0  0  0  0  0
   47.2330   29.8560   34.7650 C   0  0  0  0  0  0  0  0  0  0  0  0
   47.6330   31.3110   34.6370 C   0  0  0  0  0  0  0  0  0  0  0  0
   45.2010   31.1390   37.8900 N   0  0  0  0  0  0  0  0  0  0  0  0
   46.7440   34.8818   39.8862 H   0  0  0  0  0  0  0  0  0  0  0  0
   48.1220   36.4228   41.2338 H   0  0  0  0  0  0  0  0  0  0  0  0
   47.9950   32.1957   41.7284 H   0  0  0  0  0  0  0  0  0  0  0  0
   51.3330   34.4482   43.0721 H   0  0  0  0  0  0  0  0  0  0  0  0
   43.8417   34.6830   40.0583 H   0  0  0  0  0  0  0  0  0  0  0  0
   42.3940   35.6359   42.1556 H   0  0  0  0  0  0  0  0  0  0  0  0
   44.0560   35.8517   44.2767 H   0  0  0  0  0  0  0  0  0  0  0  0
   46.8994   32.1396   40.6554 H   0  0  0  0  0  0  0  0  0  0  0  0
   45.2255   32.7360   40.3019 H   0  0  0  0  0  0  0  0  0  0  0  0
   48.2558   34.2138   36.2664 H   0  0  0  0  0  0  0  0  0  0  0  0
   44.4988   32.3867   35.0797 H   0  0  0  0  0  0  0  0  0  0  0  0
   45.4831   32.9650   33.6976 H   0  0  0  0  0  0  0  0  0  0  0  0
   45.5520   30.9362   32.7213 H   0  0  0  0  0  0  0  0  0  0  0  0
   44.0646   30.6633   33.7584 H   0  0  0  0  0  0  0  0  0  0  0  0
   45.2389   29.4749   35.3301 H   0  0  0  0  0  0  0  0  0  0  0  0
   45.7673   28.8717   33.6670 H   0  0  0  0  0  0  0  0  0  0  0  0
   47.3898   29.5253   35.8023 H   0  0  0  0  0  0  0  0  0  0  0  0
   47.8488   29.2515   34.0828 H   0  0  0  0  0  0  0  0  0  0  0  0
   48.5806   31.4964   35.1639 H   0  0  0  0  0  0  0  0  0  0  0  0
   47.7869   31.5998   33.5868 H   0  0  0  0  0  0  0  0  0  0  0  0
   44.8317   30.9386   38.8304 H   0  0  0  0  0  0  0  0  0  0  0  0
   44.8803   30.5862   37.0822 H   0  0  0  0  0  0  0  0  0  0  0  0
  1  3  1  0
  1  8  1  0
  2  7  2  0
  3  2  1  0
  3  4  2  0
  4  5  1  0
  5  6  2  0
  7  6  1  0
  8 12  1  0
  9  8  2  0
  9 10  1  0
 10 11  2  0
 12 11  1  0
 13  1  1  0
 14 13  1  0
 15 14  1  0
 16 15  2  0
 17 16  1  0
 17 18  2  0
 18 25  1  0
 18 14  1  0
 19 17  1  0
 20 19  1  0
 21 22  1  0
 21 20  1  0
 22 23  1  0
 24 23  1  0
 24 19  1  0
  1 26  1  6
  2 27  1  0
  4 28  1  0
  6 29  1  0
  9 30  1  0
 10 31  1  0
 11 32  1  0
 13 33  1  0
 13 34  1  0
 16 35  1  0
 20 36  1  0
 20 37  1  0
 21 38  1  0
 21 39  1  0
 22 40  1  0
 22 41  1  0
 23 42  1  0
 23 43  1  0
 24 44  1  0
 24 45  1  0
 25 46  1  0
 25 47  1  0
M  ISO  8  26   8  27  14  28  14  29  14  30  14  31  14  32  14  33   8
M  ISO  8  34   8  35  14  36  13  37  13  38  13  39  13  40  13  41  13
M  ISO  4  42  13  43  13  44  13  45  13
M  END
>  <minimizedAffinity>  (1) 
-5.02038288

>  <minimizedRMSD>  (1) 
2.16745734

$$$$
