
     RDKit          3D

 39 42  0  0  1  0  0  0  0  0999 V2000
   46.5570   34.1270   40.7560 C   0  0  2  0  0  0  0  0  0  0  0  0
   48.4920   35.4220   41.5530 C   0  0  0  0  0  0  0  0  0  0  0  0
   47.8200   34.2490   41.3620 C   0  0  0  0  0  0  0  0  0  0  0  0
   48.4870   33.1010   41.7880 C   0  0  0  0  0  0  0  0  0  0  0  0
   49.7180   33.1380   42.3530 N   0  0  0  0  0  0  0  0  0  0  0  0
   50.3160   34.3640   42.5040 C   0  0  0  0  0  0  0  0  0  0  0  0
   49.7110   35.4680   42.1120 N   0  0  0  0  0  0  0  0  0  0  0  0
   45.4300   34.7040   41.6330 C   0  0  0  0  0  0  0  0  0  0  0  0
   44.1490   34.9150   41.0760 C   0  0  0  0  0  0  0  0  0  0  0  0
   43.4460   35.4330   42.1610 C   0  0  0  0  0  0  0  0  0  0  0  0
   44.3170   35.5050   43.2750 C   0  0  0  0  0  0  0  0  0  0  0  0
   45.4860   35.0570   42.9010 O   0  0  0  0  0  0  0  0  0  0  0  0
   46.2130   32.8080   40.2300 C   0  0  0  0  0  0  0  0  0  0  0  0
   46.2760   32.7860   38.7750 N   0  0  0  0  0  0  0  0  0  0  0  0
   45.2350   33.1780   38.0520 N   0  0  0  0  0  0  0  0  0  0  0  0
   45.4420   33.0960   36.7540 C   0  0  0  0  0  0  0  0  0  0  0  0
   46.6940   32.6220   36.5950 C   0  0  0  0  0  0  0  0  0  0  0  0
   47.1670   32.4460   37.8740 C   0  0  0  0  0  0  0  0  0  0  0  0
   47.4190   32.3440   35.3900 C   0  0  0  0  0  0  0  0  0  0  0  0
   48.6140   32.7550   34.9420 C   0  0  0  0  0  0  0  0  0  0  0  0
   49.1130   32.3570   33.7480 C   0  0  0  0  0  0  0  0  0  0  0  0
   48.2090   31.4420   33.0140 C   0  0  0  0  0  0  0  0  0  0  0  0
   46.7620   31.2980   34.1820 S   0  0  0  0  0  0  0  0  0  0  0  0
   48.4700   31.9570   38.2950 N   0  0  0  0  0  0  0  0  0  0  0  0
   46.6542   34.7488   39.8538 H   0  0  0  0  0  0  0  0  0  0  0  0
   48.0173   36.3628   41.2374 H   0  0  0  0  0  0  0  0  0  0  0  0
   47.9940   32.1260   41.6602 H   0  0  0  0  0  0  0  0  0  0  0  0
   51.3155   34.4266   42.9591 H   0  0  0  0  0  0  0  0  0  0  0  0
   43.7981   34.7207   40.0517 H   0  0  0  0  0  0  0  0  0  0  0  0
   42.3886   35.7361   42.1537 H   0  0  0  0  0  0  0  0  0  0  0  0
   44.0557   35.8731   44.2781 H   0  0  0  0  0  0  0  0  0  0  0  0
   46.9202   32.0668   40.6306 H   0  0  0  0  0  0  0  0  0  0  0  0
   45.1840   32.5692   40.5368 H   0  0  0  0  0  0  0  0  0  0  0  0
   44.7328   33.3620   35.9564 H   0  0  0  0  0  0  0  0  0  0  0  0
   49.2090   33.4385   35.5655 H   0  0  0  0  0  0  0  0  0  0  0  0
   50.0910   32.6805   33.3621 H   0  0  0  0  0  0  0  0  0  0  0  0
   48.3538   30.9686   32.0317 H   0  0  0  0  0  0  0  0  0  0  0  0
   48.6901   31.8756   39.2979 H   0  0  0  0  0  0  0  0  0  0  0  0
   49.1729   31.6920   37.5903 H   0  0  0  0  0  0  0  0  0  0  0  0
  1  3  1  0
  1  8  1  0
  2  7  2  0
  3  2  1  0
  3  4  2  0
  4  5  1  0
  5  6  2  0
  7  6  1  0
  8 12  1  0
  9  8  2  0
  9 10  1  0
 10 11  2  0
 12 11  1  0
 13  1  1  0
 14 13  1  0
 15 14  1  0
 16 15  2  0
 17 16  1  0
 17 18  2  0
 18 24  1  0
 18 14  1  0
 19 17  1  0
 20 19  2  0
 21 20  1  0
 22 21  2  0
 22 23  1  0
 23 19  1  0
  1 25  1  6
  2 26  1  0
  4 27  1  0
  6 28  1  0
  9 29  1  0
 10 30  1  0
 11 31  1  0
 13 32  1  0
 13 33  1  0
 16 34  1  0
 20 35  1  0
 21 36  1  0
 22 37  1  0
 24 38  1  0
 24 39  1  0
M  ISO  8  25   8  26  14  27  14  28  14  29  14  30  14  31  14  32   8
M  ISO  5  33   8  34  14  35  14  36  14  37  14
M  END
>  <minimizedAffinity>  (1) 
-5.03860855

>  <minimizedRMSD>  (1) 
0.798317492

$$$$
