
     RDKit          3D

 39 42  0  0  1  0  0  0  0  0999 V2000
   46.5810   34.1360   40.7600 C   0  0  2  0  0  0  0  0  0  0  0  0
   48.5060   35.4380   41.5600 C   0  0  0  0  0  0  0  0  0  0  0  0
   47.8390   34.2620   41.3730 C   0  0  0  0  0  0  0  0  0  0  0  0
   48.5040   33.1230   41.8090 C   0  0  0  0  0  0  0  0  0  0  0  0
   49.7330   33.1660   42.3800 N   0  0  0  0  0  0  0  0  0  0  0  0
   50.3270   34.3950   42.5270 C   0  0  0  0  0  0  0  0  0  0  0  0
   49.7200   35.4940   42.1240 N   0  0  0  0  0  0  0  0  0  0  0  0
   45.4490   34.7080   41.6340 C   0  0  0  0  0  0  0  0  0  0  0  0
   44.1640   34.9070   41.0780 C   0  0  0  0  0  0  0  0  0  0  0  0
   43.4570   35.4220   42.1580 C   0  0  0  0  0  0  0  0  0  0  0  0
   44.3140   35.5020   43.2560 C   0  0  0  0  0  0  0  0  0  0  0  0
   45.5000   35.0660   42.9080 O   0  0  0  0  0  0  0  0  0  0  0  0
   46.2450   32.8180   40.2330 C   0  0  0  0  0  0  0  0  0  0  0  0
   46.2850   32.8070   38.7740 N   0  0  0  0  0  0  0  0  0  0  0  0
   45.1960   33.0790   38.0700 N   0  0  0  0  0  0  0  0  0  0  0  0
   45.3740   33.0310   36.7800 C   0  0  0  0  0  0  0  0  0  0  0  0
   46.6730   32.7030   36.5920 C   0  0  0  0  0  0  0  0  0  0  0  0
   47.1940   32.5760   37.8510 C   0  0  0  0  0  0  0  0  0  0  0  0
   47.3890   32.5200   35.3750 N   0  0  0  0  0  0  0  0  0  0  0  0
   48.6530   32.8500   35.1610 N   0  0  0  0  0  0  0  0  0  0  0  0
   49.0330   32.5470   33.9070 C   0  0  0  0  0  0  0  0  0  0  0  0
   47.9260   31.9890   33.3010 C   0  0  0  0  0  0  0  0  0  0  0  0
   46.9120   31.9830   34.2370 C   0  0  0  0  0  0  0  0  0  0  0  0
   48.5520   32.2350   38.2480 N   0  0  0  0  0  0  0  0  0  0  0  0
   46.6792   34.7575   39.8577 H   0  0  0  0  0  0  0  0  0  0  0  0
   48.0291   36.3747   41.2356 H   0  0  0  0  0  0  0  0  0  0  0  0
   48.0134   32.1462   41.6860 H   0  0  0  0  0  0  0  0  0  0  0  0
   51.3236   34.4639   42.9876 H   0  0  0  0  0  0  0  0  0  0  0  0
   43.8143   34.7060   40.0546 H   0  0  0  0  0  0  0  0  0  0  0  0
   42.3975   35.7175   42.1487 H   0  0  0  0  0  0  0  0  0  0  0  0
   44.0383   35.8720   44.2545 H   0  0  0  0  0  0  0  0  0  0  0  0
   46.9676   32.0830   40.6173 H   0  0  0  0  0  0  0  0  0  0  0  0
   45.2245   32.5638   40.5554 H   0  0  0  0  0  0  0  0  0  0  0  0
   44.6203   33.2192   36.0012 H   0  0  0  0  0  0  0  0  0  0  0  0
   50.0232   32.7105   33.4568 H   0  0  0  0  0  0  0  0  0  0  0  0
   47.8636   31.6188   32.2670 H   0  0  0  0  0  0  0  0  0  0  0  0
   45.8910   31.6049   34.0801 H   0  0  0  0  0  0  0  0  0  0  0  0
   48.7973   32.1766   39.2467 H   0  0  0  0  0  0  0  0  0  0  0  0
   49.2678   32.0521   37.5303 H   0  0  0  0  0  0  0  0  0  0  0  0
  1  3  1  0
  1  8  1  0
  2  7  2  0
  3  2  1  0
  3  4  2  0
  4  5  1  0
  5  6  2  0
  7  6  1  0
  8 12  1  0
  9  8  2  0
  9 10  1  0
 10 11  2  0
 12 11  1  0
 13  1  1  0
 14 13  1  0
 15 14  1  0
 16 15  2  0
 17 16  1  0
 17 18  2  0
 18 24  1  0
 18 14  1  0
 19 17  1  0
 20 19  1  0
 21 20  2  0
 22 21  1  0
 22 23  2  0
 23 19  1  0
  1 25  1  6
  2 26  1  0
  4 27  1  0
  6 28  1  0
  9 29  1  0
 10 30  1  0
 11 31  1  0
 13 32  1  0
 13 33  1  0
 16 34  1  0
 21 35  1  0
 22 36  1  0
 23 37  1  0
 24 38  1  0
 24 39  1  0
M  ISO  8  25   8  26  14  27  14  28  14  29  14  30  14  31  14  32   8
M  ISO  5  33   8  34  14  35  14  36  14  37  14
M  END
>  <minimizedAffinity>  (1) 
-5.10847044

>  <minimizedRMSD>  (1) 
0.314083517

$$$$
