
     RDKit          3D

 37 40  0  0  1  0  0  0  0  0999 V2000
   46.5790   34.1390   40.7660 C   0  0  2  0  0  0  0  0  0  0  0  0
   48.5120   35.4430   41.5580 C   0  0  0  0  0  0  0  0  0  0  0  0
   47.8380   34.2700   41.3750 C   0  0  0  0  0  0  0  0  0  0  0  0
   48.5010   33.1270   41.8210 C   0  0  0  0  0  0  0  0  0  0  0  0
   49.7290   33.1700   42.3940 N   0  0  0  0  0  0  0  0  0  0  0  0
   50.3270   34.3980   42.5330 C   0  0  0  0  0  0  0  0  0  0  0  0
   49.7260   35.4990   42.1220 N   0  0  0  0  0  0  0  0  0  0  0  0
   45.4450   34.7090   41.6370 C   0  0  0  0  0  0  0  0  0  0  0  0
   44.1630   34.9040   41.0760 C   0  0  0  0  0  0  0  0  0  0  0  0
   43.4520   35.4200   42.1570 C   0  0  0  0  0  0  0  0  0  0  0  0
   44.3200   35.5040   43.2720 C   0  0  0  0  0  0  0  0  0  0  0  0
   45.4950   35.0670   42.9040 O   0  0  0  0  0  0  0  0  0  0  0  0
   46.2500   32.8180   40.2370 C   0  0  0  0  0  0  0  0  0  0  0  0
   46.2810   32.8060   38.7800 N   0  0  0  0  0  0  0  0  0  0  0  0
   45.1860   33.0640   38.0820 N   0  0  0  0  0  0  0  0  0  0  0  0
   45.3590   33.0150   36.7870 C   0  0  0  0  0  0  0  0  0  0  0  0
   46.6650   32.7020   36.6000 C   0  0  0  0  0  0  0  0  0  0  0  0
   47.1910   32.5840   37.8580 C   0  0  0  0  0  0  0  0  0  0  0  0
   47.3920   32.5210   35.3460 C   0  0  0  0  0  0  0  0  0  0  0  0
   46.9640   32.0530   34.1590 N   0  0  0  0  0  0  0  0  0  0  0  0
   47.9200   32.0450   33.2820 O   0  0  0  0  0  0  0  0  0  0  0  0
   48.9940   32.5030   33.8550 C   0  0  0  0  0  0  0  0  0  0  0  0
   48.6880   32.8020   35.1310 N   0  0  0  0  0  0  0  0  0  0  0  0
   48.5470   32.2620   38.2470 N   0  0  0  0  0  0  0  0  0  0  0  0
   46.6719   34.7627   39.8647 H   0  0  0  0  0  0  0  0  0  0  0  0
   48.0392   36.3802   41.2291 H   0  0  0  0  0  0  0  0  0  0  0  0
   48.0076   32.1510   41.7031 H   0  0  0  0  0  0  0  0  0  0  0  0
   51.3233   34.4655   42.9944 H   0  0  0  0  0  0  0  0  0  0  0  0
   43.8165   34.7011   40.0519 H   0  0  0  0  0  0  0  0  0  0  0  0
   42.3919   35.7135   42.1460 H   0  0  0  0  0  0  0  0  0  0  0  0
   44.0521   35.8727   44.2732 H   0  0  0  0  0  0  0  0  0  0  0  0
   46.9804   32.0884   40.6166 H   0  0  0  0  0  0  0  0  0  0  0  0
   45.2324   32.5577   40.5638 H   0  0  0  0  0  0  0  0  0  0  0  0
   44.6012   33.1914   36.0094 H   0  0  0  0  0  0  0  0  0  0  0  0
   49.9789   32.6245   33.3804 H   0  0  0  0  0  0  0  0  0  0  0  0
   48.7976   32.2083   39.2446 H   0  0  0  0  0  0  0  0  0  0  0  0
   49.2616   32.0865   37.5263 H   0  0  0  0  0  0  0  0  0  0  0  0
  1  3  1  0
  1  8  1  0
  2  7  2  0
  3  2  1  0
  3  4  2  0
  4  5  1  0
  5  6  2  0
  7  6  1  0
  8 12  1  0
  9  8  2  0
  9 10  1  0
 10 11  2  0
 12 11  1  0
 13  1  1  0
 14 13  1  0
 15 14  1  0
 16 15  2  0
 17 16  1  0
 17 18  2  0
 18 24  1  0
 18 14  1  0
 19 17  1  0
 20 19  2  0
 21 22  1  0
 21 20  1  0
 22 23  2  0
 23 19  1  0
  1 25  1  6
  2 26  1  0
  4 27  1  0
  6 28  1  0
  9 29  1  0
 10 30  1  0
 11 31  1  0
 13 32  1  0
 13 33  1  0
 16 34  1  0
 22 35  1  0
 24 36  1  0
 24 37  1  0
M  ISO  8  25   8  26  14  27  14  28  14  29  14  30  14  31  14  32   8
M  ISO  3  33   8  34  14  35  14
M  END
>  <minimizedAffinity>  (1) 
-5.05571461

>  <minimizedRMSD>  (1) 
0.391780704

$$$$
