
     RDKit          3D

 45 48  0  0  1  0  0  0  0  0999 V2000
   46.5740   34.1260   40.7530 C   0  0  2  0  0  0  0  0  0  0  0  0
   48.4960   35.4290   41.5650 C   0  0  0  0  0  0  0  0  0  0  0  0
   47.8340   34.2520   41.3610 C   0  0  0  0  0  0  0  0  0  0  0  0
   48.5080   33.1010   41.7760 C   0  0  0  0  0  0  0  0  0  0  0  0
   49.7380   33.1420   42.3450 N   0  0  0  0  0  0  0  0  0  0  0  0
   50.3260   34.3690   42.5100 C   0  0  0  0  0  0  0  0  0  0  0  0
   49.7140   35.4730   42.1280 N   0  0  0  0  0  0  0  0  0  0  0  0
   45.4390   34.6990   41.6230 C   0  0  0  0  0  0  0  0  0  0  0  0
   44.1620   34.9040   41.0700 C   0  0  0  0  0  0  0  0  0  0  0  0
   43.4560   35.4210   42.1510 C   0  0  0  0  0  0  0  0  0  0  0  0
   44.3260   35.4950   43.2670 C   0  0  0  0  0  0  0  0  0  0  0  0
   45.4890   35.0520   42.8890 O   0  0  0  0  0  0  0  0  0  0  0  0
   46.2360   32.8060   40.2240 C   0  0  0  0  0  0  0  0  0  0  0  0
   46.2670   32.7960   38.7670 N   0  0  0  0  0  0  0  0  0  0  0  0
   45.2070   33.1790   38.0670 N   0  0  0  0  0  0  0  0  0  0  0  0
   45.3870   33.1070   36.7680 C   0  0  0  0  0  0  0  0  0  0  0  0
   46.6420   32.6510   36.5750 C   0  0  0  0  0  0  0  0  0  0  0  0
   47.1410   32.4760   37.8420 C   0  0  0  0  0  0  0  0  0  0  0  0
   47.2990   32.4080   35.3400 N   0  0  0  0  0  0  0  0  0  0  0  0
   46.5620   31.7630   34.2650 C   0  0  0  0  0  0  0  0  0  0  0  0
   47.5810   30.7920   33.6510 C   0  0  0  0  0  0  0  0  0  0  0  0
   48.5260   30.3890   34.5730 O   0  0  0  0  0  0  0  0  0  0  0  0
   49.3830   31.3730   35.0060 C   0  0  0  0  0  0  0  0  0  0  0  0
   48.6680   32.7320   34.9930 C   0  0  0  0  0  0  0  0  0  0  0  0
   48.4560   32.0050   38.2310 N   0  0  0  0  0  0  0  0  0  0  0  0
   46.6745   34.7508   39.8533 H   0  0  0  0  0  0  0  0  0  0  0  0
   48.0163   36.3702   41.2585 H   0  0  0  0  0  0  0  0  0  0  0  0
   48.0223   32.1240   41.6358 H   0  0  0  0  0  0  0  0  0  0  0  0
   51.3239   34.4340   42.9682 H   0  0  0  0  0  0  0  0  0  0  0  0
   43.8119   34.7063   40.0461 H   0  0  0  0  0  0  0  0  0  0  0  0
   42.3981   35.7224   42.1413 H   0  0  0  0  0  0  0  0  0  0  0  0
   44.0651   35.8608   44.2710 H   0  0  0  0  0  0  0  0  0  0  0  0
   46.9618   32.0714   40.6030 H   0  0  0  0  0  0  0  0  0  0  0  0
   45.2173   32.5510   40.5515 H   0  0  0  0  0  0  0  0  0  0  0  0
   44.6561   33.3679   35.9884 H   0  0  0  0  0  0  0  0  0  0  0  0
   45.6909   31.2190   34.6589 H   0  0  0  0  0  0  0  0  0  0  0  0
   46.1645   32.4808   33.5323 H   0  0  0  0  0  0  0  0  0  0  0  0
   47.0475   29.9055   33.2774 H   0  0  0  0  0  0  0  0  0  0  0  0
   48.1013   31.3141   32.8345 H   0  0  0  0  0  0  0  0  0  0  0  0
   49.7131   31.1444   36.0301 H   0  0  0  0  0  0  0  0  0  0  0  0
   50.2538   31.4156   34.3353 H   0  0  0  0  0  0  0  0  0  0  0  0
   49.1092   33.4136   35.7352 H   0  0  0  0  0  0  0  0  0  0  0  0
   48.7501   33.2456   34.0238 H   0  0  0  0  0  0  0  0  0  0  0  0
   48.6987   31.9211   39.2285 H   0  0  0  0  0  0  0  0  0  0  0  0
   49.1474   31.7543   37.5099 H   0  0  0  0  0  0  0  0  0  0  0  0
  1  3  1  0
  1  8  1  0
  2  7  2  0
  3  2  1  0
  3  4  2  0
  4  5  1  0
  5  6  2  0
  7  6  1  0
  8 12  1  0
  9  8  2  0
  9 10  1  0
 10 11  2  0
 12 11  1  0
 13  1  1  0
 14 13  1  0
 15 14  1  0
 16 15  2  0
 17 16  1  0
 17 18  2  0
 18 25  1  0
 18 14  1  0
 19 17  1  0
 20 19  1  0
 21 20  1  0
 21 22  1  0
 22 23  1  0
 24 23  1  0
 24 19  1  0
  1 26  1  6
  2 27  1  0
  4 28  1  0
  6 29  1  0
  9 30  1  0
 10 31  1  0
 11 32  1  0
 13 33  1  0
 13 34  1  0
 16 35  1  0
 20 36  1  0
 20 37  1  0
 21 38  1  0
 21 39  1  0
 23 40  1  0
 23 41  1  0
 24 42  1  0
 24 43  1  0
 25 44  1  0
 25 45  1  0
M  ISO  8  26   8  27  14  28  14  29  14  30  14  31  14  32  14  33   8
M  ISO  8  34   8  35  14  36  13  37  13  38  13  39  13  40  13  41  13
M  ISO  2  42  13  43  13
M  END
>  <minimizedAffinity>  (1) 
-5.03709316

>  <minimizedRMSD>  (1) 
0.395737529

$$$$
