
     RDKit          3D

 39 42  0  0  1  0  0  0  0  0999 V2000
   46.6570   34.2060   40.6240 C   0  0  2  0  0  0  0  0  0  0  0  0
   48.5790   35.5270   41.3970 C   0  0  0  0  0  0  0  0  0  0  0  0
   47.8580   34.3700   41.3340 C   0  0  0  0  0  0  0  0  0  0  0  0
   48.4070   33.2780   42.0110 C   0  0  0  0  0  0  0  0  0  0  0  0
   49.5780   33.3540   42.6900 N   0  0  0  0  0  0  0  0  0  0  0  0
   50.2340   34.5590   42.7000 C   0  0  0  0  0  0  0  0  0  0  0  0
   49.7390   35.6050   42.0700 N   0  0  0  0  0  0  0  0  0  0  0  0
   45.4300   34.6810   41.4240 C   0  0  0  0  0  0  0  0  0  0  0  0
   44.1540   34.6700   40.8350 C   0  0  0  0  0  0  0  0  0  0  0  0
   43.3490   35.1570   41.8510 C   0  0  0  0  0  0  0  0  0  0  0  0
   44.1630   35.4300   42.9760 C   0  0  0  0  0  0  0  0  0  0  0  0
   45.4000   35.1290   42.6730 O   0  0  0  0  0  0  0  0  0  0  0  0
   46.4290   32.8900   40.0260 C   0  0  0  0  0  0  0  0  0  0  0  0
   46.7470   32.8880   38.6060 N   0  0  0  0  0  0  0  0  0  0  0  0
   45.7740   32.9170   37.7030 N   0  0  0  0  0  0  0  0  0  0  0  0
   46.2200   32.9030   36.4730 C   0  0  0  0  0  0  0  0  0  0  0  0
   47.5720   32.8620   36.5320 C   0  0  0  0  0  0  0  0  0  0  0  0
   47.8430   32.8550   37.8840 C   0  0  0  0  0  0  0  0  0  0  0  0
   49.1320   32.8270   38.5380 N   0  0  0  0  0  0  0  0  0  0  0  0
   48.5340   32.8290   35.4040 C   0  0  0  0  0  0  0  0  0  0  0  0
   48.1460   32.3220   34.0600 C   0  0  0  0  0  0  0  0  0  0  0  0
   49.0630   31.4930   34.9020 C   0  0  0  0  0  0  0  0  0  0  0  0
   46.7941   34.8715   39.7589 H   0  0  0  0  0  0  0  0  0  0  0  0
   48.1993   36.4216   40.8818 H   0  0  0  0  0  0  0  0  0  0  0  0
   47.8681   32.3192   41.9924 H   0  0  0  0  0  0  0  0  0  0  0  0
   51.1867   34.6532   43.2417 H   0  0  0  0  0  0  0  0  0  0  0  0
   43.8668   34.3539   39.8213 H   0  0  0  0  0  0  0  0  0  0  0  0
   42.2607   35.3064   41.7934 H   0  0  0  0  0  0  0  0  0  0  0  0
   43.8152   35.8275   43.9409 H   0  0  0  0  0  0  0  0  0  0  0  0
   47.0643   32.1507   40.5357 H   0  0  0  0  0  0  0  0  0  0  0  0
   45.3647   32.6375   40.1420 H   0  0  0  0  0  0  0  0  0  0  0  0
   45.6086   32.9212   35.5587 H   0  0  0  0  0  0  0  0  0  0  0  0
   49.1877   32.8249   39.5665 H   0  0  0  0  0  0  0  0  0  0  0  0
   49.9946   32.8092   37.9755 H   0  0  0  0  0  0  0  0  0  0  0  0
   48.9744   33.7665   35.7742 H   0  0  0  0  0  0  0  0  0  0  0  0
   48.5321   32.8174   33.1569 H   0  0  0  0  0  0  0  0  0  0  0  0
   47.1867   32.1365   33.5547 H   0  0  0  0  0  0  0  0  0  0  0  0
   48.7049   30.5538   35.3488 H   0  0  0  0  0  0  0  0  0  0  0  0
   50.0588   31.0454   34.7680 H   0  0  0  0  0  0  0  0  0  0  0  0
  1  3  1  0
  1  8  1  0
  2  7  2  0
  3  2  1  0
  3  4  2  0
  4  5  1  0
  5  6  2  0
  7  6  1  0
  8 12  1  0
  9  8  2  0
  9 10  1  0
 10 11  2  0
 12 11  1  0
 13  1  1  0
 14 13  1  0
 15 14  1  0
 16 17  1  0
 16 15  2  0
 17 18  2  0
 18 19  1  0
 18 14  1  0
 20 17  1  0
 21 22  1  0
 21 20  1  0
 22 20  1  0
  1 23  1  6
  2 24  1  0
  4 25  1  0
  6 26  1  0
  9 27  1  0
 10 28  1  0
 11 29  1  0
 13 30  1  0
 13 31  1  0
 16 32  1  0
 19 33  1  0
 19 34  1  0
 20 35  1  0
 21 36  1  0
 21 37  1  0
 22 38  1  0
 22 39  1  0
M  ISO  8  23   8  24  14  25  14  26  14  27  14  28  14  29  14  30   8
M  ISO  7  31   8  32  14  35  13  36  13  37  13  38  13  39  13
M  END
>  <minimizedAffinity>  (1) 
-4.72403479

>  <minimizedRMSD>  (1) 
0.460828424

$$$$
