
     RDKit          3D

 44 47  0  0  1  0  0  0  0  0999 V2000
   46.5830   34.0490   40.6160 C   0  0  2  0  0  0  0  0  0  0  0  0
   48.4660   35.3930   41.4580 C   0  0  0  0  0  0  0  0  0  0  0  0
   47.8170   34.2050   41.2740 C   0  0  0  0  0  0  0  0  0  0  0  0
   48.4750   33.0850   41.7610 C   0  0  0  0  0  0  0  0  0  0  0  0
   49.6810   33.1540   42.3770 N   0  0  0  0  0  0  0  0  0  0  0  0
   50.2570   34.3930   42.5160 C   0  0  0  0  0  0  0  0  0  0  0  0
   49.6570   35.4780   42.0650 N   0  0  0  0  0  0  0  0  0  0  0  0
   45.4090   34.6360   41.4210 C   0  0  0  0  0  0  0  0  0  0  0  0
   44.1420   34.7710   40.8170 C   0  0  0  0  0  0  0  0  0  0  0  0
   43.3900   35.3260   41.8490 C   0  0  0  0  0  0  0  0  0  0  0  0
   44.2250   35.4890   42.9820 C   0  0  0  0  0  0  0  0  0  0  0  0
   45.4160   35.0610   42.6670 O   0  0  0  0  0  0  0  0  0  0  0  0
   46.2840   32.7170   40.1030 C   0  0  0  0  0  0  0  0  0  0  0  0
   46.4370   32.6610   38.6530 N   0  0  0  0  0  0  0  0  0  0  0  0
   45.4650   33.0740   37.8530 N   0  0  0  0  0  0  0  0  0  0  0  0
   45.7360   32.9660   36.5840 C   0  0  0  0  0  0  0  0  0  0  0  0
   46.9840   32.4410   36.5190 C   0  0  0  0  0  0  0  0  0  0  0  0
   47.3780   32.2690   37.8180 C   0  0  0  0  0  0  0  0  0  0  0  0
   47.7600   32.1210   35.3590 N   0  0  0  0  0  0  0  0  0  0  0  0
   48.7430   32.8030   34.5690 C   0  0  0  0  0  0  0  0  0  0  0  0
   48.5200   32.4740   33.1220 C   0  0  0  0  0  0  0  0  0  0  0  0
   47.6350   31.2650   33.1650 C   0  0  0  0  0  0  0  0  0  0  0  0
   47.7360   30.8730   34.6110 C   0  0  0  0  0  0  0  0  0  0  0  0
   48.6170   31.7400   38.3250 N   0  0  0  0  0  0  0  0  0  0  0  0
   46.7123   34.6505   39.7041 H   0  0  0  0  0  0  0  0  0  0  0  0
   47.9918   36.3161   41.0933 H   0  0  0  0  0  0  0  0  0  0  0  0
   47.9988   32.1005   41.6426 H   0  0  0  0  0  0  0  0  0  0  0  0
   51.2349   34.4822   43.0116 H   0  0  0  0  0  0  0  0  0  0  0  0
   43.8291   34.5066   39.7961 H   0  0  0  0  0  0  0  0  0  0  0  0
   42.3245   35.5935   41.7939 H   0  0  0  0  0  0  0  0  0  0  0  0
   43.9223   35.9032   43.9550 H   0  0  0  0  0  0  0  0  0  0  0  0
   46.9715   31.9927   40.5642 H   0  0  0  0  0  0  0  0  0  0  0  0
   45.2401   32.4753   40.3517 H   0  0  0  0  0  0  0  0  0  0  0  0
   45.0871   33.2432   35.7402 H   0  0  0  0  0  0  0  0  0  0  0  0
   48.6487   33.8886   34.7193 H   0  0  0  0  0  0  0  0  0  0  0  0
   49.7509   32.4831   34.8721 H   0  0  0  0  0  0  0  0  0  0  0  0
   49.4720   32.2457   32.6204 H   0  0  0  0  0  0  0  0  0  0  0  0
   48.0756   33.3078   32.5587 H   0  0  0  0  0  0  0  0  0  0  0  0
   46.6002   31.5142   32.8873 H   0  0  0  0  0  0  0  0  0  0  0  0
   47.9265   30.4700   32.4629 H   0  0  0  0  0  0  0  0  0  0  0  0
   46.8666   30.2667   34.9052 H   0  0  0  0  0  0  0  0  0  0  0  0
   48.6336   30.2674   34.8047 H   0  0  0  0  0  0  0  0  0  0  0  0
   48.7702   31.6714   39.3412 H   0  0  0  0  0  0  0  0  0  0  0  0
   49.3504   31.4300   37.6716 H   0  0  0  0  0  0  0  0  0  0  0  0
  1  3  1  0
  1  8  1  0
  2  7  2  0
  3  2  1  0
  3  4  2  0
  4  5  1  0
  5  6  2  0
  7  6  1  0
  8 12  1  0
  9  8  2  0
  9 10  1  0
 10 11  2  0
 12 11  1  0
 13  1  1  0
 14 13  1  0
 15 14  1  0
 16 15  2  0
 17 16  1  0
 17 18  2  0
 18 24  1  0
 18 14  1  0
 19 17  1  0
 20 19  1  0
 21 22  1  0
 21 20  1  0
 22 23  1  0
 23 19  1  0
  1 25  1  6
  2 26  1  0
  4 27  1  0
  6 28  1  0
  9 29  1  0
 10 30  1  0
 11 31  1  0
 13 32  1  0
 13 33  1  0
 16 34  1  0
 20 35  1  0
 20 36  1  0
 21 37  1  0
 21 38  1  0
 22 39  1  0
 22 40  1  0
 23 41  1  0
 23 42  1  0
 24 43  1  0
 24 44  1  0
M  ISO  8  25   8  26  14  27  14  28  14  29  14  30  14  31  14  32   8
M  ISO  8  33   8  34  14  35  13  36  13  37  13  38  13  39  13  40  13
M  ISO  2  41  13  42  13
M  END
>  <minimizedAffinity>  (1) 
-4.97984982

>  <minimizedRMSD>  (1) 
0.517219961

$$$$
