
     RDKit          3D

 41 43  0  0  1  0  0  0  0  0999 V2000
   46.7270   34.2600   40.5290 C   0  0  2  0  0  0  0  0  0  0  0  0
   48.6710   35.4300   41.4910 C   0  0  0  0  0  0  0  0  0  0  0  0
   47.9280   34.3080   41.2600 C   0  0  0  0  0  0  0  0  0  0  0  0
   48.4530   33.1270   41.7810 C   0  0  0  0  0  0  0  0  0  0  0  0
   49.6190   33.0840   42.4700 N   0  0  0  0  0  0  0  0  0  0  0  0
   50.2960   34.2660   42.6520 C   0  0  0  0  0  0  0  0  0  0  0  0
   49.8270   35.4000   42.1720 N   0  0  0  0  0  0  0  0  0  0  0  0
   45.5150   34.6950   41.3720 C   0  0  0  0  0  0  0  0  0  0  0  0
   44.2230   34.6710   40.8000 C   0  0  0  0  0  0  0  0  0  0  0  0
   43.4350   35.1290   41.8580 C   0  0  0  0  0  0  0  0  0  0  0  0
   44.2750   35.3920   42.9680 C   0  0  0  0  0  0  0  0  0  0  0  0
   45.4980   35.1150   42.6150 O   0  0  0  0  0  0  0  0  0  0  0  0
   46.4670   33.0300   39.7880 C   0  0  0  0  0  0  0  0  0  0  0  0
   47.1870   33.0130   38.5210 N   0  0  0  0  0  0  0  0  0  0  0  0
   47.7610   34.1200   38.0660 N   0  0  0  0  0  0  0  0  0  0  0  0
   48.3690   33.9560   36.9130 C   0  0  0  0  0  0  0  0  0  0  0  0
   48.1930   32.6520   36.5690 C   0  0  0  0  0  0  0  0  0  0  0  0
   47.4590   32.1190   37.5960 C   0  0  0  0  0  0  0  0  0  0  0  0
   46.9860   30.7540   37.7490 N   0  0  0  0  0  0  0  0  0  0  0  0
   48.6720   31.9300   35.3650 C   0  0  0  0  0  0  0  0  0  0  0  0
   49.9400   31.1670   35.6130 C   0  0  0  0  0  0  0  0  0  0  0  0
   48.7330   32.8010   34.1370 C   0  0  0  0  0  0  0  0  0  0  0  0
   46.8856   35.0056   39.7360 H   0  0  0  0  0  0  0  0  0  0  0  0
   48.3087   36.3941   41.1047 H   0  0  0  0  0  0  0  0  0  0  0  0
   47.8975   32.1902   41.6264 H   0  0  0  0  0  0  0  0  0  0  0  0
   51.2453   34.2654   43.2077 H   0  0  0  0  0  0  0  0  0  0  0  0
   43.9180   34.3703   39.7868 H   0  0  0  0  0  0  0  0  0  0  0  0
   42.3435   35.2632   41.8336 H   0  0  0  0  0  0  0  0  0  0  0  0
   43.9523   35.7636   43.9518 H   0  0  0  0  0  0  0  0  0  0  0  0
   46.7894   32.1711   40.3949 H   0  0  0  0  0  0  0  0  0  0  0  0
   45.3892   32.9738   39.5757 H   0  0  0  0  0  0  0  0  0  0  0  0
   48.9125   34.7214   36.3396 H   0  0  0  0  0  0  0  0  0  0  0  0
   46.4388   30.4887   38.5803 H   0  0  0  0  0  0  0  0  0  0  0  0
   47.1978   30.0515   37.0261 H   0  0  0  0  0  0  0  0  0  0  0  0
   47.9057   31.1723   35.1444 H   0  0  0  0  0  0  0  0  0  0  0  0
   50.1030   31.0689   36.6964 H   0  0  0  0  0  0  0  0  0  0  0  0
   49.8602   30.1668   35.1622 H   0  0  0  0  0  0  0  0  0  0  0  0
   50.7864   31.7059   35.1622 H   0  0  0  0  0  0  0  0  0  0  0  0
   48.8069   33.8561   34.4391 H   0  0  0  0  0  0  0  0  0  0  0  0
   49.6143   32.5286   33.5377 H   0  0  0  0  0  0  0  0  0  0  0  0
   47.8224   32.6541   33.5377 H   0  0  0  0  0  0  0  0  0  0  0  0
  1  3  1  0
  1  8  1  0
  2  7  2  0
  3  2  1  0
  3  4  2  0
  4  5  1  0
  5  6  2  0
  7  6  1  0
  8 12  1  0
  9  8  2  0
  9 10  1  0
 10 11  2  0
 12 11  1  0
 13  1  1  0
 14 13  1  0
 15 14  1  0
 16 15  2  0
 17 16  1  0
 17 18  2  0
 18 19  1  0
 18 14  1  0
 20 21  1  0
 20 17  1  0
 22 20  1  0
  1 23  1  6
  2 24  1  0
  4 25  1  0
  6 26  1  0
  9 27  1  0
 10 28  1  0
 11 29  1  0
 13 30  1  0
 13 31  1  0
 16 32  1  0
 19 33  1  0
 19 34  1  0
 20 35  1  0
 21 36  1  0
 21 37  1  0
 21 38  1  0
 22 39  1  0
 22 40  1  0
 22 41  1  0
M  ISO  8  23   8  24  14  25  14  26  14  27  14  28  14  29  14  30   8
M  ISO  8  31   8  32  14  35   8  36   8  37   8  38   8  39   8  40   8
M  ISO  1  41   8
M  END
>  <minimizedAffinity>  (1) 
-4.65770245

>  <minimizedRMSD>  (1) 
1.28918779

$$$$
