
     RDKit          3D

 45 48  0  0  1  0  0  0  0  0999 V2000
   46.6040   34.0280   40.5290 C   0  0  2  0  0  0  0  0  0  0  0  0
   48.4700   35.3650   41.4000 C   0  0  0  0  0  0  0  0  0  0  0  0
   47.8210   34.1810   41.2160 C   0  0  0  0  0  0  0  0  0  0  0  0
   48.4640   33.0620   41.7340 C   0  0  0  0  0  0  0  0  0  0  0  0
   49.6540   33.1320   42.3770 N   0  0  0  0  0  0  0  0  0  0  0  0
   50.2360   34.3690   42.5150 C   0  0  0  0  0  0  0  0  0  0  0  0
   49.6480   35.4480   42.0350 N   0  0  0  0  0  0  0  0  0  0  0  0
   45.4120   34.6210   41.3040 C   0  0  0  0  0  0  0  0  0  0  0  0
   44.1390   34.6790   40.7050 C   0  0  0  0  0  0  0  0  0  0  0  0
   43.3700   35.2630   41.7020 C   0  0  0  0  0  0  0  0  0  0  0  0
   44.1990   35.5190   42.8190 C   0  0  0  0  0  0  0  0  0  0  0  0
   45.4100   35.1180   42.5330 O   0  0  0  0  0  0  0  0  0  0  0  0
   46.3090   32.6860   40.0300 C   0  0  0  0  0  0  0  0  0  0  0  0
   46.5650   32.5740   38.6060 N   0  0  0  0  0  0  0  0  0  0  0  0
   45.7200   33.1090   37.7400 N   0  0  0  0  0  0  0  0  0  0  0  0
   46.0800   32.9160   36.4950 C   0  0  0  0  0  0  0  0  0  0  0  0
   47.2390   32.2080   36.5090 C   0  0  0  0  0  0  0  0  0  0  0  0
   47.4950   32.0230   37.8560 C   0  0  0  0  0  0  0  0  0  0  0  0
   48.1220   31.6920   35.4290 C   0  0  0  0  0  0  0  0  0  0  0  0
   47.3770   30.7780   34.4780 C   0  0  0  0  0  0  0  0  0  0  0  0
   47.9280   31.0410   33.0880 C   0  0  0  0  0  0  0  0  0  0  0  0
   48.1000   32.5630   33.1700 C   0  0  0  0  0  0  0  0  0  0  0  0
   48.6860   32.7580   34.5500 C   0  0  0  0  0  0  0  0  0  0  0  0
   48.6150   31.3400   38.4790 N   0  0  0  0  0  0  0  0  0  0  0  0
   46.7582   34.6230   39.6168 H   0  0  0  0  0  0  0  0  0  0  0  0
   48.0105   36.2866   41.0133 H   0  0  0  0  0  0  0  0  0  0  0  0
   47.9859   32.0783   41.6165 H   0  0  0  0  0  0  0  0  0  0  0  0
   51.2029   34.4606   43.0314 H   0  0  0  0  0  0  0  0  0  0  0  0
   43.8322   34.3463   39.7024 H   0  0  0  0  0  0  0  0  0  0  0  0
   42.2956   35.4889   41.6347 H   0  0  0  0  0  0  0  0  0  0  0  0
   43.8794   35.9772   43.7665 H   0  0  0  0  0  0  0  0  0  0  0  0
   46.9405   31.9605   40.5638 H   0  0  0  0  0  0  0  0  0  0  0  0
   45.2419   32.4828   40.2033 H   0  0  0  0  0  0  0  0  0  0  0  0
   45.5416   33.2640   35.6012 H   0  0  0  0  0  0  0  0  0  0  0  0
   48.9201   31.1755   35.9825 H   0  0  0  0  0  0  0  0  0  0  0  0
   47.5417   29.7269   34.7572 H   0  0  0  0  0  0  0  0  0  0  0  0
   46.2947   30.9709   34.5146 H   0  0  0  0  0  0  0  0  0  0  0  0
   47.2156   30.7500   32.3020 H   0  0  0  0  0  0  0  0  0  0  0  0
   48.8380   30.4794   32.8302 H   0  0  0  0  0  0  0  0  0  0  0  0
   48.7875   32.9269   32.3922 H   0  0  0  0  0  0  0  0  0  0  0  0
   47.1630   33.1171   33.0116 H   0  0  0  0  0  0  0  0  0  0  0  0
   49.7818   32.6708   34.5089 H   0  0  0  0  0  0  0  0  0  0  0  0
   48.4366   33.7557   34.9405 H   0  0  0  0  0  0  0  0  0  0  0  0
   48.6750   31.2796   39.5055 H   0  0  0  0  0  0  0  0  0  0  0  0
   49.3494   30.9160   37.8944 H   0  0  0  0  0  0  0  0  0  0  0  0
  1  3  1  0
  1  8  1  0
  2  7  2  0
  3  2  1  0
  3  4  2  0
  4  5  1  0
  5  6  2  0
  7  6  1  0
  8 12  1  0
  9  8  2  0
  9 10  1  0
 10 11  2  0
 12 11  1  0
 13  1  1  0
 14 13  1  0
 15 14  1  0
 16 17  1  0
 16 15  2  0
 17 18  2  0
 18 24  1  0
 18 14  1  0
 19 17  1  0
 20 19  1  0
 21 22  1  0
 21 20  1  0
 22 23  1  0
 23 19  1  0
  1 25  1  6
  2 26  1  0
  4 27  1  0
  6 28  1  0
  9 29  1  0
 10 30  1  0
 11 31  1  0
 13 32  1  0
 13 33  1  0
 16 34  1  0
 19 35  1  0
 20 36  1  0
 20 37  1  0
 21 38  1  0
 21 39  1  0
 22 40  1  0
 22 41  1  0
 23 42  1  0
 23 43  1  0
 24 44  1  0
 24 45  1  0
M  ISO  8  25   8  26  14  27  14  28  14  29  14  30  14  31  14  32   8
M  ISO  8  33   8  34  14  35  13  36  13  37  13  38  13  39  13  40  13
M  ISO  3  41  13  42  13  43  13
M  END
>  <minimizedAffinity>  (1) 
-4.91639566

>  <minimizedRMSD>  (1) 
0.712500334

$$$$
