
     RDKit          3D

 44 46  0  0  1  0  0  0  0  0999 V2000
   46.5190   34.0860   40.8320 C   0  0  2  0  0  0  0  0  0  0  0  0
   48.4700   35.4090   41.5380 C   0  0  0  0  0  0  0  0  0  0  0  0
   47.7870   34.2330   41.4200 C   0  0  0  0  0  0  0  0  0  0  0  0
   48.4480   33.1050   41.9060 C   0  0  0  0  0  0  0  0  0  0  0  0
   49.6840   33.1630   42.4590 N   0  0  0  0  0  0  0  0  0  0  0  0
   50.2920   34.3920   42.5340 C   0  0  0  0  0  0  0  0  0  0  0  0
   49.6930   35.4770   42.0850 N   0  0  0  0  0  0  0  0  0  0  0  0
   45.3990   34.7110   41.6840 C   0  0  0  0  0  0  0  0  0  0  0  0
   44.1300   34.9400   41.1180 C   0  0  0  0  0  0  0  0  0  0  0  0
   43.4370   35.5020   42.1890 C   0  0  0  0  0  0  0  0  0  0  0  0
   44.3020   35.5770   43.3050 C   0  0  0  0  0  0  0  0  0  0  0  0
   45.4560   35.0900   42.9420 O   0  0  0  0  0  0  0  0  0  0  0  0
   46.1640   32.7430   40.3760 C   0  0  0  0  0  0  0  0  0  0  0  0
   46.2220   32.6420   38.9240 N   0  0  0  0  0  0  0  0  0  0  0  0
   45.1910   33.0280   38.1810 N   0  0  0  0  0  0  0  0  0  0  0  0
   45.3880   32.8700   36.8970 C   0  0  0  0  0  0  0  0  0  0  0  0
   46.6290   32.3450   36.7520 C   0  0  0  0  0  0  0  0  0  0  0  0
   47.1010   32.2260   38.0450 C   0  0  0  0  0  0  0  0  0  0  0  0
   47.3570   31.9700   35.5260 C   0  0  0  0  0  0  0  0  0  0  0  0
   48.6210   32.8030   35.3890 C   0  0  0  0  0  0  0  0  0  0  0  0
   47.8070   30.5240   35.7260 C   0  0  0  0  0  0  0  0  0  0  0  0
   46.5630   32.0740   34.2720 C   0  0  0  0  0  0  0  0  0  0  0  0
   48.3880   31.7230   38.4920 N   0  0  0  0  0  0  0  0  0  0  0  0
   46.6150   34.6624   39.9000 H   0  0  0  0  0  0  0  0  0  0  0  0
   48.0008   36.3339   41.1715 H   0  0  0  0  0  0  0  0  0  0  0  0
   47.9458   32.1287   41.8377 H   0  0  0  0  0  0  0  0  0  0  0  0
   51.2960   34.4724   42.9763 H   0  0  0  0  0  0  0  0  0  0  0  0
   43.7776   34.7302   40.0973 H   0  0  0  0  0  0  0  0  0  0  0  0
   42.3882   35.8331   42.1692 H   0  0  0  0  0  0  0  0  0  0  0  0
   44.0477   35.9740   44.2988 H   0  0  0  0  0  0  0  0  0  0  0  0
   46.8672   32.0190   40.8135 H   0  0  0  0  0  0  0  0  0  0  0  0
   45.1338   32.5295   40.6970 H   0  0  0  0  0  0  0  0  0  0  0  0
   44.6819   33.1161   36.0902 H   0  0  0  0  0  0  0  0  0  0  0  0
   49.0040   33.0554   36.3888 H   0  0  0  0  0  0  0  0  0  0  0  0
   49.3811   32.2283   34.8395 H   0  0  0  0  0  0  0  0  0  0  0  0
   48.3927   33.7282   34.8395 H   0  0  0  0  0  0  0  0  0  0  0  0
   47.8747   30.3066   36.8022 H   0  0  0  0  0  0  0  0  0  0  0  0
   47.0776   29.8452   35.2599 H   0  0  0  0  0  0  0  0  0  0  0  0
   48.7928   30.3790   35.2599 H   0  0  0  0  0  0  0  0  0  0  0  0
   45.5007   32.2131   34.5211 H   0  0  0  0  0  0  0  0  0  0  0  0
   46.9173   32.9334   33.6839 H   0  0  0  0  0  0  0  0  0  0  0  0
   46.6840   31.1523   33.6839 H   0  0  0  0  0  0  0  0  0  0  0  0
   48.6074   31.6912   39.4979 H   0  0  0  0  0  0  0  0  0  0  0  0
   49.0814   31.3981   37.8032 H   0  0  0  0  0  0  0  0  0  0  0  0
  1  3  1  0
  1  8  1  0
  2  7  2  0
  3  2  1  0
  3  4  2  0
  4  5  1  0
  5  6  2  0
  7  6  1  0
  8 12  1  0
  9  8  2  0
  9 10  1  0
 10 11  2  0
 12 11  1  0
 13  1  1  0
 14 13  1  0
 15 14  1  0
 16 15  2  0
 17 16  1  0
 17 18  2  0
 18 23  1  0
 18 14  1  0
 19 21  1  0
 19 17  1  0
 20 19  1  0
 22 19  1  0
  1 24  1  6
  2 25  1  0
  4 26  1  0
  6 27  1  0
  9 28  1  0
 10 29  1  0
 11 30  1  0
 13 31  1  0
 13 32  1  0
 16 33  1  0
 20 34  1  0
 20 35  1  0
 20 36  1  0
 21 37  1  0
 21 38  1  0
 21 39  1  0
 22 40  1  0
 22 41  1  0
 22 42  1  0
 23 43  1  0
 23 44  1  0
M  ISO  8  24   8  25  14  26  14  27  14  28  14  29  14  30  14  31   8
M  ISO  8  32   8  33  14  34   8  35   8  36   8  37   8  38   8  39   8
M  ISO  3  40   8  41   8  42   8
M  END
>  <minimizedAffinity>  (1) 
-4.61733389

>  <minimizedRMSD>  (1) 
0.573560834

$$$$
