
     RDKit          3D

 35 38  0  0  0  0  0  0  0  0999 V2000
   47.2330   34.4270   40.6240 C   0  0  0  0  0  0  0  0  0  0  0  0
   47.9140   34.0700   39.4800 C   0  0  0  0  0  0  0  0  0  0  0  0
   47.1760   33.3740   38.5600 C   0  0  0  0  0  0  0  0  0  0  0  0
   45.9160   33.0320   38.6800 N   0  0  0  0  0  0  0  0  0  0  0  0
   45.2480   33.3780   39.8010 C   0  0  0  0  0  0  0  0  0  0  0  0
   45.9400   34.0650   40.7310 N   0  0  0  0  0  0  0  0  0  0  0  0
   43.8640   33.1620   40.2580 C   0  0  0  0  0  0  0  0  0  0  0  0
   43.4940   32.2860   41.2090 N   0  0  0  0  0  0  0  0  0  0  0  0
   42.2330   32.1040   41.6100 C   0  0  0  0  0  0  0  0  0  0  0  0
   41.2020   32.7900   41.0900 N   0  0  0  0  0  0  0  0  0  0  0  0
   41.4800   33.6900   40.1310 C   0  0  0  0  0  0  0  0  0  0  0  0
   40.4180   34.3890   39.6030 C   0  0  0  0  0  0  0  0  0  0  0  0
   40.6280   35.3220   38.6200 C   0  0  0  0  0  0  0  0  0  0  0  0
   41.9470   35.5120   38.2020 C   0  0  0  0  0  0  0  0  0  0  0  0
   42.9570   34.7930   38.7590 C   0  0  0  0  0  0  0  0  0  0  0  0
   42.7890   33.8500   39.7430 C   0  0  0  0  0  0  0  0  0  0  0  0
   47.8560   35.1540   41.6710 O   0  0  0  0  0  0  0  0  0  0  0  0
   48.6020   34.4410   42.6220 C   0  0  0  0  0  0  0  0  0  0  0  0
   49.8200   34.6530   42.7410 O   0  0  0  0  0  0  0  0  0  0  0  0
   46.7360   33.8500   44.2310 C   0  0  0  0  0  0  0  0  0  0  0  0
   47.8280   33.4750   43.4110 C   0  0  0  0  0  0  0  0  0  0  0  0
   48.2270   32.1320   43.3150 C   0  0  0  0  0  0  0  0  0  0  0  0
   47.5100   31.2090   44.0540 N   0  0  0  0  0  0  0  0  0  0  0  0
   46.4680   31.6080   44.8310 C   0  0  0  0  0  0  0  0  0  0  0  0
   46.0900   32.8980   44.9180 N   0  0  0  0  0  0  0  0  0  0  0  0
   48.9717   34.3252   39.3180 H   0  0  0  0  0  0  0  0  0  0  0  0
   47.6882   33.0739   37.6339 H   0  0  0  0  0  0  0  0  0  0  0  0
   42.0309   31.3629   42.3973 H   0  0  0  0  0  0  0  0  0  0  0  0
   39.3988   34.1988   39.9704 H   0  0  0  0  0  0  0  0  0  0  0  0
   39.7968   35.8937   38.1815 H   0  0  0  0  0  0  0  0  0  0  0  0
   42.1700   36.2489   37.4163 H   0  0  0  0  0  0  0  0  0  0  0  0
   43.9788   34.9792   38.3968 H   0  0  0  0  0  0  0  0  0  0  0  0
   46.4241   34.9024   44.3026 H   0  0  0  0  0  0  0  0  0  0  0  0
   49.0723   31.8278   42.6802 H   0  0  0  0  0  0  0  0  0  0  0  0
   45.9151   30.8520   45.4079 H   0  0  0  0  0  0  0  0  0  0  0  0
  1  6  1  0
  1 17  1  0
  2  1  2  0
  3  4  2  0
  3  2  1  0
  4  5  1  0
  5  7  1  0
  5  6  2  0
  7  8  2  0
  8  9  1  0
 10  9  2  0
 11 10  1  0
 12 11  2  0
 13 12  1  0
 14 13  2  0
 14 15  1  0
 15 16  2  0
 16 11  1  0
 16  7  1  0
 17 18  1  0
 18 19  2  0
 18 21  1  0
 20 25  2  0
 21 20  1  0
 22 21  2  0
 22 23  1  0
 23 24  2  0
 24 25  1  0
  2 26  1  0
  3 27  1  0
  9 28  1  0
 12 29  1  0
 13 30  1  0
 14 31  1  0
 15 32  1  0
 20 33  1  0
 22 34  1  0
 24 35  1  0
M  ISO  8  26  14  27  14  28  14  29  14  30  14  31  14  32  14  33  14
M  ISO  2  34  14  35  14
M  END
>  <minimizedAffinity>  (1) 
-5.43470144

>  <minimizedRMSD>  (1) 
7.42536449

$$$$
