
     RDKit          3D

 28 30  0  0  0  0  0  0  0  0999 V2000
   45.9400   34.5160   41.1850 C   0  0  0  0  0  0  0  0  0  0  0  0
   46.2400   33.5610   40.2180 C   0  0  0  0  0  0  0  0  0  0  0  0
   45.2100   33.1720   39.3800 C   0  0  0  0  0  0  0  0  0  0  0  0
   43.9790   33.6500   39.4460 N   0  0  0  0  0  0  0  0  0  0  0  0
   43.7080   34.5840   40.4000 C   0  0  0  0  0  0  0  0  0  0  0  0
   44.6810   35.0100   41.2580 N   0  0  0  0  0  0  0  0  0  0  0  0
   42.3590   35.1500   40.5210 C   0  0  0  0  0  0  0  0  0  0  0  0
   41.3540   35.1790   39.6110 C   0  0  0  0  0  0  0  0  0  0  0  0
   40.2640   35.8300   40.1980 C   0  0  0  0  0  0  0  0  0  0  0  0
   40.6430   36.1770   41.4510 N   0  0  0  0  0  0  0  0  0  0  0  0
   41.8720   35.7640   41.6040 N   0  0  0  0  0  0  0  0  0  0  0  0
   46.9260   34.9660   42.0750 O   0  0  0  0  0  0  0  0  0  0  0  0
   47.3550   34.1020   43.1080 C   0  0  0  0  0  0  0  0  0  0  0  0
   46.6790   33.9950   44.1440 O   0  0  0  0  0  0  0  0  0  0  0  0
   48.7310   31.9950   42.7730 C   0  0  0  0  0  0  0  0  0  0  0  0
   48.6180   33.3900   42.8260 C   0  0  0  0  0  0  0  0  0  0  0  0
   49.7500   34.1940   42.6030 C   0  0  0  0  0  0  0  0  0  0  0  0
   50.9420   33.5470   42.3380 N   0  0  0  0  0  0  0  0  0  0  0  0
   50.9980   32.2080   42.2980 C   0  0  0  0  0  0  0  0  0  0  0  0
   49.9260   31.4400   42.5090 N   0  0  0  0  0  0  0  0  0  0  0  0
   47.2498   33.1350   40.1242 H   0  0  0  0  0  0  0  0  0  0  0  0
   45.4291   32.4174   38.6102 H   0  0  0  0  0  0  0  0  0  0  0  0
   41.3896   34.7645   38.5927 H   0  0  0  0  0  0  0  0  0  0  0  0
   39.2867   36.0230   39.7315 H   0  0  0  0  0  0  0  0  0  0  0  0
   40.0709   36.6722   42.1498 H   0  0  0  0  0  0  0  0  0  0  0  0
   47.8498   31.3597   42.9459 H   0  0  0  0  0  0  0  0  0  0  0  0
   49.6892   35.2918   42.6380 H   0  0  0  0  0  0  0  0  0  0  0  0
   51.9624   31.7243   42.0835 H   0  0  0  0  0  0  0  0  0  0  0  0
  1  6  1  0
  1 12  1  0
  2  1  2  0
  3  4  2  0
  3  2  1  0
  4  5  1  0
  5  7  1  0
  5  6  2  0
  7 11  2  0
  8  9  2  0
  8  7  1  0
  9 10  1  0
 10 11  1  0
 12 13  1  0
 13 14  2  0
 15 16  2  0
 16 13  1  0
 17 16  1  0
 18 17  2  0
 19 18  1  0
 19 20  2  0
 20 15  1  0
  2 21  1  0
  3 22  1  0
  8 23  1  0
  9 24  1  0
 10 25  1  0
 15 26  1  0
 17 27  1  0
 19 28  1  0
M  ISO  8  21  14  22  14  23  14  24  14  25   9  26  14  27  14  28  14
M  END
>  <minimizedAffinity>  (1) 
-4.76554918

>  <minimizedRMSD>  (1) 
7.15821314

$$$$
