
     RDKit          3D

 30 32  0  0  0  0  0  0  0  0999 V2000
   46.5410   34.1430   40.7440 C   0  0  0  0  0  0  0  0  0  0  0  0
   47.0610   33.3590   39.7070 C   0  0  0  0  0  0  0  0  0  0  0  0
   46.1630   32.9190   38.7520 C   0  0  0  0  0  0  0  0  0  0  0  0
   44.8580   33.1930   38.7570 N   0  0  0  0  0  0  0  0  0  0  0  0
   44.3920   33.9540   39.7740 C   0  0  0  0  0  0  0  0  0  0  0  0
   45.1980   34.4270   40.7540 N   0  0  0  0  0  0  0  0  0  0  0  0
   42.9650   34.2690   39.8060 C   0  0  0  0  0  0  0  0  0  0  0  0
   42.4420   35.0220   40.8400 C   0  0  0  0  0  0  0  0  0  0  0  0
   41.1070   35.3710   40.9570 C   0  0  0  0  0  0  0  0  0  0  0  0
   40.3060   34.8880   39.9160 C   0  0  0  0  0  0  0  0  0  0  0  0
   40.8230   34.1400   38.8880 C   0  0  0  0  0  0  0  0  0  0  0  0
   42.1510   33.8380   38.8420 N   0  0  0  0  0  0  0  0  0  0  0  0
   47.3780   34.6320   41.7570 O   0  0  0  0  0  0  0  0  0  0  0  0
   47.6980   33.7690   42.8350 C   0  0  0  0  0  0  0  0  0  0  0  0
   48.6790   33.0210   42.7450 O   0  0  0  0  0  0  0  0  0  0  0  0
   45.7230   34.7790   44.0650 C   0  0  0  0  0  0  0  0  0  0  0  0
   46.7950   33.8560   43.9930 C   0  0  0  0  0  0  0  0  0  0  0  0
   47.0390   32.9750   45.0430 C   0  0  0  0  0  0  0  0  0  0  0  0
   46.2010   33.0420   46.1390 N   0  0  0  0  0  0  0  0  0  0  0  0
   45.1900   33.9370   46.1670 C   0  0  0  0  0  0  0  0  0  0  0  0
   44.9560   34.7810   45.1630 N   0  0  0  0  0  0  0  0  0  0  0  0
   48.1302   33.1058   39.6546 H   0  0  0  0  0  0  0  0  0  0  0  0
   46.5524   32.2996   37.9306 H   0  0  0  0  0  0  0  0  0  0  0  0
   43.1329   35.3675   41.6231 H   0  0  0  0  0  0  0  0  0  0  0  0
   40.7131   35.9716   41.7901 H   0  0  0  0  0  0  0  0  0  0  0  0
   39.2296   35.1147   39.9219 H   0  0  0  0  0  0  0  0  0  0  0  0
   40.1565   33.7795   38.0906 H   0  0  0  0  0  0  0  0  0  0  0  0
   45.5251   35.4776   43.2387 H   0  0  0  0  0  0  0  0  0  0  0  0
   47.8678   32.2529   45.0014 H   0  0  0  0  0  0  0  0  0  0  0  0
   44.5360   33.9704   47.0508 H   0  0  0  0  0  0  0  0  0  0  0  0
  1  6  1  0
  1 13  1  0
  2  1  2  0
  3  4  2  0
  3  2  1  0
  4  5  1  0
  5  7  1  0
  5  6  2  0
  7  8  2  0
  8  9  1  0
 10  9  2  0
 11 10  1  0
 12 11  2  0
 12  7  1  0
 13 14  1  0
 14 17  1  0
 15 14  2  0
 16 21  2  0
 17 16  1  0
 17 18  2  0
 18 19  1  0
 19 20  2  0
 21 20  1  0
  2 22  1  0
  3 23  1  0
  8 24  1  0
  9 25  1  0
 10 26  1  0
 11 27  1  0
 16 28  1  0
 18 29  1  0
 20 30  1  0
M  ISO  8  22  14  23  14  24  14  25  14  26  14  27  14  28  14  29  14
M  ISO  1  30  14
M  END
>  <minimizedAffinity>  (1) 
-4.74635601

>  <minimizedRMSD>  (1) 
6.97019577

$$$$
