
     RDKit          3D

 28 29  0  0  0  0  0  0  0  0999 V2000
   46.0690   33.2480   41.1540 C   0  0  0  0  0  0  0  0  0  0  0  0
   46.8740   34.1450   40.4370 C   0  0  0  0  0  0  0  0  0  0  0  0
   47.8730   34.7830   41.1440 C   0  0  0  0  0  0  0  0  0  0  0  0
   48.1140   34.6000   42.4370 N   0  0  0  0  0  0  0  0  0  0  0  0
   47.3230   33.7290   43.1070 C   0  0  0  0  0  0  0  0  0  0  0  0
   46.3250   33.0710   42.4730 N   0  0  0  0  0  0  0  0  0  0  0  0
   47.5500   33.5070   44.4930 N   0  0  0  0  0  0  0  0  0  0  0  0
   46.4600   33.1600   45.3330 C   0  0  0  0  0  0  0  0  0  0  0  0
   45.4390   32.5540   44.8270 N   0  0  0  0  0  0  0  0  0  0  0  0
   46.5450   33.5070   46.7330 N   0  0  0  0  0  0  0  0  0  0  0  0
   44.5900   32.2580   45.3560 H   0  0  0  0  0  0  0  0  0  0  0  0
   45.0270   32.5470   40.5380 O   0  0  0  0  0  0  0  0  0  0  0  0
   44.1510   33.2640   39.6880 C   0  0  0  0  0  0  0  0  0  0  0  0
   44.3980   33.3640   38.4760 O   0  0  0  0  0  0  0  0  0  0  0  0
   41.8560   33.0900   40.7590 C   0  0  0  0  0  0  0  0  0  0  0  0
   42.9770   33.8480   40.3660 C   0  0  0  0  0  0  0  0  0  0  0  0
   43.0170   35.2200   40.6120 C   0  0  0  0  0  0  0  0  0  0  0  0
   41.9200   35.7800   41.2480 N   0  0  0  0  0  0  0  0  0  0  0  0
   40.8640   35.0090   41.6070 C   0  0  0  0  0  0  0  0  0  0  0  0
   40.8300   33.6960   41.3700 N   0  0  0  0  0  0  0  0  0  0  0  0
   46.7170   34.3309   39.3642 H   0  0  0  0  0  0  0  0  0  0  0  0
   48.5136   35.4918   40.5989 H   0  0  0  0  0  0  0  0  0  0  0  0
   48.4984   33.5974   44.8844 H   0  0  0  0  0  0  0  0  0  0  0  0
   45.7714   33.2697   47.3703 H   0  0  0  0  0  0  0  0  0  0  0  0
   47.3792   33.9917   47.0937 H   0  0  0  0  0  0  0  0  0  0  0  0
   41.8239   32.0077   40.5652 H   0  0  0  0  0  0  0  0  0  0  0  0
   43.8816   35.8314   40.3143 H   0  0  0  0  0  0  0  0  0  0  0  0
   40.0073   35.4811   42.1101 H   0  0  0  0  0  0  0  0  0  0  0  0
  1  6  2  0
  2  3  2  0
  2  1  1  0
  3  4  1  0
  4  5  2  0
  5  7  1  0
  6  5  1  0
  7  8  1  0
  8 10  1  0
  9  8  2  0
  9 11  1  0
 12  1  1  0
 13 16  1  0
 13 12  1  0
 14 13  2  0
 15 20  2  0
 16 17  2  0
 16 15  1  0
 17 18  1  0
 18 19  2  0
 20 19  1  0
  2 21  1  0
  3 22  1  0
  7 23  1  0
 10 24  1  0
 10 25  1  0
 15 26  1  0
 17 27  1  0
 19 28  1  0
M  ISO  5  21  14  22  14  26  14  27  14  28  14
M  END
>  <minimizedAffinity>  (1) 
-4.92889547

>  <minimizedRMSD>  (1) 
4.21504307

$$$$
