
     RDKit          3D

 27 29  0  0  0  0  0  0  0  0999 V2000
   45.7910   33.0290   38.7710 C   0  0  0  0  0  0  0  0  0  0  0  0
   46.2510   33.2370   37.4820 C   0  0  0  0  0  0  0  0  0  0  0  0
   47.4980   33.8160   37.3640 C   0  0  0  0  0  0  0  0  0  0  0  0
   48.2700   34.1800   38.3860 N   0  0  0  0  0  0  0  0  0  0  0  0
   47.7940   33.9650   39.6340 C   0  0  0  0  0  0  0  0  0  0  0  0
   46.5800   33.4000   39.8320 N   0  0  0  0  0  0  0  0  0  0  0  0
   48.5840   34.3370   40.7590 N   0  0  0  0  0  0  0  0  0  0  0  0
   49.3690   33.5190   41.4820 C   0  0  0  0  0  0  0  0  0  0  0  0
   49.9480   34.2570   42.4600 N   0  0  0  0  0  0  0  0  0  0  0  0
   49.5120   35.5290   42.3320 C   0  0  0  0  0  0  0  0  0  0  0  0
   48.6750   35.5490   41.2780 N   0  0  0  0  0  0  0  0  0  0  0  0
   44.5370   32.4460   39.0350 O   0  0  0  0  0  0  0  0  0  0  0  0
   43.8310   32.9040   40.1760 C   0  0  0  0  0  0  0  0  0  0  0  0
   44.1330   32.4800   41.3080 O   0  0  0  0  0  0  0  0  0  0  0  0
   42.3150   34.8170   40.8230 C   0  0  0  0  0  0  0  0  0  0  0  0
   42.7730   33.8740   39.8940 C   0  0  0  0  0  0  0  0  0  0  0  0
   42.2050   33.8420   38.6270 C   0  0  0  0  0  0  0  0  0  0  0  0
   41.2050   34.7430   38.3270 N   0  0  0  0  0  0  0  0  0  0  0  0
   40.8040   35.6300   39.2680 C   0  0  0  0  0  0  0  0  0  0  0  0
   41.3400   35.6730   40.4890 N   0  0  0  0  0  0  0  0  0  0  0  0
   45.6555   32.9563   36.6007 H   0  0  0  0  0  0  0  0  0  0  0  0
   47.8835   33.9900   36.3486 H   0  0  0  0  0  0  0  0  0  0  0  0
   49.5152   32.4424   41.3102 H   0  0  0  0  0  0  0  0  0  0  0  0
   49.7878   36.3839   42.9668 H   0  0  0  0  0  0  0  0  0  0  0  0
   42.7571   34.8548   41.8295 H   0  0  0  0  0  0  0  0  0  0  0  0
   42.5460   33.1125   37.8777 H   0  0  0  0  0  0  0  0  0  0  0  0
   40.0052   36.3430   39.0160 H   0  0  0  0  0  0  0  0  0  0  0  0
  1 12  1  0
  1  6  1  0
  2  1  2  0
  3  2  1  0
  3  4  2  0
  4  5  1  0
  5  6  2  0
  5  7  1  0
  7 11  1  0
  7  8  1  0
  8  9  2  0
 10  9  1  0
 11 10  2  0
 12 13  1  0
 13 14  2  0
 16 13  1  0
 16 15  2  0
 17 16  1  0
 18 17  2  0
 18 19  1  0
 19 20  2  0
 20 15  1  0
  2 21  1  0
  3 22  1  0
  8 23  1  0
 10 24  1  0
 15 25  1  0
 17 26  1  0
 19 27  1  0
M  ISO  7  21  14  22  14  23  14  24  14  25  14  26  14  27  14
M  END
>  <minimizedAffinity>  (1) 
-4.50773621

>  <minimizedRMSD>  (1) 
5.07998657

$$$$
