
     RDKit          3D

 28 30  0  0  0  0  0  0  0  0999 V2000
   45.6270   33.6580   40.4350 C   0  0  0  0  0  0  0  0  0  0  0  0
   45.6770   32.2690   40.3970 C   0  0  0  0  0  0  0  0  0  0  0  0
   44.6040   31.6450   39.7800 C   0  0  0  0  0  0  0  0  0  0  0  0
   43.5720   32.2560   39.2450 N   0  0  0  0  0  0  0  0  0  0  0  0
   43.5480   33.6180   39.2970 C   0  0  0  0  0  0  0  0  0  0  0  0
   44.5550   34.3130   39.8820 N   0  0  0  0  0  0  0  0  0  0  0  0
   42.4430   34.3820   38.7310 C   0  0  0  0  0  0  0  0  0  0  0  0
   41.0960   34.1240   38.8860 C   0  0  0  0  0  0  0  0  0  0  0  0
   40.3610   35.0540   38.2080 N   0  0  0  0  0  0  0  0  0  0  0  0
   41.2650   35.8960   37.6280 C   0  0  0  0  0  0  0  0  0  0  0  0
   42.4930   35.4740   37.9540 N   0  0  0  0  0  0  0  0  0  0  0  0
   46.6620   34.3990   41.0370 O   0  0  0  0  0  0  0  0  0  0  0  0
   47.0500   34.0660   42.3490 C   0  0  0  0  0  0  0  0  0  0  0  0
   48.0850   33.3890   42.5180 O   0  0  0  0  0  0  0  0  0  0  0  0
   45.4220   35.7580   43.3070 C   0  0  0  0  0  0  0  0  0  0  0  0
   46.1630   34.5700   43.4180 C   0  0  0  0  0  0  0  0  0  0  0  0
   46.0890   33.8030   44.5720 C   0  0  0  0  0  0  0  0  0  0  0  0
   45.2710   34.2410   45.5940 N   0  0  0  0  0  0  0  0  0  0  0  0
   44.5740   35.3940   45.4400 C   0  0  0  0  0  0  0  0  0  0  0  0
   44.6470   36.1350   44.3270 N   0  0  0  0  0  0  0  0  0  0  0  0
   46.5145   31.7016   40.8290 H   0  0  0  0  0  0  0  0  0  0  0  0
   44.6181   30.5460   39.7347 H   0  0  0  0  0  0  0  0  0  0  0  0
   40.6762   33.2916   39.4699 H   0  0  0  0  0  0  0  0  0  0  0  0
   41.0264   36.7686   37.0022 H   0  0  0  0  0  0  0  0  0  0  0  0
   43.3644   35.9296   37.6474 H   0  0  0  0  0  0  0  0  0  0  0  0
   45.4792   36.3685   42.3938 H   0  0  0  0  0  0  0  0  0  0  0  0
   46.6662   32.8717   44.6697 H   0  0  0  0  0  0  0  0  0  0  0  0
   43.9242   35.7333   46.2602 H   0  0  0  0  0  0  0  0  0  0  0  0
  1 12  1  0
  2  1  2  0
  3  2  1  0
  4  5  1  0
  4  3  2  0
  5  6  2  0
  6  1  1  0
  7  8  2  0
  7  5  1  0
  9  8  1  0
 10 11  1  0
 10  9  2  0
 11  7  1  0
 12 13  1  0
 13 14  2  0
 13 16  1  0
 15 16  2  0
 15 20  1  0
 16 17  1  0
 17 18  2  0
 19 18  1  0
 20 19  2  0
  2 21  1  0
  3 22  1  0
  8 23  1  0
 10 24  1  0
 11 25  1  0
 15 26  1  0
 17 27  1  0
 19 28  1  0
M  ISO  8  21  14  22  14  23  14  24  14  25   9  26  14  27  14  28  14
M  END
>  <minimizedAffinity>  (1) 
-4.69766998

>  <minimizedRMSD>  (1) 
7.12884521

$$$$
