
     RDKit          3D

 37 40  0  0  0  0  0  0  0  0999 V2000
   47.1910   33.9180   41.7240 C   0  0  0  0  0  0  0  0  0  0  0  0
   47.5300   35.2420   41.8950 C   0  0  0  0  0  0  0  0  0  0  0  0
   48.8720   35.5050   41.9610 C   0  0  0  0  0  0  0  0  0  0  0  0
   49.8330   34.6160   41.8770 N   0  0  0  0  0  0  0  0  0  0  0  0
   49.5070   33.3190   41.7120 C   0  0  0  0  0  0  0  0  0  0  0  0
   48.1920   33.0230   41.6410 N   0  0  0  0  0  0  0  0  0  0  0  0
   50.3310   32.0990   41.5860 C   0  0  0  0  0  0  0  0  0  0  0  0
   50.8740   31.4190   42.6760 C   0  0  0  0  0  0  0  0  0  0  0  0
   51.6330   30.2920   42.5410 C   0  0  0  0  0  0  0  0  0  0  0  0
   51.9080   29.7600   41.3200 C   0  0  0  0  0  0  0  0  0  0  0  0
   51.4020   30.3850   40.2150 C   0  0  0  0  0  0  0  0  0  0  0  0
   51.6990   29.8210   38.9940 C   0  0  0  0  0  0  0  0  0  0  0  0
   51.2270   30.3890   37.8350 C   0  0  0  0  0  0  0  0  0  0  0  0
   50.4490   31.5440   37.9650 C   0  0  0  0  0  0  0  0  0  0  0  0
   50.1870   32.0600   39.2130 C   0  0  0  0  0  0  0  0  0  0  0  0
   50.6410   31.5180   40.3780 C   0  0  0  0  0  0  0  0  0  0  0  0
   45.8470   33.4920   41.6300 O   0  0  0  0  0  0  0  0  0  0  0  0
   44.9800   33.7940   42.6960 C   0  0  0  0  0  0  0  0  0  0  0  0
   43.9840   34.5150   42.4910 O   0  0  0  0  0  0  0  0  0  0  0  0
   45.6510   31.8320   44.1450 C   0  0  0  0  0  0  0  0  0  0  0  0
   45.3600   33.2040   43.9830 C   0  0  0  0  0  0  0  0  0  0  0  0
   45.4220   34.0900   45.0750 C   0  0  0  0  0  0  0  0  0  0  0  0
   45.7760   33.5540   46.2950 N   0  0  0  0  0  0  0  0  0  0  0  0
   46.0490   32.2250   46.4140 C   0  0  0  0  0  0  0  0  0  0  0  0
   45.9880   31.3820   45.3650 N   0  0  0  0  0  0  0  0  0  0  0  0
   46.7725   36.0357   41.9734 H   0  0  0  0  0  0  0  0  0  0  0  0
   49.1709   36.5549   42.0965 H   0  0  0  0  0  0  0  0  0  0  0  0
   50.6827   31.8071   43.6873 H   0  0  0  0  0  0  0  0  0  0  0  0
   52.0317   29.8025   43.4418 H   0  0  0  0  0  0  0  0  0  0  0  0
   52.5209   28.8516   41.2244 H   0  0  0  0  0  0  0  0  0  0  0  0
   52.3166   28.9120   38.9463 H   0  0  0  0  0  0  0  0  0  0  0  0
   51.4510   29.9548   36.8495 H   0  0  0  0  0  0  0  0  0  0  0  0
   50.0466   32.0398   37.0693 H   0  0  0  0  0  0  0  0  0  0  0  0
   49.5710   32.9692   39.2746 H   0  0  0  0  0  0  0  0  0  0  0  0
   45.6027   31.1442   43.2879 H   0  0  0  0  0  0  0  0  0  0  0  0
   45.1983   35.1609   44.9603 H   0  0  0  0  0  0  0  0  0  0  0  0
   46.3288   31.8264   47.4003 H   0  0  0  0  0  0  0  0  0  0  0  0
  1  2  2  0
  2  3  1  0
  4  3  2  0
  5  4  1  0
  6  5  2  0
  6  1  1  0
  7  5  1  0
  7  8  2  0
  9  8  1  0
 10  9  2  0
 11 16  2  0
 11 10  1  0
 12 11  1  0
 13 14  1  0
 13 12  2  0
 14 15  2  0
 15 16  1  0
 16  7  1  0
 17  1  1  0
 17 18  1  0
 18 21  1  0
 19 18  2  0
 20 25  2  0
 21 20  1  0
 21 22  2  0
 22 23  1  0
 23 24  2  0
 25 24  1  0
  2 26  1  0
  3 27  1  0
  8 28  1  0
  9 29  1  0
 10 30  1  0
 12 31  1  0
 13 32  1  0
 14 33  1  0
 15 34  1  0
 20 35  1  0
 22 36  1  0
 24 37  1  0
M  ISO  8  26  14  27  14  28  14  29  14  30  14  31  14  32  14  33  14
M  ISO  4  34  14  35  14  36  14  37  14
M  END
>  <minimizedAffinity>  (1) 
-4.42157698

>  <minimizedRMSD>  (1) 
2.2781117

$$$$
