
     RDKit          3D

 34 37  0  0  0  0  0  0  0  0999 V2000
   44.6020   32.2870   38.8050 C   0  0  0  0  0  0  0  0  0  0  0  0
   44.4370   32.8470   37.5380 C   0  0  0  0  0  0  0  0  0  0  0  0
   45.5910   33.1560   36.8560 C   0  0  0  0  0  0  0  0  0  0  0  0
   46.8180   32.9600   37.3140 N   0  0  0  0  0  0  0  0  0  0  0  0
   46.9470   32.4150   38.5470 C   0  0  0  0  0  0  0  0  0  0  0  0
   45.8500   32.0810   39.2890 N   0  0  0  0  0  0  0  0  0  0  0  0
   48.2530   32.1750   39.1100 N   0  0  0  0  0  0  0  0  0  0  0  0
   49.4290   31.8150   38.5670 C   0  0  0  0  0  0  0  0  0  0  0  0
   50.3340   31.7290   39.5560 N   0  0  0  0  0  0  0  0  0  0  0  0
   49.7470   32.0280   40.7230 C   0  0  0  0  0  0  0  0  0  0  0  0
   50.2000   32.0930   42.0220 C   0  0  0  0  0  0  0  0  0  0  0  0
   49.3950   32.4280   43.0590 N   0  0  0  0  0  0  0  0  0  0  0  0
   48.0950   32.7020   42.7530 C   0  0  0  0  0  0  0  0  0  0  0  0
   47.6410   32.6430   41.4930 N   0  0  0  0  0  0  0  0  0  0  0  0
   48.4130   32.3160   40.4570 C   0  0  0  0  0  0  0  0  0  0  0  0
   51.5330   31.8150   42.3580 N   0  0  0  0  0  0  0  0  0  0  0  0
   43.4800   31.9310   39.5950 O   0  0  0  0  0  0  0  0  0  0  0  0
   42.1940   32.2170   39.1100 C   0  0  0  0  0  0  0  0  0  0  0  0
   41.6970   31.4830   38.2380 O   0  0  0  0  0  0  0  0  0  0  0  0
   41.4620   33.6090   41.1030 C   0  0  0  0  0  0  0  0  0  0  0  0
   41.5550   33.4000   39.7130 C   0  0  0  0  0  0  0  0  0  0  0  0
   41.0250   34.3420   38.8210 C   0  0  0  0  0  0  0  0  0  0  0  0
   40.4220   35.4600   39.3680 N   0  0  0  0  0  0  0  0  0  0  0  0
   40.3600   35.6120   40.7160 C   0  0  0  0  0  0  0  0  0  0  0  0
   40.8640   34.7140   41.5560 N   0  0  0  0  0  0  0  0  0  0  0  0
   43.4410   33.0310   37.1088 H   0  0  0  0  0  0  0  0  0  0  0  0
   45.4867   33.5993   35.8547 H   0  0  0  0  0  0  0  0  0  0  0  0
   49.6171   31.6243   37.5001 H   0  0  0  0  0  0  0  0  0  0  0  0
   47.4010   32.9785   43.5604 H   0  0  0  0  0  0  0  0  0  0  0  0
   51.8395   31.8728   43.3396 H   0  0  0  0  0  0  0  0  0  0  0  0
   52.2055   31.5530   41.6231 H   0  0  0  0  0  0  0  0  0  0  0  0
   41.8765   32.8717   41.8062 H   0  0  0  0  0  0  0  0  0  0  0  0
   41.0860   34.1983   37.7321 H   0  0  0  0  0  0  0  0  0  0  0  0
   39.8756   36.5100   41.1271 H   0  0  0  0  0  0  0  0  0  0  0  0
  1  6  1  0
  1 17  1  0
  2  1  2  0
  3  4  2  0
  3  2  1  0
  4  5  1  0
  5  7  1  0
  5  6  2  0
  7 15  1  0
  8  7  1  0
  8  9  2  0
  9 10  1  0
 10 11  2  0
 11 16  1  0
 11 12  1  0
 13 12  2  0
 14 13  1  0
 15 10  1  0
 15 14  2  0
 18 17  1  0
 18 21  1  0
 19 18  2  0
 20 25  2  0
 21 20  1  0
 22 23  1  0
 22 21  2  0
 23 24  2  0
 24 25  1  0
  2 26  1  0
  3 27  1  0
  8 28  1  0
 13 29  1  0
 16 30  1  0
 16 31  1  0
 20 32  1  0
 22 33  1  0
 24 34  1  0
M  ISO  7  26  14  27  14  28  14  29  14  32  14  33  14  34  14
M  END
>  <minimizedAffinity>  (1) 
-4.38093519

>  <minimizedRMSD>  (1) 
5.49145937

$$$$
