
     RDKit          3D

 23 24  0  0  0  0  0  0  0  0999 V2000
   46.5490   32.7480   41.7450 O   0  0  0  0  0  0  0  0  0  0  0  0
   47.6600   33.6140   41.8690 C   0  0  0  0  0  0  0  0  0  0  0  0
   47.5210   34.9780   41.6660 C   0  0  0  0  0  0  0  0  0  0  0  0
   48.6730   35.7340   41.8120 C   0  0  0  0  0  0  0  0  0  0  0  0
   49.8710   35.2420   42.1250 N   0  0  0  0  0  0  0  0  0  0  0  0
   49.9620   33.9060   42.3140 C   0  0  0  0  0  0  0  0  0  0  0  0
   48.8780   33.1050   42.1880 N   0  0  0  0  0  0  0  0  0  0  0  0
   51.2220   33.3300   42.6500 N   0  0  0  0  0  0  0  0  0  0  0  0
   45.3960   33.0300   42.5270 C   0  0  0  0  0  0  0  0  0  0  0  0
   44.3450   33.3780   41.9580 O   0  0  0  0  0  0  0  0  0  0  0  0
   45.9690   31.6640   44.5840 C   0  0  0  0  0  0  0  0  0  0  0  0
   45.5750   32.8770   43.9690 C   0  0  0  0  0  0  0  0  0  0  0  0
   45.3420   33.9930   44.7610 C   0  0  0  0  0  0  0  0  0  0  0  0
   45.5050   33.8720   46.1230 N   0  0  0  0  0  0  0  0  0  0  0  0
   45.8790   32.6970   46.6590 C   0  0  0  0  0  0  0  0  0  0  0  0
   46.1080   31.6150   45.9150 N   0  0  0  0  0  0  0  0  0  0  0  0
   46.5542   35.4330   41.4047 H   0  0  0  0  0  0  0  0  0  0  0  0
   48.5926   36.8202   41.6582 H   0  0  0  0  0  0  0  0  0  0  0  0
   51.3011   32.3135   42.7959 H   0  0  0  0  0  0  0  0  0  0  0  0
   52.0533   33.9304   42.7469 H   0  0  0  0  0  0  0  0  0  0  0  0
   46.1594   30.7691   43.9734 H   0  0  0  0  0  0  0  0  0  0  0  0
   45.0351   34.9492   44.3122 H   0  0  0  0  0  0  0  0  0  0  0  0
   46.0003   32.6261   47.7500 H   0  0  0  0  0  0  0  0  0  0  0  0
  1  2  1  0
  1  9  1  0
  2  7  2  0
  3  4  2  0
  3  2  1  0
  4  5  1  0
  5  6  2  0
  6  8  1  0
  7  6  1  0
  9 12  1  0
 10  9  2  0
 11 16  2  0
 12 11  1  0
 12 13  2  0
 13 14  1  0
 14 15  2  0
 16 15  1  0
  3 17  1  0
  4 18  1  0
  8 19  1  0
  8 20  1  0
 11 21  1  0
 13 22  1  0
 15 23  1  0
M  ISO  5  17  14  18  14  21  14  22  14  23  14
M  END
>  <minimizedAffinity>  (1) 
-4.17109251

>  <minimizedRMSD>  (1) 
0.429235935

$$$$
