
     RDKit          3D

 24 25  0  0  0  0  0  0  0  0999 V2000
   46.1880   33.4790   41.5920 O   0  0  0  0  0  0  0  0  0  0  0  0
   47.4980   33.9570   41.8000 C   0  0  0  0  0  0  0  0  0  0  0  0
   47.7610   35.3050   41.9770 C   0  0  0  0  0  0  0  0  0  0  0  0
   49.0790   35.6530   42.1720 C   0  0  0  0  0  0  0  0  0  0  0  0
   50.0920   34.8110   42.2020 N   0  0  0  0  0  0  0  0  0  0  0  0
   49.8070   33.4860   42.0250 C   0  0  0  0  0  0  0  0  0  0  0  0
   48.5360   33.0600   41.8270 N   0  0  0  0  0  0  0  0  0  0  0  0
   50.8360   32.4480   42.0360 C   0  0  0  0  0  0  0  0  0  0  0  0
   50.7640   31.3970   42.7250 O   0  0  0  0  0  0  0  0  0  0  0  0
   51.9960   32.5740   41.2530 O   0  0  0  0  0  0  0  0  0  0  0  0
   45.2140   33.7620   42.5700 C   0  0  0  0  0  0  0  0  0  0  0  0
   44.2200   34.4340   42.2620 O   0  0  0  0  0  0  0  0  0  0  0  0
   45.7740   31.8360   44.1330 C   0  0  0  0  0  0  0  0  0  0  0  0
   45.4900   33.2050   43.9120 C   0  0  0  0  0  0  0  0  0  0  0  0
   45.4580   34.1080   44.9780 C   0  0  0  0  0  0  0  0  0  0  0  0
   45.7140   33.5950   46.2350 N   0  0  0  0  0  0  0  0  0  0  0  0
   45.9790   32.2920   46.4010 C   0  0  0  0  0  0  0  0  0  0  0  0
   46.0110   31.4220   45.3830 N   0  0  0  0  0  0  0  0  0  0  0  0
   46.9593   36.0581   41.9626 H   0  0  0  0  0  0  0  0  0  0  0  0
   49.3043   36.7202   42.3142 H   0  0  0  0  0  0  0  0  0  0  0  0
   52.6846   31.8630   41.2704 H   0  0  0  0  0  0  0  0  0  0  0  0
   45.7994   31.1261   43.2931 H   0  0  0  0  0  0  0  0  0  0  0  0
   45.2397   35.1750   44.8238 H   0  0  0  0  0  0  0  0  0  0  0  0
   46.1789   31.9208   47.4170 H   0  0  0  0  0  0  0  0  0  0  0  0
  1  2  1  0
  1 11  1  0
  2  7  1  0
  2  3  2  0
  3  4  1  0
  4  5  2  0
  6  8  1  0
  6  5  1  0
  7  6  2  0
  8  9  2  0
 10  8  1  0
 11 14  1  0
 12 11  2  0
 13 18  2  0
 14 13  1  0
 14 15  2  0
 15 16  1  0
 16 17  2  0
 18 17  1  0
  3 19  1  0
  4 20  1  0
 10 21  1  0
 13 22  1  0
 15 23  1  0
 17 24  1  0
M  ISO  6  19  14  20  14  21   3  22  14  23  14  24  14
M  END
>  <minimizedAffinity>  (1) 
-4.2548418

>  <minimizedRMSD>  (1) 
1.16731191

$$$$
