
     RDKit          3D

 28 30  0  0  0  0  0  0  0  0999 V2000
   44.6120   34.1390   42.3260 O   0  0  0  0  0  0  0  0  0  0  0  0
   44.3010   33.9150   40.9720 C   0  0  0  0  0  0  0  0  0  0  0  0
   45.2070   33.3080   40.1040 C   0  0  0  0  0  0  0  0  0  0  0  0
   44.8010   33.1360   38.8000 C   0  0  0  0  0  0  0  0  0  0  0  0
   43.6290   33.5040   38.3330 N   0  0  0  0  0  0  0  0  0  0  0  0
   42.7460   34.0990   39.1900 C   0  0  0  0  0  0  0  0  0  0  0  0
   43.0890   34.2940   40.4850 N   0  0  0  0  0  0  0  0  0  0  0  0
   41.3900   34.5390   38.7090 C   0  0  0  0  0  0  0  0  0  0  0  0
   40.7160   35.7090   39.2730 C   0  0  0  0  0  0  0  0  0  0  0  0
   41.3740   35.9120   37.9580 C   0  0  0  0  0  0  0  0  0  0  0  0
   45.5930   35.1280   42.6200 C   0  0  0  0  0  0  0  0  0  0  0  0
   45.2170   36.2880   42.8790 O   0  0  0  0  0  0  0  0  0  0  0  0
   47.4260   33.5160   43.2710 C   0  0  0  0  0  0  0  0  0  0  0  0
   46.9870   34.6680   42.5880 C   0  0  0  0  0  0  0  0  0  0  0  0
   47.8760   35.4350   41.8380 C   0  0  0  0  0  0  0  0  0  0  0  0
   49.1950   34.9950   41.8100 N   0  0  0  0  0  0  0  0  0  0  0  0
   49.5720   33.8930   42.4740 C   0  0  0  0  0  0  0  0  0  0  0  0
   48.7220   33.1650   43.1880 N   0  0  0  0  0  0  0  0  0  0  0  0
   46.2005   32.9815   40.4452 H   0  0  0  0  0  0  0  0  0  0  0  0
   45.5046   32.6586   38.1022 H   0  0  0  0  0  0  0  0  0  0  0  0
   41.0673   33.5011   38.5401 H   0  0  0  0  0  0  0  0  0  0  0  0
   39.6177   35.7206   39.3327 H   0  0  0  0  0  0  0  0  0  0  0  0
   40.7912   36.2274   40.2403 H   0  0  0  0  0  0  0  0  0  0  0  0
   42.2903   36.5156   37.8805 H   0  0  0  0  0  0  0  0  0  0  0  0
   41.0670   36.2691   36.9639 H   0  0  0  0  0  0  0  0  0  0  0  0
   46.7205   32.9138   43.8622 H   0  0  0  0  0  0  0  0  0  0  0  0
   47.5529   36.3375   41.2985 H   0  0  0  0  0  0  0  0  0  0  0  0
   50.6255   33.5802   42.4253 H   0  0  0  0  0  0  0  0  0  0  0  0
  1 11  1  0
  2  1  1  0
  3  2  2  0
  4  3  1  0
  5  4  2  0
  5  6  1  0
  6  7  2  0
  7  2  1  0
  8  6  1  0
  8  9  1  0
 10  8  1  0
 10  9  1  0
 11 12  2  0
 14 11  1  0
 14 13  2  0
 15 14  1  0
 16 15  2  0
 16 17  1  0
 17 18  2  0
 18 13  1  0
  3 19  1  0
  4 20  1  0
  8 21  1  0
  9 22  1  0
  9 23  1  0
 10 24  1  0
 10 25  1  0
 13 26  1  0
 15 27  1  0
 17 28  1  0
M  ISO  8  19  14  20  14  21  13  22  13  23  13  24  13  25  13  26  14
M  ISO  2  27  14  28  14
M  END
>  <minimizedAffinity>  (1) 
-4.35142946

>  <minimizedRMSD>  (1) 
6.49183941

$$$$
