
     RDKit          3D

 22 23  0  0  0  0  0  0  0  0999 V2000
   45.3730   33.9220   42.6570 C   0  0  0  0  0  0  0  0  0  0  0  0
   44.4680   34.7410   42.3940 O   0  0  0  0  0  0  0  0  0  0  0  0
   45.7530   31.8810   44.0980 C   0  0  0  0  0  0  0  0  0  0  0  0
   45.5760   33.2680   43.9470 C   0  0  0  0  0  0  0  0  0  0  0  0
   45.5900   34.0900   45.0870 C   0  0  0  0  0  0  0  0  0  0  0  0
   45.7810   33.4850   46.3160 N   0  0  0  0  0  0  0  0  0  0  0  0
   45.9460   32.1590   46.4090 C   0  0  0  0  0  0  0  0  0  0  0  0
   45.9330   31.3630   45.3230 N   0  0  0  0  0  0  0  0  0  0  0  0
   46.3000   33.5680   41.6610 O   0  0  0  0  0  0  0  0  0  0  0  0
   47.6690   33.8740   41.8870 C   0  0  0  0  0  0  0  0  0  0  0  0
   48.0950   35.1990   41.9900 C   0  0  0  0  0  0  0  0  0  0  0  0
   49.4500   35.3690   42.2090 C   0  0  0  0  0  0  0  0  0  0  0  0
   50.3350   34.3880   42.3250 N   0  0  0  0  0  0  0  0  0  0  0  0
   49.8900   33.1140   42.2200 C   0  0  0  0  0  0  0  0  0  0  0  0
   48.5620   32.8480   42.0020 N   0  0  0  0  0  0  0  0  0  0  0  0
   50.8480   31.5960   42.3330 S   0  0  0  0  0  0  0  0  0  0  0  0
   45.7440   31.2236   43.2161 H   0  0  0  0  0  0  0  0  0  0  0  0
   45.4536   35.1784   45.0045 H   0  0  0  0  0  0  0  0  0  0  0  0
   46.0964   31.7075   47.4007 H   0  0  0  0  0  0  0  0  0  0  0  0
   47.4017   36.0486   41.9031 H   0  0  0  0  0  0  0  0  0  0  0  0
   49.8235   36.4002   42.2937 H   0  0  0  0  0  0  0  0  0  0  0  0
   51.0479   31.2792   43.6508 H   0  0  0  0  0  0  0  0  0  0  0  0
  1  4  1  0
  2  1  2  0
  3  8  2  0
  4  3  1  0
  4  5  2  0
  5  6  1  0
  6  7  2  0
  8  7  1  0
  9 10  1  0
  9  1  1  0
 10 11  2  0
 10 15  1  0
 11 12  1  0
 12 13  2  0
 14 13  1  0
 14 16  1  0
 15 14  2  0
  3 17  1  0
  5 18  1  0
  7 19  1  0
 11 20  1  0
 12 21  1  0
 16 22  1  0
M  ISO  6  17  14  18  14  19  14  20  14  21  14  22  11
M  END
>  <minimizedAffinity>  (1) 
-3.76002598

>  <minimizedRMSD>  (1) 
1.01144683

$$$$
