
     RDKit          3D

 35 37  0  0  0  0  0  0  0  0999 V2000
   47.1280   32.4480   39.7570 C   0  0  0  0  0  0  0  0  0  0  0  0
   47.9230   33.2820   38.9630 C   0  0  0  0  0  0  0  0  0  0  0  0
   48.2500   34.4980   39.5160 C   0  0  0  0  0  0  0  0  0  0  0  0
   47.8760   34.9190   40.7090 N   0  0  0  0  0  0  0  0  0  0  0  0
   47.1050   34.0880   41.4550 C   0  0  0  0  0  0  0  0  0  0  0  0
   46.7300   32.8700   41.0020 N   0  0  0  0  0  0  0  0  0  0  0  0
   46.6600   34.4650   42.7520 N   0  0  0  0  0  0  0  0  0  0  0  0
   45.8330   35.6270   43.0180 C   0  0  0  0  0  0  0  0  0  0  0  0
   44.9180   35.2290   44.1580 C   0  0  0  0  0  0  0  0  0  0  0  0
   44.6220   33.8110   44.1420 N   0  0  0  0  0  0  0  0  0  0  0  0
   45.7470   32.9580   44.3310 C   0  0  0  0  0  0  0  0  0  0  0  0
   47.0080   33.6960   43.9340 C   0  0  0  0  0  0  0  0  0  0  0  0
   46.7310   31.1760   39.2930 O   0  0  0  0  0  0  0  0  0  0  0  0
   45.8130   31.1090   38.2300 C   0  0  0  0  0  0  0  0  0  0  0  0
   46.2080   30.8110   37.0920 O   0  0  0  0  0  0  0  0  0  0  0  0
   43.6930   30.6480   39.5300 C   0  0  0  0  0  0  0  0  0  0  0  0
   44.4190   31.4120   38.5940 C   0  0  0  0  0  0  0  0  0  0  0  0
   43.8220   32.5070   37.9720 C   0  0  0  0  0  0  0  0  0  0  0  0
   42.5200   32.8080   38.2960 N   0  0  0  0  0  0  0  0  0  0  0  0
   41.8590   32.0470   39.2010 C   0  0  0  0  0  0  0  0  0  0  0  0
   42.4250   31.0000   39.8000 N   0  0  0  0  0  0  0  0  0  0  0  0
   48.2645   32.9841   37.9607 H   0  0  0  0  0  0  0  0  0  0  0  0
   48.8744   35.1749   38.9144 H   0  0  0  0  0  0  0  0  0  0  0  0
   46.4583   36.4837   43.3097 H   0  0  0  0  0  0  0  0  0  0  0  0
   45.2627   35.9309   42.1278 H   0  0  0  0  0  0  0  0  0  0  0  0
   45.4071   35.4797   45.1109 H   0  0  0  0  0  0  0  0  0  0  0  0
   43.9710   35.7767   44.0428 H   0  0  0  0  0  0  0  0  0  0  0  0
   43.9448   33.6177   44.8936 H   0  0  0  0  0  0  0  0  0  0  0  0
   45.8113   32.6638   45.3890 H   0  0  0  0  0  0  0  0  0  0  0  0
   45.6355   32.0583   43.7081 H   0  0  0  0  0  0  0  0  0  0  0  0
   47.8131   32.9827   43.7037 H   0  0  0  0  0  0  0  0  0  0  0  0
   47.3714   34.3431   44.7459 H   0  0  0  0  0  0  0  0  0  0  0  0
   44.1545   29.7827   40.0283 H   0  0  0  0  0  0  0  0  0  0  0  0
   44.3773   33.1140   37.2417 H   0  0  0  0  0  0  0  0  0  0  0  0
   40.8185   32.3024   39.4501 H   0  0  0  0  0  0  0  0  0  0  0  0
  1  6  2  0
  2  3  2  0
  2  1  1  0
  3  4  1  0
  4  5  2  0
  5  7  1  0
  6  5  1  0
  7  8  1  0
  7 12  1  0
  8  9  1  0
 10  9  1  0
 10 11  1  0
 12 11  1  0
 13  1  1  0
 14 17  1  0
 14 13  1  0
 15 14  2  0
 16 21  2  0
 17 16  1  0
 18 19  1  0
 18 17  2  0
 19 20  2  0
 20 21  1  0
  2 22  1  0
  3 23  1  0
  8 24  1  0
  8 25  1  0
  9 26  1  0
  9 27  1  0
 10 28  1  0
 11 29  1  0
 11 30  1  0
 12 31  1  0
 12 32  1  0
 16 33  1  0
 18 34  1  0
 20 35  1  0
M  ISO  8  22  14  23  14  24  13  25  13  26  13  27  13  28   5  29  13
M  ISO  6  30  13  31  13  32  13  33  14  34  14  35  14
M  END
>  <minimizedAffinity>  (1) 
-3.87054467

>  <minimizedRMSD>  (1) 
5.46582985

$$$$
