
     RDKit          3D

 32 35  0  0  0  0  0  0  0  0999 V2000
   45.7440   30.5230   39.5300 C   0  0  0  0  0  0  0  0  0  0  0  0
   45.1010   30.8600   38.3420 C   0  0  0  0  0  0  0  0  0  0  0  0
   45.2000   32.1830   37.9590 C   0  0  0  0  0  0  0  0  0  0  0  0
   45.8410   33.1320   38.6130 N   0  0  0  0  0  0  0  0  0  0  0  0
   46.4640   32.7630   39.7790 C   0  0  0  0  0  0  0  0  0  0  0  0
   46.4210   31.4880   40.2360 N   0  0  0  0  0  0  0  0  0  0  0  0
   47.2290   33.5870   40.6880 N   0  0  0  0  0  0  0  0  0  0  0  0
   46.8180   34.7560   41.2630 C   0  0  0  0  0  0  0  0  0  0  0  0
   47.8300   35.1960   42.0360 N   0  0  0  0  0  0  0  0  0  0  0  0
   48.8850   34.3530   41.9840 C   0  0  0  0  0  0  0  0  0  0  0  0
   50.1280   34.3770   42.5940 C   0  0  0  0  0  0  0  0  0  0  0  0
   50.9750   33.3490   42.3200 N   0  0  0  0  0  0  0  0  0  0  0  0
   50.5630   32.3720   41.4790 C   0  0  0  0  0  0  0  0  0  0  0  0
   49.3480   32.3400   40.8780 N   0  0  0  0  0  0  0  0  0  0  0  0
   48.4740   33.3540   41.1290 C   0  0  0  0  0  0  0  0  0  0  0  0
   45.7150   29.2040   40.0240 O   0  0  0  0  0  0  0  0  0  0  0  0
   44.4560   28.5410   40.0700 C   0  0  0  0  0  0  0  0  0  0  0  0
   44.2290   27.6100   39.2890 O   0  0  0  0  0  0  0  0  0  0  0  0
   43.8220   29.0680   42.4700 C   0  0  0  0  0  0  0  0  0  0  0  0
   43.5210   29.0530   41.0840 C   0  0  0  0  0  0  0  0  0  0  0  0
   42.3020   29.5310   40.6250 C   0  0  0  0  0  0  0  0  0  0  0  0
   41.4140   30.0140   41.5680 N   0  0  0  0  0  0  0  0  0  0  0  0
   41.7260   30.0160   42.8730 C   0  0  0  0  0  0  0  0  0  0  0  0
   42.9010   29.5560   43.3230 N   0  0  0  0  0  0  0  0  0  0  0  0
   44.5487   30.1187   37.7458 H   0  0  0  0  0  0  0  0  0  0  0  0
   44.6986   32.4716   37.0234 H   0  0  0  0  0  0  0  0  0  0  0  0
   45.8435   35.2462   41.1214 H   0  0  0  0  0  0  0  0  0  0  0  0
   50.4181   35.1934   43.2718 H   0  0  0  0  0  0  0  0  0  0  0  0
   51.2610   31.5482   41.2688 H   0  0  0  0  0  0  0  0  0  0  0  0
   44.7863   28.6895   42.8400 H   0  0  0  0  0  0  0  0  0  0  0  0
   42.0522   29.5258   39.5538 H   0  0  0  0  0  0  0  0  0  0  0  0
   40.9946   30.4073   43.5955 H   0  0  0  0  0  0  0  0  0  0  0  0
  1 16  1  0
  1  6  1  0
  2  1  2  0
  3  2  1  0
  3  4  2  0
  4  5  1  0
  5  6  2  0
  5  7  1  0
  7 15  1  0
  7  8  1  0
  8  9  2  0
 10  9  1  0
 10 11  2  0
 12 11  1  0
 13 12  2  0
 14 15  2  0
 14 13  1  0
 15 10  1  0
 16 17  1  0
 17 20  1  0
 18 17  2  0
 19 24  2  0
 20 19  1  0
 21 20  2  0
 21 22  1  0
 22 23  2  0
 23 24  1  0
  2 25  1  0
  3 26  1  0
  8 27  1  0
 11 28  1  0
 13 29  1  0
 19 30  1  0
 21 31  1  0
 23 32  1  0
M  ISO  8  25  14  26  14  27  14  28  14  29  14  30  14  31  14  32  14
M  END
>  <minimizedAffinity>  (1) 
-3.31274629

>  <minimizedRMSD>  (1) 
5.13136625

$$$$
