
     RDKit          3D

 51 55  0  0  0  0  0  0  0  0999 V2000
   47.7910   32.7250   39.8470 C   0  0  0  0  0  0  0  0  0  0  0  0
   48.4530   33.7700   39.1810 C   0  0  0  0  0  0  0  0  0  0  0  0
   48.5390   34.9580   39.8730 C   0  0  0  0  0  0  0  0  0  0  0  0
   48.0560   35.1690   41.0860 N   0  0  0  0  0  0  0  0  0  0  0  0
   47.4220   34.1310   41.6950 C   0  0  0  0  0  0  0  0  0  0  0  0
   47.2800   32.9240   41.1090 N   0  0  0  0  0  0  0  0  0  0  0  0
   46.8690   34.2740   43.0080 N   0  0  0  0  0  0  0  0  0  0  0  0
   45.8410   35.2370   43.3460 C   0  0  0  0  0  0  0  0  0  0  0  0
   44.9740   34.5540   44.3940 C   0  0  0  0  0  0  0  0  0  0  0  0
   44.9410   33.1130   44.2120 N   0  0  0  0  0  0  0  0  0  0  0  0
   46.1950   32.4530   44.3640 C   0  0  0  0  0  0  0  0  0  0  0  0
   47.3160   33.4400   44.1130 C   0  0  0  0  0  0  0  0  0  0  0  0
   47.6400   31.4570   39.2340 O   0  0  0  0  0  0  0  0  0  0  0  0
   46.5710   31.2770   38.3240 C   0  0  0  0  0  0  0  0  0  0  0  0
   46.7590   30.6670   37.2620 O   0  0  0  0  0  0  0  0  0  0  0  0
   44.4730   31.2920   39.7380 C   0  0  0  0  0  0  0  0  0  0  0  0
   45.2910   31.8580   38.7560 C   0  0  0  0  0  0  0  0  0  0  0  0
   44.9020   33.0340   38.1500 C   0  0  0  0  0  0  0  0  0  0  0  0
   43.7060   33.5990   38.5530 N   0  0  0  0  0  0  0  0  0  0  0  0
   42.9490   33.0270   39.5000 C   0  0  0  0  0  0  0  0  0  0  0  0
   43.3410   31.9140   40.0560 N   0  0  0  0  0  0  0  0  0  0  0  0
   41.7540   33.8470   39.7180 C   0  0  0  0  0  0  0  0  0  0  0  0
   41.7280   34.9390   40.5300 C   0  0  0  0  0  0  0  0  0  0  0  0
   40.6260   35.7370   40.7640 C   0  0  0  0  0  0  0  0  0  0  0  0
   39.4360   35.4400   40.1440 C   0  0  0  0  0  0  0  0  0  0  0  0
   39.3990   34.3460   39.3110 C   0  0  0  0  0  0  0  0  0  0  0  0
   38.1870   34.0860   38.7120 C   0  0  0  0  0  0  0  0  0  0  0  0
   38.0580   33.0090   37.8600 C   0  0  0  0  0  0  0  0  0  0  0  0
   39.1850   32.2290   37.6490 C   0  0  0  0  0  0  0  0  0  0  0  0
   40.3670   32.5430   38.2770 C   0  0  0  0  0  0  0  0  0  0  0  0
   40.5410   33.6010   39.1300 C   0  0  0  0  0  0  0  0  0  0  0  0
   48.8752   33.6475   38.1726 H   0  0  0  0  0  0  0  0  0  0  0  0
   49.0495   35.7971   39.3778 H   0  0  0  0  0  0  0  0  0  0  0  0
   46.2917   36.1524   43.7569 H   0  0  0  0  0  0  0  0  0  0  0  0
   45.2559   35.5364   42.4639 H   0  0  0  0  0  0  0  0  0  0  0  0
   45.3793   34.7775   45.3919 H   0  0  0  0  0  0  0  0  0  0  0  0
   43.9475   34.9352   44.2893 H   0  0  0  0  0  0  0  0  0  0  0  0
   44.5923   32.9197   43.2623 H   0  0  0  0  0  0  0  0  0  0  0  0
   46.2786   32.0546   45.3859 H   0  0  0  0  0  0  0  0  0  0  0  0
   46.2650   31.6258   43.6423 H   0  0  0  0  0  0  0  0  0  0  0  0
   48.2406   32.9090   43.8426 H   0  0  0  0  0  0  0  0  0  0  0  0
   47.5367   34.0388   45.0090 H   0  0  0  0  0  0  0  0  0  0  0  0
   44.7588   30.3539   40.2363 H   0  0  0  0  0  0  0  0  0  0  0  0
   45.5214   33.5061   37.3732 H   0  0  0  0  0  0  0  0  0  0  0  0
   42.6632   35.2082   41.0427 H   0  0  0  0  0  0  0  0  0  0  0  0
   40.6997   36.6018   41.4398 H   0  0  0  0  0  0  0  0  0  0  0  0
   38.5410   36.0579   40.3088 H   0  0  0  0  0  0  0  0  0  0  0  0
   37.3227   34.7362   38.9126 H   0  0  0  0  0  0  0  0  0  0  0  0
   37.1013   32.7785   37.3685 H   0  0  0  0  0  0  0  0  0  0  0  0
   39.1332   31.3584   36.9787 H   0  0  0  0  0  0  0  0  0  0  0  0
   41.2361   31.8980   38.0804 H   0  0  0  0  0  0  0  0  0  0  0  0
  1  6  1  0
  2  1  2  0
  2  3  1  0
  3  4  2  0
  4  5  1  0
  5  7  1  0
  6  5  2  0
  7  8  1  0
  7 12  1  0
  8  9  1  0
 10 11  1  0
 10  9  1  0
 12 11  1  0
 13  1  1  0
 14 17  1  0
 14 13  1  0
 15 14  2  0
 16 21  2  0
 17 16  1  0
 18 19  1  0
 18 17  2  0
 19 20  2  0
 20 22  1  0
 20 21  1  0
 22 23  2  0
 23 24  1  0
 25 24  2  0
 26 25  1  0
 27 26  2  0
 28 27  1  0
 29 28  2  0
 29 30  1  0
 30 31  2  0
 31 26  1  0
 31 22  1  0
  2 32  1  0
  3 33  1  0
  8 34  1  0
  8 35  1  0
  9 36  1  0
  9 37  1  0
 10 38  1  0
 11 39  1  0
 11 40  1  0
 12 41  1  0
 12 42  1  0
 16 43  1  0
 18 44  1  0
 23 45  1  0
 24 46  1  0
 25 47  1  0
 27 48  1  0
 28 49  1  0
 29 50  1  0
 30 51  1  0
M  ISO  8  32  14  33  14  34  13  35  13  36  13  37  13  38   5  39  13
M  ISO  8  40  13  41  13  42  13  43  14  44  14  45  14  46  14  47  14
M  ISO  4  48  14  49  14  50  14  51  14
M  END
>  <minimizedAffinity>  (1) 
-6.52305984

>  <minimizedRMSD>  (1) 
1.32696438

$$$$
