
     RDKit          3D

 49 53  0  0  0  0  0  0  0  0999 V2000
   46.8190   33.2030   39.0520 C   0  0  0  0  0  0  0  0  0  0  0  0
   47.8800   33.9690   38.5710 C   0  0  0  0  0  0  0  0  0  0  0  0
   48.4560   34.8330   39.4810 C   0  0  0  0  0  0  0  0  0  0  0  0
   48.0790   34.9710   40.7300 N   0  0  0  0  0  0  0  0  0  0  0  0
   47.0460   34.2140   41.1700 C   0  0  0  0  0  0  0  0  0  0  0  0
   46.4100   33.3330   40.3570 N   0  0  0  0  0  0  0  0  0  0  0  0
   46.5780   34.3080   42.5170 N   0  0  0  0  0  0  0  0  0  0  0  0
   46.0610   35.5250   43.1120 C   0  0  0  0  0  0  0  0  0  0  0  0
   44.9590   35.0780   44.0570 C   0  0  0  0  0  0  0  0  0  0  0  0
   44.3090   33.8740   43.5970 N   0  0  0  0  0  0  0  0  0  0  0  0
   45.1480   32.7280   43.5360 C   0  0  0  0  0  0  0  0  0  0  0  0
   46.5860   33.1650   43.4150 C   0  0  0  0  0  0  0  0  0  0  0  0
   46.1570   32.2860   38.2080 O   0  0  0  0  0  0  0  0  0  0  0  0
   45.0650   32.7410   37.4460 C   0  0  0  0  0  0  0  0  0  0  0  0
   45.2780   33.2110   36.3200 O   0  0  0  0  0  0  0  0  0  0  0  0
   43.0590   31.3830   38.1630 C   0  0  0  0  0  0  0  0  0  0  0  0
   43.7460   32.6060   38.0920 C   0  0  0  0  0  0  0  0  0  0  0  0
   43.1890   33.7610   38.6460 C   0  0  0  0  0  0  0  0  0  0  0  0
   41.9660   33.6560   39.2480 N   0  0  0  0  0  0  0  0  0  0  0  0
   41.3370   32.4570   39.2950 C   0  0  0  0  0  0  0  0  0  0  0  0
   41.8640   31.3470   38.7690 N   0  0  0  0  0  0  0  0  0  0  0  0
   40.0270   32.3400   39.9410 C   0  0  0  0  0  0  0  0  0  0  0  0
   39.1380   33.3320   40.3070 C   0  0  0  0  0  0  0  0  0  0  0  0
   38.0390   32.8280   40.8760 N   0  0  0  0  0  0  0  0  0  0  0  0
   38.2000   31.4720   40.8880 C   0  0  0  0  0  0  0  0  0  0  0  0
   37.3390   30.5080   41.3700 C   0  0  0  0  0  0  0  0  0  0  0  0
   37.6850   29.1560   41.2930 C   0  0  0  0  0  0  0  0  0  0  0  0
   38.8890   28.8590   40.7250 C   0  0  0  0  0  0  0  0  0  0  0  0
   39.7750   29.7980   40.2320 C   0  0  0  0  0  0  0  0  0  0  0  0
   39.4160   31.1420   40.3180 C   0  0  0  0  0  0  0  0  0  0  0  0
   48.2354   33.8901   37.5330 H   0  0  0  0  0  0  0  0  0  0  0  0
   49.2950   35.4529   39.1321 H   0  0  0  0  0  0  0  0  0  0  0  0
   46.8537   36.0489   43.6662 H   0  0  0  0  0  0  0  0  0  0  0  0
   45.6866   36.2247   42.3503 H   0  0  0  0  0  0  0  0  0  0  0  0
   45.3961   34.8892   45.0486 H   0  0  0  0  0  0  0  0  0  0  0  0
   44.2039   35.8767   44.1012 H   0  0  0  0  0  0  0  0  0  0  0  0
   43.5294   33.6663   44.2374 H   0  0  0  0  0  0  0  0  0  0  0  0
   45.0216   32.1317   44.4516 H   0  0  0  0  0  0  0  0  0  0  0  0
   44.8746   32.1190   42.6617 H   0  0  0  0  0  0  0  0  0  0  0  0
   47.1992   32.3533   42.9965 H   0  0  0  0  0  0  0  0  0  0  0  0
   47.0148   33.4226   44.3947 H   0  0  0  0  0  0  0  0  0  0  0  0
   43.4940   30.4707   37.7289 H   0  0  0  0  0  0  0  0  0  0  0  0
   43.7176   34.7245   38.5994 H   0  0  0  0  0  0  0  0  0  0  0  0
   39.3135   34.4064   40.1492 H   0  0  0  0  0  0  0  0  0  0  0  0
   37.2311   33.3571   41.2343 H   0  0  0  0  0  0  0  0  0  0  0  0
   36.3780   30.8040   41.8159 H   0  0  0  0  0  0  0  0  0  0  0  0
   37.0176   28.3684   41.6727 H   0  0  0  0  0  0  0  0  0  0  0  0
   39.1744   27.7990   40.6545 H   0  0  0  0  0  0  0  0  0  0  0  0
   40.7334   29.4943   39.7857 H   0  0  0  0  0  0  0  0  0  0  0  0
  1  6  1  0
  2  1  2  0
  2  3  1  0
  3  4  2  0
  4  5  1  0
  5  7  1  0
  6  5  2  0
  7  8  1  0
  7 12  1  0
  8  9  1  0
 10  9  1  0
 11 10  1  0
 12 11  1  0
 13  1  1  0
 14 17  1  0
 14 13  1  0
 15 14  2  0
 16 21  2  0
 17 16  1  0
 17 18  2  0
 18 19  1  0
 19 20  2  0
 20 22  1  0
 21 20  1  0
 22 23  2  0
 22 30  1  0
 23 24  1  0
 24 25  1  0
 25 26  2  0
 27 26  1  0
 28 27  2  0
 29 30  2  0
 29 28  1  0
 30 25  1  0
  2 31  1  0
  3 32  1  0
  8 33  1  0
  8 34  1  0
  9 35  1  0
  9 36  1  0
 10 37  1  0
 11 38  1  0
 11 39  1  0
 12 40  1  0
 12 41  1  0
 16 42  1  0
 18 43  1  0
 23 44  1  0
 24 45  1  0
 26 46  1  0
 27 47  1  0
 28 48  1  0
 29 49  1  0
M  ISO  8  31  14  32  14  33  13  34  13  35  13  36  13  37   5  38  13
M  ISO  8  39  13  40  13  41  13  42  14  43  14  44  14  45   9  46  14
M  ISO  3  47  14  48  14  49  14
M  END
>  <minimizedAffinity>  (1) 
-6.37293577

>  <minimizedRMSD>  (1) 
1.73169041

$$$$
