
     RDKit          3D

 44 47  0  0  0  0  0  0  0  0999 V2000
   43.6170   34.6420   42.0430 O   0  0  0  0  0  0  0  0  0  0  0  0
   42.7930   34.5090   40.9490 C   0  0  0  0  0  0  0  0  0  0  0  0
   42.8550   35.3480   39.8560 C   0  0  0  0  0  0  0  0  0  0  0  0
   41.8840   34.9170   38.9590 C   0  0  0  0  0  0  0  0  0  0  0  0
   41.2700   33.8500   39.5150 N   0  0  0  0  0  0  0  0  0  0  0  0
   41.8060   33.6080   40.6930 N   0  0  0  0  0  0  0  0  0  0  0  0
   40.2150   33.1790   38.8260 C   0  0  0  0  0  0  0  0  0  0  0  0
   38.9360   33.6810   38.6010 C   0  0  0  0  0  0  0  0  0  0  0  0
   38.1960   32.7260   37.8910 C   0  0  0  0  0  0  0  0  0  0  0  0
   39.0390   31.7040   37.7180 N   0  0  0  0  0  0  0  0  0  0  0  0
   40.2290   31.9660   38.2660 N   0  0  0  0  0  0  0  0  0  0  0  0
   38.3410   28.9400   35.5270 N   0  0  0  0  0  0  0  0  0  0  0  0
   38.7710   30.1760   35.7180 N   0  0  0  0  0  0  0  0  0  0  0  0
   38.6910   30.4880   37.0250 C   0  0  0  0  0  0  0  0  0  0  0  0
   38.1760   29.3550   37.6620 C   0  0  0  0  0  0  0  0  0  0  0  0
   37.9620   28.3910   36.6970 C   0  0  0  0  0  0  0  0  0  0  0  0
   44.8990   34.1130   41.9740 C   0  0  0  0  0  0  0  0  0  0  0  0
   45.7970   34.9310   42.8900 C   0  0  0  0  0  0  0  0  0  0  0  0
   45.1060   34.5620   45.2390 C   0  0  0  0  0  0  0  0  0  0  0  0
   45.9620   34.2090   44.1700 C   0  0  0  0  0  0  0  0  0  0  0  0
   46.8750   33.2080   44.4440 C   0  0  0  0  0  0  0  0  0  0  0  0
   46.9230   32.6290   45.6500 N   0  0  0  0  0  0  0  0  0  0  0  0
   46.0860   32.9970   46.6400 C   0  0  0  0  0  0  0  0  0  0  0  0
   45.1660   33.9750   46.4340 N   0  0  0  0  0  0  0  0  0  0  0  0
   47.1360   35.1610   42.2500 C   0  0  0  0  0  0  0  0  0  0  0  0
   45.1200   36.2440   43.1260 C   0  0  0  0  0  0  0  0  0  0  0  0
   43.5418   36.1964   39.7199 H   0  0  0  0  0  0  0  0  0  0  0  0
   41.6579   35.3621   37.9788 H   0  0  0  0  0  0  0  0  0  0  0  0
   38.5673   34.6648   38.9268 H   0  0  0  0  0  0  0  0  0  0  0  0
   37.1524   32.8011   37.5514 H   0  0  0  0  0  0  0  0  0  0  0  0
   38.3016   28.4651   34.6139 H   0  0  0  0  0  0  0  0  0  0  0  0
   37.9770   29.2504   38.7388 H   0  0  0  0  0  0  0  0  0  0  0  0
   37.5623   27.3781   36.8525 H   0  0  0  0  0  0  0  0  0  0  0  0
   44.8876   33.0634   42.3030 H   0  0  0  0  0  0  0  0  0  0  0  0
   45.2724   34.1516   40.9400 H   0  0  0  0  0  0  0  0  0  0  0  0
   44.3598   35.3539   45.0775 H   0  0  0  0  0  0  0  0  0  0  0  0
   47.5730   32.8821   43.6588 H   0  0  0  0  0  0  0  0  0  0  0  0
   46.1481   32.5025   47.6206 H   0  0  0  0  0  0  0  0  0  0  0  0
   47.8985   35.2920   43.0320 H   0  0  0  0  0  0  0  0  0  0  0  0
   47.3972   34.2946   41.6246 H   0  0  0  0  0  0  0  0  0  0  0  0
   47.0931   36.0649   41.6246 H   0  0  0  0  0  0  0  0  0  0  0  0
   45.0290   36.4204   44.2079 H   0  0  0  0  0  0  0  0  0  0  0  0
   45.7149   37.0501   42.6718 H   0  0  0  0  0  0  0  0  0  0  0  0
   44.1183   36.2269   42.6718 H   0  0  0  0  0  0  0  0  0  0  0  0
  2  1  1  0
  3  2  1  0
  4  5  1  0
  4  3  2  0
  5  6  1  0
  6  2  2  0
  7  5  1  0
  8  7  1  0
  9  8  2  0
 10  9  1  0
 10 11  1  0
 11  7  2  0
 12 13  1  0
 12 16  1  0
 13 14  2  0
 14 15  1  0
 14 10  1  0
 16 15  2  0
 17  1  1  0
 17 18  1  0
 18 26  1  0
 18 20  1  0
 19 24  2  0
 20 21  2  0
 20 19  1  0
 21 22  1  0
 22 23  2  0
 24 23  1  0
 25 18  1  0
  3 27  1  0
  4 28  1  0
  8 29  1  0
  9 30  1  0
 12 31  1  0
 15 32  1  0
 16 33  1  0
 17 34  1  0
 17 35  1  0
 19 36  1  0
 21 37  1  0
 23 38  1  0
 25 39  1  0
 25 40  1  0
 25 41  1  0
 26 42  1  0
 26 43  1  0
 26 44  1  0
M  ISO  8  27  14  28  14  29  14  30  14  31   9  32  14  33  14  34   8
M  ISO  8  35   8  36  14  37  14  38  14  39   8  40   8  41   8  42   8
M  ISO  2  43   8  44   8
M  END
>  <minimizedAffinity>  (1) 
-5.97285032

>  <minimizedRMSD>  (1) 
2.21523333

$$$$
