
     RDKit          3D

 51 54  0  0  0  0  0  0  0  0999 V2000
   47.0480   32.5280   39.8130 C   0  0  0  0  0  0  0  0  0  0  0  0
   47.9150   33.3230   39.0410 C   0  0  0  0  0  0  0  0  0  0  0  0
   48.2990   34.5220   39.5940 C   0  0  0  0  0  0  0  0  0  0  0  0
   47.9190   34.9710   40.7760 N   0  0  0  0  0  0  0  0  0  0  0  0
   47.0800   34.1880   41.5050 C   0  0  0  0  0  0  0  0  0  0  0  0
   46.6500   32.9920   41.0410 N   0  0  0  0  0  0  0  0  0  0  0  0
   46.6200   34.5970   42.7910 N   0  0  0  0  0  0  0  0  0  0  0  0
   45.8510   35.8030   43.0290 C   0  0  0  0  0  0  0  0  0  0  0  0
   44.8820   35.4580   44.1470 C   0  0  0  0  0  0  0  0  0  0  0  0
   44.5110   34.0590   44.1280 N   0  0  0  0  0  0  0  0  0  0  0  0
   45.5800   33.1510   44.3450 C   0  0  0  0  0  0  0  0  0  0  0  0
   46.8990   33.8110   43.9770 C   0  0  0  0  0  0  0  0  0  0  0  0
   46.5940   31.2850   39.3420 O   0  0  0  0  0  0  0  0  0  0  0  0
   45.6130   31.2670   38.3360 C   0  0  0  0  0  0  0  0  0  0  0  0
   45.8410   30.6570   37.2760 O   0  0  0  0  0  0  0  0  0  0  0  0
   43.4180   31.4950   39.5560 C   0  0  0  0  0  0  0  0  0  0  0  0
   44.3770   31.9960   38.6570 C   0  0  0  0  0  0  0  0  0  0  0  0
   44.1820   33.2190   38.0350 C   0  0  0  0  0  0  0  0  0  0  0  0
   43.0350   33.9240   38.3170 N   0  0  0  0  0  0  0  0  0  0  0  0
   42.1330   33.3980   39.1950 C   0  0  0  0  0  0  0  0  0  0  0  0
   42.3100   32.2330   39.7940 N   0  0  0  0  0  0  0  0  0  0  0  0
   40.9020   34.2160   39.4610 C   0  0  0  0  0  0  0  0  0  0  0  0
   39.9230   33.5360   40.3590 C   0  0  0  0  0  0  0  0  0  0  0  0
   38.4740   33.8640   40.0430 C   0  0  0  0  0  0  0  0  0  0  0  0
   38.1210   33.6900   38.6010 C   0  0  0  0  0  0  0  0  0  0  0  0
   39.3570   33.4050   37.7560 C   0  0  0  0  0  0  0  0  0  0  0  0
   40.3350   34.5280   38.0780 C   0  0  0  0  0  0  0  0  0  0  0  0
   48.2665   33.0028   38.0491 H   0  0  0  0  0  0  0  0  0  0  0  0
   48.9765   35.1575   39.0048 H   0  0  0  0  0  0  0  0  0  0  0  0
   46.5133   36.6260   43.3357 H   0  0  0  0  0  0  0  0  0  0  0  0
   45.3237   36.1342   42.1222 H   0  0  0  0  0  0  0  0  0  0  0  0
   45.3571   35.6867   45.1124 H   0  0  0  0  0  0  0  0  0  0  0  0
   43.9691   36.0545   44.0027 H   0  0  0  0  0  0  0  0  0  0  0  0
   43.8071   33.9053   44.8640 H   0  0  0  0  0  0  0  0  0  0  0  0
   45.6013   32.8586   45.4052 H   0  0  0  0  0  0  0  0  0  0  0  0
   45.4324   32.2596   43.7176 H   0  0  0  0  0  0  0  0  0  0  0  0
   47.6635   33.0496   43.7628 H   0  0  0  0  0  0  0  0  0  0  0  0
   47.2876   34.4327   44.7971 H   0  0  0  0  0  0  0  0  0  0  0  0
   43.5659   30.5254   40.0539 H   0  0  0  0  0  0  0  0  0  0  0  0
   44.9279   33.6171   37.3314 H   0  0  0  0  0  0  0  0  0  0  0  0
   41.1416   35.1348   40.0164 H   0  0  0  0  0  0  0  0  0  0  0  0
   40.0616   32.4489   40.2640 H   0  0  0  0  0  0  0  0  0  0  0  0
   40.1189   33.8966   41.3796 H   0  0  0  0  0  0  0  0  0  0  0  0
   37.8296   33.2027   40.6409 H   0  0  0  0  0  0  0  0  0  0  0  0
   38.3238   34.9264   40.2856 H   0  0  0  0  0  0  0  0  0  0  0  0
   37.4191   32.8487   38.5034 H   0  0  0  0  0  0  0  0  0  0  0  0
   37.6639   34.6237   38.2416 H   0  0  0  0  0  0  0  0  0  0  0  0
   39.1017   33.4120   36.6861 H   0  0  0  0  0  0  0  0  0  0  0  0
   39.7837   32.4153   37.9761 H   0  0  0  0  0  0  0  0  0  0  0  0
   41.1429   34.5555   37.3320 H   0  0  0  0  0  0  0  0  0  0  0  0
   39.8382   35.5093   38.0606 H   0  0  0  0  0  0  0  0  0  0  0  0
  1  6  2  0
  2  3  2  0
  2  1  1  0
  3  4  1  0
  4  5  2  0
  5  7  1  0
  6  5  1  0
  7  8  1  0
  7 12  1  0
  8  9  1  0
 10  9  1  0
 10 11  1  0
 12 11  1  0
 13  1  1  0
 14 17  1  0
 14 13  1  0
 15 14  2  0
 16 21  2  0
 17 16  1  0
 18 19  1  0
 18 17  2  0
 19 20  2  0
 20 22  1  0
 20 21  1  0
 22 23  1  0
 24 23  1  0
 25 24  1  0
 26 27  1  0
 26 25  1  0
 27 22  1  0
  2 28  1  0
  3 29  1  0
  8 30  1  0
  8 31  1  0
  9 32  1  0
  9 33  1  0
 10 34  1  0
 11 35  1  0
 11 36  1  0
 12 37  1  0
 12 38  1  0
 16 39  1  0
 18 40  1  0
 22 41  1  0
 23 42  1  0
 23 43  1  0
 24 44  1  0
 24 45  1  0
 25 46  1  0
 25 47  1  0
 26 48  1  0
 26 49  1  0
 27 50  1  0
 27 51  1  0
M  ISO  8  28  14  29  14  30  13  31  13  32  13  33  13  34   5  35  13
M  ISO  8  36  13  37  13  38  13  39  14  40  14  41  13  42  13  43  13
M  ISO  8  44  13  45  13  46  13  47  13  48  13  49  13  50  13  51  13
M  END
>  <minimizedAffinity>  (1) 
-5.82490969

>  <minimizedRMSD>  (1) 
1.39866865

$$$$
