
     RDKit          3D

 44 46  0  0  0  0  0  0  0  0999 V2000
   46.0400   32.5950   39.1470 C   0  0  0  0  0  0  0  0  0  0  0  0
   47.0300   33.2000   38.3760 C   0  0  0  0  0  0  0  0  0  0  0  0
   47.8160   34.1270   39.0360 C   0  0  0  0  0  0  0  0  0  0  0  0
   47.6890   34.4610   40.3040 N   0  0  0  0  0  0  0  0  0  0  0  0
   46.7120   33.8490   41.0210 C   0  0  0  0  0  0  0  0  0  0  0  0
   45.8970   32.9310   40.4640 N   0  0  0  0  0  0  0  0  0  0  0  0
   46.5080   34.1540   42.4020 N   0  0  0  0  0  0  0  0  0  0  0  0
   46.1800   35.4750   42.8990 C   0  0  0  0  0  0  0  0  0  0  0  0
   45.2490   35.2530   44.0760 C   0  0  0  0  0  0  0  0  0  0  0  0
   44.4660   34.0570   43.9070 N   0  0  0  0  0  0  0  0  0  0  0  0
   45.2030   32.8420   43.8730 C   0  0  0  0  0  0  0  0  0  0  0  0
   46.6220   33.1300   43.4380 C   0  0  0  0  0  0  0  0  0  0  0  0
   45.1780   31.6290   38.5680 O   0  0  0  0  0  0  0  0  0  0  0  0
   44.3070   32.0340   37.5540 C   0  0  0  0  0  0  0  0  0  0  0  0
   44.5940   31.8110   36.3680 O   0  0  0  0  0  0  0  0  0  0  0  0
   41.8380   32.0540   38.1230 C   0  0  0  0  0  0  0  0  0  0  0  0
   43.0850   32.7140   38.0190 C   0  0  0  0  0  0  0  0  0  0  0  0
   43.1960   34.0570   38.3620 C   0  0  0  0  0  0  0  0  0  0  0  0
   42.0580   34.7110   38.8010 N   0  0  0  0  0  0  0  0  0  0  0  0
   40.8820   34.0260   38.8810 C   0  0  0  0  0  0  0  0  0  0  0  0
   40.7710   32.7340   38.5520 N   0  0  0  0  0  0  0  0  0  0  0  0
   39.6930   34.7910   39.3610 C   0  0  0  0  0  0  0  0  0  0  0  0
   40.0920   35.7840   40.4240 C   0  0  0  0  0  0  0  0  0  0  0  0
   38.6290   33.8820   39.9570 C   0  0  0  0  0  0  0  0  0  0  0  0
   47.1768   32.9567   37.3133 H   0  0  0  0  0  0  0  0  0  0  0  0
   48.6086   34.6239   38.4573 H   0  0  0  0  0  0  0  0  0  0  0  0
   47.0907   35.9992   43.2243 H   0  0  0  0  0  0  0  0  0  0  0  0
   45.7099   36.0954   42.1217 H   0  0  0  0  0  0  0  0  0  0  0  0
   45.8480   35.1621   44.9941 H   0  0  0  0  0  0  0  0  0  0  0  0
   44.5627   36.1102   44.1415 H   0  0  0  0  0  0  0  0  0  0  0  0
   43.7988   34.0015   44.6897 H   0  0  0  0  0  0  0  0  0  0  0  0
   45.2108   32.3889   44.8753 H   0  0  0  0  0  0  0  0  0  0  0  0
   44.7337   32.1463   43.1618 H   0  0  0  0  0  0  0  0  0  0  0  0
   47.0922   32.2222   43.0322 H   0  0  0  0  0  0  0  0  0  0  0  0
   47.2482   33.4648   44.2781 H   0  0  0  0  0  0  0  0  0  0  0  0
   41.7478   30.9914   37.8533 H   0  0  0  0  0  0  0  0  0  0  0  0
   44.1589   34.5835   38.2867 H   0  0  0  0  0  0  0  0  0  0  0  0
   39.2820   35.3047   38.4794 H   0  0  0  0  0  0  0  0  0  0  0  0
   39.9165   35.3472   41.4182 H   0  0  0  0  0  0  0  0  0  0  0  0
   41.1586   36.0296   40.3145 H   0  0  0  0  0  0  0  0  0  0  0  0
   39.4919   36.6993   40.3145 H   0  0  0  0  0  0  0  0  0  0  0  0
   38.6815   33.9268   41.0548 H   0  0  0  0  0  0  0  0  0  0  0  0
   37.6346   34.2138   39.6236 H   0  0  0  0  0  0  0  0  0  0  0  0
   38.8014   32.8480   39.6236 H   0  0  0  0  0  0  0  0  0  0  0  0
  1  6  2  0
  2  3  2  0
  2  1  1  0
  3  4  1  0
  4  5  2  0
  5  7  1  0
  6  5  1  0
  7  8  1  0
  7 12  1  0
  8  9  1  0
 10  9  1  0
 11 10  1  0
 12 11  1  0
 13  1  1  0
 14 17  1  0
 14 13  1  0
 15 14  2  0
 16 21  2  0
 17 16  1  0
 17 18  2  0
 18 19  1  0
 19 20  2  0
 20 22  1  0
 21 20  1  0
 22 24  1  0
 22 23  1  0
  2 25  1  0
  3 26  1  0
  8 27  1  0
  8 28  1  0
  9 29  1  0
  9 30  1  0
 10 31  1  0
 11 32  1  0
 11 33  1  0
 12 34  1  0
 12 35  1  0
 16 36  1  0
 18 37  1  0
 22 38  1  0
 23 39  1  0
 23 40  1  0
 23 41  1  0
 24 42  1  0
 24 43  1  0
 24 44  1  0
M  ISO  8  25  14  26  14  27  13  28  13  29  13  30  13  31   5  32  13
M  ISO  8  33  13  34  13  35  13  36  14  37  14  38   8  39   8  40   8
M  ISO  4  41   8  42   8  43   8  44   8
M  END
>  <minimizedAffinity>  (1) 
-5.29639959

>  <minimizedRMSD>  (1) 
1.65871108

$$$$
