
     RDKit          3D

 38 40  0  0  0  0  0  0  0  0999 V2000
   45.8860   32.5010   39.1920 C   0  0  0  0  0  0  0  0  0  0  0  0
   46.8480   33.0950   38.3650 C   0  0  0  0  0  0  0  0  0  0  0  0
   47.6550   34.0320   38.9740 C   0  0  0  0  0  0  0  0  0  0  0  0
   47.5870   34.4010   40.2440 N   0  0  0  0  0  0  0  0  0  0  0  0
   46.6490   33.8070   41.0060 C   0  0  0  0  0  0  0  0  0  0  0  0
   45.7990   32.8670   40.5070 N   0  0  0  0  0  0  0  0  0  0  0  0
   46.5040   34.1430   42.3880 N   0  0  0  0  0  0  0  0  0  0  0  0
   46.1980   35.4740   42.8680 C   0  0  0  0  0  0  0  0  0  0  0  0
   45.3130   35.2690   44.0790 C   0  0  0  0  0  0  0  0  0  0  0  0
   44.5090   34.0730   43.9860 N   0  0  0  0  0  0  0  0  0  0  0  0
   45.2580   32.8600   43.9320 C   0  0  0  0  0  0  0  0  0  0  0  0
   46.6570   33.1460   43.4310 C   0  0  0  0  0  0  0  0  0  0  0  0
   45.0070   31.5290   38.6750 O   0  0  0  0  0  0  0  0  0  0  0  0
   43.9200   31.9570   37.8960 C   0  0  0  0  0  0  0  0  0  0  0  0
   43.8750   31.6490   36.6960 O   0  0  0  0  0  0  0  0  0  0  0  0
   41.9870   32.1900   39.5020 C   0  0  0  0  0  0  0  0  0  0  0  0
   42.9100   32.7570   38.6100 C   0  0  0  0  0  0  0  0  0  0  0  0
   42.9020   34.1350   38.3580 C   0  0  0  0  0  0  0  0  0  0  0  0
   41.9690   34.9030   39.0100 N   0  0  0  0  0  0  0  0  0  0  0  0
   41.0940   34.3030   39.8690 C   0  0  0  0  0  0  0  0  0  0  0  0
   41.1040   33.0010   40.1030 N   0  0  0  0  0  0  0  0  0  0  0  0
   40.0790   35.1590   40.5750 C   0  0  0  0  0  0  0  0  0  0  0  0
   40.4810   36.4890   40.5980 F   0  0  0  0  0  0  0  0  0  0  0  0
   38.9030   35.0420   39.8610 F   0  0  0  0  0  0  0  0  0  0  0  0
   39.9280   34.7020   41.8640 F   0  0  0  0  0  0  0  0  0  0  0  0
   46.9523   32.8317   37.3021 H   0  0  0  0  0  0  0  0  0  0  0  0
   48.4221   34.5152   38.3510 H   0  0  0  0  0  0  0  0  0  0  0  0
   47.1202   36.0032   43.1500 H   0  0  0  0  0  0  0  0  0  0  0  0
   45.7036   36.0839   42.0976 H   0  0  0  0  0  0  0  0  0  0  0  0
   45.9506   35.1958   44.9724 H   0  0  0  0  0  0  0  0  0  0  0  0
   44.6268   36.1267   44.1379 H   0  0  0  0  0  0  0  0  0  0  0  0
   43.8930   34.0344   44.8106 H   0  0  0  0  0  0  0  0  0  0  0  0
   45.3130   32.4192   44.9383 H   0  0  0  0  0  0  0  0  0  0  0  0
   44.7626   32.1563   43.2469 H   0  0  0  0  0  0  0  0  0  0  0  0
   47.1130   32.2316   43.0237 H   0  0  0  0  0  0  0  0  0  0  0  0
   47.3131   33.5012   44.2393 H   0  0  0  0  0  0  0  0  0  0  0  0
   41.9877   31.1085   39.7031 H   0  0  0  0  0  0  0  0  0  0  0  0
   43.6209   34.5878   37.6594 H   0  0  0  0  0  0  0  0  0  0  0  0
  1  6  2  0
  2  3  2  0
  2  1  1  0
  3  4  1  0
  4  5  2  0
  5  7  1  0
  6  5  1  0
  7  8  1  0
  7 12  1  0
  8  9  1  0
 10  9  1  0
 11 10  1  0
 12 11  1  0
 13  1  1  0
 14 17  1  0
 14 13  1  0
 15 14  2  0
 16 21  2  0
 17 16  1  0
 18 17  2  0
 18 19  1  0
 19 20  2  0
 20 21  1  0
 20 22  1  0
 22 23  1  0
 22 25  1  0
 24 22  1  0
  2 26  1  0
  3 27  1  0
  8 28  1  0
  8 29  1  0
  9 30  1  0
  9 31  1  0
 10 32  1  0
 11 33  1  0
 11 34  1  0
 12 35  1  0
 12 36  1  0
 16 37  1  0
 18 38  1  0
M  ISO  8  26  14  27  14  28  13  29  13  30  13  31  13  32   5  33  13
M  ISO  5  34  13  35  13  36  13  37  14  38  14
M  END
>  <minimizedAffinity>  (1) 
-5.37440014

>  <minimizedRMSD>  (1) 
1.92284524

$$$$
