
     RDKit          3D

 42 45  0  0  0  0  0  0  0  0999 V2000
   47.1450   32.4650   39.7940 C   0  0  0  0  0  0  0  0  0  0  0  0
   47.9550   33.3050   39.0070 C   0  0  0  0  0  0  0  0  0  0  0  0
   48.2890   34.5220   39.5570 C   0  0  0  0  0  0  0  0  0  0  0  0
   47.9030   34.9310   40.7440 N   0  0  0  0  0  0  0  0  0  0  0  0
   47.1230   34.1040   41.4850 C   0  0  0  0  0  0  0  0  0  0  0  0
   46.7440   32.8960   41.0320 N   0  0  0  0  0  0  0  0  0  0  0  0
   46.6710   34.4880   42.7790 N   0  0  0  0  0  0  0  0  0  0  0  0
   45.8540   35.6490   43.0520 C   0  0  0  0  0  0  0  0  0  0  0  0
   44.9300   35.2610   44.1780 C   0  0  0  0  0  0  0  0  0  0  0  0
   44.6290   33.8420   44.1520 N   0  0  0  0  0  0  0  0  0  0  0  0
   45.7400   32.9870   44.3560 C   0  0  0  0  0  0  0  0  0  0  0  0
   47.0080   33.7140   43.9690 C   0  0  0  0  0  0  0  0  0  0  0  0
   46.7500   31.2010   39.3180 O   0  0  0  0  0  0  0  0  0  0  0  0
   45.7280   31.1410   38.3420 C   0  0  0  0  0  0  0  0  0  0  0  0
   45.9380   30.5030   37.2950 O   0  0  0  0  0  0  0  0  0  0  0  0
   43.5960   31.4070   39.6530 C   0  0  0  0  0  0  0  0  0  0  0  0
   44.4980   31.8600   38.6780 C   0  0  0  0  0  0  0  0  0  0  0  0
   44.2360   33.0310   37.9930 C   0  0  0  0  0  0  0  0  0  0  0  0
   43.0880   33.7220   38.2900 N   0  0  0  0  0  0  0  0  0  0  0  0
   42.2420   33.2580   39.2350 C   0  0  0  0  0  0  0  0  0  0  0  0
   42.4890   32.1320   39.8970 N   0  0  0  0  0  0  0  0  0  0  0  0
   41.0500   33.9800   39.5420 N   0  0  0  0  0  0  0  0  0  0  0  0
   39.7480   33.6920   39.3410 C   0  0  0  0  0  0  0  0  0  0  0  0
   38.9750   34.7500   39.8330 C   0  0  0  0  0  0  0  0  0  0  0  0
   39.8210   35.6740   40.3320 N   0  0  0  0  0  0  0  0  0  0  0  0
   41.0510   35.1850   40.1430 C   0  0  0  0  0  0  0  0  0  0  0  0
   48.3022   33.0054   38.0071 H   0  0  0  0  0  0  0  0  0  0  0  0
   48.9217   35.1974   38.9624 H   0  0  0  0  0  0  0  0  0  0  0  0
   46.4862   36.4973   43.3532 H   0  0  0  0  0  0  0  0  0  0  0  0
   45.2894   35.9591   42.1604 H   0  0  0  0  0  0  0  0  0  0  0  0
   45.4108   35.5072   45.1362 H   0  0  0  0  0  0  0  0  0  0  0  0
   43.9880   35.8165   44.0593 H   0  0  0  0  0  0  0  0  0  0  0  0
   43.9382   33.6490   44.8912 H   0  0  0  0  0  0  0  0  0  0  0  0
   45.7913   32.6978   45.4161 H   0  0  0  0  0  0  0  0  0  0  0  0
   45.6291   32.0847   43.7367 H   0  0  0  0  0  0  0  0  0  0  0  0
   47.8094   32.9947   43.7446 H   0  0  0  0  0  0  0  0  0  0  0  0
   47.3716   34.3582   44.7831 H   0  0  0  0  0  0  0  0  0  0  0  0
   43.7903   30.4769   40.2072 H   0  0  0  0  0  0  0  0  0  0  0  0
   44.9324   33.4014   37.2263 H   0  0  0  0  0  0  0  0  0  0  0  0
   39.3584   32.7779   38.8690 H   0  0  0  0  0  0  0  0  0  0  0  0
   37.8771   34.8158   39.8158 H   0  0  0  0  0  0  0  0  0  0  0  0
   41.9677   35.7118   40.4466 H   0  0  0  0  0  0  0  0  0  0  0  0
  1  6  2  0
  2  3  2  0
  2  1  1  0
  3  4  1  0
  4  5  2  0
  5  7  1  0
  6  5  1  0
  7  8  1  0
  7 12  1  0
  8  9  1  0
 10  9  1  0
 10 11  1  0
 12 11  1  0
 13  1  1  0
 14 17  1  0
 14 13  1  0
 15 14  2  0
 16 21  2  0
 17 16  1  0
 18 19  1  0
 18 17  2  0
 19 20  2  0
 20 22  1  0
 20 21  1  0
 22 26  1  0
 23 22  1  0
 23 24  2  0
 24 25  1  0
 26 25  2  0
  2 27  1  0
  3 28  1  0
  8 29  1  0
  8 30  1  0
  9 31  1  0
  9 32  1  0
 10 33  1  0
 11 34  1  0
 11 35  1  0
 12 36  1  0
 12 37  1  0
 16 38  1  0
 18 39  1  0
 23 40  1  0
 24 41  1  0
 26 42  1  0
M  ISO  8  27  14  28  14  29  13  30  13  31  13  32  13  33   5  34  13
M  ISO  8  35  13  36  13  37  13  38  14  39  14  40  14  41  14  42  14
M  END
>  <minimizedAffinity>  (1) 
-5.37022161

>  <minimizedRMSD>  (1) 
1.02195215

$$$$
