
     RDKit          3D

 42 45  0  0  0  0  0  0  0  0999 V2000
   47.1780   32.5090   39.7430 C   0  0  0  0  0  0  0  0  0  0  0  0
   47.9780   33.3560   38.9810 C   0  0  0  0  0  0  0  0  0  0  0  0
   48.3060   34.5560   39.5480 C   0  0  0  0  0  0  0  0  0  0  0  0
   47.9220   34.9630   40.7520 N   0  0  0  0  0  0  0  0  0  0  0  0
   47.1450   34.1210   41.4710 C   0  0  0  0  0  0  0  0  0  0  0  0
   46.7650   32.9110   41.0000 N   0  0  0  0  0  0  0  0  0  0  0  0
   46.6900   34.4760   42.7670 N   0  0  0  0  0  0  0  0  0  0  0  0
   45.8620   35.6370   43.0440 C   0  0  0  0  0  0  0  0  0  0  0  0
   44.9390   35.2230   44.1710 C   0  0  0  0  0  0  0  0  0  0  0  0
   44.6260   33.8140   44.1290 N   0  0  0  0  0  0  0  0  0  0  0  0
   45.7550   32.9490   44.3170 C   0  0  0  0  0  0  0  0  0  0  0  0
   47.0240   33.6860   43.9420 C   0  0  0  0  0  0  0  0  0  0  0  0
   46.7790   31.2500   39.2590 O   0  0  0  0  0  0  0  0  0  0  0  0
   45.7440   31.1880   38.3040 C   0  0  0  0  0  0  0  0  0  0  0  0
   45.9460   30.6160   37.2320 O   0  0  0  0  0  0  0  0  0  0  0  0
   43.6430   31.3070   39.7010 C   0  0  0  0  0  0  0  0  0  0  0  0
   44.5010   31.8360   38.7150 C   0  0  0  0  0  0  0  0  0  0  0  0
   44.1620   33.0310   38.0900 C   0  0  0  0  0  0  0  0  0  0  0  0
   43.0000   33.6740   38.4460 N   0  0  0  0  0  0  0  0  0  0  0  0
   42.2130   33.1120   39.4070 C   0  0  0  0  0  0  0  0  0  0  0  0
   42.5200   31.9680   40.0180 N   0  0  0  0  0  0  0  0  0  0  0  0
   41.0280   33.9290   39.6540 C   0  0  0  0  0  0  0  0  0  0  0  0
   41.2250   35.2070   40.1400 C   0  0  0  0  0  0  0  0  0  0  0  0
   39.9480   35.7640   40.2840 C   0  0  0  0  0  0  0  0  0  0  0  0
   39.0640   34.7870   39.8750 C   0  0  0  0  0  0  0  0  0  0  0  0
   39.7400   33.7040   39.5050 O   0  0  0  0  0  0  0  0  0  0  0  0
   48.3275   33.0748   37.9766 H   0  0  0  0  0  0  0  0  0  0  0  0
   48.9379   35.2381   38.9603 H   0  0  0  0  0  0  0  0  0  0  0  0
   46.4863   36.4884   43.3528 H   0  0  0  0  0  0  0  0  0  0  0  0
   45.2988   35.9554   42.1544 H   0  0  0  0  0  0  0  0  0  0  0  0
   45.4275   35.4491   45.1303 H   0  0  0  0  0  0  0  0  0  0  0  0
   43.9980   35.7818   44.0599 H   0  0  0  0  0  0  0  0  0  0  0  0
   43.9403   33.6143   44.8712 H   0  0  0  0  0  0  0  0  0  0  0  0
   45.8085   32.6399   45.3713 H   0  0  0  0  0  0  0  0  0  0  0  0
   45.6456   32.0596   43.6791 H   0  0  0  0  0  0  0  0  0  0  0  0
   47.8271   32.9717   43.7079 H   0  0  0  0  0  0  0  0  0  0  0  0
   47.3840   34.3186   44.7667 H   0  0  0  0  0  0  0  0  0  0  0  0
   43.8923   30.3616   40.2051 H   0  0  0  0  0  0  0  0  0  0  0  0
   44.8180   33.4583   37.3173 H   0  0  0  0  0  0  0  0  0  0  0  0
   42.1875   35.6885   40.3673 H   0  0  0  0  0  0  0  0  0  0  0  0
   39.7010   36.7722   40.6480 H   0  0  0  0  0  0  0  0  0  0  0  0
   37.9688   34.8886   39.8578 H   0  0  0  0  0  0  0  0  0  0  0  0
  1  6  2  0
  2  3  2  0
  2  1  1  0
  3  4  1  0
  4  5  2  0
  5  7  1  0
  6  5  1  0
  7  8  1  0
  7 12  1  0
  8  9  1  0
 10  9  1  0
 10 11  1  0
 12 11  1  0
 13  1  1  0
 14 17  1  0
 14 13  1  0
 15 14  2  0
 16 21  2  0
 17 16  1  0
 18 19  1  0
 18 17  2  0
 19 20  2  0
 20 22  1  0
 20 21  1  0
 22 23  2  0
 23 24  1  0
 25 24  2  0
 26 22  1  0
 26 25  1  0
  2 27  1  0
  3 28  1  0
  8 29  1  0
  8 30  1  0
  9 31  1  0
  9 32  1  0
 10 33  1  0
 11 34  1  0
 11 35  1  0
 12 36  1  0
 12 37  1  0
 16 38  1  0
 18 39  1  0
 23 40  1  0
 24 41  1  0
 25 42  1  0
M  ISO  8  27  14  28  14  29  13  30  13  31  13  32  13  33   5  34  13
M  ISO  8  35  13  36  13  37  13  38  14  39  14  40  14  41  14  42  14
M  END
>  <minimizedAffinity>  (1) 
-5.34114408

>  <minimizedRMSD>  (1) 
0.943112135

$$$$
