
     RDKit          3D

 44 47  0  0  0  0  0  0  0  0999 V2000
   47.4020   32.6520   39.8200 C   0  0  0  0  0  0  0  0  0  0  0  0
   48.2110   33.5400   39.1020 C   0  0  0  0  0  0  0  0  0  0  0  0
   48.4610   34.7490   39.7160 C   0  0  0  0  0  0  0  0  0  0  0  0
   47.9990   35.1090   40.9000 N   0  0  0  0  0  0  0  0  0  0  0  0
   47.2190   34.2220   41.5650 C   0  0  0  0  0  0  0  0  0  0  0  0
   46.9160   33.0150   41.0530 N   0  0  0  0  0  0  0  0  0  0  0  0
   46.6800   34.5360   42.8540 N   0  0  0  0  0  0  0  0  0  0  0  0
   45.8000   35.6580   43.1030 C   0  0  0  0  0  0  0  0  0  0  0  0
   44.8320   35.1880   44.1770 C   0  0  0  0  0  0  0  0  0  0  0  0
   44.5970   33.7670   44.0870 N   0  0  0  0  0  0  0  0  0  0  0  0
   45.7220   32.9450   44.3170 C   0  0  0  0  0  0  0  0  0  0  0  0
   46.9880   33.7310   44.0200 C   0  0  0  0  0  0  0  0  0  0  0  0
   47.0850   31.3900   39.2840 O   0  0  0  0  0  0  0  0  0  0  0  0
   46.1820   31.3260   38.1960 C   0  0  0  0  0  0  0  0  0  0  0  0
   46.5790   30.9070   37.0950 O   0  0  0  0  0  0  0  0  0  0  0  0
   43.9270   31.0510   39.3010 C   0  0  0  0  0  0  0  0  0  0  0  0
   44.8160   31.7830   38.5020 C   0  0  0  0  0  0  0  0  0  0  0  0
   44.4180   33.0080   37.9540 C   0  0  0  0  0  0  0  0  0  0  0  0
   43.1530   33.4610   38.2200 N   0  0  0  0  0  0  0  0  0  0  0  0
   42.3250   32.7250   38.9950 C   0  0  0  0  0  0  0  0  0  0  0  0
   42.7090   31.5500   39.5200 N   0  0  0  0  0  0  0  0  0  0  0  0
   40.9620   33.1690   39.3070 C   0  0  0  0  0  0  0  0  0  0  0  0
   40.2440   33.8820   38.3420 C   0  0  0  0  0  0  0  0  0  0  0  0
   38.9410   34.3230   38.5990 C   0  0  0  0  0  0  0  0  0  0  0  0
   38.4000   34.0200   39.8540 C   0  0  0  0  0  0  0  0  0  0  0  0
   39.1140   33.3260   40.7770 C   0  0  0  0  0  0  0  0  0  0  0  0
   40.3590   32.9240   40.4850 N   0  0  0  0  0  0  0  0  0  0  0  0
   48.6207   33.2898   38.1123 H   0  0  0  0  0  0  0  0  0  0  0  0
   49.0944   35.4697   39.1781 H   0  0  0  0  0  0  0  0  0  0  0  0
   46.3753   36.5258   43.4578 H   0  0  0  0  0  0  0  0  0  0  0  0
   45.2734   35.9727   42.1899 H   0  0  0  0  0  0  0  0  0  0  0  0
   45.2545   35.4192   45.1660 H   0  0  0  0  0  0  0  0  0  0  0  0
   43.8736   35.7079   44.0315 H   0  0  0  0  0  0  0  0  0  0  0  0
   43.8775   33.5205   44.7816 H   0  0  0  0  0  0  0  0  0  0  0  0
   45.7300   32.6188   45.3675 H   0  0  0  0  0  0  0  0  0  0  0  0
   45.6738   32.0630   43.6615 H   0  0  0  0  0  0  0  0  0  0  0  0
   47.8232   33.0479   43.8058 H   0  0  0  0  0  0  0  0  0  0  0  0
   47.2929   34.3518   44.8754 H   0  0  0  0  0  0  0  0  0  0  0  0
   44.2266   30.0869   39.7377 H   0  0  0  0  0  0  0  0  0  0  0  0
   45.1048   33.5930   37.3247 H   0  0  0  0  0  0  0  0  0  0  0  0
   40.7090   34.0989   37.3690 H   0  0  0  0  0  0  0  0  0  0  0  0
   38.3665   34.8837   37.8470 H   0  0  0  0  0  0  0  0  0  0  0  0
   37.3790   34.3498   40.0965 H   0  0  0  0  0  0  0  0  0  0  0  0
   38.6736   33.0951   41.7582 H   0  0  0  0  0  0  0  0  0  0  0  0
  1  6  2  0
  2  3  2  0
  2  1  1  0
  3  4  1  0
  4  5  2  0
  5  7  1  0
  6  5  1  0
  7  8  1  0
  7 12  1  0
  8  9  1  0
 10  9  1  0
 10 11  1  0
 12 11  1  0
 13  1  1  0
 14 17  1  0
 14 13  1  0
 15 14  2  0
 16 21  2  0
 17 16  1  0
 18 19  1  0
 18 17  2  0
 19 20  2  0
 20 22  1  0
 20 21  1  0
 22 27  2  0
 23 24  2  0
 23 22  1  0
 24 25  1  0
 25 26  2  0
 27 26  1  0
  2 28  1  0
  3 29  1  0
  8 30  1  0
  8 31  1  0
  9 32  1  0
  9 33  1  0
 10 34  1  0
 11 35  1  0
 11 36  1  0
 12 37  1  0
 12 38  1  0
 16 39  1  0
 18 40  1  0
 23 41  1  0
 24 42  1  0
 25 43  1  0
 26 44  1  0
M  ISO  8  28  14  29  14  30  13  31  13  32  13  33  13  34   5  35  13
M  ISO  8  36  13  37  13  38  13  39  14  40  14  41  14  42  14  43  14
M  ISO  1  44  14
M  END
>  <minimizedAffinity>  (1) 
-5.60963631

>  <minimizedRMSD>  (1) 
0.689000487

$$$$
