
     RDKit          3D

 42 45  0  0  0  0  0  0  0  0999 V2000
   46.8830   32.6350   39.6650 C   0  0  0  0  0  0  0  0  0  0  0  0
   47.7810   33.4110   38.9120 C   0  0  0  0  0  0  0  0  0  0  0  0
   48.2320   34.5570   39.5190 C   0  0  0  0  0  0  0  0  0  0  0  0
   47.8880   34.9650   40.7270 N   0  0  0  0  0  0  0  0  0  0  0  0
   47.0170   34.1940   41.4350 C   0  0  0  0  0  0  0  0  0  0  0  0
   46.5230   33.0540   40.9200 N   0  0  0  0  0  0  0  0  0  0  0  0
   46.5990   34.5590   42.7360 N   0  0  0  0  0  0  0  0  0  0  0  0
   45.8950   35.7910   43.0540 C   0  0  0  0  0  0  0  0  0  0  0  0
   44.9310   35.4560   44.1650 C   0  0  0  0  0  0  0  0  0  0  0  0
   44.4890   34.0830   44.0760 N   0  0  0  0  0  0  0  0  0  0  0  0
   45.4970   33.1050   44.2450 C   0  0  0  0  0  0  0  0  0  0  0  0
   46.8400   33.7210   43.8890 C   0  0  0  0  0  0  0  0  0  0  0  0
   46.3520   31.4340   39.1430 O   0  0  0  0  0  0  0  0  0  0  0  0
   45.4230   31.5110   38.0940 C   0  0  0  0  0  0  0  0  0  0  0  0
   45.7520   31.1980   36.9500 O   0  0  0  0  0  0  0  0  0  0  0  0
   43.1630   31.1480   39.1750 C   0  0  0  0  0  0  0  0  0  0  0  0
   44.0790   31.9860   38.4880 C   0  0  0  0  0  0  0  0  0  0  0  0
   43.7310   33.2960   38.1610 C   0  0  0  0  0  0  0  0  0  0  0  0
   42.4840   33.7420   38.5250 N   0  0  0  0  0  0  0  0  0  0  0  0
   41.6410   32.9200   39.1750 C   0  0  0  0  0  0  0  0  0  0  0  0
   41.9600   31.6560   39.4970 N   0  0  0  0  0  0  0  0  0  0  0  0
   40.3010   33.3190   39.5940 C   0  0  0  0  0  0  0  0  0  0  0  0
   39.4100   34.2900   39.1860 C   0  0  0  0  0  0  0  0  0  0  0  0
   38.3000   34.1420   40.0020 C   0  0  0  0  0  0  0  0  0  0  0  0
   38.5300   33.1130   40.8670 N   0  0  0  0  0  0  0  0  0  0  0  0
   39.7510   32.6210   40.6080 N   0  0  0  0  0  0  0  0  0  0  0  0
   48.1019   33.1189   37.9012 H   0  0  0  0  0  0  0  0  0  0  0  0
   48.9361   35.1855   38.9540 H   0  0  0  0  0  0  0  0  0  0  0  0
   46.6067   36.5608   43.3870 H   0  0  0  0  0  0  0  0  0  0  0  0
   45.3672   36.1873   42.1740 H   0  0  0  0  0  0  0  0  0  0  0  0
   45.4309   35.6102   45.1327 H   0  0  0  0  0  0  0  0  0  0  0  0
   44.0525   36.1117   44.0739 H   0  0  0  0  0  0  0  0  0  0  0  0
   43.7755   33.9319   44.8033 H   0  0  0  0  0  0  0  0  0  0  0  0
   45.5114   32.7656   45.2912 H   0  0  0  0  0  0  0  0  0  0  0  0
   45.2956   32.2432   43.5917 H   0  0  0  0  0  0  0  0  0  0  0  0
   47.5689   32.9343   43.6444 H   0  0  0  0  0  0  0  0  0  0  0  0
   47.2542   34.2988   44.7284 H   0  0  0  0  0  0  0  0  0  0  0  0
   43.4290   30.1132   39.4366 H   0  0  0  0  0  0  0  0  0  0  0  0
   44.4341   33.9526   37.6275 H   0  0  0  0  0  0  0  0  0  0  0  0
   39.5511   35.0270   38.3817 H   0  0  0  0  0  0  0  0  0  0  0  0
   37.3860   34.7525   39.9593 H   0  0  0  0  0  0  0  0  0  0  0  0
   37.8810   32.7735   41.5912 H   0  0  0  0  0  0  0  0  0  0  0  0
  1  6  2  0
  2  3  2  0
  2  1  1  0
  3  4  1  0
  4  5  2  0
  5  7  1  0
  6  5  1  0
  7  8  1  0
  7 12  1  0
  8  9  1  0
 10  9  1  0
 10 11  1  0
 12 11  1  0
 13  1  1  0
 14 17  1  0
 14 13  1  0
 15 14  2  0
 16 21  2  0
 17 16  1  0
 18 17  2  0
 18 19  1  0
 19 20  2  0
 20 21  1  0
 20 22  1  0
 22 26  2  0
 23 22  1  0
 23 24  2  0
 24 25  1  0
 26 25  1  0
  2 27  1  0
  3 28  1  0
  8 29  1  0
  8 30  1  0
  9 31  1  0
  9 32  1  0
 10 33  1  0
 11 34  1  0
 11 35  1  0
 12 36  1  0
 12 37  1  0
 16 38  1  0
 18 39  1  0
 23 40  1  0
 24 41  1  0
 25 42  1  0
M  ISO  8  27  14  28  14  29  13  30  13  31  13  32  13  33   5  34  13
M  ISO  8  35  13  36  13  37  13  38  14  39  14  40  14  41  14  42   9
M  END
>  <minimizedAffinity>  (1) 
-5.3649168

>  <minimizedRMSD>  (1) 
0.692030907

$$$$
