
     RDKit          3D

 37 39  0  0  0  0  0  0  0  0999 V2000
   46.2580   32.6620   39.1360 C   0  0  0  0  0  0  0  0  0  0  0  0
   47.2540   33.3230   38.4100 C   0  0  0  0  0  0  0  0  0  0  0  0
   47.9680   34.2610   39.0990 C   0  0  0  0  0  0  0  0  0  0  0  0
   47.7960   34.5860   40.3720 N   0  0  0  0  0  0  0  0  0  0  0  0
   46.8240   33.9250   41.0430 C   0  0  0  0  0  0  0  0  0  0  0  0
   46.0620   32.9800   40.4510 N   0  0  0  0  0  0  0  0  0  0  0  0
   46.5680   34.2090   42.4170 N   0  0  0  0  0  0  0  0  0  0  0  0
   46.1740   35.5010   42.9170 C   0  0  0  0  0  0  0  0  0  0  0  0
   45.2120   35.2170   44.0620 C   0  0  0  0  0  0  0  0  0  0  0  0
   44.4740   33.9950   43.8710 N   0  0  0  0  0  0  0  0  0  0  0  0
   45.2860   32.8150   43.8370 C   0  0  0  0  0  0  0  0  0  0  0  0
   46.6910   33.1770   43.4410 C   0  0  0  0  0  0  0  0  0  0  0  0
   45.4570   31.6730   38.5240 O   0  0  0  0  0  0  0  0  0  0  0  0
   44.3900   32.0850   37.7090 C   0  0  0  0  0  0  0  0  0  0  0  0
   44.4900   31.9970   36.4760 O   0  0  0  0  0  0  0  0  0  0  0  0
   42.3240   31.7710   39.1220 C   0  0  0  0  0  0  0  0  0  0  0  0
   43.2220   32.5970   38.4320 C   0  0  0  0  0  0  0  0  0  0  0  0
   43.0160   33.9840   38.4190 C   0  0  0  0  0  0  0  0  0  0  0  0
   41.9230   34.4840   39.0920 N   0  0  0  0  0  0  0  0  0  0  0  0
   41.0970   33.6390   39.7360 C   0  0  0  0  0  0  0  0  0  0  0  0
   41.2750   32.3270   39.7620 N   0  0  0  0  0  0  0  0  0  0  0  0
   39.9770   34.2860   40.4130 C   0  0  0  0  0  0  0  0  0  0  0  0
   38.9330   33.6290   40.6640 O   0  0  0  0  0  0  0  0  0  0  0  0
   47.4498   33.1012   37.3505 H   0  0  0  0  0  0  0  0  0  0  0  0
   48.7565   34.7946   38.5480 H   0  0  0  0  0  0  0  0  0  0  0  0
   47.0511   36.0565   43.2804 H   0  0  0  0  0  0  0  0  0  0  0  0
   45.7069   36.1167   42.1343 H   0  0  0  0  0  0  0  0  0  0  0  0
   45.7881   35.1391   44.9959 H   0  0  0  0  0  0  0  0  0  0  0  0
   44.4868   36.0431   44.1024 H   0  0  0  0  0  0  0  0  0  0  0  0
   43.8003   33.9008   44.6444 H   0  0  0  0  0  0  0  0  0  0  0  0
   45.2956   32.3491   44.8334 H   0  0  0  0  0  0  0  0  0  0  0  0
   44.8713   32.1088   43.1026 H   0  0  0  0  0  0  0  0  0  0  0  0
   47.2125   32.2972   43.0360 H   0  0  0  0  0  0  0  0  0  0  0  0
   47.2732   33.5333   44.3036 H   0  0  0  0  0  0  0  0  0  0  0  0
   42.4732   30.6813   39.1413 H   0  0  0  0  0  0  0  0  0  0  0  0
   43.7075   34.6536   37.8866 H   0  0  0  0  0  0  0  0  0  0  0  0
   40.0452   35.3449   40.7030 H   0  0  0  0  0  0  0  0  0  0  0  0
  1  6  2  0
  2  3  2  0
  2  1  1  0
  3  4  1  0
  4  5  2  0
  5  7  1  0
  6  5  1  0
  7  8  1  0
  7 12  1  0
  8  9  1  0
 10  9  1  0
 11 10  1  0
 12 11  1  0
 13  1  1  0
 14 17  1  0
 14 13  1  0
 15 14  2  0
 16 21  2  0
 17 16  1  0
 18 17  2  0
 18 19  1  0
 19 20  2  0
 20 21  1  0
 20 22  1  0
 22 23  2  0
  2 24  1  0
  3 25  1  0
  8 26  1  0
  8 27  1  0
  9 28  1  0
  9 29  1  0
 10 30  1  0
 11 31  1  0
 11 32  1  0
 12 33  1  0
 12 34  1  0
 16 35  1  0
 18 36  1  0
 22 37  1  0
M  ISO  8  24  14  25  14  26  13  27  13  28  13  29  13  30   5  31  13
M  ISO  6  32  13  33  13  34  13  35  14  36  14  37   6
M  END
>  <minimizedAffinity>  (1) 
-4.48557425

>  <minimizedRMSD>  (1) 
1.41097784

$$$$
