
     RDKit          3D

 41 44  0  0  0  0  0  0  0  0999 V2000
   47.3330   32.6600   39.8200 C   0  0  0  0  0  0  0  0  0  0  0  0
   48.1840   33.5230   39.1090 C   0  0  0  0  0  0  0  0  0  0  0  0
   48.4620   34.7240   39.7080 C   0  0  0  0  0  0  0  0  0  0  0  0
   47.9950   35.1140   40.8770 N   0  0  0  0  0  0  0  0  0  0  0  0
   47.1760   34.2610   41.5430 C   0  0  0  0  0  0  0  0  0  0  0  0
   46.8440   33.0580   41.0360 N   0  0  0  0  0  0  0  0  0  0  0  0
   46.6260   34.6020   42.8140 N   0  0  0  0  0  0  0  0  0  0  0  0
   45.7650   35.7610   43.0360 C   0  0  0  0  0  0  0  0  0  0  0  0
   44.7740   35.3280   44.0960 C   0  0  0  0  0  0  0  0  0  0  0  0
   44.4850   33.9100   44.0180 N   0  0  0  0  0  0  0  0  0  0  0  0
   45.5970   33.0560   44.2800 C   0  0  0  0  0  0  0  0  0  0  0  0
   46.8870   33.8030   44.0000 C   0  0  0  0  0  0  0  0  0  0  0  0
   46.9910   31.4050   39.2860 O   0  0  0  0  0  0  0  0  0  0  0  0
   46.1320   31.3520   38.1710 C   0  0  0  0  0  0  0  0  0  0  0  0
   46.5620   30.9230   37.1000 O   0  0  0  0  0  0  0  0  0  0  0  0
   43.7930   31.0650   39.0920 C   0  0  0  0  0  0  0  0  0  0  0  0
   44.7620   31.8340   38.4190 C   0  0  0  0  0  0  0  0  0  0  0  0
   44.4440   33.1180   37.9520 C   0  0  0  0  0  0  0  0  0  0  0  0
   43.1790   33.5770   38.1750 N   0  0  0  0  0  0  0  0  0  0  0  0
   42.2800   32.8090   38.8230 C   0  0  0  0  0  0  0  0  0  0  0  0
   42.5660   31.5840   39.2740 N   0  0  0  0  0  0  0  0  0  0  0  0
   40.8970   33.2590   39.0900 C   0  0  0  0  0  0  0  0  0  0  0  0
   40.1300   33.1190   40.3440 C   0  0  0  0  0  0  0  0  0  0  0  0
   38.5680   33.9110   39.8430 S   0  0  0  0  0  0  0  0  0  0  0  0
   39.1420   34.2810   38.1520 C   0  0  0  0  0  0  0  0  0  0  0  0
   40.3020   33.8560   38.0620 N   0  0  0  0  0  0  0  0  0  0  0  0
   48.6026   33.2506   38.1289 H   0  0  0  0  0  0  0  0  0  0  0  0
   49.1269   35.4165   39.1710 H   0  0  0  0  0  0  0  0  0  0  0  0
   46.3569   36.6181   43.3896 H   0  0  0  0  0  0  0  0  0  0  0  0
   45.2619   36.0802   42.1113 H   0  0  0  0  0  0  0  0  0  0  0  0
   45.1938   35.5514   45.0879 H   0  0  0  0  0  0  0  0  0  0  0  0
   43.8354   35.8770   43.9300 H   0  0  0  0  0  0  0  0  0  0  0  0
   43.7478   33.6953   44.7045 H   0  0  0  0  0  0  0  0  0  0  0  0
   45.5771   32.7414   45.3339 H   0  0  0  0  0  0  0  0  0  0  0  0
   45.5389   32.1698   43.6309 H   0  0  0  0  0  0  0  0  0  0  0  0
   47.7079   33.0951   43.8131 H   0  0  0  0  0  0  0  0  0  0  0  0
   47.1893   34.4277   44.8534 H   0  0  0  0  0  0  0  0  0  0  0  0
   44.0355   30.0579   39.4621 H   0  0  0  0  0  0  0  0  0  0  0  0
   45.1883   33.7328   37.4247 H   0  0  0  0  0  0  0  0  0  0  0  0
   40.4187   32.6667   41.3042 H   0  0  0  0  0  0  0  0  0  0  0  0
   38.5671   34.7859   37.3617 H   0  0  0  0  0  0  0  0  0  0  0  0
  1  6  2  0
  2  3  2  0
  2  1  1  0
  3  4  1  0
  4  5  2  0
  5  7  1  0
  6  5  1  0
  7  8  1  0
  7 12  1  0
  8  9  1  0
 10  9  1  0
 10 11  1  0
 12 11  1  0
 13  1  1  0
 14 17  1  0
 14 13  1  0
 15 14  2  0
 16 21  2  0
 17 16  1  0
 18 19  1  0
 18 17  2  0
 19 20  2  0
 20 22  1  0
 20 21  1  0
 22 23  2  0
 24 23  1  0
 25 24  1  0
 26 25  2  0
 26 22  1  0
  2 27  1  0
  3 28  1  0
  8 29  1  0
  8 30  1  0
  9 31  1  0
  9 32  1  0
 10 33  1  0
 11 34  1  0
 11 35  1  0
 12 36  1  0
 12 37  1  0
 16 38  1  0
 18 39  1  0
 23 40  1  0
 25 41  1  0
M  ISO  8  27  14  28  14  29  13  30  13  31  13  32  13  33   5  34  13
M  ISO  7  35  13  36  13  37  13  38  14  39  14  40  14  41  14
M  END
>  <minimizedAffinity>  (1) 
-4.98711777

>  <minimizedRMSD>  (1) 
0.747195005

$$$$
