
     RDKit          3D

 35 37  0  0  0  0  0  0  0  0999 V2000
   47.0340   34.3010   42.0770 C   0  0  0  0  0  0  0  0  0  0  0  0
   44.5790   36.1760   44.2970 C   0  0  0  0  0  0  0  0  0  0  0  0
   45.3610   35.8840   43.1570 C   0  0  0  0  0  0  0  0  0  0  0  0
   46.1630   34.7280   43.2030 C   0  0  0  0  0  0  0  0  0  0  0  0
   46.1520   33.9520   44.3260 N   0  0  0  0  0  0  0  0  0  0  0  0
   45.3840   34.2700   45.4020 C   0  0  0  0  0  0  0  0  0  0  0  0
   44.6000   35.3840   45.3760 N   0  0  0  0  0  0  0  0  0  0  0  0
   46.1550   34.2140   40.8390 C   0  0  0  0  0  0  0  0  0  0  0  0
   48.2170   35.1730   41.8410 C   0  0  0  0  0  0  0  0  0  0  0  0
   47.5420   32.9070   42.3600 C   0  0  0  0  0  0  0  0  0  0  0  0
   48.8880   32.6880   41.9270 N   0  0  0  0  0  0  0  0  0  0  0  0
   50.0150   33.0150   42.6180 C   0  0  0  0  0  0  0  0  0  0  0  0
   51.1490   32.6800   41.9450 N   0  0  0  0  0  0  0  0  0  0  0  0
   50.7490   32.1270   40.8000 C   0  0  0  0  0  0  0  0  0  0  0  0
   51.4860   31.6100   39.7450 C   0  0  0  0  0  0  0  0  0  0  0  0
   50.7890   31.1060   38.6950 N   0  0  0  0  0  0  0  0  0  0  0  0
   49.4270   31.1200   38.7040 C   0  0  0  0  0  0  0  0  0  0  0  0
   48.6980   31.6170   39.7200 N   0  0  0  0  0  0  0  0  0  0  0  0
   49.3650   32.1280   40.7820 C   0  0  0  0  0  0  0  0  0  0  0  0
   52.9180   31.6090   39.7630 N   0  0  0  0  0  0  0  0  0  0  0  0
   43.9404   37.0717   44.2979 H   0  0  0  0  0  0  0  0  0  0  0  0
   45.3438   36.5337   42.2695 H   0  0  0  0  0  0  0  0  0  0  0  0
   45.3957   33.6271   46.2945 H   0  0  0  0  0  0  0  0  0  0  0  0
   45.1029   34.1099   41.1429 H   0  0  0  0  0  0  0  0  0  0  0  0
   46.2747   35.1284   40.2393 H   0  0  0  0  0  0  0  0  0  0  0  0
   46.4516   33.3408   40.2393 H   0  0  0  0  0  0  0  0  0  0  0  0
   48.6408   35.4854   42.8068 H   0  0  0  0  0  0  0  0  0  0  0  0
   48.9751   34.6161   41.2709 H   0  0  0  0  0  0  0  0  0  0  0  0
   47.9093   36.0620   41.2709 H   0  0  0  0  0  0  0  0  0  0  0  0
   47.4933   32.7329   43.4450 H   0  0  0  0  0  0  0  0  0  0  0  0
   46.9046   32.2109   41.7950 H   0  0  0  0  0  0  0  0  0  0  0  0
   50.0092   33.4953   43.6076 H   0  0  0  0  0  0  0  0  0  0  0  0
   48.8955   30.7034   37.8357 H   0  0  0  0  0  0  0  0  0  0  0  0
   53.4428   31.2192   38.9670 H   0  0  0  0  0  0  0  0  0  0  0  0
   53.4231   31.9981   40.5719 H   0  0  0  0  0  0  0  0  0  0  0  0
  1 10  1  0
  1  4  1  0
  2  7  2  0
  3  4  2  0
  3  2  1  0
  4  5  1  0
  5  6  2  0
  7  6  1  0
  8  1  1  0
  9  1  1  0
 11 10  1  0
 11 12  1  0
 13 12  2  0
 14 13  1  0
 15 20  1  0
 15 14  2  0
 16 17  2  0
 16 15  1  0
 17 18  1  0
 18 19  2  0
 19 14  1  0
 19 11  1  0
  2 21  1  0
  3 22  1  0
  6 23  1  0
  8 24  1  0
  8 25  1  0
  8 26  1  0
  9 27  1  0
  9 28  1  0
  9 29  1  0
 10 30  1  0
 10 31  1  0
 12 32  1  0
 17 33  1  0
 20 34  1  0
 20 35  1  0
M  ISO  8  21  14  22  14  23  14  24   8  25   8  26   8  27   8  28   8
M  ISO  5  29   8  30   8  31   8  32  14  33  14
M  END
>  <minimizedAffinity>  (1) 
-5.19519997

>  <minimizedRMSD>  (1) 
1.51579297

$$$$
