
     RDKit          3D

 30 31  0  0  0  0  0  0  0  0999 V2000
   47.3260   34.3790   41.9910 C   0  0  0  0  0  0  0  0  0  0  0  0
   44.6720   36.0980   44.1270 C   0  0  0  0  0  0  0  0  0  0  0  0
   45.5290   35.8670   43.0280 C   0  0  0  0  0  0  0  0  0  0  0  0
   46.3830   34.7450   43.0890 C   0  0  0  0  0  0  0  0  0  0  0  0
   46.3360   33.9550   44.1930 N   0  0  0  0  0  0  0  0  0  0  0  0
   45.4980   34.2150   45.2270 C   0  0  0  0  0  0  0  0  0  0  0  0
   44.6720   35.2830   45.1880 N   0  0  0  0  0  0  0  0  0  0  0  0
   46.4960   34.1500   40.7490 C   0  0  0  0  0  0  0  0  0  0  0  0
   48.4040   35.4050   41.7750 C   0  0  0  0  0  0  0  0  0  0  0  0
   47.9950   33.0930   42.3610 C   0  0  0  0  0  0  0  0  0  0  0  0
   48.9800   32.5890   41.3970 C   0  0  0  0  0  0  0  0  0  0  0  0
   48.8770   32.1810   40.0840 C   0  0  0  0  0  0  0  0  0  0  0  0
   49.9790   31.7350   39.3870 C   0  0  0  0  0  0  0  0  0  0  0  0
   51.1690   31.7060   40.0230 N   0  0  0  0  0  0  0  0  0  0  0  0
   51.3040   32.0960   41.3040 C   0  0  0  0  0  0  0  0  0  0  0  0
   50.2170   32.5320   41.9770 N   0  0  0  0  0  0  0  0  0  0  0  0
   43.9928   36.9631   44.1101 H   0  0  0  0  0  0  0  0  0  0  0  0
   45.5307   36.5375   42.1560 H   0  0  0  0  0  0  0  0  0  0  0  0
   45.4909   33.5512   46.1041 H   0  0  0  0  0  0  0  0  0  0  0  0
   45.4730   33.8678   41.0385 H   0  0  0  0  0  0  0  0  0  0  0  0
   46.4666   35.0736   40.1522 H   0  0  0  0  0  0  0  0  0  0  0  0
   46.9443   33.3420   40.1522 H   0  0  0  0  0  0  0  0  0  0  0  0
   48.7747   35.7579   42.7487 H   0  0  0  0  0  0  0  0  0  0  0  0
   49.2321   34.9532   41.2092 H   0  0  0  0  0  0  0  0  0  0  0  0
   47.9937   36.2544   41.2092 H   0  0  0  0  0  0  0  0  0  0  0  0
   48.5086   33.2433   43.3220 H   0  0  0  0  0  0  0  0  0  0  0  0
   47.1958   32.3380   42.3963 H   0  0  0  0  0  0  0  0  0  0  0  0
   47.8977   32.2120   39.5839 H   0  0  0  0  0  0  0  0  0  0  0  0
   49.8910   31.4110   38.3395 H   0  0  0  0  0  0  0  0  0  0  0  0
   52.2869   32.0602   41.7966 H   0  0  0  0  0  0  0  0  0  0  0  0
  1 10  1  0
  1  4  1  0
  2  7  2  0
  3  4  2  0
  3  2  1  0
  4  5  1  0
  5  6  2  0
  7  6  1  0
  8  1  1  0
  9  1  1  0
 11 16  1  0
 11 10  1  0
 12 11  2  0
 13 14  2  0
 13 12  1  0
 14 15  1  0
 15 16  2  0
  2 17  1  0
  3 18  1  0
  6 19  1  0
  8 20  1  0
  8 21  1  0
  8 22  1  0
  9 23  1  0
  9 24  1  0
  9 25  1  0
 10 26  1  0
 10 27  1  0
 12 28  1  0
 13 29  1  0
 15 30  1  0
M  ISO  8  17  14  18  14  19  14  20   8  21   8  22   8  23   8  24   8
M  ISO  6  25   8  26   8  27   8  28  14  29  14  30  14
M  END
>  <minimizedAffinity>  (1) 
-4.58276606

>  <minimizedRMSD>  (1) 
0.344096571

$$$$
