
     RDKit          3D

 29 29  0  0  0  0  0  0  0  0999 V2000
   46.9570   34.4600   42.0170 C   0  0  0  0  0  0  0  0  0  0  0  0
   44.5700   36.0060   44.5400 C   0  0  0  0  0  0  0  0  0  0  0  0
   45.2890   35.8580   43.3250 C   0  0  0  0  0  0  0  0  0  0  0  0
   46.1450   34.7480   43.2240 C   0  0  0  0  0  0  0  0  0  0  0  0
   46.2320   33.8980   44.2750 N   0  0  0  0  0  0  0  0  0  0  0  0
   45.5310   34.0710   45.4170 C   0  0  0  0  0  0  0  0  0  0  0  0
   44.7040   35.1270   45.5400 N   0  0  0  0  0  0  0  0  0  0  0  0
   46.0100   34.2720   40.8540 C   0  0  0  0  0  0  0  0  0  0  0  0
   47.9770   35.5040   41.6990 C   0  0  0  0  0  0  0  0  0  0  0  0
   47.6770   33.1560   42.2090 C   0  0  0  0  0  0  0  0  0  0  0  0
   48.9270   33.2800   42.9040 N   0  0  0  0  0  0  0  0  0  0  0  0
   50.0220   33.1090   42.0130 C   0  0  0  0  0  0  0  0  0  0  0  0
   50.1290   32.6130   40.8280 N   0  0  0  0  0  0  0  0  0  0  0  0
   51.3760   33.4970   42.2900 N   0  0  0  0  0  0  0  0  0  0  0  0
   49.2900   32.2290   40.3340 H   0  0  0  0  0  0  0  0  0  0  0  0
   43.8886   36.8609   44.6620 H   0  0  0  0  0  0  0  0  0  0  0  0
   45.1812   36.5786   42.5009 H   0  0  0  0  0  0  0  0  0  0  0  0
   45.6353   33.3522   46.2431 H   0  0  0  0  0  0  0  0  0  0  0  0
   44.9976   34.0710   41.2343 H   0  0  0  0  0  0  0  0  0  0  0  0
   45.9967   35.1850   40.2407 H   0  0  0  0  0  0  0  0  0  0  0  0
   46.3465   33.4231   40.2407 H   0  0  0  0  0  0  0  0  0  0  0  0
   48.3816   35.9182   42.6343 H   0  0  0  0  0  0  0  0  0  0  0  0
   48.7927   35.0536   41.1143 H   0  0  0  0  0  0  0  0  0  0  0  0
   47.5078   36.3090   41.1143 H   0  0  0  0  0  0  0  0  0  0  0  0
   47.0257   32.4820   42.7847 H   0  0  0  0  0  0  0  0  0  0  0  0
   47.9059   32.7663   41.2061 H   0  0  0  0  0  0  0  0  0  0  0  0
   49.0184   33.4676   43.9126 H   0  0  0  0  0  0  0  0  0  0  0  0
   52.1117   33.3368   41.5871 H   0  0  0  0  0  0  0  0  0  0  0  0
   51.6119   33.9356   43.1916 H   0  0  0  0  0  0  0  0  0  0  0  0
  1 10  1  0
  1  4  1  0
  2  7  2  0
  3  2  1  0
  4  3  2  0
  4  5  1  0
  5  6  2  0
  6  7  1  0
  8  1  1  0
  9  1  1  0
 10 11  1  0
 12 14  1  0
 12 11  1  0
 13 12  2  0
 15 13  1  0
  2 16  1  0
  3 17  1  0
  6 18  1  0
  8 19  1  0
  8 20  1  0
  8 21  1  0
  9 22  1  0
  9 23  1  0
  9 24  1  0
 10 25  1  0
 10 26  1  0
 11 27  1  0
 14 28  1  0
 14 29  1  0
M  ISO  8  16  14  17  14  18  14  19   8  20   8  21   8  22   8  23   8
M  ISO  3  24   8  25   8  26   8
M  END
>  <minimizedAffinity>  (1) 
-4.87981558

>  <minimizedRMSD>  (1) 
1.56079936

$$$$
