
     RDKit          3D

 33 35  0  0  0  0  0  0  0  0999 V2000
   46.7670   34.2770   42.0460 C   0  0  0  0  0  0  0  0  0  0  0  0
   44.5470   36.0100   44.5870 C   0  0  0  0  0  0  0  0  0  0  0  0
   45.2100   35.7710   43.3700 C   0  0  0  0  0  0  0  0  0  0  0  0
   46.0210   34.6330   43.2730 C   0  0  0  0  0  0  0  0  0  0  0  0
   46.1300   33.8150   44.3500 N   0  0  0  0  0  0  0  0  0  0  0  0
   45.4770   34.0710   45.5150 C   0  0  0  0  0  0  0  0  0  0  0  0
   44.6920   35.1570   45.6330 N   0  0  0  0  0  0  0  0  0  0  0  0
   45.7930   34.3210   40.8800 C   0  0  0  0  0  0  0  0  0  0  0  0
   47.9730   35.1150   41.7750 C   0  0  0  0  0  0  0  0  0  0  0  0
   47.2180   32.8380   42.1560 C   0  0  0  0  0  0  0  0  0  0  0  0
   47.9880   32.3790   41.0340 N   0  0  0  0  0  0  0  0  0  0  0  0
   47.3850   32.0670   39.8500 C   0  0  0  0  0  0  0  0  0  0  0  0
   48.3070   31.6570   38.9420 N   0  0  0  0  0  0  0  0  0  0  0  0
   49.4880   31.7160   39.5630 C   0  0  0  0  0  0  0  0  0  0  0  0
   50.8020   31.4420   39.2150 C   0  0  0  0  0  0  0  0  0  0  0  0
   51.8190   31.5960   40.0730 N   0  0  0  0  0  0  0  0  0  0  0  0
   51.5610   32.0390   41.3340 C   0  0  0  0  0  0  0  0  0  0  0  0
   50.3030   32.3320   41.7590 N   0  0  0  0  0  0  0  0  0  0  0  0
   49.3060   32.1640   40.8700 C   0  0  0  0  0  0  0  0  0  0  0  0
   43.9047   36.8968   44.6923 H   0  0  0  0  0  0  0  0  0  0  0  0
   45.0950   36.4580   42.5187 H   0  0  0  0  0  0  0  0  0  0  0  0
   45.5915   33.3850   46.3672 H   0  0  0  0  0  0  0  0  0  0  0  0
   44.7632   34.3675   41.2640 H   0  0  0  0  0  0  0  0  0  0  0  0
   45.9960   35.2109   40.2661 H   0  0  0  0  0  0  0  0  0  0  0  0
   45.9149   33.4164   40.2661 H   0  0  0  0  0  0  0  0  0  0  0  0
   48.4237   35.4281   42.7283 H   0  0  0  0  0  0  0  0  0  0  0  0
   48.7043   34.5295   41.1985 H   0  0  0  0  0  0  0  0  0  0  0  0
   47.6793   36.0046   41.1985 H   0  0  0  0  0  0  0  0  0  0  0  0
   47.8333   32.7368   43.0622 H   0  0  0  0  0  0  0  0  0  0  0  0
   46.3078   32.2213   42.1905 H   0  0  0  0  0  0  0  0  0  0  0  0
   46.3041   32.1378   39.6585 H   0  0  0  0  0  0  0  0  0  0  0  0
   51.0171   31.0851   38.1970 H   0  0  0  0  0  0  0  0  0  0  0  0
   52.4001   32.1644   42.0342 H   0  0  0  0  0  0  0  0  0  0  0  0
  1 10  1  0
  1  4  1  0
  2  7  2  0
  3  2  1  0
  4  3  2  0
  4  5  1  0
  5  6  2  0
  6  7  1  0
  8  1  1  0
  9  1  1  0
 11 10  1  0
 12 11  1  0
 13 14  1  0
 13 12  2  0
 14 19  2  0
 15 14  1  0
 15 16  2  0
 16 17  1  0
 17 18  2  0
 19 11  1  0
 19 18  1  0
  2 20  1  0
  3 21  1  0
  6 22  1  0
  8 23  1  0
  8 24  1  0
  8 25  1  0
  9 26  1  0
  9 27  1  0
  9 28  1  0
 10 29  1  0
 10 30  1  0
 12 31  1  0
 15 32  1  0
 17 33  1  0
M  ISO  8  20  14  21  14  22  14  23   8  24   8  25   8  26   8  27   8
M  ISO  6  28   8  29   8  30   8  31  14  32  14  33  14
M  END
>  <minimizedAffinity>  (1) 
-4.81091738

>  <minimizedRMSD>  (1) 
0.891836762

$$$$
