
     RDKit          3D

 35 36  0  0  0  0  0  0  0  0999 V2000
   47.7110   34.4740   41.8490 C   0  0  0  0  0  0  0  0  0  0  0  0
   44.8530   35.5650   44.1340 C   0  0  0  0  0  0  0  0  0  0  0  0
   45.7030   35.5380   43.0200 C   0  0  0  0  0  0  0  0  0  0  0  0
   46.7440   34.5950   42.9820 C   0  0  0  0  0  0  0  0  0  0  0  0
   46.8630   33.7550   44.0420 N   0  0  0  0  0  0  0  0  0  0  0  0
   46.0310   33.8020   45.1030 C   0  0  0  0  0  0  0  0  0  0  0  0
   45.0310   34.7000   45.1490 N   0  0  0  0  0  0  0  0  0  0  0  0
   46.8580   34.2020   40.6070 C   0  0  0  0  0  0  0  0  0  0  0  0
   48.5880   35.6570   41.6670 C   0  0  0  0  0  0  0  0  0  0  0  0
   48.5580   33.2690   42.0990 C   0  0  0  0  0  0  0  0  0  0  0  0
   49.7220   33.0970   41.3250 N   0  0  0  0  0  0  0  0  0  0  0  0
   49.8080   32.0100   40.4180 C   0  0  0  0  0  0  0  0  0  0  0  0
   51.2820   31.5550   40.3410 C   0  0  0  0  0  0  0  0  0  0  0  0
   51.6390   30.8500   41.4650 O   0  0  0  0  0  0  0  0  0  0  0  0
   50.9490   31.4300   42.5300 C   0  0  0  0  0  0  0  0  0  0  0  0
   50.8290   32.9130   42.2830 C   0  0  0  0  0  0  0  0  0  0  0  0
   44.0346   36.2986   44.1788 H   0  0  0  0  0  0  0  0  0  0  0  0
   45.5575   36.2437   42.1888 H   0  0  0  0  0  0  0  0  0  0  0  0
   46.1718   33.0996   45.9378 H   0  0  0  0  0  0  0  0  0  0  0  0
   45.8522   33.8813   40.9160 H   0  0  0  0  0  0  0  0  0  0  0  0
   46.7816   35.1203   40.0063 H   0  0  0  0  0  0  0  0  0  0  0  0
   47.3273   33.4090   40.0063 H   0  0  0  0  0  0  0  0  0  0  0  0
   48.8805   36.0515   42.6513 H   0  0  0  0  0  0  0  0  0  0  0  0
   49.4883   35.3634   41.1074 H   0  0  0  0  0  0  0  0  0  0  0  0
   48.0453   36.4331   41.1074 H   0  0  0  0  0  0  0  0  0  0  0  0
   48.8704   33.3039   43.1531 H   0  0  0  0  0  0  0  0  0  0  0  0
   47.9157   32.4227   41.8138 H   0  0  0  0  0  0  0  0  0  0  0  0
   49.1808   31.1791   40.7733 H   0  0  0  0  0  0  0  0  0  0  0  0
   49.4553   32.3191   39.4230 H   0  0  0  0  0  0  0  0  0  0  0  0
   51.4149   30.9140   39.4570 H   0  0  0  0  0  0  0  0  0  0  0  0
   51.9210   32.4475   40.2694 H   0  0  0  0  0  0  0  0  0  0  0  0
   49.9456   30.9857   42.6059 H   0  0  0  0  0  0  0  0  0  0  0  0
   51.4932   31.2509   43.4690 H   0  0  0  0  0  0  0  0  0  0  0  0
   51.7658   33.3033   41.8588 H   0  0  0  0  0  0  0  0  0  0  0  0
   50.6343   33.4549   43.2202 H   0  0  0  0  0  0  0  0  0  0  0  0
  1 10  1  0
  1  4  1  0
  2  7  2  0
  3  2  1  0
  4  3  2  0
  4  5  1  0
  5  6  2  0
  6  7  1  0
  8  1  1  0
  9  1  1  0
 11 10  1  0
 11 16  1  0
 12 11  1  0
 13 12  1  0
 13 14  1  0
 14 15  1  0
 16 15  1  0
  2 17  1  0
  3 18  1  0
  6 19  1  0
  8 20  1  0
  8 21  1  0
  8 22  1  0
  9 23  1  0
  9 24  1  0
  9 25  1  0
 10 26  1  0
 10 27  1  0
 12 28  1  0
 12 29  1  0
 13 30  1  0
 13 31  1  0
 15 32  1  0
 15 33  1  0
 16 34  1  0
 16 35  1  0
M  ISO  8  17  14  18  14  19  14  20   8  21   8  22   8  23   8  24   8
M  ISO  8  25   8  26   8  27   8  28  13  29  13  30  13  31  13  32  13
M  ISO  3  33  13  34  13  35  13
M  END
>  <minimizedAffinity>  (1) 
-4.5275836

>  <minimizedRMSD>  (1) 
1.77992022

$$$$
