
     RDKit          3D

 28 29  0  0  0  0  0  0  0  0999 V2000
   47.2860   34.2290   42.2250 C   0  0  0  0  0  0  0  0  0  0  0  0
   44.6510   36.0820   44.2510 C   0  0  0  0  0  0  0  0  0  0  0  0
   45.5120   35.7900   43.1660 C   0  0  0  0  0  0  0  0  0  0  0  0
   46.3390   34.6520   43.2800 C   0  0  0  0  0  0  0  0  0  0  0  0
   46.2570   33.9110   44.4210 N   0  0  0  0  0  0  0  0  0  0  0  0
   45.4180   34.2250   45.4380 C   0  0  0  0  0  0  0  0  0  0  0  0
   44.6210   35.3080   45.3460 N   0  0  0  0  0  0  0  0  0  0  0  0
   46.4690   34.0900   40.9360 C   0  0  0  0  0  0  0  0  0  0  0  0
   48.4560   35.1190   42.0350 C   0  0  0  0  0  0  0  0  0  0  0  0
   47.7980   32.8500   42.5640 C   0  0  0  0  0  0  0  0  0  0  0  0
   49.0130   32.5340   41.8440 N   0  0  0  0  0  0  0  0  0  0  0  0
   50.2950   32.6680   42.2320 C   0  0  0  0  0  0  0  0  0  0  0  0
   51.1440   32.2580   41.2640 N   0  0  0  0  0  0  0  0  0  0  0  0
   50.3470   31.8570   40.2480 C   0  0  0  0  0  0  0  0  0  0  0  0
   49.0660   32.0330   40.6200 N   0  0  0  0  0  0  0  0  0  0  0  0
   43.9930   36.9617   44.1949 H   0  0  0  0  0  0  0  0  0  0  0  0
   45.5356   36.4256   42.2685 H   0  0  0  0  0  0  0  0  0  0  0  0
   45.3875   33.5953   46.3394 H   0  0  0  0  0  0  0  0  0  0  0  0
   45.4135   33.9104   41.1884 H   0  0  0  0  0  0  0  0  0  0  0  0
   46.5529   35.0153   40.3471 H   0  0  0  0  0  0  0  0  0  0  0  0
   46.8542   33.2445   40.3471 H   0  0  0  0  0  0  0  0  0  0  0  0
   48.8512   35.4196   43.0165 H   0  0  0  0  0  0  0  0  0  0  0  0
   49.2363   34.5841   41.4737 H   0  0  0  0  0  0  0  0  0  0  0  0
   48.1488   36.0138   41.4737 H   0  0  0  0  0  0  0  0  0  0  0  0
   48.0016   32.8017   43.6439 H   0  0  0  0  0  0  0  0  0  0  0  0
   47.0290   32.1194   42.2727 H   0  0  0  0  0  0  0  0  0  0  0  0
   50.6105   33.0603   43.2100 H   0  0  0  0  0  0  0  0  0  0  0  0
   50.6877   31.4555   39.2822 H   0  0  0  0  0  0  0  0  0  0  0  0
  1 10  1  0
  1  4  1  0
  2  7  2  0
  3  4  2  0
  3  2  1  0
  4  5  1  0
  5  6  2  0
  7  6  1  0
  8  1  1  0
  9  1  1  0
 11 12  1  0
 11 10  1  0
 13 12  2  0
 14 15  2  0
 14 13  1  0
 15 11  1  0
  2 16  1  0
  3 17  1  0
  6 18  1  0
  8 19  1  0
  8 20  1  0
  8 21  1  0
  9 22  1  0
  9 23  1  0
  9 24  1  0
 10 25  1  0
 10 26  1  0
 12 27  1  0
 14 28  1  0
M  ISO  8  16  14  17  14  18  14  19   8  20   8  21   8  22   8  23   8
M  ISO  5  24   8  25   8  26   8  27  14  28  14
M  END
>  <minimizedAffinity>  (1) 
-4.29796886

>  <minimizedRMSD>  (1) 
0.750285387

$$$$
