
     RDKit          3D

 37 38  0  0  0  0  0  0  0  0999 V2000
   47.4000   34.4650   41.9110 C   0  0  0  0  0  0  0  0  0  0  0  0
   44.7080   35.7460   44.3020 C   0  0  0  0  0  0  0  0  0  0  0  0
   45.5000   35.6620   43.1450 C   0  0  0  0  0  0  0  0  0  0  0  0
   46.4820   34.6570   43.0790 C   0  0  0  0  0  0  0  0  0  0  0  0
   46.6040   33.8220   44.1450 N   0  0  0  0  0  0  0  0  0  0  0  0
   45.8230   33.9300   45.2460 C   0  0  0  0  0  0  0  0  0  0  0  0
   44.8780   34.8950   45.3160 N   0  0  0  0  0  0  0  0  0  0  0  0
   46.5020   34.2300   40.7140 C   0  0  0  0  0  0  0  0  0  0  0  0
   48.3330   35.6170   41.6900 C   0  0  0  0  0  0  0  0  0  0  0  0
   48.2250   33.2500   42.1690 C   0  0  0  0  0  0  0  0  0  0  0  0
   49.3750   33.0080   41.4180 N   0  0  0  0  0  0  0  0  0  0  0  0
   49.3870   32.1950   40.2810 C   0  0  0  0  0  0  0  0  0  0  0  0
   49.3110   30.7360   40.7550 C   0  0  0  0  0  0  0  0  0  0  0  0
   50.6780   30.4350   41.3400 C   0  0  0  0  0  0  0  0  0  0  0  0
   51.4200   31.6670   41.7000 C   0  0  0  0  0  0  0  0  0  0  0  0
   50.5880   32.8210   42.1730 C   0  0  0  0  0  0  0  0  0  0  0  0
   43.9353   36.5256   44.3735 H   0  0  0  0  0  0  0  0  0  0  0  0
   45.3559   36.3648   42.3111 H   0  0  0  0  0  0  0  0  0  0  0  0
   45.9575   33.2315   46.0851 H   0  0  0  0  0  0  0  0  0  0  0  0
   45.4918   33.9656   41.0598 H   0  0  0  0  0  0  0  0  0  0  0  0
   46.4537   35.1457   40.1065 H   0  0  0  0  0  0  0  0  0  0  0  0
   46.9084   33.4080   40.1065 H   0  0  0  0  0  0  0  0  0  0  0  0
   48.6575   36.0177   42.6617 H   0  0  0  0  0  0  0  0  0  0  0  0
   49.2111   35.2741   41.1231 H   0  0  0  0  0  0  0  0  0  0  0  0
   47.8152   36.4047   41.1231 H   0  0  0  0  0  0  0  0  0  0  0  0
   48.5396   33.2992   43.2219 H   0  0  0  0  0  0  0  0  0  0  0  0
   47.5568   32.4274   41.8744 H   0  0  0  0  0  0  0  0  0  0  0  0
   50.3150   32.3574   39.7131 H   0  0  0  0  0  0  0  0  0  0  0  0
   48.5367   32.4338   39.6253 H   0  0  0  0  0  0  0  0  0  0  0  0
   48.5298   30.6195   41.5206 H   0  0  0  0  0  0  0  0  0  0  0  0
   49.0556   30.0501   39.9338 H   0  0  0  0  0  0  0  0  0  0  0  0
   50.5485   29.8230   42.2448 H   0  0  0  0  0  0  0  0  0  0  0  0
   51.2616   29.9024   40.5746 H   0  0  0  0  0  0  0  0  0  0  0  0
   52.1277   31.4112   42.5023 H   0  0  0  0  0  0  0  0  0  0  0  0
   51.8979   32.0077   40.7697 H   0  0  0  0  0  0  0  0  0  0  0  0
   51.1903   33.7382   42.0955 H   0  0  0  0  0  0  0  0  0  0  0  0
   50.2912   32.6003   43.2090 H   0  0  0  0  0  0  0  0  0  0  0  0
  1 10  1  0
  1  4  1  0
  2  7  2  0
  3  2  1  0
  4  3  2  0
  4  5  1  0
  5  6  2  0
  6  7  1  0
  8  1  1  0
  9  1  1  0
 11 10  1  0
 11 16  1  0
 12 13  1  0
 12 11  1  0
 13 14  1  0
 14 15  1  0
 15 16  1  0
  2 17  1  0
  3 18  1  0
  6 19  1  0
  8 20  1  0
  8 21  1  0
  8 22  1  0
  9 23  1  0
  9 24  1  0
  9 25  1  0
 10 26  1  0
 10 27  1  0
 12 28  1  0
 12 29  1  0
 13 30  1  0
 13 31  1  0
 14 32  1  0
 14 33  1  0
 15 34  1  0
 15 35  1  0
 16 36  1  0
 16 37  1  0
M  ISO  8  17  14  18  14  19  14  20   8  21   8  22   8  23   8  24   8
M  ISO  8  25   8  26   8  27   8  28  13  29  13  30  13  31  13  32  13
M  ISO  5  33  13  34  13  35  13  36  13  37  13
M  END
>  <minimizedAffinity>  (1) 
-4.39371586

>  <minimizedRMSD>  (1) 
1.17831612

$$$$
