
     RDKit          3D

 24 24  0  0  0  0  0  0  0  0999 V2000
   47.2960   34.4380   41.9920 C   0  0  0  0  0  0  0  0  0  0  0  0
   44.6710   36.0190   44.2280 C   0  0  0  0  0  0  0  0  0  0  0  0
   45.5000   35.8370   43.0970 C   0  0  0  0  0  0  0  0  0  0  0  0
   46.3760   34.7420   43.1100 C   0  0  0  0  0  0  0  0  0  0  0  0
   46.3840   33.9210   44.1960 N   0  0  0  0  0  0  0  0  0  0  0  0
   45.5760   34.1290   45.2570 C   0  0  0  0  0  0  0  0  0  0  0  0
   44.7200   35.1800   45.2700 N   0  0  0  0  0  0  0  0  0  0  0  0
   46.4660   34.1920   40.7540 C   0  0  0  0  0  0  0  0  0  0  0  0
   48.3410   35.4730   41.7390 C   0  0  0  0  0  0  0  0  0  0  0  0
   48.0270   33.1450   42.3020 C   0  0  0  0  0  0  0  0  0  0  0  0
   49.1150   32.8900   41.4040 N   0  0  0  0  0  0  0  0  0  0  0  0
   43.9714   36.8675   44.2521 H   0  0  0  0  0  0  0  0  0  0  0  0
   45.4594   36.5268   42.2411 H   0  0  0  0  0  0  0  0  0  0  0  0
   45.6123   33.4422   46.1155 H   0  0  0  0  0  0  0  0  0  0  0  0
   45.4497   33.8908   41.0478 H   0  0  0  0  0  0  0  0  0  0  0  0
   46.4168   35.1142   40.1564 H   0  0  0  0  0  0  0  0  0  0  0  0
   46.9272   33.3919   40.1564 H   0  0  0  0  0  0  0  0  0  0  0  0
   48.7227   35.8510   42.6989 H   0  0  0  0  0  0  0  0  0  0  0  0
   49.1673   35.0273   41.1658 H   0  0  0  0  0  0  0  0  0  0  0  0
   47.9033   36.3036   41.1658 H   0  0  0  0  0  0  0  0  0  0  0  0
   48.4236   33.2030   43.3264 H   0  0  0  0  0  0  0  0  0  0  0  0
   47.3055   32.3225   42.1883 H   0  0  0  0  0  0  0  0  0  0  0  0
   49.9678   32.6901   41.9459 H   0  0  0  0  0  0  0  0  0  0  0  0
   48.8875   32.0795   40.8104 H   0  0  0  0  0  0  0  0  0  0  0  0
  1 10  1  0
  1  4  1  0
  2  7  2  0
  3  4  2  0
  3  2  1  0
  4  5  1  0
  5  6  2  0
  6  7  1  0
  8  1  1  0
  9  1  1  0
 11 10  1  0
  2 12  1  0
  3 13  1  0
  6 14  1  0
  8 15  1  0
  8 16  1  0
  8 17  1  0
  9 18  1  0
  9 19  1  0
  9 20  1  0
 10 21  1  0
 10 22  1  0
 11 23  1  0
 11 24  1  0
M  ISO  8  12  14  13  14  14  14  15   8  16   8  17   8  18   8  19   8
M  ISO  5  20   8  21   8  22   8  23   5  24   5
M  END
>  <minimizedAffinity>  (1) 
-3.8244319

>  <minimizedRMSD>  (1) 
0.098954156

$$$$
