
     RDKit          3D

 44 47  0  0  0  0  0  0  0  0999 V2000
   44.8710   34.0220   41.9860 C   0  0  0  0  0  0  0  0  0  0  0  0
   45.7810   34.8560   42.8840 C   0  0  0  0  0  0  0  0  0  0  0  0
   45.1800   34.4460   45.2510 C   0  0  0  0  0  0  0  0  0  0  0  0
   46.0010   34.1200   44.1460 C   0  0  0  0  0  0  0  0  0  0  0  0
   46.9340   33.1270   44.3740 C   0  0  0  0  0  0  0  0  0  0  0  0
   47.0330   32.5310   45.5690 N   0  0  0  0  0  0  0  0  0  0  0  0
   46.2290   32.8750   46.5900 C   0  0  0  0  0  0  0  0  0  0  0  0
   45.2890   33.8430   46.4350 N   0  0  0  0  0  0  0  0  0  0  0  0
   47.0940   35.1220   42.2060 C   0  0  0  0  0  0  0  0  0  0  0  0
   45.0850   36.1480   43.1580 C   0  0  0  0  0  0  0  0  0  0  0  0
   43.5890   34.5530   42.0610 O   0  0  0  0  0  0  0  0  0  0  0  0
   42.7750   34.4650   40.9510 C   0  0  0  0  0  0  0  0  0  0  0  0
   42.9010   35.3060   39.8600 C   0  0  0  0  0  0  0  0  0  0  0  0
   41.9240   34.9240   38.9500 C   0  0  0  0  0  0  0  0  0  0  0  0
   41.2450   33.8900   39.4890 N   0  0  0  0  0  0  0  0  0  0  0  0
   41.7480   33.6160   40.6770 N   0  0  0  0  0  0  0  0  0  0  0  0
   40.1660   33.2780   38.7790 C   0  0  0  0  0  0  0  0  0  0  0  0
   38.9230   33.8440   38.5380 C   0  0  0  0  0  0  0  0  0  0  0  0
   38.1520   32.9240   37.8100 C   0  0  0  0  0  0  0  0  0  0  0  0
   38.9500   31.8600   37.6450 N   0  0  0  0  0  0  0  0  0  0  0  0
   40.1340   32.0680   38.2150 N   0  0  0  0  0  0  0  0  0  0  0  0
   38.5930   30.6660   36.9570 C   0  0  0  0  0  0  0  0  0  0  0  0
   38.4590   29.4060   37.5030 C   0  0  0  0  0  0  0  0  0  0  0  0
   38.1090   28.5350   36.5290 N   0  0  0  0  0  0  0  0  0  0  0  0
   38.0280   29.2520   35.3940 C   0  0  0  0  0  0  0  0  0  0  0  0
   38.3170   30.5250   35.6480 N   0  0  0  0  0  0  0  0  0  0  0  0
   44.8629   32.9773   42.3301 H   0  0  0  0  0  0  0  0  0  0  0  0
   45.2338   34.0451   40.9478 H   0  0  0  0  0  0  0  0  0  0  0  0
   44.4190   35.2307   45.1280 H   0  0  0  0  0  0  0  0  0  0  0  0
   47.6072   32.8206   43.5598 H   0  0  0  0  0  0  0  0  0  0  0  0
   46.3334   32.3676   47.5604 H   0  0  0  0  0  0  0  0  0  0  0  0
   47.8736   35.2799   42.9658 H   0  0  0  0  0  0  0  0  0  0  0  0
   47.3635   34.2602   41.5778 H   0  0  0  0  0  0  0  0  0  0  0  0
   47.0068   36.0207   41.5778 H   0  0  0  0  0  0  0  0  0  0  0  0
   45.0043   36.2977   44.2448 H   0  0  0  0  0  0  0  0  0  0  0  0
   45.6596   36.9751   42.7156 H   0  0  0  0  0  0  0  0  0  0  0  0
   44.0782   36.1232   42.7156 H   0  0  0  0  0  0  0  0  0  0  0  0
   43.6322   36.1186   39.7372 H   0  0  0  0  0  0  0  0  0  0  0  0
   41.7374   35.3817   37.9673 H   0  0  0  0  0  0  0  0  0  0  0  0
   38.5969   34.8433   38.8620 H   0  0  0  0  0  0  0  0  0  0  0  0
   37.1190   33.0491   37.4531 H   0  0  0  0  0  0  0  0  0  0  0  0
   38.6124   29.1504   38.5618 H   0  0  0  0  0  0  0  0  0  0  0  0
   37.7631   28.8471   34.4061 H   0  0  0  0  0  0  0  0  0  0  0  0
   38.3278   31.2839   34.9517 H   0  0  0  0  0  0  0  0  0  0  0  0
  1 11  1  0
  1  2  1  0
  2 10  1  0
  2  4  1  0
  3  8  2  0
  4  5  2  0
  4  3  1  0
  5  6  1  0
  6  7  2  0
  8  7  1  0
  9  2  1  0
 12 11  1  0
 13 12  1  0
 14 15  1  0
 14 13  2  0
 15 16  1  0
 16 12  2  0
 17 15  1  0
 18 17  1  0
 19 18  2  0
 20 19  1  0
 20 21  1  0
 21 17  2  0
 22 23  2  0
 22 20  1  0
 24 23  1  0
 25 26  1  0
 25 24  2  0
 26 22  1  0
  1 27  1  0
  1 28  1  0
  3 29  1  0
  5 30  1  0
  7 31  1  0
  9 32  1  0
  9 33  1  0
  9 34  1  0
 10 35  1  0
 10 36  1  0
 10 37  1  0
 13 38  1  0
 14 39  1  0
 18 40  1  0
 19 41  1  0
 23 42  1  0
 25 43  1  0
 26 44  1  0
M  ISO  8  27   8  28   8  29  14  30  14  31  14  32   8  33   8  34   8
M  ISO  8  35   8  36   8  37   8  38  14  39  14  40  14  41  14  42  14
M  ISO  2  43  14  44   9
M  END
>  <minimizedAffinity>  (1) 
-5.76070738

>  <minimizedRMSD>  (1) 
2.1275847

$$$$
