
     RDKit          3D

 23 23  0  0  0  0  0  0  0  0999 V2000
   47.2990   34.4290   42.0020 C   0  0  0  0  0  0  0  0  0  0  0  0
   44.6680   36.0280   44.2300 C   0  0  0  0  0  0  0  0  0  0  0  0
   45.5000   35.8420   43.1000 C   0  0  0  0  0  0  0  0  0  0  0  0
   46.3840   34.7310   43.1140 C   0  0  0  0  0  0  0  0  0  0  0  0
   46.3740   33.9240   44.2030 N   0  0  0  0  0  0  0  0  0  0  0  0
   45.5650   34.1290   45.2690 C   0  0  0  0  0  0  0  0  0  0  0  0
   44.7100   35.1910   45.2720 N   0  0  0  0  0  0  0  0  0  0  0  0
   46.4600   34.1880   40.7650 C   0  0  0  0  0  0  0  0  0  0  0  0
   48.3460   35.4640   41.7500 C   0  0  0  0  0  0  0  0  0  0  0  0
   48.0140   33.1240   42.3170 C   0  0  0  0  0  0  0  0  0  0  0  0
   47.4750   31.8960   41.0810 S   0  0  0  0  0  0  0  0  0  0  0  0
   43.9719   36.8794   44.2514 H   0  0  0  0  0  0  0  0  0  0  0  0
   45.4631   36.5317   42.2439 H   0  0  0  0  0  0  0  0  0  0  0  0
   45.5973   33.4426   46.1279 H   0  0  0  0  0  0  0  0  0  0  0  0
   45.4424   33.8957   41.0634 H   0  0  0  0  0  0  0  0  0  0  0  0
   46.4161   35.1098   40.1664 H   0  0  0  0  0  0  0  0  0  0  0  0
   46.9120   33.3834   40.1664 H   0  0  0  0  0  0  0  0  0  0  0  0
   48.7275   35.8411   42.7104 H   0  0  0  0  0  0  0  0  0  0  0  0
   49.1722   35.0178   41.1770 H   0  0  0  0  0  0  0  0  0  0  0  0
   47.9094   36.2953   41.1770 H   0  0  0  0  0  0  0  0  0  0  0  0
   49.1029   33.2672   42.2549 H   0  0  0  0  0  0  0  0  0  0  0  0
   47.7716   32.7836   43.3345 H   0  0  0  0  0  0  0  0  0  0  0  0
   46.9882   30.7870   41.7213 H   0  0  0  0  0  0  0  0  0  0  0  0
  1 10  1  0
  1  4  1  0
  2  7  2  0
  3  4  2  0
  3  2  1  0
  4  5  1  0
  5  6  2  0
  6  7  1  0
  8  1  1  0
  9  1  1  0
 11 10  1  0
  2 12  1  0
  3 13  1  0
  6 14  1  0
  8 15  1  0
  8 16  1  0
  8 17  1  0
  9 18  1  0
  9 19  1  0
  9 20  1  0
 10 21  1  0
 10 22  1  0
 11 23  1  0
M  ISO  8  12  14  13  14  14  14  15   8  16   8  17   8  18   8  19   8
M  ISO  4  20   8  21   8  22   8  23  11
M  END
>  <minimizedAffinity>  (1) 
-3.75919533

>  <minimizedRMSD>  (1) 
0.491668671

$$$$
