
     RDKit          3D

 23 23  0  0  0  0  0  0  0  0999 V2000
   47.2920   34.4390   42.0090 C   0  0  0  0  0  0  0  0  0  0  0  0
   44.6590   36.0400   44.2280 C   0  0  0  0  0  0  0  0  0  0  0  0
   45.4940   35.8460   43.1030 C   0  0  0  0  0  0  0  0  0  0  0  0
   46.3750   34.7460   43.1170 C   0  0  0  0  0  0  0  0  0  0  0  0
   46.3760   33.9280   44.2110 N   0  0  0  0  0  0  0  0  0  0  0  0
   45.5530   34.1540   45.2730 C   0  0  0  0  0  0  0  0  0  0  0  0
   44.7030   35.1990   45.2820 N   0  0  0  0  0  0  0  0  0  0  0  0
   46.4430   34.1910   40.7680 C   0  0  0  0  0  0  0  0  0  0  0  0
   48.3370   35.4600   41.7510 C   0  0  0  0  0  0  0  0  0  0  0  0
   47.9900   33.1310   42.3130 C   0  0  0  0  0  0  0  0  0  0  0  0
   47.1290   32.0270   42.1810 O   0  0  0  0  0  0  0  0  0  0  0  0
   43.9620   36.8909   44.2438 H   0  0  0  0  0  0  0  0  0  0  0  0
   45.4570   36.5322   42.2440 H   0  0  0  0  0  0  0  0  0  0  0  0
   45.5831   33.4728   46.1362 H   0  0  0  0  0  0  0  0  0  0  0  0
   45.4281   33.8945   41.0713 H   0  0  0  0  0  0  0  0  0  0  0  0
   46.3922   35.1118   40.1684 H   0  0  0  0  0  0  0  0  0  0  0  0
   46.8959   33.3876   40.1684 H   0  0  0  0  0  0  0  0  0  0  0  0
   48.7243   35.8384   42.7085 H   0  0  0  0  0  0  0  0  0  0  0  0
   49.1584   35.0069   41.1766 H   0  0  0  0  0  0  0  0  0  0  0  0
   47.9031   36.2917   41.1766 H   0  0  0  0  0  0  0  0  0  0  0  0
   48.8325   33.0086   41.6164 H   0  0  0  0  0  0  0  0  0  0  0  0
   48.3359   33.1670   43.3566 H   0  0  0  0  0  0  0  0  0  0  0  0
   46.8731   31.6988   43.0793 H   0  0  0  0  0  0  0  0  0  0  0  0
  1 10  1  0
  1  4  1  0
  2  7  2  0
  3  4  2  0
  3  2  1  0
  4  5  1  0
  5  6  2  0
  6  7  1  0
  8  1  1  0
  9  1  1  0
 11 10  1  0
  2 12  1  0
  3 13  1  0
  6 14  1  0
  8 15  1  0
  8 16  1  0
  8 17  1  0
  9 18  1  0
  9 19  1  0
  9 20  1  0
 10 21  1  0
 10 22  1  0
 11 23  1  0
M  ISO  8  12  14  13  14  14  14  15   8  16   8  17   8  18   8  19   8
M  ISO  4  20   8  21   8  22   8  23   3
M  END
>  <minimizedAffinity>  (1) 
-3.7626164

>  <minimizedRMSD>  (1) 
0.0918768644

$$$$
