
     RDKit          3D

 36 37  0  0  0  0  0  0  0  0999 V2000
   47.3410   34.4800   41.9870 C   0  0  0  0  0  0  0  0  0  0  0  0
   44.6960   35.9490   44.2710 C   0  0  0  0  0  0  0  0  0  0  0  0
   45.5230   35.8010   43.1390 C   0  0  0  0  0  0  0  0  0  0  0  0
   46.4340   34.7330   43.1080 C   0  0  0  0  0  0  0  0  0  0  0  0
   46.4680   33.8930   44.1820 N   0  0  0  0  0  0  0  0  0  0  0  0
   45.6550   34.0660   45.2570 C   0  0  0  0  0  0  0  0  0  0  0  0
   44.7790   35.0770   45.3090 N   0  0  0  0  0  0  0  0  0  0  0  0
   46.4850   34.2830   40.7370 C   0  0  0  0  0  0  0  0  0  0  0  0
   48.3750   35.5100   41.7590 C   0  0  0  0  0  0  0  0  0  0  0  0
   48.0410   33.1520   42.2090 C   0  0  0  0  0  0  0  0  0  0  0  0
   47.9790   32.3250   41.0850 O   0  0  0  0  0  0  0  0  0  0  0  0
   51.6810   31.1630   39.6710 C   0  0  0  0  0  0  0  0  0  0  0  0
   50.5950   30.9470   38.8330 C   0  0  0  0  0  0  0  0  0  0  0  0
   49.3390   31.3200   39.2650 C   0  0  0  0  0  0  0  0  0  0  0  0
   49.1650   31.8960   40.5050 C   0  0  0  0  0  0  0  0  0  0  0  0
   50.2800   32.0970   41.3180 C   0  0  0  0  0  0  0  0  0  0  0  0
   51.5650   31.7370   40.9240 C   0  0  0  0  0  0  0  0  0  0  0  0
   53.2740   30.6890   39.1210 S   0  0  0  0  0  0  0  0  0  0  0  0
   54.2090   30.4050   40.2640 O   0  0  0  0  0  0  0  0  0  0  0  0
   53.9160   31.7500   38.2840 O   0  0  0  0  0  0  0  0  0  0  0  0
   43.9759   36.7794   44.3141 H   0  0  0  0  0  0  0  0  0  0  0  0
   45.4561   36.5070   42.2981 H   0  0  0  0  0  0  0  0  0  0  0  0
   45.7178   33.3623   46.1001 H   0  0  0  0  0  0  0  0  0  0  0  0
   45.4526   34.0454   41.0333 H   0  0  0  0  0  0  0  0  0  0  0  0
   46.4916   35.2061   40.1389 H   0  0  0  0  0  0  0  0  0  0  0  0
   46.8945   33.4556   40.1389 H   0  0  0  0  0  0  0  0  0  0  0  0
   48.7451   35.8786   42.7271 H   0  0  0  0  0  0  0  0  0  0  0  0
   49.2088   35.0729   41.1901 H   0  0  0  0  0  0  0  0  0  0  0  0
   47.9411   36.3455   41.1901 H   0  0  0  0  0  0  0  0  0  0  0  0
   49.0972   33.3447   42.4484 H   0  0  0  0  0  0  0  0  0  0  0  0
   47.5292   32.6360   43.0347 H   0  0  0  0  0  0  0  0  0  0  0  0
   50.7336   30.4872   37.8434 H   0  0  0  0  0  0  0  0  0  0  0  0
   48.4680   31.1561   38.6135 H   0  0  0  0  0  0  0  0  0  0  0  0
   50.1385   32.5570   42.3071 H   0  0  0  0  0  0  0  0  0  0  0  0
   52.4388   31.8996   41.5721 H   0  0  0  0  0  0  0  0  0  0  0  0
   53.0717   29.5533   38.3819 H   0  0  0  0  0  0  0  0  0  0  0  0
  1 10  1  0
  1  4  1  0
  2  7  2  0
  3  2  1  0
  4  3  2  0
  4  5  1  0
  5  6  2  0
  6  7  1  0
  8  1  1  0
  9  1  1  0
 11 10  1  0
 12 17  2  0
 13 14  2  0
 13 12  1  0
 14 15  1  0
 15 11  1  0
 15 16  2  0
 17 16  1  0
 18 12  1  0
 18 19  2  0
 20 18  2  0
  2 21  1  0
  3 22  1  0
  6 23  1  0
  8 24  1  0
  8 25  1  0
  8 26  1  0
  9 27  1  0
  9 28  1  0
  9 29  1  0
 10 30  1  0
 10 31  1  0
 13 32  1  0
 14 33  1  0
 16 34  1  0
 17 35  1  0
 18 36  1  0
M  ISO  8  21  14  22  14  23  14  24   8  25   8  26   8  27   8  28   8
M  ISO  8  29   8  30   8  31   8  32  14  33  14  34  14  35  14  36  11
M  END
>  <minimizedAffinity>  (1) 
-4.69732666

>  <minimizedRMSD>  (1) 
3.6469214

$$$$
