
     RDKit          3D

 31 32  0  0  0  0  0  0  0  0999 V2000
   47.0880   34.4500   42.0580 C   0  0  0  0  0  0  0  0  0  0  0  0
   44.5830   36.0310   44.4410 C   0  0  0  0  0  0  0  0  0  0  0  0
   45.3630   35.8450   43.2660 C   0  0  0  0  0  0  0  0  0  0  0  0
   46.2310   34.7450   43.2200 C   0  0  0  0  0  0  0  0  0  0  0  0
   46.2750   33.9130   44.3100 N   0  0  0  0  0  0  0  0  0  0  0  0
   45.5130   34.1280   45.4120 C   0  0  0  0  0  0  0  0  0  0  0  0
   44.6740   35.1770   45.4780 N   0  0  0  0  0  0  0  0  0  0  0  0
   46.1880   34.2370   40.8600 C   0  0  0  0  0  0  0  0  0  0  0  0
   48.1410   35.4460   41.7800 C   0  0  0  0  0  0  0  0  0  0  0  0
   47.7760   33.1160   42.3220 C   0  0  0  0  0  0  0  0  0  0  0  0
   49.1810   33.2450   42.3480 O   0  0  0  0  0  0  0  0  0  0  0  0
   49.9170   32.6020   41.3620 C   0  0  0  0  0  0  0  0  0  0  0  0
   51.2480   32.2760   41.5980 C   0  0  0  0  0  0  0  0  0  0  0  0
   51.9240   31.6330   40.5650 C   0  0  0  0  0  0  0  0  0  0  0  0
   51.3560   31.3270   39.3930 N   0  0  0  0  0  0  0  0  0  0  0  0
   50.0560   31.6550   39.1860 C   0  0  0  0  0  0  0  0  0  0  0  0
   49.3650   32.2780   40.1560 N   0  0  0  0  0  0  0  0  0  0  0  0
   43.8943   36.8864   44.5034 H   0  0  0  0  0  0  0  0  0  0  0  0
   45.2874   36.5430   42.4192 H   0  0  0  0  0  0  0  0  0  0  0  0
   45.5825   33.4347   46.2632 H   0  0  0  0  0  0  0  0  0  0  0  0
   45.1711   33.9963   41.2035 H   0  0  0  0  0  0  0  0  0  0  0  0
   46.1625   35.1539   40.2529 H   0  0  0  0  0  0  0  0  0  0  0  0
   46.5762   33.4059   40.2529 H   0  0  0  0  0  0  0  0  0  0  0  0
   48.5445   35.8277   42.7295 H   0  0  0  0  0  0  0  0  0  0  0  0
   48.9488   34.9738   41.2017 H   0  0  0  0  0  0  0  0  0  0  0  0
   47.7145   36.2788   41.2017 H   0  0  0  0  0  0  0  0  0  0  0  0
   47.4365   32.7268   43.2932 H   0  0  0  0  0  0  0  0  0  0  0  0
   47.5117   32.4284   41.5051 H   0  0  0  0  0  0  0  0  0  0  0  0
   51.7413   32.5140   42.5519 H   0  0  0  0  0  0  0  0  0  0  0  0
   52.9789   31.3627   40.7202 H   0  0  0  0  0  0  0  0  0  0  0  0
   49.5701   31.4124   38.2294 H   0  0  0  0  0  0  0  0  0  0  0  0
  1 10  1  0
  1  4  1  0
  2  7  2  0
  3  2  1  0
  4  3  2  0
  4  5  1  0
  5  6  2  0
  6  7  1  0
  8  1  1  0
  9  1  1  0
 10 11  1  0
 12 13  2  0
 12 11  1  0
 14 13  1  0
 15 14  2  0
 16 15  1  0
 16 17  2  0
 17 12  1  0
  2 18  1  0
  3 19  1  0
  6 20  1  0
  8 21  1  0
  8 22  1  0
  8 23  1  0
  9 24  1  0
  9 25  1  0
  9 26  1  0
 10 27  1  0
 10 28  1  0
 13 29  1  0
 14 30  1  0
 16 31  1  0
M  ISO  8  18  14  19  14  20  14  21   8  22   8  23   8  24   8  25   8
M  ISO  6  26   8  27   8  28   8  29  14  30  14  31  14
M  END
>  <minimizedAffinity>  (1) 
-4.68294621

>  <minimizedRMSD>  (1) 
2.7835145

$$$$
