
     RDKit          3D

 32 33  0  0  0  0  0  0  0  0999 V2000
   47.2020   34.4370   41.9980 C   0  0  0  0  0  0  0  0  0  0  0  0
   44.6530   36.0010   44.3330 C   0  0  0  0  0  0  0  0  0  0  0  0
   45.4450   35.8260   43.1840 C   0  0  0  0  0  0  0  0  0  0  0  0
   46.3200   34.7350   43.1390 C   0  0  0  0  0  0  0  0  0  0  0  0
   46.3650   33.8850   44.2200 N   0  0  0  0  0  0  0  0  0  0  0  0
   45.5710   34.1020   45.3170 C   0  0  0  0  0  0  0  0  0  0  0  0
   44.7290   35.1420   45.3740 N   0  0  0  0  0  0  0  0  0  0  0  0
   46.3090   34.2310   40.7820 C   0  0  0  0  0  0  0  0  0  0  0  0
   48.2530   35.4510   41.7430 C   0  0  0  0  0  0  0  0  0  0  0  0
   47.8970   33.1220   42.2550 C   0  0  0  0  0  0  0  0  0  0  0  0
   48.0800   32.3830   41.0640 O   0  0  0  0  0  0  0  0  0  0  0  0
   49.3390   32.0640   40.6070 C   0  0  0  0  0  0  0  0  0  0  0  0
   50.3850   32.2130   41.5230 C   0  0  0  0  0  0  0  0  0  0  0  0
   51.6640   31.8950   41.0790 C   0  0  0  0  0  0  0  0  0  0  0  0
   51.8250   31.4560   39.7820 C   0  0  0  0  0  0  0  0  0  0  0  0
   50.7730   31.3080   38.8710 C   0  0  0  0  0  0  0  0  0  0  0  0
   49.5580   31.6300   39.3540 N   0  0  0  0  0  0  0  0  0  0  0  0
   43.9588   36.8527   44.3855 H   0  0  0  0  0  0  0  0  0  0  0  0
   45.3782   36.5297   42.3412 H   0  0  0  0  0  0  0  0  0  0  0  0
   45.6269   33.4072   46.1680 H   0  0  0  0  0  0  0  0  0  0  0  0
   45.2869   33.9952   41.1134 H   0  0  0  0  0  0  0  0  0  0  0  0
   46.2956   35.1496   40.1771 H   0  0  0  0  0  0  0  0  0  0  0  0
   46.6994   33.3993   40.1771 H   0  0  0  0  0  0  0  0  0  0  0  0
   48.6413   35.8256   42.7016 H   0  0  0  0  0  0  0  0  0  0  0  0
   49.0724   34.9935   41.1691 H   0  0  0  0  0  0  0  0  0  0  0  0
   47.8252   36.2862   41.1691 H   0  0  0  0  0  0  0  0  0  0  0  0
   48.8808   33.3213   42.7050 H   0  0  0  0  0  0  0  0  0  0  0  0
   47.2653   32.5282   42.9320 H   0  0  0  0  0  0  0  0  0  0  0  0
   50.2043   32.5660   42.5490 H   0  0  0  0  0  0  0  0  0  0  0  0
   52.5305   31.9919   41.7497 H   0  0  0  0  0  0  0  0  0  0  0  0
   52.8414   31.2071   39.4429 H   0  0  0  0  0  0  0  0  0  0  0  0
   50.9267   30.9559   37.8403 H   0  0  0  0  0  0  0  0  0  0  0  0
  1 10  1  0
  1  4  1  0
  2  7  2  0
  3  2  1  0
  4  3  2  0
  4  5  1  0
  5  6  2  0
  6  7  1  0
  8  1  1  0
  9  1  1  0
 11 10  1  0
 12 11  1  0
 12 13  2  0
 14 13  1  0
 15 14  2  0
 16 17  2  0
 16 15  1  0
 17 12  1  0
  2 18  1  0
  3 19  1  0
  6 20  1  0
  8 21  1  0
  8 22  1  0
  8 23  1  0
  9 24  1  0
  9 25  1  0
  9 26  1  0
 10 27  1  0
 10 28  1  0
 13 29  1  0
 14 30  1  0
 15 31  1  0
 16 32  1  0
M  ISO  8  18  14  19  14  20  14  21   8  22   8  23   8  24   8  25   8
M  ISO  7  26   8  27   8  28   8  29  14  30  14  31  14  32  14
M  END
>  <minimizedAffinity>  (1) 
-4.54346275

>  <minimizedRMSD>  (1) 
2.82165527

$$$$
