
     RDKit          3D

 30 31  0  0  0  0  0  0  0  0999 V2000
   46.9540   34.4040   42.1030 C   0  0  0  0  0  0  0  0  0  0  0  0
   44.5460   36.0400   44.5360 C   0  0  0  0  0  0  0  0  0  0  0  0
   45.2830   35.8390   43.3520 C   0  0  0  0  0  0  0  0  0  0  0  0
   46.1360   34.7210   43.2780 C   0  0  0  0  0  0  0  0  0  0  0  0
   46.1970   33.8950   44.3600 N   0  0  0  0  0  0  0  0  0  0  0  0
   45.4670   34.1240   45.4900 C   0  0  0  0  0  0  0  0  0  0  0  0
   44.6520   35.1820   45.5770 N   0  0  0  0  0  0  0  0  0  0  0  0
   45.9940   34.2900   40.9140 C   0  0  0  0  0  0  0  0  0  0  0  0
   48.0350   35.3650   41.7960 C   0  0  0  0  0  0  0  0  0  0  0  0
   47.5630   33.0320   42.3000 C   0  0  0  0  0  0  0  0  0  0  0  0
   48.9580   33.0960   42.3150 O   0  0  0  0  0  0  0  0  0  0  0  0
   50.9140   31.7150   39.6770 N   0  0  0  0  0  0  0  0  0  0  0  0
   49.7610   32.1770   40.0660 N   0  0  0  0  0  0  0  0  0  0  0  0
   49.7900   32.5590   41.3570 C   0  0  0  0  0  0  0  0  0  0  0  0
   51.0800   32.2960   41.7700 C   0  0  0  0  0  0  0  0  0  0  0  0
   51.7930   31.7640   40.7150 C   0  0  0  0  0  0  0  0  0  0  0  0
   43.8743   36.9075   44.6153 H   0  0  0  0  0  0  0  0  0  0  0  0
   45.1943   36.5376   42.5070 H   0  0  0  0  0  0  0  0  0  0  0  0
   45.5494   33.4305   46.3398 H   0  0  0  0  0  0  0  0  0  0  0  0
   44.9652   34.1678   41.2838 H   0  0  0  0  0  0  0  0  0  0  0  0
   46.0579   35.2020   40.3024 H   0  0  0  0  0  0  0  0  0  0  0  0
   46.2697   33.4183   40.3024 H   0  0  0  0  0  0  0  0  0  0  0  0
   48.4640   35.7464   42.7344 H   0  0  0  0  0  0  0  0  0  0  0  0
   48.8193   34.8605   41.2126 H   0  0  0  0  0  0  0  0  0  0  0  0
   47.6259   36.2030   41.2126 H   0  0  0  0  0  0  0  0  0  0  0  0
   47.2125   32.6179   43.2569 H   0  0  0  0  0  0  0  0  0  0  0  0
   47.2528   32.3897   41.4626 H   0  0  0  0  0  0  0  0  0  0  0  0
   51.1278   31.3668   38.7315 H   0  0  0  0  0  0  0  0  0  0  0  0
   51.4768   32.4809   42.7792 H   0  0  0  0  0  0  0  0  0  0  0  0
   52.8464   31.4473   40.7133 H   0  0  0  0  0  0  0  0  0  0  0  0
  1 10  1  0
  1  4  1  0
  2  7  2  0
  3  2  1  0
  4  3  2  0
  4  5  1  0
  5  6  2  0
  6  7  1  0
  8  1  1  0
  9  1  1  0
 10 11  1  0
 12 13  1  0
 12 16  1  0
 13 14  2  0
 14 15  1  0
 14 11  1  0
 16 15  2  0
  2 17  1  0
  3 18  1  0
  6 19  1  0
  8 20  1  0
  8 21  1  0
  8 22  1  0
  9 23  1  0
  9 24  1  0
  9 25  1  0
 10 26  1  0
 10 27  1  0
 12 28  1  0
 15 29  1  0
 16 30  1  0
M  ISO  8  17  14  18  14  19  14  20   8  21   8  22   8  23   8  24   8
M  ISO  6  25   8  26   8  27   8  28   9  29  14  30  14
M  END
>  <minimizedAffinity>  (1) 
-4.64419794

>  <minimizedRMSD>  (1) 
2.7287693

$$$$
