
     RDKit          3D

 42 45  0  0  0  0  0  0  0  0999 V2000
   46.5990   34.8270   41.9970 C   0  0  0  0  0  0  0  0  0  0  0  0
   45.4350   34.9440   42.9690 C   0  0  0  0  0  0  0  0  0  0  0  0
   45.5580   33.5630   46.5060 C   0  0  0  0  0  0  0  0  0  0  0  0
   45.1710   34.3640   45.4180 C   0  0  0  0  0  0  0  0  0  0  0  0
   45.7660   34.1660   44.1620 C   0  0  0  0  0  0  0  0  0  0  0  0
   46.6970   33.1880   44.0790 N   0  0  0  0  0  0  0  0  0  0  0  0
   47.0620   32.4190   45.1420 C   0  0  0  0  0  0  0  0  0  0  0  0
   46.4880   32.6130   46.3470 N   0  0  0  0  0  0  0  0  0  0  0  0
   44.2530   34.2660   42.2900 C   0  0  0  0  0  0  0  0  0  0  0  0
   45.1630   36.3780   43.1960 C   0  0  0  0  0  0  0  0  0  0  0  0
   46.2800   34.0370   40.8880 O   0  0  0  0  0  0  0  0  0  0  0  0
   47.2360   33.8060   39.9130 C   0  0  0  0  0  0  0  0  0  0  0  0
   48.0810   34.7810   39.5200 N   0  0  0  0  0  0  0  0  0  0  0  0
   48.8810   34.3340   38.6040 O   0  0  0  0  0  0  0  0  0  0  0  0
   48.6030   33.0640   38.3560 C   0  0  0  0  0  0  0  0  0  0  0  0
   47.5870   32.7460   39.1680 N   0  0  0  0  0  0  0  0  0  0  0  0
   49.2730   32.2390   37.4080 N   0  0  0  0  0  0  0  0  0  0  0  0
   50.2020   31.3500   37.8110 C   0  0  0  0  0  0  0  0  0  0  0  0
   50.6870   30.6940   36.7290 N   0  0  0  0  0  0  0  0  0  0  0  0
   50.0720   31.1580   35.6160 C   0  0  0  0  0  0  0  0  0  0  0  0
   50.1060   30.9190   34.2450 C   0  0  0  0  0  0  0  0  0  0  0  0
   50.8960   30.0520   33.8380 O   0  0  0  0  0  0  0  0  0  0  0  0
   49.2940   31.6300   33.4360 N   0  0  0  0  0  0  0  0  0  0  0  0
   48.4270   32.5820   33.8870 C   0  0  0  0  0  0  0  0  0  0  0  0
   47.6200   33.2630   32.9330 N   0  0  0  0  0  0  0  0  0  0  0  0
   48.3900   32.8180   35.2300 N   0  0  0  0  0  0  0  0  0  0  0  0
   49.1940   32.1210   36.0710 C   0  0  0  0  0  0  0  0  0  0  0  0
   46.8728   35.8338   41.6485 H   0  0  0  0  0  0  0  0  0  0  0  0
   47.4355   34.3469   42.5260 H   0  0  0  0  0  0  0  0  0  0  0  0
   45.0951   33.7171   47.4919 H   0  0  0  0  0  0  0  0  0  0  0  0
   44.4053   35.1426   45.5500 H   0  0  0  0  0  0  0  0  0  0  0  0
   47.8266   31.6380   45.0176 H   0  0  0  0  0  0  0  0  0  0  0  0
   43.5671   33.8726   43.0547 H   0  0  0  0  0  0  0  0  0  0  0  0
   43.7221   34.9969   41.6624 H   0  0  0  0  0  0  0  0  0  0  0  0
   44.6158   33.4387   41.6624 H   0  0  0  0  0  0  0  0  0  0  0  0
   45.1252   36.5774   44.2771 H   0  0  0  0  0  0  0  0  0  0  0  0
   45.9630   36.9796   42.7400 H   0  0  0  0  0  0  0  0  0  0  0  0
   44.1982   36.6449   42.7400 H   0  0  0  0  0  0  0  0  0  0  0  0
   50.5164   31.1834   38.8519 H   0  0  0  0  0  0  0  0  0  0  0  0
   49.3304   31.4443   32.4235 H   0  0  0  0  0  0  0  0  0  0  0  0
   46.9560   33.9868   33.2431 H   0  0  0  0  0  0  0  0  0  0  0  0
   47.6999   33.0321   31.9324 H   0  0  0  0  0  0  0  0  0  0  0  0
  1  2  1  0
  2 10  1  0
  2  5  1  0
  4  3  2  0
  5  4  1  0
  6  5  2  0
  6  7  1  0
  7  8  2  0
  8  3  1  0
  9  2  1  0
 11  1  1  0
 12 11  1  0
 13 12  2  0
 14 13  1  0
 15 14  1  0
 15 16  2  0
 16 12  1  0
 17 18  1  0
 17 15  1  0
 19 18  2  0
 20 27  2  0
 20 19  1  0
 21 20  1  0
 22 21  2  0
 23 24  1  0
 23 21  1  0
 24 26  2  0
 25 24  1  0
 26 27  1  0
 27 17  1  0
  1 28  1  0
  1 29  1  0
  3 30  1  0
  4 31  1  0
  7 32  1  0
  9 33  1  0
  9 34  1  0
  9 35  1  0
 10 36  1  0
 10 37  1  0
 10 38  1  0
 18 39  1  0
 23 40  1  0
 25 41  1  0
 25 42  1  0
M  ISO  8  28   8  29   8  30  14  31  14  32  14  33   8  34   8  35   8
M  ISO  5  36   8  37   8  38   8  39  14  40   9
M  END
>  <minimizedAffinity>  (1) 
-5.84029818

>  <minimizedRMSD>  (1) 
4.16380787

$$$$
