
     RDKit          3D

 44 47  0  0  0  0  0  0  0  0999 V2000
   48.1380   33.1350   40.9710 C   0  0  0  0  0  0  0  0  0  0  0  0
   48.4770   34.2330   41.9620 C   0  0  0  0  0  0  0  0  0  0  0  0
   45.3070   35.4490   43.6560 C   0  0  0  0  0  0  0  0  0  0  0  0
   46.3430   35.3810   42.7120 C   0  0  0  0  0  0  0  0  0  0  0  0
   47.3440   34.4070   42.8740 C   0  0  0  0  0  0  0  0  0  0  0  0
   47.2470   33.5790   43.9460 N   0  0  0  0  0  0  0  0  0  0  0  0
   46.2280   33.6710   44.8440 C   0  0  0  0  0  0  0  0  0  0  0  0
   45.2610   34.6010   44.7010 N   0  0  0  0  0  0  0  0  0  0  0  0
   48.6060   35.5240   41.1510 C   0  0  0  0  0  0  0  0  0  0  0  0
   49.7620   33.8830   42.6150 C   0  0  0  0  0  0  0  0  0  0  0  0
   47.5810   33.6340   39.7920 O   0  0  0  0  0  0  0  0  0  0  0  0
   46.2570   33.3670   39.4950 C   0  0  0  0  0  0  0  0  0  0  0  0
   45.9270   32.5540   38.4820 N   0  0  0  0  0  0  0  0  0  0  0  0
   44.6270   32.4610   38.4010 O   0  0  0  0  0  0  0  0  0  0  0  0
   44.0680   33.1840   39.3290 C   0  0  0  0  0  0  0  0  0  0  0  0
   45.0690   33.7340   39.9920 N   0  0  0  0  0  0  0  0  0  0  0  0
   42.6350   33.1970   39.3860 C   0  0  0  0  0  0  0  0  0  0  0  0
   41.8610   33.8570   38.4470 C   0  0  0  0  0  0  0  0  0  0  0  0
   40.4710   33.9010   38.4580 C   0  0  0  0  0  0  0  0  0  0  0  0
   39.7890   33.2630   39.4420 C   0  0  0  0  0  0  0  0  0  0  0  0
   40.4930   32.5830   40.4120 C   0  0  0  0  0  0  0  0  0  0  0  0
   39.7740   31.9470   41.3960 C   0  0  0  0  0  0  0  0  0  0  0  0
   40.4210   31.2510   42.3950 C   0  0  0  0  0  0  0  0  0  0  0  0
   41.8190   31.2250   42.3580 C   0  0  0  0  0  0  0  0  0  0  0  0
   42.4660   31.8780   41.3520 C   0  0  0  0  0  0  0  0  0  0  0  0
   41.8690   32.5760   40.3490 C   0  0  0  0  0  0  0  0  0  0  0  0
   49.0590   32.5873   40.7222 H   0  0  0  0  0  0  0  0  0  0  0  0
   47.3921   32.4777   41.4417 H   0  0  0  0  0  0  0  0  0  0  0  0
   44.5191   36.2079   43.5404 H   0  0  0  0  0  0  0  0  0  0  0  0
   46.3715   36.0771   41.8607 H   0  0  0  0  0  0  0  0  0  0  0  0
   46.1925   32.9780   45.6975 H   0  0  0  0  0  0  0  0  0  0  0  0
   48.6916   36.3804   41.8361 H   0  0  0  0  0  0  0  0  0  0  0  0
   49.5033   35.4706   40.5169 H   0  0  0  0  0  0  0  0  0  0  0  0
   47.7159   35.6492   40.5169 H   0  0  0  0  0  0  0  0  0  0  0  0
   49.6391   33.9165   43.7076 H   0  0  0  0  0  0  0  0  0  0  0  0
   50.0639   32.8699   42.3108 H   0  0  0  0  0  0  0  0  0  0  0  0
   50.5359   34.6031   42.3108 H   0  0  0  0  0  0  0  0  0  0  0  0
   42.3824   34.3841   37.6344 H   0  0  0  0  0  0  0  0  0  0  0  0
   39.9282   34.4495   37.6741 H   0  0  0  0  0  0  0  0  0  0  0  0
   38.6895   33.2881   39.4652 H   0  0  0  0  0  0  0  0  0  0  0  0
   38.6750   31.9937   41.3863 H   0  0  0  0  0  0  0  0  0  0  0  0
   39.8602   30.7367   43.1894 H   0  0  0  0  0  0  0  0  0  0  0  0
   42.3878   30.6854   43.1296 H   0  0  0  0  0  0  0  0  0  0  0  0
   43.5652   31.8370   41.3511 H   0  0  0  0  0  0  0  0  0  0  0  0
  1  2  1  0
  2 10  1  0
  2  5  1  0
  3  8  2  0
  4  5  2  0
  4  3  1  0
  5  6  1  0
  6  7  2  0
  8  7  1  0
  9  2  1  0
 11  1  1  0
 12 11  1  0
 12 16  1  0
 13 12  2  0
 14 13  1  0
 14 15  1  0
 15 17  1  0
 15 16  2  0
 17 26  2  0
 18 19  2  0
 18 17  1  0
 19 20  1  0
 20 21  2  0
 21 22  1  0
 22 23  2  0
 24 23  1  0
 25 24  2  0
 26 21  1  0
 26 25  1  0
  1 27  1  0
  1 28  1  0
  3 29  1  0
  4 30  1  0
  7 31  1  0
  9 32  1  0
  9 33  1  0
  9 34  1  0
 10 35  1  0
 10 36  1  0
 10 37  1  0
 18 38  1  0
 19 39  1  0
 20 40  1  0
 22 41  1  0
 23 42  1  0
 24 43  1  0
 25 44  1  0
M  ISO  8  27   8  28   8  29  14  30  14  31  14  32   8  33   8  34   8
M  ISO  8  35   8  36   8  37   8  38  14  39  14  40  14  41  14  42  14
M  ISO  2  43  14  44  14
M  END
>  <minimizedAffinity>  (1) 
-5.62293577

>  <minimizedRMSD>  (1) 
8.91511536

$$$$
