
     RDKit          3D

 39 41  0  0  0  0  0  0  0  0999 V2000
   47.9710   33.1450   42.3360 C   0  0  0  0  0  0  0  0  0  0  0  0
   47.2650   34.4480   42.0200 C   0  0  0  0  0  0  0  0  0  0  0  0
   44.6470   36.0550   44.2610 C   0  0  0  0  0  0  0  0  0  0  0  0
   45.4770   35.8540   43.1480 C   0  0  0  0  0  0  0  0  0  0  0  0
   46.3520   34.7560   43.1310 C   0  0  0  0  0  0  0  0  0  0  0  0
   46.3460   33.9330   44.2160 N   0  0  0  0  0  0  0  0  0  0  0  0
   45.5310   34.1530   45.2790 C   0  0  0  0  0  0  0  0  0  0  0  0
   44.6890   35.2080   45.2990 N   0  0  0  0  0  0  0  0  0  0  0  0
   46.3970   34.1870   40.7940 C   0  0  0  0  0  0  0  0  0  0  0  0
   48.2950   35.4720   41.7440 C   0  0  0  0  0  0  0  0  0  0  0  0
   48.2210   32.3970   41.1770 O   0  0  0  0  0  0  0  0  0  0  0  0
   49.5370   32.1550   40.8070 C   0  0  0  0  0  0  0  0  0  0  0  0
   50.5660   32.4290   41.6470 N   0  0  0  0  0  0  0  0  0  0  0  0
   51.6840   32.1170   41.0750 O   0  0  0  0  0  0  0  0  0  0  0  0
   51.4700   31.6390   39.8730 C   0  0  0  0  0  0  0  0  0  0  0  0
   50.1310   31.6620   39.7080 N   0  0  0  0  0  0  0  0  0  0  0  0
   52.3810   31.1660   38.8770 N   0  0  0  0  0  0  0  0  0  0  0  0
   53.6320   30.8440   39.2280 C   0  0  0  0  0  0  0  0  0  0  0  0
   54.5530   30.3840   38.3100 C   0  0  0  0  0  0  0  0  0  0  0  0
   54.0920   30.2820   37.0170 C   0  0  0  0  0  0  0  0  0  0  0  0
   54.9790   29.8180   36.0160 N   0  0  0  0  0  0  0  0  0  0  0  0
   52.8340   30.6090   36.6710 N   0  0  0  0  0  0  0  0  0  0  0  0
   51.9520   31.0610   37.6090 C   0  0  0  0  0  0  0  0  0  0  0  0
   50.7640   31.3800   37.3450 O   0  0  0  0  0  0  0  0  0  0  0  0
   48.9283   33.3687   42.8294 H   0  0  0  0  0  0  0  0  0  0  0  0
   47.3183   32.5517   42.9932 H   0  0  0  0  0  0  0  0  0  0  0  0
   43.9581   36.9123   44.2820 H   0  0  0  0  0  0  0  0  0  0  0  0
   45.4426   36.5499   42.2968 H   0  0  0  0  0  0  0  0  0  0  0  0
   45.5570   33.4628   46.1351 H   0  0  0  0  0  0  0  0  0  0  0  0
   45.3896   33.8841   41.1157 H   0  0  0  0  0  0  0  0  0  0  0  0
   46.3289   35.1044   40.1909 H   0  0  0  0  0  0  0  0  0  0  0  0
   46.8462   33.3842   40.1909 H   0  0  0  0  0  0  0  0  0  0  0  0
   48.6878   35.8625   42.6944 H   0  0  0  0  0  0  0  0  0  0  0  0
   49.1150   35.0208   41.1661 H   0  0  0  0  0  0  0  0  0  0  0  0
   47.8486   36.2947   41.1661 H   0  0  0  0  0  0  0  0  0  0  0  0
   53.9347   30.9494   40.2803 H   0  0  0  0  0  0  0  0  0  0  0  0
   55.5826   30.1176   38.5912 H   0  0  0  0  0  0  0  0  0  0  0  0
   54.6568   29.7333   35.0414 H   0  0  0  0  0  0  0  0  0  0  0  0
   55.9466   29.5651   36.2623 H   0  0  0  0  0  0  0  0  0  0  0  0
  2  1  1  0
  2  5  1  0
  3  8  2  0
  4  3  1  0
  5  4  2  0
  5  6  1  0
  6  7  2  0
  7  8  1  0
  9  2  1  0
 10  2  1  0
 11  1  1  0
 12 11  1  0
 12 13  2  0
 14 13  1  0
 15 14  1  0
 16 15  2  0
 16 12  1  0
 17 18  1  0
 17 15  1  0
 19 18  2  0
 20 19  1  0
 21 20  1  0
 22 20  2  0
 22 23  1  0
 23 17  1  0
 24 23  2  0
  1 25  1  0
  1 26  1  0
  3 27  1  0
  4 28  1  0
  7 29  1  0
  9 30  1  0
  9 31  1  0
  9 32  1  0
 10 33  1  0
 10 34  1  0
 10 35  1  0
 18 36  1  0
 19 37  1  0
 21 38  1  0
 21 39  1  0
M  ISO  8  25   8  26   8  27  14  28  14  29  14  30   8  31   8  32   8
M  ISO  5  33   8  34   8  35   8  36  14  37  14
M  END
>  <minimizedAffinity>  (1) 
-5.54062271

>  <minimizedRMSD>  (1) 
0.519402564

$$$$
