
     RDKit          3D

 41 44  0  0  0  0  0  0  0  0999 V2000
   47.8250   33.1090   42.3140 C   0  0  0  0  0  0  0  0  0  0  0  0
   47.1570   34.4390   42.0390 C   0  0  0  0  0  0  0  0  0  0  0  0
   44.6100   36.0640   44.3440 C   0  0  0  0  0  0  0  0  0  0  0  0
   45.4110   35.8620   43.2010 C   0  0  0  0  0  0  0  0  0  0  0  0
   46.2770   34.7500   43.1770 C   0  0  0  0  0  0  0  0  0  0  0  0
   46.2900   33.9390   44.2570 N   0  0  0  0  0  0  0  0  0  0  0  0
   45.5060   34.1630   45.3430 C   0  0  0  0  0  0  0  0  0  0  0  0
   44.6750   35.2140   45.3840 N   0  0  0  0  0  0  0  0  0  0  0  0
   46.2590   34.2170   40.8260 C   0  0  0  0  0  0  0  0  0  0  0  0
   48.2110   35.4270   41.7490 C   0  0  0  0  0  0  0  0  0  0  0  0
   48.1770   32.4330   41.1440 O   0  0  0  0  0  0  0  0  0  0  0  0
   49.4990   32.1750   40.8530 C   0  0  0  0  0  0  0  0  0  0  0  0
   50.4520   32.3220   41.8110 N   0  0  0  0  0  0  0  0  0  0  0  0
   51.6220   32.0290   41.3270 O   0  0  0  0  0  0  0  0  0  0  0  0
   51.4980   31.6830   40.0570 C   0  0  0  0  0  0  0  0  0  0  0  0
   50.1910   31.7740   39.7700 N   0  0  0  0  0  0  0  0  0  0  0  0
   52.5560   31.2950   39.1890 N   0  0  0  0  0  0  0  0  0  0  0  0
   52.7320   31.5710   37.8980 C   0  0  0  0  0  0  0  0  0  0  0  0
   53.8840   31.0060   37.4310 N   0  0  0  0  0  0  0  0  0  0  0  0
   54.4510   30.3550   38.4650 C   0  0  0  0  0  0  0  0  0  0  0  0
   55.6030   29.5920   38.6700 C   0  0  0  0  0  0  0  0  0  0  0  0
   55.9070   29.0530   39.8630 N   0  0  0  0  0  0  0  0  0  0  0  0
   55.0670   29.2590   40.8950 C   0  0  0  0  0  0  0  0  0  0  0  0
   53.9250   29.9940   40.7620 N   0  0  0  0  0  0  0  0  0  0  0  0
   53.6090   30.5440   39.5570 C   0  0  0  0  0  0  0  0  0  0  0  0
   56.4250   29.4340   37.5160 N   0  0  0  0  0  0  0  0  0  0  0  0
   48.7353   33.2875   42.9052 H   0  0  0  0  0  0  0  0  0  0  0  0
   47.1047   32.4805   42.8581 H   0  0  0  0  0  0  0  0  0  0  0  0
   43.9260   36.9245   44.3852 H   0  0  0  0  0  0  0  0  0  0  0  0
   45.3612   36.5555   42.3486 H   0  0  0  0  0  0  0  0  0  0  0  0
   45.5534   33.4739   46.1991 H   0  0  0  0  0  0  0  0  0  0  0  0
   45.2426   33.9657   41.1633 H   0  0  0  0  0  0  0  0  0  0  0  0
   46.2279   35.1345   40.2200 H   0  0  0  0  0  0  0  0  0  0  0  0
   46.6590   33.3907   40.2200 H   0  0  0  0  0  0  0  0  0  0  0  0
   48.6222   35.8124   42.6936 H   0  0  0  0  0  0  0  0  0  0  0  0
   49.0131   34.9478   41.1684 H   0  0  0  0  0  0  0  0  0  0  0  0
   47.7846   36.2583   41.1684 H   0  0  0  0  0  0  0  0  0  0  0  0
   52.0417   32.1735   37.2894 H   0  0  0  0  0  0  0  0  0  0  0  0
   55.3087   28.8216   41.8749 H   0  0  0  0  0  0  0  0  0  0  0  0
   57.2953   28.8862   37.5747 H   0  0  0  0  0  0  0  0  0  0  0  0
   56.1486   29.8677   36.6236 H   0  0  0  0  0  0  0  0  0  0  0  0
  2  1  1  0
  2  5  1  0
  3  8  2  0
  4  3  1  0
  5  4  2  0
  5  6  1  0
  6  7  2  0
  7  8  1  0
  9  2  1  0
 10  2  1  0
 11  1  1  0
 12 11  1  0
 12 13  2  0
 14 13  1  0
 15 14  1  0
 16 15  2  0
 16 12  1  0
 17 25  1  0
 17 15  1  0
 18 17  1  0
 19 18  2  0
 19 20  1  0
 20 21  2  0
 20 25  1  0
 21 22  1  0
 22 23  2  0
 24 23  1  0
 25 24  2  0
 26 21  1  0
  1 27  1  0
  1 28  1  0
  3 29  1  0
  4 30  1  0
  7 31  1  0
  9 32  1  0
  9 33  1  0
  9 34  1  0
 10 35  1  0
 10 36  1  0
 10 37  1  0
 18 38  1  0
 23 39  1  0
 26 40  1  0
 26 41  1  0
M  ISO  8  27   8  28   8  29  14  30  14  31  14  32   8  33   8  34   8
M  ISO  5  35   8  36   8  37   8  38  14  39  14
M  END
>  <minimizedAffinity>  (1) 
-5.65317965

>  <minimizedRMSD>  (1) 
0.466553032

$$$$
