
     RDKit          3D

 42 45  0  0  0  0  0  0  0  0999 V2000
   47.6450   33.1150   42.2470 C   0  0  0  0  0  0  0  0  0  0  0  0
   46.9760   34.4550   42.0430 C   0  0  0  0  0  0  0  0  0  0  0  0
   44.5620   36.0210   44.5290 C   0  0  0  0  0  0  0  0  0  0  0  0
   45.2950   35.8520   43.3350 C   0  0  0  0  0  0  0  0  0  0  0  0
   46.1600   34.7450   43.2310 C   0  0  0  0  0  0  0  0  0  0  0  0
   46.2300   33.9110   44.2970 N   0  0  0  0  0  0  0  0  0  0  0  0
   45.5120   34.0950   45.4400 C   0  0  0  0  0  0  0  0  0  0  0  0
   44.6800   35.1570   45.5430 N   0  0  0  0  0  0  0  0  0  0  0  0
   46.0160   34.2870   40.8700 C   0  0  0  0  0  0  0  0  0  0  0  0
   48.0310   35.4470   41.7460 C   0  0  0  0  0  0  0  0  0  0  0  0
   48.2610   32.6410   41.0780 O   0  0  0  0  0  0  0  0  0  0  0  0
   49.5700   32.2020   41.1460 C   0  0  0  0  0  0  0  0  0  0  0  0
   50.5290   32.9160   41.7480 N   0  0  0  0  0  0  0  0  0  0  0  0
   51.6600   32.3030   41.6840 O   0  0  0  0  0  0  0  0  0  0  0  0
   51.5280   31.1590   41.0470 C   0  0  0  0  0  0  0  0  0  0  0  0
   50.2420   31.1230   40.7310 N   0  0  0  0  0  0  0  0  0  0  0  0
   52.7190   30.3370   40.8870 C   0  0  0  0  0  0  0  0  0  0  0  0
   53.1320   29.4290   41.7960 N   0  0  0  0  0  0  0  0  0  0  0  0
   54.2250   28.6750   41.6500 C   0  0  0  0  0  0  0  0  0  0  0  0
   54.9960   28.7800   40.5590 N   0  0  0  0  0  0  0  0  0  0  0  0
   54.6820   29.6650   39.5670 C   0  0  0  0  0  0  0  0  0  0  0  0
   55.4800   29.7660   38.4520 C   0  0  0  0  0  0  0  0  0  0  0  0
   55.1620   30.6580   37.4540 C   0  0  0  0  0  0  0  0  0  0  0  0
   54.0290   31.4260   37.6280 C   0  0  0  0  0  0  0  0  0  0  0  0
   53.2680   31.2820   38.7650 C   0  0  0  0  0  0  0  0  0  0  0  0
   53.5430   30.4090   39.7860 C   0  0  0  0  0  0  0  0  0  0  0  0
   48.4086   33.2173   43.0321 H   0  0  0  0  0  0  0  0  0  0  0  0
   46.8671   32.3918   42.5331 H   0  0  0  0  0  0  0  0  0  0  0  0
   43.8810   36.8792   44.6275 H   0  0  0  0  0  0  0  0  0  0  0  0
   45.1934   36.5674   42.5056 H   0  0  0  0  0  0  0  0  0  0  0  0
   45.6081   33.3844   46.2742 H   0  0  0  0  0  0  0  0  0  0  0  0
   44.9994   34.1091   41.2507 H   0  0  0  0  0  0  0  0  0  0  0  0
   46.0232   35.2001   40.2566 H   0  0  0  0  0  0  0  0  0  0  0  0
   46.3329   33.4307   40.2566 H   0  0  0  0  0  0  0  0  0  0  0  0
   48.4445   35.8358   42.6883 H   0  0  0  0  0  0  0  0  0  0  0  0
   48.8320   34.9674   41.1644 H   0  0  0  0  0  0  0  0  0  0  0  0
   47.6015   36.2760   41.1644 H   0  0  0  0  0  0  0  0  0  0  0  0
   54.4964   27.9567   42.4377 H   0  0  0  0  0  0  0  0  0  0  0  0
   56.3743   29.1325   38.3577 H   0  0  0  0  0  0  0  0  0  0  0  0
   55.7860   30.7550   36.5534 H   0  0  0  0  0  0  0  0  0  0  0  0
   53.7342   32.1535   36.8575 H   0  0  0  0  0  0  0  0  0  0  0  0
   52.3728   31.9138   38.8622 H   0  0  0  0  0  0  0  0  0  0  0  0
  2  1  1  0
  2  5  1  0
  3  8  2  0
  4  3  1  0
  5  4  2  0
  5  6  1  0
  6  7  2  0
  7  8  1  0
  9  2  1  0
 10  2  1  0
 11 12  1  0
 11  1  1  0
 12 13  2  0
 14 13  1  0
 15 14  1  0
 16 15  2  0
 16 12  1  0
 17 15  1  0
 17 18  2  0
 19 18  1  0
 20 19  2  0
 21 26  2  0
 21 20  1  0
 22 21  1  0
 23 24  1  0
 23 22  2  0
 24 25  2  0
 25 26  1  0
 26 17  1  0
  1 27  1  0
  1 28  1  0
  3 29  1  0
  4 30  1  0
  7 31  1  0
  9 32  1  0
  9 33  1  0
  9 34  1  0
 10 35  1  0
 10 36  1  0
 10 37  1  0
 19 38  1  0
 22 39  1  0
 23 40  1  0
 24 41  1  0
 25 42  1  0
M  ISO  8  27   8  28   8  29  14  30  14  31  14  32   8  33   8  34   8
M  ISO  8  35   8  36   8  37   8  38  14  39  14  40  14  41  14  42  14
M  END
>  <minimizedAffinity>  (1) 
-5.36400795

>  <minimizedRMSD>  (1) 
1.46769726

$$$$
