
     RDKit          3D

 40 42  0  0  0  0  0  0  0  0999 V2000
   46.9670   34.4170   42.1250 C   0  0  0  0  0  0  0  0  0  0  0  0
   44.5370   35.8840   44.6510 C   0  0  0  0  0  0  0  0  0  0  0  0
   45.2570   35.7330   43.4580 C   0  0  0  0  0  0  0  0  0  0  0  0
   46.1650   34.6710   43.3180 C   0  0  0  0  0  0  0  0  0  0  0  0
   46.2850   33.8320   44.3940 N   0  0  0  0  0  0  0  0  0  0  0  0
   45.5750   34.0010   45.5360 C   0  0  0  0  0  0  0  0  0  0  0  0
   44.7070   35.0200   45.6650 N   0  0  0  0  0  0  0  0  0  0  0  0
   45.9980   34.2860   40.9580 C   0  0  0  0  0  0  0  0  0  0  0  0
   48.0080   35.4200   41.8330 C   0  0  0  0  0  0  0  0  0  0  0  0
   47.6270   33.0620   42.2850 C   0  0  0  0  0  0  0  0  0  0  0  0
   48.0330   32.5220   41.0660 O   0  0  0  0  0  0  0  0  0  0  0  0
   49.3790   32.2540   40.8490 C   0  0  0  0  0  0  0  0  0  0  0  0
   50.3150   32.6100   41.7400 N   0  0  0  0  0  0  0  0  0  0  0  0
   51.5000   32.2630   41.3350 O   0  0  0  0  0  0  0  0  0  0  0  0
   51.3970   31.6680   40.1690 C   0  0  0  0  0  0  0  0  0  0  0  0
   50.0800   31.6610   39.8650 N   0  0  0  0  0  0  0  0  0  0  0  0
   52.3220   31.0860   39.2570 N   0  0  0  0  0  0  0  0  0  0  0  0
   53.0700   29.8200   39.2790 C   0  0  0  0  0  0  0  0  0  0  0  0
   54.4620   30.1760   38.8150 C   0  0  0  0  0  0  0  0  0  0  0  0
   54.1780   31.2350   37.7670 C   0  0  0  0  0  0  0  0  0  0  0  0
   52.7600   31.6830   37.9920 C   0  0  0  0  0  0  0  0  0  0  0  0
   43.8267   36.7172   44.7576 H   0  0  0  0  0  0  0  0  0  0  0  0
   45.1110   36.4453   42.6326 H   0  0  0  0  0  0  0  0  0  0  0  0
   45.7106   33.2951   46.3686 H   0  0  0  0  0  0  0  0  0  0  0  0
   44.9769   34.1480   41.3430 H   0  0  0  0  0  0  0  0  0  0  0  0
   46.0382   35.1977   40.3439 H   0  0  0  0  0  0  0  0  0  0  0  0
   46.2788   33.4177   40.3439 H   0  0  0  0  0  0  0  0  0  0  0  0
   48.4147   35.8118   42.7770 H   0  0  0  0  0  0  0  0  0  0  0  0
   48.8161   34.9514   41.2521 H   0  0  0  0  0  0  0  0  0  0  0  0
   47.5697   36.2449   41.2521 H   0  0  0  0  0  0  0  0  0  0  0  0
   48.5086   33.1727   42.9335 H   0  0  0  0  0  0  0  0  0  0  0  0
   46.8865   32.3779   42.7251 H   0  0  0  0  0  0  0  0  0  0  0  0
   53.0969   29.4053   40.2975 H   0  0  0  0  0  0  0  0  0  0  0  0
   52.6053   29.0561   38.6383 H   0  0  0  0  0  0  0  0  0  0  0  0
   55.0678   30.5805   39.6393 H   0  0  0  0  0  0  0  0  0  0  0  0
   55.0387   29.3188   38.4374 H   0  0  0  0  0  0  0  0  0  0  0  0
   54.2878   30.8111   36.7579 H   0  0  0  0  0  0  0  0  0  0  0  0
   54.8809   32.0771   37.8493 H   0  0  0  0  0  0  0  0  0  0  0  0
   52.7153   32.7802   38.0557 H   0  0  0  0  0  0  0  0  0  0  0  0
   52.1106   31.3684   37.1618 H   0  0  0  0  0  0  0  0  0  0  0  0
  1 10  1  0
  1  4  1  0
  2  7  2  0
  3  2  1  0
  4  3  2  0
  4  5  1  0
  5  6  2  0
  6  7  1  0
  8  1  1  0
  9  1  1  0
 11 10  1  0
 12 11  1  0
 12 13  2  0
 14 13  1  0
 15 14  1  0
 16 15  2  0
 16 12  1  0
 17 18  1  0
 17 15  1  0
 19 18  1  0
 20 21  1  0
 20 19  1  0
 21 17  1  0
  2 22  1  0
  3 23  1  0
  6 24  1  0
  8 25  1  0
  8 26  1  0
  8 27  1  0
  9 28  1  0
  9 29  1  0
  9 30  1  0
 10 31  1  0
 10 32  1  0
 18 33  1  0
 18 34  1  0
 19 35  1  0
 19 36  1  0
 20 37  1  0
 20 38  1  0
 21 39  1  0
 21 40  1  0
M  ISO  8  22  14  23  14  24  14  25   8  26   8  27   8  28   8  29   8
M  ISO  8  30   8  31   8  32   8  33  13  34  13  35  13  36  13  37  13
M  ISO  3  38  13  39  13  40  13
M  END
>  <minimizedAffinity>  (1) 
-5.26617432

>  <minimizedRMSD>  (1) 
0.172558606

$$$$
