
     RDKit          3D

 35 37  0  0  0  0  0  0  0  0999 V2000
   46.9530   34.4170   42.0810 C   0  0  0  0  0  0  0  0  0  0  0  0
   44.5380   36.0780   44.5110 C   0  0  0  0  0  0  0  0  0  0  0  0
   45.2830   35.8710   43.3200 C   0  0  0  0  0  0  0  0  0  0  0  0
   46.1320   34.7490   43.2450 C   0  0  0  0  0  0  0  0  0  0  0  0
   46.1770   33.9290   44.3400 N   0  0  0  0  0  0  0  0  0  0  0  0
   45.4450   34.1670   45.4570 C   0  0  0  0  0  0  0  0  0  0  0  0
   44.6340   35.2290   45.5440 N   0  0  0  0  0  0  0  0  0  0  0  0
   46.0040   34.2630   40.9040 C   0  0  0  0  0  0  0  0  0  0  0  0
   48.0440   35.3660   41.7900 C   0  0  0  0  0  0  0  0  0  0  0  0
   47.5680   33.0520   42.3140 C   0  0  0  0  0  0  0  0  0  0  0  0
   48.0380   32.4900   41.1200 O   0  0  0  0  0  0  0  0  0  0  0  0
   49.3920   32.2500   40.9680 C   0  0  0  0  0  0  0  0  0  0  0  0
   50.2580   32.4330   41.9920 N   0  0  0  0  0  0  0  0  0  0  0  0
   51.4690   32.1450   41.6140 O   0  0  0  0  0  0  0  0  0  0  0  0
   51.4580   31.7730   40.3650 C   0  0  0  0  0  0  0  0  0  0  0  0
   50.1890   31.8320   39.9560 N   0  0  0  0  0  0  0  0  0  0  0  0
   52.5870   31.3650   39.5520 C   0  0  0  0  0  0  0  0  0  0  0  0
   53.4530   30.3120   39.7260 C   0  0  0  0  0  0  0  0  0  0  0  0
   54.3560   30.3150   38.7240 N   0  0  0  0  0  0  0  0  0  0  0  0
   54.0920   31.3620   37.8910 C   0  0  0  0  0  0  0  0  0  0  0  0
   53.0210   31.9660   38.4280 N   0  0  0  0  0  0  0  0  0  0  0  0
   43.8711   36.9494   44.5872 H   0  0  0  0  0  0  0  0  0  0  0  0
   45.1992   36.5706   42.4753 H   0  0  0  0  0  0  0  0  0  0  0  0
   45.5191   33.4740   46.3080 H   0  0  0  0  0  0  0  0  0  0  0  0
   44.9822   34.0972   41.2761 H   0  0  0  0  0  0  0  0  0  0  0  0
   46.0276   35.1767   40.2920 H   0  0  0  0  0  0  0  0  0  0  0  0
   46.3153   33.4036   40.2920 H   0  0  0  0  0  0  0  0  0  0  0  0
   48.4696   35.7362   42.7344 H   0  0  0  0  0  0  0  0  0  0  0  0
   48.8275   34.8571   41.2093 H   0  0  0  0  0  0  0  0  0  0  0  0
   47.6486   36.2124   41.2093 H   0  0  0  0  0  0  0  0  0  0  0  0
   48.4085   33.1538   43.0163 H   0  0  0  0  0  0  0  0  0  0  0  0
   46.7921   32.3896   42.7253 H   0  0  0  0  0  0  0  0  0  0  0  0
   53.4157   29.5840   40.5498 H   0  0  0  0  0  0  0  0  0  0  0  0
   54.6371   31.6483   36.9795 H   0  0  0  0  0  0  0  0  0  0  0  0
   52.5770   32.8023   38.0226 H   0  0  0  0  0  0  0  0  0  0  0  0
  1 10  1  0
  1  4  1  0
  2  7  2  0
  3  2  1  0
  4  3  2  0
  4  5  1  0
  5  6  2  0
  6  7  1  0
  8  1  1  0
  9  1  1  0
 11 10  1  0
 12 11  1  0
 12 13  2  0
 14 13  1  0
 15 14  1  0
 16 15  2  0
 16 12  1  0
 17 18  2  0
 17 15  1  0
 19 18  1  0
 20 21  1  0
 20 19  2  0
 21 17  1  0
  2 22  1  0
  3 23  1  0
  6 24  1  0
  8 25  1  0
  8 26  1  0
  8 27  1  0
  9 28  1  0
  9 29  1  0
  9 30  1  0
 10 31  1  0
 10 32  1  0
 18 33  1  0
 20 34  1  0
 21 35  1  0
M  ISO  8  22  14  23  14  24  14  25   8  26   8  27   8  28   8  29   8
M  ISO  6  30   8  31   8  32   8  33  14  34  14  35   9
M  END
>  <minimizedAffinity>  (1) 
-5.21818686

>  <minimizedRMSD>  (1) 
0.442372084

$$$$
