
     RDKit          3D

 38 40  0  0  0  0  0  0  0  0999 V2000
   47.3210   34.4340   41.9620 C   0  0  0  0  0  0  0  0  0  0  0  0
   44.6890   35.9480   44.2400 C   0  0  0  0  0  0  0  0  0  0  0  0
   45.5110   35.7830   43.1080 C   0  0  0  0  0  0  0  0  0  0  0  0
   46.4190   34.7080   43.0760 C   0  0  0  0  0  0  0  0  0  0  0  0
   46.4440   33.8870   44.1560 N   0  0  0  0  0  0  0  0  0  0  0  0
   45.6390   34.0710   45.2330 C   0  0  0  0  0  0  0  0  0  0  0  0
   44.7640   35.1000   45.2730 N   0  0  0  0  0  0  0  0  0  0  0  0
   46.4460   34.2080   40.7320 C   0  0  0  0  0  0  0  0  0  0  0  0
   48.3510   35.4680   41.6930 C   0  0  0  0  0  0  0  0  0  0  0  0
   48.0250   33.1190   42.2230 C   0  0  0  0  0  0  0  0  0  0  0  0
   48.4710   32.5120   41.0540 O   0  0  0  0  0  0  0  0  0  0  0  0
   49.8210   32.2460   40.8970 C   0  0  0  0  0  0  0  0  0  0  0  0
   50.7150   32.6210   41.8290 N   0  0  0  0  0  0  0  0  0  0  0  0
   51.9120   32.2640   41.4630 O   0  0  0  0  0  0  0  0  0  0  0  0
   51.8590   31.6500   40.2980 C   0  0  0  0  0  0  0  0  0  0  0  0
   50.5650   31.6410   39.9520 N   0  0  0  0  0  0  0  0  0  0  0  0
   52.9840   31.1000   39.5500 C   0  0  0  0  0  0  0  0  0  0  0  0
   53.2630   31.5900   38.2940 C   0  0  0  0  0  0  0  0  0  0  0  0
   54.3070   31.1140   37.5430 C   0  0  0  0  0  0  0  0  0  0  0  0
   55.0720   30.1150   38.0980 C   0  0  0  0  0  0  0  0  0  0  0  0
   54.7970   29.6220   39.3500 C   0  0  0  0  0  0  0  0  0  0  0  0
   53.7400   30.1010   40.1190 C   0  0  0  0  0  0  0  0  0  0  0  0
   43.9760   36.7849   44.2756 H   0  0  0  0  0  0  0  0  0  0  0  0
   45.4443   36.4833   42.2623 H   0  0  0  0  0  0  0  0  0  0  0  0
   45.6994   33.3749   46.0826 H   0  0  0  0  0  0  0  0  0  0  0  0
   45.4266   33.9447   41.0506 H   0  0  0  0  0  0  0  0  0  0  0  0
   46.4158   35.1278   40.1295 H   0  0  0  0  0  0  0  0  0  0  0  0
   46.8650   33.3886   40.1295 H   0  0  0  0  0  0  0  0  0  0  0  0
   48.7381   35.8567   42.6465 H   0  0  0  0  0  0  0  0  0  0  0  0
   49.1755   35.0230   41.1166 H   0  0  0  0  0  0  0  0  0  0  0  0
   47.9028   36.2907   41.1166 H   0  0  0  0  0  0  0  0  0  0  0  0
   48.8905   33.3058   42.8757 H   0  0  0  0  0  0  0  0  0  0  0  0
   47.3002   32.4403   42.6963 H   0  0  0  0  0  0  0  0  0  0  0  0
   52.6289   32.3879   37.8801 H   0  0  0  0  0  0  0  0  0  0  0  0
   54.5230   31.5135   36.5411 H   0  0  0  0  0  0  0  0  0  0  0  0
   55.9189   29.7036   37.5292 H   0  0  0  0  0  0  0  0  0  0  0  0
   55.4327   28.8226   39.7585 H   0  0  0  0  0  0  0  0  0  0  0  0
   53.5222   29.7045   41.1217 H   0  0  0  0  0  0  0  0  0  0  0  0
  1 10  1  0
  1  4  1  0
  2  7  2  0
  3  2  1  0
  4  3  2  0
  4  5  1  0
  5  6  2  0
  6  7  1  0
  8  1  1  0
  9  1  1  0
 11 10  1  0
 12 11  1  0
 12 13  2  0
 14 13  1  0
 15 14  1  0
 16 15  2  0
 16 12  1  0
 17 22  1  0
 17 15  1  0
 18 17  2  0
 19 20  2  0
 19 18  1  0
 20 21  1  0
 21 22  2  0
  2 23  1  0
  3 24  1  0
  6 25  1  0
  8 26  1  0
  8 27  1  0
  8 28  1  0
  9 29  1  0
  9 30  1  0
  9 31  1  0
 10 32  1  0
 10 33  1  0
 18 34  1  0
 19 35  1  0
 20 36  1  0
 21 37  1  0
 22 38  1  0
M  ISO  8  23  14  24  14  25  14  26   8  27   8  28   8  29   8  30   8
M  ISO  8  31   8  32   8  33   8  34  14  35  14  36  14  37  14  38  14
M  END
>  <minimizedAffinity>  (1) 
-5.24072456

>  <minimizedRMSD>  (1) 
0.610475838

$$$$
