
     RDKit          3D

 38 40  0  0  0  0  0  0  0  0999 V2000
   47.3880   34.4260   41.9220 C   0  0  0  0  0  0  0  0  0  0  0  0
   44.7180   35.9470   44.1640 C   0  0  0  0  0  0  0  0  0  0  0  0
   45.5550   35.7790   43.0510 C   0  0  0  0  0  0  0  0  0  0  0  0
   46.4600   34.7020   43.0350 C   0  0  0  0  0  0  0  0  0  0  0  0
   46.4700   33.8790   44.1110 N   0  0  0  0  0  0  0  0  0  0  0  0
   45.6500   34.0650   45.1700 C   0  0  0  0  0  0  0  0  0  0  0  0
   44.7790   35.0840   45.2100 N   0  0  0  0  0  0  0  0  0  0  0  0
   46.5370   34.1960   40.6830 C   0  0  0  0  0  0  0  0  0  0  0  0
   48.4160   35.4530   41.6740 C   0  0  0  0  0  0  0  0  0  0  0  0
   48.0860   33.1040   42.2110 C   0  0  0  0  0  0  0  0  0  0  0  0
   48.5130   32.4690   41.0440 O   0  0  0  0  0  0  0  0  0  0  0  0
   49.8560   32.2090   40.8530 C   0  0  0  0  0  0  0  0  0  0  0  0
   50.7660   32.5510   41.7780 N   0  0  0  0  0  0  0  0  0  0  0  0
   51.9690   32.2190   41.4040 O   0  0  0  0  0  0  0  0  0  0  0  0
   51.8930   31.6450   40.2170 C   0  0  0  0  0  0  0  0  0  0  0  0
   50.6000   31.6400   39.8810 N   0  0  0  0  0  0  0  0  0  0  0  0
   53.0140   31.1260   39.4420 C   0  0  0  0  0  0  0  0  0  0  0  0
   53.3720   31.5670   38.1850 C   0  0  0  0  0  0  0  0  0  0  0  0
   54.4490   31.0330   37.4990 C   0  0  0  0  0  0  0  0  0  0  0  0
   55.2090   30.0150   38.0840 C   0  0  0  0  0  0  0  0  0  0  0  0
   54.8860   29.5430   39.3410 C   0  0  0  0  0  0  0  0  0  0  0  0
   53.8010   30.1200   39.9690 C   0  0  0  0  0  0  0  0  0  0  0  0
   44.0061   36.7852   44.1894 H   0  0  0  0  0  0  0  0  0  0  0  0
   45.5045   36.4786   42.2037 H   0  0  0  0  0  0  0  0  0  0  0  0
   45.6984   33.3651   46.0173 H   0  0  0  0  0  0  0  0  0  0  0  0
   45.5160   33.9201   40.9855 H   0  0  0  0  0  0  0  0  0  0  0  0
   46.5053   35.1178   40.0836 H   0  0  0  0  0  0  0  0  0  0  0  0
   46.9740   33.3837   40.0836 H   0  0  0  0  0  0  0  0  0  0  0  0
   48.7951   35.8318   42.6346 H   0  0  0  0  0  0  0  0  0  0  0  0
   49.2448   35.0114   41.1012 H   0  0  0  0  0  0  0  0  0  0  0  0
   47.9752   36.2822   41.1012 H   0  0  0  0  0  0  0  0  0  0  0  0
   48.9604   33.2970   42.8499 H   0  0  0  0  0  0  0  0  0  0  0  0
   47.3638   32.4423   42.7115 H   0  0  0  0  0  0  0  0  0  0  0  0
   52.7835   32.3677   37.7133 H   0  0  0  0  0  0  0  0  0  0  0  0
   54.7063   31.4079   36.4974 H   0  0  0  0  0  0  0  0  0  0  0  0
   56.0661   29.5893   37.5416 H   0  0  0  0  0  0  0  0  0  0  0  0
   55.4680   28.7422   39.8206 H   0  0  0  0  0  0  0  0  0  0  0  0
   53.5414   29.7486   40.9713 H   0  0  0  0  0  0  0  0  0  0  0  0
  1 10  1  0
  1  4  1  0
  2  7  2  0
  3  2  1  0
  4  3  2  0
  4  5  1  0
  5  6  2  0
  6  7  1  0
  8  1  1  0
  9  1  1  0
 11 10  1  0
 12 11  1  0
 12 13  2  0
 14 13  1  0
 15 14  1  0
 16 15  2  0
 16 12  1  0
 17 22  1  0
 17 15  1  0
 18 17  2  0
 19 20  2  0
 19 18  1  0
 20 21  1  0
 21 22  2  0
  2 23  1  0
  3 24  1  0
  6 25  1  0
  8 26  1  0
  8 27  1  0
  8 28  1  0
  9 29  1  0
  9 30  1  0
  9 31  1  0
 10 32  1  0
 10 33  1  0
 18 34  1  0
 19 35  1  0
 20 36  1  0
 21 37  1  0
 22 38  1  0
M  ISO  8  23  14  24  14  25  14  26   8  27   8  28   8  29   8  30   8
M  ISO  8  31   8  32   8  33   8  34  14  35  14  36  14  37  14  38  14
M  END
>  <minimizedAffinity>  (1) 
-5.25414705

>  <minimizedRMSD>  (1) 
0.728848934

$$$$
