
     RDKit          3D

 33 35  0  0  0  0  0  0  0  0999 V2000
   47.1040   34.4110   42.0060 C   0  0  0  0  0  0  0  0  0  0  0  0
   44.6070   36.0660   44.3520 C   0  0  0  0  0  0  0  0  0  0  0  0
   45.3830   35.8600   43.1930 C   0  0  0  0  0  0  0  0  0  0  0  0
   46.2460   34.7330   43.1560 C   0  0  0  0  0  0  0  0  0  0  0  0
   46.2670   33.9230   44.2470 N   0  0  0  0  0  0  0  0  0  0  0  0
   45.4970   34.1680   45.3420 C   0  0  0  0  0  0  0  0  0  0  0  0
   44.6780   35.2160   45.4060 N   0  0  0  0  0  0  0  0  0  0  0  0
   46.2030   34.2150   40.8060 C   0  0  0  0  0  0  0  0  0  0  0  0
   48.1750   35.4030   41.7320 C   0  0  0  0  0  0  0  0  0  0  0  0
   47.7670   33.0750   42.2770 C   0  0  0  0  0  0  0  0  0  0  0  0
   48.1780   32.4450   41.1080 O   0  0  0  0  0  0  0  0  0  0  0  0
   49.5210   32.2190   40.8840 C   0  0  0  0  0  0  0  0  0  0  0  0
   50.4510   32.4960   41.8360 N   0  0  0  0  0  0  0  0  0  0  0  0
   51.6340   32.2040   41.4010 O   0  0  0  0  0  0  0  0  0  0  0  0
   51.5580   31.7360   40.1870 C   0  0  0  0  0  0  0  0  0  0  0  0
   50.2570   31.7400   39.8530 N   0  0  0  0  0  0  0  0  0  0  0  0
   52.6840   31.3010   39.3680 C   0  0  0  0  0  0  0  0  0  0  0  0
   53.7270   30.4950   39.7210 N   0  0  0  0  0  0  0  0  0  0  0  0
   54.5250   30.3460   38.7050 O   0  0  0  0  0  0  0  0  0  0  0  0
   54.0480   31.0290   37.6770 C   0  0  0  0  0  0  0  0  0  0  0  0
   52.8940   31.6360   38.0710 N   0  0  0  0  0  0  0  0  0  0  0  0
   43.9313   36.9326   44.4021 H   0  0  0  0  0  0  0  0  0  0  0  0
   45.3216   36.5531   42.3411 H   0  0  0  0  0  0  0  0  0  0  0  0
   45.5528   33.4805   46.1989 H   0  0  0  0  0  0  0  0  0  0  0  0
   45.1811   33.9927   41.1471 H   0  0  0  0  0  0  0  0  0  0  0  0
   46.1956   35.1325   40.1993 H   0  0  0  0  0  0  0  0  0  0  0  0
   46.5774   33.3773   40.1993 H   0  0  0  0  0  0  0  0  0  0  0  0
   48.5797   35.7779   42.6837 H   0  0  0  0  0  0  0  0  0  0  0  0
   48.9795   34.9240   41.1547 H   0  0  0  0  0  0  0  0  0  0  0  0
   47.7589   36.2418   41.1547 H   0  0  0  0  0  0  0  0  0  0  0  0
   48.6455   33.2393   42.9183 H   0  0  0  0  0  0  0  0  0  0  0  0
   47.0279   32.4252   42.7684 H   0  0  0  0  0  0  0  0  0  0  0  0
   54.5040   31.0951   36.6781 H   0  0  0  0  0  0  0  0  0  0  0  0
  1 10  1  0
  1  4  1  0
  2  7  2  0
  3  2  1  0
  4  3  2  0
  4  5  1  0
  5  6  2  0
  6  7  1  0
  8  1  1  0
  9  1  1  0
 11 10  1  0
 12 11  1  0
 12 13  2  0
 14 13  1  0
 15 14  1  0
 16 15  2  0
 16 12  1  0
 17 18  2  0
 17 15  1  0
 19 18  1  0
 20 21  2  0
 20 19  1  0
 21 17  1  0
  2 22  1  0
  3 23  1  0
  6 24  1  0
  8 25  1  0
  8 26  1  0
  8 27  1  0
  9 28  1  0
  9 29  1  0
  9 30  1  0
 10 31  1  0
 10 32  1  0
 20 33  1  0
M  ISO  8  22  14  23  14  24  14  25   8  26   8  27   8  28   8  29   8
M  ISO  4  30   8  31   8  32   8  33  14
M  END
>  <minimizedAffinity>  (1) 
-4.97226858

>  <minimizedRMSD>  (1) 
0.551376939

$$$$
