
     RDKit          3D

 41 43  0  0  0  0  0  0  0  0999 V2000
   47.6320   34.4570   41.8350 C   0  0  0  0  0  0  0  0  0  0  0  0
   44.8100   35.7830   44.0150 C   0  0  0  0  0  0  0  0  0  0  0  0
   45.6850   35.6810   42.9190 C   0  0  0  0  0  0  0  0  0  0  0  0
   46.6590   34.6710   42.9170 C   0  0  0  0  0  0  0  0  0  0  0  0
   46.7010   33.8300   44.0000 N   0  0  0  0  0  0  0  0  0  0  0  0
   45.8390   33.9610   45.0420 C   0  0  0  0  0  0  0  0  0  0  0  0
   44.9090   34.9160   45.0550 N   0  0  0  0  0  0  0  0  0  0  0  0
   46.8460   34.2350   40.5660 C   0  0  0  0  0  0  0  0  0  0  0  0
   48.6230   35.5560   41.6660 C   0  0  0  0  0  0  0  0  0  0  0  0
   48.4030   33.1850   42.1180 C   0  0  0  0  0  0  0  0  0  0  0  0
   48.6290   32.4560   40.9540 O   0  0  0  0  0  0  0  0  0  0  0  0
   49.9400   32.0940   40.6360 C   0  0  0  0  0  0  0  0  0  0  0  0
   50.9740   32.3960   41.4630 N   0  0  0  0  0  0  0  0  0  0  0  0
   52.0850   31.9580   40.9520 O   0  0  0  0  0  0  0  0  0  0  0  0
   51.8420   31.3660   39.8030 C   0  0  0  0  0  0  0  0  0  0  0  0
   50.5090   31.4470   39.6000 N   0  0  0  0  0  0  0  0  0  0  0  0
   52.8370   30.7430   38.9230 C   0  0  0  0  0  0  0  0  0  0  0  0
   53.5630   31.7850   38.0620 C   0  0  0  0  0  0  0  0  0  0  0  0
   54.5990   30.8640   37.4040 C   0  0  0  0  0  0  0  0  0  0  0  0
   55.0340   29.9620   38.5400 C   0  0  0  0  0  0  0  0  0  0  0  0
   53.9790   30.0790   39.6230 C   0  0  0  0  0  0  0  0  0  0  0  0
   44.0411   36.5695   44.0298 H   0  0  0  0  0  0  0  0  0  0  0  0
   45.6071   36.3828   42.0755 H   0  0  0  0  0  0  0  0  0  0  0  0
   45.9099   33.2656   45.8913 H   0  0  0  0  0  0  0  0  0  0  0  0
   45.8158   33.9440   40.8190 H   0  0  0  0  0  0  0  0  0  0  0  0
   46.8305   35.1639   39.9770 H   0  0  0  0  0  0  0  0  0  0  0  0
   47.3188   33.4352   39.9770 H   0  0  0  0  0  0  0  0  0  0  0  0
   48.9458   35.9139   42.6548 H   0  0  0  0  0  0  0  0  0  0  0  0
   49.4946   35.1814   41.1092 H   0  0  0  0  0  0  0  0  0  0  0  0
   48.1605   36.3843   41.1092 H   0  0  0  0  0  0  0  0  0  0  0  0
   49.3713   33.4469   42.5695 H   0  0  0  0  0  0  0  0  0  0  0  0
   47.8064   32.5650   42.8033 H   0  0  0  0  0  0  0  0  0  0  0  0
   52.2236   30.0190   38.3667 H   0  0  0  0  0  0  0  0  0  0  0  0
   52.8937   32.2492   37.3227 H   0  0  0  0  0  0  0  0  0  0  0  0
   53.9726   32.6490   38.6059 H   0  0  0  0  0  0  0  0  0  0  0  0
   54.1463   30.2806   36.5887 H   0  0  0  0  0  0  0  0  0  0  0  0
   55.4347   31.4136   36.9463 H   0  0  0  0  0  0  0  0  0  0  0  0
   55.1043   28.9212   38.1911 H   0  0  0  0  0  0  0  0  0  0  0  0
   56.0233   30.2563   38.9202 H   0  0  0  0  0  0  0  0  0  0  0  0
   54.3401   30.6954   40.4595 H   0  0  0  0  0  0  0  0  0  0  0  0
   53.7069   29.1089   40.0644 H   0  0  0  0  0  0  0  0  0  0  0  0
  1 10  1  0
  1  4  1  0
  2  7  2  0
  3  2  1  0
  4  3  2  0
  4  5  1  0
  5  6  2  0
  6  7  1  0
  8  1  1  0
  9  1  1  0
 11 10  1  0
 12 11  1  0
 12 13  2  0
 14 13  1  0
 15 14  1  0
 16 15  2  0
 16 12  1  0
 17 21  1  0
 17 15  1  0
 18 17  1  0
 19 18  1  0
 19 20  1  0
 20 21  1  0
  2 22  1  0
  3 23  1  0
  6 24  1  0
  8 25  1  0
  8 26  1  0
  8 27  1  0
  9 28  1  0
  9 29  1  0
  9 30  1  0
 10 31  1  0
 10 32  1  0
 17 33  1  0
 18 34  1  0
 18 35  1  0
 19 36  1  0
 19 37  1  0
 20 38  1  0
 20 39  1  0
 21 40  1  0
 21 41  1  0
M  ISO  8  22  14  23  14  24  14  25   8  26   8  27   8  28   8  29   8
M  ISO  8  30   8  31   8  32   8  33  13  34  13  35  13  36  13  37  13
M  ISO  4  38  13  39  13  40  13  41  13
M  END
>  <minimizedAffinity>  (1) 
-5.07435751

>  <minimizedRMSD>  (1) 
0.677650928

$$$$
