
     RDKit          3D

 36 38  0  0  0  0  0  0  0  0999 V2000
   47.6530   34.4750   41.8980 C   0  0  0  0  0  0  0  0  0  0  0  0
   44.8010   35.7990   44.0240 C   0  0  0  0  0  0  0  0  0  0  0  0
   45.6860   35.7040   42.9390 C   0  0  0  0  0  0  0  0  0  0  0  0
   46.6650   34.6880   42.9620 C   0  0  0  0  0  0  0  0  0  0  0  0
   46.6920   33.8570   44.0400 N   0  0  0  0  0  0  0  0  0  0  0  0
   45.8150   33.9830   45.0680 C   0  0  0  0  0  0  0  0  0  0  0  0
   44.8760   34.9480   45.0610 N   0  0  0  0  0  0  0  0  0  0  0  0
   46.8790   34.2030   40.6140 C   0  0  0  0  0  0  0  0  0  0  0  0
   48.6060   35.5940   41.6960 C   0  0  0  0  0  0  0  0  0  0  0  0
   48.4480   33.2290   42.2150 C   0  0  0  0  0  0  0  0  0  0  0  0
   48.5630   32.3870   41.1090 O   0  0  0  0  0  0  0  0  0  0  0  0
   49.8160   32.0830   40.6150 C   0  0  0  0  0  0  0  0  0  0  0  0
   50.9260   32.2400   41.3750 N   0  0  0  0  0  0  0  0  0  0  0  0
   51.9780   31.8890   40.6880 O   0  0  0  0  0  0  0  0  0  0  0  0
   51.6300   31.4980   39.4930 C   0  0  0  0  0  0  0  0  0  0  0  0
   50.3000   31.6180   39.4470 N   0  0  0  0  0  0  0  0  0  0  0  0
   52.5160   31.0310   38.4340 C   0  0  0  0  0  0  0  0  0  0  0  0
   53.8680   31.3030   38.4990 C   0  0  0  0  0  0  0  0  0  0  0  0
   54.6980   30.8500   37.4800 C   0  0  0  0  0  0  0  0  0  0  0  0
   54.1540   30.1500   36.4460 N   0  0  0  0  0  0  0  0  0  0  0  0
   52.8340   29.9020   36.4140 C   0  0  0  0  0  0  0  0  0  0  0  0
   51.9890   30.3310   37.3970 N   0  0  0  0  0  0  0  0  0  0  0  0
   44.0314   36.5850   44.0255 H   0  0  0  0  0  0  0  0  0  0  0  0
   45.6183   36.4033   42.0926 H   0  0  0  0  0  0  0  0  0  0  0  0
   45.8720   33.2875   45.9183 H   0  0  0  0  0  0  0  0  0  0  0  0
   45.8682   33.8478   40.8634 H   0  0  0  0  0  0  0  0  0  0  0  0
   46.8072   35.1298   40.0258 H   0  0  0  0  0  0  0  0  0  0  0  0
   47.4028   33.4351   40.0258 H   0  0  0  0  0  0  0  0  0  0  0  0
   48.9331   35.9780   42.6735 H   0  0  0  0  0  0  0  0  0  0  0  0
   49.4795   35.2345   41.1324 H   0  0  0  0  0  0  0  0  0  0  0  0
   48.1120   36.3991   41.1324 H   0  0  0  0  0  0  0  0  0  0  0  0
   49.4556   33.5245   42.5427 H   0  0  0  0  0  0  0  0  0  0  0  0
   47.9173   32.6796   43.0065 H   0  0  0  0  0  0  0  0  0  0  0  0
   54.2827   31.8703   39.3453 H   0  0  0  0  0  0  0  0  0  0  0  0
   55.7786   31.0539   37.5084 H   0  0  0  0  0  0  0  0  0  0  0  0
   52.4201   29.3343   35.5676 H   0  0  0  0  0  0  0  0  0  0  0  0
  1 10  1  0
  1  4  1  0
  2  7  2  0
  3  4  2  0
  3  2  1  0
  4  5  1  0
  5  6  2  0
  7  6  1  0
  8  1  1  0
  9  1  1  0
 11 10  1  0
 12 11  1  0
 12 13  2  0
 14 13  1  0
 15 14  1  0
 16 15  2  0
 16 12  1  0
 17 18  2  0
 17 15  1  0
 19 18  1  0
 20 19  2  0
 21 20  1  0
 21 22  2  0
 22 17  1  0
  2 23  1  0
  3 24  1  0
  6 25  1  0
  8 26  1  0
  8 27  1  0
  8 28  1  0
  9 29  1  0
  9 30  1  0
  9 31  1  0
 10 32  1  0
 10 33  1  0
 18 34  1  0
 19 35  1  0
 21 36  1  0
M  ISO  8  23  14  24  14  25  14  26   8  27   8  28   8  29   8  30   8
M  ISO  6  31   8  32   8  33   8  34  14  35  14  36  14
M  END
>  <minimizedAffinity>  (1) 
-5.07626963

>  <minimizedRMSD>  (1) 
0.895285368

$$$$
