
     RDKit          3D

 31 32  0  0  0  0  0  0  0  0999 V2000
   47.3100   34.4380   41.9930 C   0  0  0  0  0  0  0  0  0  0  0  0
   44.6760   36.0150   44.2160 C   0  0  0  0  0  0  0  0  0  0  0  0
   45.5080   35.8270   43.1020 C   0  0  0  0  0  0  0  0  0  0  0  0
   46.3940   34.7330   43.1000 C   0  0  0  0  0  0  0  0  0  0  0  0
   46.3900   33.9210   44.1850 N   0  0  0  0  0  0  0  0  0  0  0  0
   45.5710   34.1370   45.2420 C   0  0  0  0  0  0  0  0  0  0  0  0
   44.7170   35.1780   45.2600 N   0  0  0  0  0  0  0  0  0  0  0  0
   46.4730   34.1810   40.7540 C   0  0  0  0  0  0  0  0  0  0  0  0
   48.3560   35.4670   41.7360 C   0  0  0  0  0  0  0  0  0  0  0  0
   48.0350   33.1370   42.3040 C   0  0  0  0  0  0  0  0  0  0  0  0
   48.2830   32.3960   41.1500 O   0  0  0  0  0  0  0  0  0  0  0  0
   49.6020   32.1500   40.7820 C   0  0  0  0  0  0  0  0  0  0  0  0
   50.6190   32.3150   41.6690 N   0  0  0  0  0  0  0  0  0  0  0  0
   51.7420   32.0280   41.0950 O   0  0  0  0  0  0  0  0  0  0  0  0
   51.5400   31.6720   39.8450 C   0  0  0  0  0  0  0  0  0  0  0  0
   50.2210   31.7490   39.6590 N   0  0  0  0  0  0  0  0  0  0  0  0
   52.5290   31.2600   38.8110 C   0  0  0  0  0  0  0  0  0  0  0  0
   52.5330   32.1630   37.7840 F   0  0  0  0  0  0  0  0  0  0  0  0
   53.8160   31.2320   39.3180 F   0  0  0  0  0  0  0  0  0  0  0  0
   52.2410   30.0170   38.3000 F   0  0  0  0  0  0  0  0  0  0  0  0
   43.9779   36.8649   44.2318 H   0  0  0  0  0  0  0  0  0  0  0  0
   45.4688   36.5197   42.2484 H   0  0  0  0  0  0  0  0  0  0  0  0
   45.6041   33.4501   46.1006 H   0  0  0  0  0  0  0  0  0  0  0  0
   45.4611   33.8703   41.0531 H   0  0  0  0  0  0  0  0  0  0  0  0
   46.4119   35.1018   40.1553 H   0  0  0  0  0  0  0  0  0  0  0  0
   46.9392   33.3846   40.1553 H   0  0  0  0  0  0  0  0  0  0  0  0
   48.7410   35.8458   42.6943 H   0  0  0  0  0  0  0  0  0  0  0  0
   49.1796   35.0173   41.1620 H   0  0  0  0  0  0  0  0  0  0  0  0
   47.9198   36.2978   41.1620 H   0  0  0  0  0  0  0  0  0  0  0  0
   48.9936   33.3706   42.7904 H   0  0  0  0  0  0  0  0  0  0  0  0
   47.3931   32.5366   42.9654 H   0  0  0  0  0  0  0  0  0  0  0  0
  1 10  1  0
  1  4  1  0
  2  7  2  0
  3  2  1  0
  4  3  2  0
  4  5  1  0
  5  6  2  0
  6  7  1  0
  8  1  1  0
  9  1  1  0
 11 10  1  0
 12 11  1  0
 12 13  2  0
 14 13  1  0
 15 14  1  0
 16 15  2  0
 16 12  1  0
 17 19  1  0
 17 15  1  0
 18 17  1  0
 20 17  1  0
  2 21  1  0
  3 22  1  0
  6 23  1  0
  8 24  1  0
  8 25  1  0
  8 26  1  0
  9 27  1  0
  9 28  1  0
  9 29  1  0
 10 30  1  0
 10 31  1  0
M  ISO  8  21  14  22  14  23  14  24   8  25   8  26   8  27   8  28   8
M  ISO  3  29   8  30   8  31   8
M  END
>  <minimizedAffinity>  (1) 
-4.84333277

>  <minimizedRMSD>  (1) 
0.574272513

$$$$
