
     RDKit          3D

 29 30  0  0  0  0  0  0  0  0999 V2000
   47.0070   34.4310   42.1250 C   0  0  0  0  0  0  0  0  0  0  0  0
   44.5410   35.8890   44.6240 C   0  0  0  0  0  0  0  0  0  0  0  0
   45.2740   35.7450   43.4360 C   0  0  0  0  0  0  0  0  0  0  0  0
   46.1820   34.6840   43.3240 C   0  0  0  0  0  0  0  0  0  0  0  0
   46.3020   33.8420   44.3910 N   0  0  0  0  0  0  0  0  0  0  0  0
   45.5790   34.0080   45.5280 C   0  0  0  0  0  0  0  0  0  0  0  0
   44.7030   35.0270   45.6420 N   0  0  0  0  0  0  0  0  0  0  0  0
   46.0610   34.2650   40.9560 C   0  0  0  0  0  0  0  0  0  0  0  0
   48.0430   35.4390   41.8490 C   0  0  0  0  0  0  0  0  0  0  0  0
   47.6940   33.0890   42.3030 C   0  0  0  0  0  0  0  0  0  0  0  0
   48.0540   32.5230   41.0860 O   0  0  0  0  0  0  0  0  0  0  0  0
   49.3870   32.2380   40.8380 C   0  0  0  0  0  0  0  0  0  0  0  0
   50.3560   32.6120   41.6850 N   0  0  0  0  0  0  0  0  0  0  0  0
   51.5240   32.2400   41.2530 O   0  0  0  0  0  0  0  0  0  0  0  0
   51.3850   31.6100   40.1160 C   0  0  0  0  0  0  0  0  0  0  0  0
   50.0690   31.6070   39.8580 N   0  0  0  0  0  0  0  0  0  0  0  0
   52.3910   30.7990   38.8810 S   0  0  0  0  0  0  0  0  0  0  0  0
   43.8248   36.7180   44.7231 H   0  0  0  0  0  0  0  0  0  0  0  0
   45.1378   36.4539   42.6060 H   0  0  0  0  0  0  0  0  0  0  0  0
   45.7089   33.3049   46.3639 H   0  0  0  0  0  0  0  0  0  0  0  0
   45.0425   34.0863   41.3311 H   0  0  0  0  0  0  0  0  0  0  0  0
   46.0711   35.1786   40.3435 H   0  0  0  0  0  0  0  0  0  0  0  0
   46.3816   33.4094   40.3435 H   0  0  0  0  0  0  0  0  0  0  0  0
   48.4405   35.8258   42.7989 H   0  0  0  0  0  0  0  0  0  0  0  0
   48.8578   34.9786   41.2709 H   0  0  0  0  0  0  0  0  0  0  0  0
   47.6051   36.2661   41.2709 H   0  0  0  0  0  0  0  0  0  0  0  0
   48.6001   33.2316   42.9102 H   0  0  0  0  0  0  0  0  0  0  0  0
   46.9862   32.4080   42.7983 H   0  0  0  0  0  0  0  0  0  0  0  0
   53.3428   30.0317   39.4992 H   0  0  0  0  0  0  0  0  0  0  0  0
  1 10  1  0
  1  4  1  0
  2  7  2  0
  3  2  1  0
  4  3  2  0
  4  5  1  0
  5  6  2  0
  6  7  1  0
  8  1  1  0
  9  1  1  0
 11 10  1  0
 12 11  1  0
 12 13  2  0
 14 13  1  0
 15 14  1  0
 16 15  2  0
 16 12  1  0
 17 15  1  0
  2 18  1  0
  3 19  1  0
  6 20  1  0
  8 21  1  0
  8 22  1  0
  8 23  1  0
  9 24  1  0
  9 25  1  0
  9 26  1  0
 10 27  1  0
 10 28  1  0
 17 29  1  0
M  ISO  8  18  14  19  14  20  14  21   8  22   8  23   8  24   8  25   8
M  ISO  4  26   8  27   8  28   8  29  11
M  END
>  <minimizedAffinity>  (1) 
-4.47871351

>  <minimizedRMSD>  (1) 
0.0528680235

$$$$
