
     RDKit          3D

 29 30  0  0  0  0  0  0  0  0999 V2000
   46.9800   34.4250   42.1390 C   0  0  0  0  0  0  0  0  0  0  0  0
   44.5330   35.8860   44.6480 C   0  0  0  0  0  0  0  0  0  0  0  0
   45.2600   35.7510   43.4400 C   0  0  0  0  0  0  0  0  0  0  0  0
   46.1680   34.6760   43.3350 C   0  0  0  0  0  0  0  0  0  0  0  0
   46.2920   33.8350   44.3960 N   0  0  0  0  0  0  0  0  0  0  0  0
   45.5700   34.0110   45.5310 C   0  0  0  0  0  0  0  0  0  0  0  0
   44.7050   35.0180   45.6590 N   0  0  0  0  0  0  0  0  0  0  0  0
   46.0180   34.2720   40.9610 C   0  0  0  0  0  0  0  0  0  0  0  0
   48.0140   35.4340   41.8430 C   0  0  0  0  0  0  0  0  0  0  0  0
   47.6630   33.0820   42.2960 C   0  0  0  0  0  0  0  0  0  0  0  0
   48.0540   32.5380   41.0780 O   0  0  0  0  0  0  0  0  0  0  0  0
   49.3940   32.2640   40.8580 C   0  0  0  0  0  0  0  0  0  0  0  0
   50.3540   32.6570   41.7370 N   0  0  0  0  0  0  0  0  0  0  0  0
   51.5110   32.2800   41.3010 O   0  0  0  0  0  0  0  0  0  0  0  0
   51.4030   31.6470   40.1660 C   0  0  0  0  0  0  0  0  0  0  0  0
   50.0960   31.6350   39.8920 N   0  0  0  0  0  0  0  0  0  0  0  0
   52.4190   31.0950   39.3950 O   0  0  0  0  0  0  0  0  0  0  0  0
   43.8171   36.7136   44.7601 H   0  0  0  0  0  0  0  0  0  0  0  0
   45.1214   36.4607   42.6111 H   0  0  0  0  0  0  0  0  0  0  0  0
   45.7011   33.3064   46.3655 H   0  0  0  0  0  0  0  0  0  0  0  0
   44.9979   34.1098   41.3393 H   0  0  0  0  0  0  0  0  0  0  0  0
   46.0408   35.1851   40.3480 H   0  0  0  0  0  0  0  0  0  0  0  0
   46.3230   33.4111   40.3480 H   0  0  0  0  0  0  0  0  0  0  0  0
   48.4201   35.8302   42.7854 H   0  0  0  0  0  0  0  0  0  0  0  0
   48.8239   34.9694   41.2614 H   0  0  0  0  0  0  0  0  0  0  0  0
   47.5693   36.2550   41.2614 H   0  0  0  0  0  0  0  0  0  0  0  0
   48.5546   33.2113   42.9271 H   0  0  0  0  0  0  0  0  0  0  0  0
   46.9401   32.3909   42.7540 H   0  0  0  0  0  0  0  0  0  0  0  0
   52.2018   30.6362   38.5450 H   0  0  0  0  0  0  0  0  0  0  0  0
  1 10  1  0
  1  4  1  0
  2  7  2  0
  3  2  1  0
  4  3  2  0
  4  5  1  0
  5  6  2  0
  6  7  1  0
  8  1  1  0
  9  1  1  0
 11 10  1  0
 12 11  1  0
 12 13  2  0
 14 13  1  0
 15 14  1  0
 16 15  2  0
 16 12  1  0
 17 15  1  0
  2 18  1  0
  3 19  1  0
  6 20  1  0
  8 21  1  0
  8 22  1  0
  8 23  1  0
  9 24  1  0
  9 25  1  0
  9 26  1  0
 10 27  1  0
 10 28  1  0
 17 29  1  0
M  ISO  8  18  14  19  14  20  14  21   8  22   8  23   8  24   8  25   8
M  ISO  4  26   8  27   8  28   8  29   3
M  END
>  <minimizedAffinity>  (1) 
-4.49023628

>  <minimizedRMSD>  (1) 
0.0715948045

$$$$
