
     RDKit          3D

 40 43  0  0  0  0  0  0  0  0999 V2000
   47.9690   33.1310   42.3270 C   0  0  0  0  0  0  0  0  0  0  0  0
   47.2680   34.4410   42.0150 C   0  0  0  0  0  0  0  0  0  0  0  0
   44.6500   36.0500   44.2510 C   0  0  0  0  0  0  0  0  0  0  0  0
   45.4820   35.8630   43.1160 C   0  0  0  0  0  0  0  0  0  0  0  0
   46.3550   34.7570   43.1170 C   0  0  0  0  0  0  0  0  0  0  0  0
   46.3510   33.9300   44.2070 N   0  0  0  0  0  0  0  0  0  0  0  0
   45.5290   34.1670   45.2610 C   0  0  0  0  0  0  0  0  0  0  0  0
   44.6960   35.2000   45.2890 N   0  0  0  0  0  0  0  0  0  0  0  0
   46.4190   34.1880   40.7800 C   0  0  0  0  0  0  0  0  0  0  0  0
   48.3030   35.4570   41.7350 C   0  0  0  0  0  0  0  0  0  0  0  0
   48.2400   32.3930   41.1720 O   0  0  0  0  0  0  0  0  0  0  0  0
   49.5630   32.1570   40.8160 C   0  0  0  0  0  0  0  0  0  0  0  0
   50.5910   32.4780   41.6340 N   0  0  0  0  0  0  0  0  0  0  0  0
   51.7080   32.1560   41.0680 O   0  0  0  0  0  0  0  0  0  0  0  0
   51.4990   31.6260   39.9020 C   0  0  0  0  0  0  0  0  0  0  0  0
   50.1800   31.6240   39.7420 N   0  0  0  0  0  0  0  0  0  0  0  0
   52.4090   31.1410   38.9620 O   0  0  0  0  0  0  0  0  0  0  0  0
   56.5730   29.7200   37.7060 N   0  0  0  0  0  0  0  0  0  0  0  0
   56.0030   30.4960   36.7450 C   0  0  0  0  0  0  0  0  0  0  0  0
   54.7840   30.8870   37.1620 N   0  0  0  0  0  0  0  0  0  0  0  0
   54.5540   30.3650   38.4010 C   0  0  0  0  0  0  0  0  0  0  0  0
   53.5260   30.4010   39.3240 C   0  0  0  0  0  0  0  0  0  0  0  0
   53.6600   29.7370   40.4880 N   0  0  0  0  0  0  0  0  0  0  0  0
   54.7820   29.0300   40.7790 C   0  0  0  0  0  0  0  0  0  0  0  0
   55.8080   28.9670   39.9110 N   0  0  0  0  0  0  0  0  0  0  0  0
   55.6950   29.6290   38.7300 C   0  0  0  0  0  0  0  0  0  0  0  0
   48.9176   33.3493   42.8394 H   0  0  0  0  0  0  0  0  0  0  0  0
   47.3010   32.5320   42.9633 H   0  0  0  0  0  0  0  0  0  0  0  0
   43.9574   36.9041   44.2803 H   0  0  0  0  0  0  0  0  0  0  0  0
   45.4463   36.5582   42.2643 H   0  0  0  0  0  0  0  0  0  0  0  0
   45.5541   33.4804   46.1201 H   0  0  0  0  0  0  0  0  0  0  0  0
   45.4066   33.8863   41.0866 H   0  0  0  0  0  0  0  0  0  0  0  0
   46.3615   35.1080   40.1798 H   0  0  0  0  0  0  0  0  0  0  0  0
   46.8745   33.3866   40.1798 H   0  0  0  0  0  0  0  0  0  0  0  0
   48.7002   35.8469   42.6838 H   0  0  0  0  0  0  0  0  0  0  0  0
   49.1189   34.9994   41.1564 H   0  0  0  0  0  0  0  0  0  0  0  0
   47.8606   36.2813   41.1564 H   0  0  0  0  0  0  0  0  0  0  0  0
   57.5040   29.2816   37.6616 H   0  0  0  0  0  0  0  0  0  0  0  0
   56.4639   30.7613   35.7821 H   0  0  0  0  0  0  0  0  0  0  0  0
   54.8533   28.5000   41.7403 H   0  0  0  0  0  0  0  0  0  0  0  0
  2  1  1  0
  2  5  1  0
  3  8  2  0
  4  5  2  0
  4  3  1  0
  5  6  1  0
  6  7  2  0
  7  8  1  0
  9  2  1  0
 10  2  1  0
 11  1  1  0
 12 11  1  0
 12 13  2  0
 14 13  1  0
 15 14  1  0
 16 15  2  0
 16 12  1  0
 17 22  1  0
 17 15  1  0
 18 26  1  0
 19 20  2  0
 19 18  1  0
 20 21  1  0
 21 26  2  0
 21 22  1  0
 22 23  2  0
 23 24  1  0
 25 24  2  0
 26 25  1  0
  1 27  1  0
  1 28  1  0
  3 29  1  0
  4 30  1  0
  7 31  1  0
  9 32  1  0
  9 33  1  0
  9 34  1  0
 10 35  1  0
 10 36  1  0
 10 37  1  0
 18 38  1  0
 19 39  1  0
 24 40  1  0
M  ISO  8  27   8  28   8  29  14  30  14  31  14  32   8  33   8  34   8
M  ISO  6  35   8  36   8  37   8  38   9  39  14  40  14
M  END
>  <minimizedAffinity>  (1) 
-5.11059666

>  <minimizedRMSD>  (1) 
0.967797637

$$$$
