
     RDKit          3D

 37 39  0  0  0  0  0  0  0  0999 V2000
   47.2350   34.4350   42.0370 C   0  0  0  0  0  0  0  0  0  0  0  0
   44.6380   36.0600   44.2810 C   0  0  0  0  0  0  0  0  0  0  0  0
   45.4630   35.8640   43.1480 C   0  0  0  0  0  0  0  0  0  0  0  0
   46.3310   34.7480   43.1490 C   0  0  0  0  0  0  0  0  0  0  0  0
   46.3150   33.9400   44.2350 N   0  0  0  0  0  0  0  0  0  0  0  0
   45.5050   34.1680   45.3010 C   0  0  0  0  0  0  0  0  0  0  0  0
   44.6780   35.2160   45.3180 N   0  0  0  0  0  0  0  0  0  0  0  0
   46.3660   34.1790   40.8080 C   0  0  0  0  0  0  0  0  0  0  0  0
   48.2610   35.4440   41.7440 C   0  0  0  0  0  0  0  0  0  0  0  0
   47.9230   33.1250   42.3390 C   0  0  0  0  0  0  0  0  0  0  0  0
   48.2300   32.4090   41.1890 O   0  0  0  0  0  0  0  0  0  0  0  0
   49.5420   32.1890   40.8420 C   0  0  0  0  0  0  0  0  0  0  0  0
   50.5560   32.5150   41.7030 N   0  0  0  0  0  0  0  0  0  0  0  0
   51.6910   32.2130   41.1520 O   0  0  0  0  0  0  0  0  0  0  0  0
   51.5200   31.7020   39.9740 C   0  0  0  0  0  0  0  0  0  0  0  0
   50.2070   31.6870   39.7840 N   0  0  0  0  0  0  0  0  0  0  0  0
   52.5040   31.2640   39.0930 O   0  0  0  0  0  0  0  0  0  0  0  0
   53.5790   30.5120   39.5460 C   0  0  0  0  0  0  0  0  0  0  0  0
   54.4510   30.1400   38.5170 C   0  0  0  0  0  0  0  0  0  0  0  0
   55.5620   29.3830   38.8730 C   0  0  0  0  0  0  0  0  0  0  0  0
   55.7650   29.0400   40.1390 N   0  0  0  0  0  0  0  0  0  0  0  0
   54.8890   29.4240   41.1100 C   0  0  0  0  0  0  0  0  0  0  0  0
   53.8120   30.1490   40.8200 N   0  0  0  0  0  0  0  0  0  0  0  0
   43.9529   36.9201   44.3094 H   0  0  0  0  0  0  0  0  0  0  0  0
   45.4300   36.5572   42.2945 H   0  0  0  0  0  0  0  0  0  0  0  0
   45.5306   33.4815   46.1601 H   0  0  0  0  0  0  0  0  0  0  0  0
   45.3565   33.8816   41.1282 H   0  0  0  0  0  0  0  0  0  0  0  0
   46.3039   35.0970   40.2052 H   0  0  0  0  0  0  0  0  0  0  0  0
   46.8115   33.3739   40.2052 H   0  0  0  0  0  0  0  0  0  0  0  0
   48.6647   35.8410   42.6871 H   0  0  0  0  0  0  0  0  0  0  0  0
   49.0732   34.9830   41.1627 H   0  0  0  0  0  0  0  0  0  0  0  0
   47.8137   36.2638   41.1627 H   0  0  0  0  0  0  0  0  0  0  0  0
   48.8552   33.3335   42.8844 H   0  0  0  0  0  0  0  0  0  0  0  0
   47.2320   32.5145   42.9389 H   0  0  0  0  0  0  0  0  0  0  0  0
   54.2661   30.4332   37.4730 H   0  0  0  0  0  0  0  0  0  0  0  0
   56.2776   29.0663   38.0999 H   0  0  0  0  0  0  0  0  0  0  0  0
   55.0761   29.1289   42.1530 H   0  0  0  0  0  0  0  0  0  0  0  0
  1 10  1  0
  1  4  1  0
  2  7  2  0
  3  4  2  0
  3  2  1  0
  4  5  1  0
  5  6  2  0
  6  7  1  0
  8  1  1  0
  9  1  1  0
 11 10  1  0
 12 11  1  0
 12 13  2  0
 14 13  1  0
 15 14  1  0
 16 15  2  0
 16 12  1  0
 17 18  1  0
 17 15  1  0
 18 23  2  0
 19 20  2  0
 19 18  1  0
 20 21  1  0
 21 22  2  0
 23 22  1  0
  2 24  1  0
  3 25  1  0
  6 26  1  0
  8 27  1  0
  8 28  1  0
  8 29  1  0
  9 30  1  0
  9 31  1  0
  9 32  1  0
 10 33  1  0
 10 34  1  0
 19 35  1  0
 20 36  1  0
 22 37  1  0
M  ISO  8  24  14  25  14  26  14  27   8  28   8  29   8  30   8  31   8
M  ISO  6  32   8  33   8  34   8  35  14  36  14  37  14
M  END
>  <minimizedAffinity>  (1) 
-4.7860775

>  <minimizedRMSD>  (1) 
0.912552118

$$$$
