
     RDKit          3D

 32 33  0  0  0  0  0  0  0  0999 V2000
   46.9770   34.4450   42.1120 C   0  0  0  0  0  0  0  0  0  0  0  0
   44.5300   36.0660   44.5350 C   0  0  0  0  0  0  0  0  0  0  0  0
   45.2850   35.8690   43.3560 C   0  0  0  0  0  0  0  0  0  0  0  0
   46.1440   34.7550   43.2840 C   0  0  0  0  0  0  0  0  0  0  0  0
   46.1970   33.9300   44.3550 N   0  0  0  0  0  0  0  0  0  0  0  0
   45.4630   34.1480   45.4660 C   0  0  0  0  0  0  0  0  0  0  0  0
   44.6390   35.2030   45.5560 N   0  0  0  0  0  0  0  0  0  0  0  0
   46.0460   34.2710   40.9230 C   0  0  0  0  0  0  0  0  0  0  0  0
   48.0350   35.4420   41.8160 C   0  0  0  0  0  0  0  0  0  0  0  0
   47.6460   33.1120   42.3290 C   0  0  0  0  0  0  0  0  0  0  0  0
   47.9590   32.4650   41.1460 O   0  0  0  0  0  0  0  0  0  0  0  0
   49.2810   32.1360   40.8760 C   0  0  0  0  0  0  0  0  0  0  0  0
   50.3090   32.6440   41.6150 N   0  0  0  0  0  0  0  0  0  0  0  0
   51.4150   32.1800   41.1540 O   0  0  0  0  0  0  0  0  0  0  0  0
   51.2210   31.3860   40.1490 C   0  0  0  0  0  0  0  0  0  0  0  0
   49.8930   31.3480   39.9630 N   0  0  0  0  0  0  0  0  0  0  0  0
   52.1600   30.6890   39.3820 O   0  0  0  0  0  0  0  0  0  0  0  0
   53.0130   31.4540   38.5660 C   0  0  0  0  0  0  0  0  0  0  0  0
   52.2920   31.9150   37.6440 O   0  0  0  0  0  0  0  0  0  0  0  0
   54.0730   32.1180   37.9700 O   0  0  0  0  0  0  0  0  0  0  0  0
   43.8520   36.9285   44.6151 H   0  0  0  0  0  0  0  0  0  0  0  0
   45.2033   36.5708   42.5129 H   0  0  0  0  0  0  0  0  0  0  0  0
   45.5415   33.4492   46.3119 H   0  0  0  0  0  0  0  0  0  0  0  0
   45.0241   34.0800   41.2824 H   0  0  0  0  0  0  0  0  0  0  0  0
   46.0551   35.1864   40.3131 H   0  0  0  0  0  0  0  0  0  0  0  0
   46.3851   33.4207   40.3131 H   0  0  0  0  0  0  0  0  0  0  0  0
   48.4471   35.8303   42.7591 H   0  0  0  0  0  0  0  0  0  0  0  0
   48.8372   34.9638   41.2347 H   0  0  0  0  0  0  0  0  0  0  0  0
   47.6052   36.2711   41.2347 H   0  0  0  0  0  0  0  0  0  0  0  0
   48.5745   33.2740   42.8962 H   0  0  0  0  0  0  0  0  0  0  0  0
   46.9369   32.4731   42.8758 H   0  0  0  0  0  0  0  0  0  0  0  0
   53.9255   32.6472   37.1464 H   0  0  0  0  0  0  0  0  0  0  0  0
  1 10  1  0
  1  4  1  0
  2  7  2  0
  3  2  1  0
  4  3  2  0
  4  5  1  0
  5  6  2  0
  6  7  1  0
  8  1  1  0
  9  1  1  0
 11 10  1  0
 12 11  1  0
 12 13  2  0
 14 13  1  0
 15 14  1  0
 16 15  2  0
 16 12  1  0
 17 15  1  0
 18 17  1  0
 19 18  2  0
 20 18  1  0
  2 21  1  0
  3 22  1  0
  6 23  1  0
  8 24  1  0
  8 25  1  0
  8 26  1  0
  9 27  1  0
  9 28  1  0
  9 29  1  0
 10 30  1  0
 10 31  1  0
 20 32  1  0
M  ISO  8  21  14  22  14  23  14  24   8  25   8  26   8  27   8  28   8
M  ISO  4  29   8  30   8  31   8  32   3
M  END
>  <minimizedAffinity>  (1) 
-4.81209803

>  <minimizedRMSD>  (1) 
0.320668429

$$$$
