
     RDKit          3D

 38 40  0  0  0  0  0  0  0  0999 V2000
   47.2090   34.4430   42.0540 C   0  0  0  0  0  0  0  0  0  0  0  0
   44.6190   36.0760   44.2930 C   0  0  0  0  0  0  0  0  0  0  0  0
   45.4420   35.8800   43.1550 C   0  0  0  0  0  0  0  0  0  0  0  0
   46.3020   34.7660   43.1650 C   0  0  0  0  0  0  0  0  0  0  0  0
   46.3010   33.9380   44.2560 N   0  0  0  0  0  0  0  0  0  0  0  0
   45.4870   34.1900   45.3050 C   0  0  0  0  0  0  0  0  0  0  0  0
   44.6640   35.2270   45.3330 N   0  0  0  0  0  0  0  0  0  0  0  0
   46.3380   34.1800   40.8160 C   0  0  0  0  0  0  0  0  0  0  0  0
   48.2350   35.4430   41.7450 C   0  0  0  0  0  0  0  0  0  0  0  0
   47.9000   33.1230   42.3560 C   0  0  0  0  0  0  0  0  0  0  0  0
   48.2130   32.4220   41.1890 O   0  0  0  0  0  0  0  0  0  0  0  0
   49.5470   32.2090   40.8770 C   0  0  0  0  0  0  0  0  0  0  0  0
   50.5520   32.5340   41.7480 N   0  0  0  0  0  0  0  0  0  0  0  0
   51.6810   32.2320   41.2130 O   0  0  0  0  0  0  0  0  0  0  0  0
   51.5200   31.7200   40.0240 C   0  0  0  0  0  0  0  0  0  0  0  0
   50.2100   31.7090   39.8250 N   0  0  0  0  0  0  0  0  0  0  0  0
   52.5170   31.2790   39.1660 O   0  0  0  0  0  0  0  0  0  0  0  0
   53.5850   30.5190   39.6050 C   0  0  0  0  0  0  0  0  0  0  0  0
   54.4430   30.1560   38.5740 C   0  0  0  0  0  0  0  0  0  0  0  0
   55.5700   29.3830   38.8700 C   0  0  0  0  0  0  0  0  0  0  0  0
   55.8740   28.9590   40.1570 C   0  0  0  0  0  0  0  0  0  0  0  0
   54.9520   29.3740   41.1210 C   0  0  0  0  0  0  0  0  0  0  0  0
   53.8620   30.1170   40.8620 N   0  0  0  0  0  0  0  0  0  0  0  0
   43.9337   36.9359   44.3246 H   0  0  0  0  0  0  0  0  0  0  0  0
   45.4096   36.5705   42.2993 H   0  0  0  0  0  0  0  0  0  0  0  0
   45.5090   33.5081   46.1679 H   0  0  0  0  0  0  0  0  0  0  0  0
   45.3301   33.8757   41.1347 H   0  0  0  0  0  0  0  0  0  0  0  0
   46.2705   35.0978   40.2135 H   0  0  0  0  0  0  0  0  0  0  0  0
   46.7898   33.3782   40.2135 H   0  0  0  0  0  0  0  0  0  0  0  0
   48.6483   35.8458   42.6815 H   0  0  0  0  0  0  0  0  0  0  0  0
   49.0403   34.9737   41.1608 H   0  0  0  0  0  0  0  0  0  0  0  0
   47.7865   36.2600   41.1608 H   0  0  0  0  0  0  0  0  0  0  0  0
   48.8288   33.3258   42.9094 H   0  0  0  0  0  0  0  0  0  0  0  0
   47.2116   32.5053   42.9515 H   0  0  0  0  0  0  0  0  0  0  0  0
   54.2387   30.4720   37.5404 H   0  0  0  0  0  0  0  0  0  0  0  0
   56.2443   29.0987   38.0487 H   0  0  0  0  0  0  0  0  0  0  0  0
   56.7597   28.3519   40.3955 H   0  0  0  0  0  0  0  0  0  0  0  0
   55.1302   29.0721   42.1636 H   0  0  0  0  0  0  0  0  0  0  0  0
  1 10  1  0
  1  4  1  0
  2  7  2  0
  3  4  2  0
  3  2  1  0
  4  5  1  0
  5  6  2  0
  6  7  1  0
  8  1  1  0
  9  1  1  0
 11 10  1  0
 12 11  1  0
 12 13  2  0
 14 13  1  0
 15 14  1  0
 16 15  2  0
 16 12  1  0
 17 18  1  0
 17 15  1  0
 18 23  2  0
 19 20  2  0
 19 18  1  0
 20 21  1  0
 21 22  2  0
 23 22  1  0
  2 24  1  0
  3 25  1  0
  6 26  1  0
  8 27  1  0
  8 28  1  0
  8 29  1  0
  9 30  1  0
  9 31  1  0
  9 32  1  0
 10 33  1  0
 10 34  1  0
 19 35  1  0
 20 36  1  0
 21 37  1  0
 22 38  1  0
M  ISO  8  24  14  25  14  26  14  27   8  28   8  29   8  30   8  31   8
M  ISO  7  32   8  33   8  34   8  35  14  36  14  37  14  38  14
M  END
>  <minimizedAffinity>  (1) 
-4.83305788

>  <minimizedRMSD>  (1) 
0.900696337

$$$$
