
     RDKit          3D

 36 38  0  0  0  0  0  0  0  0999 V2000
   47.3360   34.4510   42.0150 C   0  0  0  0  0  0  0  0  0  0  0  0
   44.6730   36.0260   44.2130 C   0  0  0  0  0  0  0  0  0  0  0  0
   45.5180   35.8390   43.1070 C   0  0  0  0  0  0  0  0  0  0  0  0
   46.4090   34.7460   43.1120 C   0  0  0  0  0  0  0  0  0  0  0  0
   46.3910   33.9400   44.1940 N   0  0  0  0  0  0  0  0  0  0  0  0
   45.5620   34.1440   45.2540 C   0  0  0  0  0  0  0  0  0  0  0  0
   44.7100   35.1820   45.2590 N   0  0  0  0  0  0  0  0  0  0  0  0
   46.5140   34.1810   40.7690 C   0  0  0  0  0  0  0  0  0  0  0  0
   48.3630   35.4940   41.7630 C   0  0  0  0  0  0  0  0  0  0  0  0
   48.0620   33.1630   42.3320 C   0  0  0  0  0  0  0  0  0  0  0  0
   48.2470   32.3770   41.2010 O   0  0  0  0  0  0  0  0  0  0  0  0
   49.5290   32.0950   40.7690 C   0  0  0  0  0  0  0  0  0  0  0  0
   50.6240   32.4160   41.5220 N   0  0  0  0  0  0  0  0  0  0  0  0
   51.6920   32.0490   40.8970 O   0  0  0  0  0  0  0  0  0  0  0  0
   51.3960   31.4940   39.7620 C   0  0  0  0  0  0  0  0  0  0  0  0
   50.0550   31.5190   39.6740 N   0  0  0  0  0  0  0  0  0  0  0  0
   52.3010   30.9800   38.8320 O   0  0  0  0  0  0  0  0  0  0  0  0
   51.9150   30.8230   37.5440 C   0  0  0  0  0  0  0  0  0  0  0  0
   50.9100   31.0830   36.5510 C   0  0  0  0  0  0  0  0  0  0  0  0
   51.0820   30.6350   35.2960 C   0  0  0  0  0  0  0  0  0  0  0  0
   52.2180   29.9240   34.9410 C   0  0  0  0  0  0  0  0  0  0  0  0
   53.2010   29.8470   36.5430 S   0  0  0  0  0  0  0  0  0  0  0  0
   43.9720   36.8737   44.2237 H   0  0  0  0  0  0  0  0  0  0  0  0
   45.4855   36.5318   42.2532 H   0  0  0  0  0  0  0  0  0  0  0  0
   45.5900   33.4550   46.1111 H   0  0  0  0  0  0  0  0  0  0  0  0
   45.5060   33.8499   41.0593 H   0  0  0  0  0  0  0  0  0  0  0  0
   46.4397   35.1019   40.1721 H   0  0  0  0  0  0  0  0  0  0  0  0
   47.0002   33.3954   40.1721 H   0  0  0  0  0  0  0  0  0  0  0  0
   48.7400   35.8769   42.7228 H   0  0  0  0  0  0  0  0  0  0  0  0
   49.1948   35.0586   41.1898 H   0  0  0  0  0  0  0  0  0  0  0  0
   47.9148   36.3189   41.1898 H   0  0  0  0  0  0  0  0  0  0  0  0
   49.0457   33.4061   42.7602 H   0  0  0  0  0  0  0  0  0  0  0  0
   47.4473   32.5933   43.0445 H   0  0  0  0  0  0  0  0  0  0  0  0
   50.0035   31.6465   36.8170 H   0  0  0  0  0  0  0  0  0  0  0  0
   50.3097   30.8354   34.5387 H   0  0  0  0  0  0  0  0  0  0  0  0
   52.4813   29.5054   33.9584 H   0  0  0  0  0  0  0  0  0  0  0  0
  1 10  1  0
  1  4  1  0
  2  7  2  0
  3  4  2  0
  3  2  1  0
  4  5  1  0
  5  6  2  0
  6  7  1  0
  8  1  1  0
  9  1  1  0
 11 10  1  0
 12 11  1  0
 12 13  2  0
 14 13  1  0
 15 14  1  0
 16 15  2  0
 16 12  1  0
 17 15  1  0
 18 17  1  0
 19 18  2  0
 20 19  1  0
 21 20  2  0
 21 22  1  0
 22 18  1  0
  2 23  1  0
  3 24  1  0
  6 25  1  0
  8 26  1  0
  8 27  1  0
  8 28  1  0
  9 29  1  0
  9 30  1  0
  9 31  1  0
 10 32  1  0
 10 33  1  0
 19 34  1  0
 20 35  1  0
 21 36  1  0
M  ISO  8  23  14  24  14  25  14  26   8  27   8  28   8  29   8  30   8
M  ISO  6  31   8  32   8  33   8  34  14  35  14  36  14
M  END
>  <minimizedAffinity>  (1) 
-4.72235298

>  <minimizedRMSD>  (1) 
0.719312608

$$$$
