
     RDKit          3D

 31 32  0  0  0  0  0  0  0  0999 V2000
   47.2340   34.4620   42.0340 C   0  0  0  0  0  0  0  0  0  0  0  0
   44.6480   36.0010   44.3410 C   0  0  0  0  0  0  0  0  0  0  0  0
   45.4610   35.8280   43.2000 C   0  0  0  0  0  0  0  0  0  0  0  0
   46.3450   34.7310   43.1740 C   0  0  0  0  0  0  0  0  0  0  0  0
   46.3720   33.8940   44.2500 N   0  0  0  0  0  0  0  0  0  0  0  0
   45.5690   34.1080   45.3190 C   0  0  0  0  0  0  0  0  0  0  0  0
   44.7190   35.1480   45.3640 N   0  0  0  0  0  0  0  0  0  0  0  0
   46.3380   34.2210   40.8100 C   0  0  0  0  0  0  0  0  0  0  0  0
   48.2590   35.4700   41.7530 C   0  0  0  0  0  0  0  0  0  0  0  0
   47.9260   33.1370   42.2850 C   0  0  0  0  0  0  0  0  0  0  0  0
   48.0940   32.4020   41.1110 O   0  0  0  0  0  0  0  0  0  0  0  0
   49.3720   32.0660   40.7020 C   0  0  0  0  0  0  0  0  0  0  0  0
   50.4760   32.4410   41.4200 N   0  0  0  0  0  0  0  0  0  0  0  0
   51.5370   32.0060   40.8300 O   0  0  0  0  0  0  0  0  0  0  0  0
   51.2230   31.3540   39.7440 C   0  0  0  0  0  0  0  0  0  0  0  0
   49.8970   31.3880   39.6600 N   0  0  0  0  0  0  0  0  0  0  0  0
   52.1140   30.7450   38.8560 O   0  0  0  0  0  0  0  0  0  0  0  0
   52.8090   31.6330   38.0200 C   0  0  0  0  0  0  0  0  0  0  0  0
   54.0600   31.7980   37.9090 O   0  0  0  0  0  0  0  0  0  0  0  0
   43.9483   36.8485   44.3870 H   0  0  0  0  0  0  0  0  0  0  0  0
   45.4060   36.5299   42.3548 H   0  0  0  0  0  0  0  0  0  0  0  0
   45.6134   33.4139   46.1712 H   0  0  0  0  0  0  0  0  0  0  0  0
   45.3260   33.9488   41.1443 H   0  0  0  0  0  0  0  0  0  0  0  0
   46.2899   35.1381   40.2045 H   0  0  0  0  0  0  0  0  0  0  0  0
   46.7564   33.4035   40.2045 H   0  0  0  0  0  0  0  0  0  0  0  0
   48.6574   35.8618   42.7005 H   0  0  0  0  0  0  0  0  0  0  0  0
   49.0744   35.0122   41.1737 H   0  0  0  0  0  0  0  0  0  0  0  0
   47.8149   36.2929   41.1737 H   0  0  0  0  0  0  0  0  0  0  0  0
   48.9146   33.3312   42.7264 H   0  0  0  0  0  0  0  0  0  0  0  0
   47.2937   32.5482   42.9658 H   0  0  0  0  0  0  0  0  0  0  0  0
   52.1847   32.2698   37.3761 H   0  0  0  0  0  0  0  0  0  0  0  0
  1 10  1  0
  1  4  1  0
  2  7  2  0
  3  2  1  0
  4  3  2  0
  4  5  1  0
  5  6  2  0
  6  7  1  0
  8  1  1  0
  9  1  1  0
 11 10  1  0
 12 11  1  0
 12 13  2  0
 14 13  1  0
 15 14  1  0
 16 15  2  0
 16 12  1  0
 17 15  1  0
 18 17  1  0
 19 18  2  0
  2 20  1  0
  3 21  1  0
  6 22  1  0
  8 23  1  0
  8 24  1  0
  8 25  1  0
  9 26  1  0
  9 27  1  0
  9 28  1  0
 10 29  1  0
 10 30  1  0
 18 31  1  0
M  ISO  8  20  14  21  14  22  14  23   8  24   8  25   8  26   8  27   8
M  ISO  4  28   8  29   8  30   8  31   6
M  END
>  <minimizedAffinity>  (1) 
-4.52944994

>  <minimizedRMSD>  (1) 
1.02896357

$$$$
