
     RDKit          3D

 41 42  0  0  0  0  0  0  0  0999 V2000
   47.3740   34.4670   42.0210 C   0  0  0  0  0  0  0  0  0  0  0  0
   44.6880   35.9990   44.2050 C   0  0  0  0  0  0  0  0  0  0  0  0
   45.5380   35.8310   43.1000 C   0  0  0  0  0  0  0  0  0  0  0  0
   46.4460   34.7390   43.1100 C   0  0  0  0  0  0  0  0  0  0  0  0
   46.4320   33.9220   44.1950 N   0  0  0  0  0  0  0  0  0  0  0  0
   45.5870   34.1350   45.2310 C   0  0  0  0  0  0  0  0  0  0  0  0
   44.7310   35.1500   45.2440 N   0  0  0  0  0  0  0  0  0  0  0  0
   46.5420   34.1980   40.7600 C   0  0  0  0  0  0  0  0  0  0  0  0
   48.4000   35.4950   41.7680 C   0  0  0  0  0  0  0  0  0  0  0  0
   48.0870   33.1550   42.3270 C   0  0  0  0  0  0  0  0  0  0  0  0
   48.2350   32.3730   41.1760 O   0  0  0  0  0  0  0  0  0  0  0  0
   49.4920   31.9460   40.8010 C   0  0  0  0  0  0  0  0  0  0  0  0
   50.6170   32.5140   41.3380 N   0  0  0  0  0  0  0  0  0  0  0  0
   51.6630   31.9460   40.8290 O   0  0  0  0  0  0  0  0  0  0  0  0
   51.3300   31.0280   39.9800 C   0  0  0  0  0  0  0  0  0  0  0  0
   50.0040   31.0260   39.9610 N   0  0  0  0  0  0  0  0  0  0  0  0
   52.1900   30.2150   39.2440 O   0  0  0  0  0  0  0  0  0  0  0  0
   52.7580   30.5600   38.0160 C   0  0  0  0  0  0  0  0  0  0  0  0
   53.9140   31.5280   38.1230 C   0  0  0  0  0  0  0  0  0  0  0  0
   51.7100   31.1450   37.0850 C   0  0  0  0  0  0  0  0  0  0  0  0
   53.2830   29.2950   37.3710 C   0  0  0  0  0  0  0  0  0  0  0  0
   43.9769   36.8381   44.2195 H   0  0  0  0  0  0  0  0  0  0  0  0
   45.5015   36.5269   42.2489 H   0  0  0  0  0  0  0  0  0  0  0  0
   45.6102   33.4461   46.0883 H   0  0  0  0  0  0  0  0  0  0  0  0
   45.5323   33.8715   41.0497 H   0  0  0  0  0  0  0  0  0  0  0  0
   46.4723   35.1194   40.1632 H   0  0  0  0  0  0  0  0  0  0  0  0
   47.0250   33.4102   40.1632 H   0  0  0  0  0  0  0  0  0  0  0  0
   48.7809   35.8766   42.7268 H   0  0  0  0  0  0  0  0  0  0  0  0
   49.2280   35.0532   41.1942 H   0  0  0  0  0  0  0  0  0  0  0  0
   47.9566   36.3222   41.1942 H   0  0  0  0  0  0  0  0  0  0  0  0
   49.0824   33.3765   42.7394 H   0  0  0  0  0  0  0  0  0  0  0  0
   47.4801   32.5924   43.0517 H   0  0  0  0  0  0  0  0  0  0  0  0
   54.1381   31.7157   39.1834 H   0  0  0  0  0  0  0  0  0  0  0  0
   54.7992   31.0978   37.6317 H   0  0  0  0  0  0  0  0  0  0  0  0
   53.6459   32.4750   37.6317 H   0  0  0  0  0  0  0  0  0  0  0  0
   50.9020   31.5960   37.6797 H   0  0  0  0  0  0  0  0  0  0  0  0
   52.1723   31.9155   36.4505 H   0  0  0  0  0  0  0  0  0  0  0  0
   51.2968   30.3471   36.4505 H   0  0  0  0  0  0  0  0  0  0  0  0
   53.5795   28.5805   38.1530 H   0  0  0  0  0  0  0  0  0  0  0  0
   52.4959   28.8484   36.7457 H   0  0  0  0  0  0  0  0  0  0  0  0
   54.1550   29.5369   36.7457 H   0  0  0  0  0  0  0  0  0  0  0  0
  1 10  1  0
  1  4  1  0
  2  7  2  0
  3  4  2  0
  3  2  1  0
  4  5  1  0
  5  6  2  0
  6  7  1  0
  8  1  1  0
  9  1  1  0
 11 10  1  0
 12 11  1  0
 12 13  2  0
 14 13  1  0
 15 14  1  0
 16 15  2  0
 16 12  1  0
 17 15  1  0
 18 19  1  0
 18 17  1  0
 20 18  1  0
 21 18  1  0
  2 22  1  0
  3 23  1  0
  6 24  1  0
  8 25  1  0
  8 26  1  0
  8 27  1  0
  9 28  1  0
  9 29  1  0
  9 30  1  0
 10 31  1  0
 10 32  1  0
 19 33  1  0
 19 34  1  0
 19 35  1  0
 20 36  1  0
 20 37  1  0
 20 38  1  0
 21 39  1  0
 21 40  1  0
 21 41  1  0
M  ISO  8  22  14  23  14  24  14  25   8  26   8  27   8  28   8  29   8
M  ISO  8  30   8  31   8  32   8  33   8  34   8  35   8  36   8  37   8
M  ISO  4  38   8  39   8  40   8  41   8
M  END
>  <minimizedAffinity>  (1) 
-4.57350254

>  <minimizedRMSD>  (1) 
0.761894703

$$$$
