
     RDKit          3D

 35 37  0  0  0  0  0  0  0  0999 V2000
   47.0370   34.4600   42.0760 C   0  0  0  0  0  0  0  0  0  0  0  0
   44.5630   36.0400   44.4780 C   0  0  0  0  0  0  0  0  0  0  0  0
   45.3270   35.8630   43.3000 C   0  0  0  0  0  0  0  0  0  0  0  0
   46.1950   34.7520   43.2370 C   0  0  0  0  0  0  0  0  0  0  0  0
   46.2470   33.9230   44.3020 N   0  0  0  0  0  0  0  0  0  0  0  0
   45.4900   34.1370   45.4130 C   0  0  0  0  0  0  0  0  0  0  0  0
   44.6600   35.1840   45.4960 N   0  0  0  0  0  0  0  0  0  0  0  0
   46.0940   34.2320   40.8850 C   0  0  0  0  0  0  0  0  0  0  0  0
   48.0660   35.4570   41.7520 C   0  0  0  0  0  0  0  0  0  0  0  0
   47.7330   33.1310   42.3100 C   0  0  0  0  0  0  0  0  0  0  0  0
   48.1920   32.5680   41.1160 O   0  0  0  0  0  0  0  0  0  0  0  0
   49.5450   32.3160   40.9830 C   0  0  0  0  0  0  0  0  0  0  0  0
   50.4550   32.8340   41.8470 N   0  0  0  0  0  0  0  0  0  0  0  0
   51.6430   32.4470   41.5020 O   0  0  0  0  0  0  0  0  0  0  0  0
   51.6000   31.6860   40.4370 C   0  0  0  0  0  0  0  0  0  0  0  0
   50.3040   31.6070   40.1200 N   0  0  0  0  0  0  0  0  0  0  0  0
   52.6720   31.1030   39.8000 O   0  0  0  0  0  0  0  0  0  0  0  0
   53.2800   30.0140   40.4590 C   0  0  0  0  0  0  0  0  0  0  0  0
   54.5780   29.6380   39.8840 C   0  0  0  0  0  0  0  0  0  0  0  0
   55.0280   28.2470   40.9660 S   0  0  0  0  0  0  0  0  0  0  0  0
   53.4270   28.3930   41.9990 C   0  0  0  0  0  0  0  0  0  0  0  0
   52.7610   29.3720   41.4950 N   0  0  0  0  0  0  0  0  0  0  0  0
   43.8782   36.8974   44.5552 H   0  0  0  0  0  0  0  0  0  0  0  0
   45.2469   36.5689   42.4602 H   0  0  0  0  0  0  0  0  0  0  0  0
   45.5617   33.4366   46.2582 H   0  0  0  0  0  0  0  0  0  0  0  0
   45.0874   33.9886   41.2557 H   0  0  0  0  0  0  0  0  0  0  0  0
   46.0486   35.1451   40.2732 H   0  0  0  0  0  0  0  0  0  0  0  0
   46.4708   33.3991   40.2732 H   0  0  0  0  0  0  0  0  0  0  0  0
   48.4871   35.8650   42.6827 H   0  0  0  0  0  0  0  0  0  0  0  0
   48.8657   34.9812   41.1654 H   0  0  0  0  0  0  0  0  0  0  0  0
   47.6157   36.2713   41.1654 H   0  0  0  0  0  0  0  0  0  0  0  0
   48.5901   33.2912   42.9807 H   0  0  0  0  0  0  0  0  0  0  0  0
   47.0051   32.4380   42.7571 H   0  0  0  0  0  0  0  0  0  0  0  0
   55.1252   30.0754   39.0359 H   0  0  0  0  0  0  0  0  0  0  0  0
   53.1334   27.7657   42.8535 H   0  0  0  0  0  0  0  0  0  0  0  0
  1 10  1  0
  1  4  1  0
  2  7  2  0
  3  2  1  0
  4  3  2  0
  4  5  1  0
  5  6  2  0
  6  7  1  0
  8  1  1  0
  9  1  1  0
 11 10  1  0
 12 11  1  0
 12 13  2  0
 14 13  1  0
 15 14  1  0
 16 15  2  0
 16 12  1  0
 17 15  1  0
 17 18  1  0
 18 22  1  0
 19 18  2  0
 19 20  1  0
 20 21  1  0
 22 21  2  0
  2 23  1  0
  3 24  1  0
  6 25  1  0
  8 26  1  0
  8 27  1  0
  8 28  1  0
  9 29  1  0
  9 30  1  0
  9 31  1  0
 10 32  1  0
 10 33  1  0
 19 34  1  0
 21 35  1  0
M  ISO  8  23  14  24  14  25  14  26   8  27   8  28   8  29   8  30   8
M  ISO  5  31   8  32   8  33   8  34  14  35  14
M  END
>  <minimizedAffinity>  (1) 
-4.47023678

>  <minimizedRMSD>  (1) 
1.3403604

$$$$
