
     RDKit          3D

 41 44  0  0  0  0  0  0  0  0999 V2000
   47.9320   33.0820   42.2030 C   0  0  0  0  0  0  0  0  0  0  0  0
   47.2580   34.4150   41.9960 C   0  0  0  0  0  0  0  0  0  0  0  0
   44.6700   35.9080   44.3320 C   0  0  0  0  0  0  0  0  0  0  0  0
   45.4680   35.7550   43.1720 C   0  0  0  0  0  0  0  0  0  0  0  0
   46.3790   34.6820   43.1340 C   0  0  0  0  0  0  0  0  0  0  0  0
   46.4350   33.8690   44.2000 N   0  0  0  0  0  0  0  0  0  0  0  0
   45.6490   34.0570   45.2900 C   0  0  0  0  0  0  0  0  0  0  0  0
   44.7810   35.0540   45.3630 N   0  0  0  0  0  0  0  0  0  0  0  0
   46.3550   34.2360   40.7640 C   0  0  0  0  0  0  0  0  0  0  0  0
   48.2800   35.4330   41.7070 C   0  0  0  0  0  0  0  0  0  0  0  0
   47.7480   32.2270   41.1170 O   0  0  0  0  0  0  0  0  0  0  0  0
   48.8550   31.8140   40.3970 C   0  0  0  0  0  0  0  0  0  0  0  0
   50.1330   32.2010   40.7370 N   0  0  0  0  0  0  0  0  0  0  0  0
   50.9580   31.6700   39.8990 O   0  0  0  0  0  0  0  0  0  0  0  0
   50.3530   30.9550   39.0180 C   0  0  0  0  0  0  0  0  0  0  0  0
   49.0700   31.0380   39.3160 N   0  0  0  0  0  0  0  0  0  0  0  0
   50.8990   30.2350   37.9630 O   0  0  0  0  0  0  0  0  0  0  0  0
   51.5400   30.7770   34.6240 N   0  0  0  0  0  0  0  0  0  0  0  0
   51.7900   30.3460   35.8760 N   0  0  0  0  0  0  0  0  0  0  0  0
   50.7200   30.6420   36.6650 C   0  0  0  0  0  0  0  0  0  0  0  0
   49.8110   31.2650   35.8570 C   0  0  0  0  0  0  0  0  0  0  0  0
   50.3320   31.3460   34.5810 C   0  0  0  0  0  0  0  0  0  0  0  0
   49.6480   31.9470   33.4440 C   0  0  0  0  0  0  0  0  0  0  0  0
   48.7540   32.9460   33.4610 N   0  0  0  0  0  0  0  0  0  0  0  0
   48.3780   33.1940   32.2440 O   0  0  0  0  0  0  0  0  0  0  0  0
   48.9690   32.4150   31.3950 C   0  0  0  0  0  0  0  0  0  0  0  0
   49.7820   31.6160   32.1490 N   0  0  0  0  0  0  0  0  0  0  0  0
   49.0101   33.2479   42.3451 H   0  0  0  0  0  0  0  0  0  0  0  0
   47.4811   32.6081   43.0874 H   0  0  0  0  0  0  0  0  0  0  0  0
   43.9496   36.7373   44.3895 H   0  0  0  0  0  0  0  0  0  0  0  0
   45.3788   36.4531   42.3266 H   0  0  0  0  0  0  0  0  0  0  0  0
   45.7355   33.3610   46.1374 H   0  0  0  0  0  0  0  0  0  0  0  0
   45.3248   34.0318   41.0911 H   0  0  0  0  0  0  0  0  0  0  0  0
   46.3725   35.1551   40.1599 H   0  0  0  0  0  0  0  0  0  0  0  0
   46.7218   33.3931   40.1599 H   0  0  0  0  0  0  0  0  0  0  0  0
   48.6791   35.8305   42.6519 H   0  0  0  0  0  0  0  0  0  0  0  0
   49.0964   34.9785   41.1265 H   0  0  0  0  0  0  0  0  0  0  0  0
   47.8287   36.2512   41.1265 H   0  0  0  0  0  0  0  0  0  0  0  0
   52.1813   30.6824   33.8236 H   0  0  0  0  0  0  0  0  0  0  0  0
   48.8260   31.6403   36.1715 H   0  0  0  0  0  0  0  0  0  0  0  0
   48.8437   32.3997   30.3023 H   0  0  0  0  0  0  0  0  0  0  0  0
  2  1  1  0
  2  5  1  0
  3  8  2  0
  4  3  1  0
  5  4  2  0
  5  6  1  0
  6  7  2  0
  7  8  1  0
  9  2  1  0
 10  2  1  0
 11  1  1  0
 12 13  2  0
 12 11  1  0
 14 13  1  0
 15 16  2  0
 15 14  1  0
 16 12  1  0
 17 15  1  0
 18 19  1  0
 19 20  2  0
 20 17  1  0
 21 20  1  0
 22 18  1  0
 22 21  2  0
 23 24  2  0
 23 22  1  0
 25 24  1  0
 26 27  2  0
 26 25  1  0
 27 23  1  0
  1 28  1  0
  1 29  1  0
  3 30  1  0
  4 31  1  0
  7 32  1  0
  9 33  1  0
  9 34  1  0
  9 35  1  0
 10 36  1  0
 10 37  1  0
 10 38  1  0
 18 39  1  0
 21 40  1  0
 26 41  1  0
M  ISO  8  28   8  29   8  30  14  31  14  32  14  33   8  34   8  35   8
M  ISO  6  36   8  37   8  38   8  39   9  40  14  41  14
M  END
>  <minimizedAffinity>  (1) 
-5.44389725

>  <minimizedRMSD>  (1) 
1.28256059

$$$$
