
     RDKit          3D

 48 51  0  0  0  0  0  0  0  0999 V2000
   48.0250   33.1270   42.2890 C   0  0  0  0  0  0  0  0  0  0  0  0
   47.3100   34.4270   42.0330 C   0  0  0  0  0  0  0  0  0  0  0  0
   44.6800   35.9600   44.2930 C   0  0  0  0  0  0  0  0  0  0  0  0
   45.5070   35.7900   43.1580 C   0  0  0  0  0  0  0  0  0  0  0  0
   46.4050   34.7120   43.1370 C   0  0  0  0  0  0  0  0  0  0  0  0
   46.4250   33.9010   44.2070 N   0  0  0  0  0  0  0  0  0  0  0  0
   45.6140   34.0980   45.2780 C   0  0  0  0  0  0  0  0  0  0  0  0
   44.7540   35.1160   45.3170 N   0  0  0  0  0  0  0  0  0  0  0  0
   46.4420   34.2040   40.7830 C   0  0  0  0  0  0  0  0  0  0  0  0
   48.3160   35.4760   41.7310 C   0  0  0  0  0  0  0  0  0  0  0  0
   48.0160   32.2990   41.1560 O   0  0  0  0  0  0  0  0  0  0  0  0
   49.2380   31.9770   40.5810 C   0  0  0  0  0  0  0  0  0  0  0  0
   50.4380   32.3020   41.1670 N   0  0  0  0  0  0  0  0  0  0  0  0
   51.3900   31.8770   40.4040 O   0  0  0  0  0  0  0  0  0  0  0  0
   50.9310   31.2910   39.3490 C   0  0  0  0  0  0  0  0  0  0  0  0
   49.5950   31.3460   39.4440 N   0  0  0  0  0  0  0  0  0  0  0  0
   51.6640   30.7130   38.3120 O   0  0  0  0  0  0  0  0  0  0  0  0
   51.6480   30.4330   34.8940 N   0  0  0  0  0  0  0  0  0  0  0  0
   52.1260   30.3080   36.1330 N   0  0  0  0  0  0  0  0  0  0  0  0
   51.2280   30.8150   37.0230 C   0  0  0  0  0  0  0  0  0  0  0  0
   50.1680   31.2610   36.2830 C   0  0  0  0  0  0  0  0  0  0  0  0
   50.4300   31.0230   34.9520 C   0  0  0  0  0  0  0  0  0  0  0  0
   49.4910   31.3920   33.9610 N   0  0  0  0  0  0  0  0  0  0  0  0
   48.9530   30.6710   32.8120 C   0  0  0  0  0  0  0  0  0  0  0  0
   48.6380   31.7530   31.8090 C   0  0  0  0  0  0  0  0  0  0  0  0
   48.5410   33.0400   32.5640 C   0  0  0  0  0  0  0  0  0  0  0  0
   48.8800   32.7020   33.9820 C   0  0  0  0  0  0  0  0  0  0  0  0
   49.0678   33.3419   42.5655 H   0  0  0  0  0  0  0  0  0  0  0  0
   47.5024   32.6020   43.1021 H   0  0  0  0  0  0  0  0  0  0  0  0
   43.9690   36.7986   44.3284 H   0  0  0  0  0  0  0  0  0  0  0  0
   45.4474   36.4880   42.3099 H   0  0  0  0  0  0  0  0  0  0  0  0
   45.6676   33.4043   46.1300 H   0  0  0  0  0  0  0  0  0  0  0  0
   45.4187   33.9411   41.0893 H   0  0  0  0  0  0  0  0  0  0  0  0
   46.4198   35.1256   40.1829 H   0  0  0  0  0  0  0  0  0  0  0  0
   46.8667   33.3858   40.1829 H   0  0  0  0  0  0  0  0  0  0  0  0
   48.7105   35.8874   42.6718 H   0  0  0  0  0  0  0  0  0  0  0  0
   49.1397   35.0373   41.1487 H   0  0  0  0  0  0  0  0  0  0  0  0
   47.8432   36.2806   41.1487 H   0  0  0  0  0  0  0  0  0  0  0  0
   52.1268   30.1304   34.0337 H   0  0  0  0  0  0  0  0  0  0  0  0
   49.2580   31.7313   36.6839 H   0  0  0  0  0  0  0  0  0  0  0  0
   49.6980   29.9697   32.4080 H   0  0  0  0  0  0  0  0  0  0  0  0
   48.0709   30.0664   33.0699 H   0  0  0  0  0  0  0  0  0  0  0  0
   47.6827   31.5366   31.3085 H   0  0  0  0  0  0  0  0  0  0  0  0
   49.4200   31.8104   31.0375 H   0  0  0  0  0  0  0  0  0  0  0  0
   49.2548   33.7748   32.1634 H   0  0  0  0  0  0  0  0  0  0  0  0
   47.5390   33.4860   32.4805 H   0  0  0  0  0  0  0  0  0  0  0  0
   47.9677   32.6852   34.5964 H   0  0  0  0  0  0  0  0  0  0  0  0
   49.5605   33.4496   34.4156 H   0  0  0  0  0  0  0  0  0  0  0  0
  2  1  1  0
  2  5  1  0
  3  8  2  0
  4  3  1  0
  5  4  2  0
  5  6  1  0
  6  7  2  0
  7  8  1  0
  9  2  1  0
 10  2  1  0
 11  1  1  0
 12 11  1  0
 12 13  2  0
 14 13  1  0
 15 16  2  0
 15 14  1  0
 16 12  1  0
 17 15  1  0
 18 22  1  0
 18 19  1  0
 19 20  2  0
 20 17  1  0
 21 20  1  0
 22 21  2  0
 23 27  1  0
 23 22  1  0
 24 23  1  0
 25 26  1  0
 25 24  1  0
 26 27  1  0
  1 28  1  0
  1 29  1  0
  3 30  1  0
  4 31  1  0
  7 32  1  0
  9 33  1  0
  9 34  1  0
  9 35  1  0
 10 36  1  0
 10 37  1  0
 10 38  1  0
 18 39  1  0
 21 40  1  0
 24 41  1  0
 24 42  1  0
 25 43  1  0
 25 44  1  0
 26 45  1  0
 26 46  1  0
 27 47  1  0
 27 48  1  0
M  ISO  8  28   8  29   8  30  14  31  14  32  14  33   8  34   8  35   8
M  ISO  8  36   8  37   8  38   8  39   9  40  14  41  13  42  13  43  13
M  ISO  5  44  13  45  13  46  13  47  13  48  13
M  END
>  <minimizedAffinity>  (1) 
-5.48004675

>  <minimizedRMSD>  (1) 
0.816369593

$$$$
