
     RDKit          3D

 44 47  0  0  0  0  0  0  0  0999 V2000
   47.9240   33.0590   42.1840 C   0  0  0  0  0  0  0  0  0  0  0  0
   47.2440   34.3850   41.9860 C   0  0  0  0  0  0  0  0  0  0  0  0
   44.6670   35.8960   44.3250 C   0  0  0  0  0  0  0  0  0  0  0  0
   45.4610   35.7350   43.1560 C   0  0  0  0  0  0  0  0  0  0  0  0
   46.3740   34.6570   43.1240 C   0  0  0  0  0  0  0  0  0  0  0  0
   46.4410   33.8490   44.1910 N   0  0  0  0  0  0  0  0  0  0  0  0
   45.6620   34.0400   45.2870 C   0  0  0  0  0  0  0  0  0  0  0  0
   44.7920   35.0420   45.3570 N   0  0  0  0  0  0  0  0  0  0  0  0
   46.3470   34.2250   40.7520 C   0  0  0  0  0  0  0  0  0  0  0  0
   48.2840   35.4150   41.7050 C   0  0  0  0  0  0  0  0  0  0  0  0
   47.7980   32.2290   41.0670 O   0  0  0  0  0  0  0  0  0  0  0  0
   48.9470   31.8090   40.4180 C   0  0  0  0  0  0  0  0  0  0  0  0
   50.1890   32.2560   40.7850 N   0  0  0  0  0  0  0  0  0  0  0  0
   51.0760   31.7080   40.0200 O   0  0  0  0  0  0  0  0  0  0  0  0
   50.5340   30.9220   39.1600 C   0  0  0  0  0  0  0  0  0  0  0  0
   49.2370   30.9800   39.3990 N   0  0  0  0  0  0  0  0  0  0  0  0
   51.1420   30.1580   38.1750 O   0  0  0  0  0  0  0  0  0  0  0  0
   51.8130   30.3250   34.8030 N   0  0  0  0  0  0  0  0  0  0  0  0
   52.0230   29.9830   36.0840 N   0  0  0  0  0  0  0  0  0  0  0  0
   50.9950   30.4690   36.8450 C   0  0  0  0  0  0  0  0  0  0  0  0
   50.1530   31.1190   35.9850 C   0  0  0  0  0  0  0  0  0  0  0  0
   50.6710   31.0240   34.7110 C   0  0  0  0  0  0  0  0  0  0  0  0
   50.0130   31.6160   33.5440 C   0  0  0  0  0  0  0  0  0  0  0  0
   50.4170   31.1310   32.3110 C   0  0  0  0  0  0  0  0  0  0  0  0
   49.8090   31.6760   31.2030 C   0  0  0  0  0  0  0  0  0  0  0  0
   48.8760   32.6270   31.3420 N   0  0  0  0  0  0  0  0  0  0  0  0
   48.4790   33.1030   32.5540 C   0  0  0  0  0  0  0  0  0  0  0  0
   49.0780   32.5660   33.6320 N   0  0  0  0  0  0  0  0  0  0  0  0
   48.9928   33.2342   42.3763 H   0  0  0  0  0  0  0  0  0  0  0  0
   47.4413   32.5557   43.0347 H   0  0  0  0  0  0  0  0  0  0  0  0
   43.9458   36.7244   44.3857 H   0  0  0  0  0  0  0  0  0  0  0  0
   45.3675   36.4263   42.3055 H   0  0  0  0  0  0  0  0  0  0  0  0
   45.7535   33.3484   46.1375 H   0  0  0  0  0  0  0  0  0  0  0  0
   45.3112   34.0403   41.0731 H   0  0  0  0  0  0  0  0  0  0  0  0
   46.3855   35.1442   40.1490 H   0  0  0  0  0  0  0  0  0  0  0  0
   46.7010   33.3758   40.1490 H   0  0  0  0  0  0  0  0  0  0  0  0
   48.6788   35.8060   42.6544 H   0  0  0  0  0  0  0  0  0  0  0  0
   49.1024   34.9615   41.1266 H   0  0  0  0  0  0  0  0  0  0  0  0
   47.8384   36.2377   41.1266 H   0  0  0  0  0  0  0  0  0  0  0  0
   52.4315   30.0881   34.0142 H   0  0  0  0  0  0  0  0  0  0  0  0
   49.2200   31.6311   36.2631 H   0  0  0  0  0  0  0  0  0  0  0  0
   51.1856   30.3491   32.2218 H   0  0  0  0  0  0  0  0  0  0  0  0
   50.0908   31.3288   30.1980 H   0  0  0  0  0  0  0  0  0  0  0  0
   47.7102   33.8843   32.6467 H   0  0  0  0  0  0  0  0  0  0  0  0
  2  1  1  0
  2  5  1  0
  3  8  2  0
  4  3  1  0
  5  4  2  0
  5  6  1  0
  6  7  2  0
  7  8  1  0
  9  2  1  0
 10  2  1  0
 11  1  1  0
 12 13  2  0
 12 11  1  0
 14 13  1  0
 15 16  2  0
 15 14  1  0
 16 12  1  0
 17 15  1  0
 18 19  1  0
 19 20  2  0
 20 17  1  0
 21 20  1  0
 22 18  1  0
 22 21  2  0
 23 28  1  0
 23 22  1  0
 24 23  2  0
 25 26  2  0
 25 24  1  0
 26 27  1  0
 27 28  2  0
  1 29  1  0
  1 30  1  0
  3 31  1  0
  4 32  1  0
  7 33  1  0
  9 34  1  0
  9 35  1  0
  9 36  1  0
 10 37  1  0
 10 38  1  0
 10 39  1  0
 18 40  1  0
 21 41  1  0
 24 42  1  0
 25 43  1  0
 27 44  1  0
M  ISO  8  29   8  30   8  31  14  32  14  33  14  34   8  35   8  36   8
M  ISO  8  37   8  38   8  39   8  40   9  41  14  42  14  43  14  44  14
M  END
>  <minimizedAffinity>  (1) 
-5.64352512

>  <minimizedRMSD>  (1) 
1.15112698

$$$$
