
     RDKit          3D

 43 46  0  0  0  0  0  0  0  0999 V2000
   47.8810   33.0470   42.1600 C   0  0  0  0  0  0  0  0  0  0  0  0
   47.2260   34.3910   41.9770 C   0  0  0  0  0  0  0  0  0  0  0  0
   44.6600   35.8830   44.3500 C   0  0  0  0  0  0  0  0  0  0  0  0
   45.4460   35.7270   43.1800 C   0  0  0  0  0  0  0  0  0  0  0  0
   46.3590   34.6640   43.1210 C   0  0  0  0  0  0  0  0  0  0  0  0
   46.4320   33.8540   44.1880 N   0  0  0  0  0  0  0  0  0  0  0  0
   45.6610   34.0360   45.2940 C   0  0  0  0  0  0  0  0  0  0  0  0
   44.7930   35.0360   45.3650 N   0  0  0  0  0  0  0  0  0  0  0  0
   46.3080   34.2440   40.7530 C   0  0  0  0  0  0  0  0  0  0  0  0
   48.2610   35.3960   41.6910 C   0  0  0  0  0  0  0  0  0  0  0  0
   47.6460   32.1770   41.0870 O   0  0  0  0  0  0  0  0  0  0  0  0
   48.7320   31.7390   40.3450 C   0  0  0  0  0  0  0  0  0  0  0  0
   50.0070   32.2030   40.5680 N   0  0  0  0  0  0  0  0  0  0  0  0
   50.8100   31.6280   39.7380 O   0  0  0  0  0  0  0  0  0  0  0  0
   50.1880   30.8100   38.9660 C   0  0  0  0  0  0  0  0  0  0  0  0
   48.9220   30.8750   39.3320 N   0  0  0  0  0  0  0  0  0  0  0  0
   50.7060   30.0150   37.9540 O   0  0  0  0  0  0  0  0  0  0  0  0
   51.5940   30.3790   34.6460 N   0  0  0  0  0  0  0  0  0  0  0  0
   51.7070   29.9380   35.9140 N   0  0  0  0  0  0  0  0  0  0  0  0
   50.6570   30.4230   36.6430 C   0  0  0  0  0  0  0  0  0  0  0  0
   49.9030   31.1720   35.7820 C   0  0  0  0  0  0  0  0  0  0  0  0
   50.4950   31.1390   34.5360 C   0  0  0  0  0  0  0  0  0  0  0  0
   49.9530   31.8320   33.3800 C   0  0  0  0  0  0  0  0  0  0  0  0
   50.1250   31.4100   32.0600 C   0  0  0  0  0  0  0  0  0  0  0  0
   49.4290   32.3920   31.3490 C   0  0  0  0  0  0  0  0  0  0  0  0
   48.8950   33.3140   32.2260 C   0  0  0  0  0  0  0  0  0  0  0  0
   49.2460   32.9190   33.4180 O   0  0  0  0  0  0  0  0  0  0  0  0
   48.9662   33.1958   42.2604 H   0  0  0  0  0  0  0  0  0  0  0  0
   47.4468   32.5871   43.0600 H   0  0  0  0  0  0  0  0  0  0  0  0
   43.9368   36.7091   44.4175 H   0  0  0  0  0  0  0  0  0  0  0  0
   45.3418   36.4251   42.3363 H   0  0  0  0  0  0  0  0  0  0  0  0
   45.7591   33.3429   46.1425 H   0  0  0  0  0  0  0  0  0  0  0  0
   45.2735   34.0783   41.0883 H   0  0  0  0  0  0  0  0  0  0  0  0
   46.3547   35.1611   40.1474 H   0  0  0  0  0  0  0  0  0  0  0  0
   46.6388   33.3874   40.1474 H   0  0  0  0  0  0  0  0  0  0  0  0
   48.6637   35.7870   42.6370 H   0  0  0  0  0  0  0  0  0  0  0  0
   49.0724   34.9320   41.1111 H   0  0  0  0  0  0  0  0  0  0  0  0
   47.8210   36.2207   41.1111 H   0  0  0  0  0  0  0  0  0  0  0  0
   52.2495   30.1656   33.8807 H   0  0  0  0  0  0  0  0  0  0  0  0
   48.9792   31.7106   36.0397 H   0  0  0  0  0  0  0  0  0  0  0  0
   50.6675   30.5324   31.6786 H   0  0  0  0  0  0  0  0  0  0  0  0
   49.3229   32.4248   30.2546 H   0  0  0  0  0  0  0  0  0  0  0  0
   48.2958   34.2007   31.9715 H   0  0  0  0  0  0  0  0  0  0  0  0
  2  1  1  0
  2  5  1  0
  3  8  2  0
  4  3  1  0
  5  4  2  0
  5  6  1  0
  6  7  2  0
  7  8  1  0
  9  2  1  0
 10  2  1  0
 11  1  1  0
 12 13  2  0
 12 11  1  0
 14 13  1  0
 15 16  2  0
 15 14  1  0
 16 12  1  0
 17 15  1  0
 18 19  1  0
 19 20  2  0
 20 17  1  0
 21 20  1  0
 22 18  1  0
 22 21  2  0
 23 27  1  0
 23 22  1  0
 24 23  2  0
 25 24  1  0
 25 26  2  0
 26 27  1  0
  1 28  1  0
  1 29  1  0
  3 30  1  0
  4 31  1  0
  7 32  1  0
  9 33  1  0
  9 34  1  0
  9 35  1  0
 10 36  1  0
 10 37  1  0
 10 38  1  0
 18 39  1  0
 21 40  1  0
 24 41  1  0
 25 42  1  0
 26 43  1  0
M  ISO  8  28   8  29   8  30  14  31  14  32  14  33   8  34   8  35   8
M  ISO  8  36   8  37   8  38   8  39   9  40  14  41  14  42  14  43  14
M  END
>  <minimizedAffinity>  (1) 
-5.40313721

>  <minimizedRMSD>  (1) 
1.32942533

$$$$
