
     RDKit          3D

 38 40  0  0  0  0  0  0  0  0999 V2000
   48.0540   33.1500   42.3210 C   0  0  0  0  0  0  0  0  0  0  0  0
   47.3360   34.4480   42.0270 C   0  0  0  0  0  0  0  0  0  0  0  0
   44.6730   36.0140   44.2260 C   0  0  0  0  0  0  0  0  0  0  0  0
   45.5240   35.8360   43.1020 C   0  0  0  0  0  0  0  0  0  0  0  0
   46.4120   34.7470   43.1100 C   0  0  0  0  0  0  0  0  0  0  0  0
   46.4010   33.9410   44.1820 N   0  0  0  0  0  0  0  0  0  0  0  0
   45.5710   34.1430   45.2420 C   0  0  0  0  0  0  0  0  0  0  0  0
   44.7200   35.1720   45.2530 N   0  0  0  0  0  0  0  0  0  0  0  0
   46.5100   34.1990   40.7720 C   0  0  0  0  0  0  0  0  0  0  0  0
   48.3570   35.4920   41.7500 C   0  0  0  0  0  0  0  0  0  0  0  0
   48.2250   32.3800   41.1730 O   0  0  0  0  0  0  0  0  0  0  0  0
   49.5110   32.0690   40.7640 C   0  0  0  0  0  0  0  0  0  0  0  0
   50.6180   32.4790   41.4730 N   0  0  0  0  0  0  0  0  0  0  0  0
   51.6750   32.0540   40.8690 O   0  0  0  0  0  0  0  0  0  0  0  0
   51.3860   31.3880   39.8080 C   0  0  0  0  0  0  0  0  0  0  0  0
   50.0680   31.3950   39.7390 N   0  0  0  0  0  0  0  0  0  0  0  0
   52.2360   30.7770   38.9010 O   0  0  0  0  0  0  0  0  0  0  0  0
   52.4960   29.9600   35.5770 N   0  0  0  0  0  0  0  0  0  0  0  0
   52.8590   29.9970   36.8610 N   0  0  0  0  0  0  0  0  0  0  0  0
   51.9220   30.7000   37.5680 C   0  0  0  0  0  0  0  0  0  0  0  0
   50.9710   31.0920   36.6660 C   0  0  0  0  0  0  0  0  0  0  0  0
   51.3330   30.6300   35.4250 C   0  0  0  0  0  0  0  0  0  0  0  0
   50.5040   30.8980   34.2640 C   0  0  0  0  0  0  0  0  0  0  0  0
   50.8410   31.5640   33.2530 O   0  0  0  0  0  0  0  0  0  0  0  0
   49.0423   33.3786   42.7464 H   0  0  0  0  0  0  0  0  0  0  0  0
   47.4410   32.5741   43.0299 H   0  0  0  0  0  0  0  0  0  0  0  0
   43.9677   36.8579   44.2462 H   0  0  0  0  0  0  0  0  0  0  0  0
   45.4886   36.5309   42.2500 H   0  0  0  0  0  0  0  0  0  0  0  0
   45.6016   33.4521   46.0974 H   0  0  0  0  0  0  0  0  0  0  0  0
   45.4929   33.8924   41.0573 H   0  0  0  0  0  0  0  0  0  0  0  0
   46.4610   35.1223   40.1761 H   0  0  0  0  0  0  0  0  0  0  0  0
   46.9795   33.4025   40.1761 H   0  0  0  0  0  0  0  0  0  0  0  0
   48.7440   35.8877   42.7006 H   0  0  0  0  0  0  0  0  0  0  0  0
   49.1834   35.0525   41.1722 H   0  0  0  0  0  0  0  0  0  0  0  0
   47.8992   36.3084   41.1722 H   0  0  0  0  0  0  0  0  0  0  0  0
   53.0196   29.4945   34.8220 H   0  0  0  0  0  0  0  0  0  0  0  0
   50.0691   31.6781   36.8962 H   0  0  0  0  0  0  0  0  0  0  0  0
   49.4868   30.4794   34.2697 H   0  0  0  0  0  0  0  0  0  0  0  0
  2  1  1  0
  2  5  1  0
  3  8  2  0
  4  5  2  0
  4  3  1  0
  5  6  1  0
  6  7  2  0
  7  8  1  0
  9  2  1  0
 10  2  1  0
 11  1  1  0
 12 11  1  0
 12 13  2  0
 14 13  1  0
 15 14  1  0
 16 15  2  0
 16 12  1  0
 17 15  1  0
 18 19  1  0
 19 20  2  0
 20 17  1  0
 21 20  1  0
 22 18  1  0
 22 21  2  0
 23 22  1  0
 24 23  2  0
  1 25  1  0
  1 26  1  0
  3 27  1  0
  4 28  1  0
  7 29  1  0
  9 30  1  0
  9 31  1  0
  9 32  1  0
 10 33  1  0
 10 34  1  0
 10 35  1  0
 18 36  1  0
 21 37  1  0
 23 38  1  0
M  ISO  8  25   8  26   8  27  14  28  14  29  14  30   8  31   8  32   8
M  ISO  6  33   8  34   8  35   8  36   9  37  14  38   6
M  END
>  <minimizedAffinity>  (1) 
-4.8433423

>  <minimizedRMSD>  (1) 
0.131745175

$$$$
