
     RDKit          3D

 16 16  0  0  0  0  0  0  0  0999 V2000
   47.5080   34.6280   42.1240 C   0  0  0  0  0  0  0  0  0  0  0  0
   47.8180   33.5100   42.9020 C   0  0  0  0  0  0  0  0  0  0  0  0
   47.0580   33.2610   44.0500 C   0  0  0  0  0  0  0  0  0  0  0  0
   46.0510   34.1220   44.3540 N   0  0  0  0  0  0  0  0  0  0  0  0
   45.7840   35.1880   43.5780 C   0  0  0  0  0  0  0  0  0  0  0  0
   46.4890   35.4620   42.4690 N   0  0  0  0  0  0  0  0  0  0  0  0
   48.3130   34.8940   40.9060 C   0  0  0  0  0  0  0  0  0  0  0  0
   44.6800   36.0430   44.0020 C   0  0  0  0  0  0  0  0  0  0  0  0
   44.9260   37.2150   44.3860 O   0  0  0  0  0  0  0  0  0  0  0  0
   43.3530   35.7060   44.0340 O   0  0  0  0  0  0  0  0  0  0  0  0
   48.6424   32.8394   42.6180 H   0  0  0  0  0  0  0  0  0  0  0  0
   47.2698   32.3915   44.6896 H   0  0  0  0  0  0  0  0  0  0  0  0
   49.3201   35.2268   41.1975 H   0  0  0  0  0  0  0  0  0  0  0  0
   48.3896   33.9734   40.3088 H   0  0  0  0  0  0  0  0  0  0  0  0
   47.8260   35.6790   40.3088 H   0  0  0  0  0  0  0  0  0  0  0  0
   42.6819   36.3660   44.3408 H   0  0  0  0  0  0  0  0  0  0  0  0
  1  6  2  0
  1  2  1  0
  2  3  2  0
  3  4  1  0
  5  8  1  0
  5  4  2  0
  6  5  1  0
  7  1  1  0
  8 10  1  0
  8  9  2  0
  2 11  1  0
  3 12  1  0
  7 13  1  0
  7 14  1  0
  7 15  1  0
 10 16  1  0
M  ISO  6  11  14  12  14  13   8  14   8  15   8  16   3
M  END
>  <minimizedAffinity>  (1) 
-3.89078879

>  <minimizedRMSD>  (1) 
1.78322649

$$$$
