
     RDKit          3D

 39 41  0  0  0  0  0  0  0  0999 V2000
   48.0070   33.1500   42.3250 C   0  0  0  0  0  0  0  0  0  0  0  0
   47.3070   34.4490   42.0350 C   0  0  0  0  0  0  0  0  0  0  0  0
   44.6590   36.0360   44.2410 C   0  0  0  0  0  0  0  0  0  0  0  0
   45.5050   35.8490   43.1190 C   0  0  0  0  0  0  0  0  0  0  0  0
   46.3880   34.7480   43.1270 C   0  0  0  0  0  0  0  0  0  0  0  0
   46.3750   33.9380   44.2070 N   0  0  0  0  0  0  0  0  0  0  0  0
   45.5440   34.1650   45.2520 C   0  0  0  0  0  0  0  0  0  0  0  0
   44.7010   35.1860   45.2810 N   0  0  0  0  0  0  0  0  0  0  0  0
   46.4480   34.1880   40.7850 C   0  0  0  0  0  0  0  0  0  0  0  0
   48.3140   35.4740   41.7320 C   0  0  0  0  0  0  0  0  0  0  0  0
   48.2100   32.3870   41.1700 O   0  0  0  0  0  0  0  0  0  0  0  0
   49.5090   32.0880   40.7950 C   0  0  0  0  0  0  0  0  0  0  0  0
   50.5900   32.5110   41.5180 N   0  0  0  0  0  0  0  0  0  0  0  0
   51.6710   32.0910   40.9410 O   0  0  0  0  0  0  0  0  0  0  0  0
   51.4040   31.4150   39.8820 C   0  0  0  0  0  0  0  0  0  0  0  0
   50.0890   31.4080   39.7840 N   0  0  0  0  0  0  0  0  0  0  0  0
   52.2860   30.8070   39.0010 O   0  0  0  0  0  0  0  0  0  0  0  0
   52.5950   29.9500   35.6820 N   0  0  0  0  0  0  0  0  0  0  0  0
   52.9480   30.0070   36.9820 N   0  0  0  0  0  0  0  0  0  0  0  0
   51.9920   30.7040   37.6620 C   0  0  0  0  0  0  0  0  0  0  0  0
   51.0500   31.0680   36.7380 C   0  0  0  0  0  0  0  0  0  0  0  0
   51.4330   30.5940   35.5100 C   0  0  0  0  0  0  0  0  0  0  0  0
   50.6260   30.8170   34.2800 C   0  0  0  0  0  0  0  0  0  0  0  0
   48.9840   33.3687   42.7808 H   0  0  0  0  0  0  0  0  0  0  0  0
   47.3678   32.5677   43.0050 H   0  0  0  0  0  0  0  0  0  0  0  0
   43.9608   36.8858   44.2605 H   0  0  0  0  0  0  0  0  0  0  0  0
   45.4741   36.5427   42.2659 H   0  0  0  0  0  0  0  0  0  0  0  0
   45.5702   33.4756   46.1087 H   0  0  0  0  0  0  0  0  0  0  0  0
   45.4374   33.8809   41.0922 H   0  0  0  0  0  0  0  0  0  0  0  0
   46.3852   35.1076   40.1847 H   0  0  0  0  0  0  0  0  0  0  0  0
   46.9074   33.3889   40.1847 H   0  0  0  0  0  0  0  0  0  0  0  0
   48.7154   35.8826   42.6711 H   0  0  0  0  0  0  0  0  0  0  0  0
   49.1311   35.0242   41.1490 H   0  0  0  0  0  0  0  0  0  0  0  0
   47.8498   36.2830   41.1490 H   0  0  0  0  0  0  0  0  0  0  0  0
   53.1341   29.4844   34.9380 H   0  0  0  0  0  0  0  0  0  0  0  0
   50.1370   31.6452   36.9463 H   0  0  0  0  0  0  0  0  0  0  0  0
   49.6008   31.1003   34.5605 H   0  0  0  0  0  0  0  0  0  0  0  0
   51.0795   31.6235   33.6851 H   0  0  0  0  0  0  0  0  0  0  0  0
   50.6011   29.8921   33.6851 H   0  0  0  0  0  0  0  0  0  0  0  0
  2  1  1  0
  2  5  1  0
  3  8  2  0
  4  5  2  0
  4  3  1  0
  5  6  1  0
  6  7  2  0
  7  8  1  0
  9  2  1  0
 10  2  1  0
 11  1  1  0
 12 11  1  0
 12 13  2  0
 14 13  1  0
 15 14  1  0
 16 15  2  0
 16 12  1  0
 17 15  1  0
 18 19  1  0
 19 20  2  0
 20 17  1  0
 21 20  1  0
 22 18  1  0
 22 21  2  0
 23 22  1  0
  1 24  1  0
  1 25  1  0
  3 26  1  0
  4 27  1  0
  7 28  1  0
  9 29  1  0
  9 30  1  0
  9 31  1  0
 10 32  1  0
 10 33  1  0
 10 34  1  0
 18 35  1  0
 21 36  1  0
 23 37  1  0
 23 38  1  0
 23 39  1  0
M  ISO  8  24   8  25   8  26  14  27  14  28  14  29   8  30   8  31   8
M  ISO  8  32   8  33   8  34   8  35   9  36  14  37   8  38   8  39   8
M  END
>  <minimizedAffinity>  (1) 
-4.83849669

>  <minimizedRMSD>  (1) 
0.125364438

$$$$
