
     RDKit          3D

 23 24  0  0  0  0  0  0  0  0999 V2000
   44.9010   34.4020   41.9640 N   0  0  0  0  0  0  0  0  0  0  0  0
   46.0110   35.0160   42.3950 C   0  0  0  0  0  0  0  0  0  0  0  0
   46.2350   34.6980   43.6920 N   0  0  0  0  0  0  0  0  0  0  0  0
   45.2410   33.8800   44.0410 C   0  0  0  0  0  0  0  0  0  0  0  0
   44.4140   33.6940   42.9820 N   0  0  0  0  0  0  0  0  0  0  0  0
   45.0560   33.2840   45.3210 N   0  0  0  0  0  0  0  0  0  0  0  0
   44.8890   34.0980   46.4690 C   0  0  0  0  0  0  0  0  0  0  0  0
   44.4690   35.3180   46.3600 N   0  0  0  0  0  0  0  0  0  0  0  0
   45.2050   33.5200   47.7520 N   0  0  0  0  0  0  0  0  0  0  0  0
   44.3640   35.8790   47.2560 H   0  0  0  0  0  0  0  0  0  0  0  0
   42.5020   35.0120   39.1440 C   0  0  0  0  0  0  0  0  0  0  0  0
   43.0990   35.1580   40.4040 C   0  0  0  0  0  0  0  0  0  0  0  0
   44.1930   34.3640   40.7230 C   0  0  0  0  0  0  0  0  0  0  0  0
   44.6380   33.4680   39.7770 N   0  0  0  0  0  0  0  0  0  0  0  0
   44.0340   33.3530   38.5620 C   0  0  0  0  0  0  0  0  0  0  0  0
   42.9730   34.1310   38.2670 N   0  0  0  0  0  0  0  0  0  0  0  0
   46.6447   35.6784   41.7871 H   0  0  0  0  0  0  0  0  0  0  0  0
   45.0435   32.2582   45.4127 H   0  0  0  0  0  0  0  0  0  0  0  0
   45.0966   34.0798   48.6098 H   0  0  0  0  0  0  0  0  0  0  0  0
   45.5391   32.5474   47.8105 H   0  0  0  0  0  0  0  0  0  0  0  0
   41.6341   35.6334   38.8781 H   0  0  0  0  0  0  0  0  0  0  0  0
   42.7078   35.8886   41.1273 H   0  0  0  0  0  0  0  0  0  0  0  0
   44.4100   32.6286   37.8245 H   0  0  0  0  0  0  0  0  0  0  0  0
  1  2  1  0
  1  5  1  0
  2  3  2  0
  3  4  1  0
  4  6  1  0
  5  4  2  0
  6  7  1  0
  7  9  1  0
  8  7  2  0
  8 10  1  0
 11 12  2  0
 12 13  1  0
 13  1  1  0
 14 13  2  0
 15 14  1  0
 16 15  2  0
 16 11  1  0
  2 17  1  0
  6 18  1  0
  9 19  1  0
  9 20  1  0
 11 21  1  0
 12 22  1  0
 15 23  1  0
M  ISO  4  17  14  21  14  22  14  23  14
M  END
>  <minimizedAffinity>  (1) 
-4.89587212

>  <minimizedRMSD>  (1) 
6.33479595

$$$$
