
     RDKit          3D

 39 41  0  0  0  0  0  0  0  0999 V2000
   48.0310   33.1500   42.3440 C   0  0  0  0  0  0  0  0  0  0  0  0
   47.3270   34.4520   42.0380 C   0  0  0  0  0  0  0  0  0  0  0  0
   44.6610   36.0310   44.2360 C   0  0  0  0  0  0  0  0  0  0  0  0
   45.5140   35.8500   43.1150 C   0  0  0  0  0  0  0  0  0  0  0  0
   46.4010   34.7490   43.1290 C   0  0  0  0  0  0  0  0  0  0  0  0
   46.3800   33.9450   44.2040 N   0  0  0  0  0  0  0  0  0  0  0  0
   45.5460   34.1610   45.2530 C   0  0  0  0  0  0  0  0  0  0  0  0
   44.7010   35.1900   45.2620 N   0  0  0  0  0  0  0  0  0  0  0  0
   46.4800   34.1860   40.7870 C   0  0  0  0  0  0  0  0  0  0  0  0
   48.3380   35.4780   41.7370 C   0  0  0  0  0  0  0  0  0  0  0  0
   48.1880   32.3630   41.2020 O   0  0  0  0  0  0  0  0  0  0  0  0
   49.4670   32.0510   40.7790 C   0  0  0  0  0  0  0  0  0  0  0  0
   50.5820   32.4750   41.4590 N   0  0  0  0  0  0  0  0  0  0  0  0
   51.6320   32.0440   40.8490 O   0  0  0  0  0  0  0  0  0  0  0  0
   51.3280   31.3580   39.8050 C   0  0  0  0  0  0  0  0  0  0  0  0
   50.0090   31.3580   39.7570 N   0  0  0  0  0  0  0  0  0  0  0  0
   52.1680   30.7320   38.8960 O   0  0  0  0  0  0  0  0  0  0  0  0
   52.4350   29.9890   35.5580 N   0  0  0  0  0  0  0  0  0  0  0  0
   52.7990   29.9880   36.8530 N   0  0  0  0  0  0  0  0  0  0  0  0
   51.8620   30.6870   37.5610 C   0  0  0  0  0  0  0  0  0  0  0  0
   50.9240   31.1090   36.6600 C   0  0  0  0  0  0  0  0  0  0  0  0
   51.2900   30.6680   35.4120 C   0  0  0  0  0  0  0  0  0  0  0  0
   50.4920   30.9490   34.1900 C   0  0  0  0  0  0  0  0  0  0  0  0
   49.3920   31.7430   34.4810 F   0  0  0  0  0  0  0  0  0  0  0  0
   51.2640   31.6380   33.2760 F   0  0  0  0  0  0  0  0  0  0  0  0
   50.0840   29.7690   33.5630 F   0  0  0  0  0  0  0  0  0  0  0  0
   49.0239   33.3722   42.7622 H   0  0  0  0  0  0  0  0  0  0  0  0
   47.4148   32.5896   43.0625 H   0  0  0  0  0  0  0  0  0  0  0  0
   43.9592   36.8778   44.2541 H   0  0  0  0  0  0  0  0  0  0  0  0
   45.4855   36.5446   42.2625 H   0  0  0  0  0  0  0  0  0  0  0  0
   45.5687   33.4734   46.1113 H   0  0  0  0  0  0  0  0  0  0  0  0
   45.4706   33.8690   41.0882 H   0  0  0  0  0  0  0  0  0  0  0  0
   46.4119   35.1060   40.1879 H   0  0  0  0  0  0  0  0  0  0  0  0
   46.9501   33.3922   40.1879 H   0  0  0  0  0  0  0  0  0  0  0  0
   48.7388   35.8848   42.6772 H   0  0  0  0  0  0  0  0  0  0  0  0
   49.1552   35.0277   41.1544 H   0  0  0  0  0  0  0  0  0  0  0  0
   47.8757   36.2885   41.1544 H   0  0  0  0  0  0  0  0  0  0  0  0
   52.9576   29.5362   34.7946 H   0  0  0  0  0  0  0  0  0  0  0  0
   50.0276   31.7016   36.8951 H   0  0  0  0  0  0  0  0  0  0  0  0
  2  1  1  0
  2  5  1  0
  3  8  2  0
  4  5  2  0
  4  3  1  0
  5  6  1  0
  6  7  2  0
  7  8  1  0
  9  2  1  0
 10  2  1  0
 11  1  1  0
 12 11  1  0
 12 13  2  0
 14 13  1  0
 15 14  1  0
 16 15  2  0
 16 12  1  0
 17 15  1  0
 18 19  1  0
 19 20  2  0
 20 17  1  0
 21 20  1  0
 22 18  1  0
 22 21  2  0
 23 24  1  0
 23 22  1  0
 25 23  1  0
 26 23  1  0
  1 27  1  0
  1 28  1  0
  3 29  1  0
  4 30  1  0
  7 31  1  0
  9 32  1  0
  9 33  1  0
  9 34  1  0
 10 35  1  0
 10 36  1  0
 10 37  1  0
 18 38  1  0
 21 39  1  0
M  ISO  8  27   8  28   8  29  14  30  14  31  14  32   8  33   8  34   8
M  ISO  5  35   8  36   8  37   8  38   9  39  14
M  END
>  <minimizedAffinity>  (1) 
-5.07488632

>  <minimizedRMSD>  (1) 
0.226310432

$$$$
