
     RDKit          3D

 22 22  0  0  0  0  0  0  0  0999 V2000
   48.1720   34.9820   42.1960 C   0  0  0  0  0  0  0  0  0  0  0  0
   48.7400   33.8210   42.7430 C   0  0  0  0  0  0  0  0  0  0  0  0
   47.9330   33.0130   43.5490 C   0  0  0  0  0  0  0  0  0  0  0  0
   46.6460   33.3890   43.7610 N   0  0  0  0  0  0  0  0  0  0  0  0
   46.1300   34.5260   43.2110 C   0  0  0  0  0  0  0  0  0  0  0  0
   46.8940   35.3150   42.4330 N   0  0  0  0  0  0  0  0  0  0  0  0
   49.0450   35.8400   41.3340 C   0  0  0  0  0  0  0  0  0  0  0  0
   44.7300   34.8840   43.4740 C   0  0  0  0  0  0  0  0  0  0  0  0
   44.5370   35.7950   44.6480 C   0  0  0  0  0  0  0  0  0  0  0  0
   44.0590   35.5350   42.2640 C   0  0  0  0  0  0  0  0  0  0  0  0
   49.7885   33.5550   42.5435 H   0  0  0  0  0  0  0  0  0  0  0  0
   48.3319   32.0931   44.0014 H   0  0  0  0  0  0  0  0  0  0  0  0
   49.6847   36.4687   41.9708 H   0  0  0  0  0  0  0  0  0  0  0  0
   49.6754   35.2003   40.6989 H   0  0  0  0  0  0  0  0  0  0  0  0
   48.4163   36.4814   40.6989 H   0  0  0  0  0  0  0  0  0  0  0  0
   44.2581   33.9171   43.7028 H   0  0  0  0  0  0  0  0  0  0  0  0
   44.6582   35.2230   45.5798 H   0  0  0  0  0  0  0  0  0  0  0  0
   45.2842   36.6015   44.6130 H   0  0  0  0  0  0  0  0  0  0  0  0
   43.5269   36.2292   44.6130 H   0  0  0  0  0  0  0  0  0  0  0  0
   43.3091   36.2626   42.6079 H   0  0  0  0  0  0  0  0  0  0  0  0
   44.8180   36.0500   41.6568 H   0  0  0  0  0  0  0  0  0  0  0  0
   43.5672   34.7608   41.6568 H   0  0  0  0  0  0  0  0  0  0  0  0
  1  6  2  0
  1  2  1  0
  2  3  2  0
  3  4  1  0
  5  8  1  0
  5  4  2  0
  6  5  1  0
  7  1  1  0
  8  9  1  0
 10  8  1  0
  2 11  1  0
  3 12  1  0
  7 13  1  0
  7 14  1  0
  7 15  1  0
  8 16  1  0
  9 17  1  0
  9 18  1  0
  9 19  1  0
 10 20  1  0
 10 21  1  0
 10 22  1  0
M  ISO  8  11  14  12  14  13   8  14   8  15   8  16   8  17   8  18   8
M  ISO  4  19   8  20   8  21   8  22   8
M  END
>  <minimizedAffinity>  (1) 
-3.72729397

>  <minimizedRMSD>  (1) 
2.66927838

$$$$
