
     RDKit          3D

 14 14  0  0  0  0  0  0  0  0999 V2000
   46.8040   34.7740   42.8580 C   0  0  0  0  0  0  0  0  0  0  0  0
   47.2130   33.7780   43.7760 C   0  0  0  0  0  0  0  0  0  0  0  0
   46.4000   33.5040   44.8840 C   0  0  0  0  0  0  0  0  0  0  0  0
   45.2420   34.2240   45.0180 N   0  0  0  0  0  0  0  0  0  0  0  0
   44.8870   35.1680   44.1190 C   0  0  0  0  0  0  0  0  0  0  0  0
   45.6550   35.4420   43.0520 N   0  0  0  0  0  0  0  0  0  0  0  0
   47.6890   35.0350   41.7020 C   0  0  0  0  0  0  0  0  0  0  0  0
   43.6800   35.8650   44.3280 O   0  0  0  0  0  0  0  0  0  0  0  0
   48.1532   33.2281   43.6225 H   0  0  0  0  0  0  0  0  0  0  0  0
   46.6818   32.7373   45.6208 H   0  0  0  0  0  0  0  0  0  0  0  0
   48.6858   35.3290   42.0624 H   0  0  0  0  0  0  0  0  0  0  0  0
   47.7737   34.1236   41.0919 H   0  0  0  0  0  0  0  0  0  0  0  0
   47.2656   35.8465   41.0919 H   0  0  0  0  0  0  0  0  0  0  0  0
   43.3936   36.5623   43.6863 H   0  0  0  0  0  0  0  0  0  0  0  0
  1  6  2  0
  1  2  1  0
  2  3  2  0
  3  4  1  0
  5  8  1  0
  5  4  2  0
  6  5  1  0
  7  1  1  0
  2  9  1  0
  3 10  1  0
  7 11  1  0
  7 12  1  0
  7 13  1  0
  8 14  1  0
M  ISO  6   9  14  10  14  11   8  12   8  13   8  14   3
M  END
>  <minimizedAffinity>  (1) 
-3.60394216

>  <minimizedRMSD>  (1) 
0.976394415

$$$$
