
     RDKit          3D

 16 16  0  0  0  0  0  0  0  0999 V2000
   42.2450   32.9280   41.4290 C   0  0  0  0  0  0  0  0  0  0  0  0
   43.5450   33.4190   41.5800 C   0  0  0  0  0  0  0  0  0  0  0  0
   43.8200   34.7310   41.1940 C   0  0  0  0  0  0  0  0  0  0  0  0
   42.8030   35.4720   40.6870 N   0  0  0  0  0  0  0  0  0  0  0  0
   41.5570   34.9670   40.5540 C   0  0  0  0  0  0  0  0  0  0  0  0
   41.2520   33.7040   40.9160 N   0  0  0  0  0  0  0  0  0  0  0  0
   41.9600   31.5230   41.8440 C   0  0  0  0  0  0  0  0  0  0  0  0
   40.4750   35.8230   39.9920 C   0  0  0  0  0  0  0  0  0  0  0  0
   40.0920   36.8080   40.8620 F   0  0  0  0  0  0  0  0  0  0  0  0
   40.8490   36.3330   38.7490 F   0  0  0  0  0  0  0  0  0  0  0  0
   39.3550   35.0320   39.7410 F   0  0  0  0  0  0  0  0  0  0  0  0
   44.3384   32.7811   41.9965 H   0  0  0  0  0  0  0  0  0  0  0  0
   44.8309   35.1520   41.2976 H   0  0  0  0  0  0  0  0  0  0  0  0
   41.9473   31.4604   42.9421 H   0  0  0  0  0  0  0  0  0  0  0  0
   40.9811   31.2151   41.4479 H   0  0  0  0  0  0  0  0  0  0  0  0
   42.7415   30.8580   41.4479 H   0  0  0  0  0  0  0  0  0  0  0  0
  1  2  2  0
  1  7  1  0
  3  2  1  0
  4  3  2  0
  5  4  1  0
  5  6  2  0
  6  1  1  0
  8  5  1  0
  8  9  1  0
 10  8  1  0
 11  8  1  0
  2 12  1  0
  3 13  1  0
  7 14  1  0
  7 15  1  0
  7 16  1  0
M  ISO  5  12  14  13  14  14   8  15   8  16   8
M  END
>  <minimizedAffinity>  (1) 
-3.59056234

>  <minimizedRMSD>  (1) 
5.39434958

$$$$
