
     RDKit          3D

 31 33  0  0  1  0  0  0  0  0999 V2000
   42.3240   34.4760   41.4480 C   0  0  1  0  0  0  0  0  0  0  0  0
   41.4340   35.6680   41.8210 C   0  0  0  0  0  0  0  0  0  0  0  0
   41.6770   35.3070   40.4010 C   0  0  2  0  0  0  0  0  0  0  0  0
   40.6210   34.7790   39.5630 N   0  0  0  0  0  0  0  0  0  0  0  0
   39.6790   33.9940   40.1190 C   0  0  0  0  0  0  0  0  0  0  0  0
   38.6760   33.4990   39.2940 C   0  0  0  0  0  0  0  0  0  0  0  0
   38.6890   33.8280   37.9570 C   0  0  0  0  0  0  0  0  0  0  0  0
   37.6870   33.3480   37.0690 N   0  0  0  0  0  0  0  0  0  0  0  0
   39.6550   34.6240   37.4240 N   0  0  0  0  0  0  0  0  0  0  0  0
   40.6270   35.0990   38.2430 C   0  0  0  0  0  0  0  0  0  0  0  0
   41.4970   35.8280   37.7110 O   0  0  0  0  0  0  0  0  0  0  0  0
   45.9900   34.3810   41.0450 C   0  0  0  0  0  0  0  0  0  0  0  0
   46.4460   34.9740   42.2200 C   0  0  0  0  0  0  0  0  0  0  0  0
   45.4880   35.4280   43.1700 C   0  0  0  0  0  0  0  0  0  0  0  0
   44.1780   35.2540   42.8730 N   0  0  0  0  0  0  0  0  0  0  0  0
   43.7710   34.6780   41.7280 C   0  0  0  0  0  0  0  0  0  0  0  0
   44.6760   34.2350   40.8020 N   0  0  0  0  0  0  0  0  0  0  0  0
   47.0050   33.9040   40.0790 C   0  0  0  0  0  0  0  0  0  0  0  0
   42.3558   33.3950   41.6488 H   0  0  0  0  0  0  0  0  0  0  0  0
   40.4453   35.4999   42.2729 H   0  0  0  0  0  0  0  0  0  0  0  0
   41.5538   36.5755   42.4310 H   0  0  0  0  0  0  0  0  0  0  0  0
   42.0474   35.8587   39.5244 H   0  0  0  0  0  0  0  0  0  0  0  0
   39.7025   33.7522   41.1918 H   0  0  0  0  0  0  0  0  0  0  0  0
   37.8840   32.8543   39.7028 H   0  0  0  0  0  0  0  0  0  0  0  0
   37.7155   33.6063   36.0723 H   0  0  0  0  0  0  0  0  0  0  0  0
   36.9328   32.7421   37.4226 H   0  0  0  0  0  0  0  0  0  0  0  0
   47.5234   35.0890   42.4098 H   0  0  0  0  0  0  0  0  0  0  0  0
   45.8004   35.9031   44.1116 H   0  0  0  0  0  0  0  0  0  0  0  0
   47.8690   33.4980   40.6255 H   0  0  0  0  0  0  0  0  0  0  0  0
   46.5682   33.1169   39.4468 H   0  0  0  0  0  0  0  0  0  0  0  0
   47.3322   34.7426   39.4468 H   0  0  0  0  0  0  0  0  0  0  0  0
  1 16  1  0
  1  2  1  0
  3  1  1  0
  3  2  1  0
  4  5  1  0
  4  3  1  0
  6  5  2  0
  7  6  1  0
  8  7  1  0
  9  7  2  0
  9 10  1  0
 10  4  1  0
 11 10  2  0
 12 13  2  0
 13 14  1  0
 15 14  2  0
 16 15  1  0
 17 12  1  0
 17 16  2  0
 18 12  1  0
  1 19  1  1
  2 20  1  0
  2 21  1  0
  3 22  1  6
  5 23  1  0
  6 24  1  0
  8 25  1  0
  8 26  1  0
 13 27  1  0
 14 28  1  0
 18 29  1  0
 18 30  1  0
 18 31  1  0
M  ISO  8  19  13  20  13  21  13  22  13  23  14  24  14  27  14  28  14
M  ISO  3  29   8  30   8  31   8
M  END
>  <minimizedAffinity>  (1) 
-5.37824631

>  <minimizedRMSD>  (1) 
2.39124823

$$$$
