
     RDKit          3D

 30 32  0  0  1  0  0  0  0  0999 V2000
   42.2460   34.4780   41.4330 C   0  0  1  0  0  0  0  0  0  0  0  0
   41.3710   35.6810   41.7970 C   0  0  0  0  0  0  0  0  0  0  0  0
   41.6100   35.3180   40.3830 C   0  0  2  0  0  0  0  0  0  0  0  0
   40.5620   34.7900   39.5380 N   0  0  0  0  0  0  0  0  0  0  0  0
   39.6180   34.0290   40.1190 C   0  0  0  0  0  0  0  0  0  0  0  0
   38.6070   33.5180   39.3050 C   0  0  0  0  0  0  0  0  0  0  0  0
   38.6080   33.8050   37.9690 C   0  0  0  0  0  0  0  0  0  0  0  0
   37.7200   33.3760   37.1590 O   0  0  0  0  0  0  0  0  0  0  0  0
   39.5830   34.5760   37.4360 N   0  0  0  0  0  0  0  0  0  0  0  0
   40.5590   35.0680   38.2220 C   0  0  0  0  0  0  0  0  0  0  0  0
   41.4330   35.7760   37.6660 O   0  0  0  0  0  0  0  0  0  0  0  0
   45.9110   34.3400   40.9910 C   0  0  0  0  0  0  0  0  0  0  0  0
   46.3960   34.9510   42.1490 C   0  0  0  0  0  0  0  0  0  0  0  0
   45.4420   35.4280   43.0940 C   0  0  0  0  0  0  0  0  0  0  0  0
   44.1240   35.2610   42.8180 N   0  0  0  0  0  0  0  0  0  0  0  0
   43.7010   34.6660   41.6900 C   0  0  0  0  0  0  0  0  0  0  0  0
   44.6010   34.2010   40.7660 N   0  0  0  0  0  0  0  0  0  0  0  0
   46.8980   33.8330   40.0040 C   0  0  0  0  0  0  0  0  0  0  0  0
   42.2621   33.3995   41.6490 H   0  0  0  0  0  0  0  0  0  0  0  0
   40.3791   35.5265   42.2468 H   0  0  0  0  0  0  0  0  0  0  0  0
   41.5018   36.5884   42.4049 H   0  0  0  0  0  0  0  0  0  0  0  0
   41.9820   35.8731   39.5092 H   0  0  0  0  0  0  0  0  0  0  0  0
   39.6421   33.8169   41.1981 H   0  0  0  0  0  0  0  0  0  0  0  0
   37.8144   32.8884   39.7356 H   0  0  0  0  0  0  0  0  0  0  0  0
   39.5788   34.7869   36.4278 H   0  0  0  0  0  0  0  0  0  0  0  0
   47.4762   35.0603   42.3256 H   0  0  0  0  0  0  0  0  0  0  0  0
   45.7658   35.9191   44.0235 H   0  0  0  0  0  0  0  0  0  0  0  0
   47.7548   33.3929   40.5352 H   0  0  0  0  0  0  0  0  0  0  0  0
   46.4248   33.0664   39.3729 H   0  0  0  0  0  0  0  0  0  0  0  0
   47.2455   34.6642   39.3729 H   0  0  0  0  0  0  0  0  0  0  0  0
  1 16  1  0
  1  2  1  0
  3  1  1  0
  3  2  1  0
  4  5  1  0
  4  3  1  0
  6  5  2  0
  7  6  1  0
  8  7  2  0
  9  7  1  0
  9 10  1  0
 10  4  1  0
 11 10  2  0
 12 13  2  0
 13 14  1  0
 15 14  2  0
 16 15  1  0
 17 12  1  0
 17 16  2  0
 18 12  1  0
  1 19  1  1
  2 20  1  0
  2 21  1  0
  3 22  1  6
  5 23  1  0
  6 24  1  0
  9 25  1  0
 13 26  1  0
 14 27  1  0
 18 28  1  0
 18 29  1  0
 18 30  1  0
M  ISO  8  19  13  20  13  21  13  22  13  23  14  24  14  25   9  26  14
M  ISO  4  27  14  28   8  29   8  30   8
M  END
>  <minimizedAffinity>  (1) 
-5.40680695

>  <minimizedRMSD>  (1) 
2.49452782

$$$$
