
     RDKit          3D

 34 37  0  0  1  0  0  0  0  0999 V2000
   43.0200   33.4650   40.6800 C   0  0  1  0  0  0  0  0  0  0  0  0
   42.8650   34.2700   39.3880 C   0  0  0  0  0  0  0  0  0  0  0  0
   43.6150   32.9810   39.4260 C   0  0  1  0  0  0  0  0  0  0  0  0
   45.0220   33.0850   39.1360 N   0  0  0  0  0  0  0  0  0  0  0  0
   46.0760   33.2410   39.9610 C   0  0  0  0  0  0  0  0  0  0  0  0
   47.2270   33.2930   39.2650 N   0  0  0  0  0  0  0  0  0  0  0  0
   46.8500   33.1630   37.9640 C   0  0  0  0  0  0  0  0  0  0  0  0
   47.6020   33.1450   36.8080 C   0  0  0  0  0  0  0  0  0  0  0  0
   48.8630   33.2580   36.8000 O   0  0  0  0  0  0  0  0  0  0  0  0
   47.0440   33.0030   35.5700 N   0  0  0  0  0  0  0  0  0  0  0  0
   45.6870   32.8770   35.5120 C   0  0  0  0  0  0  0  0  0  0  0  0
   45.0470   32.7250   34.2400 N   0  0  0  0  0  0  0  0  0  0  0  0
   44.9460   32.8940   36.6400 N   0  0  0  0  0  0  0  0  0  0  0  0
   45.5030   33.0350   37.8750 C   0  0  0  0  0  0  0  0  0  0  0  0
   45.1710   33.8640   43.6320 C   0  0  0  0  0  0  0  0  0  0  0  0
   45.4090   35.2490   43.6740 C   0  0  0  0  0  0  0  0  0  0  0  0
   44.8260   36.0400   42.6680 C   0  0  0  0  0  0  0  0  0  0  0  0
   44.0740   35.4340   41.7210 N   0  0  0  0  0  0  0  0  0  0  0  0
   43.8700   34.1000   41.7160 C   0  0  0  0  0  0  0  0  0  0  0  0
   44.4240   33.3070   42.6810 N   0  0  0  0  0  0  0  0  0  0  0  0
   45.7770   33.0160   44.7050 C   0  0  0  0  0  0  0  0  0  0  0  0
   42.3634   32.9968   41.4281 H   0  0  0  0  0  0  0  0  0  0  0  0
   43.4024   35.2211   39.2589 H   0  0  0  0  0  0  0  0  0  0  0  0
   42.0228   34.6751   38.8079 H   0  0  0  0  0  0  0  0  0  0  0  0
   43.5610   31.9963   38.9387 H   0  0  0  0  0  0  0  0  0  0  0  0
   46.0053   33.3158   41.0562 H   0  0  0  0  0  0  0  0  0  0  0  0
   47.6221   32.9915   34.7176 H   0  0  0  0  0  0  0  0  0  0  0  0
   44.0228   32.6292   34.1870 H   0  0  0  0  0  0  0  0  0  0  0  0
   45.6108   32.7115   33.3781 H   0  0  0  0  0  0  0  0  0  0  0  0
   46.0285   35.6974   44.4647 H   0  0  0  0  0  0  0  0  0  0  0  0
   44.9784   37.1293   42.6516 H   0  0  0  0  0  0  0  0  0  0  0  0
   45.4930   33.4134   45.6906 H   0  0  0  0  0  0  0  0  0  0  0  0
   45.4111   31.9833   44.6067 H   0  0  0  0  0  0  0  0  0  0  0  0
   46.8725   33.0277   44.6067 H   0  0  0  0  0  0  0  0  0  0  0  0
  1 19  1  0
  2  3  1  0
  2  1  1  0
  3  1  1  0
  4  3  1  0
  4  5  1  0
  6  5  2  0
  7  6  1  0
  8  7  1  0
  9  8  2  0
 10  8  1  0
 11 10  1  0
 11 13  2  0
 12 11  1  0
 13 14  1  0
 14  7  2  0
 14  4  1  0
 15 16  2  0
 15 21  1  0
 17 16  1  0
 18 17  2  0
 19 18  1  0
 19 20  2  0
 20 15  1  0
  1 22  1  1
  2 23  1  0
  2 24  1  0
  3 25  1  6
  5 26  1  0
 10 27  1  0
 12 28  1  0
 12 29  1  0
 16 30  1  0
 17 31  1  0
 21 32  1  0
 21 33  1  0
 21 34  1  0
M  ISO  8  22  13  23  13  24  13  25  13  26  14  27   9  30  14  31  14
M  ISO  3  32   8  33   8  34   8
M  END
>  <minimizedAffinity>  (1) 
-5.37713242

>  <minimizedRMSD>  (1) 
3.32930684

$$$$
