
     RDKit          3D

 28 30  0  0  1  0  0  0  0  0999 V2000
   40.5960   35.5730   39.4740 C   0  0  1  0  0  0  0  0  0  0  0  0
   39.7870   34.7410   38.4750 C   0  0  0  0  0  0  0  0  0  0  0  0
   39.3580   34.8720   39.8970 C   0  0  1  0  0  0  0  0  0  0  0  0
   43.7540   35.1120   41.2640 C   0  0  0  0  0  0  0  0  0  0  0  0
   44.4380   34.1500   40.4910 C   0  0  0  0  0  0  0  0  0  0  0  0
   43.7800   33.6460   39.3320 C   0  0  0  0  0  0  0  0  0  0  0  0
   42.5230   34.1300   39.0440 N   0  0  0  0  0  0  0  0  0  0  0  0
   41.9280   35.0430   39.8180 C   0  0  0  0  0  0  0  0  0  0  0  0
   42.5210   35.5380   40.9170 N   0  0  0  0  0  0  0  0  0  0  0  0
   44.4590   35.6280   42.4580 C   0  0  0  0  0  0  0  0  0  0  0  0
   39.3580   33.5850   40.6250 C   0  0  0  0  0  0  0  0  0  0  0  0
   38.4190   32.6710   40.1320 C   0  0  0  0  0  0  0  0  0  0  0  0
   38.2690   31.3890   40.6730 C   0  0  0  0  0  0  0  0  0  0  0  0
   39.0420   31.0040   41.7010 N   0  0  0  0  0  0  0  0  0  0  0  0
   39.9340   31.8900   42.1620 C   0  0  0  0  0  0  0  0  0  0  0  0
   40.0790   33.1110   41.6470 N   0  0  0  0  0  0  0  0  0  0  0  0
   40.9427   36.6120   39.5753 H   0  0  0  0  0  0  0  0  0  0  0  0
   39.2154   35.2370   37.6767 H   0  0  0  0  0  0  0  0  0  0  0  0
   40.0027   33.9043   37.7943 H   0  0  0  0  0  0  0  0  0  0  0  0
   38.4965   35.2452   40.4702 H   0  0  0  0  0  0  0  0  0  0  0  0
   45.4426   33.8018   40.7728 H   0  0  0  0  0  0  0  0  0  0  0  0
   44.2604   32.8946   38.6880 H   0  0  0  0  0  0  0  0  0  0  0  0
   43.9583   35.2616   43.3663 H   0  0  0  0  0  0  0  0  0  0  0  0
   45.5019   35.2783   42.4477 H   0  0  0  0  0  0  0  0  0  0  0  0
   44.4410   36.7278   42.4477 H   0  0  0  0  0  0  0  0  0  0  0  0
   37.7771   32.9708   39.2905 H   0  0  0  0  0  0  0  0  0  0  0  0
   37.5201   30.6989   40.2572 H   0  0  0  0  0  0  0  0  0  0  0  0
   40.5770   31.5966   43.0049 H   0  0  0  0  0  0  0  0  0  0  0  0
  1  8  1  0
  1  3  1  0
  2  1  1  0
  2  3  1  0
  3 11  1  0
  4 10  1  0
  5  4  2  0
  6  5  1  0
  7  6  2  0
  7  8  1  0
  8  9  2  0
  9  4  1  0
 11 16  1  0
 12 11  2  0
 12 13  1  0
 13 14  2  0
 14 15  1  0
 16 15  2  0
  1 17  1  6
  2 18  1  0
  2 19  1  0
  3 20  1  6
  5 21  1  0
  6 22  1  0
 10 23  1  0
 10 24  1  0
 10 25  1  0
 12 26  1  0
 13 27  1  0
 15 28  1  0
M  ISO  8  17  13  18  13  19  13  20  13  21  14  22  14  23   8  24   8
M  ISO  4  25   8  26  14  27  14  28  14
M  END
>  <minimizedAffinity>  (1) 
-4.99053192

>  <minimizedRMSD>  (1) 
5.49667454

$$$$
