
     RDKit          3D

 31 34  0  0  1  0  0  0  0  0999 V2000
   42.0650   35.0800   41.7330 C   0  0  1  0  0  0  0  0  0  0  0  0
   41.5290   36.1470   40.7690 C   0  0  0  0  0  0  0  0  0  0  0  0
   41.4770   34.7080   40.4180 C   0  0  2  0  0  0  0  0  0  0  0  0
   40.2350   33.9700   40.4130 N   0  0  0  0  0  0  0  0  0  0  0  0
   39.1070   34.4480   39.8550 C   0  0  0  0  0  0  0  0  0  0  0  0
   38.1300   33.5450   40.0070 N   0  0  0  0  0  0  0  0  0  0  0  0
   38.5940   32.4820   40.6560 C   0  0  0  0  0  0  0  0  0  0  0  0
   38.0200   31.3110   41.0560 C   0  0  0  0  0  0  0  0  0  0  0  0
   38.8180   30.4310   41.7130 N   0  0  0  0  0  0  0  0  0  0  0  0
   40.1160   30.7050   41.9590 C   0  0  0  0  0  0  0  0  0  0  0  0
   40.6690   31.8700   41.5560 N   0  0  0  0  0  0  0  0  0  0  0  0
   39.9220   32.7590   40.9080 C   0  0  0  0  0  0  0  0  0  0  0  0
   45.6100   34.3790   41.0770 C   0  0  0  0  0  0  0  0  0  0  0  0
   46.2760   34.9770   42.1680 C   0  0  0  0  0  0  0  0  0  0  0  0
   45.4710   35.6400   43.1330 C   0  0  0  0  0  0  0  0  0  0  0  0
   44.1290   35.6540   42.9460 N   0  0  0  0  0  0  0  0  0  0  0  0
   43.5450   35.0680   41.8850 C   0  0  0  0  0  0  0  0  0  0  0  0
   44.2840   34.4200   40.9340 N   0  0  0  0  0  0  0  0  0  0  0  0
   46.4660   33.6740   40.0820 C   0  0  0  0  0  0  0  0  0  0  0  0
   41.8812   34.7588   42.7689 H   0  0  0  0  0  0  0  0  0  0  0  0
   40.6033   36.6916   41.0068 H   0  0  0  0  0  0  0  0  0  0  0  0
   41.9373   37.0537   40.2987 H   0  0  0  0  0  0  0  0  0  0  0  0
   41.8164   34.1467   39.5349 H   0  0  0  0  0  0  0  0  0  0  0  0
   39.0045   35.4225   39.3552 H   0  0  0  0  0  0  0  0  0  0  0  0
   36.9611   31.0903   40.8558 H   0  0  0  0  0  0  0  0  0  0  0  0
   40.7330   29.9692   42.4955 H   0  0  0  0  0  0  0  0  0  0  0  0
   47.3706   34.9318   42.2670 H   0  0  0  0  0  0  0  0  0  0  0  0
   45.9248   36.1285   44.0079 H   0  0  0  0  0  0  0  0  0  0  0  0
   47.2113   33.0602   40.6090 H   0  0  0  0  0  0  0  0  0  0  0  0
   45.8384   33.0274   39.4512 H   0  0  0  0  0  0  0  0  0  0  0  0
   46.9803   34.4139   39.4512 H   0  0  0  0  0  0  0  0  0  0  0  0
  1 17  1  0
  2  1  1  0
  3  2  1  0
  3  1  1  0
  4  3  1  0
  4 12  1  0
  5  6  2  0
  5  4  1  0
  6  7  1  0
  7 12  2  0
  7  8  1  0
  8  9  2  0
  9 10  1  0
 11 10  2  0
 12 11  1  0
 13 14  2  0
 14 15  1  0
 16 15  2  0
 17 16  1  0
 18 13  1  0
 18 17  2  0
 19 13  1  0
  1 20  1  1
  2 21  1  0
  2 22  1  0
  3 23  1  6
  5 24  1  0
  8 25  1  0
 10 26  1  0
 14 27  1  0
 15 28  1  0
 19 29  1  0
 19 30  1  0
 19 31  1  0
M  ISO  8  20  13  21  13  22  13  23  13  24  14  25  14  26  14  27  14
M  ISO  4  28  14  29   8  30   8  31   8
M  END
>  <minimizedAffinity>  (1) 
-5.09282351

>  <minimizedRMSD>  (1) 
2.90386105

$$$$
