
     RDKit          3D

 34 36  0  0  1  0  0  0  0  0999 V2000
   44.3770   34.3490   41.5910 C   0  0  1  0  0  0  0  0  0  0  0  0
   43.5520   35.6360   41.6200 C   0  0  0  0  0  0  0  0  0  0  0  0
   43.4110   34.6810   40.5100 C   0  0  2  0  0  0  0  0  0  0  0  0
   47.6230   34.2060   39.8950 C   0  0  0  0  0  0  0  0  0  0  0  0
   48.5120   34.7610   40.8390 C   0  0  0  0  0  0  0  0  0  0  0  0
   47.9710   35.2010   42.0810 C   0  0  0  0  0  0  0  0  0  0  0  0
   46.6350   35.0550   42.2690 N   0  0  0  0  0  0  0  0  0  0  0  0
   45.8310   34.5210   41.3400 C   0  0  0  0  0  0  0  0  0  0  0  0
   46.3120   34.0900   40.1410 N   0  0  0  0  0  0  0  0  0  0  0  0
   48.2000   33.7390   38.6140 C   0  0  0  0  0  0  0  0  0  0  0  0
   42.3010   33.7950   40.3530 N   0  0  0  0  0  0  0  0  0  0  0  0
   41.9270   33.7100   38.9440 C   0  0  0  0  0  0  0  0  0  0  0  0
   41.6470   35.1160   38.4570 C   0  0  0  0  0  0  0  0  0  0  0  0
   40.6850   35.7910   39.3030 N   0  0  0  0  0  0  0  0  0  0  0  0
   40.1270   34.9700   40.3340 C   0  0  0  0  0  0  0  0  0  0  0  0
   41.1350   34.1670   41.1120 C   0  0  0  0  0  0  0  0  0  0  0  0
   44.5327   33.4748   42.2402 H   0  0  0  0  0  0  0  0  0  0  0  0
   42.7399   35.7543   42.3525 H   0  0  0  0  0  0  0  0  0  0  0  0
   43.7804   36.7088   41.7035 H   0  0  0  0  0  0  0  0  0  0  0  0
   43.4360   34.8351   39.4211 H   0  0  0  0  0  0  0  0  0  0  0  0
   49.5869   34.8510   40.6233 H   0  0  0  0  0  0  0  0  0  0  0  0
   48.6119   35.6425   42.8584 H   0  0  0  0  0  0  0  0  0  0  0  0
   49.0404   33.0588   38.8167 H   0  0  0  0  0  0  0  0  0  0  0  0
   47.4291   33.2075   38.0368 H   0  0  0  0  0  0  0  0  0  0  0  0
   48.5592   34.6037   38.0368 H   0  0  0  0  0  0  0  0  0  0  0  0
   42.7510   33.2695   38.3635 H   0  0  0  0  0  0  0  0  0  0  0  0
   41.0379   33.0745   38.8188 H   0  0  0  0  0  0  0  0  0  0  0  0
   42.5866   35.6880   38.4580 H   0  0  0  0  0  0  0  0  0  0  0  0
   41.2276   35.0517   37.4421 H   0  0  0  0  0  0  0  0  0  0  0  0
   41.1538   36.5930   39.7479 H   0  0  0  0  0  0  0  0  0  0  0  0
   39.5905   35.6222   41.0389 H   0  0  0  0  0  0  0  0  0  0  0  0
   39.4709   34.2435   39.8323 H   0  0  0  0  0  0  0  0  0  0  0  0
   40.6455   33.2479   41.4664 H   0  0  0  0  0  0  0  0  0  0  0  0
   41.4832   34.8070   41.9361 H   0  0  0  0  0  0  0  0  0  0  0  0
  1  2  1  0
  3  1  1  0
  3  2  1  0
  4  9  2  0
  4  5  1  0
  5  6  2  0
  6  7  1  0
  8  1  1  0
  8  7  2  0
  9  8  1  0
 10  4  1  0
 11  3  1  0
 11 16  1  0
 12 11  1  0
 13 12  1  0
 13 14  1  0
 14 15  1  0
 15 16  1  0
  1 17  1  1
  2 18  1  0
  2 19  1  0
  3 20  1  6
  5 21  1  0
  6 22  1  0
 10 23  1  0
 10 24  1  0
 10 25  1  0
 12 26  1  0
 12 27  1  0
 13 28  1  0
 13 29  1  0
 14 30  1  0
 15 31  1  0
 15 32  1  0
 16 33  1  0
 16 34  1  0
M  ISO  8  17  13  18  13  19  13  20  13  21  14  22  14  23   8  24   8
M  ISO  8  25   8  26  13  27  13  28  13  29  13  30   5  31  13  32  13
M  ISO  2  33  13  34  13
M  END
>  <minimizedAffinity>  (1) 
-4.59385109

>  <minimizedRMSD>  (1) 
2.59342718

$$$$
