
     RDKit          3D

 27 29  0  0  1  0  0  0  0  0999 V2000
   45.7770   34.5620   41.2800 C   0  0  0  0  0  0  0  0  0  0  0  0
   46.1370   35.1300   42.5140 C   0  0  0  0  0  0  0  0  0  0  0  0
   45.0910   35.5770   43.3680 C   0  0  0  0  0  0  0  0  0  0  0  0
   43.8110   35.4220   42.9280 N   0  0  0  0  0  0  0  0  0  0  0  0
   43.5230   34.8730   41.7410 C   0  0  0  0  0  0  0  0  0  0  0  0
   44.4830   34.4380   40.9020 N   0  0  0  0  0  0  0  0  0  0  0  0
   42.1110   34.6920   41.3140 C   0  0  1  0  0  0  0  0  0  0  0  0
   41.2150   35.9300   41.4420 C   0  0  0  0  0  0  0  0  0  0  0  0
   41.6140   35.4010   40.1070 C   0  0  2  0  0  0  0  0  0  0  0  0
   40.5690   34.8670   39.2860 N   0  0  0  0  0  0  0  0  0  0  0  0
   40.4140   34.7860   37.9520 C   0  0  0  0  0  0  0  0  0  0  0  0
   39.2120   34.1730   37.6760 C   0  0  0  0  0  0  0  0  0  0  0  0
   38.6180   33.8730   38.8650 N   0  0  0  0  0  0  0  0  0  0  0  0
   39.4550   34.3010   39.8300 C   0  0  0  0  0  0  0  0  0  0  0  0
   46.8820   34.0890   40.4180 C   0  0  0  0  0  0  0  0  0  0  0  0
   47.1922   35.2257   42.8095 H   0  0  0  0  0  0  0  0  0  0  0  0
   45.3074   36.0306   44.3465 H   0  0  0  0  0  0  0  0  0  0  0  0
   42.0877   33.6428   41.6436 H   0  0  0  0  0  0  0  0  0  0  0  0
   40.1764   35.8277   41.7898 H   0  0  0  0  0  0  0  0  0  0  0  0
   41.2863   36.9006   41.9547 H   0  0  0  0  0  0  0  0  0  0  0  0
   42.1331   35.7888   39.2181 H   0  0  0  0  0  0  0  0  0  0  0  0
   41.1318   35.1507   37.2024 H   0  0  0  0  0  0  0  0  0  0  0  0
   38.8048   33.9634   36.6759 H   0  0  0  0  0  0  0  0  0  0  0  0
   39.2652   34.2065   40.9094 H   0  0  0  0  0  0  0  0  0  0  0  0
   47.7116   33.7339   41.0471 H   0  0  0  0  0  0  0  0  0  0  0  0
   46.5247   33.2650   39.7829 H   0  0  0  0  0  0  0  0  0  0  0  0
   47.2315   34.9163   39.7829 H   0  0  0  0  0  0  0  0  0  0  0  0
  1  2  2  0
  2  3  1  0
  4  3  2  0
  5  4  1  0
  6  1  1  0
  6  5  2  0
  7  8  1  0
  7  5  1  0
  9  7  1  0
  9  8  1  0
 10 14  1  0
 10  9  1  0
 11 10  1  0
 12 11  2  0
 12 13  1  0
 13 14  2  0
 15  1  1  0
  2 16  1  0
  3 17  1  0
  7 18  1  6
  8 19  1  0
  8 20  1  0
  9 21  1  6
 11 22  1  0
 12 23  1  0
 14 24  1  0
 15 25  1  0
 15 26  1  0
 15 27  1  0
M  ISO  8  16  14  17  14  18  13  19  13  20  13  21  13  22  14  23  14
M  ISO  4  24  14  25   8  26   8  27   8
M  END
>  <minimizedAffinity>  (1) 
-4.49120045

>  <minimizedRMSD>  (1) 
2.04507017

$$$$
