
     RDKit          3D

 25 26  0  0  0  0  0  0  0  0999 V2000
   44.4910   36.1180   44.6030 C   0  0  0  0  0  0  0  0  0  0  0  0
   44.7920   35.8420   43.2700 C   0  0  0  0  0  0  0  0  0  0  0  0
   45.3920   34.6340   42.9320 C   0  0  0  0  0  0  0  0  0  0  0  0
   45.6630   33.7490   43.9550 N   0  0  0  0  0  0  0  0  0  0  0  0
   45.3500   34.0590   45.2470 C   0  0  0  0  0  0  0  0  0  0  0  0
   44.7730   35.2320   45.5510 N   0  0  0  0  0  0  0  0  0  0  0  0
   45.7450   34.2410   41.6090 N   0  0  0  0  0  0  0  0  0  0  0  0
   45.0460   33.7330   40.5630 C   0  0  0  0  0  0  0  0  0  0  0  0
   45.8960   33.5420   39.5300 N   0  0  0  0  0  0  0  0  0  0  0  0
   47.0980   33.9330   39.9540 C   0  0  0  0  0  0  0  0  0  0  0  0
   47.0180   34.3720   41.2500 N   0  0  0  0  0  0  0  0  0  0  0  0
   48.3530   33.9000   39.1380 C   0  0  0  0  0  0  0  0  0  0  0  0
   48.9550   32.4930   39.2450 C   0  0  0  0  0  0  0  0  0  0  0  0
   47.9550   34.1740   37.7050 C   0  0  0  0  0  0  0  0  0  0  0  0
   44.0177   37.0742   44.8707 H   0  0  0  0  0  0  0  0  0  0  0  0
   44.5554   36.5781   42.4875 H   0  0  0  0  0  0  0  0  0  0  0  0
   45.5733   33.3391   46.0482 H   0  0  0  0  0  0  0  0  0  0  0  0
   43.9682   33.5134   40.5569 H   0  0  0  0  0  0  0  0  0  0  0  0
   49.0889   34.6410   39.4835 H   0  0  0  0  0  0  0  0  0  0  0  0
   49.0704   32.2232   40.3051 H   0  0  0  0  0  0  0  0  0  0  0  0
   48.2874   31.7702   38.7533 H   0  0  0  0  0  0  0  0  0  0  0  0
   49.9388   32.4768   38.7533 H   0  0  0  0  0  0  0  0  0  0  0  0
   47.0490   34.7977   37.6889 H   0  0  0  0  0  0  0  0  0  0  0  0
   48.7725   34.7016   37.1919 H   0  0  0  0  0  0  0  0  0  0  0  0
   47.7539   33.2220   37.1919 H   0  0  0  0  0  0  0  0  0  0  0  0
  1  6  2  0
  2  1  1  0
  3  2  2  0
  3  4  1  0
  4  5  2  0
  5  6  1  0
  7  3  1  0
  8  7  1  0
  9 10  1  0
  9  8  2  0
 10 11  2  0
 11  7  1  0
 12 13  1  0
 12 10  1  0
 14 12  1  0
  1 15  1  0
  2 16  1  0
  5 17  1  0
  8 18  1  0
 12 19  1  0
 13 20  1  0
 13 21  1  0
 13 22  1  0
 14 23  1  0
 14 24  1  0
 14 25  1  0
M  ISO  8  15  14  16  14  17  14  18  14  19   8  20   8  21   8  22   8
M  ISO  3  23   8  24   8  25   8
M  END
>  <minimizedAffinity>  (1) 
-4.01872969

>  <minimizedRMSD>  (1) 
1.71841753

$$$$
