
     RDKit          3D

 33 35  0  0  1  0  0  0  0  0999 V2000
   42.9840   32.8610   40.4830 C   0  0  1  0  0  0  0  0  0  0  0  0
   41.6440   32.9430   41.2450 C   0  0  0  0  0  0  0  0  0  0  0  0
   41.7950   33.5680   39.9350 C   0  0  1  0  0  0  0  0  0  0  0  0
   46.2980   34.3490   40.9760 C   0  0  0  0  0  0  0  0  0  0  0  0
   46.1930   35.0050   42.1990 C   0  0  0  0  0  0  0  0  0  0  0  0
   44.9400   34.9470   42.8760 C   0  0  0  0  0  0  0  0  0  0  0  0
   43.9400   34.2590   42.2790 N   0  0  0  0  0  0  0  0  0  0  0  0
   44.0890   33.6460   41.1000 C   0  0  0  0  0  0  0  0  0  0  0  0
   45.2610   33.6930   40.4510 N   0  0  0  0  0  0  0  0  0  0  0  0
   47.6180   34.4030   40.3160 C   0  0  0  0  0  0  0  0  0  0  0  0
   41.7830   35.0070   39.8340 N   0  0  0  0  0  0  0  0  0  0  0  0
   40.4340   35.5130   39.9940 C   0  0  0  0  0  0  0  0  0  0  0  0
   39.4920   34.7470   39.1410 C   0  0  0  0  0  0  0  0  0  0  0  0
   39.9470   34.7250   37.8300 O   0  0  0  0  0  0  0  0  0  0  0  0
   40.9380   35.6730   37.6040 C   0  0  0  0  0  0  0  0  0  0  0  0
   42.1580   35.4240   38.4710 C   0  0  0  0  0  0  0  0  0  0  0  0
   43.6608   32.0889   40.0882 H   0  0  0  0  0  0  0  0  0  0  0  0
   41.0184   32.0455   41.3594 H   0  0  0  0  0  0  0  0  0  0  0  0
   41.3318   33.2847   42.2429 H   0  0  0  0  0  0  0  0  0  0  0  0
   41.2482   33.4932   38.9835 H   0  0  0  0  0  0  0  0  0  0  0  0
   47.0472   35.5492   42.6282 H   0  0  0  0  0  0  0  0  0  0  0  0
   44.7919   35.4427   43.8467 H   0  0  0  0  0  0  0  0  0  0  0  0
   48.4088   34.4354   41.0799 H   0  0  0  0  0  0  0  0  0  0  0  0
   47.7509   33.5095   39.6883 H   0  0  0  0  0  0  0  0  0  0  0  0
   47.6775   35.3043   39.6883 H   0  0  0  0  0  0  0  0  0  0  0  0
   40.1320   35.4145   41.0471 H   0  0  0  0  0  0  0  0  0  0  0  0
   40.4105   36.5706   39.6925 H   0  0  0  0  0  0  0  0  0  0  0  0
   39.4162   33.7162   39.5173 H   0  0  0  0  0  0  0  0  0  0  0  0
   38.5041   35.2298   39.1716 H   0  0  0  0  0  0  0  0  0  0  0  0
   41.2373   35.6312   36.5463 H   0  0  0  0  0  0  0  0  0  0  0  0
   40.5314   36.6629   37.8587 H   0  0  0  0  0  0  0  0  0  0  0  0
   42.7666   34.6317   38.0107 H   0  0  0  0  0  0  0  0  0  0  0  0
   42.7242   36.3643   38.5440 H   0  0  0  0  0  0  0  0  0  0  0  0
  1  8  1  0
  1  2  1  0
  3  1  1  0
  3  2  1  0
  4  5  2  0
  5  6  1  0
  7  6  2  0
  8  7  1  0
  9  4  1  0
  9  8  2  0
 10  4  1  0
 11  3  1  0
 11 12  1  0
 13 12  1  0
 14 13  1  0
 15 14  1  0
 15 16  1  0
 16 11  1  0
  1 17  1  6
  2 18  1  0
  2 19  1  0
  3 20  1  6
  5 21  1  0
  6 22  1  0
 10 23  1  0
 10 24  1  0
 10 25  1  0
 12 26  1  0
 12 27  1  0
 13 28  1  0
 13 29  1  0
 15 30  1  0
 15 31  1  0
 16 32  1  0
 16 33  1  0
M  ISO  8  17  13  18  13  19  13  20  13  21  14  22  14  23   8  24   8
M  ISO  8  25   8  26  13  27  13  28  13  29  13  30  13  31  13  32  13
M  ISO  1  33  13
M  END
>  <minimizedAffinity>  (1) 
-4.27341366

>  <minimizedRMSD>  (1) 
3.11188936

$$$$
