
     RDKit          3D

 26 28  0  0  1  0  0  0  0  0999 V2000
   43.8270   35.1020   41.2970 C   0  0  0  0  0  0  0  0  0  0  0  0
   44.5710   34.1330   40.5890 C   0  0  0  0  0  0  0  0  0  0  0  0
   44.0130   33.6320   39.3790 C   0  0  0  0  0  0  0  0  0  0  0  0
   42.8110   34.1210   38.9920 N   0  0  0  0  0  0  0  0  0  0  0  0
   42.1440   35.0410   39.7020 C   0  0  0  0  0  0  0  0  0  0  0  0
   42.6390   35.5450   40.8620 N   0  0  0  0  0  0  0  0  0  0  0  0
   40.8420   35.5830   39.2440 C   0  0  1  0  0  0  0  0  0  0  0  0
   40.1150   34.7570   38.1870 C   0  0  0  0  0  0  0  0  0  0  0  0
   39.5840   34.8670   39.5750 C   0  0  1  0  0  0  0  0  0  0  0  0
   39.6130   33.6340   40.3390 N   0  0  0  0  0  0  0  0  0  0  0  0
   39.5090   32.4000   39.8000 C   0  0  0  0  0  0  0  0  0  0  0  0
   39.5730   31.4960   40.7910 N   0  0  0  0  0  0  0  0  0  0  0  0
   39.7210   32.1690   41.9650 C   0  0  0  0  0  0  0  0  0  0  0  0
   39.7410   33.4810   41.6490 N   0  0  0  0  0  0  0  0  0  0  0  0
   44.4280   35.6260   42.5410 C   0  0  0  0  0  0  0  0  0  0  0  0
   45.5447   33.7787   40.9584 H   0  0  0  0  0  0  0  0  0  0  0  0
   44.5395   32.8746   38.7797 H   0  0  0  0  0  0  0  0  0  0  0  0
   41.1760   36.6241   39.3646 H   0  0  0  0  0  0  0  0  0  0  0  0
   39.5963   35.2565   37.3555 H   0  0  0  0  0  0  0  0  0  0  0  0
   40.3869   33.9296   37.5151 H   0  0  0  0  0  0  0  0  0  0  0  0
   38.6521   35.2032   40.0531 H   0  0  0  0  0  0  0  0  0  0  0  0
   39.3917   32.1737   38.7299 H   0  0  0  0  0  0  0  0  0  0  0  0
   39.8071   31.7310   42.9704 H   0  0  0  0  0  0  0  0  0  0  0  0
   43.9190   35.1822   43.4093 H   0  0  0  0  0  0  0  0  0  0  0  0
   45.4964   35.3660   42.5699 H   0  0  0  0  0  0  0  0  0  0  0  0
   44.3160   36.7199   42.5699 H   0  0  0  0  0  0  0  0  0  0  0  0
  1 15  1  0
  2  1  2  0
  3  2  1  0
  4  3  2  0
  4  5  1  0
  5  6  2  0
  6  1  1  0
  7  9  1  0
  7  5  1  0
  8  7  1  0
  8  9  1  0
  9 10  1  0
 10 14  1  0
 11 10  1  0
 11 12  2  0
 12 13  1  0
 14 13  2  0
  2 16  1  0
  3 17  1  0
  7 18  1  6
  8 19  1  0
  8 20  1  0
  9 21  1  6
 11 22  1  0
 13 23  1  0
 15 24  1  0
 15 25  1  0
 15 26  1  0
M  ISO  8  16  14  17  14  18  13  19  13  20  13  21  13  22  14  23  14
M  ISO  3  24   8  25   8  26   8
M  END
>  <minimizedAffinity>  (1) 
-4.29899025

>  <minimizedRMSD>  (1) 
4.8834753

$$$$
