
     RDKit          3D

 19 20  0  0  0  0  0  0  0  0999 V2000
   46.1930   34.0820   43.4070 C   0  0  0  0  0  0  0  0  0  0  0  0
   45.3880   33.7120   42.3890 C   0  0  0  0  0  0  0  0  0  0  0  0
   46.2940   34.2280   40.9110 S   0  0  0  0  0  0  0  0  0  0  0  0
   47.7070   34.9050   42.0070 C   0  0  0  0  0  0  0  0  0  0  0  0
   47.3070   34.6620   43.0620 N   0  0  0  0  0  0  0  0  0  0  0  0
   44.6530   34.3520   46.8800 C   0  0  0  0  0  0  0  0  0  0  0  0
   44.9710   34.6620   45.5520 C   0  0  0  0  0  0  0  0  0  0  0  0
   45.8030   33.8270   44.8250 C   0  0  0  0  0  0  0  0  0  0  0  0
   46.2610   32.7300   45.4890 N   0  0  0  0  0  0  0  0  0  0  0  0
   45.9680   32.4170   46.7590 C   0  0  0  0  0  0  0  0  0  0  0  0
   45.1590   33.2460   47.4360 N   0  0  0  0  0  0  0  0  0  0  0  0
   48.9660   35.5660   41.4920 C   0  0  0  0  0  0  0  0  0  0  0  0
   50.0690   34.8380   41.8580 F   0  0  0  0  0  0  0  0  0  0  0  0
   48.8060   35.6660   40.1160 F   0  0  0  0  0  0  0  0  0  0  0  0
   49.0580   36.8600   41.9560 F   0  0  0  0  0  0  0  0  0  0  0  0
   44.4093   33.2130   42.4450 H   0  0  0  0  0  0  0  0  0  0  0  0
   43.9926   35.0126   47.4609 H   0  0  0  0  0  0  0  0  0  0  0  0
   44.5596   35.5695   45.0859 H   0  0  0  0  0  0  0  0  0  0  0  0
   46.3770   31.5111   47.2302 H   0  0  0  0  0  0  0  0  0  0  0  0
  1  8  1  0
  2  1  2  0
  3  4  1  0
  3  2  1  0
  4  5  2  0
  5  1  1  0
  6 11  2  0
  7  6  1  0
  8  9  1  0
  8  7  2  0
  9 10  2  0
 10 11  1  0
 12 13  1  0
 12 15  1  0
 12  4  1  0
 14 12  1  0
  2 16  1  0
  6 17  1  0
  7 18  1  0
 10 19  1  0
M  ISO  4  16  14  17  14  18  14  19  14
M  END
>  <minimizedAffinity>  (1) 
-4.62183094

>  <minimizedRMSD>  (1) 
1.93773103

$$$$
