
     RDKit          3D

 22 23  0  0  1  0  0  0  0  0999 V2000
   43.4940   34.0500   39.7140 C   0  0  0  0  0  0  0  0  0  0  0  0
   43.9840   34.4840   40.9540 C   0  0  0  0  0  0  0  0  0  0  0  0
   43.1220   35.2870   41.7550 C   0  0  0  0  0  0  0  0  0  0  0  0
   41.8830   35.5770   41.2610 N   0  0  0  0  0  0  0  0  0  0  0  0
   41.4710   35.1320   40.0670 C   0  0  0  0  0  0  0  0  0  0  0  0
   42.2740   34.3680   39.2900 N   0  0  0  0  0  0  0  0  0  0  0  0
   40.1070   35.4390   39.5710 C   0  0  1  0  0  0  0  0  0  0  0  0
   39.5280   34.4150   38.5910 C   0  0  0  0  0  0  0  0  0  0  0  0
   38.9680   34.5770   39.9630 C   0  0  1  0  0  0  0  0  0  0  0  0
   39.1560   33.3760   40.8030 C   0  0  0  0  0  0  0  0  0  0  0  0
   38.3170   32.4880   40.7760 O   0  0  0  0  0  0  0  0  0  0  0  0
   44.4020   33.2000   38.8930 C   0  0  0  0  0  0  0  0  0  0  0  0
   44.9946   34.2149   41.2950 H   0  0  0  0  0  0  0  0  0  0  0  0
   43.4439   35.6607   42.7382 H   0  0  0  0  0  0  0  0  0  0  0  0
   40.2767   36.5254   39.6016 H   0  0  0  0  0  0  0  0  0  0  0  0
   38.9531   34.7505   37.7152 H   0  0  0  0  0  0  0  0  0  0  0  0
   39.9299   33.5786   38.0004 H   0  0  0  0  0  0  0  0  0  0  0  0
   38.0055   34.8339   40.4295 H   0  0  0  0  0  0  0  0  0  0  0  0
   40.0430   33.2822   41.4467 H   0  0  0  0  0  0  0  0  0  0  0  0
   45.0425   32.6004   39.5565 H   0  0  0  0  0  0  0  0  0  0  0  0
   43.8031   32.5304   38.2582 H   0  0  0  0  0  0  0  0  0  0  0  0
   45.0307   33.8418   38.2582 H   0  0  0  0  0  0  0  0  0  0  0  0
  1  2  2  0
  2  3  1  0
  4  3  2  0
  5  4  1  0
  6  1  1  0
  6  5  2  0
  7  9  1  0
  7  5  1  0
  8  7  1  0
  8  9  1  0
  9 10  1  0
 11 10  2  0
 12  1  1  0
  2 13  1  0
  3 14  1  0
  7 15  1  6
  8 16  1  0
  8 17  1  0
  9 18  1  6
 10 19  1  0
 12 20  1  0
 12 21  1  0
 12 22  1  0
M  ISO  8  13  14  14  14  15  13  16  13  17  13  18  13  19   6  20   8
M  ISO  2  21   8  22   8
M  END
>  <minimizedAffinity>  (1) 
-3.81945825

>  <minimizedRMSD>  (1) 
4.04430914

$$$$
