
     RDKit          3D

 21 22  0  0  1  0  0  0  0  0999 V2000
   46.1160   34.5390   41.3900 C   0  0  0  0  0  0  0  0  0  0  0  0
   46.3470   35.2400   42.5780 C   0  0  0  0  0  0  0  0  0  0  0  0
   45.2150   35.6800   43.3230 C   0  0  0  0  0  0  0  0  0  0  0  0
   43.9880   35.3840   42.8230 N   0  0  0  0  0  0  0  0  0  0  0  0
   43.8210   34.7080   41.6760 C   0  0  0  0  0  0  0  0  0  0  0  0
   44.8690   34.2720   40.9370 N   0  0  0  0  0  0  0  0  0  0  0  0
   42.4500   34.3830   41.1880 C   0  0  1  0  0  0  0  0  0  0  0  0
   41.5460   35.5970   40.9270 C   0  0  0  0  0  0  0  0  0  0  0  0
   42.0620   34.7630   39.8060 C   0  0  1  0  0  0  0  0  0  0  0  0
   43.0890   35.4070   39.0780 O   0  0  0  0  0  0  0  0  0  0  0  0
   47.3150   34.0810   40.6560 C   0  0  0  0  0  0  0  0  0  0  0  0
   47.3701   35.4451   42.9261 H   0  0  0  0  0  0  0  0  0  0  0  0
   45.3305   36.2367   44.2647 H   0  0  0  0  0  0  0  0  0  0  0  0
   42.3984   33.4457   41.7614 H   0  0  0  0  0  0  0  0  0  0  0  0
   40.4805   35.5619   41.1979 H   0  0  0  0  0  0  0  0  0  0  0  0
   41.5720   36.6655   41.1871 H   0  0  0  0  0  0  0  0  0  0  0  0
   41.6022   34.2184   38.9681 H   0  0  0  0  0  0  0  0  0  0  0  0
   43.7358   35.8126   39.7083 H   0  0  0  0  0  0  0  0  0  0  0  0
   48.0933   33.7837   41.3743 H   0  0  0  0  0  0  0  0  0  0  0  0
   47.0514   33.2203   40.0238 H   0  0  0  0  0  0  0  0  0  0  0  0
   47.6924   34.8983   40.0238 H   0  0  0  0  0  0  0  0  0  0  0  0
  1  2  2  0
  2  3  1  0
  4  3  2  0
  5  4  1  0
  6  1  1  0
  6  5  2  0
  7  5  1  0
  8  7  1  0
  9  8  1  0
  9  7  1  0
 10  9  1  0
 11  1  1  0
  2 12  1  0
  3 13  1  0
  7 14  1  1
  8 15  1  0
  8 16  1  0
  9 17  1  6
 10 18  1  0
 11 19  1  0
 11 20  1  0
 11 21  1  0
M  ISO  8  12  14  13  14  14  13  15  13  16  13  17  13  18   3  19   8
M  ISO  2  20   8  21   8
M  END
>  <minimizedAffinity>  (1) 
-3.63711262

>  <minimizedRMSD>  (1) 
0.961816728

$$$$
