
     RDKit          3D

 22 23  0  0  1  0  0  0  0  0999 V2000
   46.0730   34.5350   41.3650 C   0  0  0  0  0  0  0  0  0  0  0  0
   46.3150   35.2480   42.5340 C   0  0  0  0  0  0  0  0  0  0  0  0
   45.2040   35.6990   43.3000 C   0  0  0  0  0  0  0  0  0  0  0  0
   43.9700   35.3960   42.8280 N   0  0  0  0  0  0  0  0  0  0  0  0
   43.7800   34.7050   41.6940 C   0  0  0  0  0  0  0  0  0  0  0  0
   44.8380   34.2640   40.9470 N   0  0  0  0  0  0  0  0  0  0  0  0
   42.4080   34.3690   41.2210 C   0  0  1  0  0  0  0  0  0  0  0  0
   41.5210   35.5860   40.9170 C   0  0  0  0  0  0  0  0  0  0  0  0
   42.0240   34.7050   39.8250 C   0  0  1  0  0  0  0  0  0  0  0  0
   43.0020   35.3310   38.9550 N   0  0  0  0  0  0  0  0  0  0  0  0
   47.2620   34.0720   40.6160 C   0  0  0  0  0  0  0  0  0  0  0  0
   47.3442   35.4590   42.8599 H   0  0  0  0  0  0  0  0  0  0  0  0
   45.3402   36.2672   44.2320 H   0  0  0  0  0  0  0  0  0  0  0  0
   42.3451   33.4520   41.8253 H   0  0  0  0  0  0  0  0  0  0  0  0
   40.4553   35.5759   41.1895 H   0  0  0  0  0  0  0  0  0  0  0  0
   41.5627   36.6626   41.1389 H   0  0  0  0  0  0  0  0  0  0  0  0
   41.5764   34.1058   39.0183 H   0  0  0  0  0  0  0  0  0  0  0  0
   43.7238   35.7930   39.5263 H   0  0  0  0  0  0  0  0  0  0  0  0
   43.4416   34.6139   38.3606 H   0  0  0  0  0  0  0  0  0  0  0  0
   48.0459   33.7668   41.3248 H   0  0  0  0  0  0  0  0  0  0  0  0
   46.9861   33.2156   39.9832 H   0  0  0  0  0  0  0  0  0  0  0  0
   47.6380   34.8894   39.9832 H   0  0  0  0  0  0  0  0  0  0  0  0
  1  2  2  0
  2  3  1  0
  4  3  2  0
  5  4  1  0
  6  1  1  0
  6  5  2  0
  7  5  1  0
  8  7  1  0
  9  8  1  0
  9  7  1  0
 10  9  1  0
 11  1  1  0
  2 12  1  0
  3 13  1  0
  7 14  1  1
  8 15  1  0
  8 16  1  0
  9 17  1  6
 10 18  1  0
 10 19  1  0
 11 20  1  0
 11 21  1  0
 11 22  1  0
M  ISO  8  12  14  13  14  14  13  15  13  16  13  17  13  18   5  19   5
M  ISO  3  20   8  21   8  22   8
M  END
>  <minimizedAffinity>  (1) 
-3.6048131

>  <minimizedRMSD>  (1) 
0.980497062

$$$$
