
     RDKit          3D

 26 27  0  0  1  0  0  0  0  0999 V2000
   46.2320   34.4250   41.3190 C   0  0  0  0  0  0  0  0  0  0  0  0
   46.4500   35.1100   42.5320 C   0  0  0  0  0  0  0  0  0  0  0  0
   45.3490   35.8120   43.1050 C   0  0  0  0  0  0  0  0  0  0  0  0
   44.1670   35.7710   42.4430 N   0  0  0  0  0  0  0  0  0  0  0  0
   44.0090   35.1020   41.2870 C   0  0  0  0  0  0  0  0  0  0  0  0
   45.0230   34.4260   40.7110 N   0  0  0  0  0  0  0  0  0  0  0  0
   42.6830   35.0610   40.6160 C   0  0  1  0  0  0  0  0  0  0  0  0
   41.7110   34.0060   41.1540 C   0  0  0  0  0  0  0  0  0  0  0  0
   41.4730   35.4570   41.3830 C   0  0  2  0  0  0  0  0  0  0  0  0
   40.3190   36.1470   40.6640 C   0  0  0  0  0  0  0  0  0  0  0  0
   39.5320   35.1090   39.8920 C   0  0  0  0  0  0  0  0  0  0  0  0
   47.3800   33.6880   40.7470 C   0  0  0  0  0  0  0  0  0  0  0  0
   47.4359   35.1031   43.0197 H   0  0  0  0  0  0  0  0  0  0  0  0
   45.4550   36.3662   44.0492 H   0  0  0  0  0  0  0  0  0  0  0  0
   43.0954   35.3534   39.6390 H   0  0  0  0  0  0  0  0  0  0  0  0
   41.0678   33.4427   40.4619 H   0  0  0  0  0  0  0  0  0  0  0  0
   41.7963   33.1150   41.7934 H   0  0  0  0  0  0  0  0  0  0  0  0
   41.3029   36.0749   42.2770 H   0  0  0  0  0  0  0  0  0  0  0  0
   39.6637   36.6348   41.4006 H   0  0  0  0  0  0  0  0  0  0  0  0
   40.7116   36.9074   39.9728 H   0  0  0  0  0  0  0  0  0  0  0  0
   39.0220   34.4363   40.5972 H   0  0  0  0  0  0  0  0  0  0  0  0
   38.7855   35.6109   39.2590 H   0  0  0  0  0  0  0  0  0  0  0  0
   40.2168   34.5257   39.2590 H   0  0  0  0  0  0  0  0  0  0  0  0
   48.0020   33.2887   41.5616 H   0  0  0  0  0  0  0  0  0  0  0  0
   47.0106   32.8578   40.1270 H   0  0  0  0  0  0  0  0  0  0  0  0
   47.9810   34.3694   40.1270 H   0  0  0  0  0  0  0  0  0  0  0  0
  1  2  2  0
  2  3  1  0
  4  3  2  0
  5  4  1  0
  6  5  2  0
  6  1  1  0
  7  8  1  0
  7  5  1  0
  7  9  1  0
  8  9  1  0
 10  9  1  0
 11 10  1  0
 12  1  1  0
  2 13  1  0
  3 14  1  0
  7 15  1  6
  8 16  1  0
  8 17  1  0
  9 18  1  1
 10 19  1  0
 10 20  1  0
 11 21  1  0
 11 22  1  0
 11 23  1  0
 12 24  1  0
 12 25  1  0
 12 26  1  0
M  ISO  8  13  14  14  14  15  13  16  13  17  13  18  13  19   8  20   8
M  ISO  6  21   8  22   8  23   8  24   8  25   8  26   8
M  END
>  <minimizedAffinity>  (1) 
-4.18233538

>  <minimizedRMSD>  (1) 
2.1883893

$$$$
