
     RDKit          3D

 23 25  0  0  0  0  0  0  0  0999 V2000
   44.6130   36.1730   44.3530 C   0  0  0  0  0  0  0  0  0  0  0  0
   44.7710   35.8320   43.0080 C   0  0  0  0  0  0  0  0  0  0  0  0
   45.2160   34.5540   42.6880 C   0  0  0  0  0  0  0  0  0  0  0  0
   45.4810   33.6840   43.7230 N   0  0  0  0  0  0  0  0  0  0  0  0
   45.3150   34.0490   45.0210 C   0  0  0  0  0  0  0  0  0  0  0  0
   44.8840   35.2870   45.3230 N   0  0  0  0  0  0  0  0  0  0  0  0
   45.4230   34.0690   41.3630 N   0  0  0  0  0  0  0  0  0  0  0  0
   44.6390   33.5520   40.4100 C   0  0  0  0  0  0  0  0  0  0  0  0
   45.3740   33.2520   39.3140 N   0  0  0  0  0  0  0  0  0  0  0  0
   46.6330   33.6000   39.6200 C   0  0  0  0  0  0  0  0  0  0  0  0
   46.6720   34.1050   40.8800 N   0  0  0  0  0  0  0  0  0  0  0  0
   47.8600   33.4860   38.7710 C   0  0  0  0  0  0  0  0  0  0  0  0
   48.5420   34.6750   38.2480 C   0  0  0  0  0  0  0  0  0  0  0  0
   47.6720   33.8950   37.2840 C   0  0  0  0  0  0  0  0  0  0  0  0
   44.2620   37.1806   44.6203 H   0  0  0  0  0  0  0  0  0  0  0  0
   44.5474   36.5615   42.2157 H   0  0  0  0  0  0  0  0  0  0  0  0
   45.5332   33.3316   45.8258 H   0  0  0  0  0  0  0  0  0  0  0  0
   43.5545   33.3938   40.5037 H   0  0  0  0  0  0  0  0  0  0  0  0
   48.2209   32.6144   39.3367 H   0  0  0  0  0  0  0  0  0  0  0  0
   48.2222   35.6736   38.5805 H   0  0  0  0  0  0  0  0  0  0  0  0
   49.5914   35.0045   38.2304 H   0  0  0  0  0  0  0  0  0  0  0  0
   46.7143   34.3096   36.9363 H   0  0  0  0  0  0  0  0  0  0  0  0
   47.8064   33.4130   36.3044 H   0  0  0  0  0  0  0  0  0  0  0  0
  1  6  2  0
  2  1  1  0
  3  2  2  0
  3  4  1  0
  4  5  2  0
  5  6  1  0
  7  3  1  0
  8  7  1  0
  9 10  1  0
  9  8  2  0
 10 11  2  0
 11  7  1  0
 12 10  1  0
 13 12  1  0
 14 13  1  0
 14 12  1  0
  1 15  1  0
  2 16  1  0
  5 17  1  0
  8 18  1  0
 12 19  1  0
 13 20  1  0
 13 21  1  0
 14 22  1  0
 14 23  1  0
M  ISO  8  15  14  16  14  17  14  18  14  19  13  20  13  21  13  22  13
M  ISO  1  23  13
M  END
>  <minimizedAffinity>  (1) 
-3.87441325

>  <minimizedRMSD>  (1) 
2.07543278

$$$$
