
     RDKit          3D

 49 52  0  0  1  0  0  0  0  0999 V2000
   41.7720   33.9200   39.4310 C   0  0  2  0  0  0  0  0  0  0  0  0
   41.2490   34.8990   38.3880 C   0  0  0  0  0  0  0  0  0  0  0  0
   39.8880   34.5080   37.8980 C   0  0  0  0  0  0  0  0  0  0  0  0
   38.9050   34.5600   39.0380 C   0  0  0  0  0  0  0  0  0  0  0  0
   39.6470   34.5320   40.3620 C   0  0  0  0  0  0  0  0  0  0  0  0
   40.6810   33.4220   40.2630 C   0  0  1  0  0  0  0  0  0  0  0  0
   40.0730   32.1580   39.9400 N   0  0  0  0  0  0  0  0  0  0  0  0
   38.9820   31.8780   40.7190 C   0  0  0  0  0  0  0  0  0  0  0  0
   38.2490   30.7190   40.5860 C   0  0  0  0  0  0  0  0  0  0  0  0
   37.0420   30.3140   41.3820 C   0  0  0  0  0  0  0  0  0  0  0  0
   38.5930   29.7590   39.6330 C   0  0  0  0  0  0  0  0  0  0  0  0
   37.9840   28.6760   39.4420 O   0  0  0  0  0  0  0  0  0  0  0  0
   39.6660   30.0500   38.8790 N   0  0  0  0  0  0  0  0  0  0  0  0
   40.3340   31.1950   39.0590 C   0  0  0  0  0  0  0  0  0  0  0  0
   41.3170   31.3580   38.3030 O   0  0  0  0  0  0  0  0  0  0  0  0
   43.2760   34.2160   41.5650 C   0  0  1  0  0  0  0  0  0  0  0  0
   42.5850   35.5770   41.2930 C   0  0  0  0  0  0  0  0  0  0  0  0
   42.8410   34.6340   40.2550 C   0  0  2  0  0  0  0  0  0  0  0  0
   46.9310   34.4790   41.3260 C   0  0  0  0  0  0  0  0  0  0  0  0
   47.3380   34.4480   42.6650 C   0  0  0  0  0  0  0  0  0  0  0  0
   46.3280   34.3530   43.6770 C   0  0  0  0  0  0  0  0  0  0  0  0
   45.0390   34.2990   43.2690 N   0  0  0  0  0  0  0  0  0  0  0  0
   44.6970   34.3310   41.9710 C   0  0  0  0  0  0  0  0  0  0  0  0
   45.6300   34.4230   40.9760 N   0  0  0  0  0  0  0  0  0  0  0  0
   47.9820   34.5500   40.2970 C   0  0  0  0  0  0  0  0  0  0  0  0
   42.2189   33.0402   38.9450 H   0  0  0  0  0  0  0  0  0  0  0  0
   41.1925   35.9019   38.8364 H   0  0  0  0  0  0  0  0  0  0  0  0
   41.9388   34.8900   37.5312 H   0  0  0  0  0  0  0  0  0  0  0  0
   39.5695   35.2043   37.1082 H   0  0  0  0  0  0  0  0  0  0  0  0
   39.9253   33.4852   37.4949 H   0  0  0  0  0  0  0  0  0  0  0  0
   38.3159   35.4864   38.9696 H   0  0  0  0  0  0  0  0  0  0  0  0
   38.2361   33.6887   38.9793 H   0  0  0  0  0  0  0  0  0  0  0  0
   40.1437   35.4975   40.5382 H   0  0  0  0  0  0  0  0  0  0  0  0
   38.9552   34.3533   41.1983 H   0  0  0  0  0  0  0  0  0  0  0  0
   41.1495   33.1672   41.2251 H   0  0  0  0  0  0  0  0  0  0  0  0
   38.6782   32.6090   41.4828 H   0  0  0  0  0  0  0  0  0  0  0  0
   37.2685   30.3900   42.4557 H   0  0  0  0  0  0  0  0  0  0  0  0
   36.2009   30.9791   41.1367 H   0  0  0  0  0  0  0  0  0  0  0  0
   36.7723   29.2762   41.1367 H   0  0  0  0  0  0  0  0  0  0  0  0
   39.9771   29.3857   38.1559 H   0  0  0  0  0  0  0  0  0  0  0  0
   43.1211   33.3031   42.1587 H   0  0  0  0  0  0  0  0  0  0  0  0
   41.5566   35.7574   41.6391 H   0  0  0  0  0  0  0  0  0  0  0  0
   42.8233   36.6351   41.4762 H   0  0  0  0  0  0  0  0  0  0  0  0
   43.3523   34.7189   39.2848 H   0  0  0  0  0  0  0  0  0  0  0  0
   48.4038   34.4953   42.9329 H   0  0  0  0  0  0  0  0  0  0  0  0
   46.5905   34.3250   44.7448 H   0  0  0  0  0  0  0  0  0  0  0  0
   48.9667   34.6165   40.7827 H   0  0  0  0  0  0  0  0  0  0  0  0
   47.9427   33.6472   39.6698 H   0  0  0  0  0  0  0  0  0  0  0  0
   47.8216   35.4394   39.6698 H   0  0  0  0  0  0  0  0  0  0  0  0
  1 18  1  0
  1  6  1  0
  2  1  1  0
  3  2  1  0
  3  4  1  0
  4  5  1  0
  6  5  1  0
  7  6  1  0
  7  8  1  0
  9  8  2  0
  9 10  1  0
 11  9  1  0
 12 11  2  0
 13 14  1  0
 13 11  1  0
 14  7  1  0
 15 14  2  0
 16 23  1  0
 17 16  1  0
 18 17  1  0
 18 16  1  0
 19 20  2  0
 20 21  1  0
 22 21  2  0
 23 22  1  0
 24 19  1  0
 24 23  2  0
 25 19  1  0
  1 26  1  6
  2 27  1  0
  2 28  1  0
  3 29  1  0
  3 30  1  0
  4 31  1  0
  4 32  1  0
  5 33  1  0
  5 34  1  0
  6 35  1  1
  8 36  1  0
 10 37  1  0
 10 38  1  0
 10 39  1  0
 13 40  1  0
 16 41  1  1
 17 42  1  0
 17 43  1  0
 18 44  1  6
 20 45  1  0
 21 46  1  0
 25 47  1  0
 25 48  1  0
 25 49  1  0
M  ISO  8  26  13  27  13  28  13  29  13  30  13  31  13  32  13  33  13
M  ISO  8  34  13  35  13  36  14  37   8  38   8  39   8  40   9  41  13
M  ISO  8  42  13  43  13  44  13  45  14  46  14  47   8  48   8  49   8
M  END
>  <minimizedAffinity>  (1) 
-6.50786448

>  <minimizedRMSD>  (1) 
1.41789269

$$$$
