
     RDKit          3D

 46 49  0  0  1  0  0  0  0  0999 V2000
   41.0960   33.1800   39.4280 C   0  0  2  0  0  0  0  0  0  0  0  0
   40.5360   33.4980   38.0640 C   0  0  0  0  0  0  0  0  0  0  0  0
   39.0760   33.2110   37.9230 C   0  0  0  0  0  0  0  0  0  0  0  0
   38.2790   33.9550   38.9500 C   0  0  0  0  0  0  0  0  0  0  0  0
   39.2020   34.5600   40.0010 C   0  0  0  0  0  0  0  0  0  0  0  0
   40.0800   33.4230   40.4550 C   0  0  1  0  0  0  0  0  0  0  0  0
   39.3690   32.2330   40.8310 N   0  0  0  0  0  0  0  0  0  0  0  0
   38.1660   31.7110   40.5540 C   0  0  0  0  0  0  0  0  0  0  0  0
   37.6580   30.5270   41.0200 C   0  0  0  0  0  0  0  0  0  0  0  0
   38.4250   29.7560   41.8660 C   0  0  0  0  0  0  0  0  0  0  0  0
   37.9250   28.6960   42.2610 O   0  0  0  0  0  0  0  0  0  0  0  0
   39.6430   30.2340   42.1780 N   0  0  0  0  0  0  0  0  0  0  0  0
   40.0720   31.4090   41.6780 C   0  0  0  0  0  0  0  0  0  0  0  0
   41.2450   31.6670   42.1000 O   0  0  0  0  0  0  0  0  0  0  0  0
   42.5780   34.8440   40.8290 C   0  0  1  0  0  0  0  0  0  0  0  0
   42.4590   35.4160   39.3910 C   0  0  0  0  0  0  0  0  0  0  0  0
   42.3450   34.0230   39.6650 C   0  0  2  0  0  0  0  0  0  0  0  0
   46.2070   34.4020   41.3020 C   0  0  0  0  0  0  0  0  0  0  0  0
   46.4470   35.1150   42.4940 C   0  0  0  0  0  0  0  0  0  0  0  0
   45.3460   35.7630   43.1280 C   0  0  0  0  0  0  0  0  0  0  0  0
   44.1220   35.6540   42.5400 N   0  0  0  0  0  0  0  0  0  0  0  0
   43.9420   34.9660   41.4080 C   0  0  0  0  0  0  0  0  0  0  0  0
   44.9740   34.3290   40.7670 N   0  0  0  0  0  0  0  0  0  0  0  0
   47.3560   33.7270   40.6650 C   0  0  0  0  0  0  0  0  0  0  0  0
   41.3771   32.1179   39.4827 H   0  0  0  0  0  0  0  0  0  0  0  0
   40.6990   34.5673   37.8641 H   0  0  0  0  0  0  0  0  0  0  0  0
   41.0583   32.8480   37.3466 H   0  0  0  0  0  0  0  0  0  0  0  0
   38.7448   33.5175   36.9198 H   0  0  0  0  0  0  0  0  0  0  0  0
   38.9159   32.1327   38.0701 H   0  0  0  0  0  0  0  0  0  0  0  0
   37.7137   34.7598   38.4573 H   0  0  0  0  0  0  0  0  0  0  0  0
   37.5877   33.2549   39.4419 H   0  0  0  0  0  0  0  0  0  0  0  0
   39.8095   35.3658   39.5633 H   0  0  0  0  0  0  0  0  0  0  0  0
   38.6401   35.0048   40.8355 H   0  0  0  0  0  0  0  0  0  0  0  0
   40.5669   33.7267   41.3935 H   0  0  0  0  0  0  0  0  0  0  0  0
   37.5189   32.2942   39.8823 H   0  0  0  0  0  0  0  0  0  0  0  0
   36.6518   30.1965   40.7229 H   0  0  0  0  0  0  0  0  0  0  0  0
   40.2552   29.6950   42.8070 H   0  0  0  0  0  0  0  0  0  0  0  0
   42.0832   34.9301   41.8076 H   0  0  0  0  0  0  0  0  0  0  0  0
   43.3465   35.8101   38.8743 H   0  0  0  0  0  0  0  0  0  0  0  0
   41.8408   36.1765   38.8915 H   0  0  0  0  0  0  0  0  0  0  0  0
   42.8580   33.1395   39.2574 H   0  0  0  0  0  0  0  0  0  0  0  0
   47.4578   35.1702   42.9243 H   0  0  0  0  0  0  0  0  0  0  0  0
   45.4806   36.3315   44.0601 H   0  0  0  0  0  0  0  0  0  0  0  0
   48.0269   33.3329   41.4426 H   0  0  0  0  0  0  0  0  0  0  0  0
   46.9935   32.8983   40.0390 H   0  0  0  0  0  0  0  0  0  0  0  0
   47.9034   34.4471   40.0390 H   0  0  0  0  0  0  0  0  0  0  0  0
  1 17  1  0
  1  6  1  0
  2  1  1  0
  3  2  1  0
  3  4  1  0
  4  5  1  0
  5  6  1  0
  6  7  1  0
  7 13  1  0
  8  7  1  0
  8  9  2  0
  9 10  1  0
 10 12  1  0
 10 11  2  0
 13 14  2  0
 13 12  1  0
 15 22  1  0
 16 17  1  0
 16 15  1  0
 17 15  1  0
 18 19  2  0
 19 20  1  0
 21 20  2  0
 22 21  1  0
 23 18  1  0
 23 22  2  0
 24 18  1  0
  1 25  1  6
  2 26  1  0
  2 27  1  0
  3 28  1  0
  3 29  1  0
  4 30  1  0
  4 31  1  0
  5 32  1  0
  5 33  1  0
  6 34  1  1
  8 35  1  0
  9 36  1  0
 12 37  1  0
 15 38  1  1
 16 39  1  0
 16 40  1  0
 17 41  1  6
 19 42  1  0
 20 43  1  0
 24 44  1  0
 24 45  1  0
 24 46  1  0
M  ISO  8  25  13  26  13  27  13  28  13  29  13  30  13  31  13  32  13
M  ISO  8  33  13  34  13  35  14  36  14  37   9  38  13  39  13  40  13
M  ISO  6  41  13  42  14  43  14  44   8  45   8  46   8
M  END
>  <minimizedAffinity>  (1) 
-6.45328093

>  <minimizedRMSD>  (1) 
2.48847675

$$$$
