
     RDKit          3D

 42 45  0  0  1  0  0  0  0  0999 V2000
   41.1500   33.9040   39.0370 C   0  0  2  0  0  0  0  0  0  0  0  0
   40.2650   34.7860   38.1770 C   0  0  0  0  0  0  0  0  0  0  0  0
   38.9900   34.1330   37.7360 C   0  0  0  0  0  0  0  0  0  0  0  0
   38.1460   33.7940   38.9280 C   0  0  0  0  0  0  0  0  0  0  0  0
   39.0480   33.6570   40.1910 C   0  0  0  0  0  0  0  0  0  0  0  0
   40.3030   32.9960   39.7700 C   0  0  2  0  0  0  0  0  0  0  0  0
   42.4440   34.4400   41.2390 C   0  0  1  0  0  0  0  0  0  0  0  0
   41.5880   35.6850   40.8830 C   0  0  0  0  0  0  0  0  0  0  0  0
   42.0430   34.7540   39.9000 C   0  0  2  0  0  0  0  0  0  0  0  0
   46.1220   34.6500   41.3630 C   0  0  0  0  0  0  0  0  0  0  0  0
   46.3540   35.2350   42.6250 C   0  0  0  0  0  0  0  0  0  0  0  0
   45.2080   35.5740   43.4230 C   0  0  0  0  0  0  0  0  0  0  0  0
   43.9770   35.3130   42.9170 N   0  0  0  0  0  0  0  0  0  0  0  0
   43.8140   34.7560   41.7150 C   0  0  0  0  0  0  0  0  0  0  0  0
   44.8720   34.4140   40.9130 N   0  0  0  0  0  0  0  0  0  0  0  0
   47.3030   34.2930   40.5540 C   0  0  0  0  0  0  0  0  0  0  0  0
   40.8920   32.0220   40.6890 C   0  0  0  0  0  0  0  0  0  0  0  0
   42.0800   31.1630   40.4680 C   0  0  0  0  0  0  0  0  0  0  0  0
   42.1300   30.2110   42.1030 S   0  0  0  0  0  0  0  0  0  0  0  0
   40.5990   31.1360   42.7180 C   0  0  0  0  0  0  0  0  0  0  0  0
   40.3080   31.8530   41.8610 N   0  0  0  0  0  0  0  0  0  0  0  0
   41.8328   33.2932   38.4282 H   0  0  0  0  0  0  0  0  0  0  0  0
   40.0095   35.6864   38.7549 H   0  0  0  0  0  0  0  0  0  0  0  0
   40.8360   35.0130   37.2646 H   0  0  0  0  0  0  0  0  0  0  0  0
   38.4357   34.8220   37.0817 H   0  0  0  0  0  0  0  0  0  0  0  0
   39.2290   33.2088   37.1894 H   0  0  0  0  0  0  0  0  0  0  0  0
   37.4074   34.5925   39.0915 H   0  0  0  0  0  0  0  0  0  0  0  0
   37.6273   32.8410   38.7468 H   0  0  0  0  0  0  0  0  0  0  0  0
   39.2680   34.6519   40.6054 H   0  0  0  0  0  0  0  0  0  0  0  0
   38.5404   33.0667   40.9681 H   0  0  0  0  0  0  0  0  0  0  0  0
   40.0402   32.2349   39.0206 H   0  0  0  0  0  0  0  0  0  0  0  0
   42.3767   33.5335   41.8585 H   0  0  0  0  0  0  0  0  0  0  0  0
   40.5243   35.7278   41.1600 H   0  0  0  0  0  0  0  0  0  0  0  0
   41.6624   36.7709   41.0419 H   0  0  0  0  0  0  0  0  0  0  0  0
   42.6072   34.8720   38.9631 H   0  0  0  0  0  0  0  0  0  0  0  0
   47.3757   35.4250   42.9857 H   0  0  0  0  0  0  0  0  0  0  0  0
   45.3258   36.0322   44.4161 H   0  0  0  0  0  0  0  0  0  0  0  0
   48.1409   34.0397   41.2202 H   0  0  0  0  0  0  0  0  0  0  0  0
   47.0645   33.4268   39.9193 H   0  0  0  0  0  0  0  0  0  0  0  0
   47.5842   35.1463   39.9193 H   0  0  0  0  0  0  0  0  0  0  0  0
   42.7472   31.0972   39.5959 H   0  0  0  0  0  0  0  0  0  0  0  0
   40.0928   31.0162   43.6873 H   0  0  0  0  0  0  0  0  0  0  0  0
  1  6  1  0
  1  9  1  0
  2  1  1  0
  3  2  1  0
  3  4  1  0
  4  5  1  0
  6  5  1  0
  6 17  1  0
  7 14  1  0
  8  7  1  0
  9  8  1  0
  9  7  1  0
 10 11  2  0
 11 12  1  0
 13 12  2  0
 14 13  1  0
 15 10  1  0
 15 14  2  0
 16 10  1  0
 17 21  1  0
 18 17  2  0
 18 19  1  0
 19 20  1  0
 21 20  2  0
  1 22  1  6
  2 23  1  0
  2 24  1  0
  3 25  1  0
  3 26  1  0
  4 27  1  0
  4 28  1  0
  5 29  1  0
  5 30  1  0
  6 31  1  6
  7 32  1  1
  8 33  1  0
  8 34  1  0
  9 35  1  6
 11 36  1  0
 12 37  1  0
 16 38  1  0
 16 39  1  0
 16 40  1  0
 18 41  1  0
 20 42  1  0
M  ISO  8  22  13  23  13  24  13  25  13  26  13  27  13  28  13  29  13
M  ISO  8  30  13  31  13  32  13  33  13  34  13  35  13  36  14  37  14
M  ISO  5  38   8  39   8  40   8  41  14  42  14
M  END
>  <minimizedAffinity>  (1) 
-5.87038374

>  <minimizedRMSD>  (1) 
0.0515531786

$$$$
