
     RDKit          3D

 51 54  0  0  1  0  0  0  0  0999 V2000
   41.1660   33.8430   39.0920 C   0  0  2  0  0  0  0  0  0  0  0  0
   40.2580   34.7150   38.2460 C   0  0  0  0  0  0  0  0  0  0  0  0
   38.9790   34.0430   37.8490 C   0  0  0  0  0  0  0  0  0  0  0  0
   38.1680   33.7320   39.0800 C   0  0  0  0  0  0  0  0  0  0  0  0
   39.0890   33.6780   40.3250 C   0  0  0  0  0  0  0  0  0  0  0  0
   40.3330   32.9920   39.9260 C   0  0  2  0  0  0  0  0  0  0  0  0
   42.4620   34.5120   41.2830 C   0  0  1  0  0  0  0  0  0  0  0  0
   41.6820   35.7600   40.7900 C   0  0  0  0  0  0  0  0  0  0  0  0
   42.0980   34.7170   39.9050 C   0  0  2  0  0  0  0  0  0  0  0  0
   46.1380   34.6760   41.3830 C   0  0  0  0  0  0  0  0  0  0  0  0
   46.3990   35.2560   42.6290 C   0  0  0  0  0  0  0  0  0  0  0  0
   45.2710   35.6100   43.4440 C   0  0  0  0  0  0  0  0  0  0  0  0
   44.0320   35.3590   42.9510 N   0  0  0  0  0  0  0  0  0  0  0  0
   43.8440   34.8040   41.7560 C   0  0  0  0  0  0  0  0  0  0  0  0
   44.8850   34.4470   40.9380 N   0  0  0  0  0  0  0  0  0  0  0  0
   47.3100   34.2950   40.5490 C   0  0  0  0  0  0  0  0  0  0  0  0
   40.9580   32.1660   40.9220 N   0  0  0  0  0  0  0  0  0  0  0  0
   40.0890   31.9830   42.0430 C   0  0  0  0  0  0  0  0  0  0  0  0
   40.4860   30.7250   42.8250 C   0  0  0  0  0  0  0  0  0  0  0  0
   40.1300   29.4850   42.0480 C   0  0  0  0  0  0  0  0  0  0  0  0
   40.1930   29.8440   40.5790 C   0  0  0  0  0  0  0  0  0  0  0  0
   41.2830   30.8780   40.3730 C   0  0  0  0  0  0  0  0  0  0  0  0
   41.7984   33.1987   38.4636 H   0  0  0  0  0  0  0  0  0  0  0  0
   40.0113   35.6201   38.8205 H   0  0  0  0  0  0  0  0  0  0  0  0
   40.8034   34.9433   37.3184 H   0  0  0  0  0  0  0  0  0  0  0  0
   38.4037   34.7106   37.1907 H   0  0  0  0  0  0  0  0  0  0  0  0
   39.2077   33.1081   37.3165 H   0  0  0  0  0  0  0  0  0  0  0  0
   37.4087   34.5150   39.2228 H   0  0  0  0  0  0  0  0  0  0  0  0
   37.6788   32.7552   38.9515 H   0  0  0  0  0  0  0  0  0  0  0  0
   39.3161   34.6979   40.6689 H   0  0  0  0  0  0  0  0  0  0  0  0
   38.5966   33.1402   41.1486 H   0  0  0  0  0  0  0  0  0  0  0  0
   40.0481   32.1704   39.2523 H   0  0  0  0  0  0  0  0  0  0  0  0
   42.3356   33.6744   41.9847 H   0  0  0  0  0  0  0  0  0  0  0  0
   40.6183   35.8863   41.0403 H   0  0  0  0  0  0  0  0  0  0  0  0
   41.8153   36.8504   40.8467 H   0  0  0  0  0  0  0  0  0  0  0  0
   42.6836   34.7080   38.9739 H   0  0  0  0  0  0  0  0  0  0  0  0
   47.4291   35.4341   42.9714 H   0  0  0  0  0  0  0  0  0  0  0  0
   45.4067   36.0691   44.4344 H   0  0  0  0  0  0  0  0  0  0  0  0
   48.1516   34.0214   41.2024 H   0  0  0  0  0  0  0  0  0  0  0  0
   47.0447   33.4368   39.9140 H   0  0  0  0  0  0  0  0  0  0  0  0
   47.6001   35.1451   39.9140 H   0  0  0  0  0  0  0  0  0  0  0  0
   40.1607   32.8590   42.7044 H   0  0  0  0  0  0  0  0  0  0  0  0
   39.0569   31.8678   41.6803 H   0  0  0  0  0  0  0  0  0  0  0  0
   41.5708   30.7392   43.0064 H   0  0  0  0  0  0  0  0  0  0  0  0
   39.9411   30.7141   43.7805 H   0  0  0  0  0  0  0  0  0  0  0  0
   40.8476   28.6816   42.2708 H   0  0  0  0  0  0  0  0  0  0  0  0
   39.1256   29.1285   42.3202 H   0  0  0  0  0  0  0  0  0  0  0  0
   40.4209   28.9444   39.9884 H   0  0  0  0  0  0  0  0  0  0  0  0
   39.2251   30.2524   40.2530 H   0  0  0  0  0  0  0  0  0  0  0  0
   42.2031   30.5156   40.8547 H   0  0  0  0  0  0  0  0  0  0  0  0
   41.4061   31.0088   39.2878 H   0  0  0  0  0  0  0  0  0  0  0  0
  1  9  1  0
  1  6  1  0
  2  1  1  0
  3  2  1  0
  3  4  1  0
  4  5  1  0
  6  5  1  0
  6 17  1  0
  7 14  1  0
  8  7  1  0
  9  8  1  0
  9  7  1  0
 10 11  2  0
 11 12  1  0
 13 12  2  0
 14 13  1  0
 15 10  1  0
 15 14  2  0
 16 10  1  0
 17 18  1  0
 18 19  1  0
 20 19  1  0
 21 20  1  0
 22 21  1  0
 22 17  1  0
  1 23  1  6
  2 24  1  0
  2 25  1  0
  3 26  1  0
  3 27  1  0
  4 28  1  0
  4 29  1  0
  5 30  1  0
  5 31  1  0
  6 32  1  6
  7 33  1  1
  8 34  1  0
  8 35  1  0
  9 36  1  6
 11 37  1  0
 12 38  1  0
 16 39  1  0
 16 40  1  0
 16 41  1  0
 18 42  1  0
 18 43  1  0
 19 44  1  0
 19 45  1  0
 20 46  1  0
 20 47  1  0
 21 48  1  0
 21 49  1  0
 22 50  1  0
 22 51  1  0
M  ISO  8  23  13  24  13  25  13  26  13  27  13  28  13  29  13  30  13
M  ISO  8  31  13  32  13  33  13  34  13  35  13  36  13  37  14  38  14
M  ISO  8  39   8  40   8  41   8  42  13  43  13  44  13  45  13  46  13
M  ISO  5  47  13  48  13  49  13  50  13  51  13
M  END
>  <minimizedAffinity>  (1) 
-6.06823111

>  <minimizedRMSD>  (1) 
0.203284189

$$$$
