
     RDKit          3D

 43 46  0  0  1  0  0  0  0  0999 V2000
   41.0710   33.8410   39.1700 C   0  0  2  0  0  0  0  0  0  0  0  0
   40.2760   34.6950   38.2150 C   0  0  0  0  0  0  0  0  0  0  0  0
   38.9760   34.0860   37.7930 C   0  0  0  0  0  0  0  0  0  0  0  0
   38.1090   33.8150   38.9790 C   0  0  0  0  0  0  0  0  0  0  0  0
   38.9290   33.8810   40.2780 C   0  0  0  0  0  0  0  0  0  0  0  0
   40.1550   33.0910   40.0360 C   0  0  1  0  0  0  0  0  0  0  0  0
   42.4290   34.4620   41.3350 C   0  0  1  0  0  0  0  0  0  0  0  0
   41.5990   35.7070   40.9220 C   0  0  0  0  0  0  0  0  0  0  0  0
   42.0140   34.7210   39.9730 C   0  0  2  0  0  0  0  0  0  0  0  0
   46.1030   34.6400   41.3540 C   0  0  0  0  0  0  0  0  0  0  0  0
   46.3840   35.2280   42.5980 C   0  0  0  0  0  0  0  0  0  0  0  0
   45.2730   35.5850   43.4360 C   0  0  0  0  0  0  0  0  0  0  0  0
   44.0210   35.3310   42.9770 N   0  0  0  0  0  0  0  0  0  0  0  0
   43.8080   34.7690   41.7840 C   0  0  0  0  0  0  0  0  0  0  0  0
   44.8360   34.4130   40.9480 N   0  0  0  0  0  0  0  0  0  0  0  0
   47.2500   34.2650   40.5170 C   0  0  0  0  0  0  0  0  0  0  0  0
   39.7850   31.7980   39.4800 N   0  0  0  0  0  0  0  0  0  0  0  0
   38.8350   31.0910   40.1650 C   0  0  0  0  0  0  0  0  0  0  0  0
   38.6000   29.8950   39.5180 C   0  0  0  0  0  0  0  0  0  0  0  0
   39.4070   29.8820   38.4430 N   0  0  0  0  0  0  0  0  0  0  0  0
   40.1140   31.0250   38.4290 C   0  0  0  0  0  0  0  0  0  0  0  0
   41.6800   33.1136   38.6132 H   0  0  0  0  0  0  0  0  0  0  0  0
   40.0647   35.6570   38.7048 H   0  0  0  0  0  0  0  0  0  0  0  0
   40.8850   34.8078   37.3059 H   0  0  0  0  0  0  0  0  0  0  0  0
   38.4554   34.7795   37.1163 H   0  0  0  0  0  0  0  0  0  0  0  0
   39.1815   33.1344   37.2809 H   0  0  0  0  0  0  0  0  0  0  0  0
   37.3072   34.5670   39.0195 H   0  0  0  0  0  0  0  0  0  0  0  0
   37.6815   32.8062   38.8815 H   0  0  0  0  0  0  0  0  0  0  0  0
   39.1882   34.9241   40.5121 H   0  0  0  0  0  0  0  0  0  0  0  0
   38.3593   33.4834   41.1308 H   0  0  0  0  0  0  0  0  0  0  0  0
   40.6904   32.9077   40.9793 H   0  0  0  0  0  0  0  0  0  0  0  0
   42.3491   33.5890   41.9995 H   0  0  0  0  0  0  0  0  0  0  0  0
   40.5407   35.7901   41.2104 H   0  0  0  0  0  0  0  0  0  0  0  0
   41.7046   36.7970   41.0262 H   0  0  0  0  0  0  0  0  0  0  0  0
   42.5650   34.7816   39.0229 H   0  0  0  0  0  0  0  0  0  0  0  0
   47.4201   35.4092   42.9200 H   0  0  0  0  0  0  0  0  0  0  0  0
   45.4321   36.0502   44.4200 H   0  0  0  0  0  0  0  0  0  0  0  0
   48.0982   33.9877   41.1602 H   0  0  0  0  0  0  0  0  0  0  0  0
   46.9764   33.4095   39.8819 H   0  0  0  0  0  0  0  0  0  0  0  0
   47.5346   35.1169   39.8819 H   0  0  0  0  0  0  0  0  0  0  0  0
   38.3364   31.4238   41.0873 H   0  0  0  0  0  0  0  0  0  0  0  0
   37.8931   29.1088   39.8215 H   0  0  0  0  0  0  0  0  0  0  0  0
   40.8584   31.2916   37.6643 H   0  0  0  0  0  0  0  0  0  0  0  0
  1  9  1  0
  1  6  1  0
  2  1  1  0
  3  2  1  0
  3  4  1  0
  4  5  1  0
  6  5  1  0
  7 14  1  0
  8  7  1  0
  9  8  1  0
  9  7  1  0
 10 11  2  0
 11 12  1  0
 13 12  2  0
 14 13  1  0
 15 10  1  0
 15 14  2  0
 16 10  1  0
 17  6  1  0
 17 18  1  0
 19 18  2  0
 20 19  1  0
 21 20  2  0
 21 17  1  0
  1 22  1  6
  2 23  1  0
  2 24  1  0
  3 25  1  0
  3 26  1  0
  4 27  1  0
  4 28  1  0
  5 29  1  0
  5 30  1  0
  6 31  1  1
  7 32  1  1
  8 33  1  0
  8 34  1  0
  9 35  1  6
 11 36  1  0
 12 37  1  0
 16 38  1  0
 16 39  1  0
 16 40  1  0
 18 41  1  0
 19 42  1  0
 21 43  1  0
M  ISO  8  22  13  23  13  24  13  25  13  26  13  27  13  28  13  29  13
M  ISO  8  30  13  31  13  32  13  33  13  34  13  35  13  36  14  37  14
M  ISO  6  38   8  39   8  40   8  41  14  42  14  43  14
M  END
>  <minimizedAffinity>  (1) 
-5.69044304

>  <minimizedRMSD>  (1) 
0.551985443

$$$$
