
     RDKit          3D

 48 50  0  0  1  0  0  0  0  0999 V2000
   41.0740   33.4870   39.4310 C   0  0  2  0  0  0  0  0  0  0  0  0
   40.5480   34.0770   38.1510 C   0  0  0  0  0  0  0  0  0  0  0  0
   39.1870   33.5990   37.7670 C   0  0  0  0  0  0  0  0  0  0  0  0
   38.2100   33.9860   38.8310 C   0  0  0  0  0  0  0  0  0  0  0  0
   38.8940   34.2190   40.1590 C   0  0  0  0  0  0  0  0  0  0  0  0
   39.9750   33.2590   40.3670 C   0  0  1  0  0  0  0  0  0  0  0  0
   42.5350   34.4720   41.3940 C   0  0  1  0  0  0  0  0  0  0  0  0
   41.8090   35.6500   40.7040 C   0  0  0  0  0  0  0  0  0  0  0  0
   42.1150   34.4200   40.0310 C   0  0  2  0  0  0  0  0  0  0  0  0
   46.2120   34.5460   41.1840 C   0  0  0  0  0  0  0  0  0  0  0  0
   46.5770   35.1100   42.4240 C   0  0  0  0  0  0  0  0  0  0  0  0
   45.5400   35.4840   43.3120 C   0  0  0  0  0  0  0  0  0  0  0  0
   44.2500   35.2770   42.9190 N   0  0  0  0  0  0  0  0  0  0  0  0
   43.9550   34.7400   41.7340 C   0  0  0  0  0  0  0  0  0  0  0  0
   44.9250   34.3630   40.8400 N   0  0  0  0  0  0  0  0  0  0  0  0
   47.3010   34.1520   40.2690 C   0  0  0  0  0  0  0  0  0  0  0  0
   39.6630   31.8770   40.7990 C   0  0  0  0  0  0  0  0  0  0  0  0
   38.2120   31.5810   41.0660 C   0  0  0  0  0  0  0  0  0  0  0  0
   40.3210   31.5480   42.1630 C   0  0  0  0  0  0  0  0  0  0  0  0
   40.2020   30.7660   39.9350 C   0  0  0  0  0  0  0  0  0  0  0  0
   41.5501   32.5178   39.2211 H   0  0  0  0  0  0  0  0  0  0  0  0
   40.5092   35.1703   38.2662 H   0  0  0  0  0  0  0  0  0  0  0  0
   41.2317   33.7548   37.3518 H   0  0  0  0  0  0  0  0  0  0  0  0
   38.8918   34.0584   36.8121 H   0  0  0  0  0  0  0  0  0  0  0  0
   39.1979   32.5046   37.6565 H   0  0  0  0  0  0  0  0  0  0  0  0
   37.6985   34.9109   38.5262 H   0  0  0  0  0  0  0  0  0  0  0  0
   37.4924   33.1615   38.9545 H   0  0  0  0  0  0  0  0  0  0  0  0
   39.3093   35.2375   40.1759 H   0  0  0  0  0  0  0  0  0  0  0  0
   38.1529   34.0914   40.9618 H   0  0  0  0  0  0  0  0  0  0  0  0
   40.3774   33.5015   41.3616 H   0  0  0  0  0  0  0  0  0  0  0  0
   42.3931   33.8050   42.2571 H   0  0  0  0  0  0  0  0  0  0  0  0
   40.7705   35.8976   40.9690 H   0  0  0  0  0  0  0  0  0  0  0  0
   42.0093   36.7186   40.5367 H   0  0  0  0  0  0  0  0  0  0  0  0
   42.6564   34.1685   39.1070 H   0  0  0  0  0  0  0  0  0  0  0  0
   47.6339   35.2547   42.6926 H   0  0  0  0  0  0  0  0  0  0  0  0
   45.7679   35.9292   44.2917 H   0  0  0  0  0  0  0  0  0  0  0  0
   48.1761   33.8354   40.8554 H   0  0  0  0  0  0  0  0  0  0  0  0
   46.9637   33.3189   39.6348 H   0  0  0  0  0  0  0  0  0  0  0  0
   47.5748   35.0081   39.6348 H   0  0  0  0  0  0  0  0  0  0  0  0
   38.0387   31.5457   42.1517 H   0  0  0  0  0  0  0  0  0  0  0  0
   37.5888   32.3705   40.6207 H   0  0  0  0  0  0  0  0  0  0  0  0
   37.9478   30.6105   40.6207 H   0  0  0  0  0  0  0  0  0  0  0  0
   39.6603   31.8784   42.9780 H   0  0  0  0  0  0  0  0  0  0  0  0
   40.4832   30.4627   42.2396 H   0  0  0  0  0  0  0  0  0  0  0  0
   41.2866   32.0694   42.2396 H   0  0  0  0  0  0  0  0  0  0  0  0
   40.5927   29.9608   40.5745 H   0  0  0  0  0  0  0  0  0  0  0  0
   39.3953   30.3711   39.2999 H   0  0  0  0  0  0  0  0  0  0  0  0
   41.0114   31.1552   39.2999 H   0  0  0  0  0  0  0  0  0  0  0  0
  1  9  1  0
  1  6  1  0
  2  1  1  0
  3  2  1  0
  3  4  1  0
  4  5  1  0
  5  6  1  0
  6 17  1  0
  7 14  1  0
  8  7  1  0
  9  8  1  0
  9  7  1  0
 10 11  2  0
 11 12  1  0
 13 12  2  0
 14 13  1  0
 15 10  1  0
 15 14  2  0
 16 10  1  0
 17 18  1  0
 17 19  1  0
 20 17  1  0
  1 21  1  6
  2 22  1  0
  2 23  1  0
  3 24  1  0
  3 25  1  0
  4 26  1  0
  4 27  1  0
  5 28  1  0
  5 29  1  0
  6 30  1  1
  7 31  1  1
  8 32  1  0
  8 33  1  0
  9 34  1  6
 11 35  1  0
 12 36  1  0
 16 37  1  0
 16 38  1  0
 16 39  1  0
 18 40  1  0
 18 41  1  0
 18 42  1  0
 19 43  1  0
 19 44  1  0
 19 45  1  0
 20 46  1  0
 20 47  1  0
 20 48  1  0
M  ISO  8  21  13  22  13  23  13  24  13  25  13  26  13  27  13  28  13
M  ISO  8  29  13  30  13  31  13  32  13  33  13  34  13  35  14  36  14
M  ISO  8  37   8  38   8  39   8  40   8  41   8  42   8  43   8  44   8
M  ISO  4  45   8  46   8  47   8  48   8
M  END
>  <minimizedAffinity>  (1) 
-5.71336365

>  <minimizedRMSD>  (1) 
0.954736352

$$$$
