
     RDKit          3D

 43 46  0  0  1  0  0  0  0  0999 V2000
   41.0850   33.8220   39.1950 C   0  0  2  0  0  0  0  0  0  0  0  0
   40.3280   34.6550   38.2120 C   0  0  0  0  0  0  0  0  0  0  0  0
   38.9990   34.1220   37.7950 C   0  0  0  0  0  0  0  0  0  0  0  0
   38.1210   33.8570   38.9770 C   0  0  0  0  0  0  0  0  0  0  0  0
   38.9230   33.8990   40.2730 C   0  0  0  0  0  0  0  0  0  0  0  0
   40.1350   33.1340   40.0900 C   0  0  1  0  0  0  0  0  0  0  0  0
   42.4310   34.4690   41.3660 C   0  0  1  0  0  0  0  0  0  0  0  0
   41.6190   35.7160   40.9250 C   0  0  0  0  0  0  0  0  0  0  0  0
   42.0320   34.7060   39.9950 C   0  0  2  0  0  0  0  0  0  0  0  0
   46.1060   34.6630   41.3760 C   0  0  0  0  0  0  0  0  0  0  0  0
   46.3860   35.2610   42.6260 C   0  0  0  0  0  0  0  0  0  0  0  0
   45.2870   35.6070   43.4490 C   0  0  0  0  0  0  0  0  0  0  0  0
   44.0360   35.3470   42.9940 N   0  0  0  0  0  0  0  0  0  0  0  0
   43.8250   34.7760   41.7960 C   0  0  0  0  0  0  0  0  0  0  0  0
   44.8500   34.4230   40.9620 N   0  0  0  0  0  0  0  0  0  0  0  0
   47.2620   34.2860   40.5200 C   0  0  0  0  0  0  0  0  0  0  0  0
   39.8800   31.7610   39.5990 C   0  0  0  0  0  0  0  0  0  0  0  0
   39.0400   30.9110   40.3470 C   0  0  0  0  0  0  0  0  0  0  0  0
   38.8920   29.6490   39.7430 C   0  0  0  0  0  0  0  0  0  0  0  0
   39.6650   29.8310   38.6590 N   0  0  0  0  0  0  0  0  0  0  0  0
   40.2230   31.0120   38.5690 N   0  0  0  0  0  0  0  0  0  0  0  0
   41.6797   33.0661   38.6613 H   0  0  0  0  0  0  0  0  0  0  0  0
   40.1678   35.6457   38.6623 H   0  0  0  0  0  0  0  0  0  0  0  0
   40.9423   34.6714   37.2996 H   0  0  0  0  0  0  0  0  0  0  0  0
   38.5073   34.8580   37.1419 H   0  0  0  0  0  0  0  0  0  0  0  0
   39.1586   33.1726   37.2629 H   0  0  0  0  0  0  0  0  0  0  0  0
   37.3315   34.6219   39.0175 H   0  0  0  0  0  0  0  0  0  0  0  0
   37.6809   32.8546   38.8693 H   0  0  0  0  0  0  0  0  0  0  0  0
   39.1760   34.9409   40.5187 H   0  0  0  0  0  0  0  0  0  0  0  0
   38.3302   33.4728   41.0958 H   0  0  0  0  0  0  0  0  0  0  0  0
   40.5871   33.0500   41.0893 H   0  0  0  0  0  0  0  0  0  0  0  0
   42.3318   33.6151   42.0523 H   0  0  0  0  0  0  0  0  0  0  0  0
   40.5594   35.8161   41.2027 H   0  0  0  0  0  0  0  0  0  0  0  0
   41.7360   36.8064   41.0112 H   0  0  0  0  0  0  0  0  0  0  0  0
   42.5925   34.7412   39.0492 H   0  0  0  0  0  0  0  0  0  0  0  0
   47.4206   35.4507   42.9478 H   0  0  0  0  0  0  0  0  0  0  0  0
   45.4438   36.0747   44.4322 H   0  0  0  0  0  0  0  0  0  0  0  0
   48.1146   34.0079   41.1570 H   0  0  0  0  0  0  0  0  0  0  0  0
   46.9848   33.4317   39.8849 H   0  0  0  0  0  0  0  0  0  0  0  0
   47.5417   35.1395   39.8849 H   0  0  0  0  0  0  0  0  0  0  0  0
   38.5570   31.2005   41.2919 H   0  0  0  0  0  0  0  0  0  0  0  0
   38.3130   28.7705   40.0641 H   0  0  0  0  0  0  0  0  0  0  0  0
   39.8079   29.0961   37.9516 H   0  0  0  0  0  0  0  0  0  0  0  0
  1  9  1  0
  1  6  1  0
  2  1  1  0
  3  2  1  0
  3  4  1  0
  4  5  1  0
  6  5  1  0
  7 14  1  0
  8  7  1  0
  9  8  1  0
  9  7  1  0
 10 11  2  0
 11 12  1  0
 13 12  2  0
 14 13  1  0
 15 10  1  0
 15 14  2  0
 16 10  1  0
 17  6  1  0
 17 18  1  0
 19 18  2  0
 20 19  1  0
 21 20  1  0
 21 17  2  0
  1 22  1  6
  2 23  1  0
  2 24  1  0
  3 25  1  0
  3 26  1  0
  4 27  1  0
  4 28  1  0
  5 29  1  0
  5 30  1  0
  6 31  1  1
  7 32  1  1
  8 33  1  0
  8 34  1  0
  9 35  1  6
 11 36  1  0
 12 37  1  0
 16 38  1  0
 16 39  1  0
 16 40  1  0
 18 41  1  0
 19 42  1  0
 20 43  1  0
M  ISO  8  22  13  23  13  24  13  25  13  26  13  27  13  28  13  29  13
M  ISO  8  30  13  31  13  32  13  33  13  34  13  35  13  36  14  37  14
M  ISO  6  38   8  39   8  40   8  41  14  42  14  43   9
M  END
>  <minimizedAffinity>  (1) 
-5.68738079

>  <minimizedRMSD>  (1) 
0.585345507

$$$$
