
     RDKit          3D

 43 46  0  0  1  0  0  0  0  0999 V2000
   41.1270   33.9130   39.0230 C   0  0  2  0  0  0  0  0  0  0  0  0
   40.2810   34.7850   38.1480 C   0  0  0  0  0  0  0  0  0  0  0  0
   38.9770   34.2080   37.7210 C   0  0  0  0  0  0  0  0  0  0  0  0
   38.1750   33.7080   38.8860 C   0  0  0  0  0  0  0  0  0  0  0  0
   39.0050   33.7350   40.1600 C   0  0  0  0  0  0  0  0  0  0  0  0
   40.2770   33.0380   39.8250 C   0  0  1  0  0  0  0  0  0  0  0  0
   42.4460   34.4330   41.2370 C   0  0  1  0  0  0  0  0  0  0  0  0
   41.5840   35.6800   40.9040 C   0  0  0  0  0  0  0  0  0  0  0  0
   42.0340   34.7710   39.8900 C   0  0  2  0  0  0  0  0  0  0  0  0
   46.1190   34.6490   41.3390 C   0  0  0  0  0  0  0  0  0  0  0  0
   46.3600   35.2490   42.5990 C   0  0  0  0  0  0  0  0  0  0  0  0
   45.2370   35.5880   43.4000 C   0  0  0  0  0  0  0  0  0  0  0  0
   43.9900   35.3200   42.9140 N   0  0  0  0  0  0  0  0  0  0  0  0
   43.8140   34.7530   41.7170 C   0  0  0  0  0  0  0  0  0  0  0  0
   44.8650   34.4050   40.9030 N   0  0  0  0  0  0  0  0  0  0  0  0
   47.2940   34.2880   40.5370 C   0  0  0  0  0  0  0  0  0  0  0  0
   40.0260   31.7580   39.1240 C   0  0  0  0  0  0  0  0  0  0  0  0
   39.3070   30.7430   39.7790 C   0  0  0  0  0  0  0  0  0  0  0  0
   39.1860   29.6270   38.9960 N   0  0  0  0  0  0  0  0  0  0  0  0
   39.8300   29.9310   37.8380 C   0  0  0  0  0  0  0  0  0  0  0  0
   40.3100   31.1810   37.9430 N   0  0  0  0  0  0  0  0  0  0  0  0
   41.7692   33.2744   38.3986 H   0  0  0  0  0  0  0  0  0  0  0  0
   40.0741   35.7149   38.6981 H   0  0  0  0  0  0  0  0  0  0  0  0
   40.8594   34.9295   37.2236 H   0  0  0  0  0  0  0  0  0  0  0  0
   38.3988   34.9848   37.1991 H   0  0  0  0  0  0  0  0  0  0  0  0
   39.1839   33.3539   37.0594 H   0  0  0  0  0  0  0  0  0  0  0  0
   37.2906   34.3488   39.0174 H   0  0  0  0  0  0  0  0  0  0  0  0
   37.8680   32.6709   38.6854 H   0  0  0  0  0  0  0  0  0  0  0  0
   39.2049   34.7725   40.4659 H   0  0  0  0  0  0  0  0  0  0  0  0
   38.4823   33.2477   40.9963 H   0  0  0  0  0  0  0  0  0  0  0  0
   40.7971   32.7988   40.7643 H   0  0  0  0  0  0  0  0  0  0  0  0
   42.3861   33.5145   41.8393 H   0  0  0  0  0  0  0  0  0  0  0  0
   40.5220   35.7137   41.1886 H   0  0  0  0  0  0  0  0  0  0  0  0
   41.6581   36.7627   41.0839 H   0  0  0  0  0  0  0  0  0  0  0  0
   42.5860   34.9156   38.9496 H   0  0  0  0  0  0  0  0  0  0  0  0
   47.3848   35.4463   42.9465 H   0  0  0  0  0  0  0  0  0  0  0  0
   45.3690   36.0548   44.3872 H   0  0  0  0  0  0  0  0  0  0  0  0
   48.1292   34.0314   41.2052 H   0  0  0  0  0  0  0  0  0  0  0  0
   47.0529   33.4225   39.9024 H   0  0  0  0  0  0  0  0  0  0  0  0
   47.5805   35.1396   39.9024 H   0  0  0  0  0  0  0  0  0  0  0  0
   38.8933   30.8343   40.7941 H   0  0  0  0  0  0  0  0  0  0  0  0
   39.9390   29.2685   36.9667 H   0  0  0  0  0  0  0  0  0  0  0  0
   40.8413   31.6497   37.1954 H   0  0  0  0  0  0  0  0  0  0  0  0
  1  6  1  0
  1  9  1  0
  2  1  1  0
  3  2  1  0
  3  4  1  0
  4  5  1  0
  6  5  1  0
  7 14  1  0
  8  7  1  0
  9  8  1  0
  9  7  1  0
 10 11  2  0
 11 12  1  0
 13 12  2  0
 14 13  1  0
 15 10  1  0
 15 14  2  0
 16 10  1  0
 17 18  2  0
 17  6  1  0
 19 18  1  0
 20 21  1  0
 20 19  2  0
 21 17  1  0
  1 22  1  6
  2 23  1  0
  2 24  1  0
  3 25  1  0
  3 26  1  0
  4 27  1  0
  4 28  1  0
  5 29  1  0
  5 30  1  0
  6 31  1  1
  7 32  1  1
  8 33  1  0
  8 34  1  0
  9 35  1  6
 11 36  1  0
 12 37  1  0
 16 38  1  0
 16 39  1  0
 16 40  1  0
 18 41  1  0
 20 42  1  0
 21 43  1  0
M  ISO  8  22  13  23  13  24  13  25  13  26  13  27  13  28  13  29  13
M  ISO  8  30  13  31  13  32  13  33  13  34  13  35  13  36  14  37  14
M  ISO  6  38   8  39   8  40   8  41  14  42  14  43   9
M  END
>  <minimizedAffinity>  (1) 
-5.68176079

>  <minimizedRMSD>  (1) 
0.479606241

$$$$
