
     RDKit          3D

 43 45  0  0  1  0  0  0  0  0999 V2000
   41.0400   33.0970   39.5240 C   0  0  2  0  0  0  0  0  0  0  0  0
   40.5510   33.2420   38.1020 C   0  0  0  0  0  0  0  0  0  0  0  0
   39.0920   32.8390   37.9850 C   0  0  0  0  0  0  0  0  0  0  0  0
   38.2670   33.8150   38.7770 C   0  0  0  0  0  0  0  0  0  0  0  0
   39.1010   34.4930   39.8860 C   0  0  0  0  0  0  0  0  0  0  0  0
   39.9610   33.4650   40.4610 C   0  0  1  0  0  0  0  0  0  0  0  0
   39.1600   32.2850   40.7460 N   0  0  0  0  0  0  0  0  0  0  0  0
   39.6450   31.3750   41.7560 C   0  0  0  0  0  0  0  0  0  0  0  0
   40.4800   31.8440   42.6470 N   0  0  0  0  0  0  0  0  0  0  0  0
   39.2000   30.0110   41.7430 N   0  0  0  0  0  0  0  0  0  0  0  0
   40.8050   31.1490   43.3560 H   0  0  0  0  0  0  0  0  0  0  0  0
   42.5390   34.7620   40.8990 C   0  0  1  0  0  0  0  0  0  0  0  0
   42.3280   35.3550   39.4810 C   0  0  0  0  0  0  0  0  0  0  0  0
   42.2770   33.9420   39.7290 C   0  0  2  0  0  0  0  0  0  0  0  0
   46.1900   34.3920   41.2120 C   0  0  0  0  0  0  0  0  0  0  0  0
   46.4850   35.1000   42.3820 C   0  0  0  0  0  0  0  0  0  0  0  0
   45.3920   35.7290   43.0670 C   0  0  0  0  0  0  0  0  0  0  0  0
   44.1470   35.6010   42.5410 N   0  0  0  0  0  0  0  0  0  0  0  0
   43.9210   34.9130   41.4190 C   0  0  0  0  0  0  0  0  0  0  0  0
   44.9300   34.2930   40.7270 N   0  0  0  0  0  0  0  0  0  0  0  0
   47.3190   33.7290   40.5130 C   0  0  0  0  0  0  0  0  0  0  0  0
   41.3141   32.0502   39.7217 H   0  0  0  0  0  0  0  0  0  0  0  0
   40.6608   34.2908   37.7890 H   0  0  0  0  0  0  0  0  0  0  0  0
   41.1497   32.5826   37.4564 H   0  0  0  0  0  0  0  0  0  0  0  0
   38.7834   32.8619   36.9294 H   0  0  0  0  0  0  0  0  0  0  0  0
   38.9484   31.8196   38.3727 H   0  0  0  0  0  0  0  0  0  0  0  0
   37.8793   34.5887   38.0980 H   0  0  0  0  0  0  0  0  0  0  0  0
   37.4433   33.2632   39.2536 H   0  0  0  0  0  0  0  0  0  0  0  0
   39.7124   35.3012   39.4583 H   0  0  0  0  0  0  0  0  0  0  0  0
   38.4485   34.9339   40.6540 H   0  0  0  0  0  0  0  0  0  0  0  0
   40.4138   33.8587   41.3829 H   0  0  0  0  0  0  0  0  0  0  0  0
   38.2782   32.1051   40.2450 H   0  0  0  0  0  0  0  0  0  0  0  0
   39.5388   29.3519   42.4583 H   0  0  0  0  0  0  0  0  0  0  0  0
   38.5417   29.6909   41.0184 H   0  0  0  0  0  0  0  0  0  0  0  0
   42.0891   34.8210   41.9011 H   0  0  0  0  0  0  0  0  0  0  0  0
   43.1740   35.7920   38.9303 H   0  0  0  0  0  0  0  0  0  0  0  0
   41.6582   36.1016   39.0295 H   0  0  0  0  0  0  0  0  0  0  0  0
   42.8024   33.0783   39.2953 H   0  0  0  0  0  0  0  0  0  0  0  0
   47.5147   35.1718   42.7621 H   0  0  0  0  0  0  0  0  0  0  0  0
   45.5584   36.2992   43.9928 H   0  0  0  0  0  0  0  0  0  0  0  0
   48.0191   33.3179   41.2552 H   0  0  0  0  0  0  0  0  0  0  0  0
   46.9325   32.9144   39.8829 H   0  0  0  0  0  0  0  0  0  0  0  0
   47.8421   34.4634   39.8829 H   0  0  0  0  0  0  0  0  0  0  0  0
  1 14  1  0
  1  6  1  0
  2  1  1  0
  3  2  1  0
  3  4  1  0
  4  5  1  0
  5  6  1  0
  6  7  1  0
  7  8  1  0
  8  9  2  0
  9 11  1  0
 10  8  1  0
 12 19  1  0
 13 14  1  0
 13 12  1  0
 14 12  1  0
 15 16  2  0
 16 17  1  0
 18 17  2  0
 19 18  1  0
 20 15  1  0
 20 19  2  0
 21 15  1  0
  1 22  1  1
  2 23  1  0
  2 24  1  0
  3 25  1  0
  3 26  1  0
  4 27  1  0
  4 28  1  0
  5 29  1  0
  5 30  1  0
  6 31  1  1
  7 32  1  0
 10 33  1  0
 10 34  1  0
 12 35  1  1
 13 36  1  0
 13 37  1  0
 14 38  1  6
 16 39  1  0
 17 40  1  0
 21 41  1  0
 21 42  1  0
 21 43  1  0
M  ISO  8  22  13  23  13  24  13  25  13  26  13  27  13  28  13  29  13
M  ISO  8  30  13  31  13  35  13  36  13  37  13  38  13  39  14  40  14
M  ISO  3  41   8  42   8  43   8
M  END
>  <minimizedAffinity>  (1) 
-5.73955059

>  <minimizedRMSD>  (1) 
2.13320756

$$$$
