
     RDKit          3D

 18 19  0  0  0  0  0  0  0  0999 V2000
   44.4700   35.9640   44.7490 C   0  0  0  0  0  0  0  0  0  0  0  0
   44.8730   35.7550   43.4250 C   0  0  0  0  0  0  0  0  0  0  0  0
   45.5890   34.6030   43.1180 C   0  0  0  0  0  0  0  0  0  0  0  0
   45.8660   33.7240   44.1370 N   0  0  0  0  0  0  0  0  0  0  0  0
   45.4590   33.9590   45.4130 C   0  0  0  0  0  0  0  0  0  0  0  0
   44.7710   35.0680   45.6990 N   0  0  0  0  0  0  0  0  0  0  0  0
   46.0570   34.2720   41.8130 N   0  0  0  0  0  0  0  0  0  0  0  0
   45.6070   33.5340   40.7930 C   0  0  0  0  0  0  0  0  0  0  0  0
   46.4650   33.5620   39.7680 N   0  0  0  0  0  0  0  0  0  0  0  0
   47.4880   34.3480   40.1690 C   0  0  0  0  0  0  0  0  0  0  0  0
   47.2420   34.7940   41.4390 N   0  0  0  0  0  0  0  0  0  0  0  0
   48.6930   34.7310   39.4720 N   0  0  0  0  0  0  0  0  0  0  0  0
   43.9028   36.8692   45.0113 H   0  0  0  0  0  0  0  0  0  0  0  0
   44.6280   36.4880   42.6422 H   0  0  0  0  0  0  0  0  0  0  0  0
   45.6958   33.2372   46.2085 H   0  0  0  0  0  0  0  0  0  0  0  0
   44.6578   32.9781   40.7966 H   0  0  0  0  0  0  0  0  0  0  0  0
   49.3797   35.3466   39.9307 H   0  0  0  0  0  0  0  0  0  0  0  0
   48.8659   34.3886   38.5161 H   0  0  0  0  0  0  0  0  0  0  0  0
  1  6  2  0
  2  1  1  0
  3  2  2  0
  3  4  1  0
  4  5  2  0
  5  6  1  0
  7  3  1  0
  8  7  1  0
  9 10  1  0
  9  8  2  0
 10 11  2  0
 11  7  1  0
 12 10  1  0
  1 13  1  0
  2 14  1  0
  5 15  1  0
  8 16  1  0
 12 17  1  0
 12 18  1  0
M  ISO  4  13  14  14  14  15  14  16  14
M  END
>  <minimizedAffinity>  (1) 
-4.0884676

>  <minimizedRMSD>  (1) 
0.943441033

$$$$
