
     RDKit          3D

 52 55  0  0  1  0  0  0  0  0999 V2000
   41.0720   33.1380   39.4230 C   0  0  2  0  0  0  0  0  0  0  0  0
   40.4550   33.4780   38.0870 C   0  0  0  0  0  0  0  0  0  0  0  0
   39.0150   33.0450   38.0010 C   0  0  0  0  0  0  0  0  0  0  0  0
   38.2200   33.7860   39.0180 C   0  0  0  0  0  0  0  0  0  0  0  0
   39.1090   34.3050   40.1430 C   0  0  0  0  0  0  0  0  0  0  0  0
   40.0750   33.2690   40.4820 C   0  0  1  0  0  0  0  0  0  0  0  0
   42.5310   34.7450   40.8890 C   0  0  1  0  0  0  0  0  0  0  0  0
   42.3370   35.3930   39.4760 C   0  0  0  0  0  0  0  0  0  0  0  0
   42.2810   34.0020   39.6880 C   0  0  2  0  0  0  0  0  0  0  0  0
   46.1830   34.3800   41.2100 C   0  0  0  0  0  0  0  0  0  0  0  0
   46.4680   35.0900   42.3890 C   0  0  0  0  0  0  0  0  0  0  0  0
   45.3810   35.7060   43.0640 C   0  0  0  0  0  0  0  0  0  0  0  0
   44.1340   35.5750   42.5370 N   0  0  0  0  0  0  0  0  0  0  0  0
   43.9230   34.8900   41.4180 C   0  0  0  0  0  0  0  0  0  0  0  0
   44.9280   34.2670   40.7090 N   0  0  0  0  0  0  0  0  0  0  0  0
   47.3230   33.7210   40.5000 C   0  0  0  0  0  0  0  0  0  0  0  0
   39.3800   31.9680   40.6760 C   0  0  0  0  0  0  0  0  0  0  0  0
   38.2810   31.6190   41.1310 O   0  0  0  0  0  0  0  0  0  0  0  0
   40.1870   30.9060   40.2260 O   0  0  0  0  0  0  0  0  0  0  0  0
   40.9180   30.0900   41.2380 C   0  0  0  0  0  0  0  0  0  0  0  0
   39.9950   28.9580   41.6100 C   0  0  0  0  0  0  0  0  0  0  0  0
   39.9320   28.9060   43.1170 C   0  0  0  0  0  0  0  0  0  0  0  0
   40.5350   30.1770   43.6400 C   0  0  0  0  0  0  0  0  0  0  0  0
   40.9890   30.9830   42.4420 C   0  0  0  0  0  0  0  0  0  0  0  0
   41.4140   32.0927   39.4040 H   0  0  0  0  0  0  0  0  0  0  0  0
   40.5074   34.5667   37.9390 H   0  0  0  0  0  0  0  0  0  0  0  0
   41.0169   32.9417   37.3082 H   0  0  0  0  0  0  0  0  0  0  0  0
   38.6240   33.2648   36.9966 H   0  0  0  0  0  0  0  0  0  0  0  0
   38.9420   31.9639   38.1905 H   0  0  0  0  0  0  0  0  0  0  0  0
   37.7217   34.6381   38.5325 H   0  0  0  0  0  0  0  0  0  0  0  0
   37.4789   33.0973   39.4497 H   0  0  0  0  0  0  0  0  0  0  0  0
   39.6372   35.2109   39.8110 H   0  0  0  0  0  0  0  0  0  0  0  0
   38.4977   34.5538   41.0230 H   0  0  0  0  0  0  0  0  0  0  0  0
   40.5805   33.5546   41.4163 H   0  0  0  0  0  0  0  0  0  0  0  0
   42.0744   34.7504   41.8898 H   0  0  0  0  0  0  0  0  0  0  0  0
   43.1905   35.8421   38.9470 H   0  0  0  0  0  0  0  0  0  0  0  0
   41.6767   36.1555   39.0371 H   0  0  0  0  0  0  0  0  0  0  0  0
   42.8122   33.1572   39.2253 H   0  0  0  0  0  0  0  0  0  0  0  0
   47.4954   35.1658   42.7747 H   0  0  0  0  0  0  0  0  0  0  0  0
   45.5436   36.2755   43.9909 H   0  0  0  0  0  0  0  0  0  0  0  0
   48.0285   33.3131   41.2388 H   0  0  0  0  0  0  0  0  0  0  0  0
   46.9399   32.9051   39.8696 H   0  0  0  0  0  0  0  0  0  0  0  0
   47.8388   34.4602   39.8696 H   0  0  0  0  0  0  0  0  0  0  0  0
   41.8977   29.7269   40.8940 H   0  0  0  0  0  0  0  0  0  0  0  0
   38.9916   29.1396   41.1975 H   0  0  0  0  0  0  0  0  0  0  0  0
   40.3642   28.0051   41.2029 H   0  0  0  0  0  0  0  0  0  0  0  0
   38.8856   28.8240   43.4462 H   0  0  0  0  0  0  0  0  0  0  0  0
   40.4819   28.0323   43.4969 H   0  0  0  0  0  0  0  0  0  0  0  0
   39.7848   30.7424   44.2123 H   0  0  0  0  0  0  0  0  0  0  0  0
   41.3812   29.9614   44.3090 H   0  0  0  0  0  0  0  0  0  0  0  0
   42.0227   31.3278   42.5923 H   0  0  0  0  0  0  0  0  0  0  0  0
   40.3467   31.8656   42.3056 H   0  0  0  0  0  0  0  0  0  0  0  0
  1  9  1  0
  1  6  1  0
  2  1  1  0
  3  2  1  0
  3  4  1  0
  4  5  1  0
  5  6  1  0
  6 17  1  0
  7 14  1  0
  8  9  1  0
  8  7  1  0
  9  7  1  0
 10 11  2  0
 11 12  1  0
 13 12  2  0
 14 13  1  0
 15 10  1  0
 15 14  2  0
 16 10  1  0
 17 18  2  0
 19 17  1  0
 19 20  1  0
 20 21  1  0
 20 24  1  0
 21 22  1  0
 22 23  1  0
 24 23  1  0
  1 25  1  6
  2 26  1  0
  2 27  1  0
  3 28  1  0
  3 29  1  0
  4 30  1  0
  4 31  1  0
  5 32  1  0
  5 33  1  0
  6 34  1  1
  7 35  1  1
  8 36  1  0
  8 37  1  0
  9 38  1  6
 11 39  1  0
 12 40  1  0
 16 41  1  0
 16 42  1  0
 16 43  1  0
 20 44  1  0
 21 45  1  0
 21 46  1  0
 22 47  1  0
 22 48  1  0
 23 49  1  0
 23 50  1  0
 24 51  1  0
 24 52  1  0
M  ISO  8  25  13  26  13  27  13  28  13  29  13  30  13  31  13  32  13
M  ISO  8  33  13  34  13  35  13  36  13  37  13  38  13  39  14  40  14
M  ISO  8  41   8  42   8  43   8  44  13  45  13  46  13  47  13  48  13
M  ISO  4  49  13  50  13  51  13  52  13
M  END
>  <minimizedAffinity>  (1) 
-5.68557978

>  <minimizedRMSD>  (1) 
3.15754437

$$$$
