
     RDKit          3D

 55 58  0  0  1  0  0  0  0  0999 V2000
   41.0900   33.7960   39.2180 C   0  0  2  0  0  0  0  0  0  0  0  0
   40.2310   34.6590   38.3230 C   0  0  0  0  0  0  0  0  0  0  0  0
   38.9260   33.9920   37.9710 C   0  0  0  0  0  0  0  0  0  0  0  0
   38.1350   33.7900   39.2160 C   0  0  0  0  0  0  0  0  0  0  0  0
   39.0330   33.7770   40.4470 C   0  0  0  0  0  0  0  0  0  0  0  0
   40.2430   33.0320   40.1310 C   0  0  1  0  0  0  0  0  0  0  0  0
   42.5370   34.4150   41.3100 C   0  0  1  0  0  0  0  0  0  0  0  0
   41.7820   35.7000   40.8200 C   0  0  0  0  0  0  0  0  0  0  0  0
   42.0990   34.6320   39.9610 C   0  0  2  0  0  0  0  0  0  0  0  0
   46.2180   34.5300   41.1660 C   0  0  0  0  0  0  0  0  0  0  0  0
   46.5570   35.0980   42.4230 C   0  0  0  0  0  0  0  0  0  0  0  0
   45.5000   35.4400   43.2950 C   0  0  0  0  0  0  0  0  0  0  0  0
   44.2280   35.2100   42.8870 N   0  0  0  0  0  0  0  0  0  0  0  0
   43.9550   34.6750   41.6990 C   0  0  0  0  0  0  0  0  0  0  0  0
   44.9330   34.3160   40.7950 N   0  0  0  0  0  0  0  0  0  0  0  0
   47.3280   34.1500   40.2380 C   0  0  0  0  0  0  0  0  0  0  0  0
   39.8940   31.7250   39.5190 C   0  0  0  0  0  0  0  0  0  0  0  0
   38.9350   30.9340   39.6400 O   0  0  0  0  0  0  0  0  0  0  0  0
   40.8790   31.3210   38.6100 O   0  0  0  0  0  0  0  0  0  0  0  0
   40.4790   30.7080   37.3330 C   0  0  0  0  0  0  0  0  0  0  0  0
   38.9890   30.6050   37.2440 C   0  0  0  0  0  0  0  0  0  0  0  0
   38.6730   30.0310   35.8760 C   0  0  0  0  0  0  0  0  0  0  0  0
   39.9000   29.3670   35.2690 C   0  0  0  0  0  0  0  0  0  0  0  0
   40.5440   28.4540   36.2960 C   0  0  0  0  0  0  0  0  0  0  0  0
   41.0500   29.3080   37.4140 C   0  0  0  0  0  0  0  0  0  0  0  0
   41.6544   33.0843   38.5975 H   0  0  0  0  0  0  0  0  0  0  0  0
   40.0167   35.6047   38.8424 H   0  0  0  0  0  0  0  0  0  0  0  0
   40.7846   34.8321   37.3884 H   0  0  0  0  0  0  0  0  0  0  0  0
   38.3617   34.6297   37.2747 H   0  0  0  0  0  0  0  0  0  0  0  0
   39.1215   33.0209   37.4926 H   0  0  0  0  0  0  0  0  0  0  0  0
   37.4054   34.6074   39.3134 H   0  0  0  0  0  0  0  0  0  0  0  0
   37.6243   32.8181   39.1488 H   0  0  0  0  0  0  0  0  0  0  0  0
   39.2949   34.8084   40.7256 H   0  0  0  0  0  0  0  0  0  0  0  0
   38.5088   33.3026   41.2897 H   0  0  0  0  0  0  0  0  0  0  0  0
   40.7971   32.8561   41.0648 H   0  0  0  0  0  0  0  0  0  0  0  0
   42.4192   33.5886   42.0263 H   0  0  0  0  0  0  0  0  0  0  0  0
   40.7398   35.8827   41.1208 H   0  0  0  0  0  0  0  0  0  0  0  0
   41.9669   36.7842   40.8391 H   0  0  0  0  0  0  0  0  0  0  0  0
   42.6344   34.5839   39.0013 H   0  0  0  0  0  0  0  0  0  0  0  0
   47.6063   35.2657   42.7074 H   0  0  0  0  0  0  0  0  0  0  0  0
   45.7040   35.8823   44.2813 H   0  0  0  0  0  0  0  0  0  0  0  0
   48.2088   33.8485   40.8239 H   0  0  0  0  0  0  0  0  0  0  0  0
   47.0048   33.3113   39.6038 H   0  0  0  0  0  0  0  0  0  0  0  0
   47.5866   35.0108   39.6038 H   0  0  0  0  0  0  0  0  0  0  0  0
   40.8281   31.2884   36.4663 H   0  0  0  0  0  0  0  0  0  0  0  0
   38.6072   29.9392   38.0320 H   0  0  0  0  0  0  0  0  0  0  0  0
   38.5155   31.5886   37.3795 H   0  0  0  0  0  0  0  0  0  0  0  0
   37.8714   29.2842   35.9752 H   0  0  0  0  0  0  0  0  0  0  0  0
   38.3546   30.8512   35.2158 H   0  0  0  0  0  0  0  0  0  0  0  0
   39.6001   28.7764   34.3908 H   0  0  0  0  0  0  0  0  0  0  0  0
   40.6207   30.1399   34.9637 H   0  0  0  0  0  0  0  0  0  0  0  0
   39.8012   27.7385   36.6785 H   0  0  0  0  0  0  0  0  0  0  0  0
   41.3700   27.8872   35.8416 H   0  0  0  0  0  0  0  0  0  0  0  0
   42.1470   29.3636   37.3552 H   0  0  0  0  0  0  0  0  0  0  0  0
   40.7358   28.8575   38.3671 H   0  0  0  0  0  0  0  0  0  0  0  0
  1  9  1  0
  1  6  1  0
  2  1  1  0
  3  2  1  0
  3  4  1  0
  4  5  1  0
  6  5  1  0
  7 14  1  0
  8  7  1  0
  9  8  1  0
  9  7  1  0
 10 11  2  0
 11 12  1  0
 13 12  2  0
 14 13  1  0
 15 10  1  0
 15 14  2  0
 16 10  1  0
 17 18  2  0
 17  6  1  0
 19 17  1  0
 20 25  1  0
 20 19  1  0
 21 20  1  0
 22 21  1  0
 23 22  1  0
 23 24  1  0
 24 25  1  0
  1 26  1  6
  2 27  1  0
  2 28  1  0
  3 29  1  0
  3 30  1  0
  4 31  1  0
  4 32  1  0
  5 33  1  0
  5 34  1  0
  6 35  1  1
  7 36  1  1
  8 37  1  0
  8 38  1  0
  9 39  1  6
 11 40  1  0
 12 41  1  0
 16 42  1  0
 16 43  1  0
 16 44  1  0
 20 45  1  0
 21 46  1  0
 21 47  1  0
 22 48  1  0
 22 49  1  0
 23 50  1  0
 23 51  1  0
 24 52  1  0
 24 53  1  0
 25 54  1  0
 25 55  1  0
M  ISO  8  26  13  27  13  28  13  29  13  30  13  31  13  32  13  33  13
M  ISO  8  34  13  35  13  36  13  37  13  38  13  39  13  40  14  41  14
M  ISO  8  42   8  43   8  44   8  45  13  46  13  47  13  48  13  49  13
M  ISO  6  50  13  51  13  52  13  53  13  54  13  55  13
M  END
>  <minimizedAffinity>  (1) 
-5.65347385

>  <minimizedRMSD>  (1) 
0.849631369

$$$$
