
     RDKit          3D

 53 57  0  0  1  0  0  0  0  0999 V2000
   41.0950   33.8030   39.1470 C   0  0  2  0  0  0  0  0  0  0  0  0
   40.2500   34.6410   38.2190 C   0  0  0  0  0  0  0  0  0  0  0  0
   38.9800   33.9390   37.8140 C   0  0  0  0  0  0  0  0  0  0  0  0
   38.1450   33.7130   39.0250 C   0  0  0  0  0  0  0  0  0  0  0  0
   38.9900   33.7200   40.2920 C   0  0  0  0  0  0  0  0  0  0  0  0
   40.2320   33.0140   40.0230 C   0  0  1  0  0  0  0  0  0  0  0  0
   42.4270   34.4600   41.3030 C   0  0  1  0  0  0  0  0  0  0  0  0
   41.6620   35.7260   40.7800 C   0  0  0  0  0  0  0  0  0  0  0  0
   42.0460   34.6680   39.9360 C   0  0  2  0  0  0  0  0  0  0  0  0
   46.1080   34.6400   41.3440 C   0  0  0  0  0  0  0  0  0  0  0  0
   46.3820   35.2380   42.5870 C   0  0  0  0  0  0  0  0  0  0  0  0
   45.2660   35.5910   43.4120 C   0  0  0  0  0  0  0  0  0  0  0  0
   44.0190   35.3290   42.9440 N   0  0  0  0  0  0  0  0  0  0  0  0
   43.8180   34.7590   41.7570 C   0  0  0  0  0  0  0  0  0  0  0  0
   44.8470   34.3940   40.9160 N   0  0  0  0  0  0  0  0  0  0  0  0
   47.2720   34.2580   40.4870 C   0  0  0  0  0  0  0  0  0  0  0  0
   39.9440   31.7000   39.3930 C   0  0  0  0  0  0  0  0  0  0  0  0
   39.0270   30.8640   39.4730 O   0  0  0  0  0  0  0  0  0  0  0  0
   40.9730   31.3430   38.4970 O   0  0  0  0  0  0  0  0  0  0  0  0
   40.5830   30.6500   37.2800 C   0  0  0  0  0  0  0  0  0  0  0  0
   39.2550   30.5320   37.0090 N   0  0  0  0  0  0  0  0  0  0  0  0
   38.8280   29.9000   35.8970 C   0  0  0  0  0  0  0  0  0  0  0  0
   39.7060   29.3690   35.0280 N   0  0  0  0  0  0  0  0  0  0  0  0
   41.0150   29.4960   35.3150 C   0  0  0  0  0  0  0  0  0  0  0  0
   41.9300   28.9500   34.4200 C   0  0  0  0  0  0  0  0  0  0  0  0
   43.2820   29.0540   34.6710 C   0  0  0  0  0  0  0  0  0  0  0  0
   43.7500   29.6990   35.8040 C   0  0  0  0  0  0  0  0  0  0  0  0
   42.8670   30.2480   36.7070 C   0  0  0  0  0  0  0  0  0  0  0  0
   41.5220   30.1280   36.4300 C   0  0  0  0  0  0  0  0  0  0  0  0
   41.7067   33.1106   38.5499 H   0  0  0  0  0  0  0  0  0  0  0  0
   39.9884   35.5797   38.7292 H   0  0  0  0  0  0  0  0  0  0  0  0
   40.8362   34.8299   37.3076 H   0  0  0  0  0  0  0  0  0  0  0  0
   38.4271   34.5620   37.0956 H   0  0  0  0  0  0  0  0  0  0  0  0
   39.2218   32.9745   37.3436 H   0  0  0  0  0  0  0  0  0  0  0  0
   37.3907   34.5107   39.0935 H   0  0  0  0  0  0  0  0  0  0  0  0
   37.6643   32.7277   38.9350 H   0  0  0  0  0  0  0  0  0  0  0  0
   39.2091   34.7571   40.5860 H   0  0  0  0  0  0  0  0  0  0  0  0
   38.4457   33.2260   41.1103 H   0  0  0  0  0  0  0  0  0  0  0  0
   40.7532   32.8533   40.9783 H   0  0  0  0  0  0  0  0  0  0  0  0
   42.2985   33.6287   42.0118 H   0  0  0  0  0  0  0  0  0  0  0  0
   40.6027   35.8809   41.0327 H   0  0  0  0  0  0  0  0  0  0  0  0
   41.8174   36.8146   40.8083 H   0  0  0  0  0  0  0  0  0  0  0  0
   42.6249   34.6375   39.0012 H   0  0  0  0  0  0  0  0  0  0  0  0
   47.4152   35.4276   42.9134 H   0  0  0  0  0  0  0  0  0  0  0  0
   45.4148   36.0605   44.3956 H   0  0  0  0  0  0  0  0  0  0  0  0
   48.1223   33.9789   41.1266 H   0  0  0  0  0  0  0  0  0  0  0  0
   46.9950   33.4036   39.8519 H   0  0  0  0  0  0  0  0  0  0  0  0
   47.5551   35.1104   39.8519 H   0  0  0  0  0  0  0  0  0  0  0  0
   37.7492   29.8179   35.6985 H   0  0  0  0  0  0  0  0  0  0  0  0
   41.5756   28.4365   33.5141 H   0  0  0  0  0  0  0  0  0  0  0  0
   43.9998   28.6181   33.9606 H   0  0  0  0  0  0  0  0  0  0  0  0
   44.8327   29.7731   35.9834 H   0  0  0  0  0  0  0  0  0  0  0  0
   43.2208   30.7617   37.6130 H   0  0  0  0  0  0  0  0  0  0  0  0
  1  9  1  0
  1  6  1  0
  2  1  1  0
  3  2  1  0
  3  4  1  0
  4  5  1  0
  6  5  1  0
  7 14  1  0
  8  7  1  0
  9  8  1  0
  9  7  1  0
 10 11  2  0
 11 12  1  0
 13 12  2  0
 14 13  1  0
 15 10  1  0
 15 14  2  0
 16 10  1  0
 17 18  2  0
 17  6  1  0
 19 17  1  0
 20 19  1  0
 21 20  2  0
 22 21  1  0
 23 24  1  0
 23 22  2  0
 24 29  2  0
 25 26  2  0
 25 24  1  0
 26 27  1  0
 27 28  2  0
 29 28  1  0
 29 20  1  0
  1 30  1  6
  2 31  1  0
  2 32  1  0
  3 33  1  0
  3 34  1  0
  4 35  1  0
  4 36  1  0
  5 37  1  0
  5 38  1  0
  6 39  1  1
  7 40  1  1
  8 41  1  0
  8 42  1  0
  9 43  1  6
 11 44  1  0
 12 45  1  0
 16 46  1  0
 16 47  1  0
 16 48  1  0
 22 49  1  0
 25 50  1  0
 26 51  1  0
 27 52  1  0
 28 53  1  0
M  ISO  8  30  13  31  13  32  13  33  13  34  13  35  13  36  13  37  13
M  ISO  8  38  13  39  13  40  13  41  13  42  13  43  13  44  14  45  14
M  ISO  8  46   8  47   8  48   8  49  14  50  14  51  14  52  14  53  14
M  END
>  <minimizedAffinity>  (1) 
-6.07391405

>  <minimizedRMSD>  (1) 
0.948061585

$$$$
