
     RDKit          3D

 49 52  0  0  1  0  0  0  0  0999 V2000
   41.0650   33.7540   39.1360 C   0  0  2  0  0  0  0  0  0  0  0  0
   40.2460   34.5690   38.1820 C   0  0  0  0  0  0  0  0  0  0  0  0
   38.9540   33.8960   37.8130 C   0  0  0  0  0  0  0  0  0  0  0  0
   38.1130   33.7420   39.0410 C   0  0  0  0  0  0  0  0  0  0  0  0
   38.9570   33.7790   40.3140 C   0  0  0  0  0  0  0  0  0  0  0  0
   40.1850   33.0300   40.0560 C   0  0  1  0  0  0  0  0  0  0  0  0
   42.4140   34.4860   41.2580 C   0  0  1  0  0  0  0  0  0  0  0  0
   41.6880   35.7430   40.6730 C   0  0  0  0  0  0  0  0  0  0  0  0
   42.0410   34.6400   39.8790 C   0  0  2  0  0  0  0  0  0  0  0  0
   46.0750   34.6160   41.3220 C   0  0  0  0  0  0  0  0  0  0  0  0
   46.3520   35.1980   42.5830 C   0  0  0  0  0  0  0  0  0  0  0  0
   45.2550   35.5540   43.3940 C   0  0  0  0  0  0  0  0  0  0  0  0
   44.0240   35.3130   42.9050 N   0  0  0  0  0  0  0  0  0  0  0  0
   43.7980   34.7660   41.7220 C   0  0  0  0  0  0  0  0  0  0  0  0
   44.8200   34.3900   40.8660 N   0  0  0  0  0  0  0  0  0  0  0  0
   47.2260   34.2020   40.4580 C   0  0  0  0  0  0  0  0  0  0  0  0
   39.8340   31.7080   39.5210 C   0  0  0  0  0  0  0  0  0  0  0  0
   38.9380   30.8670   39.6690 O   0  0  0  0  0  0  0  0  0  0  0  0
   40.8170   31.3180   38.5790 O   0  0  0  0  0  0  0  0  0  0  0  0
   40.4260   30.6330   37.3810 C   0  0  0  0  0  0  0  0  0  0  0  0
   41.6770   30.3230   36.8200 C   0  0  0  0  0  0  0  0  0  0  0  0
   41.8650   29.6660   35.6450 C   0  0  0  0  0  0  0  0  0  0  0  0
   40.7060   29.2730   34.9540 C   0  0  0  0  0  0  0  0  0  0  0  0
   39.5690   29.6420   35.6230 C   0  0  0  0  0  0  0  0  0  0  0  0
   39.2680   30.2810   36.7680 C   0  0  0  0  0  0  0  0  0  0  0  0
   41.6513   33.0129   38.5730 H   0  0  0  0  0  0  0  0  0  0  0  0
   40.0180   35.5375   38.6510 H   0  0  0  0  0  0  0  0  0  0  0  0
   40.8329   34.6945   37.2601 H   0  0  0  0  0  0  0  0  0  0  0  0
   38.4175   34.5090   37.0738 H   0  0  0  0  0  0  0  0  0  0  0  0
   39.1624   32.9063   37.3805 H   0  0  0  0  0  0  0  0  0  0  0  0
   37.3799   34.5614   39.0757 H   0  0  0  0  0  0  0  0  0  0  0  0
   37.6108   32.7646   38.9916 H   0  0  0  0  0  0  0  0  0  0  0  0
   39.2006   34.8203   40.5716 H   0  0  0  0  0  0  0  0  0  0  0  0
   38.4046   33.3345   41.1550 H   0  0  0  0  0  0  0  0  0  0  0  0
   40.7379   32.9066   40.9989 H   0  0  0  0  0  0  0  0  0  0  0  0
   42.2632   33.6879   41.9999 H   0  0  0  0  0  0  0  0  0  0  0  0
   40.6332   35.9395   40.9153 H   0  0  0  0  0  0  0  0  0  0  0  0
   41.8753   36.8267   40.6510 H   0  0  0  0  0  0  0  0  0  0  0  0
   42.6161   34.5562   38.9451 H   0  0  0  0  0  0  0  0  0  0  0  0
   47.3862   35.3663   42.9178 H   0  0  0  0  0  0  0  0  0  0  0  0
   45.3989   36.0096   44.3848 H   0  0  0  0  0  0  0  0  0  0  0  0
   48.0708   33.8981   41.0935 H   0  0  0  0  0  0  0  0  0  0  0  0
   46.9223   33.3568   39.8229 H   0  0  0  0  0  0  0  0  0  0  0  0
   47.5303   35.0470   39.8229 H   0  0  0  0  0  0  0  0  0  0  0  0
   42.5735   30.6364   37.3750 H   0  0  0  0  0  0  0  0  0  0  0  0
   42.8714   29.4531   35.2554 H   0  0  0  0  0  0  0  0  0  0  0  0
   40.7112   28.7354   33.9943 H   0  0  0  0  0  0  0  0  0  0  0  0
   38.6626   29.3346   35.0808 H   0  0  0  0  0  0  0  0  0  0  0  0
   38.2542   30.4838   37.1437 H   0  0  0  0  0  0  0  0  0  0  0  0
  1  9  1  0
  1  6  1  0
  2  1  1  0
  3  2  1  0
  3  4  1  0
  4  5  1  0
  6  5  1  0
  7 14  1  0
  8  7  1  0
  9  8  1  0
  9  7  1  0
 10 11  2  0
 11 12  1  0
 13 12  2  0
 14 13  1  0
 15 10  1  0
 15 14  2  0
 16 10  1  0
 17 18  2  0
 17  6  1  0
 19 17  1  0
 20 19  1  0
 21 20  2  0
 22 21  1  0
 23 24  1  0
 23 22  2  0
 24 25  2  0
 25 20  1  0
  1 26  1  6
  2 27  1  0
  2 28  1  0
  3 29  1  0
  3 30  1  0
  4 31  1  0
  4 32  1  0
  5 33  1  0
  5 34  1  0
  6 35  1  1
  7 36  1  1
  8 37  1  0
  8 38  1  0
  9 39  1  6
 11 40  1  0
 12 41  1  0
 16 42  1  0
 16 43  1  0
 16 44  1  0
 21 45  1  0
 22 46  1  0
 23 47  1  0
 24 48  1  0
 25 49  1  0
M  ISO  8  26  13  27  13  28  13  29  13  30  13  31  13  32  13  33  13
M  ISO  8  34  13  35  13  36  13  37  13  38  13  39  13  40  14  41  14
M  ISO  8  42   8  43   8  44   8  45  14  46  14  47  14  48  14  49  14
M  END
>  <minimizedAffinity>  (1) 
-5.74300671

>  <minimizedRMSD>  (1) 
0.875685751

$$$$
