
     RDKit          3D

 49 52  0  0  1  0  0  0  0  0999 V2000
   41.1840   33.8490   39.4450 C   0  0  2  0  0  0  0  0  0  0  0  0
   40.1880   34.7890   38.8050 C   0  0  0  0  0  0  0  0  0  0  0  0
   38.8640   34.1180   38.5440 C   0  0  0  0  0  0  0  0  0  0  0  0
   38.2590   33.7050   39.8410 C   0  0  0  0  0  0  0  0  0  0  0  0
   39.3220   33.5740   40.9280 C   0  0  0  0  0  0  0  0  0  0  0  0
   40.4990   32.9350   40.3550 C   0  0  1  0  0  0  0  0  0  0  0  0
   42.8010   34.3250   41.4500 C   0  0  1  0  0  0  0  0  0  0  0  0
   42.0340   35.6470   41.0980 C   0  0  0  0  0  0  0  0  0  0  0  0
   42.2620   34.6290   40.1570 C   0  0  2  0  0  0  0  0  0  0  0  0
   46.4630   34.4390   41.0030 C   0  0  0  0  0  0  0  0  0  0  0  0
   46.9080   34.8980   42.2700 C   0  0  0  0  0  0  0  0  0  0  0  0
   45.9200   35.1740   43.2700 C   0  0  0  0  0  0  0  0  0  0  0  0
   44.6170   34.9800   42.9480 N   0  0  0  0  0  0  0  0  0  0  0  0
   44.2510   34.5490   41.7470 C   0  0  0  0  0  0  0  0  0  0  0  0
   45.1430   34.2640   40.7370 N   0  0  0  0  0  0  0  0  0  0  0  0
   47.4900   34.1530   39.9780 C   0  0  0  0  0  0  0  0  0  0  0  0
   40.0960   31.7110   39.6160 C   0  0  0  0  0  0  0  0  0  0  0  0
   39.2780   30.7940   39.7830 O   0  0  0  0  0  0  0  0  0  0  0  0
   40.8520   31.5840   38.4270 O   0  0  0  0  0  0  0  0  0  0  0  0
   40.2380   30.7480   37.3810 C   0  0  0  0  0  0  0  0  0  0  0  0
   41.0170   29.7220   36.8750 C   0  0  0  0  0  0  0  0  0  0  0  0
   40.4680   28.9100   35.8850 C   0  0  0  0  0  0  0  0  0  0  0  0
   39.1820   29.1570   35.4490 C   0  0  0  0  0  0  0  0  0  0  0  0
   38.4470   30.1940   35.9860 C   0  0  0  0  0  0  0  0  0  0  0  0
   38.9750   31.0160   36.9760 C   0  0  0  0  0  0  0  0  0  0  0  0
   41.6676   33.2494   38.6598 H   0  0  0  0  0  0  0  0  0  0  0  0
   40.0258   35.6451   39.4764 H   0  0  0  0  0  0  0  0  0  0  0  0
   40.6004   35.1134   37.8382 H   0  0  0  0  0  0  0  0  0  0  0  0
   38.1905   34.8205   38.0312 H   0  0  0  0  0  0  0  0  0  0  0  0
   39.0176   33.2325   37.9097 H   0  0  0  0  0  0  0  0  0  0  0  0
   37.5212   34.4603   40.1496 H   0  0  0  0  0  0  0  0  0  0  0  0
   37.7771   32.7256   39.7048 H   0  0  0  0  0  0  0  0  0  0  0  0
   39.5896   34.5716   41.3063 H   0  0  0  0  0  0  0  0  0  0  0  0
   38.9344   32.9684   41.7605 H   0  0  0  0  0  0  0  0  0  0  0  0
   41.1844   32.6648   41.1718 H   0  0  0  0  0  0  0  0  0  0  0  0
   42.7262   33.4556   42.1198 H   0  0  0  0  0  0  0  0  0  0  0  0
   41.0224   35.8259   41.4913 H   0  0  0  0  0  0  0  0  0  0  0  0
   42.2400   36.7254   41.1654 H   0  0  0  0  0  0  0  0  0  0  0  0
   42.7176   34.6329   39.1558 H   0  0  0  0  0  0  0  0  0  0  0  0
   47.9791   35.0376   42.4779 H   0  0  0  0  0  0  0  0  0  0  0  0
   46.2095   35.5325   44.2688 H   0  0  0  0  0  0  0  0  0  0  0  0
   48.4371   33.8893   40.4715 H   0  0  0  0  0  0  0  0  0  0  0  0
   47.1575   33.3133   39.3501 H   0  0  0  0  0  0  0  0  0  0  0  0
   47.6394   35.0437   39.3501 H   0  0  0  0  0  0  0  0  0  0  0  0
   42.0395   29.5527   37.2437 H   0  0  0  0  0  0  0  0  0  0  0  0
   41.0521   28.0824   35.4562 H   0  0  0  0  0  0  0  0  0  0  0  0
   38.7395   28.5221   34.6672 H   0  0  0  0  0  0  0  0  0  0  0  0
   37.4239   30.3740   35.6242 H   0  0  0  0  0  0  0  0  0  0  0  0
   38.3940   31.8438   37.4087 H   0  0  0  0  0  0  0  0  0  0  0  0
  1  9  1  0
  1  6  1  0
  2  1  1  0
  3  2  1  0
  3  4  1  0
  4  5  1  0
  6  5  1  0
  7 14  1  0
  8  7  1  0
  9  8  1  0
  9  7  1  0
 10 11  2  0
 11 12  1  0
 13 12  2  0
 14 13  1  0
 15 10  1  0
 15 14  2  0
 16 10  1  0
 17 18  2  0
 17  6  1  0
 19 17  1  0
 20 19  1  0
 21 20  2  0
 22 21  1  0
 23 22  2  0
 23 24  1  0
 24 25  2  0
 25 20  1  0
  1 26  1  6
  2 27  1  0
  2 28  1  0
  3 29  1  0
  3 30  1  0
  4 31  1  0
  4 32  1  0
  5 33  1  0
  5 34  1  0
  6 35  1  1
  7 36  1  1
  8 37  1  0
  8 38  1  0
  9 39  1  6
 11 40  1  0
 12 41  1  0
 16 42  1  0
 16 43  1  0
 16 44  1  0
 21 45  1  0
 22 46  1  0
 23 47  1  0
 24 48  1  0
 25 49  1  0
M  ISO  8  26  13  27  13  28  13  29  13  30  13  31  13  32  13  33  13
M  ISO  8  34  13  35  13  36  13  37  13  38  13  39  13  40  14  41  14
M  ISO  8  42   8  43   8  44   8  45  14  46  14  47  14  48  14  49  14
M  END
>  <minimizedAffinity>  (1) 
-5.71009827

>  <minimizedRMSD>  (1) 
1.11325896

$$$$
