
     RDKit          3D

 46 49  0  0  1  0  0  0  0  0999 V2000
   41.1570   33.7850   39.4190 C   0  0  2  0  0  0  0  0  0  0  0  0
   40.1830   34.6970   38.7160 C   0  0  0  0  0  0  0  0  0  0  0  0
   38.8460   34.0440   38.4960 C   0  0  0  0  0  0  0  0  0  0  0  0
   38.2210   33.7260   39.8260 C   0  0  0  0  0  0  0  0  0  0  0  0
   39.2820   33.6450   40.9110 C   0  0  0  0  0  0  0  0  0  0  0  0
   40.4470   32.9480   40.3840 C   0  0  1  0  0  0  0  0  0  0  0  0
   42.7860   34.3390   41.3880 C   0  0  1  0  0  0  0  0  0  0  0  0
   42.0360   35.6540   40.9790 C   0  0  0  0  0  0  0  0  0  0  0  0
   42.2490   34.5930   40.0830 C   0  0  2  0  0  0  0  0  0  0  0  0
   46.4430   34.3800   40.9490 C   0  0  0  0  0  0  0  0  0  0  0  0
   46.9090   34.8620   42.1820 C   0  0  0  0  0  0  0  0  0  0  0  0
   45.9370   35.1850   43.1630 C   0  0  0  0  0  0  0  0  0  0  0  0
   44.6220   35.0100   42.8580 N   0  0  0  0  0  0  0  0  0  0  0  0
   44.2370   34.5500   41.6730 C   0  0  0  0  0  0  0  0  0  0  0  0
   45.1240   34.2190   40.6740 N   0  0  0  0  0  0  0  0  0  0  0  0
   47.4550   34.0150   39.9080 C   0  0  0  0  0  0  0  0  0  0  0  0
   40.0200   31.6810   39.7210 C   0  0  0  0  0  0  0  0  0  0  0  0
   39.1960   30.7940   39.9660 O   0  0  0  0  0  0  0  0  0  0  0  0
   40.7400   31.4880   38.5550 O   0  0  0  0  0  0  0  0  0  0  0  0
   40.2750   30.7480   37.4430 C   0  0  0  0  0  0  0  0  0  0  0  0
   38.8870   30.7820   36.8830 C   0  0  0  0  0  0  0  0  0  0  0  0
   38.6960   29.9770   35.8100 C   0  0  0  0  0  0  0  0  0  0  0  0
   39.7060   29.1440   35.2250 C   0  0  0  0  0  0  0  0  0  0  0  0
   41.1790   29.5220   36.3280 S   0  0  0  0  0  0  0  0  0  0  0  0
   41.6345   33.1244   38.6803 H   0  0  0  0  0  0  0  0  0  0  0  0
   40.0393   35.5999   39.3277 H   0  0  0  0  0  0  0  0  0  0  0  0
   40.6038   34.9425   37.7298 H   0  0  0  0  0  0  0  0  0  0  0  0
   38.1909   34.7282   37.9368 H   0  0  0  0  0  0  0  0  0  0  0  0
   38.9805   33.1155   37.9217 H   0  0  0  0  0  0  0  0  0  0  0  0
   37.4997   34.5153   40.0842 H   0  0  0  0  0  0  0  0  0  0  0  0
   37.7122   32.7533   39.7548 H   0  0  0  0  0  0  0  0  0  0  0  0
   39.5692   34.6601   41.2224 H   0  0  0  0  0  0  0  0  0  0  0  0
   38.8843   33.0998   41.7797 H   0  0  0  0  0  0  0  0  0  0  0  0
   41.1235   32.7200   41.2209 H   0  0  0  0  0  0  0  0  0  0  0  0
   42.7002   33.5023   42.0969 H   0  0  0  0  0  0  0  0  0  0  0  0
   41.0275   35.8633   41.3651 H   0  0  0  0  0  0  0  0  0  0  0  0
   42.2563   36.7315   40.9989 H   0  0  0  0  0  0  0  0  0  0  0  0
   42.7004   34.5535   39.0807 H   0  0  0  0  0  0  0  0  0  0  0  0
   47.9842   34.9843   42.3795 H   0  0  0  0  0  0  0  0  0  0  0  0
   46.2392   35.5685   44.1487 H   0  0  0  0  0  0  0  0  0  0  0  0
   48.3813   33.6809   40.3983 H   0  0  0  0  0  0  0  0  0  0  0  0
   47.0590   33.2031   39.2804 H   0  0  0  0  0  0  0  0  0  0  0  0
   47.6684   34.8928   39.2804 H   0  0  0  0  0  0  0  0  0  0  0  0
   38.0886   31.4085   37.3074 H   0  0  0  0  0  0  0  0  0  0  0  0
   37.6946   29.9613   35.3551 H   0  0  0  0  0  0  0  0  0  0  0  0
   39.6368   28.4656   34.3619 H   0  0  0  0  0  0  0  0  0  0  0  0
  1  9  1  0
  1  6  1  0
  2  1  1  0
  3  2  1  0
  3  4  1  0
  4  5  1  0
  6  5  1  0
  7 14  1  0
  8  7  1  0
  9  8  1  0
  9  7  1  0
 10 11  2  0
 11 12  1  0
 13 12  2  0
 14 13  1  0
 15 10  1  0
 15 14  2  0
 16 10  1  0
 17 18  2  0
 17  6  1  0
 19 17  1  0
 20 19  1  0
 21 20  2  0
 22 21  1  0
 23 22  2  0
 23 24  1  0
 24 20  1  0
  1 25  1  6
  2 26  1  0
  2 27  1  0
  3 28  1  0
  3 29  1  0
  4 30  1  0
  4 31  1  0
  5 32  1  0
  5 33  1  0
  6 34  1  1
  7 35  1  1
  8 36  1  0
  8 37  1  0
  9 38  1  6
 11 39  1  0
 12 40  1  0
 16 41  1  0
 16 42  1  0
 16 43  1  0
 21 44  1  0
 22 45  1  0
 23 46  1  0
M  ISO  8  25  13  26  13  27  13  28  13  29  13  30  13  31  13  32  13
M  ISO  8  33  13  34  13  35  13  36  13  37  13  38  13  39  14  40  14
M  ISO  6  41   8  42   8  43   8  44  14  45  14  46  14
M  END
>  <minimizedAffinity>  (1) 
-5.53854704

>  <minimizedRMSD>  (1) 
1.16734576

$$$$
