
     RDKit          3D

 42 44  0  0  1  0  0  0  0  0999 V2000
   41.1460   33.9500   38.9980 C   0  0  2  0  0  0  0  0  0  0  0  0
   40.2620   34.8600   38.1730 C   0  0  0  0  0  0  0  0  0  0  0  0
   39.0310   34.1500   37.6720 C   0  0  0  0  0  0  0  0  0  0  0  0
   38.2060   33.7200   38.8330 C   0  0  0  0  0  0  0  0  0  0  0  0
   39.0490   33.6240   40.1030 C   0  0  0  0  0  0  0  0  0  0  0  0
   40.3300   33.0150   39.7670 C   0  0  1  0  0  0  0  0  0  0  0  0
   42.4550   34.4060   41.2210 C   0  0  1  0  0  0  0  0  0  0  0  0
   41.6100   35.6800   40.8660 C   0  0  0  0  0  0  0  0  0  0  0  0
   42.0490   34.7640   39.8930 C   0  0  2  0  0  0  0  0  0  0  0  0
   46.1280   34.6560   41.3500 C   0  0  0  0  0  0  0  0  0  0  0  0
   46.3510   35.2650   42.6070 C   0  0  0  0  0  0  0  0  0  0  0  0
   45.2210   35.5880   43.3890 C   0  0  0  0  0  0  0  0  0  0  0  0
   43.9950   35.2990   42.8950 N   0  0  0  0  0  0  0  0  0  0  0  0
   43.8310   34.7270   41.7080 C   0  0  0  0  0  0  0  0  0  0  0  0
   44.8840   34.3830   40.8870 N   0  0  0  0  0  0  0  0  0  0  0  0
   47.3170   34.2860   40.5180 C   0  0  0  0  0  0  0  0  0  0  0  0
   40.1100   31.7800   38.9730 C   0  0  0  0  0  0  0  0  0  0  0  0
   39.2360   30.8960   38.9370 O   0  0  0  0  0  0  0  0  0  0  0  0
   41.1610   31.5940   38.0480 O   0  0  0  0  0  0  0  0  0  0  0  0
   41.0160   30.4350   37.1150 C   0  0  0  0  0  0  0  0  0  0  0  0
   41.7861   33.3626   38.3233 H   0  0  0  0  0  0  0  0  0  0  0  0
   39.9517   35.7126   38.7949 H   0  0  0  0  0  0  0  0  0  0  0  0
   40.8405   35.1941   37.2991 H   0  0  0  0  0  0  0  0  0  0  0  0
   38.4458   34.8320   37.0376 H   0  0  0  0  0  0  0  0  0  0  0  0
   39.3270   33.2692   37.0833 H   0  0  0  0  0  0  0  0  0  0  0  0
   37.4002   34.4518   38.9915 H   0  0  0  0  0  0  0  0  0  0  0  0
   37.7889   32.7257   38.6153 H   0  0  0  0  0  0  0  0  0  0  0  0
   39.2141   34.6305   40.5150 H   0  0  0  0  0  0  0  0  0  0  0  0
   38.5279   33.0121   40.8541 H   0  0  0  0  0  0  0  0  0  0  0  0
   40.8552   32.7610   40.6995 H   0  0  0  0  0  0  0  0  0  0  0  0
   42.3834   33.4846   41.8176 H   0  0  0  0  0  0  0  0  0  0  0  0
   40.5457   35.7365   41.1383 H   0  0  0  0  0  0  0  0  0  0  0  0
   41.6998   36.7635   41.0333 H   0  0  0  0  0  0  0  0  0  0  0  0
   42.6194   34.8892   38.9608 H   0  0  0  0  0  0  0  0  0  0  0  0
   47.3695   35.4795   42.9628 H   0  0  0  0  0  0  0  0  0  0  0  0
   45.3343   36.0626   44.3749 H   0  0  0  0  0  0  0  0  0  0  0  0
   48.1582   34.0242   41.1766 H   0  0  0  0  0  0  0  0  0  0  0  0
   47.0662   33.4234   39.8831 H   0  0  0  0  0  0  0  0  0  0  0  0
   47.5999   35.1386   39.8831 H   0  0  0  0  0  0  0  0  0  0  0  0
   40.9001   29.5085   37.6965 H   0  0  0  0  0  0  0  0  0  0  0  0
   40.1294   30.5833   36.4810 H   0  0  0  0  0  0  0  0  0  0  0  0
   41.9118   30.3604   36.4810 H   0  0  0  0  0  0  0  0  0  0  0  0
  1  6  1  0
  1  9  1  0
  2  1  1  0
  3  2  1  0
  3  4  1  0
  4  5  1  0
  6  5  1  0
  7 14  1  0
  8  7  1  0
  9  8  1  0
  9  7  1  0
 10 11  2  0
 11 12  1  0
 13 12  2  0
 14 13  1  0
 15 10  1  0
 15 14  2  0
 16 10  1  0
 17  6  1  0
 18 17  2  0
 19 17  1  0
 20 19  1  0
  1 21  1  6
  2 22  1  0
  2 23  1  0
  3 24  1  0
  3 25  1  0
  4 26  1  0
  4 27  1  0
  5 28  1  0
  5 29  1  0
  6 30  1  1
  7 31  1  1
  8 32  1  0
  8 33  1  0
  9 34  1  6
 11 35  1  0
 12 36  1  0
 16 37  1  0
 16 38  1  0
 16 39  1  0
 20 40  1  0
 20 41  1  0
 20 42  1  0
M  ISO  8  21  13  22  13  23  13  24  13  25  13  26  13  27  13  28  13
M  ISO  8  29  13  30  13  31  13  32  13  33  13  34  13  35  14  36  14
M  ISO  6  37   8  38   8  39   8  40   8  41   8  42   8
M  END
>  <minimizedAffinity>  (1) 
-5.27159691

>  <minimizedRMSD>  (1) 
0.221292868

$$$$
