
     RDKit          3D

 36 40  0  0  0  0  0  0  0  0999 V2000
   48.5040   35.2040   40.7080 C   0  0  0  0  0  0  0  0  0  0  0  0
   48.3150   34.0060   39.9740 C   0  0  0  0  0  0  0  0  0  0  0  0
   47.3140   33.1280   40.3920 C   0  0  0  0  0  0  0  0  0  0  0  0
   46.5740   33.4850   41.4880 N   0  0  0  0  0  0  0  0  0  0  0  0
   46.7840   34.6280   42.1540 C   0  0  0  0  0  0  0  0  0  0  0  0
   47.7330   35.4730   41.7700 N   0  0  0  0  0  0  0  0  0  0  0  0
   45.9570   34.9190   43.2970 N   0  0  0  0  0  0  0  0  0  0  0  0
   45.0350   35.8750   43.5720 C   0  0  0  0  0  0  0  0  0  0  0  0
   44.5620   35.6730   44.8090 N   0  0  0  0  0  0  0  0  0  0  0  0
   45.1910   34.5780   45.3240 C   0  0  0  0  0  0  0  0  0  0  0  0
   45.0420   33.9820   46.5590 C   0  0  0  0  0  0  0  0  0  0  0  0
   45.7950   32.8900   46.8260 N   0  0  0  0  0  0  0  0  0  0  0  0
   46.6600   32.4090   45.9090 C   0  0  0  0  0  0  0  0  0  0  0  0
   46.7800   33.0160   44.7150 N   0  0  0  0  0  0  0  0  0  0  0  0
   46.0700   34.0990   44.3740 C   0  0  0  0  0  0  0  0  0  0  0  0
   47.4230   31.2570   46.2530 N   0  0  0  0  0  0  0  0  0  0  0  0
   47.6680   30.3020   45.3120 C   0  0  0  0  0  0  0  0  0  0  0  0
   48.4060   29.2800   45.8110 N   0  0  0  0  0  0  0  0  0  0  0  0
   48.6370   29.5920   47.0960 C   0  0  0  0  0  0  0  0  0  0  0  0
   49.2950   29.0320   48.1690 C   0  0  0  0  0  0  0  0  0  0  0  0
   49.3400   29.6260   49.3750 N   0  0  0  0  0  0  0  0  0  0  0  0
   48.7210   30.8250   49.5710 C   0  0  0  0  0  0  0  0  0  0  0  0
   48.0500   31.4390   48.5540 N   0  0  0  0  0  0  0  0  0  0  0  0
   48.0270   30.8190   47.3700 C   0  0  0  0  0  0  0  0  0  0  0  0
   44.1420   34.4690   47.5330 N   0  0  0  0  0  0  0  0  0  0  0  0
   49.9330   27.7850   47.9430 N   0  0  0  0  0  0  0  0  0  0  0  0
   49.2864   35.9151   40.4045 H   0  0  0  0  0  0  0  0  0  0  0  0
   48.9402   33.7748   39.0990 H   0  0  0  0  0  0  0  0  0  0  0  0
   47.1261   32.1834   39.8605 H   0  0  0  0  0  0  0  0  0  0  0  0
   44.7266   36.6826   42.8918 H   0  0  0  0  0  0  0  0  0  0  0  0
   47.3102   30.3541   44.2731 H   0  0  0  0  0  0  0  0  0  0  0  0
   48.7631   31.3029   50.5608 H   0  0  0  0  0  0  0  0  0  0  0  0
   44.0616   33.9938   48.4433 H   0  0  0  0  0  0  0  0  0  0  0  0
   43.5663   35.2993   47.3329 H   0  0  0  0  0  0  0  0  0  0  0  0
   50.4401   27.3196   48.7092 H   0  0  0  0  0  0  0  0  0  0  0  0
   49.8890   27.3451   47.0127 H   0  0  0  0  0  0  0  0  0  0  0  0
  1  6  2  0
  2  3  2  0
  2  1  1  0
  3  4  1  0
  4  5  2  0
  5  7  1  0
  6  5  1  0
  7  8  1  0
  7 15  1  0
  8  9  2  0
  9 10  1  0
 10 11  2  0
 11 12  1  0
 11 25  1  0
 13 16  1  0
 13 12  2  0
 14 13  1  0
 15 14  2  0
 15 10  1  0
 16 24  1  0
 17 18  2  0
 17 16  1  0
 18 19  1  0
 19 24  2  0
 19 20  1  0
 20 21  2  0
 21 22  1  0
 23 22  2  0
 24 23  1  0
 26 20  1  0
  1 27  1  0
  2 28  1  0
  3 29  1  0
  8 30  1  0
 17 31  1  0
 22 32  1  0
 25 33  1  0
 25 34  1  0
 26 35  1  0
 26 36  1  0
M  ISO  6  27  14  28  14  29  14  30  14  31  14  32  14
M  END
>  <minimizedAffinity>  (1) 
-7.51762438

>  <minimizedRMSD>  (1) 
0.830622673

$$$$
