
     RDKit          3D

 36 39  0  0  0  0  0  0  0  0999 V2000
   48.5670   35.1920   40.7520 C   0  0  0  0  0  0  0  0  0  0  0  0
   48.3300   34.0240   39.9720 C   0  0  0  0  0  0  0  0  0  0  0  0
   47.2750   33.2030   40.3640 C   0  0  0  0  0  0  0  0  0  0  0  0
   46.5310   33.5590   41.4610 N   0  0  0  0  0  0  0  0  0  0  0  0
   46.7870   34.6650   42.1650 C   0  0  0  0  0  0  0  0  0  0  0  0
   47.7990   35.4820   41.8160 N   0  0  0  0  0  0  0  0  0  0  0  0
   45.9660   34.9700   43.2990 N   0  0  0  0  0  0  0  0  0  0  0  0
   45.0910   35.9440   43.5950 C   0  0  0  0  0  0  0  0  0  0  0  0
   44.6050   35.7260   44.8310 N   0  0  0  0  0  0  0  0  0  0  0  0
   45.1800   34.6000   45.3230 C   0  0  0  0  0  0  0  0  0  0  0  0
   44.9880   33.9970   46.5410 C   0  0  0  0  0  0  0  0  0  0  0  0
   45.7000   32.8630   46.7830 N   0  0  0  0  0  0  0  0  0  0  0  0
   46.5490   32.3680   45.8610 C   0  0  0  0  0  0  0  0  0  0  0  0
   46.7090   32.9840   44.6870 N   0  0  0  0  0  0  0  0  0  0  0  0
   46.0460   34.1090   44.3640 C   0  0  0  0  0  0  0  0  0  0  0  0
   47.2840   31.1820   46.1320 N   0  0  0  0  0  0  0  0  0  0  0  0
   47.4100   30.1160   45.1560 C   0  0  0  0  0  0  0  0  0  0  0  0
   47.0790   28.7870   45.7980 C   0  0  0  0  0  0  0  0  0  0  0  0
   47.4710   28.6860   47.1090 O   0  0  0  0  0  0  0  0  0  0  0  0
   48.4290   29.5860   47.5170 C   0  0  0  0  0  0  0  0  0  0  0  0
   47.9410   31.0210   47.4340 C   0  0  0  0  0  0  0  0  0  0  0  0
   44.1170   34.4830   47.5190 N   0  0  0  0  0  0  0  0  0  0  0  0
   49.3915   35.8671   40.4792 H   0  0  0  0  0  0  0  0  0  0  0  0
   48.9527   33.7809   39.0984 H   0  0  0  0  0  0  0  0  0  0  0  0
   47.0423   32.2853   39.8040 H   0  0  0  0  0  0  0  0  0  0  0  0
   44.8167   36.7814   42.9366 H   0  0  0  0  0  0  0  0  0  0  0  0
   48.4418   30.0901   44.7756 H   0  0  0  0  0  0  0  0  0  0  0  0
   46.7118   30.3008   44.3264 H   0  0  0  0  0  0  0  0  0  0  0  0
   45.9896   28.6422   45.7509 H   0  0  0  0  0  0  0  0  0  0  0  0
   47.6338   28.0180   45.2405 H   0  0  0  0  0  0  0  0  0  0  0  0
   48.7019   29.3645   48.5593 H   0  0  0  0  0  0  0  0  0  0  0  0
   49.2947   29.4847   46.8459 H   0  0  0  0  0  0  0  0  0  0  0  0
   48.7918   31.7135   47.5149 H   0  0  0  0  0  0  0  0  0  0  0  0
   47.2422   31.2435   48.2538 H   0  0  0  0  0  0  0  0  0  0  0  0
   44.0175   33.9834   48.4142 H   0  0  0  0  0  0  0  0  0  0  0  0
   43.5743   35.3409   47.3449 H   0  0  0  0  0  0  0  0  0  0  0  0
  1  6  2  0
  2  3  2  0
  2  1  1  0
  3  4  1  0
  4  5  2  0
  5  7  1  0
  6  5  1  0
  7  8  1  0
  7 15  1  0
  8  9  2  0
  9 10  1  0
 10 11  2  0
 11 12  1  0
 11 22  1  0
 13 16  1  0
 13 12  2  0
 14 13  1  0
 15 14  2  0
 15 10  1  0
 16 21  1  0
 17 18  1  0
 17 16  1  0
 18 19  1  0
 19 20  1  0
 21 20  1  0
  1 23  1  0
  2 24  1  0
  3 25  1  0
  8 26  1  0
 17 27  1  0
 17 28  1  0
 18 29  1  0
 18 30  1  0
 20 31  1  0
 20 32  1  0
 21 33  1  0
 21 34  1  0
 22 35  1  0
 22 36  1  0
M  ISO  8  23  14  24  14  25  14  26  14  27  13  28  13  29  13  30  13
M  ISO  4  31  13  32  13  33  13  34  13
M  END
>  <minimizedAffinity>  (1) 
-6.53756237

>  <minimizedRMSD>  (1) 
0.718522072

$$$$
