
     RDKit          3D

 36 39  0  0  0  0  0  0  0  0999 V2000
   48.5750   35.1760   40.7780 C   0  0  0  0  0  0  0  0  0  0  0  0
   48.3590   34.0040   40.0260 C   0  0  0  0  0  0  0  0  0  0  0  0
   47.3210   33.1610   40.4090 C   0  0  0  0  0  0  0  0  0  0  0  0
   46.5680   33.5200   41.4980 N   0  0  0  0  0  0  0  0  0  0  0  0
   46.8060   34.6400   42.1860 C   0  0  0  0  0  0  0  0  0  0  0  0
   47.7990   35.4690   41.8370 N   0  0  0  0  0  0  0  0  0  0  0  0
   45.9680   34.9440   43.3190 N   0  0  0  0  0  0  0  0  0  0  0  0
   45.0730   35.9140   43.5880 C   0  0  0  0  0  0  0  0  0  0  0  0
   44.5770   35.7120   44.8180 N   0  0  0  0  0  0  0  0  0  0  0  0
   45.1660   34.5950   45.3390 C   0  0  0  0  0  0  0  0  0  0  0  0
   44.9830   33.9890   46.5660 C   0  0  0  0  0  0  0  0  0  0  0  0
   45.7120   32.8740   46.8220 N   0  0  0  0  0  0  0  0  0  0  0  0
   46.5690   32.3880   45.9180 C   0  0  0  0  0  0  0  0  0  0  0  0
   46.7200   33.0080   44.7300 N   0  0  0  0  0  0  0  0  0  0  0  0
   46.0430   34.1070   44.3990 C   0  0  0  0  0  0  0  0  0  0  0  0
   47.3360   31.2190   46.1780 N   0  0  0  0  0  0  0  0  0  0  0  0
   47.4680   30.2190   45.2950 C   0  0  0  0  0  0  0  0  0  0  0  0
   48.2330   29.1010   45.6090 C   0  0  0  0  0  0  0  0  0  0  0  0
   48.4100   27.9640   44.6660 C   0  0  0  0  0  0  0  0  0  0  0  0
   48.8740   28.9930   46.8320 C   0  0  0  0  0  0  0  0  0  0  0  0
   49.5790   28.0340   47.2040 O   0  0  0  0  0  0  0  0  0  0  0  0
   48.7290   30.0080   47.7040 N   0  0  0  0  0  0  0  0  0  0  0  0
   47.9780   31.0690   47.3540 C   0  0  0  0  0  0  0  0  0  0  0  0
   47.8710   31.9980   48.2050 O   0  0  0  0  0  0  0  0  0  0  0  0
   44.0830   34.4970   47.5200 N   0  0  0  0  0  0  0  0  0  0  0  0
   49.3887   35.8601   40.4954 H   0  0  0  0  0  0  0  0  0  0  0  0
   48.9934   33.7626   39.1604 H   0  0  0  0  0  0  0  0  0  0  0  0
   47.1103   32.2342   39.8552 H   0  0  0  0  0  0  0  0  0  0  0  0
   44.7949   36.7355   42.9114 H   0  0  0  0  0  0  0  0  0  0  0  0
   46.9686   30.2832   44.3170 H   0  0  0  0  0  0  0  0  0  0  0  0
   48.5547   27.0342   45.2357 H   0  0  0  0  0  0  0  0  0  0  0  0
   47.5156   27.8704   44.0325 H   0  0  0  0  0  0  0  0  0  0  0  0
   49.2905   28.1467   44.0325 H   0  0  0  0  0  0  0  0  0  0  0  0
   49.1863   29.9734   48.6263 H   0  0  0  0  0  0  0  0  0  0  0  0
   43.9700   34.0208   48.4263 H   0  0  0  0  0  0  0  0  0  0  0  0
   43.5369   35.3453   47.3124 H   0  0  0  0  0  0  0  0  0  0  0  0
  1  6  2  0
  2  3  2  0
  2  1  1  0
  3  4  1  0
  4  5  2  0
  5  7  1  0
  6  5  1  0
  7  8  1  0
  7 15  1  0
  8  9  2  0
  9 10  1  0
 10 11  2  0
 11 12  1  0
 11 25  1  0
 13 16  1  0
 13 12  2  0
 14 13  1  0
 15 14  2  0
 15 10  1  0
 16 23  1  0
 17 18  2  0
 17 16  1  0
 18 20  1  0
 19 18  1  0
 20 21  2  0
 20 22  1  0
 23 22  1  0
 23 24  2  0
  1 26  1  0
  2 27  1  0
  3 28  1  0
  8 29  1  0
 17 30  1  0
 19 31  1  0
 19 32  1  0
 19 33  1  0
 22 34  1  0
 25 35  1  0
 25 36  1  0
M  ISO  8  26  14  27  14  28  14  29  14  30  14  31   8  32   8  33   8
M  ISO  1  34   9
M  END
>  <minimizedAffinity>  (1) 
-6.94556236

>  <minimizedRMSD>  (1) 
0.792232096

$$$$
