
     RDKit          3D

 35 38  0  0  0  0  0  0  0  0999 V2000
   48.4210   35.2680   40.8110 C   0  0  0  0  0  0  0  0  0  0  0  0
   48.1690   34.1760   39.9370 C   0  0  0  0  0  0  0  0  0  0  0  0
   47.1810   33.2510   40.3140 C   0  0  0  0  0  0  0  0  0  0  0  0
   46.5300   33.4670   41.4970 N   0  0  0  0  0  0  0  0  0  0  0  0
   46.7980   34.5080   42.2900 C   0  0  0  0  0  0  0  0  0  0  0  0
   47.7360   35.4040   41.9520 N   0  0  0  0  0  0  0  0  0  0  0  0
   46.0600   34.6560   43.5230 N   0  0  0  0  0  0  0  0  0  0  0  0
   45.1780   35.5560   43.9830 C   0  0  0  0  0  0  0  0  0  0  0  0
   44.8010   35.1940   45.2180 N   0  0  0  0  0  0  0  0  0  0  0  0
   45.4650   34.0360   45.5390 C   0  0  0  0  0  0  0  0  0  0  0  0
   45.3990   33.2930   46.6990 C   0  0  0  0  0  0  0  0  0  0  0  0
   46.1590   32.1880   46.7600 N   0  0  0  0  0  0  0  0  0  0  0  0
   46.9480   31.8310   45.7230 C   0  0  0  0  0  0  0  0  0  0  0  0
   46.9840   32.5770   44.6160 N   0  0  0  0  0  0  0  0  0  0  0  0
   46.2580   33.6920   44.4750 C   0  0  0  0  0  0  0  0  0  0  0  0
   47.7380   30.6540   45.8280 N   0  0  0  0  0  0  0  0  0  0  0  0
   48.0230   29.9360   47.0780 C   0  0  0  0  0  0  0  0  0  0  0  0
   49.1590   28.9930   46.7400 C   0  0  0  0  0  0  0  0  0  0  0  0
   48.7860   28.6090   45.3150 C   0  0  0  0  0  0  0  0  0  0  0  0
   48.3970   29.9520   44.7400 C   0  0  0  0  0  0  0  0  0  0  0  0
   44.5940   33.6320   47.7930 N   0  0  0  0  0  0  0  0  0  0  0  0
   49.1884   36.0102   40.5461 H   0  0  0  0  0  0  0  0  0  0  0  0
   48.7285   34.0590   38.9972 H   0  0  0  0  0  0  0  0  0  0  0  0
   46.9399   32.3846   39.6806 H   0  0  0  0  0  0  0  0  0  0  0  0
   44.8231   36.4431   43.4380 H   0  0  0  0  0  0  0  0  0  0  0  0
   48.3268   30.6396   47.8671 H   0  0  0  0  0  0  0  0  0  0  0  0
   47.1402   29.3996   47.4561 H   0  0  0  0  0  0  0  0  0  0  0  0
   50.1341   29.5004   46.7819 H   0  0  0  0  0  0  0  0  0  0  0  0
   49.2700   28.1432   47.4296 H   0  0  0  0  0  0  0  0  0  0  0  0
   49.6415   28.1733   44.7781 H   0  0  0  0  0  0  0  0  0  0  0  0
   47.9991   27.8436   45.2454 H   0  0  0  0  0  0  0  0  0  0  0  0
   49.2895   30.5035   44.4093 H   0  0  0  0  0  0  0  0  0  0  0  0
   47.7442   29.8499   43.8606 H   0  0  0  0  0  0  0  0  0  0  0  0
   44.5882   33.0354   48.6326 H   0  0  0  0  0  0  0  0  0  0  0  0
   44.0075   34.4780   47.7583 H   0  0  0  0  0  0  0  0  0  0  0  0
  1  6  2  0
  2  3  2  0
  2  1  1  0
  3  4  1  0
  4  5  2  0
  5  7  1  0
  6  5  1  0
  7  8  1  0
  7 15  1  0
  8  9  2  0
  9 10  1  0
 10 11  2  0
 11 12  1  0
 11 21  1  0
 13 16  1  0
 13 12  2  0
 14 13  1  0
 15 14  2  0
 15 10  1  0
 16 17  1  0
 18 17  1  0
 19 18  1  0
 20 19  1  0
 20 16  1  0
  1 22  1  0
  2 23  1  0
  3 24  1  0
  8 25  1  0
 17 26  1  0
 17 27  1  0
 18 28  1  0
 18 29  1  0
 19 30  1  0
 19 31  1  0
 20 32  1  0
 20 33  1  0
 21 34  1  0
 21 35  1  0
M  ISO  8  22  14  23  14  24  14  25  14  26  13  27  13  28  13  29  13
M  ISO  4  30  13  31  13  32  13  33  13
M  END
>  <minimizedAffinity>  (1) 
-6.40274048

>  <minimizedRMSD>  (1) 
0.0879914612

$$$$
