
     RDKit          3D

 33 36  0  0  0  0  0  0  0  0999 V2000
   48.5320   35.2250   40.7080 C   0  0  0  0  0  0  0  0  0  0  0  0
   48.3210   34.0550   39.9520 C   0  0  0  0  0  0  0  0  0  0  0  0
   47.2910   33.1960   40.3540 C   0  0  0  0  0  0  0  0  0  0  0  0
   46.5620   33.5570   41.4560 N   0  0  0  0  0  0  0  0  0  0  0  0
   46.7940   34.6770   42.1470 C   0  0  0  0  0  0  0  0  0  0  0  0
   47.7710   35.5090   41.7810 N   0  0  0  0  0  0  0  0  0  0  0  0
   45.9690   34.9670   43.2940 N   0  0  0  0  0  0  0  0  0  0  0  0
   45.0770   35.9400   43.5750 C   0  0  0  0  0  0  0  0  0  0  0  0
   44.5950   35.7240   44.8050 N   0  0  0  0  0  0  0  0  0  0  0  0
   45.1830   34.6100   45.3070 C   0  0  0  0  0  0  0  0  0  0  0  0
   45.0100   33.9990   46.5280 C   0  0  0  0  0  0  0  0  0  0  0  0
   45.7330   32.8860   46.7730 N   0  0  0  0  0  0  0  0  0  0  0  0
   46.5940   32.3930   45.8540 C   0  0  0  0  0  0  0  0  0  0  0  0
   46.7410   33.0100   44.6760 N   0  0  0  0  0  0  0  0  0  0  0  0
   46.0600   34.1200   44.3550 C   0  0  0  0  0  0  0  0  0  0  0  0
   47.3460   31.1850   46.1850 C   0  0  0  0  0  0  0  0  0  0  0  0
   47.8300   30.3910   45.1630 C   0  0  0  0  0  0  0  0  0  0  0  0
   48.5390   29.2520   45.4980 C   0  0  0  0  0  0  0  0  0  0  0  0
   48.7340   28.9540   46.8480 C   0  0  0  0  0  0  0  0  0  0  0  0
   48.2520   29.7450   47.8660 C   0  0  0  0  0  0  0  0  0  0  0  0
   47.5430   30.8850   47.5160 C   0  0  0  0  0  0  0  0  0  0  0  0
   44.1290   34.4790   47.5030 N   0  0  0  0  0  0  0  0  0  0  0  0
   49.3336   35.9192   40.4158 H   0  0  0  0  0  0  0  0  0  0  0  0
   48.9444   33.8242   39.0756 H   0  0  0  0  0  0  0  0  0  0  0  0
   47.0755   32.2669   39.8059 H   0  0  0  0  0  0  0  0  0  0  0  0
   44.7947   36.7680   42.9081 H   0  0  0  0  0  0  0  0  0  0  0  0
   47.6558   30.6580   44.1102 H   0  0  0  0  0  0  0  0  0  0  0  0
   48.9420   28.5927   44.7151 H   0  0  0  0  0  0  0  0  0  0  0  0
   49.2980   28.0466   47.1097 H   0  0  0  0  0  0  0  0  0  0  0  0
   48.4230   29.4824   48.9204 H   0  0  0  0  0  0  0  0  0  0  0  0
   47.1399   31.5465   48.2970 H   0  0  0  0  0  0  0  0  0  0  0  0
   44.0362   33.9843   48.4016 H   0  0  0  0  0  0  0  0  0  0  0  0
   43.5732   35.3271   47.3222 H   0  0  0  0  0  0  0  0  0  0  0  0
  1  6  2  0
  2  3  2  0
  2  1  1  0
  3  4  1  0
  4  5  2  0
  5  7  1  0
  6  5  1  0
  7  8  1  0
  7 15  1  0
  8  9  2  0
  9 10  1  0
 10 11  2  0
 11 12  1  0
 11 22  1  0
 13 16  1  0
 13 12  2  0
 14 13  1  0
 15 14  2  0
 15 10  1  0
 16 21  2  0
 17 18  2  0
 17 16  1  0
 18 19  1  0
 19 20  2  0
 21 20  1  0
  1 23  1  0
  2 24  1  0
  3 25  1  0
  8 26  1  0
 17 27  1  0
 18 28  1  0
 19 29  1  0
 20 30  1  0
 21 31  1  0
 22 32  1  0
 22 33  1  0
M  ISO  8  23  14  24  14  25  14  26  14  27  14  28  14  29  14  30  14
M  ISO  1  31  14
M  END
>  <minimizedAffinity>  (1) 
-6.50716543

>  <minimizedRMSD>  (1) 
0.777411044

$$$$
