
     RDKit          3D

 29 32  0  0  0  0  0  0  0  0999 V2000
   45.9120   34.2880   41.9110 N   0  0  0  0  0  0  0  0  0  0  0  0
   45.3820   33.5860   40.8890 C   0  0  0  0  0  0  0  0  0  0  0  0
   46.2090   33.5810   39.8440 N   0  0  0  0  0  0  0  0  0  0  0  0
   47.2830   34.3000   40.2310 C   0  0  0  0  0  0  0  0  0  0  0  0
   47.1100   34.7470   41.5210 N   0  0  0  0  0  0  0  0  0  0  0  0
   48.4990   34.6390   39.5160 N   0  0  0  0  0  0  0  0  0  0  0  0
   44.1000   32.9800   41.0340 N   0  0  0  0  0  0  0  0  0  0  0  0
   43.6700   31.7180   41.1660 C   0  0  0  0  0  0  0  0  0  0  0  0
   42.3090   31.7250   41.2690 N   0  0  0  0  0  0  0  0  0  0  0  0
   41.8990   33.0110   41.2000 C   0  0  0  0  0  0  0  0  0  0  0  0
   40.6260   33.5380   41.2560 C   0  0  0  0  0  0  0  0  0  0  0  0
   40.4510   34.8830   41.1650 N   0  0  0  0  0  0  0  0  0  0  0  0
   41.5480   35.6480   41.0210 C   0  0  0  0  0  0  0  0  0  0  0  0
   42.7790   35.1370   40.9670 N   0  0  0  0  0  0  0  0  0  0  0  0
   43.0070   33.7950   41.0540 C   0  0  0  0  0  0  0  0  0  0  0  0
   44.4970   36.0200   44.9110 C   0  0  0  0  0  0  0  0  0  0  0  0
   44.8560   35.8270   43.5620 C   0  0  0  0  0  0  0  0  0  0  0  0
   45.4920   34.6210   43.2330 C   0  0  0  0  0  0  0  0  0  0  0  0
   45.7240   33.7140   44.2320 N   0  0  0  0  0  0  0  0  0  0  0  0
   45.3600   33.9470   45.5110 C   0  0  0  0  0  0  0  0  0  0  0  0
   44.7570   35.0840   45.8340 N   0  0  0  0  0  0  0  0  0  0  0  0
   49.2253   35.2067   39.9754 H   0  0  0  0  0  0  0  0  0  0  0  0
   48.6360   34.3120   38.5489 H   0  0  0  0  0  0  0  0  0  0  0  0
   44.3090   30.8229   41.1878 H   0  0  0  0  0  0  0  0  0  0  0  0
   39.7571   32.8738   41.3736 H   0  0  0  0  0  0  0  0  0  0  0  0
   41.4251   36.7384   40.9447 H   0  0  0  0  0  0  0  0  0  0  0  0
   43.9961   36.9524   45.2106 H   0  0  0  0  0  0  0  0  0  0  0  0
   44.6461   36.5906   42.7986 H   0  0  0  0  0  0  0  0  0  0  0  0
   45.5635   33.1935   46.2861 H   0  0  0  0  0  0  0  0  0  0  0  0
  1 18  1  0
  2  7  1  0
  2  1  1  0
  3  4  1  0
  3  2  2  0
  4  5  2  0
  5  1  1  0
  6  4  1  0
  7 15  1  0
  7  8  1  0
  8  9  2  0
 10 11  2  0
 10  9  1  0
 12 11  1  0
 13 12  2  0
 14 13  1  0
 14 15  2  0
 15 10  1  0
 16 21  2  0
 17 16  1  0
 18 17  2  0
 18 19  1  0
 19 20  2  0
 20 21  1  0
  6 22  1  0
  6 23  1  0
  8 24  1  0
 11 25  1  0
 13 26  1  0
 16 27  1  0
 17 28  1  0
 20 29  1  0
M  ISO  6  24  14  25  14  26  14  27  14  28  14  29  14
M  END
>  <minimizedAffinity>  (1) 
-5.96942806

>  <minimizedRMSD>  (1) 
0.289449662

$$$$
