
     RDKit          3D

 33 36  0  0  0  0  0  0  0  0999 V2000
   48.5350   35.2220   40.7180 C   0  0  0  0  0  0  0  0  0  0  0  0
   48.3190   34.0490   39.9650 C   0  0  0  0  0  0  0  0  0  0  0  0
   47.2930   33.1940   40.3580 C   0  0  0  0  0  0  0  0  0  0  0  0
   46.5510   33.5380   41.4550 N   0  0  0  0  0  0  0  0  0  0  0  0
   46.7840   34.6580   42.1470 C   0  0  0  0  0  0  0  0  0  0  0  0
   47.7630   35.5030   41.7950 N   0  0  0  0  0  0  0  0  0  0  0  0
   45.9650   34.9560   43.2890 N   0  0  0  0  0  0  0  0  0  0  0  0
   45.0710   35.9290   43.5880 C   0  0  0  0  0  0  0  0  0  0  0  0
   44.5920   35.7150   44.8220 N   0  0  0  0  0  0  0  0  0  0  0  0
   45.1930   34.5880   45.3130 C   0  0  0  0  0  0  0  0  0  0  0  0
   45.0270   33.9640   46.5430 C   0  0  0  0  0  0  0  0  0  0  0  0
   45.7490   32.8530   46.7750 N   0  0  0  0  0  0  0  0  0  0  0  0
   46.5920   32.3720   45.8560 C   0  0  0  0  0  0  0  0  0  0  0  0
   46.7290   32.9990   44.6770 N   0  0  0  0  0  0  0  0  0  0  0  0
   46.0510   34.1080   44.3620 C   0  0  0  0  0  0  0  0  0  0  0  0
   47.3700   31.1600   46.1310 C   0  0  0  0  0  0  0  0  0  0  0  0
   47.8350   30.3900   45.0850 C   0  0  0  0  0  0  0  0  0  0  0  0
   48.5630   29.2550   45.3860 C   0  0  0  0  0  0  0  0  0  0  0  0
   48.8380   28.8710   46.6830 C   0  0  0  0  0  0  0  0  0  0  0  0
   48.3490   29.6800   47.7060 C   0  0  0  0  0  0  0  0  0  0  0  0
   47.6220   30.8130   47.4510 C   0  0  0  0  0  0  0  0  0  0  0  0
   44.1390   34.4680   47.5170 N   0  0  0  0  0  0  0  0  0  0  0  0
   49.3382   35.9153   40.4278 H   0  0  0  0  0  0  0  0  0  0  0  0
   48.9445   33.8160   39.0906 H   0  0  0  0  0  0  0  0  0  0  0  0
   47.0847   32.2679   39.8022 H   0  0  0  0  0  0  0  0  0  0  0  0
   44.7846   36.7596   42.9261 H   0  0  0  0  0  0  0  0  0  0  0  0
   47.6320   30.6716   44.0412 H   0  0  0  0  0  0  0  0  0  0  0  0
   48.9381   28.6331   44.5598 H   0  0  0  0  0  0  0  0  0  0  0  0
   49.4197   27.9629   46.8999 H   0  0  0  0  0  0  0  0  0  0  0  0
   48.5527   29.4008   48.7503 H   0  0  0  0  0  0  0  0  0  0  0  0
   47.2455   31.4353   48.2762 H   0  0  0  0  0  0  0  0  0  0  0  0
   44.0367   33.9839   48.4204 H   0  0  0  0  0  0  0  0  0  0  0  0
   43.5932   35.3200   47.3246 H   0  0  0  0  0  0  0  0  0  0  0  0
  1  6  2  0
  2  3  2  0
  2  1  1  0
  3  4  1  0
  4  5  2  0
  5  7  1  0
  6  5  1  0
  7  8  1  0
  7 15  1  0
  8  9  2  0
  9 10  1  0
 10 11  2  0
 11 12  1  0
 11 22  1  0
 13 16  1  0
 13 12  2  0
 14 13  1  0
 15 14  2  0
 15 10  1  0
 16 21  2  0
 17 18  2  0
 17 16  1  0
 18 19  1  0
 19 20  2  0
 21 20  1  0
  1 23  1  0
  2 24  1  0
  3 25  1  0
  8 26  1  0
 17 27  1  0
 18 28  1  0
 19 29  1  0
 20 30  1  0
 21 31  1  0
 22 32  1  0
 22 33  1  0
M  ISO  8  23  14  24  14  25  14  26  14  27  14  28  14  29  14  30  14
M  ISO  1  31  14
M  END
>  <minimizedAffinity>  (1) 
-6.45834494

>  <minimizedRMSD>  (1) 
0.755333066

$$$$
