
     RDKit          3D

 38 41  0  0  0  0  0  0  0  0999 V2000
   48.5340   35.2250   40.7250 C   0  0  0  0  0  0  0  0  0  0  0  0
   48.3280   34.0490   39.9720 C   0  0  0  0  0  0  0  0  0  0  0  0
   47.2970   33.1760   40.3650 C   0  0  0  0  0  0  0  0  0  0  0  0
   46.5500   33.5230   41.4640 N   0  0  0  0  0  0  0  0  0  0  0  0
   46.7780   34.6460   42.1470 C   0  0  0  0  0  0  0  0  0  0  0  0
   47.7550   35.4910   41.7880 N   0  0  0  0  0  0  0  0  0  0  0  0
   45.9510   34.9500   43.2950 N   0  0  0  0  0  0  0  0  0  0  0  0
   45.0600   35.9180   43.5730 C   0  0  0  0  0  0  0  0  0  0  0  0
   44.5840   35.7080   44.8130 N   0  0  0  0  0  0  0  0  0  0  0  0
   45.1920   34.5850   45.3190 C   0  0  0  0  0  0  0  0  0  0  0  0
   45.0180   33.9940   46.5450 C   0  0  0  0  0  0  0  0  0  0  0  0
   45.7430   32.8890   46.7940 N   0  0  0  0  0  0  0  0  0  0  0  0
   46.6000   32.3870   45.8800 C   0  0  0  0  0  0  0  0  0  0  0  0
   46.7330   33.0100   44.6880 N   0  0  0  0  0  0  0  0  0  0  0  0
   46.0490   34.1110   44.3640 C   0  0  0  0  0  0  0  0  0  0  0  0
   47.3670   31.2080   46.1600 N   0  0  0  0  0  0  0  0  0  0  0  0
   47.7450   30.3300   45.0710 C   0  0  0  0  0  0  0  0  0  0  0  0
   48.0090   28.9190   45.4760 C   0  0  0  0  0  0  0  0  0  0  0  0
   47.4190   28.5700   46.8220 C   0  0  0  0  0  0  0  0  0  0  0  0
   48.0500   29.5090   47.8240 C   0  0  0  0  0  0  0  0  0  0  0  0
   47.7380   30.9340   47.5310 C   0  0  0  0  0  0  0  0  0  0  0  0
   44.1340   34.4970   47.5160 N   0  0  0  0  0  0  0  0  0  0  0  0
   49.3335   35.9253   40.4415 H   0  0  0  0  0  0  0  0  0  0  0  0
   48.9579   33.8207   39.0996 H   0  0  0  0  0  0  0  0  0  0  0  0
   47.0961   32.2472   39.8109 H   0  0  0  0  0  0  0  0  0  0  0  0
   44.7704   36.7400   42.9018 H   0  0  0  0  0  0  0  0  0  0  0  0
   48.6586   30.7310   44.6079 H   0  0  0  0  0  0  0  0  0  0  0  0
   46.8890   30.3020   44.3808 H   0  0  0  0  0  0  0  0  0  0  0  0
   47.5742   28.2500   44.7188 H   0  0  0  0  0  0  0  0  0  0  0  0
   49.0996   28.7981   45.5539 H   0  0  0  0  0  0  0  0  0  0  0  0
   46.3279   28.7087   46.8061 H   0  0  0  0  0  0  0  0  0  0  0  0
   47.6163   27.5196   47.0824 H   0  0  0  0  0  0  0  0  0  0  0  0
   47.6725   29.2625   48.8274 H   0  0  0  0  0  0  0  0  0  0  0  0
   49.1411   29.3827   47.7653 H   0  0  0  0  0  0  0  0  0  0  0  0
   48.6279   31.5346   47.7705 H   0  0  0  0  0  0  0  0  0  0  0  0
   46.8613   31.1897   48.1442 H   0  0  0  0  0  0  0  0  0  0  0  0
   44.0379   34.0177   48.4226 H   0  0  0  0  0  0  0  0  0  0  0  0
   43.5826   35.3448   47.3207 H   0  0  0  0  0  0  0  0  0  0  0  0
  1  6  2  0
  2  3  2  0
  2  1  1  0
  3  4  1  0
  4  5  2  0
  5  7  1  0
  6  5  1  0
  7  8  1  0
  7 15  1  0
  8  9  2  0
  9 10  1  0
 10 11  2  0
 11 12  1  0
 11 22  1  0
 13 16  1  0
 13 12  2  0
 14 13  1  0
 15 14  2  0
 15 10  1  0
 16 21  1  0
 17 18  1  0
 17 16  1  0
 18 19  1  0
 19 20  1  0
 21 20  1  0
  1 23  1  0
  2 24  1  0
  3 25  1  0
  8 26  1  0
 17 27  1  0
 17 28  1  0
 18 29  1  0
 18 30  1  0
 19 31  1  0
 19 32  1  0
 20 33  1  0
 20 34  1  0
 21 35  1  0
 21 36  1  0
 22 37  1  0
 22 38  1  0
M  ISO  8  23  14  24  14  25  14  26  14  27  13  28  13  29  13  30  13
M  ISO  6  31  13  32  13  33  13  34  13  35  13  36  13
M  END
>  <minimizedAffinity>  (1) 
-6.68464565

>  <minimizedRMSD>  (1) 
0.708092153

$$$$
