
     RDKit          3D

 37 40  0  0  0  0  0  0  0  0999 V2000
   48.4850   35.2330   40.7580 C   0  0  0  0  0  0  0  0  0  0  0  0
   48.2450   34.1170   39.9340 C   0  0  0  0  0  0  0  0  0  0  0  0
   47.2210   33.2370   40.3190 C   0  0  0  0  0  0  0  0  0  0  0  0
   46.5260   33.5170   41.4650 N   0  0  0  0  0  0  0  0  0  0  0  0
   46.7910   34.5900   42.2140 C   0  0  0  0  0  0  0  0  0  0  0  0
   47.7650   35.4560   41.8750 N   0  0  0  0  0  0  0  0  0  0  0  0
   46.0120   34.8160   43.4090 N   0  0  0  0  0  0  0  0  0  0  0  0
   45.1330   35.7570   43.7880 C   0  0  0  0  0  0  0  0  0  0  0  0
   44.7010   35.4750   45.0310 N   0  0  0  0  0  0  0  0  0  0  0  0
   45.3310   34.3260   45.4290 C   0  0  0  0  0  0  0  0  0  0  0  0
   45.2080   33.6510   46.6260 C   0  0  0  0  0  0  0  0  0  0  0  0
   45.9520   32.5260   46.7710 N   0  0  0  0  0  0  0  0  0  0  0  0
   46.7680   32.0960   45.7880 C   0  0  0  0  0  0  0  0  0  0  0  0
   46.8530   32.7910   44.6390 N   0  0  0  0  0  0  0  0  0  0  0  0
   46.1530   33.9090   44.4170 C   0  0  0  0  0  0  0  0  0  0  0  0
   47.5250   30.9070   46.0010 N   0  0  0  0  0  0  0  0  0  0  0  0
   47.8410   30.1060   44.8110 C   0  0  0  0  0  0  0  0  0  0  0  0
   47.8090   28.6580   45.2700 C   0  0  0  0  0  0  0  0  0  0  0  0
   48.8130   28.5360   46.2960 N   0  0  0  0  0  0  0  0  0  0  0  0
   48.4750   29.2100   47.5110 C   0  0  0  0  0  0  0  0  0  0  0  0
   47.9180   30.5800   47.3560 C   0  0  0  0  0  0  0  0  0  0  0  0
   44.3650   34.0770   47.6650 N   0  0  0  0  0  0  0  0  0  0  0  0
   49.2806   35.9411   40.4830 H   0  0  0  0  0  0  0  0  0  0  0  0
   48.8369   33.9413   39.0237 H   0  0  0  0  0  0  0  0  0  0  0  0
   46.9837   32.3475   39.7169 H   0  0  0  0  0  0  0  0  0  0  0  0
   44.8171   36.6185   43.1813 H   0  0  0  0  0  0  0  0  0  0  0  0
   48.8392   30.3651   44.4282 H   0  0  0  0  0  0  0  0  0  0  0  0
   47.1253   30.2896   43.9961 H   0  0  0  0  0  0  0  0  0  0  0  0
   46.8174   28.4091   45.6761 H   0  0  0  0  0  0  0  0  0  0  0  0
   48.0056   27.9697   44.4348 H   0  0  0  0  0  0  0  0  0  0  0  0
   48.9457   27.5361   46.5044 H   0  0  0  0  0  0  0  0  0  0  0  0
   47.7280   28.5995   48.0394 H   0  0  0  0  0  0  0  0  0  0  0  0
   49.4210   29.3316   48.0591 H   0  0  0  0  0  0  0  0  0  0  0  0
   48.6823   31.3025   47.6782 H   0  0  0  0  0  0  0  0  0  0  0  0
   47.0069   30.6242   47.9707 H   0  0  0  0  0  0  0  0  0  0  0  0
   44.3108   33.5351   48.5392 H   0  0  0  0  0  0  0  0  0  0  0  0
   43.8008   34.9314   47.5529 H   0  0  0  0  0  0  0  0  0  0  0  0
  1  6  2  0
  2  3  2  0
  2  1  1  0
  3  4  1  0
  4  5  2  0
  5  7  1  0
  6  5  1  0
  7  8  1  0
  7 15  1  0
  8  9  2  0
  9 10  1  0
 10 11  2  0
 11 12  1  0
 11 22  1  0
 13 16  1  0
 13 12  2  0
 14 13  1  0
 15 14  2  0
 15 10  1  0
 16 21  1  0
 17 18  1  0
 17 16  1  0
 18 19  1  0
 19 20  1  0
 21 20  1  0
  1 23  1  0
  2 24  1  0
  3 25  1  0
  8 26  1  0
 17 27  1  0
 17 28  1  0
 18 29  1  0
 18 30  1  0
 19 31  1  0
 20 32  1  0
 20 33  1  0
 21 34  1  0
 21 35  1  0
 22 36  1  0
 22 37  1  0
M  ISO  8  23  14  24  14  25  14  26  14  27  13  28  13  29  13  30  13
M  ISO  5  31   5  32  13  33  13  34  13  35  13
M  END
>  <minimizedAffinity>  (1) 
-6.53043842

>  <minimizedRMSD>  (1) 
0.375683248

$$$$
