
     RDKit          3D

 32 35  0  0  0  0  0  0  0  0999 V2000
   45.8120   34.2810   41.7690 N   0  0  0  0  0  0  0  0  0  0  0  0
   45.2300   33.6980   40.7270 C   0  0  0  0  0  0  0  0  0  0  0  0
   46.0690   33.6130   39.6880 N   0  0  0  0  0  0  0  0  0  0  0  0
   47.2170   34.1660   40.1040 C   0  0  0  0  0  0  0  0  0  0  0  0
   47.0660   34.5810   41.3900 N   0  0  0  0  0  0  0  0  0  0  0  0
   48.4600   34.3430   39.3960 N   0  0  0  0  0  0  0  0  0  0  0  0
   43.8470   33.2410   40.7960 C   0  0  0  0  0  0  0  0  0  0  0  0
   43.2770   32.1120   41.3450 C   0  0  0  0  0  0  0  0  0  0  0  0
   41.9540   32.1340   41.1550 N   0  0  0  0  0  0  0  0  0  0  0  0
   41.5850   33.2590   40.4810 C   0  0  0  0  0  0  0  0  0  0  0  0
   40.3500   33.6790   40.0820 C   0  0  0  0  0  0  0  0  0  0  0  0
   40.2890   34.8820   39.4060 C   0  0  0  0  0  0  0  0  0  0  0  0
   41.4150   35.6040   39.1570 C   0  0  0  0  0  0  0  0  0  0  0  0
   42.6530   35.1380   39.5830 C   0  0  0  0  0  0  0  0  0  0  0  0
   42.7720   33.9280   40.2700 C   0  0  0  0  0  0  0  0  0  0  0  0
   44.4670   36.0550   44.7720 C   0  0  0  0  0  0  0  0  0  0  0  0
   44.7880   35.8240   43.4250 C   0  0  0  0  0  0  0  0  0  0  0  0
   45.4360   34.6290   43.0850 C   0  0  0  0  0  0  0  0  0  0  0  0
   45.7210   33.7380   44.1060 N   0  0  0  0  0  0  0  0  0  0  0  0
   45.3890   34.0050   45.3990 C   0  0  0  0  0  0  0  0  0  0  0  0
   44.7680   35.1550   45.7130 N   0  0  0  0  0  0  0  0  0  0  0  0
   49.2596   34.7931   39.8639 H   0  0  0  0  0  0  0  0  0  0  0  0
   48.5486   34.0194   38.4222 H   0  0  0  0  0  0  0  0  0  0  0  0
   43.8284   31.3128   41.8620 H   0  0  0  0  0  0  0  0  0  0  0  0
   41.3036   31.4018   41.4740 H   0  0  0  0  0  0  0  0  0  0  0  0
   39.4457   33.0878   40.2888 H   0  0  0  0  0  0  0  0  0  0  0  0
   39.3152   35.2621   39.0637 H   0  0  0  0  0  0  0  0  0  0  0  0
   41.3452   36.5597   38.6168 H   0  0  0  0  0  0  0  0  0  0  0  0
   43.5549   35.7326   39.3754 H   0  0  0  0  0  0  0  0  0  0  0  0
   43.9610   36.9893   45.0567 H   0  0  0  0  0  0  0  0  0  0  0  0
   44.5361   36.5656   42.6526 H   0  0  0  0  0  0  0  0  0  0  0  0
   45.6295   33.2779   46.1886 H   0  0  0  0  0  0  0  0  0  0  0  0
  1 18  1  0
  2  7  1  0
  2  1  1  0
  3  4  1  0
  3  2  2  0
  4  5  2  0
  5  1  1  0
  6  4  1  0
  7  8  2  0
  9  8  1  0
 10  9  1  0
 11 10  2  0
 12 11  1  0
 13 12  2  0
 13 14  1  0
 14 15  2  0
 15 10  1  0
 15  7  1  0
 16 21  2  0
 17 16  1  0
 18 17  2  0
 18 19  1  0
 19 20  2  0
 20 21  1  0
  6 22  1  0
  6 23  1  0
  8 24  1  0
  9 25  1  0
 11 26  1  0
 12 27  1  0
 13 28  1  0
 14 29  1  0
 16 30  1  0
 17 31  1  0
 20 32  1  0
M  ISO  8  24  14  25   9  26  14  27  14  28  14  29  14  30  14  31  14
M  ISO  1  32  14
M  END
>  <minimizedAffinity>  (1) 
-5.93010998

>  <minimizedRMSD>  (1) 
1.814749

$$$$
