
     RDKit          3D

 36 39  0  0  0  0  0  0  0  0999 V2000
   48.5330   35.1680   40.7200 C   0  0  0  0  0  0  0  0  0  0  0  0
   48.3130   33.9970   39.9700 C   0  0  0  0  0  0  0  0  0  0  0  0
   47.2790   33.1570   40.3730 C   0  0  0  0  0  0  0  0  0  0  0  0
   46.5430   33.5210   41.4690 N   0  0  0  0  0  0  0  0  0  0  0  0
   46.7910   34.6560   42.1580 C   0  0  0  0  0  0  0  0  0  0  0  0
   47.7730   35.4700   41.7910 N   0  0  0  0  0  0  0  0  0  0  0  0
   45.9610   34.9550   43.3000 N   0  0  0  0  0  0  0  0  0  0  0  0
   45.0680   35.9230   43.5760 C   0  0  0  0  0  0  0  0  0  0  0  0
   44.5820   35.7180   44.8060 N   0  0  0  0  0  0  0  0  0  0  0  0
   45.1790   34.6040   45.3150 C   0  0  0  0  0  0  0  0  0  0  0  0
   45.0080   33.9950   46.5420 C   0  0  0  0  0  0  0  0  0  0  0  0
   45.7350   32.8820   46.8020 N   0  0  0  0  0  0  0  0  0  0  0  0
   46.5870   32.4000   45.8860 C   0  0  0  0  0  0  0  0  0  0  0  0
   46.7340   33.0120   44.7010 N   0  0  0  0  0  0  0  0  0  0  0  0
   46.0510   34.1170   44.3700 C   0  0  0  0  0  0  0  0  0  0  0  0
   48.8410   28.9290   46.8220 C   0  0  0  0  0  0  0  0  0  0  0  0
   48.3750   29.7450   47.8480 C   0  0  0  0  0  0  0  0  0  0  0  0
   47.6540   30.8510   47.4800 C   0  0  0  0  0  0  0  0  0  0  0  0
   47.3640   31.2000   46.1770 C   0  0  0  0  0  0  0  0  0  0  0  0
   47.8260   30.3930   45.1580 C   0  0  0  0  0  0  0  0  0  0  0  0
   48.5610   29.2630   45.5010 C   0  0  0  0  0  0  0  0  0  0  0  0
   49.7580   27.5230   47.2820 S   0  0  0  0  0  0  0  0  0  0  0  0
   51.0800   28.0390   47.8280 O   0  0  0  0  0  0  0  0  0  0  0  0
   49.0550   26.9280   48.4870 O   0  0  0  0  0  0  0  0  0  0  0  0
   44.1160   34.4910   47.5100 N   0  0  0  0  0  0  0  0  0  0  0  0
   49.3430   35.8514   40.4253 H   0  0  0  0  0  0  0  0  0  0  0  0
   48.9362   33.7546   39.0966 H   0  0  0  0  0  0  0  0  0  0  0  0
   47.0593   32.2277   39.8270 H   0  0  0  0  0  0  0  0  0  0  0  0
   44.7847   36.7456   42.9029 H   0  0  0  0  0  0  0  0  0  0  0  0
   48.5757   29.5135   48.9045 H   0  0  0  0  0  0  0  0  0  0  0  0
   47.2801   31.5068   48.2801 H   0  0  0  0  0  0  0  0  0  0  0  0
   47.6192   30.6360   44.1053 H   0  0  0  0  0  0  0  0  0  0  0  0
   48.9344   28.6098   44.6985 H   0  0  0  0  0  0  0  0  0  0  0  0
   49.8993   26.6412   46.2431 H   0  0  0  0  0  0  0  0  0  0  0  0
   44.0165   34.0079   48.4142 H   0  0  0  0  0  0  0  0  0  0  0  0
   43.5623   35.3372   47.3146 H   0  0  0  0  0  0  0  0  0  0  0  0
  1  6  2  0
  2  3  2  0
  2  1  1  0
  3  4  1  0
  4  5  2  0
  5  7  1  0
  6  5  1  0
  7  8  1  0
  7 15  1  0
  8  9  2  0
  9 10  1  0
 10 11  2  0
 11 12  1  0
 11 25  1  0
 13 19  1  0
 13 12  2  0
 14 13  1  0
 15 14  2  0
 15 10  1  0
 16 22  1  0
 16 17  2  0
 18 17  1  0
 19 18  2  0
 20 21  2  0
 20 19  1  0
 21 16  1  0
 22 23  2  0
 22 24  2  0
  1 26  1  0
  2 27  1  0
  3 28  1  0
  8 29  1  0
 17 30  1  0
 18 31  1  0
 20 32  1  0
 21 33  1  0
 22 34  1  0
 25 35  1  0
 25 36  1  0
M  ISO  8  26  14  27  14  28  14  29  14  30  14  31  14  32  14  33  14
M  ISO  1  34  11
M  END
>  <minimizedAffinity>  (1) 
-6.40103197

>  <minimizedRMSD>  (1) 
0.935298204

$$$$
