
     RDKit          3D

 24 26  0  0  0  0  0  0  0  0999 V2000
   48.4250   35.2850   40.8160 C   0  0  0  0  0  0  0  0  0  0  0  0
   48.1600   34.2120   39.9430 C   0  0  0  0  0  0  0  0  0  0  0  0
   47.1720   33.2780   40.3080 C   0  0  0  0  0  0  0  0  0  0  0  0
   46.5300   33.4790   41.5010 N   0  0  0  0  0  0  0  0  0  0  0  0
   46.8120   34.5200   42.3090 C   0  0  0  0  0  0  0  0  0  0  0  0
   47.7450   35.4000   41.9630 N   0  0  0  0  0  0  0  0  0  0  0  0
   46.0810   34.6420   43.5410 N   0  0  0  0  0  0  0  0  0  0  0  0
   45.1920   35.5380   44.0130 C   0  0  0  0  0  0  0  0  0  0  0  0
   44.8170   35.1620   45.2450 N   0  0  0  0  0  0  0  0  0  0  0  0
   45.4780   34.0160   45.5550 C   0  0  0  0  0  0  0  0  0  0  0  0
   45.4220   33.2560   46.7030 C   0  0  0  0  0  0  0  0  0  0  0  0
   46.1930   32.1470   46.7510 N   0  0  0  0  0  0  0  0  0  0  0  0
   46.9770   31.8070   45.7170 C   0  0  0  0  0  0  0  0  0  0  0  0
   47.0140   32.5640   44.6110 N   0  0  0  0  0  0  0  0  0  0  0  0
   46.2770   33.6860   44.4820 C   0  0  0  0  0  0  0  0  0  0  0  0
   44.6120   33.5870   47.8000 N   0  0  0  0  0  0  0  0  0  0  0  0
   47.7900   30.6790   45.7130 O   0  0  0  0  0  0  0  0  0  0  0  0
   49.1917   36.0293   40.5548 H   0  0  0  0  0  0  0  0  0  0  0  0
   48.7124   34.1062   38.9977 H   0  0  0  0  0  0  0  0  0  0  0  0
   46.9259   32.4224   39.6620 H   0  0  0  0  0  0  0  0  0  0  0  0
   44.8335   36.4293   43.4773 H   0  0  0  0  0  0  0  0  0  0  0  0
   44.6059   32.9852   48.6359 H   0  0  0  0  0  0  0  0  0  0  0  0
   44.0235   34.4318   47.7694 H   0  0  0  0  0  0  0  0  0  0  0  0
   48.3495   30.4749   44.9222 H   0  0  0  0  0  0  0  0  0  0  0  0
  1  6  2  0
  2  3  2  0
  2  1  1  0
  3  4  1  0
  4  5  2  0
  5  7  1  0
  6  5  1  0
  7  8  1  0
  7 15  1  0
  8  9  2  0
  9 10  1  0
 10 11  2  0
 11 12  1  0
 11 16  1  0
 13 12  2  0
 14 13  1  0
 15 14  2  0
 15 10  1  0
 17 13  1  0
  1 18  1  0
  2 19  1  0
  3 20  1  0
  8 21  1  0
 16 22  1  0
 16 23  1  0
 17 24  1  0
M  ISO  5  18  14  19  14  20  14  21  14  24   3
M  END
>  <minimizedAffinity>  (1) 
-5.83217955

>  <minimizedRMSD>  (1) 
0.0484337062

$$$$
