
     RDKit          3D

 30 33  0  0  0  0  0  0  0  0999 V2000
   48.5360   35.2280   40.7250 C   0  0  0  0  0  0  0  0  0  0  0  0
   48.3160   34.0570   39.9540 C   0  0  0  0  0  0  0  0  0  0  0  0
   47.2810   33.2180   40.3590 C   0  0  0  0  0  0  0  0  0  0  0  0
   46.5400   33.5480   41.4540 N   0  0  0  0  0  0  0  0  0  0  0  0
   46.7850   34.6730   42.1590 C   0  0  0  0  0  0  0  0  0  0  0  0
   47.7670   35.4870   41.7900 N   0  0  0  0  0  0  0  0  0  0  0  0
   45.9660   34.9630   43.3040 N   0  0  0  0  0  0  0  0  0  0  0  0
   45.0800   35.9290   43.6070 C   0  0  0  0  0  0  0  0  0  0  0  0
   44.6000   35.7060   44.8410 N   0  0  0  0  0  0  0  0  0  0  0  0
   45.1930   34.5810   45.3260 C   0  0  0  0  0  0  0  0  0  0  0  0
   45.0330   33.9450   46.5450 C   0  0  0  0  0  0  0  0  0  0  0  0
   45.7490   32.8340   46.7750 N   0  0  0  0  0  0  0  0  0  0  0  0
   46.5970   32.3540   45.8480 C   0  0  0  0  0  0  0  0  0  0  0  0
   46.7340   32.9900   44.6740 N   0  0  0  0  0  0  0  0  0  0  0  0
   46.0550   34.1030   44.3690 C   0  0  0  0  0  0  0  0  0  0  0  0
   47.3810   31.1450   46.0900 C   0  0  0  0  0  0  0  0  0  0  0  0
   47.6320   30.6990   47.3700 C   0  0  0  0  0  0  0  0  0  0  0  0
   48.3900   29.5470   47.2700 C   0  0  0  0  0  0  0  0  0  0  0  0
   48.5820   29.3160   45.9570 N   0  0  0  0  0  0  0  0  0  0  0  0
   47.9770   30.2730   45.2670 N   0  0  0  0  0  0  0  0  0  0  0  0
   44.1470   34.4380   47.5250 N   0  0  0  0  0  0  0  0  0  0  0  0
   49.3405   35.9247   40.4469 H   0  0  0  0  0  0  0  0  0  0  0  0
   48.9354   33.8226   39.0757 H   0  0  0  0  0  0  0  0  0  0  0  0
   47.0633   32.2963   39.7995 H   0  0  0  0  0  0  0  0  0  0  0  0
   44.7953   36.7649   42.9510 H   0  0  0  0  0  0  0  0  0  0  0  0
   47.2911   31.1736   48.3020 H   0  0  0  0  0  0  0  0  0  0  0  0
   48.7649   28.9355   48.1040 H   0  0  0  0  0  0  0  0  0  0  0  0
   49.1103   28.5279   45.5561 H   0  0  0  0  0  0  0  0  0  0  0  0
   44.0472   33.9450   48.4238 H   0  0  0  0  0  0  0  0  0  0  0  0
   43.5997   35.2911   47.3420 H   0  0  0  0  0  0  0  0  0  0  0  0
  1  6  2  0
  2  3  2  0
  2  1  1  0
  3  4  1  0
  4  5  2  0
  5  7  1  0
  6  5  1  0
  7  8  1  0
  7 15  1  0
  8  9  2  0
  9 10  1  0
 10 11  2  0
 11 12  1  0
 11 21  1  0
 13 16  1  0
 13 12  2  0
 14 13  1  0
 15 14  2  0
 15 10  1  0
 16 17  1  0
 18 17  2  0
 19 18  1  0
 20 19  1  0
 20 16  2  0
  1 22  1  0
  2 23  1  0
  3 24  1  0
  8 25  1  0
 17 26  1  0
 18 27  1  0
 19 28  1  0
 21 29  1  0
 21 30  1  0
M  ISO  7  22  14  23  14  24  14  25  14  26  14  27  14  28   9
M  END
>  <minimizedAffinity>  (1) 
-6.17927074

>  <minimizedRMSD>  (1) 
0.793255746

$$$$
