
     RDKit          3D

 26 28  0  0  0  0  0  0  0  0999 V2000
   48.5410   35.1940   40.7020 C   0  0  0  0  0  0  0  0  0  0  0  0
   48.2620   34.0350   39.9180 C   0  0  0  0  0  0  0  0  0  0  0  0
   47.2030   33.2170   40.3040 C   0  0  0  0  0  0  0  0  0  0  0  0
   46.4950   33.5830   41.4200 N   0  0  0  0  0  0  0  0  0  0  0  0
   46.7980   34.6950   42.1340 C   0  0  0  0  0  0  0  0  0  0  0  0
   47.8000   35.4920   41.7900 N   0  0  0  0  0  0  0  0  0  0  0  0
   45.9900   34.9870   43.2900 N   0  0  0  0  0  0  0  0  0  0  0  0
   45.1300   35.9810   43.6040 C   0  0  0  0  0  0  0  0  0  0  0  0
   44.6440   35.7530   44.8360 N   0  0  0  0  0  0  0  0  0  0  0  0
   45.2030   34.6000   45.3060 C   0  0  0  0  0  0  0  0  0  0  0  0
   45.0020   33.9790   46.5150 C   0  0  0  0  0  0  0  0  0  0  0  0
   45.6920   32.8280   46.7330 N   0  0  0  0  0  0  0  0  0  0  0  0
   46.5270   32.3340   45.7980 C   0  0  0  0  0  0  0  0  0  0  0  0
   46.7000   32.9640   44.6290 N   0  0  0  0  0  0  0  0  0  0  0  0
   46.0560   34.1070   44.3350 C   0  0  0  0  0  0  0  0  0  0  0  0
   47.2830   31.0750   46.0350 C   0  0  0  0  0  0  0  0  0  0  0  0
   46.4060   30.0050   46.1950 F   0  0  0  0  0  0  0  0  0  0  0  0
   48.1050   30.7790   44.9850 F   0  0  0  0  0  0  0  0  0  0  0  0
   47.9840   31.1540   47.2460 F   0  0  0  0  0  0  0  0  0  0  0  0
   44.1420   34.4650   47.5030 N   0  0  0  0  0  0  0  0  0  0  0  0
   49.3725   35.8546   40.4154 H   0  0  0  0  0  0  0  0  0  0  0  0
   48.8675   33.7939   39.0319 H   0  0  0  0  0  0  0  0  0  0  0  0
   46.9443   32.3117   39.7353 H   0  0  0  0  0  0  0  0  0  0  0  0
   44.8712   36.8338   42.9592 H   0  0  0  0  0  0  0  0  0  0  0  0
   44.0345   33.9524   48.3899 H   0  0  0  0  0  0  0  0  0  0  0  0
   43.6154   35.3359   47.3445 H   0  0  0  0  0  0  0  0  0  0  0  0
  1  6  2  0
  2  3  2  0
  2  1  1  0
  3  4  1  0
  4  5  2  0
  5  7  1  0
  6  5  1  0
  7  8  1  0
  7 15  1  0
  8  9  2  0
  9 10  1  0
 10 11  2  0
 11 12  1  0
 11 20  1  0
 13 16  1  0
 13 12  2  0
 14 13  1  0
 15 14  2  0
 15 10  1  0
 16 17  1  0
 16 19  1  0
 18 16  1  0
  1 21  1  0
  2 22  1  0
  3 23  1  0
  8 24  1  0
 20 25  1  0
 20 26  1  0
M  ISO  4  21  14  22  14  23  14  24  14
M  END
>  <minimizedAffinity>  (1) 
-6.05494261

>  <minimizedRMSD>  (1) 
0.677050292

$$$$
