
     RDKit          3D

 32 34  0  0  0  0  0  0  0  0999 V2000
   48.4920   35.1230   40.5280 C   0  0  0  0  0  0  0  0  0  0  0  0
   48.2020   33.9660   39.7620 C   0  0  0  0  0  0  0  0  0  0  0  0
   47.1350   33.1670   40.1890 C   0  0  0  0  0  0  0  0  0  0  0  0
   46.4370   33.5420   41.3090 N   0  0  0  0  0  0  0  0  0  0  0  0
   46.7530   34.6460   41.9940 C   0  0  0  0  0  0  0  0  0  0  0  0
   47.7700   35.4400   41.6200 N   0  0  0  0  0  0  0  0  0  0  0  0
   45.9750   34.9740   43.1590 N   0  0  0  0  0  0  0  0  0  0  0  0
   45.1330   35.9860   43.4670 C   0  0  0  0  0  0  0  0  0  0  0  0
   44.6750   35.7980   44.7090 N   0  0  0  0  0  0  0  0  0  0  0  0
   45.2340   34.6500   45.1970 C   0  0  0  0  0  0  0  0  0  0  0  0
   45.0690   34.0420   46.4290 C   0  0  0  0  0  0  0  0  0  0  0  0
   45.7460   32.9070   46.6540 N   0  0  0  0  0  0  0  0  0  0  0  0
   46.5520   32.3820   45.7120 C   0  0  0  0  0  0  0  0  0  0  0  0
   46.6970   32.9850   44.5270 N   0  0  0  0  0  0  0  0  0  0  0  0
   46.0590   34.1200   44.2230 C   0  0  0  0  0  0  0  0  0  0  0  0
   44.2300   34.5870   47.4240 N   0  0  0  0  0  0  0  0  0  0  0  0
   47.2850   31.1210   46.0000 C   0  0  0  0  0  0  0  0  0  0  0  0
   46.3820   29.9230   45.6710 C   0  0  0  0  0  0  0  0  0  0  0  0
   47.6100   31.0290   47.4850 C   0  0  0  0  0  0  0  0  0  0  0  0
   49.3239   35.7754   40.2243 H   0  0  0  0  0  0  0  0  0  0  0  0
   48.7907   33.7070   38.8696 H   0  0  0  0  0  0  0  0  0  0  0  0
   46.8613   32.2557   39.6370 H   0  0  0  0  0  0  0  0  0  0  0  0
   44.8687   36.8245   42.8058 H   0  0  0  0  0  0  0  0  0  0  0  0
   44.1291   34.1093   48.3309 H   0  0  0  0  0  0  0  0  0  0  0  0
   43.7185   35.4626   47.2434 H   0  0  0  0  0  0  0  0  0  0  0  0
   48.2057   31.1128   45.3981 H   0  0  0  0  0  0  0  0  0  0  0  0
   46.0327   29.4596   46.6055 H   0  0  0  0  0  0  0  0  0  0  0  0
   45.5161   30.2663   45.0859 H   0  0  0  0  0  0  0  0  0  0  0  0
   46.9505   29.1851   45.0859 H   0  0  0  0  0  0  0  0  0  0  0  0
   46.7152   31.2823   48.0725 H   0  0  0  0  0  0  0  0  0  0  0  0
   47.9301   30.0049   47.7275 H   0  0  0  0  0  0  0  0  0  0  0  0
   48.4194   31.7333   47.7275 H   0  0  0  0  0  0  0  0  0  0  0  0
  1  6  2  0
  2  3  2  0
  2  1  1  0
  3  4  1  0
  4  5  2  0
  5  7  1  0
  6  5  1  0
  7  8  1  0
  7 15  1  0
  8  9  2  0
  9 10  1  0
 10 11  2  0
 11 12  1  0
 11 16  1  0
 13 17  1  0
 13 12  2  0
 14 13  1  0
 15 14  2  0
 15 10  1  0
 17 19  1  0
 18 17  1  0
  1 20  1  0
  2 21  1  0
  3 22  1  0
  8 23  1  0
 16 24  1  0
 16 25  1  0
 17 26  1  0
 18 27  1  0
 18 28  1  0
 18 29  1  0
 19 30  1  0
 19 31  1  0
 19 32  1  0
M  ISO  8  20  14  21  14  22  14  23  14  26   8  27   8  28   8  29   8
M  ISO  3  30   8  31   8  32   8
M  END
>  <minimizedAffinity>  (1) 
-5.93653536

>  <minimizedRMSD>  (1) 
0.759170711

$$$$
