
     RDKit          3D

 26 28  0  0  0  0  0  0  0  0999 V2000
   48.5340   35.2550   40.7070 C   0  0  0  0  0  0  0  0  0  0  0  0
   48.2960   34.1190   39.9110 C   0  0  0  0  0  0  0  0  0  0  0  0
   47.2610   33.2700   40.2930 C   0  0  0  0  0  0  0  0  0  0  0  0
   46.5270   33.5790   41.4140 N   0  0  0  0  0  0  0  0  0  0  0  0
   46.7920   34.6820   42.1460 C   0  0  0  0  0  0  0  0  0  0  0  0
   47.7880   35.5190   41.8020 N   0  0  0  0  0  0  0  0  0  0  0  0
   45.9890   34.9470   43.3060 N   0  0  0  0  0  0  0  0  0  0  0  0
   45.1150   35.9100   43.6360 C   0  0  0  0  0  0  0  0  0  0  0  0
   44.6400   35.6760   44.8640 N   0  0  0  0  0  0  0  0  0  0  0  0
   45.2330   34.5280   45.3220 C   0  0  0  0  0  0  0  0  0  0  0  0
   45.0710   33.8790   46.5280 C   0  0  0  0  0  0  0  0  0  0  0  0
   45.7800   32.7520   46.7340 N   0  0  0  0  0  0  0  0  0  0  0  0
   46.6210   32.2850   45.7800 C   0  0  0  0  0  0  0  0  0  0  0  0
   46.7580   32.9360   44.6220 N   0  0  0  0  0  0  0  0  0  0  0  0
   46.0900   34.0600   44.3400 C   0  0  0  0  0  0  0  0  0  0  0  0
   44.2090   34.3360   47.5340 N   0  0  0  0  0  0  0  0  0  0  0  0
   47.3950   31.0660   45.9930 C   0  0  0  0  0  0  0  0  0  0  0  0
   47.9520   30.4640   45.0400 O   0  0  0  0  0  0  0  0  0  0  0  0
   47.5630   30.4980   47.2480 O   0  0  0  0  0  0  0  0  0  0  0  0
   49.3461   35.9438   40.4312 H   0  0  0  0  0  0  0  0  0  0  0  0
   48.9055   33.9096   39.0196 H   0  0  0  0  0  0  0  0  0  0  0  0
   47.0340   32.3667   39.7077 H   0  0  0  0  0  0  0  0  0  0  0  0
   44.8332   36.7594   42.9963 H   0  0  0  0  0  0  0  0  0  0  0  0
   44.1252   33.8128   48.4173 H   0  0  0  0  0  0  0  0  0  0  0  0
   43.6593   35.1951   47.3901 H   0  0  0  0  0  0  0  0  0  0  0  0
   48.0960   29.6699   47.3492 H   0  0  0  0  0  0  0  0  0  0  0  0
  1  6  2  0
  2  3  2  0
  2  1  1  0
  3  4  1  0
  4  5  2  0
  5  7  1  0
  6  5  1  0
  7  8  1  0
  7 15  1  0
  8  9  2  0
  9 10  1  0
 10 11  2  0
 11 12  1  0
 11 16  1  0
 13 17  1  0
 13 12  2  0
 14 13  1  0
 15 14  2  0
 15 10  1  0
 17 19  1  0
 18 17  2  0
  1 20  1  0
  2 21  1  0
  3 22  1  0
  8 23  1  0
 16 24  1  0
 16 25  1  0
 19 26  1  0
M  ISO  5  20  14  21  14  22  14  23  14  26   3
M  END
>  <minimizedAffinity>  (1) 
-5.85547781

>  <minimizedRMSD>  (1) 
0.610987067

$$$$
