
     RDKit          3D

 28 31  0  0  0  0  0  0  0  0999 V2000
   48.5370   35.2180   40.7110 C   0  0  0  0  0  0  0  0  0  0  0  0
   48.3050   34.0450   39.9550 C   0  0  0  0  0  0  0  0  0  0  0  0
   47.2640   33.1870   40.3530 C   0  0  0  0  0  0  0  0  0  0  0  0
   46.5390   33.5490   41.4570 N   0  0  0  0  0  0  0  0  0  0  0  0
   46.7930   34.6820   42.1540 C   0  0  0  0  0  0  0  0  0  0  0  0
   47.7760   35.5050   41.7890 N   0  0  0  0  0  0  0  0  0  0  0  0
   45.9700   34.9700   43.3000 N   0  0  0  0  0  0  0  0  0  0  0  0
   45.0790   35.9380   43.5940 C   0  0  0  0  0  0  0  0  0  0  0  0
   44.5960   35.7180   44.8220 N   0  0  0  0  0  0  0  0  0  0  0  0
   45.1960   34.5860   45.3170 C   0  0  0  0  0  0  0  0  0  0  0  0
   45.0120   33.9810   46.5370 C   0  0  0  0  0  0  0  0  0  0  0  0
   45.7390   32.8580   46.7790 N   0  0  0  0  0  0  0  0  0  0  0  0
   46.5910   32.3830   45.8510 C   0  0  0  0  0  0  0  0  0  0  0  0
   46.7360   33.0090   44.6740 N   0  0  0  0  0  0  0  0  0  0  0  0
   46.0530   34.1270   44.3560 C   0  0  0  0  0  0  0  0  0  0  0  0
   47.3830   31.1780   46.0870 C   0  0  0  0  0  0  0  0  0  0  0  0
   47.9260   30.2970   45.2260 N   0  0  0  0  0  0  0  0  0  0  0  0
   48.5590   29.3600   45.8840 O   0  0  0  0  0  0  0  0  0  0  0  0
   48.4550   29.5880   47.1680 C   0  0  0  0  0  0  0  0  0  0  0  0
   47.7180   30.7270   47.3110 N   0  0  0  0  0  0  0  0  0  0  0  0
   44.1310   34.4600   47.5120 N   0  0  0  0  0  0  0  0  0  0  0  0
   49.3457   35.9035   40.4177 H   0  0  0  0  0  0  0  0  0  0  0  0
   48.9241   33.8095   39.0767 H   0  0  0  0  0  0  0  0  0  0  0  0
   47.0412   32.2626   39.7999 H   0  0  0  0  0  0  0  0  0  0  0  0
   44.7960   36.7709   42.9335 H   0  0  0  0  0  0  0  0  0  0  0  0
   48.8807   28.9776   47.9780 H   0  0  0  0  0  0  0  0  0  0  0  0
   44.0357   33.9627   48.4090 H   0  0  0  0  0  0  0  0  0  0  0  0
   43.5775   35.3100   47.3330 H   0  0  0  0  0  0  0  0  0  0  0  0
  1  6  2  0
  2  3  2  0
  2  1  1  0
  3  4  1  0
  4  5  2  0
  5  7  1  0
  6  5  1  0
  7  8  1  0
  7 15  1  0
  8  9  2  0
  9 10  1  0
 10 11  2  0
 11 12  1  0
 11 21  1  0
 13 16  1  0
 13 12  2  0
 14 13  1  0
 15 14  2  0
 15 10  1  0
 16 20  1  0
 17 18  1  0
 17 16  2  0
 18 19  1  0
 19 20  2  0
  1 22  1  0
  2 23  1  0
  3 24  1  0
  8 25  1  0
 19 26  1  0
 21 27  1  0
 21 28  1  0
M  ISO  5  22  14  23  14  24  14  25  14  26  14
M  END
>  <minimizedAffinity>  (1) 
-6.13688087

>  <minimizedRMSD>  (1) 
0.704065084

$$$$
