
     RDKit          3D

 29 31  0  0  0  0  0  0  0  0999 V2000
   48.5330   35.2600   40.6910 C   0  0  0  0  0  0  0  0  0  0  0  0
   48.2710   34.1330   39.8870 C   0  0  0  0  0  0  0  0  0  0  0  0
   47.2250   33.2900   40.2630 C   0  0  0  0  0  0  0  0  0  0  0  0
   46.5190   33.6130   41.3910 N   0  0  0  0  0  0  0  0  0  0  0  0
   46.8060   34.7090   42.1350 C   0  0  0  0  0  0  0  0  0  0  0  0
   47.7970   35.5220   41.7930 N   0  0  0  0  0  0  0  0  0  0  0  0
   46.0090   34.9600   43.2960 N   0  0  0  0  0  0  0  0  0  0  0  0
   45.1300   35.9330   43.6370 C   0  0  0  0  0  0  0  0  0  0  0  0
   44.6610   35.6730   44.8670 N   0  0  0  0  0  0  0  0  0  0  0  0
   45.2490   34.5230   45.3130 C   0  0  0  0  0  0  0  0  0  0  0  0
   45.0820   33.8630   46.5170 C   0  0  0  0  0  0  0  0  0  0  0  0
   45.7910   32.7350   46.7060 N   0  0  0  0  0  0  0  0  0  0  0  0
   46.6240   32.2830   45.7510 C   0  0  0  0  0  0  0  0  0  0  0  0
   46.7760   32.9360   44.5870 N   0  0  0  0  0  0  0  0  0  0  0  0
   46.1000   34.0710   44.3260 C   0  0  0  0  0  0  0  0  0  0  0  0
   44.2150   34.3270   47.5190 N   0  0  0  0  0  0  0  0  0  0  0  0
   47.4040   31.0160   45.9950 C   0  0  0  0  0  0  0  0  0  0  0  0
   47.6260   30.8290   47.4800 C   0  0  0  0  0  0  0  0  0  0  0  0
   49.3529   35.9398   40.4159 H   0  0  0  0  0  0  0  0  0  0  0  0
   48.8728   33.9242   38.9902 H   0  0  0  0  0  0  0  0  0  0  0  0
   46.9757   32.3957   39.6731 H   0  0  0  0  0  0  0  0  0  0  0  0
   44.8481   36.7921   43.0105 H   0  0  0  0  0  0  0  0  0  0  0  0
   44.1209   33.8040   48.4013 H   0  0  0  0  0  0  0  0  0  0  0  0
   43.6730   35.1904   47.3718 H   0  0  0  0  0  0  0  0  0  0  0  0
   46.8405   30.1582   45.5991 H   0  0  0  0  0  0  0  0  0  0  0  0
   48.3777   31.0855   45.4880 H   0  0  0  0  0  0  0  0  0  0  0  0
   46.9013   31.4394   48.0388 H   0  0  0  0  0  0  0  0  0  0  0  0
   47.4904   29.7689   47.7404 H   0  0  0  0  0  0  0  0  0  0  0  0
   48.6476   31.1427   47.7404 H   0  0  0  0  0  0  0  0  0  0  0  0
  1  6  2  0
  2  3  2  0
  2  1  1  0
  3  4  1  0
  4  5  2  0
  5  7  1  0
  6  5  1  0
  7  8  1  0
  7 15  1  0
  8  9  2  0
  9 10  1  0
 10 11  2  0
 11 12  1  0
 11 16  1  0
 13 17  1  0
 13 12  2  0
 14 13  1  0
 15 14  2  0
 15 10  1  0
 17 18  1  0
  1 19  1  0
  2 20  1  0
  3 21  1  0
  8 22  1  0
 16 23  1  0
 16 24  1  0
 17 25  1  0
 17 26  1  0
 18 27  1  0
 18 28  1  0
 18 29  1  0
M  ISO  8  19  14  20  14  21  14  22  14  25   8  26   8  27   8  28   8
M  ISO  1  29   8
M  END
>  <minimizedAffinity>  (1) 
-5.81094408

>  <minimizedRMSD>  (1) 
0.724891603

$$$$
