
     RDKit          3D

 22 22  0  0  0  0  0  0  0  0999 V2000
   46.5750   33.5690   44.5120 C   0  0  0  0  0  0  0  0  0  0  0  0
   45.4170   34.3860   44.4710 C   0  0  0  0  0  0  0  0  0  0  0  0
   45.3250   35.3400   43.4400 C   0  0  0  0  0  0  0  0  0  0  0  0
   46.3580   35.4230   42.5420 N   0  0  0  0  0  0  0  0  0  0  0  0
   47.4400   34.6220   42.6260 C   0  0  0  0  0  0  0  0  0  0  0  0
   47.5440   33.7070   43.6000 N   0  0  0  0  0  0  0  0  0  0  0  0
   48.5530   34.7400   41.6250 C   0  0  0  0  0  0  0  0  0  0  0  0
   47.9780   34.4480   40.2520 C   0  0  0  0  0  0  0  0  0  0  0  0
   49.5850   33.6750   41.8900 C   0  0  0  0  0  0  0  0  0  0  0  0
   49.1510   36.1220   41.6340 C   0  0  0  0  0  0  0  0  0  0  0  0
   46.6780   32.8122   45.3036 H   0  0  0  0  0  0  0  0  0  0  0  0
   44.6179   34.2781   45.2192 H   0  0  0  0  0  0  0  0  0  0  0  0
   44.4491   36.0003   43.3570 H   0  0  0  0  0  0  0  0  0  0  0  0
   47.0020   33.9524   40.3610 H   0  0  0  0  0  0  0  0  0  0  0  0
   47.8508   35.3907   39.6997 H   0  0  0  0  0  0  0  0  0  0  0  0
   48.6642   33.7891   39.6997 H   0  0  0  0  0  0  0  0  0  0  0  0
   49.7092   33.5468   42.9754 H   0  0  0  0  0  0  0  0  0  0  0  0
   49.2547   32.7253   41.4440 H   0  0  0  0  0  0  0  0  0  0  0  0
   50.5447   33.9753   41.4440 H   0  0  0  0  0  0  0  0  0  0  0  0
   49.2941   36.4528   42.6733 H   0  0  0  0  0  0  0  0  0  0  0  0
   50.1221   36.1047   41.1177 H   0  0  0  0  0  0  0  0  0  0  0  0
   48.4736   36.8180   41.1177 H   0  0  0  0  0  0  0  0  0  0  0  0
  2  1  2  0
  3  2  1  0
  4  5  1  0
  4  3  2  0
  5  6  2  0
  6  1  1  0
  7 10  1  0
  7  9  1  0
  7  5  1  0
  8  7  1  0
  1 11  1  0
  2 12  1  0
  3 13  1  0
  8 14  1  0
  8 15  1  0
  8 16  1  0
  9 17  1  0
  9 18  1  0
  9 19  1  0
 10 20  1  0
 10 21  1  0
 10 22  1  0
M  ISO  8  11  14  12  14  13  14  14   8  15   8  16   8  17   8  18   8
M  ISO  4  19   8  20   8  21   8  22   8
M  END
>  <minimizedAffinity>  (1) 
-3.90145016

>  <minimizedRMSD>  (1) 
5.01175451

$$$$
