
     RDKit          3D

 31 33  0  0  0  0  0  0  0  0999 V2000
   46.0330   34.4210   41.9960 N   0  0  0  0  0  0  0  0  0  0  0  0
   45.4660   34.1240   40.8090 C   0  0  0  0  0  0  0  0  0  0  0  0
   46.3940   33.9120   39.8810 N   0  0  0  0  0  0  0  0  0  0  0  0
   47.5770   34.0790   40.5040 C   0  0  0  0  0  0  0  0  0  0  0  0
   47.3530   34.3950   41.8170 N   0  0  0  0  0  0  0  0  0  0  0  0
   48.9270   33.9800   39.9870 N   0  0  0  0  0  0  0  0  0  0  0  0
   44.4860   36.1120   44.9450 C   0  0  0  0  0  0  0  0  0  0  0  0
   44.9120   35.9360   43.6140 C   0  0  0  0  0  0  0  0  0  0  0  0
   45.5530   34.7320   43.2960 C   0  0  0  0  0  0  0  0  0  0  0  0
   45.7240   33.8120   44.2890 N   0  0  0  0  0  0  0  0  0  0  0  0
   45.3010   34.0240   45.5520 C   0  0  0  0  0  0  0  0  0  0  0  0
   44.6900   35.1630   45.8650 N   0  0  0  0  0  0  0  0  0  0  0  0
   41.2370   34.0150   40.8290 C   0  0  0  0  0  0  0  0  0  0  0  0
   41.8800   35.1770   40.4540 C   0  0  0  0  0  0  0  0  0  0  0  0
   43.2500   35.2240   40.4450 C   0  0  0  0  0  0  0  0  0  0  0  0
   44.0020   34.1050   40.8100 C   0  0  0  0  0  0  0  0  0  0  0  0
   43.3910   32.9240   41.1900 C   0  0  0  0  0  0  0  0  0  0  0  0
   42.0100   32.9420   41.1790 C   0  0  0  0  0  0  0  0  0  0  0  0
   39.4910   33.9650   40.8380 S   0  0  0  0  0  0  0  0  0  0  0  0
   39.0360   32.5540   40.6150 O   0  0  0  0  0  0  0  0  0  0  0  0
   38.9280   34.7910   39.7000 O   0  0  0  0  0  0  0  0  0  0  0  0
   49.7305   34.1408   40.6110 H   0  0  0  0  0  0  0  0  0  0  0  0
   49.0831   33.7488   38.9955 H   0  0  0  0  0  0  0  0  0  0  0  0
   43.9777   37.0443   45.2321 H   0  0  0  0  0  0  0  0  0  0  0  0
   44.7476   36.7139   42.8539 H   0  0  0  0  0  0  0  0  0  0  0  0
   45.4612   33.2555   46.3225 H   0  0  0  0  0  0  0  0  0  0  0  0
   41.2954   36.0623   40.1634 H   0  0  0  0  0  0  0  0  0  0  0  0
   43.7617   36.1513   40.1477 H   0  0  0  0  0  0  0  0  0  0  0  0
   43.9652   32.0320   41.4809 H   0  0  0  0  0  0  0  0  0  0  0  0
   41.4898   32.0192   41.4756 H   0  0  0  0  0  0  0  0  0  0  0  0
   39.0592   34.4537   42.0428 H   0  0  0  0  0  0  0  0  0  0  0  0
  1  9  1  0
  2 16  1  0
  2  1  1  0
  3  4  1  0
  3  2  2  0
  4  5  2  0
  5  1  1  0
  6  4  1  0
  7 12  2  0
  8  7  1  0
  9  8  2  0
  9 10  1  0
 10 11  2  0
 11 12  1  0
 13 19  1  0
 13 18  2  0
 14 13  1  0
 15 14  2  0
 15 16  1  0
 16 17  2  0
 18 17  1  0
 20 19  2  0
 21 19  2  0
  6 22  1  0
  6 23  1  0
  7 24  1  0
  8 25  1  0
 11 26  1  0
 14 27  1  0
 15 28  1  0
 17 29  1  0
 18 30  1  0
 19 31  1  0
M  ISO  8  24  14  25  14  26  14  27  14  28  14  29  14  30  14  31  11
M  END
>  <minimizedAffinity>  (1) 
-5.71640301

>  <minimizedRMSD>  (1) 
1.7193538

$$$$
