
     RDKit          3D

 23 23  0  0  0  0  0  0  0  0999 V2000
   47.0650   34.2740   42.1000 C   0  0  0  0  0  0  0  0  0  0  0  0
   45.4640   34.1290   45.4060 C   0  0  0  0  0  0  0  0  0  0  0  0
   44.6520   35.2820   45.4390 C   0  0  0  0  0  0  0  0  0  0  0  0
   44.6650   36.1070   44.3090 C   0  0  0  0  0  0  0  0  0  0  0  0
   45.4510   35.7620   43.2470 N   0  0  0  0  0  0  0  0  0  0  0  0
   46.2120   34.6460   43.2630 C   0  0  0  0  0  0  0  0  0  0  0  0
   46.2240   33.8260   44.3370 N   0  0  0  0  0  0  0  0  0  0  0  0
   46.1640   34.2170   40.8720 C   0  0  0  0  0  0  0  0  0  0  0  0
   47.6250   32.8980   42.2770 C   0  0  0  0  0  0  0  0  0  0  0  0
   48.1420   35.2980   41.8550 C   0  0  0  0  0  0  0  0  0  0  0  0
   49.7450   34.7880   42.4730 S   0  0  0  0  0  0  0  0  0  0  0  0
   45.4765   33.4588   46.2781 H   0  0  0  0  0  0  0  0  0  0  0  0
   44.0342   35.5225   46.3167 H   0  0  0  0  0  0  0  0  0  0  0  0
   44.0515   37.0195   44.2766 H   0  0  0  0  0  0  0  0  0  0  0  0
   45.1133   34.1505   41.1909 H   0  0  0  0  0  0  0  0  0  0  0  0
   46.3075   35.1260   40.2694 H   0  0  0  0  0  0  0  0  0  0  0  0
   46.4209   33.3333   40.2694 H   0  0  0  0  0  0  0  0  0  0  0  0
   47.7160   32.6744   43.3502 H   0  0  0  0  0  0  0  0  0  0  0  0
   46.9535   32.1654   41.8055 H   0  0  0  0  0  0  0  0  0  0  0  0
   48.6173   32.8425   41.8055 H   0  0  0  0  0  0  0  0  0  0  0  0
   48.2224   35.4701   40.7715 H   0  0  0  0  0  0  0  0  0  0  0  0
   47.8562   36.2125   42.3954 H   0  0  0  0  0  0  0  0  0  0  0  0
   49.7290   34.7931   43.8429 H   0  0  0  0  0  0  0  0  0  0  0  0
  1  9  1  0
  1  6  1  0
  2  3  2  0
  4  3  1  0
  5  6  1  0
  5  4  2  0
  6  7  2  0
  7  2  1  0
  8  1  1  0
 10  1  1  0
 10 11  1  0
  2 12  1  0
  3 13  1  0
  4 14  1  0
  8 15  1  0
  8 16  1  0
  8 17  1  0
  9 18  1  0
  9 19  1  0
  9 20  1  0
 10 21  1  0
 10 22  1  0
 11 23  1  0
M  ISO  8  12  14  13  14  14  14  15   8  16   8  17   8  18   8  19   8
M  ISO  4  20   8  21   8  22   8  23  11
M  END
>  <minimizedAffinity>  (1) 
-3.80535078

>  <minimizedRMSD>  (1) 
1.61316156

$$$$
