
     RDKit          3D

 33 35  0  0  0  0  0  0  0  0999 V2000
   45.9770   34.4510   41.5830 N   0  0  0  0  0  0  0  0  0  0  0  0
   45.4090   33.9810   40.4790 C   0  0  0  0  0  0  0  0  0  0  0  0
   46.3070   33.7680   39.5180 N   0  0  0  0  0  0  0  0  0  0  0  0
   47.4900   34.1210   40.0430 C   0  0  0  0  0  0  0  0  0  0  0  0
   47.2960   34.5490   41.3350 N   0  0  0  0  0  0  0  0  0  0  0  0
   48.8080   34.0990   39.4580 N   0  0  0  0  0  0  0  0  0  0  0  0
   44.0080   33.7550   40.3740 N   0  0  0  0  0  0  0  0  0  0  0  0
   43.1380   33.4610   39.2510 C   0  0  0  0  0  0  0  0  0  0  0  0
   42.2330   34.6390   39.0220 C   0  0  0  0  0  0  0  0  0  0  0  0
   41.6470   35.2430   40.2610 C   0  0  0  0  0  0  0  0  0  0  0  0
   42.4400   35.1080   41.5040 C   0  0  0  0  0  0  0  0  0  0  0  0
   43.2400   33.8350   41.6300 C   0  0  0  0  0  0  0  0  0  0  0  0
   44.6540   36.3340   44.5290 C   0  0  0  0  0  0  0  0  0  0  0  0
   45.0550   36.0910   43.2060 C   0  0  0  0  0  0  0  0  0  0  0  0
   45.5370   34.8360   42.8680 C   0  0  0  0  0  0  0  0  0  0  0  0
   45.5910   33.8920   43.8800 N   0  0  0  0  0  0  0  0  0  0  0  0
   45.1970   34.1600   45.1460 C   0  0  0  0  0  0  0  0  0  0  0  0
   44.7370   35.3660   45.4580 N   0  0  0  0  0  0  0  0  0  0  0  0
   49.6212   34.4091   40.0089 H   0  0  0  0  0  0  0  0  0  0  0  0
   48.9361   33.7732   38.4893 H   0  0  0  0  0  0  0  0  0  0  0  0
   43.7438   33.2790   38.3510 H   0  0  0  0  0  0  0  0  0  0  0  0
   42.5388   32.5638   39.4656 H   0  0  0  0  0  0  0  0  0  0  0  0
   42.8125   35.4180   38.5049 H   0  0  0  0  0  0  0  0  0  0  0  0
   41.3829   34.2614   38.4349 H   0  0  0  0  0  0  0  0  0  0  0  0
   41.5026   36.3171   40.0724 H   0  0  0  0  0  0  0  0  0  0  0  0
   40.7196   34.6812   40.4465 H   0  0  0  0  0  0  0  0  0  0  0  0
   43.1407   35.9546   41.5524 H   0  0  0  0  0  0  0  0  0  0  0  0
   41.7102   35.0883   42.3268 H   0  0  0  0  0  0  0  0  0  0  0  0
   42.5738   32.9659   41.7342 H   0  0  0  0  0  0  0  0  0  0  0  0
   43.8895   33.8356   42.5178 H   0  0  0  0  0  0  0  0  0  0  0  0
   44.2683   37.3256   44.8081 H   0  0  0  0  0  0  0  0  0  0  0  0
   44.9877   36.8853   42.4480 H   0  0  0  0  0  0  0  0  0  0  0  0
   45.2577   33.3784   45.9176 H   0  0  0  0  0  0  0  0  0  0  0  0
  1 15  1  0
  2  1  1  0
  3  4  1  0
  3  2  2  0
  4  5  2  0
  5  1  1  0
  6  4  1  0
  7  2  1  0
  7 12  1  0
  8  7  1  0
  9  8  1  0
  9 10  1  0
 10 11  1  0
 11 12  1  0
 13 18  2  0
 14 13  1  0
 15 14  2  0
 15 16  1  0
 16 17  2  0
 17 18  1  0
  6 19  1  0
  6 20  1  0
  8 21  1  0
  8 22  1  0
  9 23  1  0
  9 24  1  0
 10 25  1  0
 10 26  1  0
 11 27  1  0
 11 28  1  0
 12 29  1  0
 12 30  1  0
 13 31  1  0
 14 32  1  0
 17 33  1  0
M  ISO  8  21  13  22  13  23  13  24  13  25  13  26  13  27  13  28  13
M  ISO  5  29  13  30  13  31  14  32  14  33  14
M  END
>  <minimizedAffinity>  (1) 
-5.42889261

>  <minimizedRMSD>  (1) 
0.945843041

$$$$
