
     RDKit          3D

 34 35  0  0  0  0  0  0  0  0999 V2000
   45.7720   33.7560   41.3850 C   0  0  0  0  0  0  0  0  0  0  0  0
   45.3230   34.0810   45.0150 C   0  0  0  0  0  0  0  0  0  0  0  0
   44.8150   35.4080   45.1560 C   0  0  0  0  0  0  0  0  0  0  0  0
   44.6350   36.1670   43.9970 C   0  0  0  0  0  0  0  0  0  0  0  0
   44.9590   35.5910   42.7920 N   0  0  0  0  0  0  0  0  0  0  0  0
   45.4400   34.3220   42.7170 C   0  0  0  0  0  0  0  0  0  0  0  0
   45.6130   33.5960   43.8070 N   0  0  0  0  0  0  0  0  0  0  0  0
   44.5540   33.8080   40.4970 C   0  0  0  0  0  0  0  0  0  0  0  0
   46.1050   32.2850   41.5340 C   0  0  0  0  0  0  0  0  0  0  0  0
   46.8830   34.4850   40.6930 C   0  0  0  0  0  0  0  0  0  0  0  0
   48.1260   34.5930   41.4540 C   0  0  0  0  0  0  0  0  0  0  0  0
   48.6530   35.5320   42.2570 N   0  0  0  0  0  0  0  0  0  0  0  0
   49.8220   35.1270   42.7010 O   0  0  0  0  0  0  0  0  0  0  0  0
   50.1070   33.9490   42.2290 C   0  0  0  0  0  0  0  0  0  0  0  0
   49.0560   33.6090   41.4520 N   0  0  0  0  0  0  0  0  0  0  0  0
   51.2660   33.1550   42.4580 N   0  0  0  0  0  0  0  0  0  0  0  0
   51.5460   32.0570   41.6250 C   0  0  0  0  0  0  0  0  0  0  0  0
   51.2130   32.0720   40.3920 N   0  0  0  0  0  0  0  0  0  0  0  0
   52.2080   30.9050   42.1380 N   0  0  0  0  0  0  0  0  0  0  0  0
   50.7360   32.8110   39.8700 H   0  0  0  0  0  0  0  0  0  0  0  0
   45.4759   33.4558   45.9070 H   0  0  0  0  0  0  0  0  0  0  0  0
   44.5728   35.8200   46.1468 H   0  0  0  0  0  0  0  0  0  0  0  0
   44.2457   37.1946   44.0474 H   0  0  0  0  0  0  0  0  0  0  0  0
   43.6478   33.8467   41.1194 H   0  0  0  0  0  0  0  0  0  0  0  0
   44.6012   34.7049   39.8620 H   0  0  0  0  0  0  0  0  0  0  0  0
   44.5246   32.9103   39.8620 H   0  0  0  0  0  0  0  0  0  0  0  0
   46.1631   32.0286   42.6021 H   0  0  0  0  0  0  0  0  0  0  0  0
   45.3208   31.6811   41.0540 H   0  0  0  0  0  0  0  0  0  0  0  0
   47.0728   32.0777   41.0540 H   0  0  0  0  0  0  0  0  0  0  0  0
   47.1038   33.9563   39.7540 H   0  0  0  0  0  0  0  0  0  0  0  0
   46.5260   35.5148   40.5443 H   0  0  0  0  0  0  0  0  0  0  0  0
   51.9011   33.3851   43.2356 H   0  0  0  0  0  0  0  0  0  0  0  0
   52.4077   30.1070   41.5181 H   0  0  0  0  0  0  0  0  0  0  0  0
   52.4871   30.8699   43.1288 H   0  0  0  0  0  0  0  0  0  0  0  0
  1  9  1  0
  1  6  1  0
  2  3  2  0
  4  3  1  0
  5  4  2  0
  6  5  1  0
  6  7  2  0
  7  2  1  0
  8  1  1  0
 10  1  1  0
 10 11  1  0
 11 12  2  0
 12 13  1  0
 14 16  1  0
 14 13  1  0
 15 11  1  0
 15 14  2  0
 17 19  1  0
 17 16  1  0
 18 17  2  0
 20 18  1  0
  2 21  1  0
  3 22  1  0
  4 23  1  0
  8 24  1  0
  8 25  1  0
  8 26  1  0
  9 27  1  0
  9 28  1  0
  9 29  1  0
 10 30  1  0
 10 31  1  0
 16 32  1  0
 19 33  1  0
 19 34  1  0
M  ISO  8  21  14  22  14  23  14  24   8  25   8  26   8  27   8  28   8
M  ISO  3  29   8  30   8  31   8
M  END
>  <minimizedAffinity>  (1) 
-5.34579468

>  <minimizedRMSD>  (1) 
0.535562932

$$$$
