
     RDKit          3D

 36 38  0  0  0  0  0  0  0  0999 V2000
   45.1360   34.8950   43.4510 C   0  0  0  0  0  0  0  0  0  0  0  0
   45.7430   31.3730   44.3020 C   0  0  0  0  0  0  0  0  0  0  0  0
   46.3910   31.4470   45.5660 C   0  0  0  0  0  0  0  0  0  0  0  0
   46.6080   32.7180   46.1080 C   0  0  0  0  0  0  0  0  0  0  0  0
   46.1830   33.8000   45.3850 N   0  0  0  0  0  0  0  0  0  0  0  0
   45.5750   33.6840   44.1900 C   0  0  0  0  0  0  0  0  0  0  0  0
   45.3630   32.4770   43.6640 N   0  0  0  0  0  0  0  0  0  0  0  0
   44.4060   35.8190   44.3990 C   0  0  0  0  0  0  0  0  0  0  0  0
   44.1370   34.5080   42.3880 C   0  0  0  0  0  0  0  0  0  0  0  0
   46.2860   35.6540   42.8670 C   0  0  0  0  0  0  0  0  0  0  0  0
   47.2770   34.8480   42.1600 C   0  0  0  0  0  0  0  0  0  0  0  0
   48.4040   34.2180   42.5250 N   0  0  0  0  0  0  0  0  0  0  0  0
   48.9600   33.6140   41.5120 O   0  0  0  0  0  0  0  0  0  0  0  0
   48.2200   33.8230   40.4380 C   0  0  0  0  0  0  0  0  0  0  0  0
   47.1780   34.5850   40.8350 N   0  0  0  0  0  0  0  0  0  0  0  0
   48.3840   33.3720   39.0390 C   0  0  0  0  0  0  0  0  0  0  0  0
   48.2290   34.2360   37.9630 C   0  0  0  0  0  0  0  0  0  0  0  0
   48.4090   33.6960   36.6980 C   0  0  0  0  0  0  0  0  0  0  0  0
   48.7270   32.3590   36.5810 C   0  0  0  0  0  0  0  0  0  0  0  0
   48.8720   31.5400   37.6820 C   0  0  0  0  0  0  0  0  0  0  0  0
   48.6980   32.0540   38.9200 N   0  0  0  0  0  0  0  0  0  0  0  0
   45.5535   30.3901   43.8459 H   0  0  0  0  0  0  0  0  0  0  0  0
   46.7097   30.5383   46.0976 H   0  0  0  0  0  0  0  0  0  0  0  0
   47.1033   32.8439   47.0821 H   0  0  0  0  0  0  0  0  0  0  0  0
   44.6321   35.5328   45.4368 H   0  0  0  0  0  0  0  0  0  0  0  0
   44.7321   36.8550   44.2250 H   0  0  0  0  0  0  0  0  0  0  0  0
   43.3226   35.7415   44.2250 H   0  0  0  0  0  0  0  0  0  0  0  0
   43.2132   34.1501   42.8659 H   0  0  0  0  0  0  0  0  0  0  0  0
   43.9104   35.3834   41.7616 H   0  0  0  0  0  0  0  0  0  0  0  0
   44.5593   33.7084   41.7616 H   0  0  0  0  0  0  0  0  0  0  0  0
   45.8806   36.3911   42.1582 H   0  0  0  0  0  0  0  0  0  0  0  0
   46.8154   36.1036   43.7200 H   0  0  0  0  0  0  0  0  0  0  0  0
   47.9759   35.2968   38.1067 H   0  0  0  0  0  0  0  0  0  0  0  0
   48.2998   34.3245   35.8019 H   0  0  0  0  0  0  0  0  0  0  0  0
   48.8696   31.9318   35.5774 H   0  0  0  0  0  0  0  0  0  0  0  0
   49.1270   30.4777   37.5533 H   0  0  0  0  0  0  0  0  0  0  0  0
  1  6  1  0
  1  8  1  0
  2  3  2  0
  3  4  1  0
  5  4  2  0
  6  5  1  0
  7  6  2  0
  7  2  1  0
  9  1  1  0
 10  1  1  0
 11 12  2  0
 11 10  1  0
 13 12  1  0
 14 15  2  0
 14 13  1  0
 15 11  1  0
 16 14  1  0
 17 16  2  0
 18 17  1  0
 19 18  2  0
 19 20  1  0
 20 21  2  0
 21 16  1  0
  2 22  1  0
  3 23  1  0
  4 24  1  0
  8 25  1  0
  8 26  1  0
  8 27  1  0
  9 28  1  0
  9 29  1  0
  9 30  1  0
 10 31  1  0
 10 32  1  0
 17 33  1  0
 18 34  1  0
 19 35  1  0
 20 36  1  0
M  ISO  8  22  14  23  14  24  14  25   8  26   8  27   8  28   8  29   8
M  ISO  7  30   8  31   8  32   8  33  14  34  14  35  14  36  14
M  END
>  <minimizedAffinity>  (1) 
-4.82096672

>  <minimizedRMSD>  (1) 
4.56256771

$$$$
