
     RDKit          3D

 25 26  0  0  0  0  0  0  0  0999 V2000
   46.1260   34.2520   41.7900 N   0  0  0  0  0  0  0  0  0  0  0  0
   45.7110   33.4500   40.8120 C   0  0  0  0  0  0  0  0  0  0  0  0
   46.5480   33.4910   39.7850 N   0  0  0  0  0  0  0  0  0  0  0  0
   47.5300   34.3620   40.1430 C   0  0  0  0  0  0  0  0  0  0  0  0
   47.2710   34.8460   41.4070 N   0  0  0  0  0  0  0  0  0  0  0  0
   48.7080   34.8070   39.4310 N   0  0  0  0  0  0  0  0  0  0  0  0
   44.5180   32.6860   40.9360 N   0  0  0  0  0  0  0  0  0  0  0  0
   43.7590   32.7920   42.1380 C   0  0  0  0  0  0  0  0  0  0  0  0
   43.8620   33.8680   42.8800 N   0  0  0  0  0  0  0  0  0  0  0  0
   42.8810   31.7200   42.5390 N   0  0  0  0  0  0  0  0  0  0  0  0
   43.2940   33.9160   43.7540 H   0  0  0  0  0  0  0  0  0  0  0  0
   44.4710   35.9290   44.7070 C   0  0  0  0  0  0  0  0  0  0  0  0
   44.8820   35.7110   43.3900 C   0  0  0  0  0  0  0  0  0  0  0  0
   45.6380   34.5940   43.0920 C   0  0  0  0  0  0  0  0  0  0  0  0
   45.9540   33.7340   44.1290 N   0  0  0  0  0  0  0  0  0  0  0  0
   45.5370   33.9720   45.4020 C   0  0  0  0  0  0  0  0  0  0  0  0
   44.8030   35.0680   45.6660 N   0  0  0  0  0  0  0  0  0  0  0  0
   49.3496   35.4833   39.8689 H   0  0  0  0  0  0  0  0  0  0  0  0
   48.9051   34.4475   38.4861 H   0  0  0  0  0  0  0  0  0  0  0  0
   44.2084   32.0681   40.1723 H   0  0  0  0  0  0  0  0  0  0  0  0
   42.3341   31.8000   43.4081 H   0  0  0  0  0  0  0  0  0  0  0  0
   42.8010   30.8745   41.9562 H   0  0  0  0  0  0  0  0  0  0  0  0
   43.8699   36.8168   44.9528 H   0  0  0  0  0  0  0  0  0  0  0  0
   44.6062   36.4222   42.5975 H   0  0  0  0  0  0  0  0  0  0  0  0
   45.7983   33.2728   46.2100 H   0  0  0  0  0  0  0  0  0  0  0  0
  1 14  1  0
  2  7  1  0
  2  1  1  0
  3  4  1  0
  3  2  2  0
  4  5  2  0
  5  1  1  0
  6  4  1  0
  7  8  1  0
  8 10  1  0
  8  9  2  0
  9 11  1  0
 12 17  2  0
 13 12  1  0
 14 13  2  0
 14 15  1  0
 15 16  2  0
 16 17  1  0
  6 18  1  0
  6 19  1  0
  7 20  1  0
 10 21  1  0
 10 22  1  0
 12 23  1  0
 13 24  1  0
 16 25  1  0
M  ISO  3  23  14  24  14  25  14
M  END
>  <minimizedAffinity>  (1) 
-5.35250568

>  <minimizedRMSD>  (1) 
0.150888085

$$$$
