
     RDKit          3D

 37 39  0  0  0  0  0  0  0  0999 V2000
   42.9590   33.7760   40.2270 C   0  0  0  0  0  0  0  0  0  0  0  0
   41.2310   35.8230   37.7270 C   0  0  0  0  0  0  0  0  0  0  0  0
   40.0370   35.1060   37.4800 C   0  0  0  0  0  0  0  0  0  0  0  0
   39.8330   33.9030   38.1900 C   0  0  0  0  0  0  0  0  0  0  0  0
   40.8050   33.5070   39.0700 N   0  0  0  0  0  0  0  0  0  0  0  0
   41.9230   34.2400   39.2580 C   0  0  0  0  0  0  0  0  0  0  0  0
   42.1270   35.3680   38.6020 N   0  0  0  0  0  0  0  0  0  0  0  0
   42.2750   33.1920   41.4470 C   0  0  0  0  0  0  0  0  0  0  0  0
   43.7690   34.9590   40.7150 C   0  0  0  0  0  0  0  0  0  0  0  0
   43.8340   32.6960   39.6560 C   0  0  0  0  0  0  0  0  0  0  0  0
   45.2380   33.0530   39.5020 C   0  0  0  0  0  0  0  0  0  0  0  0
   45.9990   33.4190   38.4470 N   0  0  0  0  0  0  0  0  0  0  0  0
   47.2280   33.6410   38.8270 O   0  0  0  0  0  0  0  0  0  0  0  0
   47.3270   33.4370   40.1120 C   0  0  0  0  0  0  0  0  0  0  0  0
   46.1070   33.0730   40.5410 N   0  0  0  0  0  0  0  0  0  0  0  0
   48.5210   33.5710   40.9390 C   0  0  0  0  0  0  0  0  0  0  0  0
   49.4790   32.5620   41.0820 C   0  0  0  0  0  0  0  0  0  0  0  0
   50.5680   32.8090   41.8950 C   0  0  0  0  0  0  0  0  0  0  0  0
   50.7690   33.9880   42.5740 C   0  0  0  0  0  0  0  0  0  0  0  0
   49.8270   35.0160   42.4500 C   0  0  0  0  0  0  0  0  0  0  0  0
   48.7420   34.7450   41.6290 C   0  0  0  0  0  0  0  0  0  0  0  0
   41.4216   36.7649   37.1918 H   0  0  0  0  0  0  0  0  0  0  0  0
   39.2922   35.4735   36.7587 H   0  0  0  0  0  0  0  0  0  0  0  0
   38.9230   33.3032   38.0413 H   0  0  0  0  0  0  0  0  0  0  0  0
   42.7444   33.5928   42.3575 H   0  0  0  0  0  0  0  0  0  0  0  0
   41.2089   33.4628   41.4344 H   0  0  0  0  0  0  0  0  0  0  0  0
   42.3753   32.0967   41.4344 H   0  0  0  0  0  0  0  0  0  0  0  0
   43.7763   34.9697   41.8149 H   0  0  0  0  0  0  0  0  0  0  0  0
   44.8006   34.8759   40.3423 H   0  0  0  0  0  0  0  0  0  0  0  0
   43.3184   35.8907   40.3423 H   0  0  0  0  0  0  0  0  0  0  0  0
   43.7759   31.8228   40.3225 H   0  0  0  0  0  0  0  0  0  0  0  0
   43.4554   32.5002   38.6419 H   0  0  0  0  0  0  0  0  0  0  0  0
   49.3683   31.5991   40.5618 H   0  0  0  0  0  0  0  0  0  0  0  0
   51.3204   32.0143   42.0061 H   0  0  0  0  0  0  0  0  0  0  0  0
   51.6589   34.1215   43.2066 H   0  0  0  0  0  0  0  0  0  0  0  0
   49.9400   35.9783   42.9708 H   0  0  0  0  0  0  0  0  0  0  0  0
   47.9889   35.5390   41.5180 H   0  0  0  0  0  0  0  0  0  0  0  0
  1  9  1  0
  1  8  1  0
  2  7  2  0
  3  2  1  0
  3  4  2  0
  4  5  1  0
  5  6  2  0
  6  1  1  0
  7  6  1  0
 10  1  1  0
 11 10  1  0
 11 15  1  0
 12 13  1  0
 12 11  2  0
 13 14  1  0
 14 15  2  0
 14 16  1  0
 16 17  2  0
 16 21  1  0
 17 18  1  0
 18 19  2  0
 20 19  1  0
 21 20  2  0
  2 22  1  0
  3 23  1  0
  4 24  1  0
  8 25  1  0
  8 26  1  0
  8 27  1  0
  9 28  1  0
  9 29  1  0
  9 30  1  0
 10 31  1  0
 10 32  1  0
 17 33  1  0
 18 34  1  0
 19 35  1  0
 20 36  1  0
 21 37  1  0
M  ISO  8  22  14  23  14  24  14  25   8  26   8  27   8  28   8  29   8
M  ISO  8  30   8  31   8  32   8  33  14  34  14  35  14  36  14  37  14
M  END
>  <minimizedAffinity>  (1) 
-4.99233007

>  <minimizedRMSD>  (1) 
5.04211664

$$$$
