
     RDKit          3D

 34 36  0  0  0  0  0  0  0  0999 V2000
   46.0250   34.3890   42.4390 C   0  0  0  0  0  0  0  0  0  0  0  0
   49.3640   32.9340   42.9160 C   0  0  0  0  0  0  0  0  0  0  0  0
   50.2340   33.9820   42.5300 C   0  0  0  0  0  0  0  0  0  0  0  0
   49.6550   35.1850   42.1080 C   0  0  0  0  0  0  0  0  0  0  0  0
   48.2840   35.2840   42.0900 N   0  0  0  0  0  0  0  0  0  0  0  0
   47.5000   34.2510   42.4690 C   0  0  0  0  0  0  0  0  0  0  0  0
   48.0410   33.0930   42.8760 N   0  0  0  0  0  0  0  0  0  0  0  0
   45.6390   35.6110   43.2430 C   0  0  0  0  0  0  0  0  0  0  0  0
   45.3850   33.2090   43.1340 C   0  0  0  0  0  0  0  0  0  0  0  0
   45.4850   34.5620   41.0510 C   0  0  0  0  0  0  0  0  0  0  0  0
   44.1160   34.0700   40.8480 C   0  0  0  0  0  0  0  0  0  0  0  0
   43.5820   32.8830   40.4920 N   0  0  0  0  0  0  0  0  0  0  0  0
   42.2740   32.9750   40.4550 O   0  0  0  0  0  0  0  0  0  0  0  0
   41.9160   34.1980   40.7770 C   0  0  0  0  0  0  0  0  0  0  0  0
   43.0290   34.8840   41.0210 N   0  0  0  0  0  0  0  0  0  0  0  0
   40.5240   34.7140   40.8520 C   0  0  0  0  0  0  0  0  0  0  0  0
   40.2160   36.1350   40.5140 C   0  0  0  0  0  0  0  0  0  0  0  0
   39.8520   35.1070   39.5070 C   0  0  0  0  0  0  0  0  0  0  0  0
   49.7853   31.9756   43.2535 H   0  0  0  0  0  0  0  0  0  0  0  0
   51.3263   33.8557   42.5605 H   0  0  0  0  0  0  0  0  0  0  0  0
   50.2836   36.0326   41.7976 H   0  0  0  0  0  0  0  0  0  0  0  0
   45.7115   35.3816   44.3164 H   0  0  0  0  0  0  0  0  0  0  0  0
   46.3189   36.4405   42.9986 H   0  0  0  0  0  0  0  0  0  0  0  0
   44.6060   35.8994   42.9986 H   0  0  0  0  0  0  0  0  0  0  0  0
   45.4571   33.3419   44.2236 H   0  0  0  0  0  0  0  0  0  0  0  0
   44.3266   33.1414   42.8421 H   0  0  0  0  0  0  0  0  0  0  0  0
   45.9056   32.2850   42.8421 H   0  0  0  0  0  0  0  0  0  0  0  0
   45.5002   35.6354   40.8110 H   0  0  0  0  0  0  0  0  0  0  0  0
   46.1279   33.9567   40.3951 H   0  0  0  0  0  0  0  0  0  0  0  0
   40.2996   34.0674   41.7132 H   0  0  0  0  0  0  0  0  0  0  0  0
   39.4210   36.6620   41.0618 H   0  0  0  0  0  0  0  0  0  0  0  0
   40.8175   37.0553   40.4776 H   0  0  0  0  0  0  0  0  0  0  0  0
   38.7955   34.8616   39.3239 H   0  0  0  0  0  0  0  0  0  0  0  0
   40.0707   34.9396   38.4420 H   0  0  0  0  0  0  0  0  0  0  0  0
  1  6  1  0
  1  9  1  0
  1  8  1  0
  3  2  2  0
  4  3  1  0
  5  4  2  0
  5  6  1  0
  6  7  2  0
  7  2  1  0
 10  1  1  0
 11 15  1  0
 11 10  1  0
 12 11  2  0
 13 12  1  0
 13 14  1  0
 14 16  1  0
 14 15  2  0
 17 16  1  0
 18 17  1  0
 18 16  1  0
  2 19  1  0
  3 20  1  0
  4 21  1  0
  8 22  1  0
  8 23  1  0
  8 24  1  0
  9 25  1  0
  9 26  1  0
  9 27  1  0
 10 28  1  0
 10 29  1  0
 16 30  1  0
 17 31  1  0
 17 32  1  0
 18 33  1  0
 18 34  1  0
M  ISO  8  19  14  20  14  21  14  22   8  23   8  24   8  25   8  26   8
M  ISO  8  27   8  28   8  29   8  30  13  31  13  32  13  33  13  34  13
M  END
>  <minimizedAffinity>  (1) 
-4.61311007

>  <minimizedRMSD>  (1) 
6.75194883

$$$$
