
     RDKit          3D

 40 42  0  0  0  0  0  0  0  0999 V2000
   44.1110   34.0320   40.9770 C   0  0  0  0  0  0  0  0  0  0  0  0
   40.9120   35.7910   41.4150 C   0  0  0  0  0  0  0  0  0  0  0  0
   40.4440   35.9450   40.0780 C   0  0  0  0  0  0  0  0  0  0  0  0
   41.2490   35.4350   39.0330 C   0  0  0  0  0  0  0  0  0  0  0  0
   42.4300   34.8230   39.3760 N   0  0  0  0  0  0  0  0  0  0  0  0
   42.8250   34.7040   40.6720 C   0  0  0  0  0  0  0  0  0  0  0  0
   42.0730   35.1820   41.6560 N   0  0  0  0  0  0  0  0  0  0  0  0
   44.6410   33.3790   39.7160 C   0  0  0  0  0  0  0  0  0  0  0  0
   43.8580   32.9140   41.9630 C   0  0  0  0  0  0  0  0  0  0  0  0
   45.1630   34.9760   41.4730 C   0  0  0  0  0  0  0  0  0  0  0  0
   46.1700   34.3770   42.3620 C   0  0  0  0  0  0  0  0  0  0  0  0
   46.3490   34.3640   43.6870 N   0  0  0  0  0  0  0  0  0  0  0  0
   47.4210   33.6750   43.9990 O   0  0  0  0  0  0  0  0  0  0  0  0
   47.9680   33.2210   42.8870 C   0  0  0  0  0  0  0  0  0  0  0  0
   47.2090   33.6460   41.8780 N   0  0  0  0  0  0  0  0  0  0  0  0
   49.1400   32.4280   42.7410 N   0  0  0  0  0  0  0  0  0  0  0  0
   49.1290   30.9940   43.0690 C   0  0  0  0  0  0  0  0  0  0  0  0
   50.4110   30.3700   42.5840 C   0  0  0  0  0  0  0  0  0  0  0  0
   50.7830   30.7710   41.3100 O   0  0  0  0  0  0  0  0  0  0  0  0
   50.9800   32.1180   41.1520 C   0  0  0  0  0  0  0  0  0  0  0  0
   50.3980   32.9500   42.2740 C   0  0  0  0  0  0  0  0  0  0  0  0
   40.3122   36.1766   42.2525 H   0  0  0  0  0  0  0  0  0  0  0  0
   39.4873   36.4445   39.8655 H   0  0  0  0  0  0  0  0  0  0  0  0
   40.9399   35.5253   37.9812 H   0  0  0  0  0  0  0  0  0  0  0  0
   45.3129   32.5511   39.9864 H   0  0  0  0  0  0  0  0  0  0  0  0
   43.8000   32.9900   39.1232 H   0  0  0  0  0  0  0  0  0  0  0  0
   45.1947   34.1220   39.1232 H   0  0  0  0  0  0  0  0  0  0  0  0
   43.9459   33.3025   42.9883 H   0  0  0  0  0  0  0  0  0  0  0  0
   42.8460   32.5113   41.8090 H   0  0  0  0  0  0  0  0  0  0  0  0
   44.5980   32.1148   41.8090 H   0  0  0  0  0  0  0  0  0  0  0  0
   45.6850   35.3939   40.5996 H   0  0  0  0  0  0  0  0  0  0  0  0
   44.6368   35.7333   42.0727 H   0  0  0  0  0  0  0  0  0  0  0  0
   49.0453   30.8655   44.1583 H   0  0  0  0  0  0  0  0  0  0  0  0
   48.2713   30.5078   42.5811 H   0  0  0  0  0  0  0  0  0  0  0  0
   51.2156   30.6439   43.2823 H   0  0  0  0  0  0  0  0  0  0  0  0
   50.2417   29.2840   42.5407 H   0  0  0  0  0  0  0  0  0  0  0  0
   52.0624   32.3080   41.1033 H   0  0  0  0  0  0  0  0  0  0  0  0
   50.4618   32.4141   40.2280 H   0  0  0  0  0  0  0  0  0  0  0  0
   51.1099   32.9619   43.1124 H   0  0  0  0  0  0  0  0  0  0  0  0
   50.2202   33.9638   41.8859 H   0  0  0  0  0  0  0  0  0  0  0  0
  1 10  1  0
  1  9  1  0
  2  7  2  0
  3  2  1  0
  4  5  1  0
  4  3  2  0
  5  6  2  0
  6  1  1  0
  6  7  1  0
  8  1  1  0
 10 11  1  0
 11 12  2  0
 12 13  1  0
 14 13  1  0
 15 11  1  0
 15 14  2  0
 16 14  1  0
 16 17  1  0
 18 17  1  0
 19 18  1  0
 20 19  1  0
 20 21  1  0
 21 16  1  0
  2 22  1  0
  3 23  1  0
  4 24  1  0
  8 25  1  0
  8 26  1  0
  8 27  1  0
  9 28  1  0
  9 29  1  0
  9 30  1  0
 10 31  1  0
 10 32  1  0
 17 33  1  0
 17 34  1  0
 18 35  1  0
 18 36  1  0
 20 37  1  0
 20 38  1  0
 21 39  1  0
 21 40  1  0
M  ISO  8  22  14  23  14  24  14  25   8  26   8  27   8  28   8  29   8
M  ISO  8  30   8  31   8  32   8  33  13  34  13  35  13  36  13  37  13
M  ISO  3  38  13  39  13  40  13
M  END
>  <minimizedAffinity>  (1) 
-4.69103718

>  <minimizedRMSD>  (1) 
3.49244618

$$$$
