
     RDKit          3D

 29 30  0  0  0  0  0  0  0  0999 V2000
   46.4650   33.9890   41.8500 C   0  0  0  0  0  0  0  0  0  0  0  0
   45.3840   34.0910   45.3620 C   0  0  0  0  0  0  0  0  0  0  0  0
   44.7050   35.3320   45.4580 C   0  0  0  0  0  0  0  0  0  0  0  0
   44.6250   36.1220   44.3090 C   0  0  0  0  0  0  0  0  0  0  0  0
   45.2080   35.6560   43.1520 N   0  0  0  0  0  0  0  0  0  0  0  0
   45.8460   34.4570   43.1240 C   0  0  0  0  0  0  0  0  0  0  0  0
   45.9330   33.6870   44.2100 N   0  0  0  0  0  0  0  0  0  0  0  0
   45.4530   34.1340   40.7340 C   0  0  0  0  0  0  0  0  0  0  0  0
   46.7650   32.5100   41.9540 C   0  0  0  0  0  0  0  0  0  0  0  0
   47.6820   34.7790   41.4680 C   0  0  0  0  0  0  0  0  0  0  0  0
   48.9540   34.1340   41.7850 C   0  0  0  0  0  0  0  0  0  0  0  0
   49.9100   34.3440   42.7090 N   0  0  0  0  0  0  0  0  0  0  0  0
   50.8860   33.4720   42.5780 O   0  0  0  0  0  0  0  0  0  0  0  0
   50.6110   32.6750   41.5820 C   0  0  0  0  0  0  0  0  0  0  0  0
   49.4340   33.0630   41.0820 N   0  0  0  0  0  0  0  0  0  0  0  0
   51.5020   31.5930   41.1790 C   0  0  0  0  0  0  0  0  0  0  0  0
   52.1310   31.7210   40.0960 O   0  0  0  0  0  0  0  0  0  0  0  0
   45.4611   33.4480   46.2511 H   0  0  0  0  0  0  0  0  0  0  0  0
   44.2559   35.6618   46.4064 H   0  0  0  0  0  0  0  0  0  0  0  0
   44.1087   37.0931   44.3280 H   0  0  0  0  0  0  0  0  0  0  0  0
   44.4508   34.2776   41.1642 H   0  0  0  0  0  0  0  0  0  0  0  0
   45.7137   35.0040   40.1134 H   0  0  0  0  0  0  0  0  0  0  0  0
   45.4589   33.2258   40.1134 H   0  0  0  0  0  0  0  0  0  0  0  0
   46.8235   32.2214   43.0138 H   0  0  0  0  0  0  0  0  0  0  0  0
   45.9646   31.9380   41.4619 H   0  0  0  0  0  0  0  0  0  0  0  0
   47.7250   32.2951   41.4619 H   0  0  0  0  0  0  0  0  0  0  0  0
   47.6451   35.7423   41.9978 H   0  0  0  0  0  0  0  0  0  0  0  0
   47.6522   34.8849   40.3735 H   0  0  0  0  0  0  0  0  0  0  0  0
   51.6206   30.6938   41.8014 H   0  0  0  0  0  0  0  0  0  0  0  0
  1  9  1  0
  1  6  1  0
  2  3  2  0
  4  3  1  0
  5  4  2  0
  6  5  1  0
  6  7  2  0
  7  2  1  0
  8  1  1  0
 10 11  1  0
 10  1  1  0
 11 12  2  0
 13 12  1  0
 14 13  1  0
 15 14  2  0
 15 11  1  0
 16 14  1  0
 17 16  2  0
  2 18  1  0
  3 19  1  0
  4 20  1  0
  8 21  1  0
  8 22  1  0
  8 23  1  0
  9 24  1  0
  9 25  1  0
  9 26  1  0
 10 27  1  0
 10 28  1  0
 16 29  1  0
M  ISO  8  18  14  19  14  20  14  21   8  22   8  23   8  24   8  25   8
M  ISO  4  26   8  27   8  28   8  29   6
M  END
>  <minimizedAffinity>  (1) 
-4.54119396

>  <minimizedRMSD>  (1) 
1.50507629

$$$$
