
     RDKit          3D

 30 32  0  0  0  0  0  0  0  0999 V2000
   46.0590   34.3910   41.7290 N   0  0  0  0  0  0  0  0  0  0  0  0
   45.5210   34.0360   40.5650 C   0  0  0  0  0  0  0  0  0  0  0  0
   46.4790   33.7430   39.6690 N   0  0  0  0  0  0  0  0  0  0  0  0
   47.6480   33.9230   40.3010 C   0  0  0  0  0  0  0  0  0  0  0  0
   47.4060   34.3270   41.5870 N   0  0  0  0  0  0  0  0  0  0  0  0
   48.9790   33.7460   39.8030 N   0  0  0  0  0  0  0  0  0  0  0  0
   44.1000   34.0260   40.4730 N   0  0  0  0  0  0  0  0  0  0  0  0
   43.2970   34.3810   41.5980 C   0  0  0  0  0  0  0  0  0  0  0  0
   41.8950   34.7480   41.2990 C   0  0  0  0  0  0  0  0  0  0  0  0
   41.4180   34.4610   39.9860 N   0  0  0  0  0  0  0  0  0  0  0  0
   42.3950   34.6980   38.9520 C   0  0  0  0  0  0  0  0  0  0  0  0
   43.4850   33.6480   39.2110 C   0  0  0  0  0  0  0  0  0  0  0  0
   44.6200   36.3120   44.5920 C   0  0  0  0  0  0  0  0  0  0  0  0
   45.0560   36.0450   43.3000 C   0  0  0  0  0  0  0  0  0  0  0  0
   45.5810   34.7940   43.0000 C   0  0  0  0  0  0  0  0  0  0  0  0
   45.6390   33.8820   44.0180 N   0  0  0  0  0  0  0  0  0  0  0  0
   45.2060   34.1630   45.2810 C   0  0  0  0  0  0  0  0  0  0  0  0
   44.7050   35.3800   45.5350 N   0  0  0  0  0  0  0  0  0  0  0  0
   49.7866   33.9258   40.4165 H   0  0  0  0  0  0  0  0  0  0  0  0
   49.1287   33.4389   38.8313 H   0  0  0  0  0  0  0  0  0  0  0  0
   43.6953   34.3818   42.6233 H   0  0  0  0  0  0  0  0  0  0  0  0
   41.2503   35.2205   42.0548 H   0  0  0  0  0  0  0  0  0  0  0  0
   40.4662   34.1171   39.7944 H   0  0  0  0  0  0  0  0  0  0  0  0
   42.8070   35.7149   39.0311 H   0  0  0  0  0  0  0  0  0  0  0  0
   41.9659   34.6176   37.9424 H   0  0  0  0  0  0  0  0  0  0  0  0
   43.0413   32.6442   39.2855 H   0  0  0  0  0  0  0  0  0  0  0  0
   44.2204   33.6146   38.3937 H   0  0  0  0  0  0  0  0  0  0  0  0
   44.2023   37.3001   44.8353 H   0  0  0  0  0  0  0  0  0  0  0  0
   44.9861   36.8181   42.5206 H   0  0  0  0  0  0  0  0  0  0  0  0
   45.2669   33.4050   46.0759 H   0  0  0  0  0  0  0  0  0  0  0  0
  1 15  1  0
  2  1  1  0
  3  4  1  0
  3  2  2  0
  4  5  2  0
  5  1  1  0
  6  4  1  0
  7  2  1  0
  7  8  1  0
  9  8  2  0
 10  9  1  0
 11 12  1  0
 11 10  1  0
 12  7  1  0
 13 18  2  0
 14 13  1  0
 15 14  2  0
 15 16  1  0
 16 17  2  0
 17 18  1  0
  6 19  1  0
  6 20  1  0
  8 21  1  0
  9 22  1  0
 10 23  1  0
 11 24  1  0
 11 25  1  0
 12 26  1  0
 12 27  1  0
 13 28  1  0
 14 29  1  0
 17 30  1  0
M  ISO  8  21  13  22  13  24  13  25  13  26  13  27  13  28  14  29  14
M  ISO  1  30  14
M  END
>  <minimizedAffinity>  (1) 
-5.26147747

>  <minimizedRMSD>  (1) 
1.25349128

$$$$
