
     RDKit          3D

 31 33  0  0  0  0  0  0  0  0999 V2000
   45.9580   34.4600   41.8450 N   0  0  0  0  0  0  0  0  0  0  0  0
   45.4150   34.0830   40.6950 C   0  0  0  0  0  0  0  0  0  0  0  0
   46.3250   33.8650   39.7510 N   0  0  0  0  0  0  0  0  0  0  0  0
   47.5200   34.1220   40.3500 C   0  0  0  0  0  0  0  0  0  0  0  0
   47.2820   34.4880   41.6370 N   0  0  0  0  0  0  0  0  0  0  0  0
   48.8570   34.0530   39.8170 N   0  0  0  0  0  0  0  0  0  0  0  0
   44.0120   33.9490   40.5650 N   0  0  0  0  0  0  0  0  0  0  0  0
   43.1820   35.1390   40.4640 C   0  0  0  0  0  0  0  0  0  0  0  0
   42.1740   35.0330   39.3480 C   0  0  0  0  0  0  0  0  0  0  0  0
   41.5590   33.7880   39.3100 O   0  0  0  0  0  0  0  0  0  0  0  0
   41.7950   33.0900   40.4910 C   0  0  0  0  0  0  0  0  0  0  0  0
   43.2720   32.7400   40.5160 C   0  0  0  0  0  0  0  0  0  0  0  0
   44.5100   36.2290   44.7970 C   0  0  0  0  0  0  0  0  0  0  0  0
   44.9130   36.0200   43.4640 C   0  0  0  0  0  0  0  0  0  0  0  0
   45.5010   34.8110   43.1390 C   0  0  0  0  0  0  0  0  0  0  0  0
   45.6670   33.8640   44.1350 N   0  0  0  0  0  0  0  0  0  0  0  0
   45.2600   34.1100   45.4200 C   0  0  0  0  0  0  0  0  0  0  0  0
   44.6960   35.2710   45.7250 N   0  0  0  0  0  0  0  0  0  0  0  0
   49.6627   34.2840   40.4157 H   0  0  0  0  0  0  0  0  0  0  0  0
   49.0070   33.7727   38.8373 H   0  0  0  0  0  0  0  0  0  0  0  0
   42.6460   35.2795   41.4142 H   0  0  0  0  0  0  0  0  0  0  0  0
   43.8395   35.9938   40.2471 H   0  0  0  0  0  0  0  0  0  0  0  0
   41.4031   35.8041   39.4931 H   0  0  0  0  0  0  0  0  0  0  0  0
   42.7086   35.1736   38.3970 H   0  0  0  0  0  0  0  0  0  0  0  0
   41.5415   33.7183   41.3576 H   0  0  0  0  0  0  0  0  0  0  0  0
   41.1768   32.1814   40.5386 H   0  0  0  0  0  0  0  0  0  0  0  0
   43.4954   32.1302   41.4038 H   0  0  0  0  0  0  0  0  0  0  0  0
   43.5420   32.1648   39.6181 H   0  0  0  0  0  0  0  0  0  0  0  0
   44.0399   37.1817   45.0823 H   0  0  0  0  0  0  0  0  0  0  0  0
   44.7640   36.7981   42.7009 H   0  0  0  0  0  0  0  0  0  0  0  0
   45.4009   33.3452   46.1980 H   0  0  0  0  0  0  0  0  0  0  0  0
  1 15  1  0
  2  1  1  0
  3  4  1  0
  3  2  2  0
  4  5  2  0
  5  1  1  0
  6  4  1  0
  7  2  1  0
  8  7  1  0
  9  8  1  0
 10  9  1  0
 10 11  1  0
 11 12  1  0
 12  7  1  0
 13 18  2  0
 14 13  1  0
 15 14  2  0
 15 16  1  0
 16 17  2  0
 17 18  1  0
  6 19  1  0
  6 20  1  0
  8 21  1  0
  8 22  1  0
  9 23  1  0
  9 24  1  0
 11 25  1  0
 11 26  1  0
 12 27  1  0
 12 28  1  0
 13 29  1  0
 14 30  1  0
 17 31  1  0
M  ISO  8  21  13  22  13  23  13  24  13  25  13  26  13  27  13  28  13
M  ISO  3  29  14  30  14  31  14
M  END
>  <minimizedAffinity>  (1) 
-5.25276089

>  <minimizedRMSD>  (1) 
1.14797878

$$$$
