
     RDKit          3D

 41 43  0  0  0  0  0  0  0  0999 V2000
   45.7470   34.0200   41.7580 C   0  0  0  0  0  0  0  0  0  0  0  0
   45.4280   33.8630   45.4180 C   0  0  0  0  0  0  0  0  0  0  0  0
   44.7810   35.0730   45.7400 C   0  0  0  0  0  0  0  0  0  0  0  0
   44.4540   35.9460   44.6900 C   0  0  0  0  0  0  0  0  0  0  0  0
   44.7880   35.5630   43.4110 N   0  0  0  0  0  0  0  0  0  0  0  0
   45.4110   34.3830   43.1610 C   0  0  0  0  0  0  0  0  0  0  0  0
   45.7220   33.5520   44.1650 N   0  0  0  0  0  0  0  0  0  0  0  0
   44.6410   34.5000   40.8520 C   0  0  0  0  0  0  0  0  0  0  0  0
   45.7610   32.5020   41.6400 C   0  0  0  0  0  0  0  0  0  0  0  0
   47.0300   34.6210   41.2980 C   0  0  0  0  0  0  0  0  0  0  0  0
   48.2290   33.8370   41.5810 C   0  0  0  0  0  0  0  0  0  0  0  0
   48.9530   33.5950   42.6990 N   0  0  0  0  0  0  0  0  0  0  0  0
   49.9720   32.8010   42.4130 O   0  0  0  0  0  0  0  0  0  0  0  0
   49.9360   32.5180   41.1430 C   0  0  0  0  0  0  0  0  0  0  0  0
   48.8840   33.1330   40.6030 N   0  0  0  0  0  0  0  0  0  0  0  0
   50.8580   31.6910   40.4400 N   0  0  0  0  0  0  0  0  0  0  0  0
   51.9770   31.0600   41.1160 C   0  0  0  0  0  0  0  0  0  0  0  0
   51.7600   29.5680   40.9560 C   0  0  0  0  0  0  0  0  0  0  0  0
   51.4970   29.2220   39.5900 N   0  0  0  0  0  0  0  0  0  0  0  0
   51.6390   30.2920   38.6490 C   0  0  0  0  0  0  0  0  0  0  0  0
   50.7050   31.4520   39.0170 C   0  0  0  0  0  0  0  0  0  0  0  0
   45.6940   33.1630   46.2237 H   0  0  0  0  0  0  0  0  0  0  0  0
   44.5394   35.3259   46.7829 H   0  0  0  0  0  0  0  0  0  0  0  0
   43.9481   36.9035   44.8831 H   0  0  0  0  0  0  0  0  0  0  0  0
   43.8006   34.8647   41.4608 H   0  0  0  0  0  0  0  0  0  0  0  0
   45.0154   35.3166   40.2172 H   0  0  0  0  0  0  0  0  0  0  0  0
   44.3003   33.6688   40.2172 H   0  0  0  0  0  0  0  0  0  0  0  0
   45.7651   32.0561   42.6456 H   0  0  0  0  0  0  0  0  0  0  0  0
   44.8659   32.1684   41.0946 H   0  0  0  0  0  0  0  0  0  0  0  0
   46.6621   32.1849   41.0946 H   0  0  0  0  0  0  0  0  0  0  0  0
   47.1411   35.5992   41.7887 H   0  0  0  0  0  0  0  0  0  0  0  0
   46.9598   34.6801   40.2018 H   0  0  0  0  0  0  0  0  0  0  0  0
   52.9268   31.3621   40.6506 H   0  0  0  0  0  0  0  0  0  0  0  0
   52.0308   31.3526   42.1750 H   0  0  0  0  0  0  0  0  0  0  0  0
   52.6626   29.0368   41.2925 H   0  0  0  0  0  0  0  0  0  0  0  0
   50.8884   29.2777   41.5610 H   0  0  0  0  0  0  0  0  0  0  0  0
   52.1499   28.4724   39.3203 H   0  0  0  0  0  0  0  0  0  0  0  0
   51.3849   29.9267   37.6430 H   0  0  0  0  0  0  0  0  0  0  0  0
   52.6790   30.6499   38.6684 H   0  0  0  0  0  0  0  0  0  0  0  0
   50.9828   32.3536   38.4514 H   0  0  0  0  0  0  0  0  0  0  0  0
   49.6612   31.2057   38.7724 H   0  0  0  0  0  0  0  0  0  0  0  0
  1  6  1  0
  2  3  2  0
  4  3  1  0
  5  4  2  0
  6  5  1  0
  6  7  2  0
  7  2  1  0
  8  1  1  0
  9  1  1  0
 10 11  1  0
 10  1  1  0
 11 12  2  0
 13 12  1  0
 14 13  1  0
 15 14  2  0
 15 11  1  0
 16 17  1  0
 16 14  1  0
 18 17  1  0
 19 18  1  0
 20 21  1  0
 20 19  1  0
 21 16  1  0
  2 22  1  0
  3 23  1  0
  4 24  1  0
  8 25  1  0
  8 26  1  0
  8 27  1  0
  9 28  1  0
  9 29  1  0
  9 30  1  0
 10 31  1  0
 10 32  1  0
 17 33  1  0
 17 34  1  0
 18 35  1  0
 18 36  1  0
 19 37  1  0
 20 38  1  0
 20 39  1  0
 21 40  1  0
 21 41  1  0
M  ISO  8  22  14  23  14  24  14  25   8  26   8  27   8  28   8  29   8
M  ISO  8  30   8  31   8  32   8  33  13  34  13  35  13  36  13  37   5
M  ISO  4  38  13  39  13  40  13  41  13
M  END
>  <minimizedAffinity>  (1) 
-4.53976965

>  <minimizedRMSD>  (1) 
2.79463696

$$$$
