
     RDKit          3D

 33 35  0  0  0  0  0  0  0  0999 V2000
   47.9710   34.4590   41.3040 C   0  0  0  0  0  0  0  0  0  0  0  0
   48.8880   31.1430   42.5730 C   0  0  0  0  0  0  0  0  0  0  0  0
   50.3030   31.2040   42.6740 C   0  0  0  0  0  0  0  0  0  0  0  0
   50.9220   32.4040   42.2970 C   0  0  0  0  0  0  0  0  0  0  0  0
   50.1340   33.4330   41.8600 N   0  0  0  0  0  0  0  0  0  0  0  0
   48.7900   33.3200   41.7840 C   0  0  0  0  0  0  0  0  0  0  0  0
   48.1720   32.1870   42.1370 N   0  0  0  0  0  0  0  0  0  0  0  0
   48.8880   35.6260   40.9930 C   0  0  0  0  0  0  0  0  0  0  0  0
   47.0510   34.9290   42.4090 C   0  0  0  0  0  0  0  0  0  0  0  0
   47.2060   34.1390   40.0600 C   0  0  0  0  0  0  0  0  0  0  0  0
   48.0200   33.9160   38.8680 C   0  0  0  0  0  0  0  0  0  0  0  0
   48.3190   34.6600   37.7780 N   0  0  0  0  0  0  0  0  0  0  0  0
   49.1180   33.9780   36.9750 O   0  0  0  0  0  0  0  0  0  0  0  0
   49.3510   32.8160   37.5010 C   0  0  0  0  0  0  0  0  0  0  0  0
   48.6910   32.7600   38.6550 N   0  0  0  0  0  0  0  0  0  0  0  0
   50.1630   31.7170   37.0050 C   0  0  0  0  0  0  0  0  0  0  0  0
   49.4820   30.8390   36.0500 C   0  0  0  0  0  0  0  0  0  0  0  0
   50.7900   29.5580   35.6210 S   0  0  0  0  0  0  0  0  0  0  0  0
   51.9890   30.4400   36.7950 C   0  0  0  0  0  0  0  0  0  0  0  0
   51.3920   31.3010   37.2020 N   0  0  0  0  0  0  0  0  0  0  0  0
   48.3682   30.2169   42.8595 H   0  0  0  0  0  0  0  0  0  0  0  0
   50.8892   30.3453   43.0332 H   0  0  0  0  0  0  0  0  0  0  0  0
   52.0150   32.5153   42.3513 H   0  0  0  0  0  0  0  0  0  0  0  0
   49.2411   36.0754   41.9328 H   0  0  0  0  0  0  0  0  0  0  0  0
   49.7502   35.2696   40.4103 H   0  0  0  0  0  0  0  0  0  0  0  0
   48.3378   36.3795   40.4103 H   0  0  0  0  0  0  0  0  0  0  0  0
   47.5026   34.6983   43.3851 H   0  0  0  0  0  0  0  0  0  0  0  0
   46.8993   36.0151   42.3227 H   0  0  0  0  0  0  0  0  0  0  0  0
   46.0821   34.4154   42.3227 H   0  0  0  0  0  0  0  0  0  0  0  0
   46.6193   33.2274   40.2466 H   0  0  0  0  0  0  0  0  0  0  0  0
   46.5884   35.0237   39.8460 H   0  0  0  0  0  0  0  0  0  0  0  0
   48.4510   30.9118   35.6736 H   0  0  0  0  0  0  0  0  0  0  0  0
   53.0304   30.1708   37.0252 H   0  0  0  0  0  0  0  0  0  0  0  0
  1  6  1  0
  1  9  1  0
  2  3  2  0
  4  3  1  0
  5  4  2  0
  6  5  1  0
  6  7  2  0
  7  2  1  0
  8  1  1  0
 10  1  1  0
 11 10  1  0
 12 11  2  0
 13 14  1  0
 13 12  1  0
 14 15  2  0
 15 11  1  0
 16 20  1  0
 16 14  1  0
 17 16  2  0
 18 17  1  0
 18 19  1  0
 19 20  2  0
  2 21  1  0
  3 22  1  0
  4 23  1  0
  8 24  1  0
  8 25  1  0
  8 26  1  0
  9 27  1  0
  9 28  1  0
  9 29  1  0
 10 30  1  0
 10 31  1  0
 17 32  1  0
 19 33  1  0
M  ISO  8  21  14  22  14  23  14  24   8  25   8  26   8  27   8  28   8
M  ISO  5  29   8  30   8  31   8  32  14  33  14
M  END
>  <minimizedAffinity>  (1) 
-4.31738758

>  <minimizedRMSD>  (1) 
5.33556175

$$$$
