
     RDKit          3D

 34 36  0  0  0  0  0  0  0  0999 V2000
   46.2620   34.3920   41.7440 C   0  0  0  0  0  0  0  0  0  0  0  0
   43.8600   33.4570   39.1340 C   0  0  0  0  0  0  0  0  0  0  0  0
   42.7630   34.3070   39.3710 C   0  0  0  0  0  0  0  0  0  0  0  0
   42.8660   35.2020   40.4400 C   0  0  0  0  0  0  0  0  0  0  0  0
   44.0230   35.2010   41.1910 N   0  0  0  0  0  0  0  0  0  0  0  0
   45.0350   34.3650   40.9160 C   0  0  0  0  0  0  0  0  0  0  0  0
   44.9470   33.5130   39.9050 N   0  0  0  0  0  0  0  0  0  0  0  0
   46.4350   33.0360   42.4110 C   0  0  0  0  0  0  0  0  0  0  0  0
   46.1030   35.3950   42.8650 C   0  0  0  0  0  0  0  0  0  0  0  0
   47.4990   34.6660   40.9490 C   0  0  0  0  0  0  0  0  0  0  0  0
   48.7350   34.0890   41.4950 C   0  0  0  0  0  0  0  0  0  0  0  0
   49.5530   34.4200   42.5160 N   0  0  0  0  0  0  0  0  0  0  0  0
   50.5450   33.5660   42.5910 O   0  0  0  0  0  0  0  0  0  0  0  0
   50.4120   32.6670   41.6410 C   0  0  0  0  0  0  0  0  0  0  0  0
   49.3000   32.9770   40.9570 N   0  0  0  0  0  0  0  0  0  0  0  0
   51.3360   31.6010   41.4610 N   0  0  0  0  0  0  0  0  0  0  0  0
   51.9370   30.6880   42.1940 N   0  0  0  0  0  0  0  0  0  0  0  0
   52.7370   29.9270   41.4080 C   0  0  0  0  0  0  0  0  0  0  0  0
   52.6270   30.3970   40.0930 C   0  0  0  0  0  0  0  0  0  0  0  0
   51.7260   31.4650   40.1600 C   0  0  0  0  0  0  0  0  0  0  0  0
   43.8202   32.7378   38.3027 H   0  0  0  0  0  0  0  0  0  0  0  0
   41.8621   34.2685   38.7411 H   0  0  0  0  0  0  0  0  0  0  0  0
   42.0426   35.8918   40.6770 H   0  0  0  0  0  0  0  0  0  0  0  0
   46.4191   33.1602   43.5038 H   0  0  0  0  0  0  0  0  0  0  0  0
   45.6146   32.3699   42.1058 H   0  0  0  0  0  0  0  0  0  0  0  0
   47.3964   32.5972   42.1058 H   0  0  0  0  0  0  0  0  0  0  0  0
   46.1848   34.8790   43.8330 H   0  0  0  0  0  0  0  0  0  0  0  0
   46.8914   36.1583   42.7886 H   0  0  0  0  0  0  0  0  0  0  0  0
   45.1172   35.8771   42.7886 H   0  0  0  0  0  0  0  0  0  0  0  0
   47.6302   35.7565   40.8890 H   0  0  0  0  0  0  0  0  0  0  0  0
   47.3451   34.1871   39.9708 H   0  0  0  0  0  0  0  0  0  0  0  0
   53.3631   29.0873   41.7439 H   0  0  0  0  0  0  0  0  0  0  0  0
   53.1390   30.0096   39.1998 H   0  0  0  0  0  0  0  0  0  0  0  0
   51.3915   32.0847   39.3150 H   0  0  0  0  0  0  0  0  0  0  0  0
  1  8  1  0
  1  9  1  0
  2  3  2  0
  2  7  1  0
  3  4  1  0
  4  5  2  0
  6  5  1  0
  6  1  1  0
  7  6  2  0
 10 11  1  0
 10  1  1  0
 11 12  2  0
 12 13  1  0
 14 13  1  0
 15 11  1  0
 15 14  2  0
 16 14  1  0
 16 17  1  0
 18 17  2  0
 19 20  2  0
 19 18  1  0
 20 16  1  0
  2 21  1  0
  3 22  1  0
  4 23  1  0
  8 24  1  0
  8 25  1  0
  8 26  1  0
  9 27  1  0
  9 28  1  0
  9 29  1  0
 10 30  1  0
 10 31  1  0
 18 32  1  0
 19 33  1  0
 20 34  1  0
M  ISO  8  21  14  22  14  23  14  24   8  25   8  26   8  27   8  28   8
M  ISO  6  29   8  30   8  31   8  32  14  33  14  34  14
M  END
>  <minimizedAffinity>  (1) 
-4.47750998

>  <minimizedRMSD>  (1) 
3.04187679

$$$$
