
     RDKit          3D

 42 45  0  0  0  0  0  0  0  0999 V2000
   42.4820   33.7460   38.7080 C   0  0  0  0  0  0  0  0  0  0  0  0
   42.8460   34.4760   39.9200 C   0  0  0  0  0  0  0  0  0  0  0  0
   42.1420   35.2520   40.7700 N   0  0  0  0  0  0  0  0  0  0  0  0
   42.9130   35.6960   41.7300 O   0  0  0  0  0  0  0  0  0  0  0  0
   44.1340   35.2340   41.5460 C   0  0  0  0  0  0  0  0  0  0  0  0
   44.0910   34.4810   40.4290 N   0  0  0  0  0  0  0  0  0  0  0  0
   45.0840   35.6070   42.4750 O   0  0  0  0  0  0  0  0  0  0  0  0
   45.0420   35.2820   43.8060 C   0  0  0  0  0  0  0  0  0  0  0  0
   44.4200   35.8840   44.9060 C   0  0  0  0  0  0  0  0  0  0  0  0
   44.6710   35.1850   46.0320 N   0  0  0  0  0  0  0  0  0  0  0  0
   45.4430   34.1390   45.6880 C   0  0  0  0  0  0  0  0  0  0  0  0
   45.9480   33.1510   46.5100 C   0  0  0  0  0  0  0  0  0  0  0  0
   46.7250   32.1690   45.9300 C   0  0  0  0  0  0  0  0  0  0  0  0
   46.9740   32.1940   44.5740 C   0  0  0  0  0  0  0  0  0  0  0  0
   46.4720   33.1850   43.7290 C   0  0  0  0  0  0  0  0  0  0  0  0
   45.6860   34.1750   44.3300 C   0  0  0  0  0  0  0  0  0  0  0  0
   42.3340   32.2570   38.8940 C   0  0  0  0  0  0  0  0  0  0  0  0
   41.8020   30.9940   42.3040 C   0  0  0  0  0  0  0  0  0  0  0  0
   40.4410   31.2500   42.5430 C   0  0  0  0  0  0  0  0  0  0  0  0
   39.7030   31.8620   41.5210 C   0  0  0  0  0  0  0  0  0  0  0  0
   40.3520   32.1710   40.3590 N   0  0  0  0  0  0  0  0  0  0  0  0
   41.6650   31.9030   40.1820 C   0  0  0  0  0  0  0  0  0  0  0  0
   42.3720   31.3220   41.1460 N   0  0  0  0  0  0  0  0  0  0  0  0
   41.4740   31.7380   37.7590 C   0  0  0  0  0  0  0  0  0  0  0  0
   43.6480   31.5430   38.7950 C   0  0  0  0  0  0  0  0  0  0  0  0
   43.2631   33.9218   37.9537 H   0  0  0  0  0  0  0  0  0  0  0  0
   41.4947   34.1221   38.4016 H   0  0  0  0  0  0  0  0  0  0  0  0
   43.8116   36.7992   44.8588 H   0  0  0  0  0  0  0  0  0  0  0  0
   44.3341   35.4104   46.9789 H   0  0  0  0  0  0  0  0  0  0  0  0
   45.7382   33.1469   47.5898 H   0  0  0  0  0  0  0  0  0  0  0  0
   47.1466   31.3646   46.5507 H   0  0  0  0  0  0  0  0  0  0  0  0
   47.5958   31.3977   44.1390 H   0  0  0  0  0  0  0  0  0  0  0  0
   46.6826   33.1878   42.6494 H   0  0  0  0  0  0  0  0  0  0  0  0
   42.4072   30.5142   43.0873 H   0  0  0  0  0  0  0  0  0  0  0  0
   39.9709   30.9791   43.4999 H   0  0  0  0  0  0  0  0  0  0  0  0
   38.6340   32.0867   41.6503 H   0  0  0  0  0  0  0  0  0  0  0  0
   40.6010   31.2112   38.1717 H   0  0  0  0  0  0  0  0  0  0  0  0
   41.1343   32.5820   37.1408 H   0  0  0  0  0  0  0  0  0  0  0  0
   42.0625   31.0441   37.1408 H   0  0  0  0  0  0  0  0  0  0  0  0
   44.0297   31.3356   39.8056 H   0  0  0  0  0  0  0  0  0  0  0  0
   43.5106   30.5955   38.2534 H   0  0  0  0  0  0  0  0  0  0  0  0
   44.3682   32.1738   38.2534 H   0  0  0  0  0  0  0  0  0  0  0  0
  1 17  1  0
  1  2  1  0
  2  6  1  0
  2  3  2  0
  3  4  1  0
  5  4  1  0
  5  7  1  0
  6  5  2  0
  7  8  1  0
  8 16  1  0
  8  9  2  0
  9 10  1  0
 11 10  1  0
 11 12  2  0
 13 12  1  0
 14 13  2  0
 15 16  2  0
 15 14  1  0
 16 11  1  0
 17 22  1  0
 18 19  2  0
 20 19  1  0
 21 20  2  0
 22 21  1  0
 22 23  2  0
 23 18  1  0
 24 17  1  0
 25 17  1  0
  1 26  1  0
  1 27  1  0
  9 28  1  0
 10 29  1  0
 12 30  1  0
 13 31  1  0
 14 32  1  0
 15 33  1  0
 18 34  1  0
 19 35  1  0
 20 36  1  0
 24 37  1  0
 24 38  1  0
 24 39  1  0
 25 40  1  0
 25 41  1  0
 25 42  1  0
M  ISO  8  26   8  27   8  28  14  29   9  30  14  31  14  32  14  33  14
M  ISO  8  34  14  35  14  36  14  37   8  38   8  39   8  40   8  41   8
M  ISO  1  42   8
M  END
>  <minimizedAffinity>  (1) 
-5.73213673

>  <minimizedRMSD>  (1) 
6.8900547

$$$$
