
     RDKit          3D

 36 38  0  0  0  0  0  0  0  0999 V2000
   45.4030   33.4690   41.5940 C   0  0  0  0  0  0  0  0  0  0  0  0
   45.4150   33.9330   45.2300 C   0  0  0  0  0  0  0  0  0  0  0  0
   44.8350   35.1950   45.4120 C   0  0  0  0  0  0  0  0  0  0  0  0
   44.4380   35.8930   44.2750 C   0  0  0  0  0  0  0  0  0  0  0  0
   44.6350   35.3050   43.0520 N   0  0  0  0  0  0  0  0  0  0  0  0
   45.2030   34.0750   42.9340 C   0  0  0  0  0  0  0  0  0  0  0  0
   45.5900   33.3960   44.0220 N   0  0  0  0  0  0  0  0  0  0  0  0
   44.0820   33.4810   40.8560 C   0  0  0  0  0  0  0  0  0  0  0  0
   45.7930   32.0330   41.7330 C   0  0  0  0  0  0  0  0  0  0  0  0
   46.3890   34.2390   40.7440 C   0  0  0  0  0  0  0  0  0  0  0  0
   47.6860   34.4570   41.3640 C   0  0  0  0  0  0  0  0  0  0  0  0
   48.2520   35.5100   41.9990 N   0  0  0  0  0  0  0  0  0  0  0  0
   49.4730   35.1980   42.3850 O   0  0  0  0  0  0  0  0  0  0  0  0
   49.7320   33.9680   42.0260 C   0  0  0  0  0  0  0  0  0  0  0  0
   48.6370   33.5050   41.3960 N   0  0  0  0  0  0  0  0  0  0  0  0
   50.9860   33.4560   42.3510 O   0  0  0  0  0  0  0  0  0  0  0  0
   51.2310   32.1520   41.9340 C   0  0  0  0  0  0  0  0  0  0  0  0
   51.0160   31.0540   42.7380 C   0  0  0  0  0  0  0  0  0  0  0  0
   51.2890   29.7790   42.2400 C   0  0  0  0  0  0  0  0  0  0  0  0
   51.7570   29.5990   40.9930 N   0  0  0  0  0  0  0  0  0  0  0  0
   51.9650   30.6780   40.2150 C   0  0  0  0  0  0  0  0  0  0  0  0
   51.7070   31.9150   40.6810 N   0  0  0  0  0  0  0  0  0  0  0  0
   45.7375   33.3648   46.1149 H   0  0  0  0  0  0  0  0  0  0  0  0
   44.6981   35.6193   46.4176 H   0  0  0  0  0  0  0  0  0  0  0  0
   43.9787   36.8893   44.3554 H   0  0  0  0  0  0  0  0  0  0  0  0
   43.2561   33.4885   41.5826 H   0  0  0  0  0  0  0  0  0  0  0  0
   44.0230   34.3797   40.2245 H   0  0  0  0  0  0  0  0  0  0  0  0
   44.0066   32.5835   40.2245 H   0  0  0  0  0  0  0  0  0  0  0  0
   45.8634   31.7738   42.7997 H   0  0  0  0  0  0  0  0  0  0  0  0
   45.0346   31.3987   41.2508 H   0  0  0  0  0  0  0  0  0  0  0  0
   46.7681   31.8695   41.2508 H   0  0  0  0  0  0  0  0  0  0  0  0
   45.9497   35.2210   40.5145 H   0  0  0  0  0  0  0  0  0  0  0  0
   46.5719   33.6264   39.8488 H   0  0  0  0  0  0  0  0  0  0  0  0
   50.6333   31.1808   43.7614 H   0  0  0  0  0  0  0  0  0  0  0  0
   51.1174   28.9025   42.8821 H   0  0  0  0  0  0  0  0  0  0  0  0
   52.3482   30.5484   39.1921 H   0  0  0  0  0  0  0  0  0  0  0  0
  1  9  1  0
  1  6  1  0
  2  3  2  0
  4  3  1  0
  5  4  2  0
  6  5  1  0
  6  7  2  0
  7  2  1  0
  8  1  1  0
 10 11  1  0
 10  1  1  0
 11 15  1  0
 11 12  2  0
 12 13  1  0
 14 16  1  0
 14 13  1  0
 15 14  2  0
 17 16  1  0
 17 18  2  0
 19 18  1  0
 20 19  2  0
 21 22  2  0
 21 20  1  0
 22 17  1  0
  2 23  1  0
  3 24  1  0
  4 25  1  0
  8 26  1  0
  8 27  1  0
  8 28  1  0
  9 29  1  0
  9 30  1  0
  9 31  1  0
 10 32  1  0
 10 33  1  0
 18 34  1  0
 19 35  1  0
 21 36  1  0
M  ISO  8  23  14  24  14  25  14  26   8  27   8  28   8  29   8  30   8
M  ISO  6  31   8  32   8  33   8  34  14  35  14  36  14
M  END
>  <minimizedAffinity>  (1) 
-4.60046673

>  <minimizedRMSD>  (1) 
0.536750138

$$$$
