
     RDKit          3D

 41 43  0  0  0  0  0  0  0  0999 V2000
   47.7890   34.7340   41.4070 C   0  0  0  0  0  0  0  0  0  0  0  0
   49.0550   34.0630   41.7290 C   0  0  0  0  0  0  0  0  0  0  0  0
   50.0440   34.3090   42.6280 N   0  0  0  0  0  0  0  0  0  0  0  0
   50.9760   33.3980   42.5150 O   0  0  0  0  0  0  0  0  0  0  0  0
   50.6480   32.5500   41.5750 C   0  0  0  0  0  0  0  0  0  0  0  0
   49.4610   32.9450   41.0770 N   0  0  0  0  0  0  0  0  0  0  0  0
   51.5330   31.5020   41.3150 O   0  0  0  0  0  0  0  0  0  0  0  0
   51.6780   30.4070   37.3450 C   0  0  0  0  0  0  0  0  0  0  0  0
   52.6870   31.2000   37.8460 C   0  0  0  0  0  0  0  0  0  0  0  0
   52.7090   31.6090   39.1640 C   0  0  0  0  0  0  0  0  0  0  0  0
   51.6610   31.1760   39.9510 C   0  0  0  0  0  0  0  0  0  0  0  0
   50.6330   30.3800   39.4830 C   0  0  0  0  0  0  0  0  0  0  0  0
   50.6460   29.9930   38.1600 C   0  0  0  0  0  0  0  0  0  0  0  0
   51.6330   29.8810   35.6820 S   0  0  0  0  0  0  0  0  0  0  0  0
   52.9910   29.8190   35.0480 O   0  0  0  0  0  0  0  0  0  0  0  0
   50.8720   30.9420   34.9120 O   0  0  0  0  0  0  0  0  0  0  0  0
   46.5600   33.9690   41.7930 C   0  0  0  0  0  0  0  0  0  0  0  0
   45.3210   34.2260   45.2270 C   0  0  0  0  0  0  0  0  0  0  0  0
   44.6870   35.4870   45.2640 C   0  0  0  0  0  0  0  0  0  0  0  0
   44.6960   36.2390   44.0960 C   0  0  0  0  0  0  0  0  0  0  0  0
   45.3120   35.7250   42.9800 N   0  0  0  0  0  0  0  0  0  0  0  0
   45.9020   34.5070   43.0050 C   0  0  0  0  0  0  0  0  0  0  0  0
   45.9030   33.7700   44.1190 N   0  0  0  0  0  0  0  0  0  0  0  0
   45.5920   34.0830   40.6240 C   0  0  0  0  0  0  0  0  0  0  0  0
   46.8390   32.5110   41.9580 C   0  0  0  0  0  0  0  0  0  0  0  0
   47.7701   35.7005   41.9319 H   0  0  0  0  0  0  0  0  0  0  0  0
   47.7608   34.8360   40.3121 H   0  0  0  0  0  0  0  0  0  0  0  0
   53.4995   31.5167   37.1755 H   0  0  0  0  0  0  0  0  0  0  0  0
   53.5143   32.2428   39.5637 H   0  0  0  0  0  0  0  0  0  0  0  0
   49.8206   30.0615   40.1527 H   0  0  0  0  0  0  0  0  0  0  0  0
   49.8409   29.3601   37.7585 H   0  0  0  0  0  0  0  0  0  0  0  0
   51.0741   28.6305   35.6527 H   0  0  0  0  0  0  0  0  0  0  0  0
   45.3347   33.6052   46.1350 H   0  0  0  0  0  0  0  0  0  0  0  0
   44.2055   35.8589   46.1804 H   0  0  0  0  0  0  0  0  0  0  0  0
   44.2181   37.2293   44.0648 H   0  0  0  0  0  0  0  0  0  0  0  0
   44.5677   34.2036   41.0065 H   0  0  0  0  0  0  0  0  0  0  0  0
   45.8594   34.9559   40.0103 H   0  0  0  0  0  0  0  0  0  0  0  0
   45.6493   33.1719   40.0103 H   0  0  0  0  0  0  0  0  0  0  0  0
   46.8860   32.2656   43.0292 H   0  0  0  0  0  0  0  0  0  0  0  0
   46.0361   31.9280   41.4831 H   0  0  0  0  0  0  0  0  0  0  0  0
   47.8004   32.2656   41.4831 H   0  0  0  0  0  0  0  0  0  0  0  0
  1  2  1  0
  1 17  1  0
  2  3  2  0
  4  3  1  0
  5  4  1  0
  6  5  2  0
  6  2  1  0
  7  5  1  0
  8  9  2  0
  8 13  1  0
  9 10  1  0
 10 11  2  0
 11  7  1  0
 12 11  1  0
 13 12  2  0
 14  8  1  0
 15 14  2  0
 16 14  2  0
 17 25  1  0
 17 22  1  0
 18 19  2  0
 20 19  1  0
 21 22  1  0
 21 20  2  0
 22 23  2  0
 23 18  1  0
 24 17  1  0
  1 26  1  0
  1 27  1  0
  9 28  1  0
 10 29  1  0
 12 30  1  0
 13 31  1  0
 14 32  1  0
 18 33  1  0
 19 34  1  0
 20 35  1  0
 24 36  1  0
 24 37  1  0
 24 38  1  0
 25 39  1  0
 25 40  1  0
 25 41  1  0
M  ISO  8  26   8  27   8  28  14  29  14  30  14  31  14  32  11  33  14
M  ISO  8  34  14  35  14  36   8  37   8  38   8  39   8  40   8  41   8
M  END
>  <minimizedAffinity>  (1) 
-4.9453373

>  <minimizedRMSD>  (1) 
2.67496562

$$$$
