
     RDKit          3D

 32 33  0  0  0  0  0  0  0  0999 V2000
   45.7180   33.9330   41.6480 C   0  0  0  0  0  0  0  0  0  0  0  0
   45.3730   33.9500   45.2960 C   0  0  0  0  0  0  0  0  0  0  0  0
   44.7670   35.1930   45.5610 C   0  0  0  0  0  0  0  0  0  0  0  0
   44.4820   36.0190   44.4790 C   0  0  0  0  0  0  0  0  0  0  0  0
   44.8040   35.5790   43.2210 N   0  0  0  0  0  0  0  0  0  0  0  0
   45.3830   34.3790   43.0200 C   0  0  0  0  0  0  0  0  0  0  0  0
   45.6660   33.5670   44.0580 N   0  0  0  0  0  0  0  0  0  0  0  0
   44.5410   34.2290   40.7430 C   0  0  0  0  0  0  0  0  0  0  0  0
   45.9070   32.4320   41.6160 C   0  0  0  0  0  0  0  0  0  0  0  0
   46.9110   34.6370   41.0650 C   0  0  0  0  0  0  0  0  0  0  0  0
   48.1980   34.2420   41.6240 C   0  0  0  0  0  0  0  0  0  0  0  0
   48.8630   34.5890   42.7570 N   0  0  0  0  0  0  0  0  0  0  0  0
   50.0080   33.9460   42.8100 O   0  0  0  0  0  0  0  0  0  0  0  0
   50.1160   33.1790   41.7360 C   0  0  0  0  0  0  0  0  0  0  0  0
   49.0120   33.3610   41.0150 N   0  0  0  0  0  0  0  0  0  0  0  0
   51.2880   32.4340   41.6590 O   0  0  0  0  0  0  0  0  0  0  0  0
   51.3620   31.0730   41.8980 C   0  0  0  0  0  0  0  0  0  0  0  0
   51.9780   30.7960   43.1520 N   0  0  0  0  0  0  0  0  0  0  0  0
   50.9750   30.1010   41.1850 O   0  0  0  0  0  0  0  0  0  0  0  0
   45.6098   33.2792   46.1350 H   0  0  0  0  0  0  0  0  0  0  0  0
   44.5270   35.5005   46.5895 H   0  0  0  0  0  0  0  0  0  0  0  0
   44.0099   37.0012   44.6288 H   0  0  0  0  0  0  0  0  0  0  0  0
   43.6547   34.4519   41.3552 H   0  0  0  0  0  0  0  0  0  0  0  0
   44.7756   35.0961   40.1081 H   0  0  0  0  0  0  0  0  0  0  0  0
   44.3375   33.3541   40.1081 H   0  0  0  0  0  0  0  0  0  0  0  0
   45.9555   32.0465   42.6451 H   0  0  0  0  0  0  0  0  0  0  0  0
   45.0603   31.9670   41.0898 H   0  0  0  0  0  0  0  0  0  0  0  0
   46.8425   32.1914   41.0898 H   0  0  0  0  0  0  0  0  0  0  0  0
   46.7843   35.7169   41.2319 H   0  0  0  0  0  0  0  0  0  0  0  0
   46.9411   34.3579   40.0014 H   0  0  0  0  0  0  0  0  0  0  0  0
   52.1001   29.8213   43.4617 H   0  0  0  0  0  0  0  0  0  0  0  0
   52.3014   31.5704   43.7491 H   0  0  0  0  0  0  0  0  0  0  0  0
  1  6  1  0
  2  3  2  0
  4  3  1  0
  5  4  2  0
  6  5  1  0
  6  7  2  0
  7  2  1  0
  8  1  1  0
  9  1  1  0
 10 11  1  0
 10  1  1  0
 11 12  2  0
 12 13  1  0
 14 13  1  0
 15 11  1  0
 15 14  2  0
 16 14  1  0
 16 17  1  0
 17 18  1  0
 19 17  2  0
  2 20  1  0
  3 21  1  0
  4 22  1  0
  8 23  1  0
  8 24  1  0
  8 25  1  0
  9 26  1  0
  9 27  1  0
  9 28  1  0
 10 29  1  0
 10 30  1  0
 18 31  1  0
 18 32  1  0
M  ISO  8  20  14  21  14  22  14  23   8  24   8  25   8  26   8  27   8
M  ISO  3  28   8  29   8  30   8
M  END
>  <minimizedAffinity>  (1) 
-4.30580282

>  <minimizedRMSD>  (1) 
1.3372792

$$$$
