
     RDKit          3D

 34 35  0  0  0  0  0  0  0  0999 V2000
   45.7480   33.9130   41.6540 C   0  0  0  0  0  0  0  0  0  0  0  0
   45.3680   33.9620   45.2930 C   0  0  0  0  0  0  0  0  0  0  0  0
   44.7660   35.1970   45.5540 C   0  0  0  0  0  0  0  0  0  0  0  0
   44.4860   36.0290   44.4540 C   0  0  0  0  0  0  0  0  0  0  0  0
   44.8190   35.5800   43.2000 N   0  0  0  0  0  0  0  0  0  0  0  0
   45.4000   34.3740   43.0140 C   0  0  0  0  0  0  0  0  0  0  0  0
   45.6710   33.5730   44.0590 N   0  0  0  0  0  0  0  0  0  0  0  0
   44.5660   34.1740   40.7420 C   0  0  0  0  0  0  0  0  0  0  0  0
   45.9420   32.4190   41.6460 C   0  0  0  0  0  0  0  0  0  0  0  0
   46.9390   34.6230   41.0680 C   0  0  0  0  0  0  0  0  0  0  0  0
   48.2250   34.2360   41.6460 C   0  0  0  0  0  0  0  0  0  0  0  0
   48.8980   34.5650   42.7670 N   0  0  0  0  0  0  0  0  0  0  0  0
   50.0400   33.9150   42.8120 O   0  0  0  0  0  0  0  0  0  0  0  0
   50.1410   33.1610   41.7470 C   0  0  0  0  0  0  0  0  0  0  0  0
   49.0320   33.3430   41.0140 N   0  0  0  0  0  0  0  0  0  0  0  0
   51.3000   32.3940   41.6260 O   0  0  0  0  0  0  0  0  0  0  0  0
   51.3870   31.5790   40.4490 C   0  0  0  0  0  0  0  0  0  0  0  0
   52.8490   31.3150   40.1470 C   0  0  0  0  0  0  0  0  0  0  0  0
   45.5977   33.2922   46.1348 H   0  0  0  0  0  0  0  0  0  0  0  0
   44.5205   35.5065   46.5806 H   0  0  0  0  0  0  0  0  0  0  0  0
   44.0133   37.0122   44.5951 H   0  0  0  0  0  0  0  0  0  0  0  0
   43.6707   34.3717   41.3497 H   0  0  0  0  0  0  0  0  0  0  0  0
   44.7784   35.0469   40.1072 H   0  0  0  0  0  0  0  0  0  0  0  0
   44.3911   33.2928   40.1072 H   0  0  0  0  0  0  0  0  0  0  0  0
   45.9899   32.0499   42.6811 H   0  0  0  0  0  0  0  0  0  0  0  0
   45.0982   31.9425   41.1255 H   0  0  0  0  0  0  0  0  0  0  0  0
   46.8795   32.1738   41.1255 H   0  0  0  0  0  0  0  0  0  0  0  0
   46.8046   35.7036   41.2234 H   0  0  0  0  0  0  0  0  0  0  0  0
   46.9778   34.3407   40.0056 H   0  0  0  0  0  0  0  0  0  0  0  0
   50.8664   30.6252   40.6200 H   0  0  0  0  0  0  0  0  0  0  0  0
   50.9165   32.0961   39.5997 H   0  0  0  0  0  0  0  0  0  0  0  0
   53.4059   31.2144   41.0903 H   0  0  0  0  0  0  0  0  0  0  0  0
   52.9413   30.3857   39.5658 H   0  0  0  0  0  0  0  0  0  0  0  0
   53.2605   32.1534   39.5658 H   0  0  0  0  0  0  0  0  0  0  0  0
  1  6  1  0
  2  3  2  0
  4  3  1  0
  5  4  2  0
  6  5  1  0
  6  7  2  0
  7  2  1  0
  8  1  1  0
  9  1  1  0
 10 11  1  0
 10  1  1  0
 11 12  2  0
 12 13  1  0
 14 13  1  0
 15 11  1  0
 15 14  2  0
 16 14  1  0
 17 16  1  0
 18 17  1  0
  2 19  1  0
  3 20  1  0
  4 21  1  0
  8 22  1  0
  8 23  1  0
  8 24  1  0
  9 25  1  0
  9 26  1  0
  9 27  1  0
 10 28  1  0
 10 29  1  0
 17 30  1  0
 17 31  1  0
 18 32  1  0
 18 33  1  0
 18 34  1  0
M  ISO  8  19  14  20  14  21  14  22   8  23   8  24   8  25   8  26   8
M  ISO  8  27   8  28   8  29   8  30   8  31   8  32   8  33   8  34   8
M  END
>  <minimizedAffinity>  (1) 
-4.2475791

>  <minimizedRMSD>  (1) 
0.890530944

$$$$
