
     RDKit          3D

 43 45  0  0  0  0  0  0  0  0999 V2000
   45.7310   33.9080   41.6720 C   0  0  0  0  0  0  0  0  0  0  0  0
   45.3660   33.9560   45.3210 C   0  0  0  0  0  0  0  0  0  0  0  0
   44.7580   35.2000   45.5800 C   0  0  0  0  0  0  0  0  0  0  0  0
   44.4730   36.0280   44.4780 C   0  0  0  0  0  0  0  0  0  0  0  0
   44.8060   35.5680   43.2310 N   0  0  0  0  0  0  0  0  0  0  0  0
   45.3900   34.3600   43.0410 C   0  0  0  0  0  0  0  0  0  0  0  0
   45.6710   33.5540   44.0820 N   0  0  0  0  0  0  0  0  0  0  0  0
   44.5450   34.1860   40.7620 C   0  0  0  0  0  0  0  0  0  0  0  0
   45.9440   32.4250   41.6530 C   0  0  0  0  0  0  0  0  0  0  0  0
   46.9030   34.6360   41.0900 C   0  0  0  0  0  0  0  0  0  0  0  0
   48.2120   34.2360   41.6370 C   0  0  0  0  0  0  0  0  0  0  0  0
   48.8890   34.5540   42.7730 N   0  0  0  0  0  0  0  0  0  0  0  0
   50.0310   33.9250   42.7950 O   0  0  0  0  0  0  0  0  0  0  0  0
   50.1440   33.1920   41.7080 C   0  0  0  0  0  0  0  0  0  0  0  0
   49.0250   33.3760   40.9840 N   0  0  0  0  0  0  0  0  0  0  0  0
   51.3150   32.4520   41.5760 O   0  0  0  0  0  0  0  0  0  0  0  0
   53.5780   29.2760   41.2010 N   0  0  0  0  0  0  0  0  0  0  0  0
   53.4000   29.9790   39.9460 C   0  0  0  0  0  0  0  0  0  0  0  0
   52.8900   31.3930   40.2000 C   0  0  0  0  0  0  0  0  0  0  0  0
   51.4600   31.3800   40.6910 C   0  0  0  0  0  0  0  0  0  0  0  0
   51.2910   30.1000   41.4840 C   0  0  0  0  0  0  0  0  0  0  0  0
   52.6210   29.7470   42.1600 C   0  0  0  0  0  0  0  0  0  0  0  0
   45.5980   33.2921   46.1668 H   0  0  0  0  0  0  0  0  0  0  0  0
   44.5148   35.5130   46.6061 H   0  0  0  0  0  0  0  0  0  0  0  0
   43.9989   37.0113   44.6133 H   0  0  0  0  0  0  0  0  0  0  0  0
   43.6547   34.3947   41.3734 H   0  0  0  0  0  0  0  0  0  0  0  0
   44.7661   35.0567   40.1271 H   0  0  0  0  0  0  0  0  0  0  0  0
   44.3562   33.3078   40.1271 H   0  0  0  0  0  0  0  0  0  0  0  0
   45.9980   32.0491   42.6854 H   0  0  0  0  0  0  0  0  0  0  0  0
   45.1062   31.9409   41.1298 H   0  0  0  0  0  0  0  0  0  0  0  0
   46.8842   32.1963   41.1298 H   0  0  0  0  0  0  0  0  0  0  0  0
   46.7668   35.7110   41.2795 H   0  0  0  0  0  0  0  0  0  0  0  0
   46.9242   34.3837   40.0195 H   0  0  0  0  0  0  0  0  0  0  0  0
   54.5300   29.4452   41.5560 H   0  0  0  0  0  0  0  0  0  0  0  0
   52.6713   29.4362   39.3261 H   0  0  0  0  0  0  0  0  0  0  0  0
   54.3681   30.0354   39.4268 H   0  0  0  0  0  0  0  0  0  0  0  0
   53.5254   31.8724   40.9592 H   0  0  0  0  0  0  0  0  0  0  0  0
   52.9275   31.9515   39.2531 H   0  0  0  0  0  0  0  0  0  0  0  0
   50.7356   31.4486   39.8661 H   0  0  0  0  0  0  0  0  0  0  0  0
   50.5148   30.2417   42.2505 H   0  0  0  0  0  0  0  0  0  0  0  0
   50.9909   29.2843   40.8098 H   0  0  0  0  0  0  0  0  0  0  0  0
   52.4459   28.9606   42.9090 H   0  0  0  0  0  0  0  0  0  0  0  0
   53.0217   30.6532   42.6378 H   0  0  0  0  0  0  0  0  0  0  0  0
  1  6  1  0
  2  3  2  0
  4  3  1  0
  5  4  2  0
  6  5  1  0
  6  7  2  0
  7  2  1  0
  8  1  1  0
  9  1  1  0
 10 11  1  0
 10  1  1  0
 11 12  2  0
 12 13  1  0
 14 13  1  0
 15 11  1  0
 15 14  2  0
 16 14  1  0
 17 22  1  0
 18 19  1  0
 18 17  1  0
 19 20  1  0
 20 21  1  0
 20 16  1  0
 21 22  1  0
  2 23  1  0
  3 24  1  0
  4 25  1  0
  8 26  1  0
  8 27  1  0
  8 28  1  0
  9 29  1  0
  9 30  1  0
  9 31  1  0
 10 32  1  0
 10 33  1  0
 17 34  1  0
 18 35  1  0
 18 36  1  0
 19 37  1  0
 19 38  1  0
 20 39  1  0
 21 40  1  0
 21 41  1  0
 22 42  1  0
 22 43  1  0
M  ISO  8  23  14  24  14  25  14  26   8  27   8  28   8  29   8  30   8
M  ISO  8  31   8  32   8  33   8  34   5  35  13  36  13  37  13  38  13
M  ISO  5  39  13  40  13  41  13  42  13  43  13
M  END
>  <minimizedAffinity>  (1) 
-4.53974199

>  <minimizedRMSD>  (1) 
1.714674

$$$$
