
     RDKit          3D

 30 31  0  0  0  0  0  0  0  0999 V2000
   45.1610   34.6390   42.3400 C   0  0  0  0  0  0  0  0  0  0  0  0
   45.3300   34.1020   45.9740 C   0  0  0  0  0  0  0  0  0  0  0  0
   46.3500   33.1490   46.1240 C   0  0  0  0  0  0  0  0  0  0  0  0
   46.9810   32.6920   44.9660 C   0  0  0  0  0  0  0  0  0  0  0  0
   46.5710   33.1960   43.7470 N   0  0  0  0  0  0  0  0  0  0  0  0
   45.5760   34.1170   43.6730 C   0  0  0  0  0  0  0  0  0  0  0  0
   44.9740   34.5550   44.7770 N   0  0  0  0  0  0  0  0  0  0  0  0
   46.3610   34.6460   41.4210 C   0  0  0  0  0  0  0  0  0  0  0  0
   44.7300   36.0780   42.4790 C   0  0  0  0  0  0  0  0  0  0  0  0
   44.0940   33.8070   41.6940 C   0  0  0  0  0  0  0  0  0  0  0  0
   42.9370   34.5540   41.1870 C   0  0  0  0  0  0  0  0  0  0  0  0
   41.9180   35.2100   41.7690 N   0  0  0  0  0  0  0  0  0  0  0  0
   41.1360   35.7150   40.8510 O   0  0  0  0  0  0  0  0  0  0  0  0
   41.6120   35.4110   39.6550 C   0  0  0  0  0  0  0  0  0  0  0  0
   42.7170   34.6990   39.8510 N   0  0  0  0  0  0  0  0  0  0  0  0
   40.8920   35.8780   38.5690 O   0  0  0  0  0  0  0  0  0  0  0  0
   41.6320   36.3010   37.4470 C   0  0  0  0  0  0  0  0  0  0  0  0
   41.1670   36.9290   36.4610 O   0  0  0  0  0  0  0  0  0  0  0  0
   44.8139   34.4822   46.8679 H   0  0  0  0  0  0  0  0  0  0  0  0
   46.6410   32.7764   47.1172 H   0  0  0  0  0  0  0  0  0  0  0  0
   47.7877   31.9463   45.0229 H   0  0  0  0  0  0  0  0  0  0  0  0
   47.2826   34.6514   42.0214 H   0  0  0  0  0  0  0  0  0  0  0  0
   46.3421   33.7477   40.7864 H   0  0  0  0  0  0  0  0  0  0  0  0
   46.3316   35.5440   40.7864 H   0  0  0  0  0  0  0  0  0  0  0  0
   44.6527   36.3362   43.5455 H   0  0  0  0  0  0  0  0  0  0  0  0
   45.4719   36.7312   41.9964 H   0  0  0  0  0  0  0  0  0  0  0  0
   43.7512   36.2158   41.9964 H   0  0  0  0  0  0  0  0  0  0  0  0
   44.5479   33.2688   40.8488 H   0  0  0  0  0  0  0  0  0  0  0  0
   43.7066   33.1442   42.4818 H   0  0  0  0  0  0  0  0  0  0  0  0
   42.7057   36.0623   37.4319 H   0  0  0  0  0  0  0  0  0  0  0  0
  1  9  1  0
  1  6  1  0
  2  3  2  0
  4  3  1  0
  5  4  2  0
  6  5  1  0
  6  7  2  0
  7  2  1  0
  8  1  1  0
 10  1  1  0
 11 10  1  0
 11 12  2  0
 13 12  1  0
 14 15  2  0
 14 13  1  0
 15 11  1  0
 16 14  1  0
 17 16  1  0
 18 17  2  0
  2 19  1  0
  3 20  1  0
  4 21  1  0
  8 22  1  0
  8 23  1  0
  8 24  1  0
  9 25  1  0
  9 26  1  0
  9 27  1  0
 10 28  1  0
 10 29  1  0
 17 30  1  0
M  ISO  8  19  14  20  14  21  14  22   8  23   8  24   8  25   8  26   8
M  ISO  4  27   8  28   8  29   8  30   6
M  END
>  <minimizedAffinity>  (1) 
-4.44829655

>  <minimizedRMSD>  (1) 
6.75019407

$$$$
