
     RDKit          3D

 30 32  0  0  0  0  0  0  0  0999 V2000
   46.0830   34.3990   42.0410 N   0  0  0  0  0  0  0  0  0  0  0  0
   45.5100   34.1530   40.8450 C   0  0  0  0  0  0  0  0  0  0  0  0
   46.4480   33.9310   39.9180 N   0  0  0  0  0  0  0  0  0  0  0  0
   47.6210   34.0440   40.5590 C   0  0  0  0  0  0  0  0  0  0  0  0
   47.4100   34.3370   41.8900 N   0  0  0  0  0  0  0  0  0  0  0  0
   48.9810   33.9150   40.0640 N   0  0  0  0  0  0  0  0  0  0  0  0
   44.0930   34.1540   40.7080 N   0  0  0  0  0  0  0  0  0  0  0  0
   43.3600   32.9170   40.9010 C   0  0  0  0  0  0  0  0  0  0  0  0
   41.9020   33.2120   40.7260 C   0  0  0  0  0  0  0  0  0  0  0  0
   41.8220   34.6850   41.0720 C   0  0  0  0  0  0  0  0  0  0  0  0
   43.1030   35.1860   40.3920 C   0  0  0  0  0  0  0  0  0  0  0  0
   44.4520   36.0360   44.9850 C   0  0  0  0  0  0  0  0  0  0  0  0
   44.8860   35.8600   43.6610 C   0  0  0  0  0  0  0  0  0  0  0  0
   45.5910   34.6920   43.3420 C   0  0  0  0  0  0  0  0  0  0  0  0
   45.8180   33.7860   44.3360 N   0  0  0  0  0  0  0  0  0  0  0  0
   45.3790   33.9970   45.6050 C   0  0  0  0  0  0  0  0  0  0  0  0
   44.7070   35.1090   45.9140 N   0  0  0  0  0  0  0  0  0  0  0  0
   49.7766   34.0354   40.7069 H   0  0  0  0  0  0  0  0  0  0  0  0
   49.1494   33.7032   39.0702 H   0  0  0  0  0  0  0  0  0  0  0  0
   43.6821   32.1722   40.1583 H   0  0  0  0  0  0  0  0  0  0  0  0
   43.5505   32.5123   41.9059 H   0  0  0  0  0  0  0  0  0  0  0  0
   41.5809   33.0289   39.6900 H   0  0  0  0  0  0  0  0  0  0  0  0
   41.2491   32.5798   41.3457 H   0  0  0  0  0  0  0  0  0  0  0  0
   40.9231   35.1561   40.6477 H   0  0  0  0  0  0  0  0  0  0  0  0
   41.7503   34.9060   42.1472 H   0  0  0  0  0  0  0  0  0  0  0  0
   43.4084   36.1604   40.8011 H   0  0  0  0  0  0  0  0  0  0  0  0
   42.9783   35.3386   39.3098 H   0  0  0  0  0  0  0  0  0  0  0  0
   43.8971   36.9450   45.2602 H   0  0  0  0  0  0  0  0  0  0  0  0
   44.6777   36.6201   42.8936 H   0  0  0  0  0  0  0  0  0  0  0  0
   45.5788   33.2460   46.3835 H   0  0  0  0  0  0  0  0  0  0  0  0
  1 14  1  0
  2  1  1  0
  3  4  1  0
  3  2  2  0
  4  5  2  0
  5  1  1  0
  6  4  1  0
  7  2  1  0
  7  8  1  0
  9  8  1  0
  9 10  1  0
 11  7  1  0
 11 10  1  0
 12 17  2  0
 13 12  1  0
 14 13  2  0
 14 15  1  0
 15 16  2  0
 16 17  1  0
  6 18  1  0
  6 19  1  0
  8 20  1  0
  8 21  1  0
  9 22  1  0
  9 23  1  0
 10 24  1  0
 10 25  1  0
 11 26  1  0
 11 27  1  0
 12 28  1  0
 13 29  1  0
 16 30  1  0
M  ISO  8  20  13  21  13  22  13  23  13  24  13  25  13  26  13  27  13
M  ISO  3  28  14  29  14  30  14
M  END
>  <minimizedAffinity>  (1) 
-5.06308746

>  <minimizedRMSD>  (1) 
1.17501163

$$$$
