
     RDKit          3D

 31 32  0  0  0  0  0  0  0  0999 V2000
   45.7240   33.8590   41.6330 C   0  0  0  0  0  0  0  0  0  0  0  0
   45.3680   33.9560   45.2820 C   0  0  0  0  0  0  0  0  0  0  0  0
   44.7720   35.2040   45.5200 C   0  0  0  0  0  0  0  0  0  0  0  0
   44.4890   36.0200   44.4050 C   0  0  0  0  0  0  0  0  0  0  0  0
   44.8200   35.5330   43.1680 N   0  0  0  0  0  0  0  0  0  0  0  0
   45.3920   34.3280   42.9940 C   0  0  0  0  0  0  0  0  0  0  0  0
   45.6640   33.5450   44.0490 N   0  0  0  0  0  0  0  0  0  0  0  0
   44.5400   34.0970   40.7240 C   0  0  0  0  0  0  0  0  0  0  0  0
   45.9350   32.3620   41.6480 C   0  0  0  0  0  0  0  0  0  0  0  0
   46.9090   34.5610   41.0240 C   0  0  0  0  0  0  0  0  0  0  0  0
   48.2020   34.2210   41.6280 C   0  0  0  0  0  0  0  0  0  0  0  0
   48.8410   34.6240   42.7500 N   0  0  0  0  0  0  0  0  0  0  0  0
   49.9970   34.0110   42.8440 O   0  0  0  0  0  0  0  0  0  0  0  0
   50.1490   33.2020   41.8020 C   0  0  0  0  0  0  0  0  0  0  0  0
   49.0420   33.3380   41.0610 N   0  0  0  0  0  0  0  0  0  0  0  0
   51.3190   32.4780   41.7450 O   0  0  0  0  0  0  0  0  0  0  0  0
   51.5130   31.6340   40.6240 C   0  0  0  0  0  0  0  0  0  0  0  0
   45.5968   33.3001   46.1349 H   0  0  0  0  0  0  0  0  0  0  0  0
   44.5336   35.5346   46.5417 H   0  0  0  0  0  0  0  0  0  0  0  0
   44.0210   37.0084   44.5239 H   0  0  0  0  0  0  0  0  0  0  0  0
   43.6413   34.2776   41.3321 H   0  0  0  0  0  0  0  0  0  0  0  0
   44.7355   34.9738   40.0892 H   0  0  0  0  0  0  0  0  0  0  0  0
   44.3815   33.2127   40.0892 H   0  0  0  0  0  0  0  0  0  0  0  0
   45.9847   32.0091   42.6887 H   0  0  0  0  0  0  0  0  0  0  0  0
   45.0975   31.8685   41.1331 H   0  0  0  0  0  0  0  0  0  0  0  0
   46.8762   32.1192   41.1331 H   0  0  0  0  0  0  0  0  0  0  0  0
   46.7562   35.6452   41.1300 H   0  0  0  0  0  0  0  0  0  0  0  0
   46.9600   34.2306   39.9760 H   0  0  0  0  0  0  0  0  0  0  0  0
   51.7471   30.6157   40.9679 H   0  0  0  0  0  0  0  0  0  0  0  0
   50.5960   31.6143   40.0168 H   0  0  0  0  0  0  0  0  0  0  0  0
   52.3466   32.0167   40.0168 H   0  0  0  0  0  0  0  0  0  0  0  0
  1  9  1  0
  1  6  1  0
  2  3  2  0
  4  3  1  0
  5  4  2  0
  6  5  1  0
  6  7  2  0
  7  2  1  0
  8  1  1  0
 10 11  1  0
 10  1  1  0
 11 12  2  0
 12 13  1  0
 14 13  1  0
 15 11  1  0
 15 14  2  0
 16 14  1  0
 17 16  1  0
  2 18  1  0
  3 19  1  0
  4 20  1  0
  8 21  1  0
  8 22  1  0
  8 23  1  0
  9 24  1  0
  9 25  1  0
  9 26  1  0
 10 27  1  0
 10 28  1  0
 17 29  1  0
 17 30  1  0
 17 31  1  0
M  ISO  8  18  14  19  14  20  14  21   8  22   8  23   8  24   8  25   8
M  ISO  6  26   8  27   8  28   8  29   8  30   8  31   8
M  END
>  <minimizedAffinity>  (1) 
-4.19737864

>  <minimizedRMSD>  (1) 
0.751659691

$$$$
