
     RDKit          3D

 40 43  0  0  0  0  0  0  0  0999 V2000
   47.6940   34.7880   41.5300 C   0  0  0  0  0  0  0  0  0  0  0  0
   48.9620   34.1170   41.8020 C   0  0  0  0  0  0  0  0  0  0  0  0
   49.9480   34.3120   42.7140 N   0  0  0  0  0  0  0  0  0  0  0  0
   50.8960   33.4220   42.5380 O   0  0  0  0  0  0  0  0  0  0  0  0
   50.5630   32.6460   41.5390 C   0  0  0  0  0  0  0  0  0  0  0  0
   49.3870   33.0540   41.0780 N   0  0  0  0  0  0  0  0  0  0  0  0
   51.4760   31.6320   41.2180 O   0  0  0  0  0  0  0  0  0  0  0  0
   51.8950   31.3900   39.9180 C   0  0  0  0  0  0  0  0  0  0  0  0
   53.2610   31.3810   39.6240 C   0  0  0  0  0  0  0  0  0  0  0  0
   53.3690   31.1130   38.2560 C   0  0  0  0  0  0  0  0  0  0  0  0
   52.0940   30.9730   37.7760 N   0  0  0  0  0  0  0  0  0  0  0  0
   51.2100   31.1360   38.7580 N   0  0  0  0  0  0  0  0  0  0  0  0
   51.7130   30.6940   36.4340 C   0  0  0  0  0  0  0  0  0  0  0  0
   52.2840   29.9180   35.4890 N   0  0  0  0  0  0  0  0  0  0  0  0
   51.5540   29.9810   34.3990 O   0  0  0  0  0  0  0  0  0  0  0  0
   50.5240   30.7720   34.5980 C   0  0  0  0  0  0  0  0  0  0  0  0
   50.6090   31.2250   35.8640 N   0  0  0  0  0  0  0  0  0  0  0  0
   46.4680   34.0080   41.9010 C   0  0  0  0  0  0  0  0  0  0  0  0
   45.3580   34.1220   45.3840 C   0  0  0  0  0  0  0  0  0  0  0  0
   44.6890   35.3460   45.4800 C   0  0  0  0  0  0  0  0  0  0  0  0
   44.6150   36.1370   44.3510 C   0  0  0  0  0  0  0  0  0  0  0  0
   45.2040   35.6820   43.1870 N   0  0  0  0  0  0  0  0  0  0  0  0
   45.8400   34.4910   43.1440 C   0  0  0  0  0  0  0  0  0  0  0  0
   45.9100   33.7240   44.2440 N   0  0  0  0  0  0  0  0  0  0  0  0
   45.4680   34.1820   40.7660 C   0  0  0  0  0  0  0  0  0  0  0  0
   46.7590   32.5470   41.9790 C   0  0  0  0  0  0  0  0  0  0  0  0
   47.6805   35.7323   42.0940 H   0  0  0  0  0  0  0  0  0  0  0  0
   47.6495   34.9276   40.4398 H   0  0  0  0  0  0  0  0  0  0  0  0
   54.0878   31.5511   40.3293 H   0  0  0  0  0  0  0  0  0  0  0  0
   54.3001   31.0304   37.6761 H   0  0  0  0  0  0  0  0  0  0  0  0
   49.7392   31.0183   33.8677 H   0  0  0  0  0  0  0  0  0  0  0  0
   45.4284   33.4755   46.2712 H   0  0  0  0  0  0  0  0  0  0  0  0
   44.2346   35.6695   46.4281 H   0  0  0  0  0  0  0  0  0  0  0  0
   44.0986   37.1079   44.3776 H   0  0  0  0  0  0  0  0  0  0  0  0
   44.4656   34.3564   41.1840 H   0  0  0  0  0  0  0  0  0  0  0  0
   45.7620   35.0425   40.1470 H   0  0  0  0  0  0  0  0  0  0  0  0
   45.4540   33.2728   40.1470 H   0  0  0  0  0  0  0  0  0  0  0  0
   46.8199   32.2411   43.0338 H   0  0  0  0  0  0  0  0  0  0  0  0
   45.9550   31.9859   41.4803 H   0  0  0  0  0  0  0  0  0  0  0  0
   47.7167   32.3367   41.4803 H   0  0  0  0  0  0  0  0  0  0  0  0
  1  2  1  0
  1 18  1  0
  2  3  2  0
  4  3  1  0
  5  4  1  0
  6  5  2  0
  6  2  1  0
  7  5  1  0
  8  7  1  0
  9  8  1  0
 10  9  2  0
 11 10  1  0
 11 12  1  0
 12  8  2  0
 13 11  1  0
 14 13  2  0
 15 16  1  0
 15 14  1  0
 16 17  2  0
 17 13  1  0
 18 26  1  0
 18 23  1  0
 19 20  2  0
 21 20  1  0
 22 21  2  0
 23 22  1  0
 23 24  2  0
 24 19  1  0
 25 18  1  0
  1 27  1  0
  1 28  1  0
  9 29  1  0
 10 30  1  0
 16 31  1  0
 19 32  1  0
 20 33  1  0
 21 34  1  0
 25 35  1  0
 25 36  1  0
 25 37  1  0
 26 38  1  0
 26 39  1  0
 26 40  1  0
M  ISO  8  27   8  28   8  29  14  30  14  31  14  32  14  33  14  34  14
M  ISO  6  35   8  36   8  37   8  38   8  39   8  40   8
M  END
>  <minimizedAffinity>  (1) 
-5.50877857

>  <minimizedRMSD>  (1) 
1.79614449

$$$$
