
     RDKit          3D

 25 27  0  0  0  0  0  0  0  0999 V2000
   46.1540   34.3780   42.0550 N   0  0  0  0  0  0  0  0  0  0  0  0
   45.6620   34.1790   40.8380 C   0  0  0  0  0  0  0  0  0  0  0  0
   46.6340   33.9040   39.9580 N   0  0  0  0  0  0  0  0  0  0  0  0
   47.7750   33.9360   40.6610 C   0  0  0  0  0  0  0  0  0  0  0  0
   47.4740   34.2290   41.9580 N   0  0  0  0  0  0  0  0  0  0  0  0
   49.1280   33.7180   40.2250 N   0  0  0  0  0  0  0  0  0  0  0  0
   44.4570   36.0630   44.9180 C   0  0  0  0  0  0  0  0  0  0  0  0
   44.9230   35.8660   43.6240 C   0  0  0  0  0  0  0  0  0  0  0  0
   45.6290   34.6910   43.3310 C   0  0  0  0  0  0  0  0  0  0  0  0
   45.8270   33.7770   44.3490 N   0  0  0  0  0  0  0  0  0  0  0  0
   45.3490   34.0100   45.6120 C   0  0  0  0  0  0  0  0  0  0  0  0
   44.6750   35.1440   45.8720 N   0  0  0  0  0  0  0  0  0  0  0  0
   44.2280   34.2700   40.5880 C   0  0  0  0  0  0  0  0  0  0  0  0
   43.3340   33.2340   40.8240 C   0  0  0  0  0  0  0  0  0  0  0  0
   42.0800   33.5950   40.5050 N   0  0  0  0  0  0  0  0  0  0  0  0
   42.1600   34.8660   40.0620 C   0  0  0  0  0  0  0  0  0  0  0  0
   43.4590   35.2660   40.1150 N   0  0  0  0  0  0  0  0  0  0  0  0
   49.9030   33.7797   40.9006 H   0  0  0  0  0  0  0  0  0  0  0  0
   49.3220   33.5002   39.2372 H   0  0  0  0  0  0  0  0  0  0  0  0
   43.9037   36.9815   45.1633 H   0  0  0  0  0  0  0  0  0  0  0  0
   44.7411   36.6190   42.8430 H   0  0  0  0  0  0  0  0  0  0  0  0
   45.5161   33.2719   46.4103 H   0  0  0  0  0  0  0  0  0  0  0  0
   43.6157   32.2472   41.2202 H   0  0  0  0  0  0  0  0  0  0  0  0
   41.3145   35.4782   39.7151 H   0  0  0  0  0  0  0  0  0  0  0  0
   43.8029   36.1954   39.8340 H   0  0  0  0  0  0  0  0  0  0  0  0
  1  9  1  0
  2  1  1  0
  3  4  1  0
  3  2  2  0
  4  5  2  0
  5  1  1  0
  6  4  1  0
  7 12  2  0
  8  7  1  0
  9  8  2  0
  9 10  1  0
 10 11  2  0
 11 12  1  0
 13 14  2  0
 13  2  1  0
 15 14  1  0
 16 17  1  0
 16 15  2  0
 17 13  1  0
  6 18  1  0
  6 19  1  0
  7 20  1  0
  8 21  1  0
 11 22  1  0
 14 23  1  0
 16 24  1  0
 17 25  1  0
M  ISO  6  20  14  21  14  22  14  23  14  24  14  25   9
M  END
>  <minimizedAffinity>  (1) 
-5.03794432

>  <minimizedRMSD>  (1) 
1.34237468

$$$$
