
     RDKit          3D

 42 45  0  0  0  0  0  0  0  0999 V2000
   47.5660   34.8350   41.4370 C   0  0  0  0  0  0  0  0  0  0  0  0
   48.8610   34.2660   41.7900 C   0  0  0  0  0  0  0  0  0  0  0  0
   49.8110   34.5960   42.6970 N   0  0  0  0  0  0  0  0  0  0  0  0
   50.8120   33.7510   42.6200 O   0  0  0  0  0  0  0  0  0  0  0  0
   50.5540   32.8710   41.6900 C   0  0  0  0  0  0  0  0  0  0  0  0
   49.3620   33.1700   41.1700 N   0  0  0  0  0  0  0  0  0  0  0  0
   51.5160   31.8940   41.4730 O   0  0  0  0  0  0  0  0  0  0  0  0
   51.9360   31.5000   40.2140 C   0  0  0  0  0  0  0  0  0  0  0  0
   53.2800   31.1610   40.0300 C   0  0  0  0  0  0  0  0  0  0  0  0
   53.3990   30.8140   38.6850 C   0  0  0  0  0  0  0  0  0  0  0  0
   52.1620   30.9470   38.1100 N   0  0  0  0  0  0  0  0  0  0  0  0
   51.2840   31.3590   39.0270 N   0  0  0  0  0  0  0  0  0  0  0  0
   51.9350   30.6680   36.7360 C   0  0  0  0  0  0  0  0  0  0  0  0
   50.7440   30.9780   36.0720 C   0  0  0  0  0  0  0  0  0  0  0  0
   50.8270   30.5820   34.7420 C   0  0  0  0  0  0  0  0  0  0  0  0
   52.0980   30.0390   34.6670 C   0  0  0  0  0  0  0  0  0  0  0  0
   52.6970   30.1060   35.8220 O   0  0  0  0  0  0  0  0  0  0  0  0
   46.3780   34.0180   41.8600 C   0  0  0  0  0  0  0  0  0  0  0  0
   45.3540   34.1010   45.3680 C   0  0  0  0  0  0  0  0  0  0  0  0
   44.6950   35.3340   45.5030 C   0  0  0  0  0  0  0  0  0  0  0  0
   44.6030   36.1430   44.3740 C   0  0  0  0  0  0  0  0  0  0  0  0
   45.1590   35.6900   43.2050 N   0  0  0  0  0  0  0  0  0  0  0  0
   45.7860   34.4940   43.1180 C   0  0  0  0  0  0  0  0  0  0  0  0
   45.8760   33.7100   44.2100 N   0  0  0  0  0  0  0  0  0  0  0  0
   45.3380   34.1670   40.7640 C   0  0  0  0  0  0  0  0  0  0  0  0
   46.7090   32.5630   41.9440 C   0  0  0  0  0  0  0  0  0  0  0  0
   47.4868   35.8241   41.9119 H   0  0  0  0  0  0  0  0  0  0  0  0
   47.5366   34.8751   40.3381 H   0  0  0  0  0  0  0  0  0  0  0  0
   54.0770   31.1669   40.7881 H   0  0  0  0  0  0  0  0  0  0  0  0
   54.3198   30.4916   38.1768 H   0  0  0  0  0  0  0  0  0  0  0  0
   49.8712   31.4631   36.5335 H   0  0  0  0  0  0  0  0  0  0  0  0
   50.0717   30.6765   33.9480 H   0  0  0  0  0  0  0  0  0  0  0  0
   52.5417   29.6096   33.7566 H   0  0  0  0  0  0  0  0  0  0  0  0
   45.4404   33.4414   46.2441 H   0  0  0  0  0  0  0  0  0  0  0  0
   44.2670   35.6490   46.4661 H   0  0  0  0  0  0  0  0  0  0  0  0
   44.0980   37.1192   44.4182 H   0  0  0  0  0  0  0  0  0  0  0  0
   44.3457   34.3092   41.2170 H   0  0  0  0  0  0  0  0  0  0  0  0
   45.5848   35.0390   40.1405 H   0  0  0  0  0  0  0  0  0  0  0  0
   45.3300   33.2608   40.1405 H   0  0  0  0  0  0  0  0  0  0  0  0
   46.7773   32.2629   43.0001 H   0  0  0  0  0  0  0  0  0  0  0  0
   45.9209   31.9784   41.4469 H   0  0  0  0  0  0  0  0  0  0  0  0
   47.6724   32.3768   41.4469 H   0  0  0  0  0  0  0  0  0  0  0  0
  1  2  1  0
  1 18  1  0
  2  3  2  0
  4  3  1  0
  5  4  1  0
  6  5  2  0
  6  2  1  0
  7  5  1  0
  8  7  1  0
  9  8  1  0
 10  9  2  0
 11 10  1  0
 11 12  1  0
 12  8  2  0
 13 11  1  0
 14 13  2  0
 15 14  1  0
 16 15  2  0
 16 17  1  0
 17 13  1  0
 18 26  1  0
 18 23  1  0
 19 20  2  0
 21 20  1  0
 22 21  2  0
 23 22  1  0
 23 24  2  0
 24 19  1  0
 25 18  1  0
  1 27  1  0
  1 28  1  0
  9 29  1  0
 10 30  1  0
 14 31  1  0
 15 32  1  0
 16 33  1  0
 19 34  1  0
 20 35  1  0
 21 36  1  0
 25 37  1  0
 25 38  1  0
 25 39  1  0
 26 40  1  0
 26 41  1  0
 26 42  1  0
M  ISO  8  27   8  28   8  29  14  30  14  31  14  32  14  33  14  34  14
M  ISO  8  35  14  36  14  37   8  38   8  39   8  40   8  41   8  42   8
M  END
>  <minimizedAffinity>  (1) 
-5.37684441

>  <minimizedRMSD>  (1) 
1.72938395

$$$$
