
     RDKit          3D

 43 46  0  0  0  0  0  0  0  0999 V2000
   47.5660   34.8550   41.4380 C   0  0  0  0  0  0  0  0  0  0  0  0
   48.8700   34.2830   41.7970 C   0  0  0  0  0  0  0  0  0  0  0  0
   49.8170   34.6250   42.6940 N   0  0  0  0  0  0  0  0  0  0  0  0
   50.8170   33.7730   42.6210 O   0  0  0  0  0  0  0  0  0  0  0  0
   50.5550   32.8830   41.7010 C   0  0  0  0  0  0  0  0  0  0  0  0
   49.3650   33.1800   41.1850 N   0  0  0  0  0  0  0  0  0  0  0  0
   51.5270   31.8940   41.4940 O   0  0  0  0  0  0  0  0  0  0  0  0
   51.9310   31.5010   40.2360 C   0  0  0  0  0  0  0  0  0  0  0  0
   53.2770   31.1480   40.0210 C   0  0  0  0  0  0  0  0  0  0  0  0
   53.3690   30.8030   38.6750 C   0  0  0  0  0  0  0  0  0  0  0  0
   52.1420   30.9450   38.1280 N   0  0  0  0  0  0  0  0  0  0  0  0
   51.2740   31.3630   39.0560 N   0  0  0  0  0  0  0  0  0  0  0  0
   51.8960   30.6690   36.7530 C   0  0  0  0  0  0  0  0  0  0  0  0
   52.8030   29.9760   35.9440 C   0  0  0  0  0  0  0  0  0  0  0  0
   52.5070   29.7400   34.6170 C   0  0  0  0  0  0  0  0  0  0  0  0
   51.3530   30.1550   34.0430 N   0  0  0  0  0  0  0  0  0  0  0  0
   50.4940   30.8260   34.8600 C   0  0  0  0  0  0  0  0  0  0  0  0
   50.7400   31.0850   36.1790 N   0  0  0  0  0  0  0  0  0  0  0  0
   46.3850   34.0370   41.8500 C   0  0  0  0  0  0  0  0  0  0  0  0
   45.3530   34.1060   45.3710 C   0  0  0  0  0  0  0  0  0  0  0  0
   44.6940   35.3370   45.4960 C   0  0  0  0  0  0  0  0  0  0  0  0
   44.6020   36.1430   44.3770 C   0  0  0  0  0  0  0  0  0  0  0  0
   45.1590   35.6990   43.2030 N   0  0  0  0  0  0  0  0  0  0  0  0
   45.7900   34.5010   43.1200 C   0  0  0  0  0  0  0  0  0  0  0  0
   45.8780   33.7200   44.2110 N   0  0  0  0  0  0  0  0  0  0  0  0
   45.3330   34.1630   40.7660 C   0  0  0  0  0  0  0  0  0  0  0  0
   46.7180   32.5740   41.9510 C   0  0  0  0  0  0  0  0  0  0  0  0
   47.4821   35.8416   41.9171 H   0  0  0  0  0  0  0  0  0  0  0  0
   47.5413   34.9009   40.3392 H   0  0  0  0  0  0  0  0  0  0  0  0
   54.0887   31.1453   40.7634 H   0  0  0  0  0  0  0  0  0  0  0  0
   54.2783   30.4737   38.1508 H   0  0  0  0  0  0  0  0  0  0  0  0
   53.7537   29.6186   36.3665 H   0  0  0  0  0  0  0  0  0  0  0  0
   53.2369   29.1935   34.0016 H   0  0  0  0  0  0  0  0  0  0  0  0
   49.5448   31.1809   34.4321 H   0  0  0  0  0  0  0  0  0  0  0  0
   45.4376   33.4473   46.2479 H   0  0  0  0  0  0  0  0  0  0  0  0
   44.2624   35.6525   46.4573 H   0  0  0  0  0  0  0  0  0  0  0  0
   44.0943   37.1176   44.4257 H   0  0  0  0  0  0  0  0  0  0  0  0
   44.3421   34.2817   41.2287 H   0  0  0  0  0  0  0  0  0  0  0  0
   45.5535   35.0412   40.1413 H   0  0  0  0  0  0  0  0  0  0  0  0
   45.3399   33.2576   40.1413 H   0  0  0  0  0  0  0  0  0  0  0  0
   46.7837   32.2852   43.0104 H   0  0  0  0  0  0  0  0  0  0  0  0
   45.9312   31.9840   41.4583 H   0  0  0  0  0  0  0  0  0  0  0  0
   47.6827   32.3827   41.4583 H   0  0  0  0  0  0  0  0  0  0  0  0
  1  2  1  0
  1 19  1  0
  2  3  2  0
  4  3  1  0
  5  4  1  0
  6  5  2  0
  6  2  1  0
  7  5  1  0
  8  7  1  0
  9  8  1  0
 10  9  2  0
 11 10  1  0
 11 12  1  0
 12  8  2  0
 13 11  1  0
 14 13  2  0
 15 14  1  0
 16 15  2  0
 16 17  1  0
 17 18  2  0
 18 13  1  0
 19 27  1  0
 19 24  1  0
 20 21  2  0
 22 21  1  0
 23 22  2  0
 24 23  1  0
 24 25  2  0
 25 20  1  0
 26 19  1  0
  1 28  1  0
  1 29  1  0
  9 30  1  0
 10 31  1  0
 14 32  1  0
 15 33  1  0
 17 34  1  0
 20 35  1  0
 21 36  1  0
 22 37  1  0
 26 38  1  0
 26 39  1  0
 26 40  1  0
 27 41  1  0
 27 42  1  0
 27 43  1  0
M  ISO  8  28   8  29   8  30  14  31  14  32  14  33  14  34  14  35  14
M  ISO  8  36  14  37  14  38   8  39   8  40   8  41   8  42   8  43   8
M  END
>  <minimizedAffinity>  (1) 
-5.47070885

>  <minimizedRMSD>  (1) 
1.80794978

$$$$
