
     RDKit          3D

 43 46  0  0  0  0  0  0  0  0999 V2000
   47.5290   34.8880   41.4370 C   0  0  0  0  0  0  0  0  0  0  0  0
   48.8260   34.3170   41.7950 C   0  0  0  0  0  0  0  0  0  0  0  0
   49.7820   34.6580   42.6850 N   0  0  0  0  0  0  0  0  0  0  0  0
   50.7810   33.8050   42.6190 O   0  0  0  0  0  0  0  0  0  0  0  0
   50.5130   32.9090   41.7080 C   0  0  0  0  0  0  0  0  0  0  0  0
   49.3140   33.2060   41.1880 N   0  0  0  0  0  0  0  0  0  0  0  0
   51.4750   31.9160   41.5020 O   0  0  0  0  0  0  0  0  0  0  0  0
   51.9010   31.5310   40.2360 C   0  0  0  0  0  0  0  0  0  0  0  0
   53.2350   31.1820   40.0350 C   0  0  0  0  0  0  0  0  0  0  0  0
   53.3440   30.8480   38.6730 C   0  0  0  0  0  0  0  0  0  0  0  0
   52.1110   31.0010   38.1160 N   0  0  0  0  0  0  0  0  0  0  0  0
   51.2550   31.4070   39.0490 N   0  0  0  0  0  0  0  0  0  0  0  0
   51.7740   30.7660   36.7490 C   0  0  0  0  0  0  0  0  0  0  0  0
   50.5600   31.1680   36.2320 C   0  0  0  0  0  0  0  0  0  0  0  0
   50.3050   30.9060   34.8970 C   0  0  0  0  0  0  0  0  0  0  0  0
   51.2230   30.2800   34.1470 N   0  0  0  0  0  0  0  0  0  0  0  0
   52.4060   29.8850   34.6390 C   0  0  0  0  0  0  0  0  0  0  0  0
   52.6470   30.1460   35.9430 N   0  0  0  0  0  0  0  0  0  0  0  0
   46.3440   34.0790   41.8540 C   0  0  0  0  0  0  0  0  0  0  0  0
   45.3660   34.0880   45.3890 C   0  0  0  0  0  0  0  0  0  0  0  0
   44.7010   35.3110   45.5400 C   0  0  0  0  0  0  0  0  0  0  0  0
   44.5850   36.1350   44.4360 C   0  0  0  0  0  0  0  0  0  0  0  0
   45.1300   35.7110   43.2370 N   0  0  0  0  0  0  0  0  0  0  0  0
   45.7620   34.5260   43.1410 C   0  0  0  0  0  0  0  0  0  0  0  0
   45.8750   33.7260   44.2140 N   0  0  0  0  0  0  0  0  0  0  0  0
   45.2820   34.2400   40.7730 C   0  0  0  0  0  0  0  0  0  0  0  0
   46.6650   32.6080   41.9180 C   0  0  0  0  0  0  0  0  0  0  0  0
   47.4498   35.8777   41.9106 H   0  0  0  0  0  0  0  0  0  0  0  0
   47.5033   34.9253   40.3379 H   0  0  0  0  0  0  0  0  0  0  0  0
   54.0378   31.1701   40.7869 H   0  0  0  0  0  0  0  0  0  0  0  0
   54.2574   30.5230   38.1534 H   0  0  0  0  0  0  0  0  0  0  0  0
   49.8176   31.6809   36.8611 H   0  0  0  0  0  0  0  0  0  0  0  0
   49.3473   31.2120   34.4507 H   0  0  0  0  0  0  0  0  0  0  0  0
   53.1474   29.3714   34.0094 H   0  0  0  0  0  0  0  0  0  0  0  0
   45.4691   33.4167   46.2543 H   0  0  0  0  0  0  0  0  0  0  0  0
   44.2815   35.6086   46.5124 H   0  0  0  0  0  0  0  0  0  0  0  0
   44.0714   37.1050   44.5091 H   0  0  0  0  0  0  0  0  0  0  0  0
   44.2991   34.3890   41.2439 H   0  0  0  0  0  0  0  0  0  0  0  0
   45.5248   35.1116   40.1474 H   0  0  0  0  0  0  0  0  0  0  0  0
   45.2555   33.3356   40.1474 H   0  0  0  0  0  0  0  0  0  0  0  0
   46.7337   32.2931   42.9697 H   0  0  0  0  0  0  0  0  0  0  0  0
   45.8703   32.0371   41.4155 H   0  0  0  0  0  0  0  0  0  0  0  0
   47.6253   32.4201   41.4155 H   0  0  0  0  0  0  0  0  0  0  0  0
  1  2  1  0
  1 19  1  0
  2  3  2  0
  4  3  1  0
  5  4  1  0
  6  5  2  0
  6  2  1  0
  7  5  1  0
  8  7  1  0
  9  8  1  0
 10  9  2  0
 11 10  1  0
 11 12  1  0
 12  8  2  0
 13 11  1  0
 14 13  2  0
 15 14  1  0
 16 17  1  0
 16 15  2  0
 17 18  2  0
 18 13  1  0
 19 27  1  0
 19 24  1  0
 20 21  2  0
 22 21  1  0
 23 22  2  0
 24 23  1  0
 24 25  2  0
 25 20  1  0
 26 19  1  0
  1 28  1  0
  1 29  1  0
  9 30  1  0
 10 31  1  0
 14 32  1  0
 15 33  1  0
 17 34  1  0
 20 35  1  0
 21 36  1  0
 22 37  1  0
 26 38  1  0
 26 39  1  0
 26 40  1  0
 27 41  1  0
 27 42  1  0
 27 43  1  0
M  ISO  8  28   8  29   8  30  14  31  14  32  14  33  14  34  14  35  14
M  ISO  8  36  14  37  14  38   8  39   8  40   8  41   8  42   8  43   8
M  END
>  <minimizedAffinity>  (1) 
-5.47955847

>  <minimizedRMSD>  (1) 
1.86839354

$$$$
