
     RDKit          3D

 25 26  0  0  1  0  0  0  0  0999 V2000
   45.8790   33.0490   45.6440 C   0  0  2  0  0  0  0  0  0  0  0  0
   45.1600   34.3290   45.9780 C   0  0  0  0  0  0  0  0  0  0  0  0
   44.7690   35.2070   44.8920 C   0  0  0  0  0  0  0  0  0  0  0  0
   45.0810   34.8210   43.5150 C   0  0  0  0  0  0  0  0  0  0  0  0
   45.9730   33.6620   43.3240 C   0  0  0  0  0  0  0  0  0  0  0  0
   45.5260   32.5700   44.2680 C   0  0  0  0  0  0  0  0  0  0  0  0
   45.3930   32.4910   47.9970 C   0  0  0  0  0  0  0  0  0  0  0  0
   45.6550   32.0550   46.7000 C   0  0  0  0  0  0  0  0  0  0  0  0
   45.7070   30.6600   46.4800 C   0  0  0  0  0  0  0  0  0  0  0  0
   45.5010   29.8220   47.5300 N   0  0  0  0  0  0  0  0  0  0  0  0
   45.2490   30.2870   48.7800 C   0  0  0  0  0  0  0  0  0  0  0  0
   45.1950   31.6200   49.0120 N   0  0  0  0  0  0  0  0  0  0  0  0
   47.2570   33.3580   45.6800 O   0  0  0  0  0  0  0  0  0  0  0  0
   44.9363   34.5923   47.0223 H   0  0  0  0  0  0  0  0  0  0  0  0
   44.2445   36.1512   45.1005 H   0  0  0  0  0  0  0  0  0  0  0  0
   44.1298   34.5925   43.0121 H   0  0  0  0  0  0  0  0  0  0  0  0
   45.6352   35.6759   43.1003 H   0  0  0  0  0  0  0  0  0  0  0  0
   45.9074   33.3074   42.2848 H   0  0  0  0  0  0  0  0  0  0  0  0
   47.0160   33.9436   43.5310 H   0  0  0  0  0  0  0  0  0  0  0  0
   44.4406   32.4120   44.1842 H   0  0  0  0  0  0  0  0  0  0  0  0
   46.0122   31.6108   44.0363 H   0  0  0  0  0  0  0  0  0  0  0  0
   45.3460   33.5710   48.2004 H   0  0  0  0  0  0  0  0  0  0  0  0
   45.9107   30.2592   45.4761 H   0  0  0  0  0  0  0  0  0  0  0  0
   45.0882   29.5793   49.6066 H   0  0  0  0  0  0  0  0  0  0  0  0
   47.5557   33.4250   46.6215 H   0  0  0  0  0  0  0  0  0  0  0  0
  1 13  1  6
  1  2  1  0
  1  8  1  0
  3  2  2  0
  4  3  1  0
  5  4  1  0
  5  6  1  0
  6  1  1  0
  7 12  2  0
  8  7  1  0
  9  8  2  0
  9 10  1  0
 10 11  2  0
 11 12  1  0
  2 14  1  0
  3 15  1  0
  4 16  1  0
  4 17  1  0
  5 18  1  0
  5 19  1  0
  6 20  1  0
  6 21  1  0
  7 22  1  0
  9 23  1  0
 11 24  1  0
 13 25  1  0
M  ISO  8  14  13  15  13  16  13  17  13  18  13  19  13  20  13  21  13
M  ISO  4  22  14  23  14  24  14  25   3
M  END
>  <minimizedAffinity>  (1) 
-4.07501316

>  <minimizedRMSD>  (1) 
0.992781878

$$$$
