
     RDKit          3D

 41 43  0  0  0  0  0  0  0  0999 V2000
   47.5910   34.7960   41.4480 C   0  0  0  0  0  0  0  0  0  0  0  0
   48.8810   34.1810   41.7910 C   0  0  0  0  0  0  0  0  0  0  0  0
   49.8120   34.4280   42.7380 N   0  0  0  0  0  0  0  0  0  0  0  0
   50.8030   33.5690   42.6120 O   0  0  0  0  0  0  0  0  0  0  0  0
   50.5490   32.7670   41.6080 C   0  0  0  0  0  0  0  0  0  0  0  0
   49.3770   33.1260   41.0950 N   0  0  0  0  0  0  0  0  0  0  0  0
   51.5010   31.7960   41.3390 O   0  0  0  0  0  0  0  0  0  0  0  0
   51.9290   31.4830   40.0610 C   0  0  0  0  0  0  0  0  0  0  0  0
   53.2770   31.2380   39.8190 C   0  0  0  0  0  0  0  0  0  0  0  0
   53.3910   30.9540   38.4500 C   0  0  0  0  0  0  0  0  0  0  0  0
   52.1490   31.0320   37.9230 N   0  0  0  0  0  0  0  0  0  0  0  0
   51.2590   31.3490   38.8740 N   0  0  0  0  0  0  0  0  0  0  0  0
   51.6790   30.8330   36.5550 C   0  0  0  0  0  0  0  0  0  0  0  0
   51.8140   29.3960   36.1440 C   0  0  0  0  0  0  0  0  0  0  0  0
   46.3910   34.0170   41.8720 C   0  0  0  0  0  0  0  0  0  0  0  0
   45.3530   34.1100   45.3790 C   0  0  0  0  0  0  0  0  0  0  0  0
   44.6970   35.3280   45.5000 C   0  0  0  0  0  0  0  0  0  0  0  0
   44.6050   36.1300   44.3660 C   0  0  0  0  0  0  0  0  0  0  0  0
   45.1670   35.6770   43.2000 N   0  0  0  0  0  0  0  0  0  0  0  0
   45.7950   34.4890   43.1280 C   0  0  0  0  0  0  0  0  0  0  0  0
   45.8840   33.7120   44.2230 N   0  0  0  0  0  0  0  0  0  0  0  0
   45.3560   34.1710   40.7590 C   0  0  0  0  0  0  0  0  0  0  0  0
   46.6960   32.5450   41.9450 C   0  0  0  0  0  0  0  0  0  0  0  0
   47.5447   35.7839   41.9295 H   0  0  0  0  0  0  0  0  0  0  0  0
   47.5548   34.8447   40.3497 H   0  0  0  0  0  0  0  0  0  0  0  0
   54.0930   31.2622   40.5563 H   0  0  0  0  0  0  0  0  0  0  0  0
   54.3171   30.7131   37.9075 H   0  0  0  0  0  0  0  0  0  0  0  0
   50.6210   31.1275   36.4916 H   0  0  0  0  0  0  0  0  0  0  0  0
   52.2915   31.4495   35.8807 H   0  0  0  0  0  0  0  0  0  0  0  0
   51.8736   28.7621   37.0410 H   0  0  0  0  0  0  0  0  0  0  0  0
   50.9395   29.1023   35.5449 H   0  0  0  0  0  0  0  0  0  0  0  0
   52.7279   29.2703   35.5449 H   0  0  0  0  0  0  0  0  0  0  0  0
   45.4366   33.4567   46.2600 H   0  0  0  0  0  0  0  0  0  0  0  0
   44.2647   35.6482   46.4595 H   0  0  0  0  0  0  0  0  0  0  0  0
   44.0940   37.1033   44.4042 H   0  0  0  0  0  0  0  0  0  0  0  0
   44.3602   34.3192   41.2022 H   0  0  0  0  0  0  0  0  0  0  0  0
   45.6134   35.0407   40.1367 H   0  0  0  0  0  0  0  0  0  0  0  0
   45.3491   33.2640   40.1367 H   0  0  0  0  0  0  0  0  0  0  0  0
   46.7601   32.2356   42.9987 H   0  0  0  0  0  0  0  0  0  0  0  0
   45.8959   31.9795   41.4448 H   0  0  0  0  0  0  0  0  0  0  0  0
   47.6549   32.3440   41.4448 H   0  0  0  0  0  0  0  0  0  0  0  0
  1  2  1  0
  1 15  1  0
  2  3  2  0
  4  3  1  0
  5  4  1  0
  6  5  2  0
  6  2  1  0
  7  5  1  0
  8  7  1  0
  9  8  1  0
 10  9  2  0
 11 10  1  0
 11 12  1  0
 12  8  2  0
 13 11  1  0
 14 13  1  0
 15 23  1  0
 15 20  1  0
 16 17  2  0
 18 17  1  0
 19 18  2  0
 20 19  1  0
 20 21  2  0
 21 16  1  0
 22 15  1  0
  1 24  1  0
  1 25  1  0
  9 26  1  0
 10 27  1  0
 13 28  1  0
 13 29  1  0
 14 30  1  0
 14 31  1  0
 14 32  1  0
 16 33  1  0
 17 34  1  0
 18 35  1  0
 22 36  1  0
 22 37  1  0
 22 38  1  0
 23 39  1  0
 23 40  1  0
 23 41  1  0
M  ISO  8  24   8  25   8  26  14  27  14  28   8  29   8  30   8  31   8
M  ISO  8  32   8  33  14  34  14  35  14  36   8  37   8  38   8  39   8
M  ISO  2  40   8  41   8
M  END
>  <minimizedAffinity>  (1) 
-4.92268658

>  <minimizedRMSD>  (1) 
1.22955704

$$$$
