
     RDKit          3D

 42 45  0  0  0  0  0  0  0  0999 V2000
   47.6060   34.8150   41.4840 C   0  0  0  0  0  0  0  0  0  0  0  0
   48.8860   34.1960   41.8020 C   0  0  0  0  0  0  0  0  0  0  0  0
   49.8330   34.4470   42.7370 N   0  0  0  0  0  0  0  0  0  0  0  0
   50.8180   33.5910   42.6070 O   0  0  0  0  0  0  0  0  0  0  0  0
   50.5630   32.7800   41.6200 C   0  0  0  0  0  0  0  0  0  0  0  0
   49.3790   33.1380   41.1150 N   0  0  0  0  0  0  0  0  0  0  0  0
   51.5140   31.8010   41.3420 O   0  0  0  0  0  0  0  0  0  0  0  0
   51.9060   31.4840   40.0560 C   0  0  0  0  0  0  0  0  0  0  0  0
   53.2600   31.2340   39.7910 C   0  0  0  0  0  0  0  0  0  0  0  0
   53.3500   30.9450   38.4230 C   0  0  0  0  0  0  0  0  0  0  0  0
   52.0980   31.0260   37.9220 N   0  0  0  0  0  0  0  0  0  0  0  0
   51.2230   31.3450   38.8750 N   0  0  0  0  0  0  0  0  0  0  0  0
   51.7880   30.7880   36.5190 C   0  0  0  0  0  0  0  0  0  0  0  0
   51.0010   29.5880   36.1450 C   0  0  0  0  0  0  0  0  0  0  0  0
   50.3490   30.9600   36.0770 C   0  0  0  0  0  0  0  0  0  0  0  0
   46.3990   34.0220   41.8850 C   0  0  0  0  0  0  0  0  0  0  0  0
   45.3580   34.1050   45.3930 C   0  0  0  0  0  0  0  0  0  0  0  0
   44.6940   35.3290   45.5080 C   0  0  0  0  0  0  0  0  0  0  0  0
   44.5980   36.1400   44.3740 C   0  0  0  0  0  0  0  0  0  0  0  0
   45.1640   35.6830   43.2150 N   0  0  0  0  0  0  0  0  0  0  0  0
   45.7960   34.4930   43.1520 C   0  0  0  0  0  0  0  0  0  0  0  0
   45.8870   33.7210   44.2330 N   0  0  0  0  0  0  0  0  0  0  0  0
   45.3690   34.1890   40.7770 C   0  0  0  0  0  0  0  0  0  0  0  0
   46.7000   32.5580   41.9480 C   0  0  0  0  0  0  0  0  0  0  0  0
   47.5608   35.7871   41.9969 H   0  0  0  0  0  0  0  0  0  0  0  0
   47.5689   34.8959   40.3876 H   0  0  0  0  0  0  0  0  0  0  0  0
   54.0882   31.2597   40.5145 H   0  0  0  0  0  0  0  0  0  0  0  0
   54.2649   30.6992   37.8640 H   0  0  0  0  0  0  0  0  0  0  0  0
   52.7581   31.1953   36.1980 H   0  0  0  0  0  0  0  0  0  0  0  0
   51.2355   29.0457   35.2172 H   0  0  0  0  0  0  0  0  0  0  0  0
   50.7552   28.6375   36.6411 H   0  0  0  0  0  0  0  0  0  0  0  0
   50.1193   31.4167   35.1030 H   0  0  0  0  0  0  0  0  0  0  0  0
   49.4460   31.4237   36.5008 H   0  0  0  0  0  0  0  0  0  0  0  0
   45.4449   33.4500   46.2724 H   0  0  0  0  0  0  0  0  0  0  0  0
   44.2579   35.6462   46.4668 H   0  0  0  0  0  0  0  0  0  0  0  0
   44.0851   37.1124   44.4118 H   0  0  0  0  0  0  0  0  0  0  0  0
   44.3756   34.3501   41.2211 H   0  0  0  0  0  0  0  0  0  0  0  0
   45.6372   35.0554   40.1546 H   0  0  0  0  0  0  0  0  0  0  0  0
   45.3497   33.2822   40.1546 H   0  0  0  0  0  0  0  0  0  0  0  0
   46.7650   32.2419   42.9996 H   0  0  0  0  0  0  0  0  0  0  0  0
   45.8984   31.9969   41.4454 H   0  0  0  0  0  0  0  0  0  0  0  0
   47.6579   32.3586   41.4454 H   0  0  0  0  0  0  0  0  0  0  0  0
  1  2  1  0
  1 16  1  0
  2  3  2  0
  4  3  1  0
  5  4  1  0
  6  5  2  0
  6  2  1  0
  7  5  1  0
  8  7  1  0
  9  8  1  0
 10  9  2  0
 11 10  1  0
 11 12  1  0
 12  8  2  0
 13 11  1  0
 14 13  1  0
 15 14  1  0
 15 13  1  0
 16 24  1  0
 16 21  1  0
 17 18  2  0
 19 18  1  0
 20 19  2  0
 21 20  1  0
 21 22  2  0
 22 17  1  0
 23 16  1  0
  1 25  1  0
  1 26  1  0
  9 27  1  0
 10 28  1  0
 13 29  1  0
 14 30  1  0
 14 31  1  0
 15 32  1  0
 15 33  1  0
 17 34  1  0
 18 35  1  0
 19 36  1  0
 23 37  1  0
 23 38  1  0
 23 39  1  0
 24 40  1  0
 24 41  1  0
 24 42  1  0
M  ISO  8  25   8  26   8  27  14  28  14  29  13  30  13  31  13  32  13
M  ISO  8  33  13  34  14  35  14  36  14  37   8  38   8  39   8  40   8
M  ISO  2  41   8  42   8
M  END
>  <minimizedAffinity>  (1) 
-5.04468775

>  <minimizedRMSD>  (1) 
1.46264315

$$$$
