
     RDKit          3D

 27 28  0  0  1  0  0  0  0  0999 V2000
   45.5200   34.0130   43.4050 C   0  0  2  0  0  0  0  0  0  0  0  0
   45.1460   35.3840   43.8380 C   0  0  0  0  0  0  0  0  0  0  0  0
   44.3810   36.2210   42.9300 C   0  0  0  0  0  0  0  0  0  0  0  0
   44.0000   35.7070   41.6210 C   0  0  0  0  0  0  0  0  0  0  0  0
   44.4600   34.3630   41.2520 C   0  0  0  0  0  0  0  0  0  0  0  0
   44.5280   33.4550   42.4250 C   0  0  0  0  0  0  0  0  0  0  0  0
   45.6410   33.6860   45.8880 C   0  0  0  0  0  0  0  0  0  0  0  0
   45.7000   33.1420   44.5850 C   0  0  0  0  0  0  0  0  0  0  0  0
   45.9400   31.7690   44.5190 C   0  0  0  0  0  0  0  0  0  0  0  0
   46.0950   31.0610   45.6620 N   0  0  0  0  0  0  0  0  0  0  0  0
   46.0310   31.6190   46.8720 C   0  0  0  0  0  0  0  0  0  0  0  0
   45.8040   32.9290   46.9800 N   0  0  0  0  0  0  0  0  0  0  0  0
   46.9200   34.0570   42.7620 C   0  0  0  0  0  0  0  0  0  0  0  0
   47.9140   33.9900   43.7130 F   0  0  0  0  0  0  0  0  0  0  0  0
   47.0570   33.2200   41.7050 F   0  0  0  0  0  0  0  0  0  0  0  0
   47.0690   35.3560   42.2160 F   0  0  0  0  0  0  0  0  0  0  0  0
   45.4431   35.7587   44.8286 H   0  0  0  0  0  0  0  0  0  0  0  0
   44.0905   37.2388   43.2295 H   0  0  0  0  0  0  0  0  0  0  0  0
   42.9008   35.7005   41.5785 H   0  0  0  0  0  0  0  0  0  0  0  0
   44.4993   36.3764   40.9051 H   0  0  0  0  0  0  0  0  0  0  0  0
   43.7621   33.9390   40.5150 H   0  0  0  0  0  0  0  0  0  0  0  0
   45.4737   34.4543   40.8347 H   0  0  0  0  0  0  0  0  0  0  0  0
   43.5375   33.3863   42.8985 H   0  0  0  0  0  0  0  0  0  0  0  0
   44.8400   32.4499   42.1050 H   0  0  0  0  0  0  0  0  0  0  0  0
   45.4556   34.7636   46.0085 H   0  0  0  0  0  0  0  0  0  0  0  0
   46.0029   31.2648   43.5434 H   0  0  0  0  0  0  0  0  0  0  0  0
   46.1644   31.0035   47.7739 H   0  0  0  0  0  0  0  0  0  0  0  0
  1 13  1  6
  1  2  1  0
  1  8  1  0
  3  2  2  0
  4  3  1  0
  5  4  1  0
  5  6  1  0
  6  1  1  0
  7 12  2  0
  8  7  1  0
  9  8  2  0
  9 10  1  0
 10 11  2  0
 11 12  1  0
 13 14  1  0
 15 13  1  0
 16 13  1  0
  2 17  1  0
  3 18  1  0
  4 19  1  0
  4 20  1  0
  5 21  1  0
  5 22  1  0
  6 23  1  0
  6 24  1  0
  7 25  1  0
  9 26  1  0
 11 27  1  0
M  ISO  8  17  13  18  13  19  13  20  13  21  13  22  13  23  13  24  13
M  ISO  3  25  14  26  14  27  14
M  END
>  <minimizedAffinity>  (1) 
-4.30862427

>  <minimizedRMSD>  (1) 
2.31606317

$$$$
