
     RDKit          3D

 38 40  0  0  0  0  0  0  0  0999 V2000
   45.7300   33.9230   41.6540 C   0  0  0  0  0  0  0  0  0  0  0  0
   45.3590   33.9710   45.2900 C   0  0  0  0  0  0  0  0  0  0  0  0
   44.7650   35.2000   45.5510 C   0  0  0  0  0  0  0  0  0  0  0  0
   44.4870   36.0240   44.4720 C   0  0  0  0  0  0  0  0  0  0  0  0
   44.8110   35.5870   43.2030 N   0  0  0  0  0  0  0  0  0  0  0  0
   45.3900   34.3770   43.0090 C   0  0  0  0  0  0  0  0  0  0  0  0
   45.6580   33.5810   44.0530 N   0  0  0  0  0  0  0  0  0  0  0  0
   44.5550   34.2170   40.7310 C   0  0  0  0  0  0  0  0  0  0  0  0
   45.9120   32.4330   41.6360 C   0  0  0  0  0  0  0  0  0  0  0  0
   46.9150   34.6200   41.0760 C   0  0  0  0  0  0  0  0  0  0  0  0
   48.2020   34.2460   41.6470 C   0  0  0  0  0  0  0  0  0  0  0  0
   48.8600   34.6080   42.7700 N   0  0  0  0  0  0  0  0  0  0  0  0
   50.0130   33.9790   42.8390 O   0  0  0  0  0  0  0  0  0  0  0  0
   50.1330   33.2130   41.7930 C   0  0  0  0  0  0  0  0  0  0  0  0
   49.0270   33.3580   41.0380 N   0  0  0  0  0  0  0  0  0  0  0  0
   51.3060   32.4580   41.6920 O   0  0  0  0  0  0  0  0  0  0  0  0
   51.5200   31.5180   40.7050 C   0  0  0  0  0  0  0  0  0  0  0  0
   52.7690   31.4300   40.0980 C   0  0  0  0  0  0  0  0  0  0  0  0
   52.6950   30.4050   39.1500 C   0  0  0  0  0  0  0  0  0  0  0  0
   51.4350   29.9170   39.2120 N   0  0  0  0  0  0  0  0  0  0  0  0
   50.7210   30.5780   40.1430 N   0  0  0  0  0  0  0  0  0  0  0  0
   50.8810   28.8330   38.4100 C   0  0  0  0  0  0  0  0  0  0  0  0
   45.5890   33.3003   46.1310 H   0  0  0  0  0  0  0  0  0  0  0  0
   44.5237   35.5082   46.5790 H   0  0  0  0  0  0  0  0  0  0  0  0
   44.0173   37.0071   44.6236 H   0  0  0  0  0  0  0  0  0  0  0  0
   43.6623   34.4404   41.3336 H   0  0  0  0  0  0  0  0  0  0  0  0
   44.7950   35.0828   40.0963 H   0  0  0  0  0  0  0  0  0  0  0  0
   44.3590   33.3402   40.0963 H   0  0  0  0  0  0  0  0  0  0  0  0
   45.9580   32.0567   42.6686 H   0  0  0  0  0  0  0  0  0  0  0  0
   45.0642   31.9663   41.1131 H   0  0  0  0  0  0  0  0  0  0  0  0
   46.8472   32.1841   41.1131 H   0  0  0  0  0  0  0  0  0  0  0  0
   46.7789   35.7012   41.2260 H   0  0  0  0  0  0  0  0  0  0  0  0
   46.9553   34.3211   40.0182 H   0  0  0  0  0  0  0  0  0  0  0  0
   53.6493   32.0504   40.3220 H   0  0  0  0  0  0  0  0  0  0  0  0
   53.5019   30.0630   38.4852 H   0  0  0  0  0  0  0  0  0  0  0  0
   50.4820   28.0523   39.0743 H   0  0  0  0  0  0  0  0  0  0  0  0
   50.0717   29.2231   37.7753 H   0  0  0  0  0  0  0  0  0  0  0  0
   51.6712   28.4056   37.7753 H   0  0  0  0  0  0  0  0  0  0  0  0
  1  6  1  0
  2  3  2  0
  4  3  1  0
  5  4  2  0
  6  5  1  0
  6  7  2  0
  7  2  1  0
  8  1  1  0
  9  1  1  0
 10 11  1  0
 10  1  1  0
 11 12  2  0
 12 13  1  0
 14 13  1  0
 15 11  1  0
 15 14  2  0
 16 14  1  0
 17 16  1  0
 18 17  1  0
 19 20  1  0
 19 18  2  0
 20 21  1  0
 21 17  2  0
 22 20  1  0
  2 23  1  0
  3 24  1  0
  4 25  1  0
  8 26  1  0
  8 27  1  0
  8 28  1  0
  9 29  1  0
  9 30  1  0
  9 31  1  0
 10 32  1  0
 10 33  1  0
 18 34  1  0
 19 35  1  0
 22 36  1  0
 22 37  1  0
 22 38  1  0
M  ISO  8  23  14  24  14  25  14  26   8  27   8  28   8  29   8  30   8
M  ISO  8  31   8  32   8  33   8  34  14  35  14  36   8  37   8  38   8
M  END
>  <minimizedAffinity>  (1) 
-4.5328126

>  <minimizedRMSD>  (1) 
0.0156874266

$$$$
