
     RDKit          3D

 26 27  0  0  1  0  0  0  0  0999 V2000
   45.7280   33.5830   44.1720 C   0  0  2  0  0  0  0  0  0  0  0  0
   45.2140   34.8420   44.8620 C   0  0  0  0  0  0  0  0  0  0  0  0
   44.4610   35.7670   44.0560 C   0  0  0  0  0  0  0  0  0  0  0  0
   44.2080   35.4820   42.6480 C   0  0  0  0  0  0  0  0  0  0  0  0
   44.7710   34.2510   42.0750 C   0  0  0  0  0  0  0  0  0  0  0  0
   44.8050   33.1520   43.0940 C   0  0  0  0  0  0  0  0  0  0  0  0
   46.5370   33.0330   46.4090 C   0  0  0  0  0  0  0  0  0  0  0  0
   46.0380   32.5810   45.1920 C   0  0  0  0  0  0  0  0  0  0  0  0
   45.9320   31.1760   44.9600 C   0  0  0  0  0  0  0  0  0  0  0  0
   46.3290   30.3340   45.9410 N   0  0  0  0  0  0  0  0  0  0  0  0
   46.8160   30.8070   47.1220 C   0  0  0  0  0  0  0  0  0  0  0  0
   46.9190   32.1390   47.3550 N   0  0  0  0  0  0  0  0  0  0  0  0
   47.0790   34.0650   43.6640 C   0  0  0  0  0  0  0  0  0  0  0  0
   48.2280   33.8800   43.2420 O   0  0  0  0  0  0  0  0  0  0  0  0
   45.4097   35.0346   45.9272 H   0  0  0  0  0  0  0  0  0  0  0  0
   44.0742   36.6940   44.5044 H   0  0  0  0  0  0  0  0  0  0  0  0
   43.1170   35.4334   42.5163 H   0  0  0  0  0  0  0  0  0  0  0  0
   44.7220   36.2922   42.1100 H   0  0  0  0  0  0  0  0  0  0  0  0
   44.1506   33.9336   41.2239 H   0  0  0  0  0  0  0  0  0  0  0  0
   45.8003   34.4561   41.7456 H   0  0  0  0  0  0  0  0  0  0  0  0
   43.7977   32.9866   43.5039 H   0  0  0  0  0  0  0  0  0  0  0  0
   45.1461   32.2094   42.6410 H   0  0  0  0  0  0  0  0  0  0  0  0
   46.6216   34.1123   46.6038 H   0  0  0  0  0  0  0  0  0  0  0  0
   45.5380   30.7889   44.0088 H   0  0  0  0  0  0  0  0  0  0  0  0
   47.1312   30.0962   47.9001 H   0  0  0  0  0  0  0  0  0  0  0  0
   46.9842   35.1608   43.6806 H   0  0  0  0  0  0  0  0  0  0  0  0
  1 13  1  6
  1  2  1  0
  1  8  1  0
  3  2  2  0
  4  3  1  0
  5  4  1  0
  5  6  1  0
  6  1  1  0
  7 12  2  0
  8  7  1  0
  9  8  2  0
  9 10  1  0
 10 11  2  0
 11 12  1  0
 14 13  2  0
  2 15  1  0
  3 16  1  0
  4 17  1  0
  4 18  1  0
  5 19  1  0
  5 20  1  0
  6 21  1  0
  6 22  1  0
  7 23  1  0
  9 24  1  0
 11 25  1  0
 13 26  1  0
M  ISO  8  15  13  16  13  17  13  18  13  19  13  20  13  21  13  22  13
M  ISO  4  23  14  24  14  25  14  26   6
M  END
>  <minimizedAffinity>  (1) 
-3.84973383

>  <minimizedRMSD>  (1) 
1.6899488

$$$$
