
     RDKit          3D

 24 26  0  0  0  0  0  0  0  0999 V2000
   45.9830   34.4110   41.9590 N   0  0  0  0  0  0  0  0  0  0  0  0
   45.4210   34.1120   40.7930 C   0  0  0  0  0  0  0  0  0  0  0  0
   46.3320   33.9270   39.8370 N   0  0  0  0  0  0  0  0  0  0  0  0
   47.5260   34.1190   40.4340 C   0  0  0  0  0  0  0  0  0  0  0  0
   47.3230   34.4220   41.7620 N   0  0  0  0  0  0  0  0  0  0  0  0
   48.8570   34.0470   39.8880 N   0  0  0  0  0  0  0  0  0  0  0  0
   44.0040   34.0260   40.6840 N   0  0  0  0  0  0  0  0  0  0  0  0
   43.0790   33.0610   40.8170 C   0  0  0  0  0  0  0  0  0  0  0  0
   41.8530   33.5580   40.5940 N   0  0  0  0  0  0  0  0  0  0  0  0
   42.0110   34.8600   40.3140 C   0  0  0  0  0  0  0  0  0  0  0  0
   43.3300   35.1210   40.3750 N   0  0  0  0  0  0  0  0  0  0  0  0
   44.4540   36.0430   44.9530 C   0  0  0  0  0  0  0  0  0  0  0  0
   44.8500   35.8660   43.6310 C   0  0  0  0  0  0  0  0  0  0  0  0
   45.5330   34.6980   43.2670 C   0  0  0  0  0  0  0  0  0  0  0  0
   45.7800   33.7730   44.2610 N   0  0  0  0  0  0  0  0  0  0  0  0
   45.3800   33.9740   45.5400 C   0  0  0  0  0  0  0  0  0  0  0  0
   44.7320   35.0910   45.8650 N   0  0  0  0  0  0  0  0  0  0  0  0
   49.6719   34.2245   40.4924 H   0  0  0  0  0  0  0  0  0  0  0  0
   48.9939   33.8180   38.8932 H   0  0  0  0  0  0  0  0  0  0  0  0
   43.2958   32.0132   41.0722 H   0  0  0  0  0  0  0  0  0  0  0  0
   41.2127   35.5793   40.0787 H   0  0  0  0  0  0  0  0  0  0  0  0
   43.9169   36.9552   45.2520 H   0  0  0  0  0  0  0  0  0  0  0  0
   44.6287   36.6366   42.8779 H   0  0  0  0  0  0  0  0  0  0  0  0
   45.5903   33.2156   46.3086 H   0  0  0  0  0  0  0  0  0  0  0  0
  1 14  1  0
  2  1  1  0
  3  4  1  0
  3  2  2  0
  4  5  2  0
  5  1  1  0
  6  4  1  0
  7  2  1  0
  7  8  1  0
  9  8  2  0
 10 11  2  0
 10  9  1  0
 11  7  1  0
 12 17  2  0
 13 12  1  0
 14 13  2  0
 14 15  1  0
 15 16  2  0
 16 17  1  0
  6 18  1  0
  6 19  1  0
  8 20  1  0
 10 21  1  0
 12 22  1  0
 13 23  1  0
 16 24  1  0
M  ISO  5  20  14  21  14  22  14  23  14  24  14
M  END
>  <minimizedAffinity>  (1) 
-5.02229214

>  <minimizedRMSD>  (1) 
1.06452167

$$$$
