
     RDKit          3D

 36 38  0  0  1  0  0  0  0  0999 V2000
   45.3050   33.4080   41.4330 C   0  0  2  0  0  0  0  0  0  0  0  0
   44.3360   33.9750   40.4360 C   0  0  0  0  0  0  0  0  0  0  0  0
   44.1030   33.1480   39.2580 C   0  0  0  0  0  0  0  0  0  0  0  0
   44.7140   31.8430   39.1070 C   0  0  0  0  0  0  0  0  0  0  0  0
   45.4870   31.3210   40.2440 C   0  0  0  0  0  0  0  0  0  0  0  0
   45.1070   31.9210   41.5470 C   0  0  0  0  0  0  0  0  0  0  0  0
   44.7690   35.4570   42.6340 C   0  0  0  0  0  0  0  0  0  0  0  0
   45.1100   34.1240   42.7100 C   0  0  0  0  0  0  0  0  0  0  0  0
   45.2920   33.5480   43.9910 C   0  0  0  0  0  0  0  0  0  0  0  0
   45.1310   34.3090   45.0840 N   0  0  0  0  0  0  0  0  0  0  0  0
   44.7930   35.6240   44.9740 C   0  0  0  0  0  0  0  0  0  0  0  0
   44.6140   36.1890   43.7660 N   0  0  0  0  0  0  0  0  0  0  0  0
   46.6490   33.8490   40.9010 C   0  0  0  0  0  0  0  0  0  0  0  0
   47.0650   34.3600   39.7980 O   0  0  0  0  0  0  0  0  0  0  0  0
   47.9960   33.8460   41.5410 C   0  0  0  0  0  0  0  0  0  0  0  0
   48.6650   34.9120   42.0920 C   0  0  0  0  0  0  0  0  0  0  0  0
   49.9520   34.9550   42.5570 C   0  0  0  0  0  0  0  0  0  0  0  0
   50.7040   33.8050   42.4850 C   0  0  0  0  0  0  0  0  0  0  0  0
   50.1430   32.6710   41.9550 C   0  0  0  0  0  0  0  0  0  0  0  0
   48.8550   32.7420   41.5220 C   0  0  0  0  0  0  0  0  0  0  0  0
   43.8378   34.9445   40.5837 H   0  0  0  0  0  0  0  0  0  0  0  0
   43.4448   33.5255   38.4615 H   0  0  0  0  0  0  0  0  0  0  0  0
   43.9083   31.1238   38.8981 H   0  0  0  0  0  0  0  0  0  0  0  0
   45.4513   31.9697   38.3006 H   0  0  0  0  0  0  0  0  0  0  0  0
   45.3285   30.2340   40.3024 H   0  0  0  0  0  0  0  0  0  0  0  0
   46.5405   31.5815   40.0642 H   0  0  0  0  0  0  0  0  0  0  0  0
   45.7448   31.5171   42.3471 H   0  0  0  0  0  0  0  0  0  0  0  0
   44.0606   31.6864   41.7920 H   0  0  0  0  0  0  0  0  0  0  0  0
   44.6218   35.9296   41.6517 H   0  0  0  0  0  0  0  0  0  0  0  0
   45.5629   32.4864   44.0888 H   0  0  0  0  0  0  0  0  0  0  0  0
   44.6650   36.2306   45.8826 H   0  0  0  0  0  0  0  0  0  0  0  0
   48.0946   35.8493   42.1693 H   0  0  0  0  0  0  0  0  0  0  0  0
   50.3723   35.8813   42.9757 H   0  0  0  0  0  0  0  0  0  0  0  0
   51.7423   33.7951   42.8480 H   0  0  0  0  0  0  0  0  0  0  0  0
   50.7157   31.7347   41.8824 H   0  0  0  0  0  0  0  0  0  0  0  0
   48.4364   31.8144   41.1044 H   0  0  0  0  0  0  0  0  0  0  0  0
  1 13  1  6
  1  6  1  0
  1  8  1  0
  2  1  1  0
  3  2  2  0
  4  3  1  0
  4  5  1  0
  5  6  1  0
  7  8  2  0
  7 12  1  0
  8  9  1  0
  9 10  2  0
 11 10  1  0
 12 11  2  0
 13 15  1  0
 14 13  2  0
 15 16  2  0
 16 17  1  0
 18 17  2  0
 19 18  1  0
 20 15  1  0
 20 19  2  0
  2 21  1  0
  3 22  1  0
  4 23  1  0
  4 24  1  0
  5 25  1  0
  5 26  1  0
  6 27  1  0
  6 28  1  0
  7 29  1  0
  9 30  1  0
 11 31  1  0
 16 32  1  0
 17 33  1  0
 18 34  1  0
 19 35  1  0
 20 36  1  0
M  ISO  8  21  13  22  13  23  13  24  13  25  13  26  13  27  13  28  13
M  ISO  8  29  14  30  14  31  14  32  14  33  14  34  14  35  14  36  14
M  END
>  <minimizedAffinity>  (1) 
-4.89797401

>  <minimizedRMSD>  (1) 
4.1314187

$$$$
