
     RDKit          3D

 42 45  0  0  1  0  0  0  0  0999 V2000
   44.3010   33.3000   40.8520 C   0  0  2  0  0  0  0  0  0  0  0  0
   44.4720   34.7770   41.0380 C   0  0  0  0  0  0  0  0  0  0  0  0
   43.2600   35.4930   41.4260 C   0  0  0  0  0  0  0  0  0  0  0  0
   42.0040   34.8030   41.6440 C   0  0  0  0  0  0  0  0  0  0  0  0
   42.0330   33.3320   41.6540 C   0  0  0  0  0  0  0  0  0  0  0  0
   43.3830   32.7710   41.9250 C   0  0  0  0  0  0  0  0  0  0  0  0
   46.7100   33.5360   41.1610 C   0  0  0  0  0  0  0  0  0  0  0  0
   45.6490   32.6890   40.9240 C   0  0  0  0  0  0  0  0  0  0  0  0
   45.9300   31.3020   40.7150 C   0  0  0  0  0  0  0  0  0  0  0  0
   47.2010   30.8820   40.7550 N   0  0  0  0  0  0  0  0  0  0  0  0
   48.2170   31.7450   40.9910 C   0  0  0  0  0  0  0  0  0  0  0  0
   47.9790   33.0750   41.1960 N   0  0  0  0  0  0  0  0  0  0  0  0
   43.8250   33.1450   39.4460 C   0  0  0  0  0  0  0  0  0  0  0  0
   44.2210   33.4440   38.2870 O   0  0  0  0  0  0  0  0  0  0  0  0
   42.6660   32.5320   38.7970 C   0  0  0  0  0  0  0  0  0  0  0  0
   42.6680   31.1270   38.7720 C   0  0  0  0  0  0  0  0  0  0  0  0
   41.5740   30.3280   38.4140 C   0  0  0  0  0  0  0  0  0  0  0  0
   40.3690   30.9420   38.0480 C   0  0  0  0  0  0  0  0  0  0  0  0
   40.3130   32.3130   38.0550 C   0  0  0  0  0  0  0  0  0  0  0  0
   39.2320   33.0430   37.6790 C   0  0  0  0  0  0  0  0  0  0  0  0
   39.1290   34.4130   37.6140 C   0  0  0  0  0  0  0  0  0  0  0  0
   40.2850   35.0990   37.9820 C   0  0  0  0  0  0  0  0  0  0  0  0
   41.3980   34.3880   38.3690 C   0  0  0  0  0  0  0  0  0  0  0  0
   41.4560   32.9920   38.4250 C   0  0  0  0  0  0  0  0  0  0  0  0
   45.4376   35.2836   40.8932 H   0  0  0  0  0  0  0  0  0  0  0  0
   43.3012   36.5845   41.5563 H   0  0  0  0  0  0  0  0  0  0  0  0
   41.6113   35.1320   42.6174 H   0  0  0  0  0  0  0  0  0  0  0  0
   41.3835   35.0664   40.7748 H   0  0  0  0  0  0  0  0  0  0  0  0
   41.3438   32.9747   42.4334 H   0  0  0  0  0  0  0  0  0  0  0  0
   41.7358   32.9940   40.6503 H   0  0  0  0  0  0  0  0  0  0  0  0
   43.3505   31.6721   41.8870 H   0  0  0  0  0  0  0  0  0  0  0  0
   43.7370   33.0627   42.9248 H   0  0  0  0  0  0  0  0  0  0  0  0
   46.5199   34.6070   41.3246 H   0  0  0  0  0  0  0  0  0  0  0  0
   45.1133   30.5902   40.5241 H   0  0  0  0  0  0  0  0  0  0  0  0
   49.2506   31.3697   41.0182 H   0  0  0  0  0  0  0  0  0  0  0  0
   43.5997   30.6153   39.0551 H   0  0  0  0  0  0  0  0  0  0  0  0
   41.6602   29.2314   38.4202 H   0  0  0  0  0  0  0  0  0  0  0  0
   39.4923   30.3418   37.7630 H   0  0  0  0  0  0  0  0  0  0  0  0
   38.3353   32.4734   37.3935 H   0  0  0  0  0  0  0  0  0  0  0  0
   38.2088   34.9257   37.2972 H   0  0  0  0  0  0  0  0  0  0  0  0
   40.3076   36.1986   37.9633 H   0  0  0  0  0  0  0  0  0  0  0  0
   42.2983   34.9532   38.6520 H   0  0  0  0  0  0  0  0  0  0  0  0
  1 13  1  6
  1  8  1  0
  1  2  1  0
  1  6  1  0
  2  3  2  0
  3  4  1  0
  4  5  1  0
  5  6  1  0
  7 12  2  0
  8  7  1  0
  9 10  1  0
  9  8  2  0
 10 11  2  0
 11 12  1  0
 14 13  2  0
 15 13  1  0
 16 15  2  0
 17 16  1  0
 18 19  1  0
 18 17  2  0
 19 24  2  0
 20 19  1  0
 21 20  2  0
 21 22  1  0
 22 23  2  0
 23 24  1  0
 24 15  1  0
  2 25  1  0
  3 26  1  0
  4 27  1  0
  4 28  1  0
  5 29  1  0
  5 30  1  0
  6 31  1  0
  6 32  1  0
  7 33  1  0
  9 34  1  0
 11 35  1  0
 16 36  1  0
 17 37  1  0
 18 38  1  0
 20 39  1  0
 21 40  1  0
 22 41  1  0
 23 42  1  0
M  ISO  8  25  13  26  13  27  13  28  13  29  13  30  13  31  13  32  13
M  ISO  8  33  14  34  14  35  14  36  14  37  14  38  14  39  14  40  14
M  ISO  2  41  14  42  14
M  END
>  <minimizedAffinity>  (1) 
-4.6038866

>  <minimizedRMSD>  (1) 
7.35858107

$$$$
