
     RDKit          3D

 40 43  0  0  1  0  0  0  0  0999 V2000
   45.3790   33.8200   43.0070 C   0  0  2  0  0  0  0  0  0  0  0  0
   44.6720   35.0480   43.4750 C   0  0  0  0  0  0  0  0  0  0  0  0
   43.9000   35.7370   42.4520 C   0  0  0  0  0  0  0  0  0  0  0  0
   43.8270   35.2480   41.0840 C   0  0  0  0  0  0  0  0  0  0  0  0
   44.4920   33.9770   40.7880 C   0  0  0  0  0  0  0  0  0  0  0  0
   44.6080   33.0920   41.9900 C   0  0  0  0  0  0  0  0  0  0  0  0
   46.2100   33.7140   45.3210 C   0  0  0  0  0  0  0  0  0  0  0  0
   45.7580   33.0340   44.1970 C   0  0  0  0  0  0  0  0  0  0  0  0
   45.7100   31.6030   44.2290 C   0  0  0  0  0  0  0  0  0  0  0  0
   46.1070   30.9640   45.3450 N   0  0  0  0  0  0  0  0  0  0  0  0
   46.5440   31.6510   46.4230 C   0  0  0  0  0  0  0  0  0  0  0  0
   46.5910   32.9940   46.4010 N   0  0  0  0  0  0  0  0  0  0  0  0
   46.7170   34.3720   42.4700 C   0  0  0  0  0  0  0  0  0  0  0  0
   47.3370   35.4340   42.2860 O   0  0  0  0  0  0  0  0  0  0  0  0
   47.7860   33.4510   41.9550 C   0  0  0  0  0  0  0  0  0  0  0  0
   48.5300   32.7990   42.8630 N   0  0  0  0  0  0  0  0  0  0  0  0
   49.5120   31.9800   42.4700 C   0  0  0  0  0  0  0  0  0  0  0  0
   49.8110   31.7660   41.1530 N   0  0  0  0  0  0  0  0  0  0  0  0
   49.0900   32.4020   40.1980 C   0  0  0  0  0  0  0  0  0  0  0  0
   49.3340   32.2500   38.8550 C   0  0  0  0  0  0  0  0  0  0  0  0
   48.6120   32.9050   37.8710 C   0  0  0  0  0  0  0  0  0  0  0  0
   47.6020   33.7460   38.3480 C   0  0  0  0  0  0  0  0  0  0  0  0
   47.3560   33.8990   39.6960 C   0  0  0  0  0  0  0  0  0  0  0  0
   48.0920   33.2330   40.6390 C   0  0  0  0  0  0  0  0  0  0  0  0
   44.7300   35.4050   44.5138 H   0  0  0  0  0  0  0  0  0  0  0  0
   43.3558   36.6543   42.7210 H   0  0  0  0  0  0  0  0  0  0  0  0
   42.7628   35.1307   40.8315 H   0  0  0  0  0  0  0  0  0  0  0  0
   44.3699   35.9961   40.4876 H   0  0  0  0  0  0  0  0  0  0  0  0
   43.9132   33.4483   40.0163 H   0  0  0  0  0  0  0  0  0  0  0  0
   45.5116   34.2073   40.4453 H   0  0  0  0  0  0  0  0  0  0  0  0
   43.6067   32.8539   42.3781 H   0  0  0  0  0  0  0  0  0  0  0  0
   45.1098   32.1490   41.7275 H   0  0  0  0  0  0  0  0  0  0  0  0
   46.2570   34.8129   45.3325 H   0  0  0  0  0  0  0  0  0  0  0  0
   45.3546   31.0357   43.3561 H   0  0  0  0  0  0  0  0  0  0  0  0
   46.8634   31.1077   47.3246 H   0  0  0  0  0  0  0  0  0  0  0  0
   50.1026   31.4578   43.2371 H   0  0  0  0  0  0  0  0  0  0  0  0
   50.1441   31.5736   38.5450 H   0  0  0  0  0  0  0  0  0  0  0  0
   48.8172   32.7738   36.7983 H   0  0  0  0  0  0  0  0  0  0  0  0
   46.9854   34.3020   37.6265 H   0  0  0  0  0  0  0  0  0  0  0  0
   46.5492   34.5722   40.0215 H   0  0  0  0  0  0  0  0  0  0  0  0
  1 13  1  6
  1  2  1  0
  1  8  1  0
  3  2  2  0
  4  3  1  0
  5  4  1  0
  5  6  1  0
  6  1  1  0
  7 12  2  0
  8  9  2  0
  8  7  1  0
  9 10  1  0
 10 11  2  0
 12 11  1  0
 14 13  2  0
 15 13  1  0
 15 16  2  0
 17 16  1  0
 18 17  2  0
 19 24  2  0
 19 18  1  0
 20 19  1  0
 21 22  1  0
 21 20  2  0
 22 23  2  0
 23 24  1  0
 24 15  1  0
  2 25  1  0
  3 26  1  0
  4 27  1  0
  4 28  1  0
  5 29  1  0
  5 30  1  0
  6 31  1  0
  6 32  1  0
  7 33  1  0
  9 34  1  0
 11 35  1  0
 17 36  1  0
 20 37  1  0
 21 38  1  0
 22 39  1  0
 23 40  1  0
M  ISO  8  25  13  26  13  27  13  28  13  29  13  30  13  31  13  32  13
M  ISO  8  33  14  34  14  35  14  36  14  37  14  38  14  39  14  40  14
M  END
>  <minimizedAffinity>  (1) 
-5.19135761

>  <minimizedRMSD>  (1) 
3.8076427

$$$$
