
     RDKit          3D

 31 33  0  0  0  0  0  0  0  0999 V2000
   45.9270   34.4380   41.7980 N   0  0  0  0  0  0  0  0  0  0  0  0
   45.3530   34.0140   40.6780 C   0  0  0  0  0  0  0  0  0  0  0  0
   46.2230   33.8890   39.6830 N   0  0  0  0  0  0  0  0  0  0  0  0
   47.4210   34.2590   40.2150 C   0  0  0  0  0  0  0  0  0  0  0  0
   47.2370   34.6010   41.5320 N   0  0  0  0  0  0  0  0  0  0  0  0
   48.7310   34.3270   39.6190 N   0  0  0  0  0  0  0  0  0  0  0  0
   44.4830   36.0770   44.8360 C   0  0  0  0  0  0  0  0  0  0  0  0
   44.8550   35.9030   43.4870 C   0  0  0  0  0  0  0  0  0  0  0  0
   45.5010   34.7360   43.1190 C   0  0  0  0  0  0  0  0  0  0  0  0
   45.7550   33.7890   44.0940 N   0  0  0  0  0  0  0  0  0  0  0  0
   45.3770   34.0010   45.3890 C   0  0  0  0  0  0  0  0  0  0  0  0
   44.7540   35.1260   45.7380 N   0  0  0  0  0  0  0  0  0  0  0  0
   43.8920   33.7370   40.6420 C   0  0  0  0  0  0  0  0  0  0  0  0
   43.1240   35.0170   40.3430 C   0  0  0  0  0  0  0  0  0  0  0  0
   42.4650   34.8230   39.0110 C   0  0  0  0  0  0  0  0  0  0  0  0
   42.3250   33.3130   38.9390 C   0  0  0  0  0  0  0  0  0  0  0  0
   43.6620   32.8420   39.4360 C   0  0  0  0  0  0  0  0  0  0  0  0
   49.5373   34.6344   40.1814 H   0  0  0  0  0  0  0  0  0  0  0  0
   48.8612   34.0682   38.6306 H   0  0  0  0  0  0  0  0  0  0  0  0
   43.9682   36.9976   45.1481 H   0  0  0  0  0  0  0  0  0  0  0  0
   44.6356   36.6809   42.7408 H   0  0  0  0  0  0  0  0  0  0  0  0
   45.5887   33.2363   46.1508 H   0  0  0  0  0  0  0  0  0  0  0  0
   43.5685   33.3029   41.5995 H   0  0  0  0  0  0  0  0  0  0  0  0
   42.3650   35.1937   41.1193 H   0  0  0  0  0  0  0  0  0  0  0  0
   43.7963   35.8875   40.3286 H   0  0  0  0  0  0  0  0  0  0  0  0
   41.4826   35.3167   38.9764 H   0  0  0  0  0  0  0  0  0  0  0  0
   43.0303   35.2544   38.1718 H   0  0  0  0  0  0  0  0  0  0  0  0
   41.5112   32.9572   39.5879 H   0  0  0  0  0  0  0  0  0  0  0  0
   42.0735   32.9420   37.9345 H   0  0  0  0  0  0  0  0  0  0  0  0
   43.6279   31.7818   39.7273 H   0  0  0  0  0  0  0  0  0  0  0  0
   44.4600   32.9054   38.6815 H   0  0  0  0  0  0  0  0  0  0  0  0
  1  9  1  0
  2  1  1  0
  3  4  1  0
  3  2  2  0
  4  5  2  0
  5  1  1  0
  6  4  1  0
  7 12  2  0
  8  7  1  0
  9  8  2  0
  9 10  1  0
 10 11  2  0
 11 12  1  0
 13  2  1  0
 14 13  1  0
 15 14  1  0
 16 15  1  0
 16 17  1  0
 17 13  1  0
  6 18  1  0
  6 19  1  0
  7 20  1  0
  8 21  1  0
 11 22  1  0
 13 23  1  0
 14 24  1  0
 14 25  1  0
 15 26  1  0
 15 27  1  0
 16 28  1  0
 16 29  1  0
 17 30  1  0
 17 31  1  0
M  ISO  8  20  14  21  14  22  14  23  13  24  13  25  13  26  13  27  13
M  ISO  4  28  13  29  13  30  13  31  13
M  END
>  <minimizedAffinity>  (1) 
-4.89884758

>  <minimizedRMSD>  (1) 
0.75569725

$$$$
