
     RDKit          3D

 25 27  0  0  0  0  0  0  0  0999 V2000
   45.9860   34.4020   41.9110 N   0  0  0  0  0  0  0  0  0  0  0  0
   45.4140   34.0630   40.7600 C   0  0  0  0  0  0  0  0  0  0  0  0
   46.3300   33.8950   39.8020 N   0  0  0  0  0  0  0  0  0  0  0  0
   47.5270   34.1420   40.3900 C   0  0  0  0  0  0  0  0  0  0  0  0
   47.3210   34.4580   41.6970 N   0  0  0  0  0  0  0  0  0  0  0  0
   48.8460   34.1060   39.8200 N   0  0  0  0  0  0  0  0  0  0  0  0
   44.4670   36.0670   44.8990 C   0  0  0  0  0  0  0  0  0  0  0  0
   44.8680   35.8740   43.5760 C   0  0  0  0  0  0  0  0  0  0  0  0
   45.5350   34.7000   43.2260 C   0  0  0  0  0  0  0  0  0  0  0  0
   45.7650   33.7830   44.2160 N   0  0  0  0  0  0  0  0  0  0  0  0
   45.3660   33.9900   45.4950 C   0  0  0  0  0  0  0  0  0  0  0  0
   44.7310   35.1150   45.8190 N   0  0  0  0  0  0  0  0  0  0  0  0
   43.9390   33.9350   40.7350 C   0  0  0  0  0  0  0  0  0  0  0  0
   43.0670   34.8960   40.1910 C   0  0  0  0  0  0  0  0  0  0  0  0
   41.7280   34.6050   40.2590 C   0  0  0  0  0  0  0  0  0  0  0  0
   41.3360   33.4140   40.8440 C   0  0  0  0  0  0  0  0  0  0  0  0
   42.8310   32.6150   41.3430 S   0  0  0  0  0  0  0  0  0  0  0  0
   49.6659   34.3213   40.4051 H   0  0  0  0  0  0  0  0  0  0  0  0
   48.9713   33.8649   38.8265 H   0  0  0  0  0  0  0  0  0  0  0  0
   43.9399   36.9877   45.1897 H   0  0  0  0  0  0  0  0  0  0  0  0
   44.6598   36.6413   42.8158 H   0  0  0  0  0  0  0  0  0  0  0  0
   45.5665   33.2297   46.2643 H   0  0  0  0  0  0  0  0  0  0  0  0
   43.4376   35.8270   39.7373 H   0  0  0  0  0  0  0  0  0  0  0  0
   40.9808   35.3047   39.8564 H   0  0  0  0  0  0  0  0  0  0  0  0
   40.3086   33.0423   40.9717 H   0  0  0  0  0  0  0  0  0  0  0  0
  1  9  1  0
  2  1  1  0
  3  4  1  0
  3  2  2  0
  4  5  2  0
  5  1  1  0
  6  4  1  0
  7 12  2  0
  8  7  1  0
  9  8  2  0
  9 10  1  0
 10 11  2  0
 11 12  1  0
 13  2  1  0
 13 17  1  0
 14 15  1  0
 14 13  2  0
 15 16  2  0
 16 17  1  0
  6 18  1  0
  6 19  1  0
  7 20  1  0
  8 21  1  0
 11 22  1  0
 14 23  1  0
 15 24  1  0
 16 25  1  0
M  ISO  6  20  14  21  14  22  14  23  14  24  14  25  14
M  END
>  <minimizedAffinity>  (1) 
-4.87892723

>  <minimizedRMSD>  (1) 
1.02293789

$$$$
