
     RDKit          3D

 42 43  0  0  1  0  0  0  0  0999 V2000
   45.7410   33.3870   43.4880 C   0  0  1  0  0  0  0  0  0  0  0  0
   45.8290   34.8490   43.7190 C   0  0  0  0  0  0  0  0  0  0  0  0
   45.3180   35.6960   42.6710 C   0  0  0  0  0  0  0  0  0  0  0  0
   44.7470   35.1610   41.4590 C   0  0  0  0  0  0  0  0  0  0  0  0
   44.6370   33.7090   41.3560 C   0  0  0  0  0  0  0  0  0  0  0  0
   44.4850   33.0770   42.7110 C   0  0  0  0  0  0  0  0  0  0  0  0
   47.0080   33.0300   42.7090 C   0  0  0  0  0  0  0  0  0  0  0  0
   47.3040   32.3280   41.6900 O   0  0  0  0  0  0  0  0  0  0  0  0
   48.2150   33.6430   43.2590 N   0  0  0  0  0  0  0  0  0  0  0  0
   48.9110   34.6620   42.6260 C   0  0  0  0  0  0  0  0  0  0  0  0
   48.6680   35.3100   41.6140 N   0  0  0  0  0  0  0  0  0  0  0  0
   50.1590   35.2290   43.0860 N   0  0  0  0  0  0  0  0  0  0  0  0
   47.9350   35.3590   40.9530 H   0  0  0  0  0  0  0  0  0  0  0  0
   45.8140   33.4470   45.9210 C   0  0  0  0  0  0  0  0  0  0  0  0
   45.8490   32.6800   44.7740 C   0  0  0  0  0  0  0  0  0  0  0  0
   46.0350   31.2520   44.8880 C   0  0  0  0  0  0  0  0  0  0  0  0
   46.1710   30.7240   46.1140 N   0  0  0  0  0  0  0  0  0  0  0  0
   46.1340   31.5050   47.2110 C   0  0  0  0  0  0  0  0  0  0  0  0
   45.9590   32.8300   47.1130 N   0  0  0  0  0  0  0  0  0  0  0  0
   46.2990   30.8160   48.5370 C   0  0  0  0  0  0  0  0  0  0  0  0
   47.6820   30.9750   49.0990 C   0  0  0  0  0  0  0  0  0  0  0  0
   45.3150   31.3040   49.5660 C   0  0  0  0  0  0  0  0  0  0  0  0
   46.2612   35.2649   44.6411 H   0  0  0  0  0  0  0  0  0  0  0  0
   45.3649   36.7875   42.7996 H   0  0  0  0  0  0  0  0  0  0  0  0
   43.7337   35.5772   41.3591 H   0  0  0  0  0  0  0  0  0  0  0  0
   45.4507   35.4485   40.6639 H   0  0  0  0  0  0  0  0  0  0  0  0
   43.7587   33.4585   40.7429 H   0  0  0  0  0  0  0  0  0  0  0  0
   45.5569   33.3224   40.8930 H   0  0  0  0  0  0  0  0  0  0  0  0
   43.6088   33.4965   43.2270 H   0  0  0  0  0  0  0  0  0  0  0  0
   44.3374   31.9906   42.6222 H   0  0  0  0  0  0  0  0  0  0  0  0
   48.5674   33.3004   44.1642 H   0  0  0  0  0  0  0  0  0  0  0  0
   50.6085   35.9862   42.5518 H   0  0  0  0  0  0  0  0  0  0  0  0
   50.5985   34.8757   43.9479 H   0  0  0  0  0  0  0  0  0  0  0  0
   45.6712   34.5363   45.8651 H   0  0  0  0  0  0  0  0  0  0  0  0
   46.0644   30.6138   43.9926 H   0  0  0  0  0  0  0  0  0  0  0  0
   46.1103   29.7530   48.3264 H   0  0  0  0  0  0  0  0  0  0  0  0
   47.6341   30.9695   50.1979 H   0  0  0  0  0  0  0  0  0  0  0  0
   48.3152   30.1437   48.7554 H   0  0  0  0  0  0  0  0  0  0  0  0
   48.1100   31.9283   48.7554 H   0  0  0  0  0  0  0  0  0  0  0  0
   45.7105   31.1079   50.5735 H   0  0  0  0  0  0  0  0  0  0  0  0
   45.1567   32.3850   49.4383 H   0  0  0  0  0  0  0  0  0  0  0  0
   44.3586   30.7758   49.4383 H   0  0  0  0  0  0  0  0  0  0  0  0
  1  7  1  6
  1  2  1  0
  1 15  1  0
  3  2  2  0
  4  3  1  0
  5  4  1  0
  5  6  1  0
  6  1  1  0
  7  9  1  0
  8  7  2  0
 10 12  1  0
 10  9  1  0
 11 10  2  0
 13 11  1  0
 14 19  2  0
 15 16  2  0
 15 14  1  0
 16 17  1  0
 17 18  2  0
 18 20  1  0
 19 18  1  0
 20 21  1  0
 20 22  1  0
  2 23  1  0
  3 24  1  0
  4 25  1  0
  4 26  1  0
  5 27  1  0
  5 28  1  0
  6 29  1  0
  6 30  1  0
  9 31  1  0
 12 32  1  0
 12 33  1  0
 14 34  1  0
 16 35  1  0
 20 36  1  0
 21 37  1  0
 21 38  1  0
 21 39  1  0
 22 40  1  0
 22 41  1  0
 22 42  1  0
M  ISO  8  23  13  24  13  25  13  26  13  27  13  28  13  29  13  30  13
M  ISO  8  34  14  35  14  36   8  37   8  38   8  39   8  40   8  41   8
M  ISO  1  42   8
M  END
>  <minimizedAffinity>  (1) 
-6.24547863

>  <minimizedRMSD>  (1) 
0.231574833

$$$$
