
     RDKit          3D

 39 40  0  0  1  0  0  0  0  0999 V2000
   45.9600   33.2410   43.5050 C   0  0  1  0  0  0  0  0  0  0  0  0
   45.9980   34.7160   43.3780 C   0  0  0  0  0  0  0  0  0  0  0  0
   45.6650   35.2620   42.0850 C   0  0  0  0  0  0  0  0  0  0  0  0
   45.3110   34.4210   40.9690 C   0  0  0  0  0  0  0  0  0  0  0  0
   45.2330   32.9830   41.2090 C   0  0  0  0  0  0  0  0  0  0  0  0
   44.8610   32.6840   42.6330 C   0  0  0  0  0  0  0  0  0  0  0  0
   47.3460   32.7710   43.0570 C   0  0  0  0  0  0  0  0  0  0  0  0
   47.8250   31.7970   42.3930 O   0  0  0  0  0  0  0  0  0  0  0  0
   48.4240   33.6570   43.4900 N   0  0  0  0  0  0  0  0  0  0  0  0
   49.1480   34.4610   42.6220 C   0  0  0  0  0  0  0  0  0  0  0  0
   49.0210   34.6900   41.4260 N   0  0  0  0  0  0  0  0  0  0  0  0
   50.2820   35.2750   43.0030 N   0  0  0  0  0  0  0  0  0  0  0  0
   48.3870   34.4380   40.7070 H   0  0  0  0  0  0  0  0  0  0  0  0
   45.4350   33.8550   45.7990 C   0  0  0  0  0  0  0  0  0  0  0  0
   45.8550   32.8710   44.9250 C   0  0  0  0  0  0  0  0  0  0  0  0
   46.2100   31.5700   45.4460 C   0  0  0  0  0  0  0  0  0  0  0  0
   46.1200   31.3730   46.7660 N   0  0  0  0  0  0  0  0  0  0  0  0
   45.7090   32.3540   47.5910 C   0  0  0  0  0  0  0  0  0  0  0  0
   45.3750   33.5640   47.1160 N   0  0  0  0  0  0  0  0  0  0  0  0
   45.6540   32.0050   49.0530 C   0  0  0  0  0  0  0  0  0  0  0  0
   45.1640   30.5720   49.2140 C   0  0  0  0  0  0  0  0  0  0  0  0
   46.2665   35.3624   44.2266 H   0  0  0  0  0  0  0  0  0  0  0  0
   45.6817   36.3531   41.9464 H   0  0  0  0  0  0  0  0  0  0  0  0
   46.0621   34.5838   40.1820 H   0  0  0  0  0  0  0  0  0  0  0  0
   44.2848   34.7184   40.7073 H   0  0  0  0  0  0  0  0  0  0  0  0
   44.4731   32.5497   40.5421 H   0  0  0  0  0  0  0  0  0  0  0  0
   46.2223   32.5450   41.0106 H   0  0  0  0  0  0  0  0  0  0  0  0
   43.9027   33.1635   42.8813 H   0  0  0  0  0  0  0  0  0  0  0  0
   44.7482   31.6010   42.7891 H   0  0  0  0  0  0  0  0  0  0  0  0
   48.6587   33.6861   44.4925 H   0  0  0  0  0  0  0  0  0  0  0  0
   50.7670   35.8457   42.2959 H   0  0  0  0  0  0  0  0  0  0  0  0
   50.6042   35.2837   43.9813 H   0  0  0  0  0  0  0  0  0  0  0  0
   45.1558   34.8530   45.4302 H   0  0  0  0  0  0  0  0  0  0  0  0
   46.5448   30.7646   44.7757 H   0  0  0  0  0  0  0  0  0  0  0  0
   46.6585   32.1006   49.4910 H   0  0  0  0  0  0  0  0  0  0  0  0
   44.9633   32.6890   49.5679 H   0  0  0  0  0  0  0  0  0  0  0  0
   45.0815   30.3307   50.2840 H   0  0  0  0  0  0  0  0  0  0  0  0
   44.1785   30.4657   48.7371 H   0  0  0  0  0  0  0  0  0  0  0  0
   45.8781   29.8845   48.7371 H   0  0  0  0  0  0  0  0  0  0  0  0
  1  7  1  6
  1 15  1  0
  2  1  1  0
  3  2  2  0
  4  5  1  0
  4  3  1  0
  5  6  1  0
  6  1  1  0
  7  9  1  0
  8  7  2  0
 10 12  1  0
 10  9  1  0
 11 10  2  0
 13 11  1  0
 14 19  2  0
 15 16  2  0
 15 14  1  0
 16 17  1  0
 17 18  2  0
 18 20  1  0
 19 18  1  0
 20 21  1  0
  2 22  1  0
  3 23  1  0
  4 24  1  0
  4 25  1  0
  5 26  1  0
  5 27  1  0
  6 28  1  0
  6 29  1  0
  9 30  1  0
 12 31  1  0
 12 32  1  0
 14 33  1  0
 16 34  1  0
 20 35  1  0
 20 36  1  0
 21 37  1  0
 21 38  1  0
 21 39  1  0
M  ISO  8  22  13  23  13  24  13  25  13  26  13  27  13  28  13  29  13
M  ISO  7  33  14  34  14  35   8  36   8  37   8  38   8  39   8
M  END
>  <minimizedAffinity>  (1) 
-5.93779898

>  <minimizedRMSD>  (1) 
0.750242233

$$$$
