
     RDKit          3D

 40 42  0  0  1  0  0  0  0  0999 V2000
   44.9300   33.8230   42.4280 C   0  0  2  0  0  0  0  0  0  0  0  0
   44.7130   35.2860   42.5580 C   0  0  0  0  0  0  0  0  0  0  0  0
   43.9460   35.9160   41.5120 C   0  0  0  0  0  0  0  0  0  0  0  0
   43.4150   35.1710   40.3950 C   0  0  0  0  0  0  0  0  0  0  0  0
   43.6240   33.7270   40.3910 C   0  0  0  0  0  0  0  0  0  0  0  0
   43.7190   33.1920   41.7920 C   0  0  0  0  0  0  0  0  0  0  0  0
   45.3800   34.1520   44.7980 C   0  0  0  0  0  0  0  0  0  0  0  0
   45.2930   33.2680   43.7420 C   0  0  0  0  0  0  0  0  0  0  0  0
   45.6040   31.8730   43.9620 C   0  0  0  0  0  0  0  0  0  0  0  0
   45.9720   31.4910   45.1940 N   0  0  0  0  0  0  0  0  0  0  0  0
   46.0480   32.3840   46.2000 C   0  0  0  0  0  0  0  0  0  0  0  0
   45.7590   33.6760   46.0050 N   0  0  0  0  0  0  0  0  0  0  0  0
   46.4520   31.8600   47.4620 N   0  0  0  0  0  0  0  0  0  0  0  0
   47.6700   31.6430   47.9910 C   0  0  0  0  0  0  0  0  0  0  0  0
   47.4360   31.1200   49.2470 C   0  0  0  0  0  0  0  0  0  0  0  0
   46.1180   31.0130   49.4950 N   0  0  0  0  0  0  0  0  0  0  0  0
   45.5230   31.4840   48.3600 C   0  0  0  0  0  0  0  0  0  0  0  0
   46.1840   33.6910   41.5620 C   0  0  0  0  0  0  0  0  0  0  0  0
   46.4480   33.6180   40.3200 O   0  0  0  0  0  0  0  0  0  0  0  0
   47.4210   33.6370   42.3370 N   0  0  0  0  0  0  0  0  0  0  0  0
   48.3550   34.6630   42.3570 C   0  0  0  0  0  0  0  0  0  0  0  0
   48.3400   35.7910   41.8780 N   0  0  0  0  0  0  0  0  0  0  0  0
   49.6360   34.6090   43.0280 N   0  0  0  0  0  0  0  0  0  0  0  0
   47.6990   36.3480   41.3710 H   0  0  0  0  0  0  0  0  0  0  0  0
   45.1157   35.8585   43.4066 H   0  0  0  0  0  0  0  0  0  0  0  0
   43.7595   36.9987   41.5668 H   0  0  0  0  0  0  0  0  0  0  0  0
   42.3296   35.3474   40.3668 H   0  0  0  0  0  0  0  0  0  0  0  0
   43.9729   35.5384   39.5211 H   0  0  0  0  0  0  0  0  0  0  0  0
   42.7801   33.2429   39.8777 H   0  0  0  0  0  0  0  0  0  0  0  0
   44.5680   33.5113   39.8691 H   0  0  0  0  0  0  0  0  0  0  0  0
   42.8143   33.4570   42.3589 H   0  0  0  0  0  0  0  0  0  0  0  0
   43.8072   32.0956   41.7864 H   0  0  0  0  0  0  0  0  0  0  0  0
   45.1466   35.2182   44.6609 H   0  0  0  0  0  0  0  0  0  0  0  0
   45.5404   31.1442   43.1405 H   0  0  0  0  0  0  0  0  0  0  0  0
   48.6453   31.8404   47.5221 H   0  0  0  0  0  0  0  0  0  0  0  0
   48.2261   30.8281   49.9545 H   0  0  0  0  0  0  0  0  0  0  0  0
   44.4363   31.5473   48.2018 H   0  0  0  0  0  0  0  0  0  0  0  0
   47.6097   32.7938   42.8976 H   0  0  0  0  0  0  0  0  0  0  0  0
   50.2709   35.4193   42.9919 H   0  0  0  0  0  0  0  0  0  0  0  0
   49.9129   33.7603   43.5417 H   0  0  0  0  0  0  0  0  0  0  0  0
  1 18  1  6
  1  2  1  0
  1  8  1  0
  3  2  2  0
  4  3  1  0
  5  4  1  0
  5  6  1  0
  6  1  1  0
  7 12  2  0
  8  9  2  0
  8  7  1  0
  9 10  1  0
 10 11  2  0
 11 13  1  0
 12 11  1  0
 13 14  1  0
 13 17  1  0
 14 15  2  0
 15 16  1  0
 17 16  2  0
 18 20  1  0
 19 18  2  0
 20 21  1  0
 21 23  1  0
 22 21  2  0
 24 22  1  0
  2 25  1  0
  3 26  1  0
  4 27  1  0
  4 28  1  0
  5 29  1  0
  5 30  1  0
  6 31  1  0
  6 32  1  0
  7 33  1  0
  9 34  1  0
 14 35  1  0
 15 36  1  0
 17 37  1  0
 20 38  1  0
 23 39  1  0
 23 40  1  0
M  ISO  8  25  13  26  13  27  13  28  13  29  13  30  13  31  13  32  13
M  ISO  5  33  14  34  14  35  14  36  14  37  14
M  END
>  <minimizedAffinity>  (1) 
-6.08601284

>  <minimizedRMSD>  (1) 
1.60801029

$$$$
