
     RDKit          3D

 39 41  0  0  1  0  0  0  0  0999 V2000
   45.5530   33.7060   42.8070 C   0  0  2  0  0  0  0  0  0  0  0  0
   45.3670   35.1500   43.1090 C   0  0  0  0  0  0  0  0  0  0  0  0
   44.5040   35.8860   42.2220 C   0  0  0  0  0  0  0  0  0  0  0  0
   43.8470   35.2600   41.1000 C   0  0  0  0  0  0  0  0  0  0  0  0
   44.0450   33.8260   40.9190 C   0  0  0  0  0  0  0  0  0  0  0  0
   44.2760   33.1430   42.2380 C   0  0  0  0  0  0  0  0  0  0  0  0
   46.2450   33.7880   45.1420 C   0  0  0  0  0  0  0  0  0  0  0  0
   46.0440   33.0180   44.0130 C   0  0  0  0  0  0  0  0  0  0  0  0
   46.3690   31.6100   44.0500 C   0  0  0  0  0  0  0  0  0  0  0  0
   46.8620   31.1020   45.1910 N   0  0  0  0  0  0  0  0  0  0  0  0
   47.0470   31.8860   46.2710 C   0  0  0  0  0  0  0  0  0  0  0  0
   46.7450   33.1950   46.2480 N   0  0  0  0  0  0  0  0  0  0  0  0
   47.5840   31.2260   47.4330 N   0  0  0  0  0  0  0  0  0  0  0  0
   48.4680   30.2100   47.4470 C   0  0  0  0  0  0  0  0  0  0  0  0
   48.7440   29.8440   48.6890 N   0  0  0  0  0  0  0  0  0  0  0  0
   48.0230   30.6430   49.5020 C   0  0  0  0  0  0  0  0  0  0  0  0
   47.3070   31.4940   48.7120 N   0  0  0  0  0  0  0  0  0  0  0  0
   46.7100   33.6630   41.8050 C   0  0  0  0  0  0  0  0  0  0  0  0
   46.8350   33.5720   40.5440 O   0  0  0  0  0  0  0  0  0  0  0  0
   48.0270   33.7500   42.4310 N   0  0  0  0  0  0  0  0  0  0  0  0
   48.8520   34.8590   42.3240 C   0  0  0  0  0  0  0  0  0  0  0  0
   48.6740   35.9650   41.8270 N   0  0  0  0  0  0  0  0  0  0  0  0
   50.1980   34.9500   42.8450 N   0  0  0  0  0  0  0  0  0  0  0  0
   47.9300   36.4390   41.3810 H   0  0  0  0  0  0  0  0  0  0  0  0
   45.8627   35.6308   43.9652 H   0  0  0  0  0  0  0  0  0  0  0  0
   44.3405   36.9582   42.4052 H   0  0  0  0  0  0  0  0  0  0  0  0
   42.7664   35.4319   41.2128 H   0  0  0  0  0  0  0  0  0  0  0  0
   44.3062   35.7209   40.2130 H   0  0  0  0  0  0  0  0  0  0  0  0
   43.1509   33.3967   40.4434 H   0  0  0  0  0  0  0  0  0  0  0  0
   44.9306   33.6719   40.2849 H   0  0  0  0  0  0  0  0  0  0  0  0
   43.4370   33.3449   42.9202 H   0  0  0  0  0  0  0  0  0  0  0  0
   44.3504   32.0532   42.1085 H   0  0  0  0  0  0  0  0  0  0  0  0
   46.0031   34.8611   45.1405 H   0  0  0  0  0  0  0  0  0  0  0  0
   46.2165   30.9718   43.1671 H   0  0  0  0  0  0  0  0  0  0  0  0
   48.9018   29.7471   46.5484 H   0  0  0  0  0  0  0  0  0  0  0  0
   48.0140   30.6138   50.6016 H   0  0  0  0  0  0  0  0  0  0  0  0
   48.3601   32.9452   42.9807 H   0  0  0  0  0  0  0  0  0  0  0  0
   50.7413   35.8160   42.7196 H   0  0  0  0  0  0  0  0  0  0  0  0
   50.6133   34.1488   43.3415 H   0  0  0  0  0  0  0  0  0  0  0  0
  1 18  1  6
  1  2  1  0
  1  8  1  0
  3  2  2  0
  4  3  1  0
  5  4  1  0
  5  6  1  0
  6  1  1  0
  7 12  2  0
  8  9  2  0
  8  7  1  0
  9 10  1  0
 10 11  2  0
 11 13  1  0
 12 11  1  0
 13 14  1  0
 13 17  1  0
 14 15  2  0
 15 16  1  0
 17 16  2  0
 18 20  1  0
 19 18  2  0
 21 20  1  0
 21 23  1  0
 22 21  2  0
 24 22  1  0
  2 25  1  0
  3 26  1  0
  4 27  1  0
  4 28  1  0
  5 29  1  0
  5 30  1  0
  6 31  1  0
  6 32  1  0
  7 33  1  0
  9 34  1  0
 14 35  1  0
 16 36  1  0
 20 37  1  0
 23 38  1  0
 23 39  1  0
M  ISO  8  25  13  26  13  27  13  28  13  29  13  30  13  31  13  32  13
M  ISO  4  33  14  34  14  35  14  36  14
M  END
>  <minimizedAffinity>  (1) 
-5.89528704

>  <minimizedRMSD>  (1) 
1.46038914

$$$$
