
     RDKit          3D

 25 27  0  0  0  0  0  0  0  0999 V2000
   46.0600   34.4190   42.0130 N   0  0  0  0  0  0  0  0  0  0  0  0
   45.5200   34.1710   40.8260 C   0  0  0  0  0  0  0  0  0  0  0  0
   46.4470   33.9450   39.9000 N   0  0  0  0  0  0  0  0  0  0  0  0
   47.6360   34.0580   40.5480 C   0  0  0  0  0  0  0  0  0  0  0  0
   47.3870   34.3540   41.8620 N   0  0  0  0  0  0  0  0  0  0  0  0
   48.9760   33.9150   40.0420 N   0  0  0  0  0  0  0  0  0  0  0  0
   44.4560   36.0700   44.9620 C   0  0  0  0  0  0  0  0  0  0  0  0
   44.8890   35.8910   43.6430 C   0  0  0  0  0  0  0  0  0  0  0  0
   45.5730   34.7150   43.3060 C   0  0  0  0  0  0  0  0  0  0  0  0
   45.7840   33.7850   44.3090 N   0  0  0  0  0  0  0  0  0  0  0  0
   45.3410   34.0080   45.5780 C   0  0  0  0  0  0  0  0  0  0  0  0
   44.6880   35.1360   45.8900 N   0  0  0  0  0  0  0  0  0  0  0  0
   44.0750   34.1630   40.6320 C   0  0  0  0  0  0  0  0  0  0  0  0
   43.1950   35.1800   40.3780 C   0  0  0  0  0  0  0  0  0  0  0  0
   41.9070   34.7010   40.2680 C   0  0  0  0  0  0  0  0  0  0  0  0
   42.0630   33.3460   40.4710 C   0  0  0  0  0  0  0  0  0  0  0  0
   43.3120   33.0960   40.6730 O   0  0  0  0  0  0  0  0  0  0  0  0
   49.7806   34.0338   40.6740 H   0  0  0  0  0  0  0  0  0  0  0  0
   49.1303   33.6939   39.0479 H   0  0  0  0  0  0  0  0  0  0  0  0
   43.9189   36.9894   45.2381 H   0  0  0  0  0  0  0  0  0  0  0  0
   44.6954   36.6617   42.8824 H   0  0  0  0  0  0  0  0  0  0  0  0
   45.5217   33.2523   46.3566 H   0  0  0  0  0  0  0  0  0  0  0  0
   43.4777   36.2381   40.2754 H   0  0  0  0  0  0  0  0  0  0  0  0
   40.9822   35.2618   40.0676 H   0  0  0  0  0  0  0  0  0  0  0  0
   41.2544   32.6003   40.4621 H   0  0  0  0  0  0  0  0  0  0  0  0
  1  9  1  0
  2  1  1  0
  3  4  1  0
  3  2  2  0
  4  5  2  0
  5  1  1  0
  6  4  1  0
  7 12  2  0
  8  7  1  0
  9  8  2  0
  9 10  1  0
 10 11  2  0
 11 12  1  0
 13 17  1  0
 13  2  1  0
 14 13  2  0
 15 14  1  0
 15 16  2  0
 16 17  1  0
  6 18  1  0
  6 19  1  0
  7 20  1  0
  8 21  1  0
 11 22  1  0
 14 23  1  0
 15 24  1  0
 16 25  1  0
M  ISO  6  20  14  21  14  22  14  23  14  24  14  25  14
M  END
>  <minimizedAffinity>  (1) 
-4.84726286

>  <minimizedRMSD>  (1) 
1.21524382

$$$$
