
     RDKit          3D

 40 42  0  0  1  0  0  0  0  0999 V2000
   45.9310   33.2250   43.2470 C   0  0  1  0  0  0  0  0  0  0  0  0
   45.9220   34.7010   43.0740 C   0  0  0  0  0  0  0  0  0  0  0  0
   45.5570   35.1920   41.7670 C   0  0  0  0  0  0  0  0  0  0  0  0
   45.2160   34.2990   40.6820 C   0  0  0  0  0  0  0  0  0  0  0  0
   45.1890   32.8720   40.9690 C   0  0  0  0  0  0  0  0  0  0  0  0
   44.8370   32.6150   42.4070 C   0  0  0  0  0  0  0  0  0  0  0  0
   47.3270   32.7890   42.7990 C   0  0  0  0  0  0  0  0  0  0  0  0
   47.8180   31.8700   42.0700 O   0  0  0  0  0  0  0  0  0  0  0  0
   48.3970   33.6310   43.3300 N   0  0  0  0  0  0  0  0  0  0  0  0
   49.1450   34.4960   42.5480 C   0  0  0  0  0  0  0  0  0  0  0  0
   49.0490   34.8250   41.3710 N   0  0  0  0  0  0  0  0  0  0  0  0
   50.2750   35.2720   43.0100 N   0  0  0  0  0  0  0  0  0  0  0  0
   48.4350   34.6310   40.6190 H   0  0  0  0  0  0  0  0  0  0  0  0
   45.4650   33.9180   45.5340 C   0  0  0  0  0  0  0  0  0  0  0  0
   45.8540   32.9040   44.6820 C   0  0  0  0  0  0  0  0  0  0  0  0
   46.2050   31.6160   45.2330 C   0  0  0  0  0  0  0  0  0  0  0  0
   46.1420   31.4550   46.5630 N   0  0  0  0  0  0  0  0  0  0  0  0
   45.7600   32.4680   47.3640 C   0  0  0  0  0  0  0  0  0  0  0  0
   45.4320   33.6610   46.8600 N   0  0  0  0  0  0  0  0  0  0  0  0
   45.7150   32.2190   48.8520 C   0  0  0  0  0  0  0  0  0  0  0  0
   46.5170   31.0280   49.3130 C   0  0  0  0  0  0  0  0  0  0  0  0
   44.9960   31.0710   49.4110 C   0  0  0  0  0  0  0  0  0  0  0  0
   46.1797   35.3826   43.8980 H   0  0  0  0  0  0  0  0  0  0  0  0
   45.5376   36.2776   41.5909 H   0  0  0  0  0  0  0  0  0  0  0  0
   45.9510   34.4598   39.8796 H   0  0  0  0  0  0  0  0  0  0  0  0
   44.1768   34.5530   40.4262 H   0  0  0  0  0  0  0  0  0  0  0  0
   44.4393   32.3902   40.3242 H   0  0  0  0  0  0  0  0  0  0  0  0
   46.1896   32.4581   40.7753 H   0  0  0  0  0  0  0  0  0  0  0  0
   43.8709   33.0823   42.6483 H   0  0  0  0  0  0  0  0  0  0  0  0
   44.7492   31.5360   42.6018 H   0  0  0  0  0  0  0  0  0  0  0  0
   48.6057   33.5786   44.3373 H   0  0  0  0  0  0  0  0  0  0  0  0
   50.7751   35.8923   42.3573 H   0  0  0  0  0  0  0  0  0  0  0  0
   50.5795   35.2042   43.9916 H   0  0  0  0  0  0  0  0  0  0  0  0
   45.1892   34.9088   45.1438 H   0  0  0  0  0  0  0  0  0  0  0  0
   46.5160   30.7883   44.5787 H   0  0  0  0  0  0  0  0  0  0  0  0
   45.6608   33.2938   49.0800 H   0  0  0  0  0  0  0  0  0  0  0  0
   47.0086   30.3713   48.5801 H   0  0  0  0  0  0  0  0  0  0  0  0
   47.3497   30.8580   50.0113 H   0  0  0  0  0  0  0  0  0  0  0  0
   44.5119   31.1533   50.3953 H   0  0  0  0  0  0  0  0  0  0  0  0
   44.1786   30.4236   49.0607 H   0  0  0  0  0  0  0  0  0  0  0  0
  1  7  1  6
  1 15  1  0
  2  1  1  0
  3  2  2  0
  4  5  1  0
  4  3  1  0
  5  6  1  0
  6  1  1  0
  7  9  1  0
  8  7  2  0
 10 12  1  0
 10  9  1  0
 11 10  2  0
 13 11  1  0
 14 19  2  0
 15 16  2  0
 15 14  1  0
 16 17  1  0
 17 18  2  0
 18 20  1  0
 19 18  1  0
 20 21  1  0
 20 22  1  0
 21 22  1  0
  2 23  1  0
  3 24  1  0
  4 25  1  0
  4 26  1  0
  5 27  1  0
  5 28  1  0
  6 29  1  0
  6 30  1  0
  9 31  1  0
 12 32  1  0
 12 33  1  0
 14 34  1  0
 16 35  1  0
 20 36  1  0
 21 37  1  0
 21 38  1  0
 22 39  1  0
 22 40  1  0
M  ISO  8  23  13  24  13  25  13  26  13  27  13  28  13  29  13  30  13
M  ISO  7  34  14  35  14  36  13  37  13  38  13  39  13  40  13
M  END
>  <minimizedAffinity>  (1) 
-6.14345694

>  <minimizedRMSD>  (1) 
0.931386292

$$$$
