
     RDKit          3D

 40 42  0  0  1  0  0  0  0  0999 V2000
   44.8880   33.8390   42.3800 C   0  0  1  0  0  0  0  0  0  0  0  0
   44.6600   35.3010   42.5060 C   0  0  0  0  0  0  0  0  0  0  0  0
   43.8970   35.9190   41.4510 C   0  0  0  0  0  0  0  0  0  0  0  0
   43.3820   35.1690   40.3330 C   0  0  0  0  0  0  0  0  0  0  0  0
   43.5980   33.7240   40.3380 C   0  0  0  0  0  0  0  0  0  0  0  0
   43.6890   33.1920   41.7420 C   0  0  0  0  0  0  0  0  0  0  0  0
   46.1500   33.7120   41.5240 C   0  0  0  0  0  0  0  0  0  0  0  0
   46.4240   33.6550   40.2830 O   0  0  0  0  0  0  0  0  0  0  0  0
   47.3810   33.6390   42.3070 N   0  0  0  0  0  0  0  0  0  0  0  0
   48.3200   34.6600   42.3550 C   0  0  0  0  0  0  0  0  0  0  0  0
   48.3150   35.7960   41.8940 N   0  0  0  0  0  0  0  0  0  0  0  0
   49.5910   34.5920   43.0420 N   0  0  0  0  0  0  0  0  0  0  0  0
   47.6820   36.3610   41.3860 H   0  0  0  0  0  0  0  0  0  0  0  0
   45.3380   34.1890   44.7540 C   0  0  0  0  0  0  0  0  0  0  0  0
   45.2460   33.2940   43.6990 C   0  0  0  0  0  0  0  0  0  0  0  0
   45.5560   31.8990   43.9270 C   0  0  0  0  0  0  0  0  0  0  0  0
   45.9290   31.5140   45.1550 N   0  0  0  0  0  0  0  0  0  0  0  0
   46.0110   32.4270   46.1590 C   0  0  0  0  0  0  0  0  0  0  0  0
   45.7230   33.7180   45.9620 N   0  0  0  0  0  0  0  0  0  0  0  0
   46.4320   31.8680   47.4440 C   0  0  0  0  0  0  0  0  0  0  0  0
   45.4670   31.5660   48.3980 C   0  0  0  0  0  0  0  0  0  0  0  0
   46.1430   31.0650   49.4860 C   0  0  0  0  0  0  0  0  0  0  0  0
   47.4990   31.0840   49.1470 C   0  0  0  0  0  0  0  0  0  0  0  0
   47.6080   31.5720   47.9200 O   0  0  0  0  0  0  0  0  0  0  0  0
   45.0512   35.8793   43.3561 H   0  0  0  0  0  0  0  0  0  0  0  0
   43.7009   37.0002   41.5007 H   0  0  0  0  0  0  0  0  0  0  0  0
   43.8509   35.5699   39.4223 H   0  0  0  0  0  0  0  0  0  0  0  0
   42.2903   35.2912   40.3903 H   0  0  0  0  0  0  0  0  0  0  0  0
   42.7589   33.2341   39.8224 H   0  0  0  0  0  0  0  0  0  0  0  0
   44.5467   33.5121   39.8232 H   0  0  0  0  0  0  0  0  0  0  0  0
   42.7781   33.4482   42.3030 H   0  0  0  0  0  0  0  0  0  0  0  0
   43.7877   32.0964   41.7413 H   0  0  0  0  0  0  0  0  0  0  0  0
   47.5618   32.7843   42.8526 H   0  0  0  0  0  0  0  0  0  0  0  0
   50.2292   35.4003   43.0256 H   0  0  0  0  0  0  0  0  0  0  0  0
   49.8579   33.7353   43.5477 H   0  0  0  0  0  0  0  0  0  0  0  0
   45.1040   35.2544   44.6122 H   0  0  0  0  0  0  0  0  0  0  0  0
   45.4867   31.1684   43.1076 H   0  0  0  0  0  0  0  0  0  0  0  0
   44.3795   31.7008   48.3019 H   0  0  0  0  0  0  0  0  0  0  0  0
   45.7043   30.7186   50.4334 H   0  0  0  0  0  0  0  0  0  0  0  0
   48.3299   30.7520   49.7868 H   0  0  0  0  0  0  0  0  0  0  0  0
  1  7  1  6
  1  2  1  0
  1 15  1  0
  3  2  2  0
  4  5  1  0
  4  3  1  0
  5  6  1  0
  6  1  1  0
  7  9  1  0
  8  7  2  0
  9 10  1  0
 10 12  1  0
 11 10  2  0
 13 11  1  0
 14 19  2  0
 15 16  2  0
 15 14  1  0
 16 17  1  0
 17 18  2  0
 18 20  1  0
 19 18  1  0
 20 24  1  0
 20 21  2  0
 21 22  1  0
 23 22  2  0
 24 23  1  0
  2 25  1  0
  3 26  1  0
  4 27  1  0
  4 28  1  0
  5 29  1  0
  5 30  1  0
  6 31  1  0
  6 32  1  0
  9 33  1  0
 12 34  1  0
 12 35  1  0
 14 36  1  0
 16 37  1  0
 21 38  1  0
 22 39  1  0
 23 40  1  0
M  ISO  8  25  13  26  13  27  13  28  13  29  13  30  13  31  13  32  13
M  ISO  5  36  14  37  14  38  14  39  14  40  14
M  END
>  <minimizedAffinity>  (1) 
-5.85971546

>  <minimizedRMSD>  (1) 
1.66314137

$$$$
