
     RDKit          3D

 40 42  0  0  1  0  0  0  0  0999 V2000
   45.6740   33.7060   42.9230 C   0  0  1  0  0  0  0  0  0  0  0  0
   45.4760   35.1210   43.3120 C   0  0  0  0  0  0  0  0  0  0  0  0
   44.5540   35.8860   42.5090 C   0  0  0  0  0  0  0  0  0  0  0  0
   43.8560   35.3070   41.3820 C   0  0  0  0  0  0  0  0  0  0  0  0
   44.0580   33.8860   41.1290 C   0  0  0  0  0  0  0  0  0  0  0  0
   44.3760   33.1420   42.3930 C   0  0  0  0  0  0  0  0  0  0  0  0
   46.7720   33.7340   41.8590 C   0  0  0  0  0  0  0  0  0  0  0  0
   46.8350   33.7260   40.5890 O   0  0  0  0  0  0  0  0  0  0  0  0
   48.1200   33.7870   42.4240 N   0  0  0  0  0  0  0  0  0  0  0  0
   48.9360   34.9050   42.3460 C   0  0  0  0  0  0  0  0  0  0  0  0
   48.7290   36.0400   41.9290 N   0  0  0  0  0  0  0  0  0  0  0  0
   50.3030   34.9740   42.8080 N   0  0  0  0  0  0  0  0  0  0  0  0
   47.9620   36.5370   41.5530 H   0  0  0  0  0  0  0  0  0  0  0  0
   46.2670   33.5970   45.2800 C   0  0  0  0  0  0  0  0  0  0  0  0
   46.2380   32.9580   44.0570 C   0  0  0  0  0  0  0  0  0  0  0  0
   46.7940   31.6300   43.9480 C   0  0  0  0  0  0  0  0  0  0  0  0
   47.3190   31.0750   45.0410 N   0  0  0  0  0  0  0  0  0  0  0  0
   47.3360   31.7230   46.2210 C   0  0  0  0  0  0  0  0  0  0  0  0
   46.8190   32.9550   46.3320 N   0  0  0  0  0  0  0  0  0  0  0  0
   47.9440   31.0330   47.3930 C   0  0  0  0  0  0  0  0  0  0  0  0
   48.0580   31.5480   48.6530 C   0  0  0  0  0  0  0  0  0  0  0  0
   48.6370   30.7930   49.6090 C   0  0  0  0  0  0  0  0  0  0  0  0
   49.0950   29.4970   49.2350 C   0  0  0  0  0  0  0  0  0  0  0  0
   48.6560   29.4050   47.4370 S   0  0  0  0  0  0  0  0  0  0  0  0
   46.0044   35.5653   44.1684 H   0  0  0  0  0  0  0  0  0  0  0  0
   44.3762   36.9418   42.7612 H   0  0  0  0  0  0  0  0  0  0  0  0
   42.7794   35.4640   41.5440 H   0  0  0  0  0  0  0  0  0  0  0  0
   44.2751   35.8133   40.4999 H   0  0  0  0  0  0  0  0  0  0  0  0
   43.1409   33.4674   40.6890 H   0  0  0  0  0  0  0  0  0  0  0  0
   44.9086   33.7756   40.4403 H   0  0  0  0  0  0  0  0  0  0  0  0
   43.5721   33.2877   43.1296 H   0  0  0  0  0  0  0  0  0  0  0  0
   44.4663   32.0626   42.2011 H   0  0  0  0  0  0  0  0  0  0  0  0
   48.4816   32.9508   42.9045 H   0  0  0  0  0  0  0  0  0  0  0  0
   50.8364   35.8496   42.7094 H   0  0  0  0  0  0  0  0  0  0  0  0
   50.7443   34.1476   43.2360 H   0  0  0  0  0  0  0  0  0  0  0  0
   45.8492   34.6080   45.3954 H   0  0  0  0  0  0  0  0  0  0  0  0
   46.7848   31.0907   42.9893 H   0  0  0  0  0  0  0  0  0  0  0  0
   47.6855   32.5571   48.8831 H   0  0  0  0  0  0  0  0  0  0  0  0
   48.7512   31.1639   50.6383 H   0  0  0  0  0  0  0  0  0  0  0  0
   49.5880   28.7377   49.8598 H   0  0  0  0  0  0  0  0  0  0  0  0
  1  7  1  6
  1  2  1  0
  1 15  1  0
  3  2  2  0
  4  3  1  0
  5  4  1  0
  5  6  1  0
  6  1  1  0
  7  9  1  0
  8  7  2  0
 10  9  1  0
 10 12  1  0
 11 10  2  0
 13 11  1  0
 14 19  2  0
 15 14  1  0
 16 15  2  0
 16 17  1  0
 17 18  2  0
 18 19  1  0
 18 20  1  0
 20 24  1  0
 20 21  2  0
 21 22  1  0
 23 22  2  0
 24 23  1  0
  2 25  1  0
  3 26  1  0
  4 27  1  0
  4 28  1  0
  5 29  1  0
  5 30  1  0
  6 31  1  0
  6 32  1  0
  9 33  1  0
 12 34  1  0
 12 35  1  0
 14 36  1  0
 16 37  1  0
 21 38  1  0
 22 39  1  0
 23 40  1  0
M  ISO  8  25  13  26  13  27  13  28  13  29  13  30  13  31  13  32  13
M  ISO  5  36  14  37  14  38  14  39  14  40  14
M  END
>  <minimizedAffinity>  (1) 
-5.67441511

>  <minimizedRMSD>  (1) 
1.70740211

$$$$
