
     RDKit          3D

 39 41  0  0  1  0  0  0  0  0999 V2000
   45.8870   33.3070   43.3790 C   0  0  1  0  0  0  0  0  0  0  0  0
   45.7020   34.7400   43.6910 C   0  0  0  0  0  0  0  0  0  0  0  0
   44.7670   35.4600   42.8630 C   0  0  0  0  0  0  0  0  0  0  0  0
   44.0420   34.8150   41.7900 C   0  0  0  0  0  0  0  0  0  0  0  0
   44.2500   33.3860   41.5990 C   0  0  0  0  0  0  0  0  0  0  0  0
   44.5880   32.7120   42.9010 C   0  0  0  0  0  0  0  0  0  0  0  0
   46.9730   33.2790   42.2980 C   0  0  0  0  0  0  0  0  0  0  0  0
   47.0340   33.0370   41.0500 O   0  0  0  0  0  0  0  0  0  0  0  0
   48.3030   33.6170   42.7980 N   0  0  0  0  0  0  0  0  0  0  0  0
   48.9550   34.8030   42.4880 C   0  0  0  0  0  0  0  0  0  0  0  0
   48.5940   35.7980   41.8740 N   0  0  0  0  0  0  0  0  0  0  0  0
   50.3040   35.1320   42.8920 N   0  0  0  0  0  0  0  0  0  0  0  0
   47.7640   36.1110   41.4360 H   0  0  0  0  0  0  0  0  0  0  0  0
   46.4320   33.2990   45.7540 C   0  0  0  0  0  0  0  0  0  0  0  0
   46.4720   32.6300   44.5460 C   0  0  0  0  0  0  0  0  0  0  0  0
   47.1250   31.3420   44.4780 C   0  0  0  0  0  0  0  0  0  0  0  0
   47.6770   30.8350   45.5880 N   0  0  0  0  0  0  0  0  0  0  0  0
   47.6170   31.5320   46.7550 C   0  0  0  0  0  0  0  0  0  0  0  0
   47.0120   32.7220   46.8300 N   0  0  0  0  0  0  0  0  0  0  0  0
   48.2700   30.8410   47.8600 C   0  0  0  0  0  0  0  0  0  0  0  0
   48.6980   31.4460   49.1600 C   0  0  0  0  0  0  0  0  0  0  0  0
   49.4250   29.9920   50.0150 S   0  0  0  0  0  0  0  0  0  0  0  0
   49.0440   28.8690   48.5430 C   0  0  0  0  0  0  0  0  0  0  0  0
   48.5340   29.5490   47.7560 N   0  0  0  0  0  0  0  0  0  0  0  0
   46.2481   35.2303   44.5104 H   0  0  0  0  0  0  0  0  0  0  0  0
   44.6000   36.5306   43.0525 H   0  0  0  0  0  0  0  0  0  0  0  0
   42.9693   34.9691   41.9785 H   0  0  0  0  0  0  0  0  0  0  0  0
   44.4310   35.2790   40.8717 H   0  0  0  0  0  0  0  0  0  0  0  0
   43.3310   32.9400   41.1909 H   0  0  0  0  0  0  0  0  0  0  0  0
   45.0893   33.2439   40.9023 H   0  0  0  0  0  0  0  0  0  0  0  0
   43.7936   32.8959   43.6393 H   0  0  0  0  0  0  0  0  0  0  0  0
   44.6792   31.6238   42.7684 H   0  0  0  0  0  0  0  0  0  0  0  0
   48.7812   32.9417   43.4113 H   0  0  0  0  0  0  0  0  0  0  0  0
   50.7170   36.0357   42.6206 H   0  0  0  0  0  0  0  0  0  0  0  0
   50.8519   34.4626   43.4511 H   0  0  0  0  0  0  0  0  0  0  0  0
   45.9394   34.2789   45.8383 H   0  0  0  0  0  0  0  0  0  0  0  0
   47.1678   30.7869   43.5293 H   0  0  0  0  0  0  0  0  0  0  0  0
   48.6027   32.4844   49.5101 H   0  0  0  0  0  0  0  0  0  0  0  0
   49.2612   27.7944   48.4526 H   0  0  0  0  0  0  0  0  0  0  0  0
  1  7  1  6
  1  2  1  0
  1 15  1  0
  3  2  2  0
  4  3  1  0
  5  4  1  0
  5  6  1  0
  6  1  1  0
  7  9  1  0
  8  7  2  0
 10  9  1  0
 10 12  1  0
 11 10  2  0
 13 11  1  0
 14 19  2  0
 15 14  1  0
 16 15  2  0
 16 17  1  0
 17 18  2  0
 18 19  1  0
 18 20  1  0
 20 21  2  0
 21 22  1  0
 23 22  1  0
 24 20  1  0
 24 23  2  0
  2 25  1  0
  3 26  1  0
  4 27  1  0
  4 28  1  0
  5 29  1  0
  5 30  1  0
  6 31  1  0
  6 32  1  0
  9 33  1  0
 12 34  1  0
 12 35  1  0
 14 36  1  0
 16 37  1  0
 21 38  1  0
 23 39  1  0
M  ISO  8  25  13  26  13  27  13  28  13  29  13  30  13  31  13  32  13
M  ISO  4  36  14  37  14  38  14  39  14
M  END
>  <minimizedAffinity>  (1) 
-5.50026655

>  <minimizedRMSD>  (1) 
1.49789059

$$$$
