
     RDKit          3D

 43 45  0  0  1  0  0  0  0  0999 V2000
   45.0010   33.7110   42.2380 C   0  0  1  0  0  0  0  0  0  0  0  0
   44.9680   35.1760   42.4840 C   0  0  0  0  0  0  0  0  0  0  0  0
   44.0570   35.9430   41.6720 C   0  0  0  0  0  0  0  0  0  0  0  0
   43.2130   35.3230   40.6740 C   0  0  0  0  0  0  0  0  0  0  0  0
   43.2620   33.8730   40.5610 C   0  0  0  0  0  0  0  0  0  0  0  0
   43.6150   33.2320   41.8720 C   0  0  0  0  0  0  0  0  0  0  0  0
   46.0040   33.5240   41.1010 C   0  0  0  0  0  0  0  0  0  0  0  0
   45.9670   33.4960   39.8310 O   0  0  0  0  0  0  0  0  0  0  0  0
   47.3750   33.3230   41.5660 N   0  0  0  0  0  0  0  0  0  0  0  0
   48.3790   34.2680   41.4070 C   0  0  0  0  0  0  0  0  0  0  0  0
   48.3600   35.4160   40.9780 N   0  0  0  0  0  0  0  0  0  0  0  0
   49.7640   34.0780   41.7740 N   0  0  0  0  0  0  0  0  0  0  0  0
   47.6730   36.0480   40.6520 H   0  0  0  0  0  0  0  0  0  0  0  0
   46.0280   33.8290   44.4430 C   0  0  0  0  0  0  0  0  0  0  0  0
   45.5880   33.0330   43.4050 C   0  0  0  0  0  0  0  0  0  0  0  0
   45.7620   31.6060   43.4990 C   0  0  0  0  0  0  0  0  0  0  0  0
   46.3480   31.1050   44.5910 N   0  0  0  0  0  0  0  0  0  0  0  0
   46.7690   31.9100   45.5850 C   0  0  0  0  0  0  0  0  0  0  0  0
   46.6090   33.2350   45.5040 N   0  0  0  0  0  0  0  0  0  0  0  0
   47.4090   31.2750   46.7570 C   0  0  0  0  0  0  0  0  0  0  0  0
   47.8430   29.9670   46.6900 C   0  0  0  0  0  0  0  0  0  0  0  0
   48.4440   29.3910   47.8140 C   0  0  0  0  0  0  0  0  0  0  0  0
   48.5720   30.1910   48.9540 C   0  0  0  0  0  0  0  0  0  0  0  0
   48.1390   31.5180   49.0420 C   0  0  0  0  0  0  0  0  0  0  0  0
   47.5530   32.0310   47.9020 C   0  0  0  0  0  0  0  0  0  0  0  0
   45.6049   35.6500   43.2453 H   0  0  0  0  0  0  0  0  0  0  0  0
   44.0019   37.0322   41.8155 H   0  0  0  0  0  0  0  0  0  0  0  0
   42.1735   35.6010   40.9025 H   0  0  0  0  0  0  0  0  0  0  0  0
   43.5977   35.6927   39.7121 H   0  0  0  0  0  0  0  0  0  0  0  0
   42.2769   33.5060   40.2371 H   0  0  0  0  0  0  0  0  0  0  0  0
   44.0379   33.6094   39.8272 H   0  0  0  0  0  0  0  0  0  0  0  0
   42.8942   33.5335   42.6463 H   0  0  0  0  0  0  0  0  0  0  0  0
   43.5863   32.1352   41.7935 H   0  0  0  0  0  0  0  0  0  0  0  0
   47.6076   32.4360   42.0350 H   0  0  0  0  0  0  0  0  0  0  0  0
   50.4458   34.8347   41.6209 H   0  0  0  0  0  0  0  0  0  0  0  0
   50.0692   33.1859   42.1886 H   0  0  0  0  0  0  0  0  0  0  0  0
   45.9074   34.9217   44.4052 H   0  0  0  0  0  0  0  0  0  0  0  0
   45.4202   30.9434   42.6902 H   0  0  0  0  0  0  0  0  0  0  0  0
   47.7180   29.3850   45.7650 H   0  0  0  0  0  0  0  0  0  0  0  0
   48.8015   28.3508   47.8018 H   0  0  0  0  0  0  0  0  0  0  0  0
   49.0454   29.7463   49.8418 H   0  0  0  0  0  0  0  0  0  0  0  0
   48.2575   32.1137   49.9591 H   0  0  0  0  0  0  0  0  0  0  0  0
   47.1914   33.0699   47.9068 H   0  0  0  0  0  0  0  0  0  0  0  0
  1  7  1  6
  1  2  1  0
  1 15  1  0
  3  2  2  0
  4  3  1  0
  5  4  1  0
  5  6  1  0
  6  1  1  0
  7  9  1  0
  8  7  2  0
 10  9  1  0
 10 12  1  0
 11 10  2  0
 13 11  1  0
 14 19  2  0
 15 16  2  0
 15 14  1  0
 16 17  1  0
 17 18  2  0
 18 20  1  0
 19 18  1  0
 20 25  1  0
 21 20  2  0
 21 22  1  0
 22 23  2  0
 23 24  1  0
 25 24  2  0
  2 26  1  0
  3 27  1  0
  4 28  1  0
  4 29  1  0
  5 30  1  0
  5 31  1  0
  6 32  1  0
  6 33  1  0
  9 34  1  0
 12 35  1  0
 12 36  1  0
 14 37  1  0
 16 38  1  0
 21 39  1  0
 22 40  1  0
 23 41  1  0
 24 42  1  0
 25 43  1  0
M  ISO  8  26  13  27  13  28  13  29  13  30  13  31  13  32  13  33  13
M  ISO  7  37  14  38  14  39  14  40  14  41  14  42  14  43  14
M  END
>  <minimizedAffinity>  (1) 
-5.52373838

>  <minimizedRMSD>  (1) 
2.17244816

$$$$
