
     RDKit          3D

 25 27  0  0  0  0  0  0  0  0999 V2000
   45.9970   34.4140   41.9420 N   0  0  0  0  0  0  0  0  0  0  0  0
   45.4200   34.0820   40.7780 C   0  0  0  0  0  0  0  0  0  0  0  0
   46.3430   33.9050   39.8260 N   0  0  0  0  0  0  0  0  0  0  0  0
   47.5220   34.1370   40.4240 C   0  0  0  0  0  0  0  0  0  0  0  0
   47.3270   34.4570   41.7490 N   0  0  0  0  0  0  0  0  0  0  0  0
   48.8650   34.1010   39.8850 N   0  0  0  0  0  0  0  0  0  0  0  0
   44.4640   36.0590   44.9380 C   0  0  0  0  0  0  0  0  0  0  0  0
   44.8630   35.8930   43.6030 C   0  0  0  0  0  0  0  0  0  0  0  0
   45.5360   34.7130   43.2570 C   0  0  0  0  0  0  0  0  0  0  0  0
   45.7610   33.8010   44.2460 N   0  0  0  0  0  0  0  0  0  0  0  0
   45.3610   34.0000   45.5190 C   0  0  0  0  0  0  0  0  0  0  0  0
   44.7230   35.1150   45.8560 N   0  0  0  0  0  0  0  0  0  0  0  0
   43.9700   33.9580   40.6900 C   0  0  0  0  0  0  0  0  0  0  0  0
   43.1510   34.9920   40.2650 C   0  0  0  0  0  0  0  0  0  0  0  0
   41.8430   34.5850   40.2870 C   0  0  0  0  0  0  0  0  0  0  0  0
   41.9030   33.3140   40.7240 N   0  0  0  0  0  0  0  0  0  0  0  0
   43.1340   32.9640   40.9530 N   0  0  0  0  0  0  0  0  0  0  0  0
   49.6698   34.3086   40.4933 H   0  0  0  0  0  0  0  0  0  0  0  0
   49.0158   33.8678   38.8931 H   0  0  0  0  0  0  0  0  0  0  0  0
   43.9321   36.9746   45.2359 H   0  0  0  0  0  0  0  0  0  0  0  0
   44.6537   36.6666   42.8496 H   0  0  0  0  0  0  0  0  0  0  0  0
   45.5644   33.2344   46.2822 H   0  0  0  0  0  0  0  0  0  0  0  0
   43.4986   35.9890   39.9566 H   0  0  0  0  0  0  0  0  0  0  0  0
   40.9495   35.1641   40.0109 H   0  0  0  0  0  0  0  0  0  0  0  0
   41.0856   32.7020   40.8587 H   0  0  0  0  0  0  0  0  0  0  0  0
  1  9  1  0
  2  1  1  0
  3  4  1  0
  3  2  2  0
  4  5  2  0
  5  1  1  0
  6  4  1  0
  7 12  2  0
  8  7  1  0
  9  8  2  0
  9 10  1  0
 10 11  2  0
 11 12  1  0
 13  2  1  0
 13 17  2  0
 14 15  2  0
 14 13  1  0
 15 16  1  0
 16 17  1  0
  6 18  1  0
  6 19  1  0
  7 20  1  0
  8 21  1  0
 11 22  1  0
 14 23  1  0
 15 24  1  0
 16 25  1  0
M  ISO  6  20  14  21  14  22  14  23  14  24  14  25   9
M  END
>  <minimizedAffinity>  (1) 
-4.80378771

>  <minimizedRMSD>  (1) 
1.24103141

$$$$
