
     RDKit          3D

 24 26  0  0  0  0  0  0  0  0999 V2000
   46.0610   34.4190   41.9950 N   0  0  0  0  0  0  0  0  0  0  0  0
   45.4740   34.1340   40.8080 C   0  0  0  0  0  0  0  0  0  0  0  0
   46.4420   33.9150   39.8950 N   0  0  0  0  0  0  0  0  0  0  0  0
   47.6110   34.0670   40.5230 C   0  0  0  0  0  0  0  0  0  0  0  0
   47.3850   34.3840   41.8410 N   0  0  0  0  0  0  0  0  0  0  0  0
   48.9530   33.9410   40.0180 N   0  0  0  0  0  0  0  0  0  0  0  0
   44.4610   36.0770   44.9410 C   0  0  0  0  0  0  0  0  0  0  0  0
   44.8900   35.8890   43.6290 C   0  0  0  0  0  0  0  0  0  0  0  0
   45.5640   34.7260   43.2930 C   0  0  0  0  0  0  0  0  0  0  0  0
   45.7840   33.7900   44.2890 N   0  0  0  0  0  0  0  0  0  0  0  0
   45.3460   34.0090   45.5680 C   0  0  0  0  0  0  0  0  0  0  0  0
   44.6990   35.1370   45.8720 N   0  0  0  0  0  0  0  0  0  0  0  0
   43.9940   34.1030   40.6800 C   0  0  0  0  0  0  0  0  0  0  0  0
   43.3930   32.7960   40.9510 C   0  0  0  0  0  0  0  0  0  0  0  0
   41.5870   33.1780   40.6890 S   0  0  0  0  0  0  0  0  0  0  0  0
   41.9730   34.9930   40.2720 C   0  0  0  0  0  0  0  0  0  0  0  0
   43.2010   35.1200   40.3540 N   0  0  0  0  0  0  0  0  0  0  0  0
   49.7557   34.0934   40.6452 H   0  0  0  0  0  0  0  0  0  0  0  0
   49.1106   33.6984   39.0295 H   0  0  0  0  0  0  0  0  0  0  0  0
   43.9257   36.9978   45.2161 H   0  0  0  0  0  0  0  0  0  0  0  0
   44.6953   36.6573   42.8663 H   0  0  0  0  0  0  0  0  0  0  0  0
   45.5276   33.2538   46.3469 H   0  0  0  0  0  0  0  0  0  0  0  0
   43.8749   31.8480   41.2322 H   0  0  0  0  0  0  0  0  0  0  0  0
   41.2468   35.7764   40.0094 H   0  0  0  0  0  0  0  0  0  0  0  0
  1  9  1  0
  2  1  1  0
  3  4  1  0
  3  2  2  0
  4  5  2  0
  5  1  1  0
  6  4  1  0
  7 12  2  0
  8  7  1  0
  9  8  2  0
  9 10  1  0
 10 11  2  0
 11 12  1  0
 13  2  1  0
 13 14  2  0
 15 14  1  0
 16 17  2  0
 16 15  1  0
 17 13  1  0
  6 18  1  0
  6 19  1  0
  7 20  1  0
  8 21  1  0
 11 22  1  0
 14 23  1  0
 16 24  1  0
M  ISO  5  20  14  21  14  22  14  23  14  24  14
M  END
>  <minimizedAffinity>  (1) 
-4.77828407

>  <minimizedRMSD>  (1) 
1.26968896

$$$$
