
     RDKit          3D

 44 46  0  0  1  0  0  0  0  0999 V2000
   46.0620   32.9450   43.7210 C   0  0  1  0  0  0  0  0  0  0  0  0
   45.8690   34.3820   44.0810 C   0  0  0  0  0  0  0  0  0  0  0  0
   44.8950   35.1110   43.3270 C   0  0  0  0  0  0  0  0  0  0  0  0
   44.1380   34.5170   42.2620 C   0  0  0  0  0  0  0  0  0  0  0  0
   44.2960   33.0800   42.0580 C   0  0  0  0  0  0  0  0  0  0  0  0
   44.7450   32.3780   43.2890 C   0  0  0  0  0  0  0  0  0  0  0  0
   47.0820   32.9630   42.5760 C   0  0  0  0  0  0  0  0  0  0  0  0
   47.1060   32.6330   41.3470 O   0  0  0  0  0  0  0  0  0  0  0  0
   48.3750   33.5090   43.0210 N   0  0  0  0  0  0  0  0  0  0  0  0
   48.8780   34.7060   42.5680 C   0  0  0  0  0  0  0  0  0  0  0  0
   48.3990   35.5820   41.8830 N   0  0  0  0  0  0  0  0  0  0  0  0
   50.2090   35.1880   42.8730 N   0  0  0  0  0  0  0  0  0  0  0  0
   47.5100   35.7820   41.5140 H   0  0  0  0  0  0  0  0  0  0  0  0
   46.7340   32.8730   46.0630 C   0  0  0  0  0  0  0  0  0  0  0  0
   46.7020   32.2520   44.8400 C   0  0  0  0  0  0  0  0  0  0  0  0
   47.3400   30.9530   44.7030 C   0  0  0  0  0  0  0  0  0  0  0  0
   47.9310   30.4250   45.7730 N   0  0  0  0  0  0  0  0  0  0  0  0
   47.9390   31.0710   46.9480 C   0  0  0  0  0  0  0  0  0  0  0  0
   47.3500   32.2730   47.0900 N   0  0  0  0  0  0  0  0  0  0  0  0
   48.6270   30.4410   48.1020 C   0  0  0  0  0  0  0  0  0  0  0  0
   48.9540   31.2170   49.2060 C   0  0  0  0  0  0  0  0  0  0  0  0
   49.6060   30.6040   50.2890 C   0  0  0  0  0  0  0  0  0  0  0  0
   49.9070   29.3030   50.2620 N   0  0  0  0  0  0  0  0  0  0  0  0
   49.5770   28.5700   49.1730 C   0  0  0  0  0  0  0  0  0  0  0  0
   48.9470   29.1320   48.1120 N   0  0  0  0  0  0  0  0  0  0  0  0
   49.9110   27.1200   49.1390 C   0  0  0  0  0  0  0  0  0  0  0  0
   48.7450   26.3780   48.9270 F   0  0  0  0  0  0  0  0  0  0  0  0
   50.3940   26.7180   50.3710 F   0  0  0  0  0  0  0  0  0  0  0  0
   50.8810   26.8270   48.1930 F   0  0  0  0  0  0  0  0  0  0  0  0
   46.4477   34.8570   44.8869 H   0  0  0  0  0  0  0  0  0  0  0  0
   44.7196   36.1686   43.5735 H   0  0  0  0  0  0  0  0  0  0  0  0
   43.0739   34.7084   42.4644 H   0  0  0  0  0  0  0  0  0  0  0  0
   44.5258   34.9804   41.3428 H   0  0  0  0  0  0  0  0  0  0  0  0
   43.3291   32.6595   41.7445 H   0  0  0  0  0  0  0  0  0  0  0  0
   45.0682   32.9338   41.2884 H   0  0  0  0  0  0  0  0  0  0  0  0
   44.0020   32.5217   44.0873 H   0  0  0  0  0  0  0  0  0  0  0  0
   44.8525   31.3024   43.0851 H   0  0  0  0  0  0  0  0  0  0  0  0
   48.9279   32.9699   43.7026 H   0  0  0  0  0  0  0  0  0  0  0  0
   50.5258   36.0951   42.5019 H   0  0  0  0  0  0  0  0  0  0  0  0
   50.8389   34.6238   43.4610 H   0  0  0  0  0  0  0  0  0  0  0  0
   46.2578   33.8552   46.1990 H   0  0  0  0  0  0  0  0  0  0  0  0
   47.3347   30.4202   43.7406 H   0  0  0  0  0  0  0  0  0  0  0  0
   48.7078   32.2888   49.2321 H   0  0  0  0  0  0  0  0  0  0  0  0
   49.8724   31.2040   51.1717 H   0  0  0  0  0  0  0  0  0  0  0  0
  1  7  1  6
  1  2  1  0
  1 15  1  0
  3  2  2  0
  4  3  1  0
  5  4  1  0
  5  6  1  0
  6  1  1  0
  7  9  1  0
  8  7  2  0
 10 12  1  0
 10  9  1  0
 11 10  2  0
 13 11  1  0
 14 19  2  0
 15 14  1  0
 16 15  2  0
 16 17  1  0
 17 18  2  0
 18 19  1  0
 18 20  1  0
 20 25  1  0
 20 21  2  0
 21 22  1  0
 23 22  2  0
 24 23  1  0
 25 24  2  0
 26 24  1  0
 26 28  1  0
 27 26  1  0
 29 26  1  0
  2 30  1  0
  3 31  1  0
  4 32  1  0
  4 33  1  0
  5 34  1  0
  5 35  1  0
  6 36  1  0
  6 37  1  0
  9 38  1  0
 12 39  1  0
 12 40  1  0
 14 41  1  0
 16 42  1  0
 21 43  1  0
 22 44  1  0
M  ISO  8  30  13  31  13  32  13  33  13  34  13  35  13  36  13  37  13
M  ISO  4  41  14  42  14  43  14  44  14
M  END
>  <minimizedAffinity>  (1) 
-5.95111179

>  <minimizedRMSD>  (1) 
1.03908086

$$$$
