
     RDKit          3D

 22 23  0  0  0  0  0  0  0  0999 V2000
   44.5070   35.9080   44.7090 C   0  0  0  0  0  0  0  0  0  0  0  0
   45.1980   35.6350   43.5200 C   0  0  0  0  0  0  0  0  0  0  0  0
   46.0320   34.5240   43.4480 C   0  0  0  0  0  0  0  0  0  0  0  0
   46.1020   33.7770   44.5830 N   0  0  0  0  0  0  0  0  0  0  0  0
   45.4420   34.0380   45.7210 C   0  0  0  0  0  0  0  0  0  0  0  0
   44.6500   35.1090   45.7590 N   0  0  0  0  0  0  0  0  0  0  0  0
   46.8080   34.1480   42.2330 C   0  0  0  0  0  0  0  0  0  0  0  0
   46.3300   34.3930   40.9950 C   0  0  0  0  0  0  0  0  0  0  0  0
   47.6370   33.7540   39.9050 S   0  0  0  0  0  0  0  0  0  0  0  0
   48.6680   33.2340   41.4250 C   0  0  0  0  0  0  0  0  0  0  0  0
   47.9750   33.5700   42.2870 N   0  0  0  0  0  0  0  0  0  0  0  0
   50.0170   32.5670   41.3700 C   0  0  0  0  0  0  0  0  0  0  0  0
   50.9030   33.3150   42.3430 C   0  0  0  0  0  0  0  0  0  0  0  0
   43.8459   36.7850   44.7716 H   0  0  0  0  0  0  0  0  0  0  0  0
   45.0812   36.2960   42.6485 H   0  0  0  0  0  0  0  0  0  0  0  0
   45.5515   33.3853   46.5996 H   0  0  0  0  0  0  0  0  0  0  0  0
   45.3778   34.8660   40.7130 H   0  0  0  0  0  0  0  0  0  0  0  0
   49.9319   31.5113   41.6671 H   0  0  0  0  0  0  0  0  0  0  0  0
   50.4329   32.5913   40.3519 H   0  0  0  0  0  0  0  0  0  0  0  0
   50.6082   33.0661   43.3731 H   0  0  0  0  0  0  0  0  0  0  0  0
   51.9517   33.0249   42.1815 H   0  0  0  0  0  0  0  0  0  0  0  0
   50.7929   34.3975   42.1815 H   0  0  0  0  0  0  0  0  0  0  0  0
  1  6  2  0
  2  1  1  0
  3  2  2  0
  3  4  1  0
  4  5  2  0
  5  6  1  0
  7 11  1  0
  7  3  1  0
  8  7  2  0
  9  8  1  0
  9 10  1  0
 10 11  2  0
 12 10  1  0
 12 13  1  0
  1 14  1  0
  2 15  1  0
  5 16  1  0
  8 17  1  0
 12 18  1  0
 12 19  1  0
 13 20  1  0
 13 21  1  0
 13 22  1  0
M  ISO  8  14  14  15  14  16  14  17  14  18   8  19   8  20   8  21   8
M  ISO  1  22   8
M  END
>  <minimizedAffinity>  (1) 
-4.12150288

>  <minimizedRMSD>  (1) 
1.87583756

$$$$
