
     RDKit          3D

 33 35  0  0  1  0  0  0  0  0999 V2000
   46.0160   34.3780   41.0040 C   0  0  2  0  0  0  0  0  0  0  0  0
   46.6390   33.5240   39.9990 C   0  0  0  0  0  0  0  0  0  0  0  0
   46.9140   32.1640   40.6450 C   0  0  0  0  0  0  0  0  0  0  0  0
   46.3300   32.2080   42.0350 C   0  0  2  0  0  0  0  0  0  0  0  0
   46.3000   33.6550   42.3520 C   0  0  0  0  0  0  0  0  0  0  0  0
   44.5560   34.5460   40.9480 C   0  0  0  0  0  0  0  0  0  0  0  0
   43.8370   33.9700   39.8860 C   0  0  0  0  0  0  0  0  0  0  0  0
   42.4510   34.1090   39.8290 C   0  0  0  0  0  0  0  0  0  0  0  0
   41.8660   34.8220   40.8480 N   0  0  0  0  0  0  0  0  0  0  0  0
   42.5850   35.3660   41.8570 C   0  0  0  0  0  0  0  0  0  0  0  0
   43.9270   35.2300   41.9080 N   0  0  0  0  0  0  0  0  0  0  0  0
   47.1230   31.4130   42.9150 N   0  0  0  0  0  0  0  0  0  0  0  0
   48.4270   31.2180   42.5760 C   0  0  0  0  0  0  0  0  0  0  0  0
   49.2980   30.4710   43.3400 C   0  0  0  0  0  0  0  0  0  0  0  0
   48.8440   29.8820   44.5070 C   0  0  0  0  0  0  0  0  0  0  0  0
   49.5600   29.1830   45.2700 O   0  0  0  0  0  0  0  0  0  0  0  0
   47.5580   30.0990   44.8000 N   0  0  0  0  0  0  0  0  0  0  0  0
   46.7260   30.8270   44.0500 C   0  0  0  0  0  0  0  0  0  0  0  0
   45.5330   30.9910   44.3790 O   0  0  0  0  0  0  0  0  0  0  0  0
   46.4287   35.3865   40.8539 H   0  0  0  0  0  0  0  0  0  0  0  0
   47.5832   33.9743   39.6588 H   0  0  0  0  0  0  0  0  0  0  0  0
   45.9760   33.4087   39.1288 H   0  0  0  0  0  0  0  0  0  0  0  0
   46.4359   31.3646   40.0598 H   0  0  0  0  0  0  0  0  0  0  0  0
   47.9940   31.9580   40.6800 H   0  0  0  0  0  0  0  0  0  0  0  0
   45.3210   31.7813   42.1342 H   0  0  0  0  0  0  0  0  0  0  0  0
   47.2681   33.9773   42.7631 H   0  0  0  0  0  0  0  0  0  0  0  0
   45.5340   33.8886   43.1061 H   0  0  0  0  0  0  0  0  0  0  0  0
   44.3672   33.4105   39.1013 H   0  0  0  0  0  0  0  0  0  0  0  0
   41.8576   33.6716   39.0125 H   0  0  0  0  0  0  0  0  0  0  0  0
   42.0676   35.9281   42.6484 H   0  0  0  0  0  0  0  0  0  0  0  0
   48.8029   31.6776   41.6500 H   0  0  0  0  0  0  0  0  0  0  0  0
   50.3443   30.3443   43.0249 H   0  0  0  0  0  0  0  0  0  0  0  0
   47.1835   29.6767   45.6616 H   0  0  0  0  0  0  0  0  0  0  0  0
  1  5  1  0
  2  3  1  0
  2  1  1  0
  3  4  1  0
  4  5  1  0
  4 12  1  0
  6  1  1  0
  6 11  1  0
  7  6  2  0
  8  7  1  0
  8  9  2  0
  9 10  1  0
 10 11  2  0
 12 18  1  0
 13 12  1  0
 13 14  2  0
 14 15  1  0
 15 17  1  0
 15 16  2  0
 18 19  2  0
 18 17  1  0
  1 20  1  1
  2 21  1  0
  2 22  1  0
  3 23  1  0
  3 24  1  0
  4 25  1  6
  5 26  1  0
  5 27  1  0
  7 28  1  0
  8 29  1  0
 10 30  1  0
 13 31  1  0
 14 32  1  0
 17 33  1  0
M  ISO  8  20  13  21  13  22  13  23  13  24  13  25  13  26  13  27  13
M  ISO  6  28  14  29  14  30  14  31  14  32  14  33   9
M  END
>  <minimizedAffinity>  (1) 
-3.35651565

>  <minimizedRMSD>  (1) 
4.82097673

$$$$
