
     RDKit          3D

 25 26  0  0  1  0  0  0  0  0999 V2000
   46.6690   34.6380   41.5860 C   0  0  2  0  0  0  0  0  0  0  0  0
   46.1640   35.4800   42.6710 C   0  0  0  0  0  0  0  0  0  0  0  0
   45.2710   34.6040   43.5470 C   0  0  0  0  0  0  0  0  0  0  0  0
   45.4160   33.1880   43.0600 C   0  0  2  0  0  0  0  0  0  0  0  0
   45.7680   33.3690   41.6280 C   0  0  0  0  0  0  0  0  0  0  0  0
   48.0480   34.1370   41.6940 C   0  0  0  0  0  0  0  0  0  0  0  0
   48.9790   34.8800   42.4440 C   0  0  0  0  0  0  0  0  0  0  0  0
   50.2890   34.4150   42.5800 C   0  0  0  0  0  0  0  0  0  0  0  0
   50.5760   33.2260   41.9500 N   0  0  0  0  0  0  0  0  0  0  0  0
   49.6670   32.5370   41.2410 C   0  0  0  0  0  0  0  0  0  0  0  0
   48.4140   32.9900   41.1150 N   0  0  0  0  0  0  0  0  0  0  0  0
   44.3160   32.3490   43.3220 N   0  0  0  0  0  0  0  0  0  0  0  0
   46.6544   35.2622   40.6804 H   0  0  0  0  0  0  0  0  0  0  0  0
   47.0029   35.8738   43.2636 H   0  0  0  0  0  0  0  0  0  0  0  0
   45.5990   36.3345   42.2703 H   0  0  0  0  0  0  0  0  0  0  0  0
   45.5886   34.6749   44.5977 H   0  0  0  0  0  0  0  0  0  0  0  0
   44.2228   34.9316   43.4844 H   0  0  0  0  0  0  0  0  0  0  0  0
   46.1873   32.6256   43.6066 H   0  0  0  0  0  0  0  0  0  0  0  0
   44.8611   33.5197   41.0240 H   0  0  0  0  0  0  0  0  0  0  0  0
   46.2806   32.4872   41.2161 H   0  0  0  0  0  0  0  0  0  0  0  0
   48.6759   35.8236   42.9213 H   0  0  0  0  0  0  0  0  0  0  0  0
   51.0462   34.9666   43.1565 H   0  0  0  0  0  0  0  0  0  0  0  0
   49.9552   31.5911   40.7591 H   0  0  0  0  0  0  0  0  0  0  0  0
   44.1915   32.2540   44.3400 H   0  0  0  0  0  0  0  0  0  0  0  0
   43.4659   32.7583   42.9088 H   0  0  0  0  0  0  0  0  0  0  0  0
  1  5  1  0
  1  6  1  0
  1  2  1  0
  2  3  1  0
  4 12  1  0
  4  3  1  0
  5  4  1  0
  6  7  2  0
  7  8  1  0
  9  8  2  0
 10  9  1  0
 11 10  2  0
 11  6  1  0
  1 13  1  6
  2 14  1  0
  2 15  1  0
  3 16  1  0
  3 17  1  0
  4 18  1  1
  5 19  1  0
  5 20  1  0
  7 21  1  0
  8 22  1  0
 10 23  1  0
 12 24  1  0
 12 25  1  0
M  ISO  8  13  13  14  13  15  13  16  13  17  13  18  13  19  13  20  13
M  ISO  5  21  14  22  14  23  14  24   5  25   5
M  END
>  <minimizedAffinity>  (1) 
-3.78874397

>  <minimizedRMSD>  (1) 
4.32042551

$$$$
