
     RDKit          3D

 26 27  0  0  1  0  0  0  0  0999 V2000
   48.3860   34.7240   40.7980 C   0  0  2  0  0  0  0  0  0  0  0  0
   48.0700   35.5120   41.9860 C   0  0  0  0  0  0  0  0  0  0  0  0
   46.6530   35.1470   42.4300 C   0  0  0  0  0  0  0  0  0  0  0  0
   46.1810   34.0220   41.5440 C   0  0  2  0  0  0  0  0  0  0  0  0
   47.0010   34.1960   40.3180 C   0  0  0  0  0  0  0  0  0  0  0  0
   49.2170   33.5240   40.9720 C   0  0  0  0  0  0  0  0  0  0  0  0
   50.0710   33.4410   42.0890 C   0  0  0  0  0  0  0  0  0  0  0  0
   50.8500   32.3000   42.2760 C   0  0  0  0  0  0  0  0  0  0  0  0
   50.7320   31.3100   41.3380 N   0  0  0  0  0  0  0  0  0  0  0  0
   49.8960   31.4200   40.2660 C   0  0  0  0  0  0  0  0  0  0  0  0
   49.1570   32.5150   40.0970 N   0  0  0  0  0  0  0  0  0  0  0  0
   44.7030   34.1630   41.2450 C   0  0  0  0  0  0  0  0  0  0  0  0
   48.9630   35.3817   40.1314 H   0  0  0  0  0  0  0  0  0  0  0  0
   48.7847   35.2798   42.7893 H   0  0  0  0  0  0  0  0  0  0  0  0
   48.1358   36.5868   41.7611 H   0  0  0  0  0  0  0  0  0  0  0  0
   46.6600   34.8211   43.4806 H   0  0  0  0  0  0  0  0  0  0  0  0
   45.9831   36.0155   42.3467 H   0  0  0  0  0  0  0  0  0  0  0  0
   46.2963   33.0263   41.9972 H   0  0  0  0  0  0  0  0  0  0  0  0
   46.5280   34.9237   39.6421 H   0  0  0  0  0  0  0  0  0  0  0  0
   47.1006   33.2516   39.7629 H   0  0  0  0  0  0  0  0  0  0  0  0
   50.1230   34.2710   42.8090 H   0  0  0  0  0  0  0  0  0  0  0  0
   51.5276   32.2000   43.1368 H   0  0  0  0  0  0  0  0  0  0  0  0
   49.8317   30.5992   39.5365 H   0  0  0  0  0  0  0  0  0  0  0  0
   44.1414   34.2166   42.1893 H   0  0  0  0  0  0  0  0  0  0  0  0
   44.5324   35.0815   40.6643 H   0  0  0  0  0  0  0  0  0  0  0  0
   44.3618   33.2933   40.6643 H   0  0  0  0  0  0  0  0  0  0  0  0
  1  6  1  0
  1  2  1  0
  2  3  1  0
  4  3  1  0
  5  1  1  0
  5  4  1  0
  6  7  2  0
  7  8  1  0
  9  8  2  0
 10  9  1  0
 11 10  2  0
 11  6  1  0
 12  4  1  0
  1 13  1  6
  2 14  1  0
  2 15  1  0
  3 16  1  0
  3 17  1  0
  4 18  1  1
  5 19  1  0
  5 20  1  0
  7 21  1  0
  8 22  1  0
 10 23  1  0
 12 24  1  0
 12 25  1  0
 12 26  1  0
M  ISO  8  13  13  14  13  15  13  16  13  17  13  18  13  19  13  20  13
M  ISO  6  21  14  22  14  23  14  24   8  25   8  26   8
M  END
>  <minimizedAffinity>  (1) 
-3.50712204

>  <minimizedRMSD>  (1) 
4.27633524

$$$$
