
     RDKit          3D

 33 35  0  0  1  0  0  0  0  0999 V2000
   46.2230   33.1070   38.2520 C   0  0  2  0  0  0  0  0  0  0  0  0
   45.9520   33.4490   39.6480 C   0  0  0  0  0  0  0  0  0  0  0  0
   44.4420   33.3390   39.8790 C   0  0  0  0  0  0  0  0  0  0  0  0
   43.8350   32.8070   38.6020 C   0  0  2  0  0  0  0  0  0  0  0  0
   44.8290   33.1940   37.5680 C   0  0  0  0  0  0  0  0  0  0  0  0
   46.7140   31.7500   37.9650 C   0  0  0  0  0  0  0  0  0  0  0  0
   47.4170   31.0560   38.9650 C   0  0  0  0  0  0  0  0  0  0  0  0
   47.8730   29.7610   38.7100 C   0  0  0  0  0  0  0  0  0  0  0  0
   47.5970   29.2410   37.4750 N   0  0  0  0  0  0  0  0  0  0  0  0
   46.9140   29.9390   36.5280 C   0  0  0  0  0  0  0  0  0  0  0  0
   46.4790   31.1840   36.7780 N   0  0  0  0  0  0  0  0  0  0  0  0
   42.5200   33.4640   38.4330 C   0  0  0  0  0  0  0  0  0  0  0  0
   42.5010   34.8580   38.4820 C   0  0  0  0  0  0  0  0  0  0  0  0
   41.3000   35.5510   38.3320 C   0  0  0  0  0  0  0  0  0  0  0  0
   40.1380   34.8370   38.1350 C   0  0  0  0  0  0  0  0  0  0  0  0
   40.1650   33.4510   38.0880 C   0  0  0  0  0  0  0  0  0  0  0  0
   41.3540   32.7550   38.2360 C   0  0  0  0  0  0  0  0  0  0  0  0
   47.0215   33.7823   37.9108 H   0  0  0  0  0  0  0  0  0  0  0  0
   46.4829   32.7517   40.3128 H   0  0  0  0  0  0  0  0  0  0  0  0
   46.2978   34.4705   39.8647 H   0  0  0  0  0  0  0  0  0  0  0  0
   44.2368   32.6487   40.7105 H   0  0  0  0  0  0  0  0  0  0  0  0
   44.0132   34.3183   40.1381 H   0  0  0  0  0  0  0  0  0  0  0  0
   43.6482   31.7236   38.5660 H   0  0  0  0  0  0  0  0  0  0  0  0
   44.6381   34.2201   37.2207 H   0  0  0  0  0  0  0  0  0  0  0  0
   44.7715   32.5340   36.6899 H   0  0  0  0  0  0  0  0  0  0  0  0
   47.6063   31.5289   39.9400 H   0  0  0  0  0  0  0  0  0  0  0  0
   48.4278   29.1862   39.4662 H   0  0  0  0  0  0  0  0  0  0  0  0
   46.7164   29.4790   35.5485 H   0  0  0  0  0  0  0  0  0  0  0  0
   43.4375   35.4131   38.6397 H   0  0  0  0  0  0  0  0  0  0  0  0
   41.2807   36.6502   38.3703 H   0  0  0  0  0  0  0  0  0  0  0  0
   39.1831   35.3695   38.0143 H   0  0  0  0  0  0  0  0  0  0  0  0
   39.2284   32.8960   37.9309 H   0  0  0  0  0  0  0  0  0  0  0  0
   41.3674   31.6558   38.1970 H   0  0  0  0  0  0  0  0  0  0  0  0
  1  2  1  0
  2  3  1  0
  4  3  1  0
  5  1  1  0
  5  4  1  0
  6  1  1  0
  6  7  2  0
  8  7  1  0
  9  8  2  0
 10 11  2  0
 10  9  1  0
 11  6  1  0
 12 13  2  0
 12  4  1  0
 14 13  1  0
 15 14  2  0
 16 15  1  0
 16 17  2  0
 17 12  1  0
  1 18  1  6
  2 19  1  0
  2 20  1  0
  3 21  1  0
  3 22  1  0
  4 23  1  1
  5 24  1  0
  5 25  1  0
  7 26  1  0
  8 27  1  0
 10 28  1  0
 13 29  1  0
 14 30  1  0
 15 31  1  0
 16 32  1  0
 17 33  1  0
M  ISO  8  18  13  19  13  20  13  21  13  22  13  23  13  24  13  25  13
M  ISO  8  26  14  27  14  28  14  29  14  30  14  31  14  32  14  33  14
M  END
>  <minimizedAffinity>  (1) 
-3.35740805

>  <minimizedRMSD>  (1) 
7.38841152

$$$$
