
     RDKit          3D

 40 43  0  0  1  0  0  0  0  0999 V2000
   46.0860   35.0990   41.8650 C   0  0  2  0  0  0  0  0  0  0  0  0
   47.4850   34.8050   41.6710 C   0  0  0  0  0  0  0  0  0  0  0  0
   48.0390   34.1500   42.9540 C   0  0  0  0  0  0  0  0  0  0  0  0
   46.8720   34.0060   43.9010 C   0  0  1  0  0  0  0  0  0  0  0  0
   45.9220   35.0280   43.4340 C   0  0  0  0  0  0  0  0  0  0  0  0
   45.0630   34.1890   41.3520 C   0  0  0  0  0  0  0  0  0  0  0  0
   45.4220   33.3180   40.3100 C   0  0  0  0  0  0  0  0  0  0  0  0
   44.5010   32.4180   39.7910 C   0  0  0  0  0  0  0  0  0  0  0  0
   43.2460   32.4490   40.3610 N   0  0  0  0  0  0  0  0  0  0  0  0
   42.9250   33.3040   41.3680 C   0  0  0  0  0  0  0  0  0  0  0  0
   43.8370   34.1650   41.8530 N   0  0  0  0  0  0  0  0  0  0  0  0
   46.1910   32.3440   43.9560 S   0  0  0  0  0  0  0  0  0  0  0  0
   46.9680   31.3060   45.1460 C   0  0  0  0  0  0  0  0  0  0  0  0
   47.9020   30.3480   44.8030 C   0  0  0  0  0  0  0  0  0  0  0  0
   48.4750   29.5600   45.7990 C   0  0  0  0  0  0  0  0  0  0  0  0
   48.0630   29.7890   47.1140 C   0  0  0  0  0  0  0  0  0  0  0  0
   47.1330   30.7370   47.4860 C   0  0  0  0  0  0  0  0  0  0  0  0
   46.7870   30.8910   48.8140 C   0  0  0  0  0  0  0  0  0  0  0  0
   45.8470   31.8540   49.1550 C   0  0  0  0  0  0  0  0  0  0  0  0
   45.2890   32.6270   48.1600 C   0  0  0  0  0  0  0  0  0  0  0  0
   45.6300   32.4800   46.8200 C   0  0  0  0  0  0  0  0  0  0  0  0
   46.5760   31.5120   46.4630 C   0  0  0  0  0  0  0  0  0  0  0  0
   45.9071   36.0365   41.3181 H   0  0  0  0  0  0  0  0  0  0  0  0
   47.6034   34.1146   40.8229 H   0  0  0  0  0  0  0  0  0  0  0  0
   48.0356   35.7332   41.4579 H   0  0  0  0  0  0  0  0  0  0  0  0
   48.4648   33.1624   42.7229 H   0  0  0  0  0  0  0  0  0  0  0  0
   48.8386   34.7607   43.3986 H   0  0  0  0  0  0  0  0  0  0  0  0
   47.1611   34.1610   44.9510 H   0  0  0  0  0  0  0  0  0  0  0  0
   46.1577   36.0026   43.8864 H   0  0  0  0  0  0  0  0  0  0  0  0
   44.8898   34.7748   43.7178 H   0  0  0  0  0  0  0  0  0  0  0  0
   46.4428   33.3493   39.9013 H   0  0  0  0  0  0  0  0  0  0  0  0
   44.7564   31.7241   38.9766 H   0  0  0  0  0  0  0  0  0  0  0  0
   41.9093   33.2914   41.7902 H   0  0  0  0  0  0  0  0  0  0  0  0
   48.1914   30.2082   43.7510 H   0  0  0  0  0  0  0  0  0  0  0  0
   49.2217   28.7886   45.5595 H   0  0  0  0  0  0  0  0  0  0  0  0
   48.5107   29.1713   47.9065 H   0  0  0  0  0  0  0  0  0  0  0  0
   47.2485   30.2611   49.5887 H   0  0  0  0  0  0  0  0  0  0  0  0
   45.5517   31.9980   50.2048 H   0  0  0  0  0  0  0  0  0  0  0  0
   44.5456   33.3893   48.4363 H   0  0  0  0  0  0  0  0  0  0  0  0
   45.1635   33.1147   46.0522 H   0  0  0  0  0  0  0  0  0  0  0  0
  1  5  1  0
  2  1  1  0
  2  3  1  0
  3  4  1  0
  4 12  1  0
  5  4  1  0
  6 11  1  0
  6  1  1  0
  7  6  2  0
  8  7  1  0
  8  9  2  0
  9 10  1  0
 10 11  2  0
 12 13  1  0
 13 22  1  0
 14 13  2  0
 14 15  1  0
 15 16  2  0
 16 17  1  0
 17 18  2  0
 18 19  1  0
 20 19  2  0
 21 20  1  0
 22 21  2  0
 22 17  1  0
  1 23  1  6
  2 24  1  0
  2 25  1  0
  3 26  1  0
  3 27  1  0
  4 28  1  1
  5 29  1  0
  5 30  1  0
  7 31  1  0
  8 32  1  0
 10 33  1  0
 14 34  1  0
 15 35  1  0
 16 36  1  0
 18 37  1  0
 19 38  1  0
 20 39  1  0
 21 40  1  0
M  ISO  8  23  13  24  13  25  13  26  13  27  13  28  13  29  13  30  13
M  ISO  8  31  14  32  14  33  14  34  14  35  14  36  14  37  14  38  14
M  ISO  2  39  14  40  14
M  END
>  <minimizedAffinity>  (1) 
-5.23120451

>  <minimizedRMSD>  (1) 
2.47241306

$$$$
