
     RDKit          3D

 39 41  0  0  1  0  0  0  0  0999 V2000
   47.2220   34.5000   43.0940 C   0  0  2  0  0  0  0  0  0  0  0  0
   46.7340   33.5880   44.1010 C   0  0  0  0  0  0  0  0  0  0  0  0
   45.1960   33.5970   44.0560 C   0  0  0  0  0  0  0  0  0  0  0  0
   44.7880   34.4980   42.9230 C   0  0  1  0  0  0  0  0  0  0  0  0
   45.9560   35.3810   42.7590 C   0  0  0  0  0  0  0  0  0  0  0  0
   47.6610   34.0000   41.7940 C   0  0  0  0  0  0  0  0  0  0  0  0
   48.0170   32.6400   41.7070 C   0  0  0  0  0  0  0  0  0  0  0  0
   48.4260   32.0940   40.4970 C   0  0  0  0  0  0  0  0  0  0  0  0
   48.4490   32.9720   39.4230 N   0  0  0  0  0  0  0  0  0  0  0  0
   48.1010   34.2700   39.5380 C   0  0  0  0  0  0  0  0  0  0  0  0
   47.7120   34.7720   40.7160 N   0  0  0  0  0  0  0  0  0  0  0  0
   44.3160   33.6180   41.4350 S   0  0  0  0  0  0  0  0  0  0  0  0
   40.7720   35.7790   39.7090 N   0  0  0  0  0  0  0  0  0  0  0  0
   40.7280   35.5110   41.1250 C   0  0  0  0  0  0  0  0  0  0  0  0
   42.1520   35.3070   41.6580 C   0  0  0  0  0  0  0  0  0  0  0  0
   42.5550   33.9400   41.1490 C   0  0  0  0  0  0  0  0  0  0  0  0
   42.3100   33.8490   39.6540 C   0  0  0  0  0  0  0  0  0  0  0  0
   41.8980   35.1650   39.0550 C   0  0  0  0  0  0  0  0  0  0  0  0
   48.1268   34.9483   43.5303 H   0  0  0  0  0  0  0  0  0  0  0  0
   47.1062   32.5734   43.8958 H   0  0  0  0  0  0  0  0  0  0  0  0
   47.0860   33.8982   45.0959 H   0  0  0  0  0  0  0  0  0  0  0  0
   44.8184   32.5786   43.8821 H   0  0  0  0  0  0  0  0  0  0  0  0
   44.7802   33.9562   45.0089 H   0  0  0  0  0  0  0  0  0  0  0  0
   43.8685   35.0617   43.1393 H   0  0  0  0  0  0  0  0  0  0  0  0
   46.0119   35.7518   41.7249 H   0  0  0  0  0  0  0  0  0  0  0  0
   45.8916   36.2588   43.4187 H   0  0  0  0  0  0  0  0  0  0  0  0
   47.9708   32.0053   42.6042 H   0  0  0  0  0  0  0  0  0  0  0  0
   48.7124   31.0366   40.3970 H   0  0  0  0  0  0  0  0  0  0  0  0
   48.1373   34.9232   38.6537 H   0  0  0  0  0  0  0  0  0  0  0  0
   39.9073   35.4198   39.2799 H   0  0  0  0  0  0  0  0  0  0  0  0
   40.2620   36.3618   41.6437 H   0  0  0  0  0  0  0  0  0  0  0  0
   40.1381   34.6001   41.3048 H   0  0  0  0  0  0  0  0  0  0  0  0
   42.8280   36.0820   41.2677 H   0  0  0  0  0  0  0  0  0  0  0  0
   42.2020   35.3764   42.7547 H   0  0  0  0  0  0  0  0  0  0  0  0
   41.9509   33.2002   41.6946 H   0  0  0  0  0  0  0  0  0  0  0  0
   43.2365   33.5138   39.1648 H   0  0  0  0  0  0  0  0  0  0  0  0
   41.4866   33.1374   39.4938 H   0  0  0  0  0  0  0  0  0  0  0  0
   42.7522   35.8554   39.1160 H   0  0  0  0  0  0  0  0  0  0  0  0
   41.5916   34.9609   38.0184 H   0  0  0  0  0  0  0  0  0  0  0  0
  1  2  1  0
  3  2  1  0
  4  3  1  0
  5  4  1  0
  5  1  1  0
  6  1  1  0
  7  6  2  0
  8  7  1  0
  9 10  1  0
  9  8  2  0
 10 11  2  0
 11  6  1  0
 12  4  1  0
 13 14  1  0
 14 15  1  0
 16 12  1  0
 16 15  1  0
 17 16  1  0
 18 17  1  0
 18 13  1  0
  1 19  1  1
  2 20  1  0
  2 21  1  0
  3 22  1  0
  3 23  1  0
  4 24  1  1
  5 25  1  0
  5 26  1  0
  7 27  1  0
  8 28  1  0
 10 29  1  0
 13 30  1  0
 14 31  1  0
 14 32  1  0
 15 33  1  0
 15 34  1  0
 16 35  1  0
 17 36  1  0
 17 37  1  0
 18 38  1  0
 18 39  1  0
M  ISO  8  19  13  20  13  21  13  22  13  23  13  24  13  25  13  26  13
M  ISO  8  27  14  28  14  29  14  30   5  31  13  32  13  33  13  34  13
M  ISO  5  35  13  36  13  37  13  38  13  39  13
M  END
>  <minimizedAffinity>  (1) 
-4.60306358

>  <minimizedRMSD>  (1) 
5.22793722

$$$$
