
     RDKit          3D

 40 42  0  0  1  0  0  0  0  0999 V2000
   39.1690   34.5270   38.9990 C   0  0  2  0  0  0  0  0  0  0  0  0
   40.0600   34.9000   37.9290 C   0  0  0  0  0  0  0  0  0  0  0  0
   41.2880   35.5750   38.5380 C   0  0  0  0  0  0  0  0  0  0  0  0
   41.1310   35.5370   40.0510 C   0  0  1  0  0  0  0  0  0  0  0  0
   39.6700   35.4120   40.2070 C   0  0  0  0  0  0  0  0  0  0  0  0
   39.1690   33.1570   39.5190 C   0  0  0  0  0  0  0  0  0  0  0  0
   39.7650   32.1680   38.7360 C   0  0  0  0  0  0  0  0  0  0  0  0
   39.8220   30.8460   39.1620 C   0  0  0  0  0  0  0  0  0  0  0  0
   39.2500   30.6050   40.4000 N   0  0  0  0  0  0  0  0  0  0  0  0
   38.6810   31.5770   41.1350 C   0  0  0  0  0  0  0  0  0  0  0  0
   38.6420   32.8470   40.6940 N   0  0  0  0  0  0  0  0  0  0  0  0
   42.0990   34.2550   40.8240 S   0  0  0  0  0  0  0  0  0  0  0  0
   43.7500   34.1930   40.0960 C   0  0  0  0  0  0  0  0  0  0  0  0
   44.7770   34.4450   41.1270 C   0  0  0  0  0  0  0  0  0  0  0  0
   46.1630   34.0340   40.6010 C   0  0  0  0  0  0  0  0  0  0  0  0
   46.0780   32.5350   40.4200 C   0  0  0  0  0  0  0  0  0  0  0  0
   45.2310   32.3430   39.1790 C   0  0  0  0  0  0  0  0  0  0  0  0
   43.8670   32.8960   39.3400 C   0  0  0  0  0  0  0  0  0  0  0  0
   38.1556   34.6524   38.5899 H   0  0  0  0  0  0  0  0  0  0  0  0
   39.5513   35.5984   37.2483 H   0  0  0  0  0  0  0  0  0  0  0  0
   40.3618   34.0083   37.3599 H   0  0  0  0  0  0  0  0  0  0  0  0
   42.1989   35.0342   38.2417 H   0  0  0  0  0  0  0  0  0  0  0  0
   41.3734   36.6131   38.1844 H   0  0  0  0  0  0  0  0  0  0  0  0
   41.5235   36.4243   40.5693 H   0  0  0  0  0  0  0  0  0  0  0  0
   39.1972   36.4046   40.1737 H   0  0  0  0  0  0  0  0  0  0  0  0
   39.4089   34.9547   41.1727 H   0  0  0  0  0  0  0  0  0  0  0  0
   40.1984   32.4397   37.7622 H   0  0  0  0  0  0  0  0  0  0  0  0
   40.2867   30.0507   38.5607 H   0  0  0  0  0  0  0  0  0  0  0  0
   38.2406   31.3294   42.1121 H   0  0  0  0  0  0  0  0  0  0  0  0
   43.9228   34.9953   39.3635 H   0  0  0  0  0  0  0  0  0  0  0  0
   44.7857   35.5159   41.3783 H   0  0  0  0  0  0  0  0  0  0  0  0
   44.5411   33.8531   42.0237 H   0  0  0  0  0  0  0  0  0  0  0  0
   46.3759   34.5288   39.6419 H   0  0  0  0  0  0  0  0  0  0  0  0
   46.9711   34.3243   41.2885 H   0  0  0  0  0  0  0  0  0  0  0  0
   47.0800   32.1046   40.2758 H   0  0  0  0  0  0  0  0  0  0  0  0
   45.6463   32.0342   41.2991 H   0  0  0  0  0  0  0  0  0  0  0  0
   45.1537   31.2665   38.9663 H   0  0  0  0  0  0  0  0  0  0  0  0
   45.7175   32.8813   38.3523 H   0  0  0  0  0  0  0  0  0  0  0  0
   43.4515   33.0573   38.3344 H   0  0  0  0  0  0  0  0  0  0  0  0
   43.3242   32.1566   39.9471 H   0  0  0  0  0  0  0  0  0  0  0  0
  1  6  1  0
  1  5  1  0
  2  3  1  0
  2  1  1  0
  3  4  1  0
  4  5  1  0
  4 12  1  0
  6 11  2  0
  7  8  2  0
  7  6  1  0
  8  9  1  0
  9 10  2  0
 11 10  1  0
 13 12  1  0
 13 14  1  0
 15 14  1  0
 16 15  1  0
 17 18  1  0
 17 16  1  0
 18 13  1  0
  1 19  1  6
  2 20  1  0
  2 21  1  0
  3 22  1  0
  3 23  1  0
  4 24  1  1
  5 25  1  0
  5 26  1  0
  7 27  1  0
  8 28  1  0
 10 29  1  0
 13 30  1  0
 14 31  1  0
 14 32  1  0
 15 33  1  0
 15 34  1  0
 16 35  1  0
 16 36  1  0
 17 37  1  0
 17 38  1  0
 18 39  1  0
 18 40  1  0
M  ISO  8  19  13  20  13  21  13  22  13  23  13  24  13  25  13  26  13
M  ISO  8  27  14  28  14  29  14  30  13  31  13  32  13  33  13  34  13
M  ISO  6  35  13  36  13  37  13  38  13  39  13  40  13
M  END
>  <minimizedAffinity>  (1) 
-4.64387703

>  <minimizedRMSD>  (1) 
6.83303547

$$$$
