
     RDKit          3D

 34 36  0  0  1  0  0  0  0  0999 V2000
   45.9160   34.9560   41.7900 C   0  0  2  0  0  0  0  0  0  0  0  0
   47.3300   34.6830   41.6650 C   0  0  0  0  0  0  0  0  0  0  0  0
   47.8690   34.2180   43.0360 C   0  0  0  0  0  0  0  0  0  0  0  0
   46.6910   34.1520   43.9570 C   0  0  1  0  0  0  0  0  0  0  0  0
   45.7160   35.0820   43.3500 C   0  0  0  0  0  0  0  0  0  0  0  0
   44.9320   33.9570   41.3850 C   0  0  0  0  0  0  0  0  0  0  0  0
   45.3660   32.9350   40.5070 C   0  0  0  0  0  0  0  0  0  0  0  0
   44.4840   31.9440   40.0930 C   0  0  0  0  0  0  0  0  0  0  0  0
   43.2050   32.0300   40.5820 N   0  0  0  0  0  0  0  0  0  0  0  0
   42.8170   33.0210   41.4230 C   0  0  0  0  0  0  0  0  0  0  0  0
   43.6780   33.9680   41.8130 N   0  0  0  0  0  0  0  0  0  0  0  0
   46.0440   32.5010   44.2240 S   0  0  0  0  0  0  0  0  0  0  0  0
   46.2210   31.9580   45.8940 C   0  0  0  0  0  0  0  0  0  0  0  0
   46.7510   32.6590   46.9570 C   0  0  0  0  0  0  0  0  0  0  0  0
   46.7970   32.0450   48.1790 C   0  0  0  0  0  0  0  0  0  0  0  0
   46.3480   30.7780   48.4100 C   0  0  0  0  0  0  0  0  0  0  0  0
   45.8120   30.0550   47.3570 C   0  0  0  0  0  0  0  0  0  0  0  0
   45.7610   30.6700   46.1160 C   0  0  0  0  0  0  0  0  0  0  0  0
   45.7258   35.8072   41.1197 H   0  0  0  0  0  0  0  0  0  0  0  0
   47.4894   33.8921   40.9173 H   0  0  0  0  0  0  0  0  0  0  0  0
   47.8597   35.5918   41.3433 H   0  0  0  0  0  0  0  0  0  0  0  0
   48.3353   33.2260   42.9441 H   0  0  0  0  0  0  0  0  0  0  0  0
   48.6336   34.9105   43.4179 H   0  0  0  0  0  0  0  0  0  0  0  0
   46.9640   34.4411   44.9826 H   0  0  0  0  0  0  0  0  0  0  0  0
   45.9134   36.1128   43.6795 H   0  0  0  0  0  0  0  0  0  0  0  0
   44.6852   34.8388   43.6471 H   0  0  0  0  0  0  0  0  0  0  0  0
   46.4066   32.9251   40.1506 H   0  0  0  0  0  0  0  0  0  0  0  0
   44.7935   31.1371   39.4124 H   0  0  0  0  0  0  0  0  0  0  0  0
   41.7801   33.0465   41.7895 H   0  0  0  0  0  0  0  0  0  0  0  0
   47.1268   33.6845   46.8259 H   0  0  0  0  0  0  0  0  0  0  0  0
   47.2210   32.6062   49.0247 H   0  0  0  0  0  0  0  0  0  0  0  0
   46.4105   30.3375   49.4160 H   0  0  0  0  0  0  0  0  0  0  0  0
   45.4402   29.0297   47.5006 H   0  0  0  0  0  0  0  0  0  0  0  0
   45.3363   30.1105   45.2694 H   0  0  0  0  0  0  0  0  0  0  0  0
  1  5  1  0
  2  1  1  0
  2  3  1  0
  3  4  1  0
  4 12  1  0
  5  4  1  0
  6  1  1  0
  6 11  1  0
  7  6  2  0
  8  7  1  0
  8  9  2  0
  9 10  1  0
 10 11  2  0
 12 13  1  0
 13 18  1  0
 13 14  2  0
 14 15  1  0
 15 16  2  0
 17 16  1  0
 18 17  2  0
  1 19  1  6
  2 20  1  0
  2 21  1  0
  3 22  1  0
  3 23  1  0
  4 24  1  1
  5 25  1  0
  5 26  1  0
  7 27  1  0
  8 28  1  0
 10 29  1  0
 14 30  1  0
 15 31  1  0
 16 32  1  0
 17 33  1  0
 18 34  1  0
M  ISO  8  19  13  20  13  21  13  22  13  23  13  24  13  25  13  26  13
M  ISO  8  27  14  28  14  29  14  30  14  31  14  32  14  33  14  34  14
M  END
>  <minimizedAffinity>  (1) 
-4.18425322

>  <minimizedRMSD>  (1) 
2.78741503

$$$$
