
     RDKit          3D

 31 33  0  0  1  0  0  0  0  0999 V2000
   46.9420   33.9520   40.3310 C   0  0  2  0  0  0  0  0  0  0  0  0
   48.1590   34.6940   40.5610 C   0  0  0  0  0  0  0  0  0  0  0  0
   48.0380   35.4050   41.9190 C   0  0  0  0  0  0  0  0  0  0  0  0
   46.7340   35.0010   42.5240 C   0  0  1  0  0  0  0  0  0  0  0  0
   45.9280   34.5970   41.3540 C   0  0  0  0  0  0  0  0  0  0  0  0
   46.8820   32.5210   40.6160 C   0  0  0  0  0  0  0  0  0  0  0  0
   48.0980   31.8320   40.7280 C   0  0  0  0  0  0  0  0  0  0  0  0
   48.1130   30.4710   41.0160 C   0  0  0  0  0  0  0  0  0  0  0  0
   46.8770   29.8780   41.1750 N   0  0  0  0  0  0  0  0  0  0  0  0
   45.7320   30.5640   41.0600 C   0  0  0  0  0  0  0  0  0  0  0  0
   45.7300   31.8800   40.7810 N   0  0  0  0  0  0  0  0  0  0  0  0
   46.8810   33.7220   43.7790 S   0  0  0  0  0  0  0  0  0  0  0  0
   44.3500   34.7050   46.5960 N   0  0  0  0  0  0  0  0  0  0  0  0
   44.8490   34.9090   45.3880 N   0  0  0  0  0  0  0  0  0  0  0  0
   45.8130   34.0200   45.1570 C   0  0  0  0  0  0  0  0  0  0  0  0
   45.9160   33.2240   46.2770 C   0  0  0  0  0  0  0  0  0  0  0  0
   44.9830   33.6600   47.1930 C   0  0  0  0  0  0  0  0  0  0  0  0
   46.7696   34.0140   39.2464 H   0  0  0  0  0  0  0  0  0  0  0  0
   49.0174   34.0063   40.5758 H   0  0  0  0  0  0  0  0  0  0  0  0
   48.3127   35.4305   39.7585 H   0  0  0  0  0  0  0  0  0  0  0  0
   48.8665   35.1023   42.5763 H   0  0  0  0  0  0  0  0  0  0  0  0
   48.0828   36.4964   41.7896 H   0  0  0  0  0  0  0  0  0  0  0  0
   46.2663   35.8171   43.0943 H   0  0  0  0  0  0  0  0  0  0  0  0
   45.4383   35.4740   40.9057 H   0  0  0  0  0  0  0  0  0  0  0  0
   45.1342   33.8896   41.6357 H   0  0  0  0  0  0  0  0  0  0  0  0
   49.0464   32.3711   40.5872 H   0  0  0  0  0  0  0  0  0  0  0  0
   49.0505   29.9035   41.1110 H   0  0  0  0  0  0  0  0  0  0  0  0
   44.7742   30.0406   41.1965 H   0  0  0  0  0  0  0  0  0  0  0  0
   43.5923   35.2573   47.0223 H   0  0  0  0  0  0  0  0  0  0  0  0
   46.6183   32.3887   46.4155 H   0  0  0  0  0  0  0  0  0  0  0  0
   44.7910   33.2494   48.1953 H   0  0  0  0  0  0  0  0  0  0  0  0
  1  2  1  0
  1  6  1  0
  1  5  1  0
  2  3  1  0
  3  4  1  0
  4 12  1  0
  5  4  1  0
  6  7  2  0
  6 11  1  0
  7  8  1  0
  8  9  2  0
 10  9  1  0
 11 10  2  0
 12 15  1  0
 13 17  1  0
 14 13  1  0
 15 14  2  0
 15 16  1  0
 16 17  2  0
  1 18  1  6
  2 19  1  0
  2 20  1  0
  3 21  1  0
  3 22  1  0
  4 23  1  1
  5 24  1  0
  5 25  1  0
  7 26  1  0
  8 27  1  0
 10 28  1  0
 13 29  1  0
 16 30  1  0
 17 31  1  0
M  ISO  8  18  13  19  13  20  13  21  13  22  13  23  13  24  13  25  13
M  ISO  6  26  14  27  14  28  14  29   9  30  14  31  14
M  END
>  <minimizedAffinity>  (1) 
-4.47411203

>  <minimizedRMSD>  (1) 
3.59002566

$$$$
