
     RDKit          3D

 31 33  0  0  1  0  0  0  0  0999 V2000
   47.6280   34.7710   41.8070 C   0  0  2  0  0  0  0  0  0  0  0  0
   48.1280   33.8690   40.8000 C   0  0  0  0  0  0  0  0  0  0  0  0
   48.4830   32.5420   41.4810 C   0  0  0  0  0  0  0  0  0  0  0  0
   48.0920   32.6470   42.9220 C   0  0  1  0  0  0  0  0  0  0  0  0
   48.1110   34.1110   43.1570 C   0  0  0  0  0  0  0  0  0  0  0  0
   46.1880   34.9610   41.9840 C   0  0  0  0  0  0  0  0  0  0  0  0
   45.3450   34.4970   40.9750 C   0  0  0  0  0  0  0  0  0  0  0  0
   43.9670   34.6250   41.0840 C   0  0  0  0  0  0  0  0  0  0  0  0
   43.5160   35.2330   42.2460 N   0  0  0  0  0  0  0  0  0  0  0  0
   44.3490   35.6670   43.1960 C   0  0  0  0  0  0  0  0  0  0  0  0
   45.6930   35.5340   43.0730 N   0  0  0  0  0  0  0  0  0  0  0  0
   46.5330   31.8670   43.3170 S   0  0  0  0  0  0  0  0  0  0  0  0
   46.2190   31.8730   45.0100 C   0  0  0  0  0  0  0  0  0  0  0  0
   46.1800   30.8370   45.9540 C   0  0  0  0  0  0  0  0  0  0  0  0
   45.9050   31.0870   47.2640 C   0  0  0  0  0  0  0  0  0  0  0  0
   45.6600   32.4120   47.6500 C   0  0  0  0  0  0  0  0  0  0  0  0
   45.8230   33.3980   46.0670 S   0  0  0  0  0  0  0  0  0  0  0  0
   47.9884   35.7654   41.5050 H   0  0  0  0  0  0  0  0  0  0  0  0
   49.0247   34.2973   40.3283 H   0  0  0  0  0  0  0  0  0  0  0  0
   47.3665   33.7062   40.0231 H   0  0  0  0  0  0  0  0  0  0  0  0
   47.9331   31.7177   41.0034 H   0  0  0  0  0  0  0  0  0  0  0  0
   49.5604   32.3398   41.3894 H   0  0  0  0  0  0  0  0  0  0  0  0
   48.7746   32.0984   43.5876 H   0  0  0  0  0  0  0  0  0  0  0  0
   49.1293   34.4459   43.4040 H   0  0  0  0  0  0  0  0  0  0  0  0
   47.4630   34.3936   43.9997 H   0  0  0  0  0  0  0  0  0  0  0  0
   45.7773   34.0235   40.0812 H   0  0  0  0  0  0  0  0  0  0  0  0
   43.2800   34.2686   40.3023 H   0  0  0  0  0  0  0  0  0  0  0  0
   43.9357   36.1426   44.0977 H   0  0  0  0  0  0  0  0  0  0  0  0
   46.3750   29.8039   45.6306 H   0  0  0  0  0  0  0  0  0  0  0  0
   45.8759   30.2703   48.0003 H   0  0  0  0  0  0  0  0  0  0  0  0
   45.4248   32.7879   48.6567 H   0  0  0  0  0  0  0  0  0  0  0  0
  1  6  1  0
  1  5  1  0
  2  3  1  0
  2  1  1  0
  3  4  1  0
  4  5  1  0
  4 12  1  0
  6 11  2  0
  7  8  2  0
  7  6  1  0
  8  9  1  0
  9 10  2  0
 11 10  1  0
 12 13  1  0
 13 14  2  0
 13 17  1  0
 14 15  1  0
 15 16  2  0
 17 16  1  0
  1 18  1  6
  2 19  1  0
  2 20  1  0
  3 21  1  0
  3 22  1  0
  4 23  1  1
  5 24  1  0
  5 25  1  0
  7 26  1  0
  8 27  1  0
 10 28  1  0
 14 29  1  0
 15 30  1  0
 16 31  1  0
M  ISO  8  18  13  19  13  20  13  21  13  22  13  23  13  24  13  25  13
M  ISO  6  26  14  27  14  28  14  29  14  30  14  31  14
M  END
>  <minimizedAffinity>  (1) 
-4.26776934

>  <minimizedRMSD>  (1) 
2.3466754

$$$$
