
     RDKit          3D

 34 36  0  0  1  0  0  0  0  0999 V2000
   46.3180   35.0600   41.8540 C   0  0  2  0  0  0  0  0  0  0  0  0
   47.7280   34.7980   41.6970 C   0  0  0  0  0  0  0  0  0  0  0  0
   48.2290   34.1150   42.9710 C   0  0  0  0  0  0  0  0  0  0  0  0
   47.0400   33.8850   43.8700 C   0  0  1  0  0  0  0  0  0  0  0  0
   46.0920   34.9160   43.4110 C   0  0  0  0  0  0  0  0  0  0  0  0
   45.3320   34.1600   41.2510 C   0  0  0  0  0  0  0  0  0  0  0  0
   45.7550   33.3410   40.2030 C   0  0  0  0  0  0  0  0  0  0  0  0
   44.8780   32.4470   39.5980 C   0  0  0  0  0  0  0  0  0  0  0  0
   43.5900   32.4450   40.1130 N   0  0  0  0  0  0  0  0  0  0  0  0
   43.2130   33.2470   41.1250 C   0  0  0  0  0  0  0  0  0  0  0  0
   44.0830   34.1030   41.6920 N   0  0  0  0  0  0  0  0  0  0  0  0
   46.3970   32.2160   43.8150 S   0  0  0  0  0  0  0  0  0  0  0  0
   45.9480   31.7080   45.4620 C   0  0  0  0  0  0  0  0  0  0  0  0
   45.7140   30.4580   45.9900 C   0  0  0  0  0  0  0  0  0  0  0  0
   45.3860   30.3140   47.3010 C   0  0  0  0  0  0  0  0  0  0  0  0
   45.2710   31.3920   48.1590 C   0  0  0  0  0  0  0  0  0  0  0  0
   45.5030   32.6670   47.6490 C   0  0  0  0  0  0  0  0  0  0  0  0
   45.8370   32.8130   46.3110 C   0  0  0  0  0  0  0  0  0  0  0  0
   46.1432   36.0219   41.3498 H   0  0  0  0  0  0  0  0  0  0  0  0
   47.8907   34.1386   40.8317 H   0  0  0  0  0  0  0  0  0  0  0  0
   48.2739   35.7380   41.5285 H   0  0  0  0  0  0  0  0  0  0  0  0
   48.6994   33.1530   42.7194 H   0  0  0  0  0  0  0  0  0  0  0  0
   48.9759   34.7451   43.4761 H   0  0  0  0  0  0  0  0  0  0  0  0
   47.2840   33.9769   44.9387 H   0  0  0  0  0  0  0  0  0  0  0  0
   46.2944   35.8721   43.9158 H   0  0  0  0  0  0  0  0  0  0  0  0
   45.0533   34.6368   43.6413 H   0  0  0  0  0  0  0  0  0  0  0  0
   46.7953   33.4034   39.8510 H   0  0  0  0  0  0  0  0  0  0  0  0
   45.1836   31.7892   38.7710 H   0  0  0  0  0  0  0  0  0  0  0  0
   42.1779   33.2025   41.4947 H   0  0  0  0  0  0  0  0  0  0  0  0
   45.7931   29.5697   45.3461 H   0  0  0  0  0  0  0  0  0  0  0  0
   45.2054   29.3026   47.6939 H   0  0  0  0  0  0  0  0  0  0  0  0
   45.0035   31.2465   49.2160 H   0  0  0  0  0  0  0  0  0  0  0  0
   45.4221   33.5493   48.3009 H   0  0  0  0  0  0  0  0  0  0  0  0
   46.0186   33.8206   45.9089 H   0  0  0  0  0  0  0  0  0  0  0  0
  1  5  1  0
  2  1  1  0
  2  3  1  0
  3  4  1  0
  5  4  1  0
  6 11  1  0
  6  1  1  0
  7  6  2  0
  8  9  2  0
  8  7  1  0
  9 10  1  0
 10 11  2  0
 12  4  1  0
 12 13  1  0
 13 14  2  0
 13 18  1  0
 14 15  1  0
 15 16  2  0
 17 16  1  0
 18 17  2  0
  1 19  1  6
  2 20  1  0
  2 21  1  0
  3 22  1  0
  3 23  1  0
  4 24  1  1
  5 25  1  0
  5 26  1  0
  7 27  1  0
  8 28  1  0
 10 29  1  0
 14 30  1  0
 15 31  1  0
 16 32  1  0
 17 33  1  0
 18 34  1  0
M  ISO  8  19  13  20  13  21  13  22  13  23  13  24  13  25  13  26  13
M  ISO  8  27  14  28  14  29  14  30  14  31  14  32  14  33  14  34  14
M  END
>  <minimizedAffinity>  (1) 
-4.37943459

>  <minimizedRMSD>  (1) 
1.54578686

$$$$
