
     RDKit          3D

 27 28  0  0  1  0  0  0  0  0999 V2000
   45.9830   34.6240   41.4600 C   0  0  2  0  0  0  0  0  0  0  0  0
   47.3980   34.4930   41.1920 C   0  0  0  0  0  0  0  0  0  0  0  0
   48.1370   34.3250   42.5340 C   0  0  0  0  0  0  0  0  0  0  0  0
   47.0860   34.3040   43.6150 C   0  0  1  0  0  0  0  0  0  0  0  0
   45.9440   34.9970   42.9960 C   0  0  0  0  0  0  0  0  0  0  0  0
   45.1080   33.4630   41.3400 C   0  0  0  0  0  0  0  0  0  0  0  0
   45.5540   32.3750   40.5890 C   0  0  0  0  0  0  0  0  0  0  0  0
   44.7710   31.2310   40.4540 C   0  0  0  0  0  0  0  0  0  0  0  0
   43.5490   31.2650   41.1080 N   0  0  0  0  0  0  0  0  0  0  0  0
   43.1520   32.3230   41.8180 C   0  0  0  0  0  0  0  0  0  0  0  0
   43.9210   33.4180   41.9390 N   0  0  0  0  0  0  0  0  0  0  0  0
   46.7060   32.6550   44.2100 S   0  0  0  0  0  0  0  0  0  0  0  0
   46.0900   32.7940   45.9170 C   0  0  0  0  0  0  0  0  0  0  0  0
   45.1470   33.8040   46.0370 F   0  0  0  0  0  0  0  0  0  0  0  0
   45.6190   31.5930   46.3900 F   0  0  0  0  0  0  0  0  0  0  0  0
   47.1420   33.1620   46.7670 F   0  0  0  0  0  0  0  0  0  0  0  0
   45.6019   35.3244   40.7022 H   0  0  0  0  0  0  0  0  0  0  0  0
   47.5754   33.6118   40.5580 H   0  0  0  0  0  0  0  0  0  0  0  0
   47.7666   35.3875   40.6685 H   0  0  0  0  0  0  0  0  0  0  0  0
   48.7027   33.3816   42.5385 H   0  0  0  0  0  0  0  0  0  0  0  0
   48.8505   35.1465   42.6954 H   0  0  0  0  0  0  0  0  0  0  0  0
   47.4187   34.8018   44.5377 H   0  0  0  0  0  0  0  0  0  0  0  0
   46.0413   36.0848   43.1270 H   0  0  0  0  0  0  0  0  0  0  0  0
   44.9927   34.6948   43.4583 H   0  0  0  0  0  0  0  0  0  0  0  0
   46.5368   32.4213   40.0971 H   0  0  0  0  0  0  0  0  0  0  0  0
   45.0998   30.3598   39.8684 H   0  0  0  0  0  0  0  0  0  0  0  0
   42.1716   32.2979   42.3161 H   0  0  0  0  0  0  0  0  0  0  0  0
  1  5  1  0
  2  1  1  0
  2  3  1  0
  3  4  1  0
  4 12  1  0
  5  4  1  0
  6  1  1  0
  6 11  1  0
  7  6  2  0
  8  7  1  0
  8  9  2  0
  9 10  1  0
 10 11  2  0
 12 13  1  0
 13 14  1  0
 13 15  1  0
 13 16  1  0
  1 17  1  6
  2 18  1  0
  2 19  1  0
  3 20  1  0
  3 21  1  0
  4 22  1  1
  5 23  1  0
  5 24  1  0
  7 25  1  0
  8 26  1  0
 10 27  1  0
M  ISO  8  17  13  18  13  19  13  20  13  21  13  22  13  23  13  24  13
M  ISO  3  25  14  26  14  27  14
M  END
>  <minimizedAffinity>  (1) 
-3.61108017

>  <minimizedRMSD>  (1) 
0.636967242

$$$$
