
     RDKit          3D

 19 20  0  0  0  0  0  0  0  0999 V2000
   46.8460   34.2420   42.5030 N   0  0  0  0  0  0  0  0  0  0  0  0
   47.1030   33.1430   41.7630 C   0  0  0  0  0  0  0  0  0  0  0  0
   47.9110   33.4430   40.7410 N   0  0  0  0  0  0  0  0  0  0  0  0
   48.1590   34.7580   40.8550 C   0  0  0  0  0  0  0  0  0  0  0  0
   47.5000   35.2610   41.9490 N   0  0  0  0  0  0  0  0  0  0  0  0
   48.9620   35.6290   40.0300 N   0  0  0  0  0  0  0  0  0  0  0  0
   44.4780   35.7440   44.9680 C   0  0  0  0  0  0  0  0  0  0  0  0
   45.1770   35.5850   43.7790 C   0  0  0  0  0  0  0  0  0  0  0  0
   46.0740   34.5130   43.6710 C   0  0  0  0  0  0  0  0  0  0  0  0
   46.2230   33.6710   44.7330 N   0  0  0  0  0  0  0  0  0  0  0  0
   45.5140   33.8610   45.8880 C   0  0  0  0  0  0  0  0  0  0  0  0
   44.6620   34.8810   45.9910 N   0  0  0  0  0  0  0  0  0  0  0  0
   46.4820   31.9840   42.2220 O   0  0  0  0  0  0  0  0  0  0  0  0
   49.0453   36.6284   40.2650 H   0  0  0  0  0  0  0  0  0  0  0  0
   49.4517   35.2511   39.2064 H   0  0  0  0  0  0  0  0  0  0  0  0
   43.7696   36.5783   45.0778 H   0  0  0  0  0  0  0  0  0  0  0  0
   45.0305   36.2834   42.9418 H   0  0  0  0  0  0  0  0  0  0  0  0
   45.6475   33.1702   46.7336 H   0  0  0  0  0  0  0  0  0  0  0  0
   46.6133   31.1285   41.7414 H   0  0  0  0  0  0  0  0  0  0  0  0
  1  9  1  0
  2 13  1  0
  2  1  1  0
  3  4  1  0
  3  2  2  0
  4  5  2  0
  5  1  1  0
  6  4  1  0
  7 12  2  0
  8  7  1  0
  9  8  2  0
  9 10  1  0
 10 11  2  0
 11 12  1  0
  6 14  1  0
  6 15  1  0
  7 16  1  0
  8 17  1  0
 11 18  1  0
 13 19  1  0
M  ISO  4  16  14  17  14  18  14  19   3
M  END
>  <minimizedAffinity>  (1) 
-4.345963

>  <minimizedRMSD>  (1) 
1.1978662

$$$$
